data_functionalizedCrystal
_audit_creation_method	'MofGen! by Chris Wilmer'
_symmetry_space_group_name_H-M	'P1'
_symmetry_Int_Tables_number	1
_symmetry_cell_setting	triclinic
loop_
_symmetry_equiv_pos_as_xyz
  x,y,z
_cell_length_a	12.827893
_cell_length_b	25.639240
_cell_length_c	12.827885
_cell_angle_alpha	89.956835
_cell_angle_beta	89.980918
_cell_angle_gamma	90.032919
loop_
_atom_site_label
_atom_site_type_symbol
_atom_site_fract_x
_atom_site_fract_y
_atom_site_fract_z
Zn1	Zn	1.597543	-0.208123	-0.590746
Zn2	Zn	1.597385	-0.295568	-0.415966
Zn3	Zn	1.422785	-0.208149	-0.416020
Zn4	Zn	1.422717	-0.295530	-0.590666
O5	O	1.510108	-0.251843	-0.503350
O6	O	1.743758	-0.219728	-0.567572
O7	O	1.574185	-0.283999	-0.269737
O8	O	1.446062	-0.134980	-0.439255
O9	O	1.743642	-0.283974	-0.439161
O10	O	1.574456	-0.134961	-0.567625
O11	O	1.445908	-0.219772	-0.269777
O12	O	1.276540	-0.219735	-0.439177
O13	O	1.445946	-0.283908	-0.736913
O14	O	1.276490	-0.283933	-0.567489
O15	O	1.574391	-0.219691	-0.736972
O16	O	1.574120	-0.368728	-0.439084
O17	O	1.445792	-0.368700	-0.567435
C18	C	1.238598	-0.251833	-0.503331
C19	C	1.122445	-0.251841	-0.503347
C20	C	0.950618	-0.283666	-0.566758
C21	C	1.070669	-0.283658	-0.566742
C22	C	1.509960	-0.387685	-0.503268
C23	C	1.509992	-0.445799	-0.503268
C24	C	1.576996	-0.806114	-0.570313
C25	C	1.577027	-0.860718	-0.570334
O26	O	1.633820	-0.888914	-0.627254
N27	N	1.510253	-0.888082	-0.503451
C28	C	1.443436	-0.860838	-0.436549
O29	O	1.386642	-0.889127	-0.379663
C30	C	1.443401	-0.806235	-0.436534
C31	C	1.510186	-0.778874	-0.503414
C32	C	1.643775	-0.778753	-0.637188
C33	C	1.643746	-0.724153	-0.637165
C34	C	1.576936	-0.696913	-0.570267
C35	C	1.510157	-0.724273	-0.503391
C36	C	1.376579	-0.778992	-0.369639
C37	C	1.376549	-0.724385	-0.369630
C38	C	1.443335	-0.697024	-0.436510
C39	C	1.443318	-0.642433	-0.436470
N40	N	1.510092	-0.615070	-0.503353
C41	C	1.576901	-0.642310	-0.570252
C42	C	1.443514	-0.975508	-0.436588
C43	C	1.443554	-1.030111	-0.436597
C44	C	1.577143	-1.029987	-0.570383
C45	C	1.577108	-0.975384	-0.570368
C46	C	1.510288	-0.948145	-0.503471
C47	C	1.576834	-0.527644	-0.570198
C48	C	1.576802	-0.473039	-0.570166
C49	C	1.443209	-0.473167	-0.436384
C50	C	1.443245	-0.527768	-0.436412
C51	C	1.510061	-0.555005	-0.503327
O52	O	1.386551	-0.614203	-0.379582
O53	O	1.633676	-0.614014	-0.627139
C54	C	1.782678	-0.251853	-0.503369
C55	C	1.898831	-0.251857	-0.503378
C56	C	1.510179	-0.251792	-0.775920
C57	C	1.510209	-0.251771	-0.892073
C58	C	1.510284	-0.115470	-0.503455
C59	C	1.510360	-0.057355	-0.503499
C60	C	1.573774	-0.219988	-0.943887
C61	C	1.573807	-0.219965	-1.063937
C62	C	1.510097	-0.251855	-0.231840
C63	C	1.510269	-0.251729	-0.115687
H64	H	1.115205	-0.310889	-0.621009
H65	H	1.628231	-0.192756	-1.108496
H66	H	0.943370	-0.224620	-0.449100
C67	C	1.650277	-0.442946	-0.643740
N68	N	1.705617	-0.420281	-0.699154
H69	H	1.455850	-0.278943	-1.071135
H70	H	1.077915	-0.224605	-0.449087
C71	C	1.370092	-1.060201	-0.363015
N72	N	1.314753	-1.082864	-0.307596
C73	C	1.303101	-0.809076	-0.296071
N74	N	1.247750	-0.831735	-0.240658
H75	H	1.455806	-0.278961	-0.936590
H76	H	0.906079	-0.310908	-0.621027
H77	H	1.631490	-0.953110	-0.624828
H78	H	1.631235	-0.549815	-0.624694
H79	H	1.698125	-0.701879	-0.691628
C80	C	1.370006	-0.945551	-0.362987
N81	N	1.314637	-0.922989	-0.307553
C82	C	1.647261	-0.183248	-0.883751
N83	N	1.702613	-0.155574	-0.838459
C84	C	1.717286	-0.808709	-0.710780
N85	N	1.772668	-0.831267	-0.766205
C86	C	1.650628	-1.059962	-0.643981
N87	N	1.705971	-1.082540	-0.699412
C88	C	1.303041	-0.694425	-0.296034
N89	N	1.247678	-0.671861	-0.240600
H90	H	1.388870	-0.550046	-0.381944
H91	H	1.388816	-0.450980	-0.381913
