data_functionalizedCrystal
_audit_creation_method	'MofGen! by Chris Wilmer'
_symmetry_space_group_name_H-M	'P1'
_symmetry_Int_Tables_number	1
_symmetry_cell_setting	triclinic
loop_
_symmetry_equiv_pos_as_xyz
  x,y,z
_cell_length_a	16.120530
_cell_length_b	16.120484
_cell_length_c	16.120256
_cell_angle_alpha	95.616173
_cell_angle_beta	90.128265
_cell_angle_gamma	90.167327
loop_
_atom_site_label
_atom_site_type_symbol
_atom_site_fract_x
_atom_site_fract_y
_atom_site_fract_z
Zn1	Zn	1.224986	-0.422281	-0.554816
Zn2	Zn	1.474986	-0.172281	-0.304816
Zn3	Zn	1.724986	0.077719	-0.054816
Zn4	Zn	1.974986	0.327719	0.195184
Zn5	Zn	1.224882	-0.554961	-0.422121
Zn6	Zn	1.474882	-0.304961	-0.172121
Zn7	Zn	1.724882	-0.054961	0.077879
Zn8	Zn	1.974882	0.195039	0.327879
Zn9	Zn	1.093725	-0.408193	-0.408058
Zn10	Zn	1.343725	-0.158193	-0.158058
Zn11	Zn	1.593725	0.091807	0.091942
Zn12	Zn	1.843725	0.341807	0.341942
Zn13	Zn	1.078879	-0.554198	-0.554054
Zn14	Zn	1.328879	-0.304198	-0.304054
Zn15	Zn	1.578879	-0.054198	-0.054054
Zn16	Zn	1.828879	0.195802	0.195946
O17	O	1.155618	-0.484908	-0.484762
O18	O	1.405618	-0.234908	-0.234762
O19	O	1.655618	0.015092	0.015238
O20	O	1.905618	0.265092	0.265238
O21	O	1.341008	-0.446097	-0.543418
O22	O	1.591008	-0.196097	-0.293418
O23	O	1.841008	0.053903	-0.043418
O24	O	2.091008	0.303903	0.206582
O25	O	1.213653	-0.529915	-0.303622
O26	O	1.463653	-0.279915	-0.053622
O27	O	1.713653	-0.029915	0.196378
O28	O	1.963653	0.220085	0.446378
O29	O	1.117394	-0.293431	-0.421960
O30	O	1.367394	-0.043431	-0.171960
O31	O	1.617394	0.206569	0.078040
O32	O	1.867394	0.456569	0.328040
O33	O	1.340931	-0.543577	-0.445927
O34	O	1.590931	-0.293577	-0.195927
O35	O	1.840931	-0.043577	0.054073
O36	O	2.090931	0.206423	0.304073
O37	O	1.213831	-0.303782	-0.529783
O38	O	1.463831	-0.053782	-0.279783
O39	O	1.713831	0.196218	-0.029783
O40	O	1.963831	0.446218	0.220217
O41	O	1.117293	-0.422085	-0.293290
O42	O	1.367293	-0.172085	-0.043290
O43	O	1.617293	0.077915	0.206710
O44	O	1.867293	0.327915	0.456710
O45	O	0.975720	-0.421345	-0.421221
O46	O	1.225720	-0.171345	-0.171221
O47	O	1.475720	0.078655	0.078779
O48	O	1.725720	0.328655	0.328779
O49	O	1.092090	-0.542275	-0.670788
O50	O	1.342090	-0.292275	-0.420788
O51	O	1.592090	-0.042275	-0.170788
O52	O	1.842090	0.207725	0.079212
O53	O	0.964812	-0.528614	-0.528483
O54	O	1.214812	-0.278614	-0.278483
O55	O	1.464812	-0.028614	-0.028483
O56	O	1.714812	0.221386	0.221517
O57	O	1.199435	-0.445357	-0.671349
O58	O	1.449435	-0.195357	-0.421349
O59	O	1.699435	0.054643	-0.171349
O60	O	1.949435	0.304643	0.078651
O61	O	1.199257	-0.671491	-0.445188
O62	O	1.449257	-0.421491	-0.195188
O63	O	1.699257	-0.171491	0.054812
O64	O	1.949257	0.078509	0.304812
O65	O	1.091989	-0.670930	-0.542119
O66	O	1.341989	-0.420930	-0.292119
O67	O	1.591989	-0.170930	-0.042119
O68	O	1.841989	0.079070	0.207881
C69	C	0.940179	-0.473368	-0.473243
C70	C	1.190179	-0.223368	-0.223243
C71	C	1.440179	0.026632	0.026757
C72	C	1.690179	0.276632	0.276757
C73	C	0.848012	-0.468453	-0.468336
C74	C	1.098012	-0.218453	-0.218336
C75	C	1.348012	0.031547	0.031664
C76	C	1.598012	0.281547	0.281664
C77	C	0.679260	-0.459459	-0.459384
C78	C	0.929260	-0.209459	-0.209384
C79	C	1.179260	0.040541	0.040616
C80	C	1.429260	0.290541	0.290616
C81	C	0.632809	-0.510422	-0.510204
C82	C	0.882809	-0.260422	-0.260204
C83	C	1.132809	-0.010422	-0.010204
C84	C	1.382809	0.239578	0.239796
C85	C	0.538910	-0.505418	-0.505223
C86	C	0.788910	-0.255418	-0.255223
C87	C	1.038910	-0.005418	-0.005223
C88	C	1.288910	0.244582	0.244777
C89	C	0.773168	-0.464462	-0.464364
C90	C	1.023168	-0.214462	-0.214364
C91	C	1.273168	0.035538	0.035636
C92	C	1.523168	0.285538	0.285636
C93	C	1.144022	-0.701453	-0.495116
C94	C	1.394022	-0.451453	-0.245116
C95	C	1.644022	-0.201453	0.004884
C96	C	1.894022	0.048547	0.254884
C97	C	1.139136	-0.794098	-0.499577
C98	C	1.389136	-0.544098	-0.249577
C99	C	1.639136	-0.294098	0.000423
C100	C	1.889136	-0.044098	0.250423
C101	C	1.130219	-0.963721	-0.507739
C102	C	1.380219	-0.713721	-0.257739
C103	C	1.630219	-0.463721	-0.007739
C104	C	1.880219	-0.213721	0.242261
C105	C	1.181165	-1.005263	-0.461807
C106	C	1.431165	-0.755263	-0.211807
C107	C	1.681165	-0.505263	0.038193
C108	C	1.931165	-0.255263	0.288193
C109	C	1.176203	-1.099648	-0.466348
C110	C	1.426203	-0.849648	-0.216348
C111	C	1.676203	-0.599648	0.033652
C112	C	1.926203	-0.349648	0.283652
C113	C	1.135179	-0.869328	-0.503199
C114	C	1.385179	-0.619328	-0.253199
C115	C	1.635179	-0.369328	-0.003199
C116	C	1.885179	-0.119328	0.246801
C117	C	1.371898	-0.496494	-0.496326
C118	C	1.621898	-0.246494	-0.246326
C119	C	1.871898	0.003506	0.003674
C120	C	2.121898	0.253506	0.253674
C121	C	1.464063	-0.501431	-0.501254
C122	C	1.714063	-0.251431	-0.251254
C123	C	1.964063	-0.001431	-0.001254
C124	C	2.214063	0.248569	0.248746
C125	C	1.144118	-0.495303	-0.702156
C126	C	1.394118	-0.245303	-0.452156
C127	C	1.644118	0.004697	-0.202156
C128	C	1.894118	0.254697	0.047844
C129	C	1.139217	-0.499732	-0.794796
C130	C	1.389217	-0.249732	-0.544796
C131	C	1.639217	0.000268	-0.294796
C132	C	1.889217	0.250268	-0.044796
C133	C	1.167280	-0.267520	-0.474388
C134	C	1.417280	-0.017520	-0.224388
C135	C	1.667280	0.232480	0.025612
C136	C	1.917280	0.482480	0.275612
C137	C	1.172250	-0.174881	-0.469967
C138	C	1.422250	0.075119	-0.219967
C139	C	1.672250	0.325119	0.030033
C140	C	1.922250	0.575119	0.280033
C141	C	1.181174	-0.461788	-1.005960
C142	C	1.431174	-0.211788	-0.755960
C143	C	1.681174	0.038212	-0.505960
C144	C	1.931174	0.288212	-0.255960
C145	C	1.130244	-0.507783	-0.964402
C146	C	1.380244	-0.257783	-0.714402
C147	C	1.630244	-0.007783	-0.464402
C148	C	1.880244	0.242217	-0.214402
C149	C	1.135238	-0.503302	-0.870024
C150	C	1.385238	-0.253302	-0.620024
C151	C	1.635238	-0.003302	-0.370024
C152	C	1.885238	0.246698	-0.120024
C153	C	1.176181	-0.466268	-1.100346
C154	C	1.426181	-0.216268	-0.850346
C155	C	1.676181	0.033732	-0.600346
C156	C	1.926181	0.283732	-0.350346
C157	C	1.167124	-0.474497	-0.268214
C158	C	1.417124	-0.224497	-0.018214
C159	C	1.667124	0.025503	0.231786
C160	C	1.917124	0.275503	0.481786
C161	C	1.172198	-0.469841	-0.175572
C162	C	1.422198	-0.219841	0.074428
C163	C	1.672198	0.030159	0.324428
C164	C	1.922198	0.280159	0.574428
H165	H	1.228507	-0.969944	-0.419071
H166	H	1.478507	-0.719944	-0.169071
H167	H	1.728507	-0.469944	0.080929
H168	H	1.978507	-0.219944	0.330929
N169	N	0.673531	-0.573209	-0.572786
N170	N	0.923531	-0.323209	-0.322786
N171	N	1.173531	-0.073209	-0.072786
N172	N	1.423531	0.176791	0.177214
H173	H	0.656066	-0.562430	-0.630967
H174	H	0.906066	-0.312430	-0.380967
H175	H	1.156066	-0.062430	-0.130967
H176	H	1.406066	0.187570	0.119033
H177	H	0.735800	-0.567907	-0.567446
H178	H	0.985800	-0.317907	-0.317446
H179	H	1.235800	-0.067907	-0.067446
H180	H	1.485800	0.182093	0.182554
N181	N	1.067508	-1.010496	-0.564341
N182	N	1.317508	-0.760496	-0.314341
N183	N	1.567508	-0.510496	-0.064341
N184	N	1.817508	-0.260496	0.185659
H185	H	1.072809	-1.072267	-0.559597
H186	H	1.322809	-0.822267	-0.309597
H187	H	1.572809	-0.572267	-0.059597
H188	H	1.822809	-0.322267	0.190403
H189	H	1.009766	-0.991602	-0.547435
H190	H	1.259766	-0.741602	-0.297435
H191	H	1.509766	-0.491602	-0.047435
H192	H	1.759766	-0.241602	0.202565
H193	H	0.648510	-0.412073	-0.412137
H194	H	0.898510	-0.162073	-0.162137
H195	H	1.148510	0.087927	0.087863
H196	H	1.398510	0.337927	0.337863
N197	N	1.067518	-0.564404	-1.011153
N198	N	1.317518	-0.314404	-0.761153
N199	N	1.567518	-0.064404	-0.511153
N200	N	1.817518	0.185596	-0.261153
H201	H	1.072797	-0.559622	-1.072924
H202	H	1.322797	-0.309622	-0.822924
H203	H	1.572797	-0.059622	-0.572924
H204	H	1.822797	0.190378	-0.322924
H205	H	1.078022	-0.623913	-0.999534
H206	H	1.328022	-0.373913	-0.749534
H207	H	1.578022	-0.123913	-0.499534
H208	H	1.828022	0.126087	-0.249534
N209	N	1.243917	-0.405195	-0.959212
N210	N	1.493917	-0.155195	-0.709212
N211	N	1.743917	0.094805	-0.459212
N212	N	1.993917	0.344805	-0.209212
H213	H	1.238643	-0.409992	-0.897443
H214	H	1.488643	-0.159992	-0.647443
H215	H	1.738643	0.090008	-0.397443
H216	H	1.988643	0.340008	-0.147443
H217	H	1.301643	-0.422073	-0.978184
H218	H	1.551643	-0.172073	-0.728184
H219	H	1.801643	0.077927	-0.478184
H220	H	2.051643	0.327927	-0.228184
