data_functionalizedCrystal
_audit_creation_method	'MofGen! by Chris Wilmer'
_symmetry_space_group_name_H-M	'P1'
_symmetry_Int_Tables_number	1
_symmetry_cell_setting	triclinic
loop_
_symmetry_equiv_pos_as_xyz
  x,y,z
_cell_length_a	15.297979
_cell_length_b	15.297327
_cell_length_c	15.296720
_cell_angle_alpha	107.319222
_cell_angle_beta	91.645807
_cell_angle_gamma	69.203119
loop_
_atom_site_label
_atom_site_type_symbol
_atom_site_fract_x
_atom_site_fract_y
_atom_site_fract_z
Zn1	Zn	1.197207	0.284921	0.766908
Zn2	Zn	1.697207	0.784921	1.266908
Zn3	Zn	1.197104	0.413558	0.638287
Zn4	Zn	1.697104	0.913558	1.138287
Zn5	Zn	1.077921	0.275615	0.593782
Zn6	Zn	1.577921	0.775615	1.093782
Zn7	Zn	1.014744	0.467255	0.766759
Zn8	Zn	1.514744	0.967255	1.266759
O9	O	1.121744	0.360337	0.691434
O10	O	1.621744	0.860337	1.191434
O11	O	1.323433	0.283407	0.768533
O12	O	1.823433	0.783407	1.268533
O13	O	1.207691	0.368892	0.506163
O14	O	1.707691	0.868892	1.006163
O15	O	1.120227	0.142813	0.598184
O16	O	1.620227	0.642813	1.098184
O17	O	1.323358	0.377916	0.674036
O18	O	1.823358	0.877916	1.174036
O19	O	1.207866	0.149650	0.725379
O20	O	1.707866	0.649650	1.225379
O21	O	1.120127	0.267547	0.473466
O22	O	1.620127	0.767547	0.973466
O23	O	0.943300	0.319615	0.598040
O24	O	1.443300	0.819615	1.098040
O25	O	1.012552	0.469435	0.892998
O26	O	1.512552	0.969435	1.392998
O27	O	0.896885	0.460411	0.725125
O28	O	1.396885	0.960411	1.225125
O29	O	1.146606	0.335475	0.893107
O30	O	1.646606	0.835475	1.393107
O31	O	1.146431	0.554717	0.673892
O32	O	1.646431	1.054717	1.173892
O33	O	1.012452	0.594168	0.768280
O34	O	1.512452	1.094168	1.268280
C35	C	0.887360	0.394831	0.656738
C36	C	1.387360	0.894831	1.156738
C37	C	0.787080	0.409615	0.641919
C38	C	1.287080	0.909615	1.141919
C39	C	1.072596	0.609198	0.725922
C40	C	1.572596	1.109198	1.225922
C41	C	1.051646	0.715655	0.740719
C42	C	1.551646	1.215655	1.240719
C43	C	1.072543	0.409482	0.926695
C44	C	1.572543	0.909482	1.426695
C45	C	1.051577	0.430425	1.026950
C46	C	1.551577	0.930425	1.526950
C47	C	0.739966	0.465650	0.585652
C48	C	1.239966	0.965650	1.085652
C49	C	0.645747	0.479544	0.571734
C50	C	1.145747	0.979544	1.071734
C51	C	0.598634	0.437397	0.614076
C52	C	1.098634	0.937397	1.114076
C53	C	0.645750	0.381355	0.670340
C54	C	1.145750	0.881355	1.170340
C55	C	0.739976	0.367466	0.684265
C56	C	1.239976	0.867466	1.184265
C57	C	0.598644	0.339213	0.712689
C58	C	1.098644	0.839213	1.212689
C59	C	0.645760	0.283171	0.768952
C60	C	1.145760	0.783171	1.268952
C61	C	0.739977	0.269285	0.782874
C62	C	1.239977	0.769285	1.282874
C63	C	0.787090	0.311431	0.740532
C64	C	1.287090	0.811431	1.240532
C65	C	0.504418	0.353102	0.698764
C66	C	1.004418	0.853102	1.198764
C67	C	0.504428	0.254918	0.797376
C68	C	1.004428	0.754918	1.297376
C69	C	0.598647	0.241025	0.811294
C70	C	1.098647	0.741025	1.311294
C71	C	1.357044	0.325709	0.726266
C72	C	1.857044	0.825709	1.226266
C73	C	1.457314	0.310953	0.741109
C74	C	1.957314	0.810953	1.241109
C75	C	1.171105	0.110505	0.656834
C76	C	1.671105	0.610505	1.156834
C77	C	1.192140	0.004042	0.642090
C78	C	1.692140	0.504042	1.142090
C79	C	1.271783	0.933460	0.586042
C80	C	1.771783	1.433460	1.086042
C81	C	1.291466	0.833436	0.572136
C82	C	1.791466	1.333436	1.072136
C83	C	1.231513	0.803986	0.614280
C84	C	1.731513	1.303986	1.114280
C85	C	1.151872	0.874569	0.670334
C86	C	1.651872	1.374569	1.170334
C87	C	1.132183	0.974602	0.684236
C88	C	1.632183	1.474602	1.184236
C89	C	1.091913	0.845128	0.712474
C90	C	1.591913	1.345128	1.212474
C91	C	1.012272	0.915711	0.768528
C92	C	1.512272	1.415711	1.268528
C93	C	0.992586	1.015734	0.782428
C94	C	1.492586	1.515734	1.282428
C95	C	1.052540	1.045184	0.740284
C96	C	1.552540	1.545184	1.240284
C97	C	1.111603	0.745095	0.698572
C98	C	1.611603	1.245095	1.198572
C99	C	0.972003	0.786238	0.796766
C100	C	1.472003	1.286238	1.296766
C101	C	0.952319	0.886261	0.810673
C102	C	1.452319	1.386261	1.310673
C103	C	1.170819	0.311306	0.457085
C104	C	1.670819	0.811306	0.957085
C105	C	1.192014	0.290068	0.356820
C106	C	1.692014	0.790068	0.856820
C107	C	1.271662	0.210483	1.309780
C108	C	1.771662	0.710483	1.809780
C109	C	1.291366	0.190807	1.215587
C110	C	1.791366	0.690807	1.715587
C111	C	1.231420	0.250709	1.168423
C112	C	1.731420	0.750709	1.668423
C113	C	1.151767	0.330292	1.215462
C114	C	1.651767	0.830292	1.715462
C115	C	1.132065	0.349975	1.309665
C116	C	1.632065	0.849975	1.809665
C117	C	1.091823	0.390201	1.168308
C118	C	1.591823	0.890201	1.668308
C119	C	1.012170	0.469784	1.215346
C120	C	1.512170	0.969784	1.715346
C121	C	0.992471	0.489462	1.309541
C122	C	1.492471	0.989462	1.809541
C123	C	1.052416	0.429560	1.356705
C124	C	1.552416	0.929560	1.856705
C125	C	1.111526	0.370519	1.074104
C126	C	1.611526	0.870519	1.574104
C127	C	0.971928	0.510011	1.073989
C128	C	1.471928	1.010011	1.573989
C129	C	0.952224	0.529687	1.168182
C130	C	1.452224	1.029687	1.668182
H131	H	0.466065	0.398733	0.652955
H132	H	0.966065	0.898733	1.152955
Cl133	Cl	0.657887	0.170577	0.882025
Cl134	Cl	1.157887	0.670577	1.382025
H135	H	0.927729	1.073201	0.828059
H136	H	1.427729	1.573201	1.328059
Cl137	Cl	0.896624	0.749222	0.849744
Cl138	Cl	1.396624	1.249222	1.349744
H139	H	0.778332	0.223662	0.828696
H140	H	1.278332	0.723662	1.328696
H141	H	0.521917	0.448712	0.602741
H142	H	1.021917	0.948712	1.102741
H143	H	0.607393	0.525173	0.525925
H144	H	1.107393	1.025173	1.025925
H145	H	1.247544	0.722541	0.602953
H146	H	1.747544	1.222541	1.102953
H147	H	0.778333	0.499965	0.551188
H148	H	1.278333	0.999965	1.051188
H149	H	0.923117	0.558790	1.035589
H150	H	1.423117	1.058790	1.535589
H151	H	0.466068	0.220600	0.831856
H152	H	0.966068	0.720600	1.331856
H153	H	0.863812	0.300119	0.751858
H154	H	1.363812	0.800119	1.251858
Cl155	Cl	1.211720	0.656375	0.628107
Cl156	Cl	1.711720	1.156375	1.128107
H157	H	1.356309	0.775971	0.526496
H158	H	1.856309	1.275971	1.026496
Cl159	Cl	0.852093	0.629731	1.227327
Cl160	Cl	1.352093	1.129731	1.727327
H161	H	1.320584	0.957449	0.551728
H162	H	1.820584	1.457449	1.051728
H163	H	0.927617	0.554271	1.347839
H164	H	1.427617	1.054271	1.847839
H165	H	1.320465	0.161723	1.348192
H166	H	1.820465	0.661723	1.848192
Cl167	Cl	1.027509	1.170908	0.757344
Cl168	Cl	1.527509	1.670908	1.257344
H169	H	0.887474	0.943743	0.856312
H170	H	1.387474	1.443743	1.356312
H171	H	1.356222	0.126012	1.177296
H172	H	1.856222	0.626012	1.677296
H173	H	1.176380	0.305721	1.035815
H174	H	1.676380	0.805721	1.535815
Cl175	Cl	1.256191	0.225969	1.050007
Cl176	Cl	1.756191	0.725969	1.550007
H177	H	1.036377	0.445576	1.433405
H178	H	1.536377	0.945576	1.933405
