data_functionalizedCrystal
_audit_creation_method	'MofGen! by Chris Wilmer'
_symmetry_space_group_name_H-M	'P1'
_symmetry_Int_Tables_number	1
_symmetry_cell_setting	triclinic
loop_
_symmetry_equiv_pos_as_xyz
  x,y,z
_cell_length_a	18.101395
_cell_length_b	18.101398
_cell_length_c	19.805399
_cell_angle_alpha	90.023953
_cell_angle_beta	89.974882
_cell_angle_gamma	89.973629
loop_
_atom_site_label
_atom_site_type_symbol
_atom_site_fract_x
_atom_site_fract_y
_atom_site_fract_z
Zn1	Zn	-0.294940	-1.132118	-0.382810
Zn2	Zn	-0.418784	-1.132015	-0.269627
Zn3	Zn	-0.294950	-1.008278	-0.269626
Zn4	Zn	-0.418734	-1.008228	-0.382765
O5	O	-0.356852	-1.070160	-0.326207
O6	O	-0.311385	-1.235737	-0.367815
O7	O	-0.402382	-1.115579	-0.174910
O8	O	-0.191316	-1.024770	-0.284659
O9	O	-0.402372	-1.235662	-0.284660
O10	O	-0.191309	-1.115755	-0.367815
O11	O	-0.311402	-1.024670	-0.174910
O12	O	-0.311354	-0.904638	-0.284615
O13	O	-0.402288	-1.024685	-0.477488
O14	O	-0.402298	-0.904602	-0.367738
O15	O	-0.311337	-1.115706	-0.477521
O16	O	-0.522410	-1.115530	-0.284616
O17	O	-0.522374	-1.024584	-0.367738
C18	C	-0.549263	-1.070061	-0.326187
C19	C	-0.631577	-1.070086	-0.326201
C20	C	-0.356822	-0.877749	-0.326172
C21	C	-0.356827	-0.795435	-0.326173
C22	C	-0.356806	-1.070201	-0.502750
C23	C	-0.356786	-1.070219	-0.577982
C24	C	-0.930668	-1.070249	-0.326238
C25	C	-0.899351	-1.013161	-0.378666
C26	C	-0.813733	-1.012889	-0.378502
C27	C	-0.782285	-1.070168	-0.326220
C28	C	-0.813432	-1.049039	-0.254884
C29	C	-0.899077	-1.048671	-0.255198
C30	C	-0.899019	-1.148590	-0.344518
C31	C	-0.813368	-1.148129	-0.346082
C32	C	-0.698426	-1.070124	-0.326206
C33	C	-1.014527	-1.070291	-0.326247
C34	C	-0.163690	-1.070279	-0.326242
C35	C	-0.081376	-1.070330	-0.326257
C36	C	-0.356883	-1.263322	-0.326243
C37	C	-0.356896	-1.345636	-0.326258
C38	C	-0.356873	-0.496344	-0.326230
C39	C	-0.299368	-0.527668	-0.274186
C40	C	-0.299522	-0.613286	-0.273964
C41	C	-0.356850	-0.644727	-0.326201
C42	C	-0.434861	-0.613609	-0.306714
C43	C	-0.434541	-0.527964	-0.306352
C44	C	-0.337046	-0.527958	-0.397883
C45	C	-0.335308	-0.613609	-0.397492
C46	C	-0.356841	-0.728586	-0.326187
C47	C	-0.356887	-0.412485	-0.326243
C48	C	-0.309425	-1.117615	-0.613344
C49	C	-0.309404	-1.117623	-0.684033
C50	C	-0.356747	-1.070237	-0.719358
C51	C	-0.404110	-1.022836	-0.683990
C52	C	-0.404127	-1.022825	-0.613303
C53	C	-0.404041	-1.022878	-0.969063
C54	C	-0.404021	-1.022894	-1.039756
C55	C	-0.309317	-1.117675	-1.039794
C56	C	-0.309335	-1.117665	-0.969106
C57	C	-0.356694	-1.070261	-0.933745
C58	C	-0.356716	-1.070252	-0.857097
C59	C	-0.356730	-1.070249	-0.796005
C60	C	-0.356845	-1.070161	-0.150351
C61	C	-0.356656	-1.070287	-0.075120
H62	H	-0.792672	-1.026108	-0.431397
H63	H	-0.241674	-0.634326	-0.286179
H64	H	-0.281150	-0.506386	-0.415602
H65	H	-0.270840	-1.156219	-0.712822
H66	H	-0.793008	-1.164063	-0.398582
H67	H	-0.451357	-0.507952	-0.253969
H68	H	-0.919796	-1.088448	-0.214803
H69	H	-0.919115	-0.991404	-0.239714
H70	H	-0.793063	-1.089311	-0.214756
H71	H	-0.919901	-1.026248	-0.431732
H72	H	-0.442575	-0.984304	-1.068515
H73	H	-0.241343	-0.507097	-0.286267
H74	H	-0.920570	-1.167854	-0.395650
H75	H	-0.793304	-0.954821	-0.366392
H76	H	-0.920932	-0.955445	-0.366709
H77	H	-0.277901	-0.633953	-0.412187
H78	H	-0.270785	-1.156253	-0.940349
H79	H	-0.451968	-0.635024	-0.254897
H80	H	-0.442614	-0.984290	-0.940281
H81	H	-0.791957	-1.192913	-0.310680
H82	H	-0.442685	-0.984223	-0.584512
H83	H	-0.312328	-0.506119	-0.221401
H84	H	-0.312630	-0.633740	-0.220869
H85	H	-0.270752	-1.156271	-1.068593
H86	H	-0.442655	-0.984252	-0.712757
H87	H	-0.478838	-0.507241	-0.342605
H88	H	-0.919270	-1.191123	-0.306333
H89	H	-0.792042	-0.992379	-0.239122
H90	H	-0.478854	-0.633973	-0.343433
H91	H	-0.374140	-0.635014	-0.438346
H92	H	-0.378930	-0.507701	-0.436660
H93	H	-0.270875	-1.156204	-0.584588
