data_functionalizedCrystal
_audit_creation_method	'MofGen! by Chris Wilmer'
_symmetry_space_group_name_H-M	'P1'
_symmetry_Int_Tables_number	1
_symmetry_cell_setting	triclinic
loop_
_symmetry_equiv_pos_as_xyz
  x,y,z
_cell_length_a	15.944551
_cell_length_b	17.038272
_cell_length_c	15.021413
_cell_angle_alpha	90.004029
_cell_angle_beta	89.997174
_cell_angle_gamma	87.305147
loop_
_atom_site_label
_atom_site_type_symbol
_atom_site_fract_x
_atom_site_fract_y
_atom_site_fract_z
O1	O	1.121728	0.100827	-0.073940
O2	O	0.878066	0.113259	-0.073962
O3	O	0.998449	-0.006773	-0.073944
O4	O	1.001345	0.220859	-0.073958
O5	O	0.998429	-0.006755	0.074120
O6	O	0.878046	0.113277	0.074102
O7	O	1.121708	0.100844	0.074125
Zn8	Zn	0.999874	0.107063	0.097622
Zn9	Zn	0.999900	0.107041	-0.097459
O10	O	1.001326	0.220876	0.074107
C11	C	0.846725	0.112752	0.000067
C12	C	0.753369	0.111205	0.000059
C13	C	0.995805	-0.035893	0.000088
C14	C	0.987945	-0.122688	0.000087
C15	C	0.532936	0.033105	0.000081
C16	C	0.474515	0.069363	-0.072924
C17	C	0.582443	0.108405	0.000070
C18	C	0.474519	0.069398	0.073055
C19	C	0.417337	0.105696	0.000084
C20	C	0.525252	0.144684	-0.072996
C21	C	0.525262	0.144709	0.073049
C22	C	0.466862	0.181022	0.000026
C23	C	0.677557	0.109964	0.000061
C24	C	0.322225	0.104143	0.000087
C25	C	1.060103	-0.172781	0.000094
C26	C	1.052713	-0.254334	0.000085
C27	C	0.973165	-0.285792	0.000075
C28	C	0.901002	-0.235693	0.000065
C29	C	0.908393	-0.154142	0.000068
C30	C	0.947056	-0.531558	0.000061
C31	C	0.939671	-0.613115	0.000060
C32	C	1.091383	-0.631751	0.000079
C33	C	1.098766	-0.550197	0.000087
C34	C	1.026603	-0.500105	0.000072
C35	C	0.965610	-0.369152	0.000069
C36	C	1.034159	-0.416747	0.000073
C37	C	1.153049	0.101352	0.000093
C38	C	1.246405	0.102899	0.000096
C39	C	1.003969	0.249997	0.000073
C40	C	1.011829	0.336792	0.000068
N41	N	0.999863	0.107078	0.230759
N42	N	0.999917	0.107019	-0.230597
C43	C	0.944187	0.162555	0.470434
C44	C	1.021171	0.177734	0.529775
C45	C	0.999883	0.107059	0.412366
C46	C	0.922921	0.091897	0.529768
C47	C	0.999896	0.107041	0.587790
C48	C	1.076908	0.122273	0.470400
C49	C	0.978606	0.036405	0.470388
C50	C	1.055643	0.051554	0.529702
C51	C	0.999875	0.107070	0.311309
C52	C	0.999913	0.107029	0.688846
H53	H	0.561807	-0.029389	-0.000005
O54	O	0.432722	0.255685	0.000095
C55	C	0.459719	0.295561	0.076394
H56	H	0.520930	0.266242	0.101592
H57	H	0.470296	0.359419	0.058775
H58	H	0.409762	0.293266	0.130511
O59	O	1.042792	0.248944	0.560951
C60	C	1.116437	0.239614	0.612571
H61	H	1.152556	0.183096	0.592292
H62	H	1.157360	0.291773	0.601133
H63	H	1.098948	0.236429	0.686029
H64	H	0.452139	0.037507	-0.134642
H65	H	1.163543	-0.524590	0.000096
O66	O	0.877023	-0.482824	0.000170
C67	C	0.876736	-0.435099	0.076863
H68	H	0.943698	-0.430971	0.102436
H69	H	0.849831	-0.373810	0.059612
H70	H	0.836447	-0.461925	0.130557
H71	H	0.849634	-0.113356	0.000061
H72	H	0.547520	0.176503	-0.134784
H73	H	0.874891	-0.638725	0.000067
H74	H	0.547657	0.176539	0.134769
O75	O	1.137313	-0.142096	0.000143
C76	C	1.128367	-0.059375	0.000122
H77	H	1.064184	-0.040224	0.028150
H78	H	1.179616	-0.034333	0.043113
H79	H	1.134068	-0.036678	-0.070911
H80	H	0.452150	0.037542	0.134774
O81	O	0.823665	-0.266119	0.000012
C82	C	0.761561	-0.204415	0.000026
H83	H	0.789072	-0.149017	-0.028001
H84	H	0.706382	-0.221462	-0.042969
H85	H	0.739011	-0.192872	0.071057
O86	O	1.122893	-0.302882	0.000138
C87	C	1.194688	-0.257629	0.000134
H88	H	1.177710	-0.196763	0.028164
H89	H	1.245595	-0.287707	0.043131
H90	H	1.218815	-0.251824	-0.070895
O91	O	0.957246	-0.034872	0.439192
C92	C	1.023668	-0.068126	0.387546
H93	H	1.084949	-0.041234	0.407826
H94	H	1.028891	-0.134322	0.398958
H95	H	1.010874	-0.055712	0.314096
H96	H	1.150134	-0.672544	0.000090
H97	H	1.098927	-0.391130	0.000061
O98	O	0.888385	-0.399807	-0.000052
C99	C	0.879577	-0.446409	-0.076750
H100	H	0.944333	-0.466709	-0.102315
H101	H	0.842284	-0.499817	-0.059507
H102	H	0.844989	-0.410387	-0.130445
H103	H	0.897140	0.209524	0.444412
O104	O	1.154512	0.137726	0.439279
C105	C	1.153557	0.137589	0.345423
H106	H	1.086563	0.149824	0.320877
H107	H	1.195312	0.185067	0.319525
H108	H	1.178024	0.077770	0.319973
O109	O	1.112016	-0.004363	0.560519
C110	C	1.193029	0.011901	0.530086
H111	H	1.195282	0.077062	0.513529
H112	H	1.241013	-0.003841	0.584231
H113	H	1.208300	-0.024367	0.467892
O114	O	0.845206	0.076694	0.560770
C115	C	0.786690	0.135370	0.530589
H116	H	0.811925	0.164017	0.468106
H117	H	0.724684	0.107795	0.514594
H118	H	0.776143	0.181744	0.584660
