data_functionalizedCrystal
_audit_creation_method	'MofGen! by Chris Wilmer'
_symmetry_space_group_name_H-M	'P1'
_symmetry_Int_Tables_number	1
_symmetry_cell_setting	triclinic
loop_
_symmetry_equiv_pos_as_xyz
  x,y,z
_cell_length_a	17.077404
_cell_length_b	12.759399
_cell_length_c	17.077396
_cell_angle_alpha	90.022384
_cell_angle_beta	89.981638
_cell_angle_gamma	89.986498
loop_
_atom_site_label
_atom_site_type_symbol
_atom_site_fract_x
_atom_site_fract_y
_atom_site_fract_z
Zn1	Zn	1.200095	0.418323	-0.443852
Zn2	Zn	1.200019	0.594024	-0.312600
Zn3	Zn	1.068827	0.418353	-0.312603
Zn4	Zn	1.068811	0.593954	-0.443826
O5	O	1.134438	0.506164	-0.378220
O6	O	1.309932	0.441647	-0.426451
O7	O	1.182590	0.570762	-0.202753
O8	O	1.086278	0.271328	-0.330025
O9	O	1.309876	0.570733	-0.330021
O10	O	1.182720	0.271306	-0.426453
O11	O	1.086204	0.441698	-0.202755
O12	O	0.958978	0.441631	-0.330000
O13	O	1.086252	0.570615	-0.553677
O14	O	0.958966	0.570644	-0.426409
O15	O	1.182705	0.441580	-0.553696
O16	O	1.182576	0.741036	-0.329996
O17	O	1.086178	0.740985	-0.426407
C18	C	0.930490	0.506134	-0.378203
C19	C	0.843240	0.506146	-0.378214
C20	C	0.802280	0.439051	-0.428502
C21	C	0.720299	0.439057	-0.428505
C22	C	0.679281	0.506166	-0.378224
C23	C	0.720247	0.573265	-0.327931
C24	C	0.802226	0.573252	-0.327924
C25	C	0.549377	0.573289	-0.327950
C26	C	0.467392	0.573303	-0.327958
C27	C	0.467450	0.439094	-0.428532
C28	C	0.549429	0.439081	-0.428525
C29	C	0.590390	0.506182	-0.378232
C30	C	1.134388	0.779131	-0.378215
C31	C	1.134439	0.895908	-0.378239
C32	C	1.184688	0.950761	-0.328096
C33	C	1.184735	1.060485	-0.328125
C34	C	1.084277	1.060492	-0.428443
C35	C	1.084234	0.950770	-0.428417
C36	C	1.234892	0.895899	-0.277918
C37	C	1.285145	0.950752	-0.227770
C38	C	1.285192	1.060476	-0.227798
C39	C	1.234986	1.115347	-0.277976
C40	C	1.339182	0.506194	-0.378238
C41	C	1.426432	0.506207	-0.378246
C42	C	1.134506	1.232130	-0.378253
C43	C	1.134528	1.115354	-0.378294
C44	C	1.134485	0.506086	-0.582965
C45	C	1.134506	0.506053	-0.670214
C46	C	1.184731	0.438859	-0.711216
C47	C	1.184740	0.438824	-0.793196
C48	C	1.134528	0.505989	-0.834174
C49	C	1.084297	0.573187	-0.793167
C50	C	1.084284	0.573216	-0.711188
C51	C	1.084329	0.573124	-0.964037
C52	C	1.084342	0.573096	-1.046022
C53	C	1.184784	0.438732	-1.046045
C54	C	1.184772	0.438761	-0.964066
C55	C	1.134542	0.505960	-0.923065
C56	C	1.134436	0.506165	-0.174272
C57	C	1.134568	0.505902	-0.087023
H58	H	0.686843	0.627901	-0.286988
C59	C	0.641555	0.714572	-0.316864
C60	C	0.594406	0.647046	-0.272672
H61	H	0.669358	0.760103	-0.282739
H62	H	0.609583	0.754819	-0.351010
H63	H	0.677710	0.674587	-0.346805
H64	H	0.558248	0.687032	-0.242735
H65	H	0.626381	0.606796	-0.238512
H66	H	0.686953	0.384423	-0.469456
H67	H	1.326026	0.906071	-0.186921
C68	C	1.254785	0.738619	-0.352566
C69	C	1.234834	0.775289	-0.277886
H70	H	1.254740	0.664161	-0.352545
H71	H	1.305443	0.763359	-0.366179
H72	H	1.217693	0.763457	-0.389619
H73	H	1.271929	0.750458	-0.240833
H74	H	1.184168	0.750539	-0.264264
H75	H	1.225622	0.384168	-0.677858
C76	C	0.978594	0.827468	-0.439206
C77	C	1.028999	0.890469	-0.483536
H78	H	0.944499	0.790238	-0.473240
H79	H	0.948602	0.870332	-0.404998
H80	H	1.008497	0.779093	-0.409327
H81	H	0.999096	0.938849	-0.513412
H82	H	1.058994	0.847601	-0.517759
H83	H	1.326116	1.105135	-0.186971
H84	H	0.835575	0.627888	-0.286974
H85	H	1.043378	0.627922	-0.677806
H86	H	0.582825	0.384442	-0.469473
C87	C	0.341812	0.379507	-0.473200
C88	C	0.422430	0.365333	-0.483813
H89	H	0.314018	0.333969	-0.507327
H90	H	0.328379	0.450111	-0.484598
H91	H	0.328366	0.364033	-0.420477
H92	H	0.435877	0.380814	-0.536535
H93	H	0.435869	0.294712	-0.472421
H94	H	1.225640	0.384110	-0.826576
C95	C	1.284052	0.305938	-0.972320
C96	C	1.239965	0.364931	-0.919022
H97	H	1.318121	0.260353	-0.944509
H98	H	1.314073	0.351703	-1.004293
H99	H	1.249861	0.265734	-1.004295
H100	H	1.274156	0.405141	-0.887050
H101	H	1.209942	0.319160	-0.887035
H102	H	1.043401	1.105176	-0.469294
H103	H	0.433997	0.627950	-0.287016
H104	H	1.235035	1.204691	-0.278001
C105	C	1.195737	0.297348	-1.138228
C106	C	1.239991	0.364846	-1.091104
H107	H	1.229819	0.251732	-1.166042
H108	H	1.165845	0.337340	-1.174366
H109	H	1.161542	0.257182	-1.106231
H110	H	1.274182	0.405018	-1.123102
H111	H	1.269896	0.324849	-1.054962
C112	C	0.794095	0.306389	-0.527911
C113	C	0.847364	0.365282	-0.483774
H114	H	0.821928	0.260841	-0.562029
H115	H	0.762129	0.352220	-0.557880
H116	H	0.762109	0.266151	-0.493753
H117	H	0.879346	0.405526	-0.517931
H118	H	0.879342	0.319445	-0.453802
H119	H	1.043411	0.627870	-0.826537
H120	H	1.043454	0.627786	-1.079384
C121	C	0.985074	0.705977	-0.972244
C122	C	1.029134	0.647014	-0.918967
H123	H	0.951011	0.751605	-0.944417
H124	H	0.955049	0.660195	-1.004207
H125	H	1.019284	0.746133	-1.004232
H126	H	0.994923	0.606851	-0.886983
H127	H	1.059161	0.692801	-0.886990
