data_functionalizedCrystal
_audit_creation_method	'MofGen! by Chris Wilmer'
_symmetry_space_group_name_H-M	'P1'
_symmetry_Int_Tables_number	1
_symmetry_cell_setting	triclinic
loop_
_symmetry_equiv_pos_as_xyz
  x,y,z
_cell_length_a	15.995350
_cell_length_b	10.654559
_cell_length_c	14.472311
_cell_angle_alpha	90.006780
_cell_angle_beta	89.998542
_cell_angle_gamma	96.009470
loop_
_atom_site_label
_atom_site_type_symbol
_atom_site_fract_x
_atom_site_fract_y
_atom_site_fract_z
O1	O	-1.111929	0.161879	0.076760
O2	O	-0.868271	0.181868	0.076778
O3	O	-0.995698	-0.010938	0.076766
O4	O	-0.984502	0.354685	0.076772
O5	O	-0.995686	-0.010957	-0.076916
O6	O	-0.868259	0.181849	-0.076904
O7	O	-1.111918	0.161860	-0.076922
Cu8	Cu	-0.990087	0.171853	-0.090946
Cu9	Cu	-0.990101	0.171875	0.090801
O10	O	-0.984490	0.354666	-0.076910
C11	C	-0.837065	0.181032	-0.000060
C12	C	-0.744100	0.178555	-0.000053
C13	C	-1.143123	0.162696	-0.000082
C14	C	-1.236088	0.165173	-0.000083
C15	C	-0.406301	0.169657	-0.000073
C16	C	-0.452935	0.032344	-0.000418
C17	C	-0.549639	0.034822	-0.000065
C18	C	-0.573887	0.174071	-0.000064
C19	C	-0.533202	0.241809	0.087694
C20	C	-0.436546	0.238359	0.087761
C21	C	-0.436210	0.241175	-0.087004
C22	C	-0.533155	0.241142	-0.088158
C23	C	-0.668599	0.176572	-0.000055
C24	C	-0.311589	0.167160	-0.000075
C25	C	-0.994869	-0.057735	-0.000074
C26	C	-0.992404	-0.197145	-0.000070
C27	C	-0.985320	0.401463	-0.000068
C28	C	-0.987784	0.540873	-0.000066
N29	N	-0.990084	0.171836	-0.218776
C30	C	-1.065128	0.591402	-0.000069
C31	C	-1.067438	0.722394	-0.000074
C32	C	-0.915054	0.752317	-0.000070
C33	C	-0.912745	0.621328	-0.000072
C34	C	-1.140167	0.510948	-0.000064
C35	C	-1.217517	0.561476	-0.000065
C36	C	-1.219827	0.692468	-0.000070
C37	C	-1.144788	0.772932	-0.000074
C38	C	-0.990093	0.171852	-0.407277
C39	C	-1.058293	0.068721	-0.446485
C40	C	-1.058544	0.068995	-0.553573
C41	C	-0.990102	0.171866	-0.592868
C42	C	-1.009587	0.303060	-0.553974
C43	C	-1.010072	0.302448	-0.446852
C44	C	-0.902208	0.144970	-0.446761
C45	C	-0.902785	0.142001	-0.553890
C46	C	-0.990106	0.171881	-0.697756
C47	C	-0.990091	0.171845	-0.302388
N48	N	-0.990111	0.171881	0.218632
H49	H	-0.434088	-0.022551	-0.063352
H50	H	-0.561307	0.194776	0.153004
O51	O	-1.298447	0.474694	-0.000068
H52	H	-1.335415	0.492643	-0.062714
H53	H	-1.282809	0.733604	-0.000081
O54	O	-0.586144	-0.036154	0.083407
H55	H	-0.558940	0.009428	0.147153
O56	O	-0.394597	0.371888	0.093057
H57	H	-0.443374	0.438638	0.095566
H58	H	-1.046825	-0.029109	-0.420715
H59	H	-0.549112	0.342686	-0.093457
H60	H	-0.547923	0.344111	0.090958
H61	H	-0.849765	0.580187	-0.000080
H62	H	-1.123132	0.085692	-0.419552
H63	H	-0.961252	0.381677	-0.579425
O64	O	-0.426561	-0.040025	0.082477
H65	H	-0.459839	-0.136812	0.081562
O66	O	-0.411910	0.172924	0.174642
H67	H	-0.469009	0.144034	0.216211
H68	H	-0.415408	0.196276	-0.153522
H69	H	-0.405039	0.342415	-0.087597
H70	H	-1.046882	-0.028512	-0.579871
H71	H	-0.560179	0.191694	-0.153080
H72	H	-1.138294	0.404286	-0.000057
O73	O	-1.147275	0.914218	-0.000081
H74	H	-1.213664	0.935841	-0.000079
O75	O	-1.094989	0.333702	-0.413741
H76	H	-1.135322	0.349106	-0.474240
O77	O	-0.834122	0.839093	-0.000065
H78	H	-0.848722	0.938668	-0.000056
O79	O	-1.144915	0.091842	-0.587530
H80	H	-1.186665	0.102751	-0.527439
H81	H	-1.072964	0.327240	-0.580800
H82	H	-0.962170	0.381338	-0.420914
O83	O	-0.877537	0.020908	-0.411006
H84	H	-0.927646	-0.022979	-0.364689
H85	H	-0.888009	0.045487	-0.579311
H86	H	-0.849624	0.212215	-0.580635
O87	O	-0.834967	0.244572	-0.413172
H88	H	-0.863945	0.312899	-0.368572
H89	H	-0.577753	-0.018423	-0.062973
