data_functionalizedCrystal
_audit_creation_method	'MofGen! by Chris Wilmer'
_symmetry_space_group_name_H-M	'P1'
_symmetry_Int_Tables_number	1
_symmetry_cell_setting	triclinic
loop_
_symmetry_equiv_pos_as_xyz
  x,y,z
_cell_length_a	13.897449
_cell_length_b	13.897449
_cell_length_c	13.897441
_cell_angle_alpha	90.020649
_cell_angle_beta	90.014519
_cell_angle_gamma	90.007445
loop_
_atom_site_label
_atom_site_type_symbol
_atom_site_fract_x
_atom_site_fract_y
_atom_site_fract_z
Zn1	Zn	1.474783	-0.383869	0.545336
Zn2	Zn	1.808117	-0.050536	0.878670
Zn3	Zn	2.141450	0.282798	1.212003
Zn4	Zn	1.474726	-0.545188	0.384063
Zn5	Zn	1.808059	-0.211855	0.717396
Zn6	Zn	2.141392	0.121479	1.050730
Zn7	Zn	1.313478	-0.383922	0.384066
Zn8	Zn	1.646812	-0.050589	0.717400
Zn9	Zn	1.980145	0.282744	1.050733
Zn10	Zn	1.313497	-0.545137	0.545327
Zn11	Zn	1.646830	-0.211804	0.878661
Zn12	Zn	1.980163	0.121529	1.211994
O13	O	1.394121	-0.464529	0.464698
O14	O	1.727454	-0.131196	0.798032
O15	O	2.060788	0.202137	1.131365
O16	O	1.609757	-0.405267	0.523946
O17	O	1.943091	-0.071934	0.857279
O18	O	2.276424	0.261399	1.190612
O19	O	1.453304	-0.523839	0.249082
O20	O	1.786638	-0.190506	0.582415
O21	O	2.119971	0.142827	0.915749
O22	O	1.334892	-0.248934	0.405464
O23	O	1.668226	0.084400	0.738798
O24	O	2.001559	0.417733	1.072131
O25	O	1.609715	-0.523788	0.405459
O26	O	1.943048	-0.190454	0.738792
O27	O	2.276382	0.142879	1.072126
O28	O	1.453402	-0.248895	0.523949
O29	O	1.786736	0.084439	0.857282
O30	O	2.120069	0.417772	1.190616
O31	O	1.334837	-0.405358	0.249084
O32	O	1.668170	-0.072025	0.582418
O33	O	2.001503	0.261309	0.915751
O34	O	1.178499	-0.405309	0.405455
O35	O	1.511833	-0.071976	0.738789
O36	O	1.845166	0.261358	1.072122
O37	O	1.334923	-0.523701	0.680310
O38	O	1.668257	-0.190368	1.013643
O39	O	2.001590	0.142965	1.346977
O40	O	1.178513	-0.523753	0.523933
O41	O	1.511846	-0.190420	0.857266
O42	O	1.845179	0.142914	1.190600
O43	O	1.453420	-0.405218	0.680317
O44	O	1.786753	-0.071885	1.013650
O45	O	2.120087	0.261448	1.346984
O46	O	1.453322	-0.680163	0.405450
O47	O	1.786655	-0.346830	0.738783
O48	O	2.119988	-0.013496	1.072117
O49	O	1.334867	-0.680126	0.523930
O50	O	1.668201	-0.346792	0.857263
O51	O	2.001534	-0.013459	1.190597
C52	C	1.143507	-0.464532	0.464694
C53	C	1.476840	-0.131199	0.798027
C54	C	1.810173	0.202135	1.131361
C55	C	1.036293	-0.464556	0.464715
C56	C	1.369626	-0.131223	0.798049
C57	C	1.702959	0.202110	1.131382
C58	C	1.394117	-0.715144	0.464710
C59	C	1.727450	-0.381810	0.798043
C60	C	2.060783	-0.048477	1.131376
C61	C	1.394203	-0.822357	0.464747
C62	C	1.727536	-0.489024	0.798080
C63	C	2.060870	-0.155691	1.131413
C64	C	1.645714	-0.464527	0.464703
C65	C	1.979047	-0.131194	0.798036
C66	C	2.312381	0.202139	1.131370
C67	C	1.752928	-0.464526	0.464705
C68	C	2.086261	-0.131193	0.798038
C69	C	2.419595	0.202140	1.131372
C70	C	1.394180	-0.464448	0.716291
C71	C	1.727513	-0.131115	1.049625
C72	C	2.060847	0.202218	1.382958
C73	C	1.394205	-0.464414	0.823505
C74	C	1.727538	-0.131080	1.156839
C75	C	2.060872	0.202253	1.490172
C76	C	1.949223	-0.464554	0.464709
C77	C	2.282556	-0.131220	0.798042
C78	C	2.615890	0.202113	1.131376
C79	C	1.839990	-0.464542	0.464704
C80	C	2.173324	-0.131208	0.798038
C81	C	2.506657	0.202125	1.131371
C82	C	1.394152	-0.212936	0.464708
C83	C	1.727485	0.120397	0.798041
C84	C	2.060818	0.453730	1.131375
C85	C	1.394165	-0.105722	0.464712
C86	C	1.727498	0.227611	0.798045
C87	C	2.060832	0.560944	1.131379
C88	C	1.394194	0.090573	0.464743
C89	C	1.727528	0.423906	0.798076
C90	C	2.060861	0.757239	1.131409
C91	C	1.394181	-0.018660	0.464729
C92	C	1.727514	0.314674	0.798062
C93	C	2.060847	0.648007	1.131395
C94	C	1.394118	-0.464540	0.214084
C95	C	1.727451	-0.131207	0.547417
C96	C	2.060784	0.202126	0.880751
C97	C	1.394279	-0.464303	0.106870
C98	C	1.727613	-0.130970	0.440204
C99	C	2.060946	0.202364	0.773537
C100	C	1.394225	-0.464386	0.910575
C101	C	1.727558	-0.131053	1.243909
C102	C	2.060892	0.202280	1.577242
C103	C	1.394253	-0.464343	1.019808
C104	C	1.727586	-0.131010	1.353141
C105	C	2.060919	0.202324	1.686474
