data_functionalizedCrystal
_audit_creation_method	'MofGen! by Chris Wilmer'
_symmetry_space_group_name_H-M	'P1'
_symmetry_Int_Tables_number	1
_symmetry_cell_setting	triclinic
loop_
_symmetry_equiv_pos_as_xyz
  x,y,z
_cell_length_a	11.026607
_cell_length_b	15.995343
_cell_length_c	10.065875
_cell_angle_alpha	98.784431
_cell_angle_beta	79.302338
_cell_angle_gamma	96.037600
loop_
_atom_site_label
_atom_site_type_symbol
_atom_site_fract_x
_atom_site_fract_y
_atom_site_fract_z
O1	O	1.627913	0.340984	-0.113548
O2	O	1.274608	0.301060	-0.113544
O3	O	1.460920	0.200592	-0.113521
O4	O	1.441602	0.441451	-0.113571
O5	O	1.425393	0.219848	0.113464
O6	O	1.239081	0.320316	0.113441
O7	O	1.592386	0.360240	0.113436
Zn8	Zn	1.410093	0.343335	0.149477
Zn9	Zn	1.456902	0.317965	-0.149585
O10	O	1.406075	0.460707	0.113413
C11	C	1.211634	0.303322	-0.000050
C12	C	1.076920	0.281366	-0.000048
C13	C	1.442358	0.178906	-0.000025
C14	C	1.439966	0.085596	-0.000014
C15	C	1.003114	0.341991	-0.000061
C16	C	0.863881	0.319299	-0.000058
C17	C	1.435633	-0.085247	-0.000045
C18	C	1.301142	-0.128865	-0.000046
C19	C	1.298695	-0.225969	-0.000577
C20	C	1.431364	-0.253454	-0.000074
C21	C	1.519235	-0.225136	-0.129434
C22	C	1.520845	-0.128111	-0.129527
C23	C	1.482411	-0.106020	0.128606
C24	C	1.477183	-0.203121	0.130291
C25	C	1.428959	-0.348517	-0.000095
C26	C	1.438043	0.009815	-0.000033
C27	C	1.655361	0.357977	-0.000060
C28	C	1.790076	0.379933	-0.000072
C29	C	1.424637	0.482394	-0.000086
C30	C	1.427030	0.575703	-0.000105
N31	N	1.378156	0.360651	0.353579
N32	N	1.488848	0.300644	-0.353686
C33	C	1.445782	0.323983	0.421366
C34	C	1.421212	0.337317	0.578530
H35	H	1.043004	0.410694	-0.000068
F36	F	0.811751	0.229494	-0.000030
F37	F	1.545019	0.269865	0.345148
H38	H	1.345116	0.378581	0.636842
H39	H	1.564935	0.259372	0.588002
F40	F	0.842198	0.469741	-0.000074
F41	F	1.278698	0.414583	0.429798
F42	F	1.024786	0.191565	-0.000020
F43	F	1.253061	-0.111350	-0.121115
H44	H	1.231237	-0.245109	0.092127
H45	H	1.487961	-0.260413	-0.226071
H46	H	1.260611	-0.260255	-0.093855
F47	F	1.214023	-0.092247	0.121187
H48	H	1.620334	-0.099139	-0.135042
F49	F	1.480205	-0.112972	-0.256398
H50	H	1.617630	-0.242634	-0.133884
H51	H	1.424627	-0.075830	0.226691
H52	H	1.572766	-0.220773	0.138490
F53	F	1.393237	-0.226473	0.255384
H54	H	1.581205	-0.076973	0.129861
