data_functionalizedCrystal
_audit_creation_method	'MofGen! by Chris Wilmer'
_symmetry_space_group_name_H-M	'P1'
_symmetry_Int_Tables_number	1
_symmetry_cell_setting	triclinic
loop_
_symmetry_equiv_pos_as_xyz
  x,y,z
_cell_length_a	13.897449
_cell_length_b	18.215405
_cell_length_c	18.215399
_cell_angle_alpha	89.969449
_cell_angle_beta	90.018532
_cell_angle_gamma	89.973835
loop_
_atom_site_label
_atom_site_type_symbol
_atom_site_fract_x
_atom_site_fract_y
_atom_site_fract_z
Zn1	Zn	1.474633	0.292967	0.416077
Zn2	Zn	1.974633	0.792967	0.916077
Zn3	Zn	1.474513	0.416038	0.293005
Zn4	Zn	1.974513	0.916038	0.793005
Zn5	Zn	1.313329	0.292993	0.293027
Zn6	Zn	1.813329	0.792993	0.793027
Zn7	Zn	1.313284	0.415999	0.416033
Zn8	Zn	1.813284	0.915999	0.916033
O9	O	1.393940	0.354499	0.354536
O10	O	1.893940	0.854499	0.854536
O11	O	1.609599	0.309298	0.399761
O12	O	2.109599	0.809298	0.899761
O13	O	1.453100	0.399743	0.190024
O14	O	1.953100	0.899743	0.690024
O15	O	1.334795	0.190005	0.309378
O16	O	1.834795	0.690005	0.809378
O17	O	1.609511	0.399718	0.309340
O18	O	2.109511	0.899718	0.809340
O19	O	1.453305	0.189986	0.399782
O20	O	1.953305	0.689986	0.899782
O21	O	1.334679	0.309342	0.190040
O22	O	1.834679	0.809342	0.690040
O23	O	1.178341	0.309304	0.309335
O24	O	1.678341	0.809304	0.809335
O25	O	1.334719	0.399651	0.519023
O26	O	1.834719	0.899651	1.019023
O27	O	1.178308	0.399676	0.399707
O28	O	1.678308	0.899676	0.899707
O29	O	1.453262	0.309260	0.519055
O30	O	1.953262	0.809260	1.019055
O31	O	1.453057	0.519017	0.309297
O32	O	1.953057	1.019017	0.809297
O33	O	1.334602	0.518988	0.399685
O34	O	1.834602	1.018988	0.899685
C35	C	1.393838	0.545705	0.354500
C36	C	1.893838	1.045705	0.854500
C37	C	1.393883	0.627504	0.354510
C38	C	1.893883	1.127504	0.854510
C39	C	1.143326	0.354489	0.354519
C40	C	1.643326	0.854489	0.854519
C41	C	1.036112	0.354503	0.354529
C42	C	1.536112	0.854503	0.854529
C43	C	0.839817	0.354505	0.354548
C44	C	1.339817	0.854505	0.854548
C45	C	0.949049	0.354502	0.354536
C46	C	1.449049	0.854502	0.854536
C47	C	1.393999	0.354448	0.546489
C48	C	1.893999	0.854448	1.046489
C49	C	1.394024	0.354427	0.628288
C50	C	1.894024	0.854427	1.128288
C51	C	1.645533	0.354509	0.354553
C52	C	2.145533	0.854509	0.854553
C53	C	1.752747	0.354514	0.354560
C54	C	2.252747	0.854514	0.854560
C55	C	1.394068	0.162546	0.354587
C56	C	1.894068	0.662546	0.854587
C57	C	1.394123	0.080747	0.354609
C58	C	1.894123	0.580747	0.854609
C59	C	1.455707	0.815689	0.307531
C60	C	1.955707	1.315689	0.807531
C61	C	1.455750	0.892547	0.307549
C62	C	1.955750	1.392547	0.807549
C63	C	1.332296	0.892557	0.401593
C64	C	1.832296	1.392557	0.901593
C65	C	1.332259	0.815700	0.401578
C66	C	1.832259	1.315700	0.901578
C67	C	1.393963	0.777268	0.354543
C68	C	1.893963	1.277268	0.854543
C69	C	1.394043	0.930984	0.354576
C70	C	1.894043	1.430984	0.854576
C71	C	1.394090	1.014317	0.354595
C72	C	1.894090	1.514317	0.854595
C73	C	1.393918	0.693929	0.354524
C74	C	1.893918	1.193929	0.854524
C75	C	1.393937	0.354496	0.163329
C76	C	1.893937	0.854496	0.663329
C77	C	1.394099	0.354311	0.081531
C78	C	1.894099	0.854311	0.581531
C79	C	1.455771	0.307316	0.816500
C80	C	1.955771	0.807316	1.316500
C81	C	1.455783	0.307295	0.893358
C82	C	1.955783	0.807295	1.393358
C83	C	1.332345	0.401424	0.893313
C84	C	1.832345	0.901424	1.393313
C85	C	1.332329	0.401441	0.816456
C86	C	1.832329	0.901441	1.316456
C87	C	1.394048	0.354388	0.778051
C88	C	1.894048	0.854388	1.278051
C89	C	1.394075	0.354349	0.931767
C90	C	1.894075	0.854349	1.431767
C91	C	1.394087	0.354326	1.015101
C92	C	1.894087	0.854326	1.515101
C93	C	1.394035	0.354410	0.694712
C94	C	1.894035	0.854410	1.194712
H95	H	1.506030	0.923826	0.269268
H96	H	2.006030	1.423826	0.769268
O97	O	1.272459	0.929860	0.447381
O98	O	1.772459	1.429860	0.947381
C99	C	1.293454	0.911001	0.520740
C100	C	1.793454	1.411001	1.020740
H101	H	1.370500	0.889822	0.524508
H102	H	1.870500	1.389822	1.024508
H103	H	1.241702	0.866408	0.539932
H104	H	1.741702	1.366408	1.039932
C105	C	1.187594	1.005262	0.565230
C106	C	1.687594	1.505262	1.065230
C107	C	1.282225	0.979255	0.569859
C108	C	1.782225	1.479255	1.069859
H109	H	1.180664	1.047362	0.595531
H110	H	1.680664	1.547362	1.095531
H111	H	1.173445	1.017966	0.515807
H112	H	1.673445	1.517966	1.015807
H113	H	1.144478	0.968095	0.581223
H114	H	1.644478	1.468095	1.081223
H115	H	1.325339	1.016418	0.553859
H116	H	1.825339	1.516418	1.053859
H117	H	1.296381	0.966559	0.619281
H118	H	1.796381	1.466559	1.119281
O119	O	1.272414	0.778340	0.447327
O120	O	1.772414	1.278340	0.947327
C121	C	1.327275	0.733801	0.494876
C122	C	1.827275	1.233801	0.994876
H123	H	1.403251	0.756915	0.499480
H124	H	1.903251	1.256915	0.999480
H125	H	1.330591	0.675567	0.472111
H126	H	1.830591	1.175567	0.972111
C127	C	1.186774	0.704202	0.565692
C128	C	1.686774	1.204202	1.065692
C129	C	1.280087	0.732594	0.571352
C130	C	1.780087	1.232594	1.071352
H131	H	1.157665	0.703454	0.612865
H132	H	1.657665	1.203454	1.112865
H133	H	1.149812	0.734206	0.533656
H134	H	1.649812	1.234206	1.033656
H135	H	1.189550	0.655676	0.546719
H136	H	1.689550	1.155676	1.046719
H137	H	1.277308	0.781122	0.590316
H138	H	1.777308	1.281122	1.090316
H139	H	1.317048	0.702598	0.603393
H140	H	1.817048	1.202598	1.103393
O141	O	1.515746	0.261537	0.779306
O142	O	2.015746	0.761537	1.279306
C143	C	1.570243	0.219998	0.829727
C144	C	2.070243	0.719998	1.329727
H145	H	1.530745	0.217439	0.884509
H146	H	2.030745	0.717439	1.384509
H147	H	1.643487	0.246945	0.837903
H148	H	2.143487	0.746945	1.337903
C149	C	1.632696	0.144821	0.732475
C150	C	2.132696	0.644821	1.232475
C151	C	1.584180	0.141673	0.799757
C152	C	2.084180	0.641673	1.299757
H153	H	1.641298	0.096508	0.713988
H154	H	2.141298	0.596508	1.213988
H155	H	1.595984	0.172808	0.698505
H156	H	2.095984	0.672808	1.198505
H157	H	1.693728	0.167280	0.739297
H158	H	2.193728	0.667280	1.239297
H159	H	1.523145	0.119224	0.792933
H160	H	2.023145	0.619224	1.292933
H161	H	1.620882	0.113681	0.833726
H162	H	2.120882	0.613681	1.333726
H163	H	1.506042	0.268963	0.924660
H164	H	2.006042	0.768963	1.424660
H165	H	1.282097	0.439734	0.924592
H166	H	1.782097	0.939734	1.424592
O167	O	1.272338	0.447240	0.779216
O168	O	1.772338	0.947240	1.279216
C169	C	1.217856	0.488758	0.829592
C170	C	1.717856	0.988758	1.329592
H171	H	1.257372	0.491298	0.884384
H172	H	1.757372	0.991298	1.384384
H173	H	1.144616	0.461806	0.837764
H174	H	1.644616	0.961806	1.337764
C175	C	1.155366	0.563970	0.732269
C176	C	1.655366	1.063970	1.232269
C177	C	1.203904	0.567094	0.799564
C178	C	1.703904	1.067094	1.299564
H179	H	1.146755	0.612290	0.713746
H180	H	1.646755	1.112290	1.213746
H181	H	1.192068	0.535997	0.698329
H182	H	1.692068	1.035997	1.198329
H183	H	1.094337	0.541506	0.739088
H184	H	1.594337	1.041506	1.239088
H185	H	1.264936	0.589548	0.792742
H186	H	1.764936	1.089548	1.292742
H187	H	1.167212	0.595072	0.833502
H188	H	1.667212	1.095072	1.333502
H189	H	1.505951	0.784399	0.269234
H190	H	2.005951	1.284399	0.769234
