data_functionalizedCrystal
_audit_creation_method	'MofGen! by Chris Wilmer'
_symmetry_space_group_name_H-M	'P1'
_symmetry_Int_Tables_number	1
_symmetry_cell_setting	triclinic
loop_
_symmetry_equiv_pos_as_xyz
  x,y,z
_cell_length_a	6.817900
_cell_length_b	11.102244
_cell_length_c	17.110486
_cell_angle_alpha	95.183323
_cell_angle_beta	99.060439
_cell_angle_gamma	108.604870
loop_
_atom_site_label
_atom_site_type_symbol
_atom_site_fract_x
_atom_site_fract_y
_atom_site_fract_z
V1	V	-4.002958	-0.175460	-0.246718
O2	O	-3.964063	0.008821	-0.242024
O3	O	-3.980473	-0.348282	-0.245029
O4	O	-3.932390	-0.172590	-0.354321
O5	O	-4.012479	-0.168087	-0.131974
V6	V	-4.486101	-0.153438	-0.232994
O7	O	-4.265051	-0.223767	-0.276823
O8	O	-4.674205	-0.105131	-0.202889
O9	O	-4.285380	0.019384	-0.234683
O10	O	-4.642393	-0.337719	-0.237688
O11	O	-4.593977	-0.160811	-0.347738
O12	O	-4.333463	-0.156308	-0.125391
C13	C	-3.832495	-0.390418	-0.241136
C14	C	-3.895249	-0.531701	-0.240472
C15	C	-3.896445	-0.580048	-0.167699
C16	C	-3.955421	-0.712801	-0.167084
C17	C	-4.011992	-0.748851	-0.312022
C18	C	-3.953032	-0.616100	-0.312636
C19	C	-3.863776	-0.559235	-0.084020
C20	C	-3.922751	-0.691988	-0.083406
C21	C	-3.771160	-0.166304	-0.380549
C22	C	-3.794917	-0.165101	-0.468515
C23	C	-3.988316	-0.170879	-0.513873
C24	C	-4.010627	-0.169748	-0.596526
C25	C	-3.839540	-0.162848	-0.633821
C26	C	-3.646123	-0.157066	-0.588456
C27	C	-3.623811	-0.158188	-0.505804
C28	C	-3.897788	-0.159135	-0.883176
C29	C	-3.920118	-0.158017	-0.965835
C30	C	-4.284619	-0.170697	-0.973898
C31	C	-4.262293	-0.171826	-0.891244
C32	C	-4.068877	-0.166037	-0.845887
C33	C	-3.862343	-0.161696	-0.718306
C34	C	-4.046072	-0.167180	-0.761402
C35	C	-4.096701	0.061513	-0.238574
C36	C	-4.013184	0.202795	-0.239243
C37	C	-4.158037	-0.162599	-0.099159
C38	C	-4.113517	-0.163795	-0.011192
H39	H	-4.127643	-0.176506	-0.483514
H40	H	-3.723049	-0.156083	-0.748681
H41	H	-3.786273	-0.715061	-0.048085
C42	C	-4.450487	-0.179421	-0.850222
H43	H	-4.409505	-0.179276	-0.794503
H44	H	-4.493736	-0.107401	-0.858196
H45	H	-4.564325	-0.256299	-0.872655
H46	H	-4.168107	-0.174445	-0.633452
C47	C	-4.075530	-0.841691	-0.391395
H48	H	-4.110804	-0.927677	-0.380608
H49	H	-4.194091	-0.831479	-0.423799
H50	H	-3.960857	-0.823202	-0.418741
H51	H	-3.975168	-0.520184	-0.055086
H52	H	-4.075288	-0.731825	-0.060373
C53	C	-3.951735	-0.562923	-0.392686
H54	H	-3.994574	-0.632203	-0.435573
H55	H	-4.046516	-0.516023	-0.398460
H56	H	-3.813288	-0.507752	-0.393417
H57	H	-3.690975	-0.506478	-0.055120
C58	C	-4.497352	-0.177047	-1.023791
H59	H	-4.486140	-0.175379	-1.078356
H60	H	-4.603893	-0.254276	-1.019129
H61	H	-4.533248	-0.105376	-1.004672
H62	H	-3.780785	-0.152394	-0.996197
H63	H	-3.740321	-0.154466	-0.846259
C64	C	-3.457933	-0.149479	-0.629479
H65	H	-3.498923	-0.149653	-0.685202
H66	H	-3.344081	-0.072615	-0.607052
H67	H	-3.414715	-0.221516	-0.621501
C68	C	-3.411076	-0.151840	-0.455911
H69	H	-3.312382	-0.147582	-0.489960
H70	H	-3.359485	-0.077569	-0.416273
H71	H	-3.430113	-0.226470	-0.430729
H72	H	-4.185367	-0.172794	-0.731033
