data_functionalizedCrystal
_audit_creation_method	'MofGen! by Chris Wilmer'
_symmetry_space_group_name_H-M	'P1'
_symmetry_Int_Tables_number	1
_symmetry_cell_setting	triclinic
loop_
_symmetry_equiv_pos_as_xyz
  x,y,z
_cell_length_a	27.732064
_cell_length_b	27.731996
_cell_length_c	26.210047
_cell_angle_alpha	90.010646
_cell_angle_beta	90.008789
_cell_angle_gamma	82.635407
loop_
_atom_site_label
_atom_site_type_symbol
_atom_site_fract_x
_atom_site_fract_y
_atom_site_fract_z
O1	O	0.640920	0.057556	0.042344
O2	O	0.500126	0.066293	0.042366
O3	O	0.574908	-0.008474	0.042344
O4	O	0.566137	0.132322	0.042367
O5	O	0.574885	-0.008474	-0.042514
O6	O	0.500102	0.066293	-0.042492
O7	O	0.640896	0.057556	-0.042514
Cu8	Cu	0.570497	0.061924	-0.050251
Cu9	Cu	0.570525	0.061924	0.050104
O10	O	0.566113	0.132322	-0.042491
C11	C	0.482107	0.066108	-0.000060
C12	C	0.428453	0.065552	-0.000052
C13	C	0.574717	-0.026482	-0.000087
C14	C	0.574174	-0.080138	-0.000092
C15	C	0.051389	0.017584	-0.000089
C16	C	0.253049	0.019630	-0.000076
O17	O	0.284309	-0.017592	-0.000101
N18	N	0.272168	0.063966	-0.000066
C19	C	0.240869	0.107793	-0.000063
O20	O	0.261758	0.145549	-0.000060
C21	C	0.039210	0.105746	-0.000080
C22	C	0.020094	0.061407	-0.000085
C23	C	0.032272	-0.026751	-0.000094
C24	C	-0.018140	-0.027262	-0.000095
C25	C	-0.049435	0.016562	-0.000090
C26	C	-0.030318	0.060896	-0.000085
C27	C	0.007912	0.149572	-0.000081
C28	C	-0.042506	0.149057	-0.000087
C29	C	-0.061622	0.104718	-0.000091
C30	C	-0.112026	0.104209	-0.000082
N31	N	-0.131145	0.059873	-0.000091
C32	C	-0.099849	0.016050	-0.000096
C33	C	0.346743	0.108864	-0.000053
C34	C	0.397158	0.109376	-0.000048
C35	C	0.409334	0.021213	-0.000061
C36	C	0.358919	0.020702	-0.000063
C37	C	0.327624	0.064529	-0.000063
C38	C	-0.205719	0.014980	-0.000096
C39	C	-0.256136	0.014473	-0.000095
C40	C	-0.268308	0.102635	-0.000084
C41	C	-0.217895	0.103142	-0.000083
C42	C	-0.186601	0.059311	-0.000091
O43	O	-0.143313	0.141411	-0.000062
O44	O	-0.120748	-0.021702	-0.000110
C45	C	0.101801	0.018095	-0.000089
C46	C	0.120918	0.062430	-0.000083
C47	C	0.089623	0.106253	-0.000079
C48	C	0.171332	0.062941	-0.000078
C49	C	0.202628	0.019118	-0.000083
C50	C	0.183508	-0.025218	-0.000092
C51	C	0.133096	-0.025729	-0.000093
C52	C	0.108742	0.150589	-0.000069
C53	C	0.159154	0.151096	-0.000068
C54	C	0.190450	0.107273	-0.000073
C55	C	0.570772	-0.412854	0.046189
C56	C	0.568711	-0.614513	0.046199
O57	O	0.568434	-0.640583	0.085538
N58	N	0.568442	-0.639730	-0.000057
C59	C	0.568686	-0.614529	-0.046318
O60	O	0.568405	-0.640604	-0.085661
C61	C	0.570743	-0.412871	-0.046327
C62	C	0.571017	-0.387657	-0.000068
C63	C	0.571045	-0.387640	0.092444
C64	C	0.571563	-0.337229	0.092442
C65	C	0.571808	-0.312032	0.046184
C66	C	0.571535	-0.337246	-0.000071
C67	C	0.570983	-0.387670	-0.092588
C68	C	0.571496	-0.337253	-0.092586
C69	C	0.571770	-0.312039	-0.046327
C70	C	0.572297	-0.261637	-0.046332
N71	N	0.572566	-0.236420	-0.000076
C72	C	0.572321	-0.261618	0.046182
C73	C	0.567606	-0.720402	-0.046310
C74	C	0.567093	-0.770817	-0.046308
C75	C	0.567117	-0.770797	0.046209
C76	C	0.567634	-0.720382	0.046206
C77	C	0.567875	-0.695185	-0.000055
C78	C	0.573409	-0.155750	0.046172
C79	C	0.573929	-0.105335	0.046166
C80	C	0.573902	-0.105359	-0.046351
C81	C	0.573385	-0.155770	-0.046345
C82	C	0.573137	-0.180964	-0.000079
O83	O	0.572568	-0.235535	-0.085650
O84	O	0.572591	-0.235532	0.085519
C85	C	0.570254	-0.463265	0.046192
C86	C	0.569981	-0.488479	-0.000063
C87	C	0.570226	-0.463282	-0.046320
C88	C	0.569467	-0.538894	-0.000061
C89	C	0.569223	-0.564091	0.046197
C90	C	0.569491	-0.538874	0.092453
C91	C	0.570009	-0.488463	0.092450
C92	C	0.569957	-0.488499	-0.092576
C93	C	0.569440	-0.538911	-0.092569
C94	C	0.569195	-0.564108	-0.046312
C95	C	0.658915	0.057740	-0.000086
C96	C	0.712569	0.058296	-0.000091
C97	C	0.566305	0.150330	-0.000059
C98	C	0.566848	0.203986	-0.000051
N99	N	0.570481	0.061924	-0.120835
C100	C	0.599611	0.091037	-0.473349
C101	C	0.599625	0.091037	-0.687007
O102	O	0.624381	0.115785	-0.714629
N103	N	0.570536	0.061919	-0.713729
C104	C	0.541444	0.032797	-0.687032
O105	O	0.516706	0.008027	-0.714663
C106	C	0.541433	0.032795	-0.473375
C107	C	0.570520	0.061919	-0.446656
C108	C	0.628696	0.120158	-0.446630
C109	C	0.628690	0.120160	-0.393218
C110	C	0.599599	0.091041	-0.366526
C111	C	0.570514	0.061920	-0.393244
C112	C	0.512343	0.003671	-0.446679
C113	C	0.512344	0.003672	-0.393261
C114	C	0.541431	0.032795	-0.366543
C115	C	0.541417	0.032803	-0.313140
N116	N	0.570506	0.061921	-0.286419
C117	C	0.599597	0.091040	-0.313111
C118	C	0.541451	0.032801	-0.799206
C119	C	0.541453	0.032802	-0.852620
C120	C	0.599636	0.091041	-0.852591
C121	C	0.599630	0.091042	-0.799176
C122	C	0.570540	0.061919	-0.772484
C123	C	0.599582	0.091042	-0.200944
C124	C	0.599572	0.091043	-0.147527
C125	C	0.541392	0.032802	-0.147561
C126	C	0.541400	0.032803	-0.200972
C127	C	0.570499	0.061924	-0.227662
O128	O	0.516678	0.008064	-0.285486
O129	O	0.624340	0.115798	-0.285471
C130	C	0.599617	0.091036	-0.526760
C131	C	0.570532	0.061915	-0.553479
C132	C	0.541440	0.032796	-0.526786
C133	C	0.570534	0.061916	-0.606893
C134	C	0.599625	0.091035	-0.633586
C135	C	0.628714	0.120153	-0.606864
C136	C	0.628708	0.120154	-0.553453
C137	C	0.512351	0.003678	-0.553508
C138	C	0.512359	0.003679	-0.606919
C139	C	0.541450	0.032798	-0.633612
N140	N	0.570545	0.061921	0.120688
H141	H	-0.271697	-0.021635	-0.000097
H142	H	0.566877	-0.791342	-0.083977
H143	H	0.623259	0.114761	-0.125775
H144	H	0.174713	0.187204	-0.000061
Cl145	Cl	0.570261	-0.456830	-0.150735
H146	H	-0.180245	-0.020712	-0.000103
H147	H	0.321266	0.144555	-0.000052
Cl148	Cl	0.573098	-0.187416	0.104336
H149	H	0.623316	0.114758	-0.777425
Cl150	Cl	0.475767	-0.032924	-0.519959
H151	H	0.652394	0.143870	-0.531703
Cl152	Cl	-0.042163	-0.083005	-0.000096
Cl153	Cl	0.222861	-0.080309	-0.000096
H154	H	-0.293798	0.138315	-0.000078
Cl155	Cl	0.071607	-0.081851	-0.000100
Cl156	Cl	0.334893	-0.035040	-0.000071
Cl157	Cl	0.448686	-0.033879	-0.000067
Cl158	Cl	0.574274	-0.073641	0.104324
Cl159	Cl	-0.193863	0.158882	-0.000071
Cl160	Cl	0.570636	-0.419355	-0.150745
H161	H	0.571685	-0.316739	-0.130258
H162	H	0.652399	0.143865	-0.628607
H163	H	0.412717	0.145480	-0.000037
H164	H	0.652388	0.143870	-0.468357
H165	H	0.023467	0.185677	-0.000075
H166	H	-0.067984	0.184746	-0.000089
H167	H	0.117537	-0.061833	-0.000097
H168	H	0.083265	0.186276	-0.000066
Cl169	Cl	0.571902	-0.305539	0.150599
H170	H	0.488668	-0.020035	-0.628669
H171	H	0.567856	-0.699856	0.083874
Cl172	Cl	0.570738	-0.419308	0.150605
H173	H	0.623278	0.114755	-0.222668
Cl174	Cl	0.569098	-0.570602	-0.150730
H175	H	0.652378	0.143873	-0.371469
H176	H	0.517762	0.009092	-0.874370
Cl177	Cl	0.636209	0.127646	-0.886157
Cl178	Cl	0.566807	-0.802482	0.104361
Cl179	Cl	0.573050	-0.187470	-0.104499
Cl180	Cl	0.567907	-0.688733	-0.104473
H181	H	0.488658	-0.020045	-0.468425
Cl182	Cl	0.504867	-0.003806	-0.765658
Cl183	Cl	0.475775	-0.032947	-0.359710
H184	H	0.517709	0.009094	-0.222728
Cl185	Cl	0.504822	-0.003802	-0.113994
H186	H	0.574104	-0.084834	-0.084013
H187	H	0.569294	-0.559399	0.130117
Cl188	Cl	0.570352	-0.456773	0.150607
