data_functionalizedCrystal
_audit_creation_method	'MofGen! by Chris Wilmer'
_symmetry_space_group_name_H-M	'P1'
_symmetry_Int_Tables_number	1
_symmetry_cell_setting	triclinic
loop_
_symmetry_equiv_pos_as_xyz
  x,y,z
_cell_length_a	14.853567
_cell_length_b	10.540539
_cell_length_c	13.330367
_cell_angle_alpha	89.997527
_cell_angle_beta	89.995418
_cell_angle_gamma	84.080211
loop_
_atom_site_label
_atom_site_type_symbol
_atom_site_fract_x
_atom_site_fract_y
_atom_site_fract_z
O1	O	1.197288	0.165727	-0.083349
O2	O	0.934938	0.185470	-0.083366
O3	O	1.072099	-0.009174	-0.083356
O4	O	1.060128	0.360371	-0.083359
O5	O	1.072079	-0.009178	0.083491
O6	O	0.934918	0.185465	0.083481
O7	O	1.197268	0.165723	0.083498
Cu8	Cu	1.066092	0.175594	0.098724
Cu9	Cu	1.066115	0.175599	-0.098592
O10	O	1.060108	0.360367	0.083488
C11	C	0.901335	0.184573	0.000055
C12	C	0.801236	0.181892	0.000049
C13	C	0.387998	0.054938	0.000072
C14	C	0.368000	0.286179	0.000069
C15	C	0.462048	0.288700	0.000066
C16	C	0.519075	0.174338	0.000065
C17	C	0.482055	0.057455	0.000066
C18	C	0.499075	0.405580	0.000054
C19	C	0.593129	0.408105	0.000050
C20	C	0.650158	0.293742	0.000056
C21	C	0.613132	0.176855	0.000058
C22	C	0.670159	0.062493	0.000057
C23	C	0.633135	-0.054396	0.000067
C24	C	0.539084	-0.056908	0.000072
C25	C	0.744209	0.296254	0.000050
C26	C	0.764216	0.065010	0.000050
C27	C	1.071191	-0.056469	0.000066
C28	C	1.068505	-0.197388	0.000060
C29	C	0.965588	-0.379682	-0.000321
C30	C	0.968311	-0.233094	0.000055
C31	C	1.116712	-0.259578	0.095341
C32	C	1.113292	-0.406085	0.095421
C33	C	1.115353	-0.406621	-0.094315
C34	C	1.116276	-0.259649	-0.095575
C35	C	1.230872	0.166620	0.000074
C36	C	1.330971	0.169300	0.000074
C37	C	1.061016	0.407662	0.000064
C38	C	1.063702	0.548580	0.000063
N39	N	1.066081	0.175589	0.237505
N40	N	1.066133	0.175593	-0.237374
C41	C	1.005378	0.261753	0.710124
C42	C	1.126877	0.089435	0.710101
C43	C	1.126867	0.089431	0.605082
C44	C	1.066112	0.175591	0.552580
C45	C	1.005368	0.261754	0.605096
C46	C	1.187616	0.003277	0.552559
C47	C	1.187609	0.003271	0.447534
C48	C	1.126849	0.089426	0.395029
C49	C	1.066102	0.175592	0.447552
C50	C	1.005347	0.261752	0.395049
C51	C	0.944594	0.347913	0.447570
C52	C	0.944608	0.347909	0.552591
C53	C	1.126836	0.089430	0.290008
C54	C	1.005337	0.261753	0.290021
H55	H	0.508930	-0.152072	0.000104
N56	N	1.074673	-0.445724	-0.184912
N57	N	1.043618	-0.364073	-0.247264
H58	H	1.014878	-0.391688	-0.311244
H59	H	1.081004	-0.218401	-0.166061
N60	N	1.207910	-0.230243	-0.102791
N61	N	1.239644	-0.162624	-0.037271
H62	H	1.304363	-0.141850	-0.042362
N63	N	0.691393	-0.171209	0.000087
N64	N	0.687596	-0.248901	0.070426
H65	H	0.728744	-0.331398	0.070443
H66	H	0.357849	-0.040229	0.000084
N67	N	1.249659	-0.084762	0.393909
N68	N	1.220562	-0.163654	0.335324
H69	H	1.264387	-0.225833	0.297457
N70	N	0.943263	0.349766	0.236411
N71	N	0.889028	0.426678	0.283318
H72	H	0.845188	0.488838	0.245457
H73	H	1.176346	0.019292	0.752851
N74	N	0.309740	0.402979	0.000050
N75	N	0.225768	0.400714	0.000042
H76	H	0.184616	0.483208	0.000025
H77	H	0.774350	0.391423	0.000044
H78	H	1.176304	0.019284	0.247250
N79	N	0.440813	0.522378	0.000025
N80	N	0.356842	0.520109	0.000021
H81	H	0.315688	0.602601	-0.000007
N82	N	1.249671	-0.084744	0.606171
N83	N	1.303905	-0.161665	0.559270
H84	H	1.347733	-0.223837	0.597137
H85	H	1.083208	-0.216612	0.166242
H86	H	0.930378	-0.190072	-0.068247
N87	N	0.943333	0.349777	0.763763
N88	N	0.945316	0.467112	0.752030
H89	H	0.901495	0.529280	0.789912
N90	N	0.630929	0.527508	0.000037
N91	N	0.580001	0.629606	0.000034
H92	H	0.606697	0.713936	0.000026
H93	H	0.930096	-0.190919	0.068465
N94	N	0.915952	-0.415036	-0.086036
N95	N	0.902302	-0.528928	-0.099013
H96	H	0.867248	-0.553906	-0.159554
N97	N	0.916133	-0.417044	0.084909
N98	N	0.952833	-0.496275	0.145933
H99	H	0.917908	-0.522666	0.206129
H100	H	1.077648	-0.433894	0.166641
H101	H	0.810642	-0.028119	0.000053
H102	H	0.895146	0.418060	0.595360
H103	H	1.187723	-0.454643	-0.094951
H104	H	1.185351	-0.454847	0.099748
H105	H	1.190292	-0.238034	0.098888
N106	N	0.882551	0.435941	0.393935
N107	N	0.911663	0.514810	0.335330
H108	H	0.867847	0.576981	0.297446
