data_functionalizedCrystal
_audit_creation_method	'MofGen! by Chris Wilmer'
_symmetry_space_group_name_H-M	'P1'
_symmetry_Int_Tables_number	1
_symmetry_cell_setting	triclinic
loop_
_symmetry_equiv_pos_as_xyz
  x,y,z
_cell_length_a	15.944564
_cell_length_b	14.421503
_cell_length_c	16.992695
_cell_angle_alpha	89.995710
_cell_angle_beta	92.913921
_cell_angle_gamma	89.996857
loop_
_atom_site_label
_atom_site_type_symbol
_atom_site_fract_x
_atom_site_fract_y
_atom_site_fract_z
O1	O	-1.121307	0.077015	0.101164
O2	O	-0.787974	0.410349	0.434498
O3	O	-0.454641	0.743682	0.767831
O4	O	-0.877595	0.077039	0.113622
O5	O	-0.544261	0.410372	0.446955
O6	O	-0.210928	0.743705	0.780288
O7	O	-0.998474	0.077020	-0.006750
O8	O	-0.665141	0.410353	0.326584
O9	O	-0.331807	0.743686	0.659917
O10	O	-1.000428	0.077034	0.221536
O11	O	-0.667095	0.410368	0.554869
O12	O	-0.333761	0.743701	0.888202
O13	O	-0.998454	-0.077204	-0.006732
O14	O	-0.665120	0.256130	0.326601
O15	O	-0.331787	0.589463	0.659935
O16	O	-0.877574	-0.077185	0.113640
O17	O	-0.544241	0.256148	0.446973
O18	O	-0.210908	0.589482	0.780306
O19	O	-1.121287	-0.077208	0.101182
O20	O	-0.787954	0.256125	0.434515
O21	O	-0.454620	0.589459	0.767849
Cu22	Cu	-0.999429	-0.091278	0.107413
Cu23	Cu	-0.666096	0.242055	0.440746
Cu24	Cu	-0.332762	0.575388	0.774079
Cu25	Cu	-0.999453	0.091109	0.107391
Cu26	Cu	-0.666119	0.424442	0.440725
Cu27	Cu	-0.332786	0.757776	0.774058
O28	O	-1.000408	-0.077189	0.221554
O29	O	-0.667074	0.256144	0.554887
O30	O	-0.333741	0.589478	0.888220
C31	C	-0.846256	-0.000070	0.113112
C32	C	-0.512923	0.333263	0.446445
C33	C	-0.179589	0.666596	0.779778
C34	C	-0.752906	-0.000062	0.111556
C35	C	-0.419573	0.333272	0.444889
C36	C	-0.086239	0.666605	0.778223
C37	C	-0.532797	-0.000085	0.033223
C38	C	-0.199464	0.333249	0.366556
C39	C	0.133870	0.666582	0.699889
C40	C	-0.474226	0.075958	0.069582
C41	C	-0.140893	0.409291	0.402916
C42	C	0.192440	0.742625	0.736249
C43	C	-0.581992	-0.000073	0.108742
C44	C	-0.248659	0.333261	0.442075
C45	C	0.084674	0.666594	0.775408
C46	C	-0.474230	-0.076094	0.069618
C47	C	-0.140897	0.257239	0.402951
C48	C	0.192437	0.590573	0.736285
C49	C	-0.416898	-0.000088	0.106017
C50	C	-0.083565	0.333246	0.439351
C51	C	0.249769	0.666579	0.772684
C52	C	-0.524651	0.076033	0.145122
C53	C	-0.191318	0.409366	0.478455
C54	C	0.142015	0.742699	0.811789
C55	C	-0.524661	-0.076088	0.145147
C56	C	-0.191327	0.257246	0.478480
C57	C	0.142006	0.590579	0.811814
C58	C	-0.466111	-0.000027	0.181562
C59	C	-0.132778	0.333307	0.514895
C60	C	0.200556	0.666640	0.848228
C61	C	-0.677099	-0.000063	0.110309
C62	C	-0.343766	0.333270	0.443642
C63	C	-0.010433	0.666603	0.776975
C64	C	-0.321793	-0.000090	0.104456
C65	C	0.011541	0.333243	0.437789
C66	C	0.344874	0.666576	0.771123
N67	N	-0.999418	-0.219559	0.107427
N68	N	-0.666085	0.113774	0.440760
N69	N	-0.332752	0.447107	0.774094
C70	C	-0.943511	-0.469204	0.163062
C71	C	-0.610178	-0.135871	0.496395
C72	C	-0.276845	0.197462	0.829728
C73	C	-1.020432	-0.531013	0.178288
C74	C	-0.687099	-0.197680	0.511621
C75	C	-0.353765	0.135653	0.844954
C76	C	-0.999437	-0.408721	0.107408
C77	C	-0.666104	-0.075388	0.440742
C78	C	-0.332771	0.257946	0.774075
C79	C	-0.922537	-0.531006	0.092200
C80	C	-0.589204	-0.197673	0.425534
C81	C	-0.255871	0.135661	0.758867
C82	C	-0.999449	-0.591442	0.107392
C83	C	-0.666116	-0.258109	0.440725
C84	C	-0.332783	0.075224	0.774059
C85	C	-1.076399	-0.469169	0.122670
C86	C	-0.743065	-0.135836	0.456003
C87	C	-0.409732	0.197498	0.789336
C88	C	-0.978452	-0.469156	0.036552
C89	C	-0.645119	-0.135823	0.369885
C90	C	-0.311786	0.197510	0.703218
C91	C	-1.055426	-0.530937	0.051747
C92	C	-0.722092	-0.197604	0.385081
C93	C	-0.388759	0.135730	0.718414
C94	C	-0.999430	-0.303460	0.107420
C95	C	-0.666096	0.029874	0.440753
C96	C	-0.332763	0.363207	0.774086
C97	C	-0.999466	-0.696701	0.107380
C98	C	-0.666132	-0.363368	0.440713
C99	C	-0.332799	-0.030035	0.774047
C100	C	-0.152627	-0.000097	0.101681
C101	C	0.180707	0.333236	0.435015
C102	C	0.514040	0.666570	0.768348
C103	C	-0.245979	-0.000100	0.103205
C104	C	0.087355	0.333234	0.436539
C105	C	0.420688	0.666567	0.769872
C106	C	-0.995950	-0.000092	-0.035954
C107	C	-0.662617	0.333242	0.297380
C108	C	-0.329284	0.666575	0.630713
C109	C	-0.988450	-0.000091	-0.122998
C110	C	-0.655117	0.333243	0.210335
C111	C	-0.321784	0.666576	0.543668
N112	N	-0.999470	0.219390	0.107371
N113	N	-0.666136	0.552723	0.440704
N114	N	-0.332803	0.886057	0.774037
C115	C	-1.060815	-0.000098	-0.173232
C116	C	-0.727482	0.333235	0.160101
C117	C	-0.394148	0.666568	0.493435
C118	C	-1.053763	-0.000089	-0.255019
C119	C	-0.720430	0.333244	0.078314
C120	C	-0.387096	0.666578	0.411647
C121	C	-0.974345	-0.000078	-0.286571
C122	C	-0.641012	0.333255	0.046762
C123	C	-0.307679	0.666588	0.380095
C124	C	-0.901975	-0.000068	-0.236331
C125	C	-0.568642	0.333266	0.097002
C126	C	-0.235309	0.666599	0.430335
C127	C	-0.909028	-0.000071	-0.154546
C128	C	-0.575695	0.333263	0.178788
C129	C	-0.242361	0.666596	0.512121
C130	C	-0.945114	-0.000063	-0.530172
C131	C	-0.611781	0.333271	-0.196839
C132	C	-0.278448	0.666604	0.136495
C133	C	-0.938067	-0.000063	-0.611964
C134	C	-0.604733	0.333271	-0.278631
C135	C	-0.271400	0.666604	0.054703
C136	C	-1.089855	-0.000082	-0.630646
C137	C	-0.756522	0.333251	-0.297313
C138	C	-0.423189	0.666584	0.036020
C139	C	-1.096901	-0.000091	-0.548858
C140	C	-0.763568	0.333243	-0.215525
C141	C	-0.430234	0.666576	0.117808
C142	C	-1.024531	-0.000075	-0.498625
C143	C	-0.691198	0.333258	-0.165292
C144	C	-0.357864	0.666591	0.168041
N145	N	-0.967135	-0.000072	-0.370171
N146	N	-0.633802	0.333262	-0.036838
N147	N	-0.300468	0.666595	0.296496
N148	N	-1.031742	-0.000075	-0.415028
N149	N	-0.698409	0.333258	-0.081694
N150	N	-0.365075	0.666591	0.251639
C151	C	-1.002932	-0.000076	0.250757
C152	C	-0.669598	0.333258	0.584091
C153	C	-0.336265	0.666591	0.917424
C154	C	-1.010432	-0.000071	0.337802
C155	C	-0.677098	0.333263	0.671136
C156	C	-0.343765	0.666596	1.004469
H157	H	-0.896271	-0.442099	0.210164
H158	H	-0.562937	-0.108766	0.543497
H159	H	-0.229604	0.224567	0.876830
H160	H	-1.141456	-0.442121	0.135597
H161	H	-0.808122	-0.108787	0.468930
H162	H	-0.474789	0.224546	0.802264
Cl163	Cl	-0.950996	-0.427170	-0.055923
Cl164	Cl	-0.617663	-0.093836	0.277410
Cl165	Cl	-0.284330	0.239497	0.610743
H166	H	-0.561927	0.000006	-0.029449
H167	H	-0.228593	0.333339	0.303884
H168	H	0.104740	0.666672	0.637218
Cl169	Cl	-0.822125	-0.572945	0.072350
Cl170	Cl	-0.488792	-0.239612	0.405684
Cl171	Cl	-0.155459	0.093721	0.739017
H172	H	-0.850101	-0.000064	-0.113646
H173	H	-0.516767	0.333269	0.219688
H174	H	-0.183434	0.666603	0.553021
Cl175	Cl	-0.439885	0.175211	0.020259
Cl176	Cl	-0.106551	0.508544	0.353592
Cl177	Cl	0.226782	0.841877	0.686926
H178	H	-0.451992	-0.140380	0.037670
H179	H	-0.118659	0.192953	0.371003
H180	H	0.214674	0.526287	0.704337
Cl181	Cl	-1.128534	-0.572531	-0.020930
Cl182	Cl	-0.795201	-0.239198	0.312403
Cl183	Cl	-0.461868	0.094135	0.645736
Cl184	Cl	-1.160659	-0.000121	-0.133575
Cl185	Cl	-0.827326	0.333212	0.199758
Cl186	Cl	-0.493993	0.666545	0.533091
Cl187	Cl	-0.854133	-0.000041	-0.467033
Cl188	Cl	-0.520800	0.333292	-0.133699
Cl189	Cl	-0.187467	0.666626	0.199634
Cl190	Cl	-0.421408	0.000042	0.278419
Cl191	Cl	-0.088074	0.333375	0.611753
Cl192	Cl	0.245259	0.666709	0.945086
Cl193	Cl	-0.558823	0.175399	0.194388
Cl194	Cl	-0.225490	0.508732	0.527722
Cl195	Cl	0.107844	0.842066	0.861055
Cl196	Cl	-1.047855	-0.572964	0.270790
Cl197	Cl	-0.714521	-0.239631	0.604123
Cl198	Cl	-0.381188	0.093703	0.937456
Cl199	Cl	-1.144741	-0.000102	-0.318167
Cl200	Cl	-0.811407	0.333232	0.015166
Cl201	Cl	-0.478074	0.666565	0.348499
Cl202	Cl	-1.196744	-0.000074	-0.509199
Cl203	Cl	-0.863411	0.333259	-0.175866
Cl204	Cl	-0.530078	0.666593	0.157467
H205	H	-1.148775	-0.000093	-0.671554
H206	H	-0.815441	0.333240	-0.338221
H207	H	-0.482108	0.666573	-0.004888
Cl208	Cl	-0.838220	-0.000055	-0.651628
Cl209	Cl	-0.504887	0.333278	-0.318294
Cl210	Cl	-0.171553	0.666612	0.015039
Cl211	Cl	-0.559038	-0.175344	0.194433
Cl212	Cl	-0.225705	0.157990	0.527767
Cl213	Cl	0.107629	0.491323	0.861100
H214	H	-0.837312	-0.000053	-0.262027
H215	H	-0.503978	0.333280	0.071306
H216	H	-0.170645	0.666613	0.404639
