data_functionalizedCrystal
_audit_creation_method	'MofGen! by Chris Wilmer'
_symmetry_space_group_name_H-M	'P1'
_symmetry_Int_Tables_number	1
_symmetry_cell_setting	triclinic
loop_
_symmetry_equiv_pos_as_xyz
  x,y,z
_cell_length_a	19.121102
_cell_length_b	21.295417
_cell_length_c	19.120904
_cell_angle_alpha	92.408338
_cell_angle_beta	90.088173
_cell_angle_gamma	87.584620
loop_
_atom_site_label
_atom_site_type_symbol
_atom_site_fract_x
_atom_site_fract_y
_atom_site_fract_z
Zn1	Zn	1.054814	-0.307921	-0.442032
Zn2	Zn	1.059724	-0.408895	-0.324785
Zn3	Zn	0.942584	-0.298967	-0.319816
Zn4	Zn	0.937535	-0.408472	-0.436987
O5	O	0.998664	-0.356064	-0.380905
O6	O	1.153571	-0.325239	-0.430669
O7	O	1.048352	-0.390743	-0.226021
O8	O	0.957530	-0.212069	-0.336060
O9	O	1.157177	-0.399425	-0.344528
O10	O	1.039985	-0.218647	-0.425851
O11	O	0.962291	-0.309980	-0.222371
O12	O	0.843809	-0.309569	-0.331169
O13	O	0.948925	-0.398703	-0.535761
O14	O	0.840100	-0.390022	-0.417254
O15	O	1.035089	-0.324829	-0.539467
O16	O	1.043456	-0.496925	-0.339637
O17	O	0.953685	-0.496614	-0.422072
C18	C	0.816517	-0.348778	-0.373125
C19	C	0.738593	-0.345677	-0.369814
C20	C	0.700074	-0.386166	-0.413007
C21	C	0.626856	-0.383244	-0.409899
C22	C	0.592158	-0.339836	-0.363593
C23	C	0.630682	-0.299344	-0.320398
C24	C	0.703899	-0.302263	-0.323510
C25	C	0.371187	-0.328921	-0.351961
C26	C	0.297965	-0.326006	-0.348850
C27	C	0.294144	-0.409906	-0.438353
C28	C	0.367362	-0.412824	-0.441458
C29	C	0.405880	-0.372329	-0.398265
C30	C	0.517318	-0.336850	-0.360413
C31	C	0.480719	-0.375313	-0.401449
C32	C	0.998574	-0.519610	-0.380862
C33	C	0.998599	-0.589580	-0.380870
C34	C	1.045380	-0.622590	-0.337994
C35	C	1.045413	-0.688335	-0.338011
C36	C	0.998651	-0.721065	-0.380897
C37	C	0.951865	-0.688046	-0.423781
C38	C	0.951839	-0.622304	-0.423768
N39	N	0.937094	-0.822078	-0.383622
N40	N	0.937121	-0.884530	-0.383630
C41	C	0.998728	-0.919144	-0.380940
N42	N	1.060308	-0.888946	-0.378228
N43	N	1.060281	-0.826487	-0.378215
C44	C	0.998674	-0.792352	-0.380916
C45	C	1.045548	-1.023443	-0.338080
C46	C	1.045581	-1.089189	-0.338103
C47	C	0.952028	-1.088899	-0.423869
C48	C	0.952001	-1.023154	-0.423850
C49	C	0.998760	-0.990430	-0.380953
C50	C	1.181523	-0.363378	-0.388716
C51	C	1.259446	-0.366495	-0.392044
C52	C	0.990896	-0.362718	-0.563763
C53	C	0.987586	-0.365553	-0.641686
C54	C	0.998773	-0.191880	-0.380964
C55	C	0.998820	-0.121914	-0.380989
C56	C	1.030890	-0.328425	-0.680225
C57	C	1.027771	-0.331086	-0.753441
C58	C	0.981351	-0.370880	-0.788118
C59	C	0.938043	-0.408010	-0.749573
C60	C	0.941159	-0.405345	-0.676358
C61	C	0.969696	-0.380849	-1.009084
C62	C	0.966585	-0.383513	-1.082305
C63	C	1.056312	-0.306588	-1.086168
C64	C	1.059427	-0.303929	-1.012951
C65	C	1.016116	-0.341056	-0.974413
C66	C	0.978164	-0.373603	-0.862957
C67	C	1.019300	-0.338330	-0.899575
C68	C	1.006442	-0.349392	-0.198761
C69	C	1.009889	-0.346384	-0.120844
H70	H	0.395608	-0.448173	-0.479164
H71	H	0.940372	-0.406006	-0.891199
H72	H	1.083456	-0.595949	-0.303066
H73	H	0.934439	-0.411090	-0.977716
C74	C	0.584490	-0.427819	-0.457369
H75	H	0.615642	-0.454105	-0.485374
H76	H	0.554626	-0.403794	-0.486767
H77	H	0.557073	-0.453079	-0.429237
H78	H	0.402539	-0.295952	-0.316785
H79	H	0.913743	-0.595426	-0.458684
C80	C	1.081949	-0.284648	-0.642087
H81	H	1.107286	-0.262912	-0.675528
H82	H	1.113696	-0.308905	-0.614821
H83	H	1.056356	-0.255107	-0.612391
C84	C	0.900591	-1.124891	-0.471045
H85	H	0.872727	-1.095812	-0.496582
H86	H	0.871218	-1.148380	-0.442907
H87	H	0.926103	-1.152682	-0.502766
H88	H	1.057092	-0.305927	-0.871338
H89	H	1.091573	-0.276360	-1.117553
C90	C	1.096987	-0.987444	-0.290904
H91	H	1.124862	-1.016524	-0.265378
H92	H	1.071484	-0.959651	-0.259184
H93	H	1.126361	-0.963958	-0.319051
H94	H	0.602426	-0.263997	-0.282698
C95	C	1.096869	-0.724654	-0.290840
H96	H	1.124709	-0.695748	-0.265287
H97	H	1.126265	-0.752464	-0.318985
H98	H	1.071372	-0.748148	-0.259134
H99	H	1.063035	-0.300854	-0.784817
C100	C	0.900428	-0.724047	-0.470952
H101	H	0.907138	-0.767929	-0.464814
H102	H	0.908643	-0.715369	-0.518499
H103	H	0.853763	-0.711057	-0.458636
C104	C	1.097044	-1.125501	-0.290936
H105	H	1.124881	-1.096593	-0.265383
H106	H	1.126442	-1.153306	-0.319084
H107	H	1.071552	-1.148999	-0.259230
C108	C	0.886983	-0.451783	-0.787715
H109	H	0.891334	-0.448058	-0.836840
H110	H	0.840395	-0.440251	-0.773706
H111	H	0.897731	-0.494052	-0.776138
C112	C	0.900537	-0.986837	-0.471008
H113	H	0.907222	-0.942997	-0.464863
H114	H	0.853883	-0.995398	-0.458703
H115	H	0.908767	-0.999707	-0.518562
H116	H	1.097229	-0.271526	-0.984722
H117	H	0.728320	-0.421515	-0.450712
C118	C	0.915519	-0.427286	-1.120448
H119	H	0.890166	-0.449012	-1.087010
H120	H	0.941103	-0.456826	-1.150144
H121	H	0.883775	-0.403018	-1.147713
H122	H	0.905889	-0.435572	-0.644980
H123	H	0.489059	-0.301509	-0.322710
C124	C	0.251775	-0.454417	-0.485898
H125	H	0.282926	-0.480681	-0.513927
H126	H	0.221949	-0.430330	-0.515270
H127	H	0.224319	-0.479704	-0.457834
C128	C	0.259796	-0.278262	-0.297907
H129	H	0.210674	-0.282332	-0.302233
H130	H	0.271371	-0.236833	-0.308759
H131	H	0.273787	-0.286179	-0.251293
C132	C	0.746273	-0.257727	-0.275999
H133	H	0.794847	-0.265677	-0.284489
H134	H	0.736263	-0.264677	-0.228364
H135	H	0.733857	-0.215344	-0.285844
H136	H	0.508972	-0.410653	-0.439154
