data_functionalizedCrystal
_audit_creation_method	'MofGen! by Chris Wilmer'
_symmetry_space_group_name_H-M	'P1'
_symmetry_Int_Tables_number	1
_symmetry_cell_setting	triclinic
loop_
_symmetry_equiv_pos_as_xyz
  x,y,z
_cell_length_a	6.817900
_cell_length_b	7.076105
_cell_length_c	26.551336
_cell_angle_alpha	89.956303
_cell_angle_beta	104.509264
_cell_angle_gamma	117.701832
loop_
_atom_site_label
_atom_site_type_symbol
_atom_site_fract_x
_atom_site_fract_y
_atom_site_fract_z
V1	V	-4.202854	-0.661658	-0.071051
O2	O	-4.183691	-0.652553	0.004250
O3	O	-4.156364	-0.653775	-0.141685
O4	O	-4.229795	-0.951761	-0.069592
O5	O	-4.109752	-0.352504	-0.068343
V6	V	-4.676472	-0.625088	-0.062087
O7	O	-4.485840	-0.741875	-0.090713
O8	O	-4.843684	-0.544870	-0.042425
O9	O	-4.499756	-0.632971	0.008547
O10	O	-4.813032	-0.634193	-0.137388
O11	O	-4.886971	-0.934242	-0.064795
O12	O	-4.426325	-0.334985	-0.063547
C13	C	-3.999392	-0.642471	-0.158916
C14	C	-4.043170	-0.637959	-0.216658
C15	C	-4.320083	-0.644271	0.025775
C16	C	-4.254351	-0.648913	0.084601
C17	C	-3.972379	-0.440831	-0.236589
C18	C	-4.013567	-0.436526	-0.290843
C19	C	-4.125509	-0.629360	-0.325164
C20	C	-4.196319	-0.826515	-0.305228
C21	C	-4.155149	-0.830815	-0.250975
C22	C	-4.141836	-0.765167	-0.414944
C23	C	-4.182988	-0.760858	-0.469195
C24	C	-4.252502	-0.616106	-0.492497
C25	C	-4.280816	-0.475626	-0.461540
C26	C	-4.239646	-0.479926	-0.407287
C27	C	-4.170162	-0.624719	-0.383992
C28	C	-4.226369	-0.414297	-0.571255
C29	C	-4.267574	-0.410002	-0.625510
C30	C	-4.450307	-0.799995	-0.639894
C31	C	-4.409120	-0.804286	-0.585640
C32	C	-4.297141	-0.611430	-0.551323
C33	C	-4.100012	-0.022578	-0.066950
C34	C	-4.226420	-0.264166	-0.066196
V35	V	-4.401886	-0.636947	0.180271
O36	O	-4.350109	-0.622633	0.256884
O37	O	-4.390078	-0.640705	0.106717
O38	O	-4.462886	-0.938776	0.178790
O39	O	-4.276796	-0.322498	0.184313
V40	V	-4.821286	-0.541786	0.203894
O41	O	-4.676658	-0.689773	0.167457
O42	O	-4.953410	-0.435860	0.229991
O43	O	-4.631356	-0.564356	0.270862
O44	O	-4.979168	-0.542254	0.130744
O45	O	-5.052481	-0.842389	0.203316
O46	O	-4.558548	-0.266284	0.198789
C47	C	-4.462789	-0.595833	0.283044
C48	C	-4.379517	-0.602838	0.340172
C49	C	-4.369901	-0.215612	0.191109
C50	C	-4.224913	0.023530	0.189762
H51	H	-3.881213	-0.283793	-0.208651
H52	H	-4.085234	-0.883050	-0.395976
F53	F	-4.269789	-0.330428	-0.374342
F54	F	-3.938213	-0.226706	-0.312059
F55	F	-4.569461	-1.005226	-0.676418
H56	H	-4.337397	-0.357741	-0.480510
F57	F	-4.192245	-0.200181	-0.646721
H58	H	-4.466753	-0.964809	-0.569413
F59	F	-4.230498	-1.040635	-0.229763
H60	H	-4.287468	-0.983521	-0.333175
F61	F	-4.107202	-0.209048	-0.534731
F62	F	-4.152790	-0.910327	-0.502135
