data_functionalizedCrystal
_audit_creation_method	'MofGen! by Chris Wilmer'
_symmetry_space_group_name_H-M	'P1'
_symmetry_Int_Tables_number	1
_symmetry_cell_setting	triclinic
loop_
_symmetry_equiv_pos_as_xyz
  x,y,z
_cell_length_a	18.215407
_cell_length_b	18.215405
_cell_length_c	18.215399
_cell_angle_alpha	90.027541
_cell_angle_beta	89.979405
_cell_angle_gamma	89.977347
loop_
_atom_site_label
_atom_site_type_symbol
_atom_site_fract_x
_atom_site_fract_y
_atom_site_fract_z
Zn1	Zn	-1.125083	-0.292993	0.416133
Zn2	Zn	-1.124996	-0.416065	0.293068
Zn3	Zn	-1.002016	-0.293016	0.293079
Zn4	Zn	-1.001986	-0.416023	0.416091
O5	O	-1.063520	-0.354524	0.354592
O6	O	-1.228056	-0.309327	0.399821
O7	O	-1.108658	-0.399769	0.190085
O8	O	-1.018389	-0.190029	0.309424
O9	O	-1.227992	-0.399747	0.309405
O10	O	-1.108807	-0.190012	0.399832
O11	O	-1.018305	-0.309366	0.190093
O12	O	-0.899027	-0.309325	0.309384
O13	O	-1.018339	-0.399675	0.519081
O14	O	-0.899006	-0.399697	0.399760
O15	O	-1.108778	-0.309286	0.519112
O16	O	-1.108630	-0.519043	0.309365
O17	O	-1.018255	-0.519012	0.399749
C18	C	-0.872314	-0.354510	0.354569
C19	C	-0.790515	-0.354521	0.354576
C20	C	-1.063450	-0.545730	0.354567
C21	C	-1.063487	-0.627529	0.354581
C22	C	-0.602329	-0.401650	0.401574
C23	C	-0.525470	-0.401652	0.401582
C24	C	-0.525463	-0.307402	0.307614
C25	C	-0.602321	-0.307397	0.307610
C26	C	-0.640751	-0.354526	0.354589
C27	C	-0.487035	-0.354532	0.354601
C28	C	-0.403702	-0.354533	0.354609
C29	C	-0.724090	-0.354524	0.354582
C30	C	-0.255473	-0.354537	0.354613
C31	C	-0.337272	-0.354536	0.354614
C32	C	-1.110589	-0.815653	0.401720
C33	C	-1.110616	-0.892512	0.401734
C34	C	-1.016542	-0.892643	0.307511
C35	C	-1.016512	-0.815786	0.307501
C36	C	-1.063540	-0.777293	0.354605
C37	C	-1.063597	-0.931009	0.354628
C38	C	-1.063625	-1.014343	0.354643
C39	C	-1.063511	-0.693954	0.354591
C40	C	-1.063565	-0.354473	0.546545
C41	C	-1.063584	-0.354452	0.628344
C42	C	-1.063611	-0.162571	0.354634
C43	C	-1.063650	-0.080772	0.354652
C44	C	-1.063518	-0.354522	0.163386
C45	C	-1.063641	-0.354336	0.081588
C46	C	-1.110692	-0.307342	0.816556
C47	C	-1.110701	-0.307321	0.893415
C48	C	-1.016528	-0.401448	0.893371
C49	C	-1.016516	-0.401465	0.816514
C50	C	-1.063602	-0.354413	0.778108
C51	C	-1.063623	-0.354375	0.931824
C52	C	-1.063632	-0.354352	1.015158
C53	C	-1.063592	-0.354435	0.694769
H54	H	-0.494190	-0.440025	0.439843
O55	O	-0.643773	-0.452469	0.452258
H56	H	-0.678814	-0.419566	0.489750
H57	H	-1.148927	-0.923742	0.440101
O58	O	-0.483998	-0.256589	0.256941
H59	H	-0.498759	-0.198840	0.269659
O60	O	-1.161313	-0.774136	0.452520
H61	H	-1.148660	-0.788856	0.510270
H62	H	-1.149031	-0.269028	0.785288
H63	H	-1.149046	-0.268990	0.924715
O64	O	-0.965744	-0.452196	0.934793
H65	H	-0.973666	-0.444281	0.994697
H66	H	-0.978164	-0.439795	0.785209
H67	H	-0.978255	-0.923993	0.269160
H68	H	-0.978195	-0.784550	0.269134
H69	H	-0.633605	-0.269018	0.269350
