data_functionalizedCrystal
_audit_creation_method	'MofGen! by Chris Wilmer'
_symmetry_space_group_name_H-M	'P1'
_symmetry_Int_Tables_number	1
_symmetry_cell_setting	triclinic
loop_
_symmetry_equiv_pos_as_xyz
  x,y,z
_cell_length_a	17.699077
_cell_length_b	16.098538
_cell_length_c	17.699083
_cell_angle_alpha	92.716382
_cell_angle_beta	96.718205
_cell_angle_gamma	92.732487
loop_
_atom_site_label
_atom_site_type_symbol
_atom_site_fract_x
_atom_site_fract_y
_atom_site_fract_z
O1	O	1.007473	0.069247	-0.092301
O2	O	0.787095	0.069251	-0.104758
O3	O	0.903510	0.069241	0.011659
O4	O	0.891058	0.069256	-0.208719
O5	O	0.896709	-0.069271	0.004885
O6	O	0.780294	-0.069261	-0.111532
O7	O	1.000673	-0.069266	-0.099075
Zn8	Zn	0.889404	-0.091255	-0.106379
Zn9	Zn	0.898364	0.091241	-0.097454
O10	O	0.884258	-0.069256	-0.215493
C11	C	0.755497	-0.000005	-0.107700
C12	C	0.671479	-0.000003	-0.106363
N13	N	0.883295	-0.215804	-0.112470
C14	C	0.628305	-0.075507	-0.109425
C15	C	0.549362	-0.075508	-0.108157
C16	C	0.513595	-0.000004	-0.103832
C17	C	0.556775	0.075506	-0.100767
C18	C	0.635717	0.075506	-0.102030
C19	C	0.238412	0.075507	-0.095674
C20	C	0.159464	0.075501	-0.094413
C21	C	0.152057	-0.075507	-0.101801
C22	C	0.230999	-0.075507	-0.103064
C23	C	0.274173	0.000002	-0.099995
C24	C	0.359772	0.000002	-0.101368
C25	C	0.427997	-0.000004	-0.102464
C26	C	0.932724	-0.259393	-0.063075
C27	C	0.928457	-0.346582	-0.067343
C28	C	0.874764	-0.390180	-0.121010
C29	C	0.825330	-0.346584	-0.170407
C30	C	0.829593	-0.259397	-0.166135
C31	C	0.859308	-0.653428	-0.136483
C32	C	0.855050	-0.740621	-0.140753
C33	C	0.958177	-0.740613	-0.037687
C34	C	0.962439	-0.653424	-0.033423
C35	C	0.913001	-0.609837	-0.082818
C36	C	0.870403	-0.479300	-0.125375
C37	C	0.917359	-0.520717	-0.078448
C38	C	1.032270	-0.000008	-0.096134
C39	C	1.116289	-0.000004	-0.097470
C40	C	0.899663	-0.000015	0.036469
C41	C	0.898325	-0.000015	0.120487
N42	N	0.904479	0.215789	-0.091358
C43	C	0.888104	0.000002	-0.240303
C44	C	0.889443	0.000008	-0.324320
C45	C	0.966658	-0.000018	0.169109
C46	C	0.965396	-0.000010	0.248053
C47	C	0.895800	-0.000006	0.278373
C48	C	0.827461	-0.000001	0.229744
C49	C	0.828724	-0.000003	0.150802
C50	C	0.822366	0.000005	0.548107
C51	C	0.821109	0.000004	0.627055
C52	C	0.959038	-0.000002	0.645358
C53	C	0.960301	-0.000003	0.566416
C54	C	0.891963	0.000006	0.517795
C55	C	0.893333	-0.000000	0.432196
C56	C	0.894430	-0.000006	0.363970
H57	H	0.657420	-0.136992	-0.112954
N58	N	0.987561	-0.214850	-0.008254
N59	N	0.991361	-0.137005	-0.004443
H60	H	1.030089	-0.105547	0.034278
N61	N	0.972171	-0.476158	-0.023618
N62	N	0.950585	-0.427524	0.025692
H63	H	0.989288	-0.396036	0.064416
N64	N	0.679834	0.152624	-0.098896
N65	N	0.731788	0.169462	-0.045444
H66	H	0.762947	0.223928	-0.043227
H67	H	0.968706	-0.382072	-0.027121
N68	N	0.520255	0.152639	-0.096338
N69	N	0.538632	0.203189	-0.040675
H70	H	0.512842	0.257667	-0.037547
N71	N	0.752564	-0.000011	0.498446
N72	N	0.735016	-0.058400	0.449503
H73	H	0.685715	-0.058414	0.414424
N74	N	0.808821	-0.608895	-0.186931
N75	N	0.764266	-0.560258	-0.160596
H76	H	0.728610	-0.528801	-0.196227
H77	H	0.773080	-0.000001	0.111214
N78	N	0.107967	-0.152649	-0.104936
N79	N	0.107227	-0.203197	-0.160883
H80	H	0.076091	-0.257678	-0.163100
H81	H	1.016974	-0.000011	0.541735
N82	N	0.800184	-0.785149	-0.195564
N83	N	0.730709	-0.775434	-0.194125
H84	H	0.691961	-0.806883	-0.232832
N85	N	0.750006	0.000004	0.658014
N86	N	0.688996	0.000010	0.614595
H87	H	0.638782	0.000008	0.636460
H88	H	1.006160	-0.617928	0.010276
H89	H	0.130345	0.136989	-0.090890
H90	H	0.781608	-0.382087	-0.214101
N91	N	0.756376	0.000013	0.260725
N92	N	0.755257	0.000014	0.331209
H93	H	0.705052	0.000023	0.353089
H94	H	0.273555	0.136991	-0.093172
N95	N	1.008656	-0.785150	0.012769
N96	N	0.982349	-0.833816	0.057334
H97	H	1.017999	-0.865271	0.092974
H98	H	0.514214	-0.136991	-0.110639
H99	H	0.789342	-0.223908	-0.206356
H100	H	1.023332	-0.000026	0.144430
H101	H	0.826687	-0.514805	-0.169073
H102	H	0.260116	-0.136990	-0.106590
H103	H	1.021040	-0.000014	0.287639
N104	N	1.028840	-0.000012	0.695036
N105	N	1.027708	-0.000011	0.765518
H106	H	1.077003	-0.000022	0.800603
