data_functionalizedCrystal
_audit_creation_method	'MofGen! by Chris Wilmer'
_symmetry_space_group_name_H-M	'P1'
_symmetry_Int_Tables_number	1
_symmetry_cell_setting	triclinic
loop_
_symmetry_equiv_pos_as_xyz
  x,y,z
_cell_length_a	12.827893
_cell_length_b	21.295417
_cell_length_c	12.827885
_cell_angle_alpha	90.038100
_cell_angle_beta	90.019272
_cell_angle_gamma	90.030477
loop_
_atom_site_label
_atom_site_type_symbol
_atom_site_fract_x
_atom_site_fract_y
_atom_site_fract_z
Zn1	Zn	1.597560	-0.250579	0.590788
Zn2	Zn	2.097560	0.249421	1.090788
Zn3	Zn	1.597408	-0.355861	0.416023
Zn4	Zn	2.097408	0.144139	0.916023
Zn5	Zn	1.422801	-0.250610	0.416062
Zn6	Zn	1.922801	0.249390	0.916062
Zn7	Zn	1.422740	-0.355814	0.590723
Zn8	Zn	1.922740	0.144186	1.090723
O9	O	1.510127	-0.303216	0.503399
O10	O	2.010127	0.196784	1.003399
O11	O	1.743776	-0.264552	0.567616
O12	O	2.243776	0.235448	1.067616
O13	O	1.574208	-0.341932	0.269792
O14	O	2.074208	0.158068	0.769792
O15	O	1.446072	-0.162516	0.439283
O16	O	1.946072	0.337484	0.939283
O17	O	1.743664	-0.341902	0.439217
O18	O	2.243664	0.158098	0.939217
O19	O	1.574467	-0.162494	0.567654
O20	O	2.074467	0.337506	1.067654
O21	O	1.445925	-0.264604	0.269821
O22	O	1.945925	0.235396	0.769821
O23	O	1.276557	-0.264559	0.439220
O24	O	1.776557	0.235441	0.939220
O25	O	1.445969	-0.341822	0.736968
O26	O	1.945969	0.158178	1.236968
O27	O	1.276512	-0.341852	0.567543
O28	O	1.776512	0.158148	1.067543
O29	O	1.574408	-0.264506	0.737016
O30	O	2.074408	0.235494	1.237016
O31	O	1.574149	-0.443944	0.439154
O32	O	2.074149	0.056056	0.939154
O33	O	1.445821	-0.443910	0.567505
O34	O	1.945821	0.056090	1.067505
C35	C	1.238617	-0.303204	0.503379
C36	C	1.738617	0.196796	1.003379
C37	C	1.122464	-0.303214	0.503396
C38	C	1.622464	0.196786	1.003396
C39	C	1.070685	-0.341521	0.566796
C40	C	1.570685	0.158479	1.066796
C41	C	0.950635	-0.341532	0.566814
C42	C	1.450635	0.158468	1.066814
C43	C	1.509990	-0.466768	0.503341
C44	C	2.009990	0.033232	1.003341
C45	C	1.510027	-0.536736	0.503351
C46	C	2.010027	-0.036736	1.003351
C47	C	1.576907	-0.569600	0.436587
C48	C	2.076907	-0.069600	0.936587
C49	C	1.576956	-0.635342	0.436611
C50	C	2.076956	-0.135342	0.936611
C51	C	1.510107	-0.668218	0.503387
C52	C	2.010107	-0.168218	1.003387
C53	C	1.443222	-0.635347	0.570165
C54	C	1.943222	-0.135347	1.070165
C55	C	1.443183	-0.569606	0.570147
C56	C	1.943183	-0.069606	1.070147
N57	N	1.418690	-0.771484	0.511347
N58	N	1.918690	-0.271484	1.011347
N59	N	1.418731	-0.833935	0.511358
N60	N	1.918731	-0.333935	1.011358
C61	C	1.510224	-0.866293	0.503447
C62	C	2.010224	-0.366293	1.003447
N63	N	1.601676	-0.833840	0.495504
N64	N	2.101676	-0.333840	0.995504
N65	N	1.601635	-0.771383	0.495488
N66	N	2.101635	-0.271383	0.995488
C67	C	1.510143	-0.739504	0.503415
C68	C	2.010143	-0.239504	1.003415
C69	C	1.577162	-0.970442	0.436705
C70	C	2.077162	-0.470442	0.936705
C71	C	1.577213	-1.036186	0.436736
C72	C	2.077213	-0.536186	0.936736
C73	C	1.443470	-1.036189	0.570284
C74	C	1.943470	-0.536189	1.070284
C75	C	1.443429	-0.970447	0.570259
C76	C	1.943429	-0.470447	1.070259
C77	C	1.510273	-0.937577	0.503464
C78	C	2.010273	-0.437577	1.003464
C79	C	1.782697	-0.303229	0.503420
C80	C	2.282697	0.196771	1.003420
C81	C	1.898851	-0.303234	0.503428
C82	C	2.398851	0.196766	1.003428
C83	C	1.510198	-0.303156	0.775969
C84	C	2.010198	0.196844	1.275969
C85	C	1.510229	-0.303130	0.892123
C86	C	2.010229	0.196870	1.392123
C87	C	1.510293	-0.139026	0.503480
C88	C	2.010293	0.360974	1.003480
C89	C	1.510364	-0.069058	0.503515
C90	C	2.010364	0.430942	1.003515
C91	C	1.510117	-0.303231	0.231889
C92	C	2.010117	0.196769	0.731889
C93	C	1.510289	-0.303079	0.115737
C94	C	2.010289	0.196921	0.615737
C95	C	1.573791	-0.264864	0.943931
C96	C	2.073791	0.235136	1.443931
C97	C	1.573824	-0.264837	1.063982
C98	C	2.073824	0.235163	1.563982
H99	H	0.943373	-0.270439	0.449143
H100	H	1.443373	0.229561	0.949143
Cl101	Cl	1.053697	-0.252586	0.419615
Cl102	Cl	1.553697	0.247414	0.919615
H103	H	1.389045	-1.062957	0.624660
H104	H	1.889045	-0.562957	1.124660
H105	H	1.115232	-0.374306	0.621065
H106	H	1.615232	0.125694	1.121065
Cl107	Cl	1.660955	-0.528281	0.352632
Cl108	Cl	2.160955	-0.028281	0.852632
H109	H	1.455828	-0.335866	0.936644
H110	H	1.955828	0.164134	1.436644
H111	H	1.631680	-1.062942	0.382371
H112	H	2.131680	-0.562942	0.882371
H113	H	1.388795	-0.662119	0.624536
H114	H	1.888795	-0.162119	1.124536
H115	H	0.906106	-0.374330	0.621090
H116	H	1.406106	0.125670	1.121090
Cl117	Cl	1.359342	-0.929130	0.654191
Cl118	Cl	1.859342	-0.429130	1.154191
Cl119	Cl	1.661037	-0.676665	0.352671
Cl120	Cl	2.161037	-0.176665	0.852671
Cl121	Cl	1.359098	-0.528289	0.654085
Cl122	Cl	1.859098	-0.028289	1.154085
Cl123	Cl	1.661192	-0.929117	0.352736
Cl124	Cl	2.161192	-0.429117	0.852736
H125	H	1.455871	-0.335844	1.071189
H126	H	1.955871	0.164156	1.571189
Cl127	Cl	1.657750	-0.214297	0.875202
Cl128	Cl	2.157750	0.285703	1.375202
Cl129	Cl	1.657852	-0.214257	1.132763
Cl130	Cl	2.157852	0.285743	1.632763
