data_functionalizedCrystal
_audit_creation_method	'MofGen! by Chris Wilmer'
_symmetry_space_group_name_H-M	'P1'
_symmetry_Int_Tables_number	1
_symmetry_cell_setting	triclinic
loop_
_symmetry_equiv_pos_as_xyz
  x,y,z
_cell_length_a	12.594517
_cell_length_b	21.295417
_cell_length_c	12.594509
_cell_angle_alpha	90.035198
_cell_angle_beta	90.021327
_cell_angle_gamma	90.029502
loop_
_atom_site_label
_atom_site_type_symbol
_atom_site_fract_x
_atom_site_fract_y
_atom_site_fract_z
Zn1	Zn	1.627166	-0.250594	0.601809
Zn2	Zn	1.627014	-0.355872	0.423808
Zn3	Zn	1.449170	-0.250621	0.423837
Zn4	Zn	1.449110	-0.355829	0.601738
O5	O	1.538115	-0.303229	0.512798
O6	O	1.776092	-0.264566	0.578214
O7	O	1.603385	-0.341940	0.274866
O8	O	1.472870	-0.162528	0.447487
O9	O	1.775980	-0.341914	0.447438
O10	O	1.603643	-0.162508	0.578242
O11	O	1.472723	-0.264612	0.274888
O12	O	1.300216	-0.264570	0.447419
O13	O	1.472767	-0.341839	0.750694
O14	O	1.300172	-0.341865	0.578122
O15	O	1.603585	-0.264524	0.750745
O16	O	1.603326	-0.443956	0.447370
O17	O	1.472621	-0.443924	0.578094
C18	C	1.261574	-0.303216	0.512767
C19	C	1.143269	-0.303226	0.512779
C20	C	1.074009	-0.261127	0.441825
C21	C	1.003175	-0.318547	0.415633
C22	C	1.003304	-0.245834	0.538989
C23	C	1.073993	-0.360676	0.486536
C24	C	1.074128	-0.287924	0.609937
C25	C	1.003326	-0.345384	0.583782
C26	C	1.537979	-0.466780	0.512744
C27	C	1.538019	-0.536748	0.512757
C28	C	1.606073	-0.569548	0.580889
C29	C	1.606111	-0.635290	0.580916
C30	C	1.538105	-0.668231	0.512790
C31	C	1.470037	-0.635424	0.444653
C32	C	1.469994	-0.569683	0.444636
N33	N	1.530063	-0.771497	0.419640
N34	N	1.530110	-0.833949	0.419659
C35	C	1.538229	-0.866306	0.512838
N36	N	1.546320	-0.833852	0.606001
N37	N	1.546278	-0.771395	0.605980
C38	C	1.538144	-0.739516	0.512801
C39	C	1.606328	-0.970390	0.581005
C40	C	1.606358	-1.036134	0.581033
C41	C	1.470290	-1.036266	0.444761
C42	C	1.470255	-0.970524	0.444742
C43	C	1.538279	-0.937590	0.512863
C44	C	1.815736	-0.303242	0.512830
C45	C	1.934041	-0.303247	0.512844
C46	C	1.538186	-0.303174	0.790419
C47	C	1.538217	-0.303150	0.908725
C48	C	1.538280	-0.139038	0.512876
C49	C	1.538351	-0.069070	0.512908
C50	C	1.538105	-0.303238	0.236257
C51	C	1.538281	-0.303084	0.117952
C52	C	1.467088	-0.345178	0.977950
C53	C	1.564202	-0.360559	1.048737
C54	C	1.441178	-0.287731	1.048737
C55	C	1.635382	-0.318561	0.977954
C56	C	1.512292	-0.245707	0.977947
C57	C	1.609474	-0.261066	1.048702
H58	H	1.105318	-0.274950	0.692049
C59	C	0.849877	-0.336332	0.306285
C60	C	0.961043	-0.335986	0.304752
H61	H	0.823857	-0.347083	0.237830
H62	H	0.824688	-0.295850	0.325445
H63	H	0.825695	-0.366308	0.356610
H64	H	0.985225	-0.306007	0.254433
H65	H	0.986241	-0.376475	0.285579
H66	H	1.414664	-0.662248	0.389187
H67	H	1.661460	-0.542735	0.636360
H68	H	1.359087	-0.274717	1.079829
C69	C	1.741350	-0.183946	1.004481
C70	C	1.690808	-0.213050	1.090380
H71	H	1.791570	-0.154308	1.030213
H72	H	1.690023	-0.163050	0.962025
H73	H	1.776752	-0.214742	0.962961
H74	H	1.655400	-0.182254	1.131896
H75	H	1.742143	-0.233946	1.132854
C76	C	1.177155	-0.167809	0.413216
C77	C	1.115917	-0.213113	0.360731
H78	H	1.203022	-0.138168	0.363150
H79	H	1.235317	-0.187626	0.447567
H80	H	1.134650	-0.146900	0.464513
H81	H	1.158425	-0.234025	0.309438
H82	H	1.057747	-0.193294	0.326362
C83	C	1.226900	-0.425615	0.456703
C84	C	1.115726	-0.426229	0.456510
H85	H	1.252663	-0.466083	0.438158
H86	H	1.251777	-0.414674	0.525475
H87	H	1.251656	-0.395679	0.406590
H88	H	1.090970	-0.456162	0.506628
H89	H	1.090839	-0.437178	0.387727
C90	C	0.997555	-0.453552	0.637154
C91	C	0.961678	-0.393509	0.664819
H92	H	0.971834	-0.483262	0.687177
H93	H	1.072965	-0.454041	0.637160
H94	H	0.972180	-0.464075	0.568366
H95	H	0.987060	-0.382983	0.733604
H96	H	0.886251	-0.393017	0.664824
C97	C	0.898614	-0.157012	0.486017
C98	C	0.961386	-0.180301	0.568884
H99	H	0.872746	-0.116552	0.504467
H100	H	0.840456	-0.184554	0.474171
H101	H	0.940079	-0.154125	0.423219
H102	H	0.919919	-0.183192	0.631682
H103	H	1.019553	-0.152752	0.580744
C104	C	1.621130	-1.109983	0.724251
C105	C	1.681170	-1.072187	0.655934
H106	H	1.667319	-1.132237	0.770495
H107	H	1.580639	-1.139007	0.683689
H108	H	1.574724	-1.084334	0.764912
H109	H	1.727570	-1.097837	0.615266
H110	H	1.721679	-1.043160	0.696500
C111	C	1.380868	-0.164167	0.971586
C112	C	1.482606	-0.180187	0.935921
H113	H	1.362532	-0.123720	0.945632
H114	H	1.380040	-0.163757	1.046994
H115	H	1.331033	-0.194157	0.946303
H116	H	1.532443	-0.150200	0.961210
H117	H	1.483442	-0.180593	0.860497
H118	H	1.586164	-0.409109	1.079832
C119	C	1.740601	-0.628562	0.715616
C120	C	1.680911	-0.671353	0.655822
H121	H	1.786779	-0.650826	0.761858
H122	H	1.694188	-0.602926	0.756272
H123	H	1.781331	-0.602922	0.669265
H124	H	1.640175	-0.696991	0.702173
H125	H	1.727330	-0.697001	0.615162
C126	C	1.335502	-0.576418	0.309941
C127	C	1.395190	-0.533626	0.369732
H128	H	1.289328	-0.554156	0.263693
H129	H	1.294779	-0.602057	0.356285
H130	H	1.381924	-0.602057	0.269280
H131	H	1.348768	-0.507990	0.410399
H132	H	1.435917	-0.507977	0.323382
C133	C	1.773564	-0.396135	0.972784
C134	C	1.746236	-0.336210	0.936171
H135	H	1.842001	-0.407030	0.946992
H136	H	1.722983	-0.425820	0.947986
H137	H	1.774257	-0.396193	1.048206
H138	H	1.745535	-0.336154	0.860748
H139	H	1.796830	-0.306518	0.960963
C140	C	1.740808	-0.976860	0.715726
C141	C	1.681078	-0.934184	0.655901
H142	H	1.786947	-0.954508	0.761970
H143	H	1.781571	-1.002498	0.669403
H144	H	1.694410	-1.002510	0.756392
H145	H	1.727476	-0.908537	0.615228
H146	H	1.640312	-0.908535	0.702230
C147	C	1.409932	-1.137098	0.384287
C148	C	1.395529	-1.072468	0.369882
H149	H	1.363775	-1.159448	0.338057
H150	H	1.394326	-1.147841	0.455784
H151	H	1.481463	-1.147838	0.368770
H152	H	1.323999	-1.061727	0.385406
H153	H	1.411128	-1.061720	0.298368
C154	C	1.335778	-0.977261	0.310038
C155	C	1.395460	-0.934467	0.369834
H156	H	1.289606	-0.954999	0.263787
H157	H	1.295053	-1.002900	0.356379
H158	H	1.382205	-1.002898	0.269380
H159	H	1.349034	-0.908832	0.410498
H160	H	1.436188	-0.908817	0.323487
H161	H	1.406983	-0.380775	0.946885
