data_functionalizedCrystal
_audit_creation_method	'MofGen! by Chris Wilmer'
_symmetry_space_group_name_H-M	'P1'
_symmetry_Int_Tables_number	1
_symmetry_cell_setting	triclinic
loop_
_symmetry_equiv_pos_as_xyz
  x,y,z
_cell_length_a	15.944551
_cell_length_b	14.421503
_cell_length_c	15.944493
_cell_angle_alpha	89.989835
_cell_angle_beta	83.486891
_cell_angle_gamma	90.003141
loop_
_atom_site_label
_atom_site_type_symbol
_atom_site_fract_x
_atom_site_fract_y
_atom_site_fract_z
O1	O	1.114507	0.077003	0.108323
O2	O	0.869954	0.077024	0.121680
O3	O	0.998934	0.077021	-0.007276
O4	O	0.985527	0.077006	0.237280
O5	O	0.998913	-0.077203	-0.007257
O6	O	0.869933	-0.077199	0.121699
O7	O	1.114485	-0.077221	0.108343
Cu8	Cu	0.992207	-0.091292	0.115023
Cu9	Cu	0.992232	0.091095	0.115000
O10	O	0.985506	-0.077217	0.237299
C11	C	0.838650	-0.000084	0.121135
C12	C	0.745404	-0.000076	0.119473
N13	N	0.992196	-0.219573	0.115038
C14	C	0.530565	-0.000089	0.035566
C15	C	0.469547	0.075949	0.074520
C16	C	0.574679	-0.000086	0.116465
C17	C	0.469548	-0.076103	0.074558
C18	C	0.409767	-0.000101	0.113555
C19	C	0.514889	0.076014	0.155442
C20	C	0.514897	-0.076106	0.155468
C21	C	0.453897	-0.000050	0.194481
C22	C	0.669681	-0.000077	0.118140
C23	C	0.314766	-0.000103	0.111886
C24	C	0.932545	-0.469225	0.174641
C25	C	1.008441	-0.531036	0.190949
C26	C	0.992216	-0.408734	0.115018
C27	C	0.916339	-0.531018	0.098730
C28	C	0.992229	-0.591456	0.115001
C29	C	1.068151	-0.469184	0.131364
C30	C	0.975998	-0.469161	0.039112
C31	C	1.051950	-0.530944	0.055388
C32	C	0.992207	-0.303473	0.115030
C33	C	0.992246	-0.696715	0.114988
C34	C	1.145790	-0.000110	0.108888
C35	C	1.239036	-0.000113	0.110550
C36	C	0.998375	-0.000087	-0.038562
C37	C	0.996733	-0.000075	-0.131810
N38	N	0.992251	0.219377	0.114978
C39	C	1.072653	-0.000099	-0.367570
C40	C	1.031722	0.075944	-0.418148
C41	C	0.993688	-0.000086	-0.302531
C42	C	1.031683	-0.076108	-0.418105
C43	C	0.990754	-0.000101	-0.467441
C44	C	0.952779	0.076020	-0.351881
C45	C	0.952751	-0.076101	-0.351834
C46	C	0.911763	-0.000039	-0.402379
C47	C	0.995381	-0.000077	-0.207531
C48	C	0.989055	-0.000104	-0.562438
C49	C	0.986064	-0.000107	0.268584
C50	C	0.987707	-0.000113	0.361833
H51	H	0.563912	0.000009	-0.031574
H52	H	0.534879	0.140369	0.189625
H53	H	0.919423	-0.140387	-0.322866
H54	H	0.449453	0.140238	0.040295
H55	H	0.420724	-0.000011	0.261690
H56	H	1.065038	-0.140393	-0.447028
H57	H	1.140671	-0.000029	-0.351942
H58	H	0.449460	-0.140385	0.040334
H59	H	0.535012	-0.140398	0.189665
H60	H	0.962246	-0.441962	-0.025052
H61	H	0.919459	0.140377	-0.323069
H62	H	0.882134	-0.442126	0.225102
H63	H	0.852166	-0.558181	0.084961
H64	H	0.843692	0.000009	-0.417845
H65	H	1.022171	-0.558213	0.255133
H66	H	1.132338	-0.442138	0.145209
H67	H	1.102473	-0.557873	0.004956
H68	H	1.065079	0.140228	-0.447101
