data_functionalizedCrystal
_audit_creation_method	'MofGen! by Chris Wilmer'
_symmetry_space_group_name_H-M	'P1'
_symmetry_Int_Tables_number	1
_symmetry_cell_setting	triclinic
loop_
_symmetry_equiv_pos_as_xyz
  x,y,z
_cell_length_a	19.077105
_cell_length_b	12.645330
_cell_length_c	19.076919
_cell_angle_alpha	87.723750
_cell_angle_beta	89.923776
_cell_angle_gamma	87.714233
loop_
_atom_site_label
_atom_site_type_symbol
_atom_site_fract_x
_atom_site_fract_y
_atom_site_fract_z
Zn1	Zn	1.058309	-0.512860	0.440444
Zn2	Zn	1.558309	-0.012860	0.940444
Zn3	Zn	1.062962	-0.683311	0.322946
Zn4	Zn	1.562962	-0.183311	0.822946
Zn5	Zn	0.945526	-0.498659	0.318237
Zn6	Zn	1.445526	0.001341	0.818237
Zn7	Zn	0.940784	-0.682672	0.435699
Zn8	Zn	1.440784	-0.182672	0.935699
O9	O	1.001896	-0.594376	0.379332
O10	O	1.501896	-0.094376	0.879332
O11	O	1.157259	-0.541682	0.428815
O12	O	1.657259	-0.041682	0.928815
O13	O	1.051316	-0.653141	0.223990
O14	O	1.551316	-0.153141	0.723990
O15	O	0.960524	-0.352199	0.334463
O16	O	1.460524	0.147801	0.834463
O17	O	1.160677	-0.666911	0.342490
O18	O	1.660677	-0.166911	0.842490
O19	O	1.043386	-0.362632	0.424248
O20	O	1.543386	0.137368	0.924248
O21	O	0.965036	-0.517478	0.220530
O22	O	1.465036	-0.017478	0.720530
O23	O	0.846565	-0.516858	0.329862
O24	O	1.346565	-0.016858	0.829862
O25	O	0.952442	-0.665822	0.534660
O26	O	1.452442	-0.165822	1.034660
O27	O	0.843081	-0.652051	0.416161
O28	O	1.343081	-0.152051	0.916161
O29	O	1.038788	-0.541062	0.538146
O30	O	1.538788	-0.041062	1.038146
O31	O	1.046718	-0.831570	0.337888
O32	O	1.546718	-0.331570	0.837888
O33	O	0.956954	-0.831101	0.420727
O34	O	1.456954	-0.331101	0.920727
C35	C	0.819326	-0.582845	0.371986
C36	C	1.319326	-0.082845	0.871986
C37	C	0.741222	-0.577939	0.368860
C38	C	1.241222	-0.077939	0.868860
C39	C	0.702735	-0.646120	0.412251
C40	C	1.202735	-0.146120	0.912251
C41	C	0.629348	-0.641496	0.409318
C42	C	1.129348	-0.141496	0.909318
C43	C	0.594448	-0.568695	0.362988
C44	C	1.094448	-0.068695	0.862988
C45	C	0.632940	-0.500507	0.319594
C46	C	1.132940	-0.000507	0.819594
C47	C	0.706326	-0.505126	0.322532
C48	C	1.206326	-0.005126	0.822532
C49	C	0.375159	-0.547316	0.349394
C50	C	0.875159	-0.047316	0.849394
C51	C	0.301768	-0.542704	0.346458
C52	C	0.801768	-0.042704	0.846458
C53	C	0.298181	-0.683692	0.436183
C54	C	0.798181	-0.183692	0.936183
C55	C	0.371569	-0.688309	0.439113
C56	C	0.871569	-0.188309	0.939113
C57	C	0.410054	-0.620117	0.395722
C58	C	0.910054	-0.120117	0.895722
N59	N	0.519434	-0.563970	0.359986
N60	N	1.019434	-0.063970	0.859986
N61	N	0.485066	-0.624839	0.398728
N62	N	0.985066	-0.124839	0.898728
C63	C	1.001845	-0.869801	0.379320
C64	C	1.501845	-0.369801	0.879320
C65	C	1.001886	-0.987635	0.379341
C66	C	1.501886	-0.487635	0.879341
C67	C	0.945633	-1.154972	0.431631
C68	C	1.445633	-0.654972	0.931631
C69	C	0.945363	-1.032385	0.431445
C70	C	1.445363	-0.532385	0.931445
C71	C	0.984820	-1.026659	0.304483
C72	C	1.484820	-0.526659	0.804483
C73	C	0.984477	-1.149256	0.304800
C74	C	1.484477	-0.649256	0.804800
C75	C	1.075561	-1.160522	0.401321
C76	C	1.575561	-0.660522	0.901321
C77	C	1.075039	-1.037980	0.402922
C78	C	1.575039	-0.537980	0.902922
C79	C	1.185178	-0.605952	0.386707
C80	C	1.685178	-0.105952	0.886707
C81	C	1.263281	-0.610885	0.389850
C82	C	1.763281	-0.110885	0.889850
C83	C	0.994567	-0.604955	0.562612
C84	C	1.494567	-0.104955	1.062612
C85	C	0.991444	-0.609463	0.640716
C86	C	1.491444	-0.109463	1.140716
C87	C	1.001965	-0.317876	0.379360
C88	C	1.501965	0.182124	0.879360
C89	C	1.001995	-0.200049	0.379372
C90	C	1.501995	0.299951	0.879372
C91	C	1.009236	-0.583764	0.196766
C92	C	1.509236	-0.083764	0.696766
C93	C	1.012495	-0.578966	0.118668
C94	C	1.512495	-0.078966	0.618668
C95	C	1.034930	-0.546628	0.679225
C96	C	1.534930	-0.046628	1.179225
C97	C	1.031987	-0.550859	0.752611
C98	C	1.531987	-0.050859	1.252611
C99	C	0.985561	-0.617932	0.787487
C100	C	1.485561	-0.117932	1.287487
C101	C	0.942070	-0.680769	0.748972
C102	C	1.442070	-0.180769	1.248972
C103	C	0.945010	-0.676531	0.675587
C104	C	1.445010	-0.176531	1.175587
C105	C	0.971944	-0.637565	1.006769
C106	C	1.471944	-0.137565	1.506769
C107	C	0.969009	-0.641800	1.080159
C108	C	1.469009	-0.141800	1.580159
C109	C	1.058925	-0.511889	1.083793
C110	C	1.558925	-0.011889	1.583793
C111	C	1.061864	-0.507662	1.010407
C112	C	1.561864	-0.007662	1.510407
C113	C	1.018371	-0.570495	0.971898
C114	C	1.518371	-0.070495	1.471898
N115	N	0.982553	-0.622261	0.862499
N116	N	1.482553	-0.122261	1.362499
N117	N	1.021376	-0.566159	0.896887
N118	N	1.521376	-0.066159	1.396887
H119	H	0.406485	-0.491797	0.314057
H120	H	0.906485	0.008203	0.814057
H121	H	0.598015	-0.697017	0.444651
H122	H	1.098015	-0.197017	0.944651
C123	C	0.594555	-0.420424	0.268633
C124	C	1.094555	0.079576	0.768633
H125	H	0.627989	-0.380473	0.243216
H126	H	1.127989	0.119527	0.743216
H127	H	0.567140	-0.457329	0.236823
H128	H	1.067140	0.042671	0.736823
H129	H	0.564864	-0.374048	0.294424
H130	H	1.064864	0.125952	0.794424
H131	H	0.955843	-1.188371	0.487220
H132	H	1.455843	-0.688371	0.987220
C133	C	0.409958	-0.768426	0.490049
C134	C	0.909958	-0.268426	0.990049
H135	H	0.459177	-0.761430	0.485570
H136	H	0.959177	-0.261430	0.985570
H137	H	0.396071	-0.755037	0.536809
H138	H	0.896071	-0.255037	1.036809
H139	H	0.398318	-0.838259	0.479170
H140	H	0.898318	-0.338259	0.979170
C141	C	0.913068	-0.979462	0.279471
C142	C	1.413068	-0.479462	0.779471
H143	H	0.893420	-0.935976	0.314540
H144	H	1.393420	-0.435976	0.814540
H145	H	0.918965	-0.938141	0.237353
H146	H	1.418965	-0.438141	0.737353
H147	H	0.882547	-1.035163	0.271106
H148	H	1.382547	-0.535163	0.771106
H149	H	0.737661	-0.449601	0.287201
H150	H	1.237661	0.050399	0.787201
C151	C	0.897178	-0.745648	0.633224
C152	C	1.397178	-0.245648	1.133224
H153	H	0.905572	-0.733510	0.584524
H154	H	1.405572	-0.233510	1.084524
H155	H	0.906958	-0.818219	0.645655
H156	H	1.406958	-0.318219	1.145655
H157	H	0.849485	-0.727835	0.643350
H158	H	1.349485	-0.227835	1.143350
H159	H	0.936539	-0.688744	0.975424
H160	H	1.436539	-0.188744	1.475424
H161	H	0.891372	-1.181699	0.417028
H162	H	1.391372	-0.681699	0.917028
H163	H	1.067399	-0.499695	0.783962
H164	H	1.567399	0.000305	1.283962
H165	H	1.117515	-1.189748	0.363295
H166	H	1.617515	-0.689748	0.863295
H167	H	0.266839	-0.739209	0.471510
H168	H	0.766839	-0.239209	0.971510
C169	C	0.871609	-0.987198	0.411482
C170	C	1.371609	-0.487198	0.911482
H171	H	0.871190	-0.912036	0.411307
H172	H	1.371190	-0.412036	0.911307
H173	H	0.859669	-1.009200	0.366135
H174	H	1.359669	-0.509200	0.866135
H175	H	0.838463	-1.012470	0.444700
H176	H	1.338463	-0.512470	0.944700
C177	C	0.741119	-0.726199	0.463216
C178	C	1.241119	-0.226199	0.963216
H179	H	0.707684	-0.766135	0.488643
H180	H	1.207684	-0.266135	0.988643
H181	H	0.770812	-0.772575	0.437433
H182	H	1.270812	-0.272575	0.937433
H183	H	0.768532	-0.689283	0.495027
H184	H	1.268532	-0.189283	0.995027
C185	C	0.263379	-0.462614	0.295497
C186	C	0.763379	0.037386	0.795497
H187	H	0.296809	-0.422655	0.270081
H188	H	0.796809	0.077345	0.770081
H189	H	0.235964	-0.499518	0.263687
H190	H	0.735964	0.000482	0.763687
H191	H	0.233687	-0.416245	0.321293
H192	H	0.733687	0.083755	0.821293
H193	H	0.930788	-1.173588	0.286552
H194	H	1.430788	-0.673588	0.786552
H195	H	1.094334	-0.460732	1.115154
H196	H	1.594334	0.039268	1.615154
C197	C	0.959296	-0.997024	0.506306
C198	C	1.459296	-0.497024	1.006306
H199	H	0.965171	-1.057622	0.537107
H200	H	1.465171	-0.557622	1.037107
H201	H	1.000644	-0.957595	0.506532
H202	H	1.500644	-0.457595	1.006532
H203	H	0.920649	-0.954053	0.521473
H204	H	1.420649	-0.454053	1.021473
H205	H	1.023908	-1.178854	0.264375
H206	H	1.523908	-0.678854	0.764375
H207	H	1.024702	-0.997486	0.264350
H208	H	1.524702	-0.497486	0.764350
H209	H	1.091711	-1.195605	0.455137
H210	H	1.591711	-0.695605	0.955137
H211	H	1.087964	-1.012952	0.458029
H212	H	1.587964	-0.512952	0.958029
H213	H	1.119004	-1.007870	0.367868
H214	H	1.619004	-0.507870	0.867868
H215	H	1.099671	-0.453047	0.982016
H216	H	1.599671	0.046953	1.482016
C217	C	1.085995	-0.472842	0.640868
C218	C	1.585995	0.027158	1.140868
H219	H	1.111466	-0.436018	0.674316
H220	H	1.611466	0.063982	1.174316
H221	H	1.117751	-0.513667	0.613468
H222	H	1.617751	-0.013667	1.113468
H223	H	1.060266	-0.423300	0.611165
H224	H	1.560266	0.076700	1.111165
H225	H	0.931202	-0.696421	1.108552
H226	H	1.431202	-0.196421	1.608552
H227	H	0.904267	-0.735377	0.777373
H228	H	1.404267	-0.235377	1.277373
