data_functionalizedCrystal
_audit_creation_method	'MofGen! by Chris Wilmer'
_symmetry_space_group_name_H-M	'P1'
_symmetry_Int_Tables_number	1
_symmetry_cell_setting	triclinic
loop_
_symmetry_equiv_pos_as_xyz
  x,y,z
_cell_length_a	16.974897
_cell_length_b	8.559649
_cell_length_c	15.455313
_cell_angle_alpha	92.289439
_cell_angle_beta	83.675220
_cell_angle_gamma	76.604300
loop_
_atom_site_label
_atom_site_type_symbol
_atom_site_fract_x
_atom_site_fract_y
_atom_site_fract_z
O1	O	1.044600	0.189691	-0.145377
O2	O	1.544600	0.689691	0.354623
O3	O	0.811943	0.217191	-0.129064
O4	O	1.311943	0.717191	0.370936
O5	O	0.948769	-0.029343	-0.138657
O6	O	1.448769	0.470657	0.361343
O7	O	0.907774	0.436225	-0.135784
O8	O	1.407774	0.936225	0.364216
O9	O	0.940948	-0.015303	0.006153
O10	O	1.440948	0.484697	0.506153
O11	O	0.804122	0.231231	0.015747
O12	O	1.304122	0.731231	0.515747
O13	O	1.036779	0.203731	-0.000567
O14	O	1.536779	0.703731	0.499433
Cu15	Cu	0.919737	0.218763	0.020812
Cu16	Cu	1.419737	0.718763	0.520812
Cu17	Cu	0.928986	0.202159	-0.150443
Cu18	Cu	1.428986	0.702159	0.349557
O19	O	0.899953	0.450265	0.009026
O20	O	1.399953	0.950265	0.509026
C21	C	0.778523	0.223422	-0.054590
C22	C	1.278523	0.723422	0.445410
C23	C	0.690595	0.221051	-0.048424
C24	C	1.190595	0.721051	0.451576
C25	C	0.653542	0.212288	-0.124458
C26	C	1.153542	0.712288	0.375542
C27	C	0.570920	0.210087	-0.118652
C28	C	1.070920	0.710087	0.381348
C29	C	0.525355	0.216637	-0.036812
C30	C	1.025355	0.716637	0.463188
C31	C	0.562413	0.225405	0.039227
C32	C	1.062413	0.725405	0.539227
C33	C	0.645032	0.227618	0.033420
C34	C	1.145032	0.727618	0.533420
C35	C	0.277804	0.210852	-0.010982
C36	C	0.777804	0.710852	0.489018
C37	C	0.195181	0.208633	-0.005181
C38	C	0.695181	0.708633	0.494819
C39	C	0.203693	0.193318	-0.163060
C40	C	0.703693	0.693318	0.336940
C41	C	0.286314	0.195522	-0.168860
C42	C	0.786314	0.695522	0.331140
C43	C	0.323364	0.204298	-0.092821
C44	C	0.823364	0.704298	0.407179
N45	N	0.440903	0.214382	-0.030876
N46	N	0.940903	0.714382	0.469124
N47	N	0.407813	0.206564	-0.098758
N48	N	0.907813	0.706564	0.401242
C49	C	0.947965	-0.081881	-0.066471
C50	C	1.447965	0.418119	0.433529
C51	C	0.957213	-0.259343	-0.067124
C52	C	1.457213	0.240657	0.432876
C53	C	1.070199	0.197500	-0.075043
C54	C	1.570199	0.697500	0.424957
C55	C	1.158128	0.199871	-0.081214
C56	C	1.658128	0.699871	0.418786
C57	C	0.900757	0.502802	-0.063162
C58	C	1.400757	1.002802	0.436838
C59	C	0.891510	0.680265	-0.062514
C60	C	1.391510	1.180265	0.437486
N61	N	0.913237	0.230440	0.141263
N62	N	1.413237	0.730440	0.641263
N63	N	0.935492	0.190469	-0.270895
N64	N	1.435492	0.690469	0.229105
C65	C	0.971381	0.125742	0.182581
C66	C	1.471381	0.625742	0.682581
C67	C	0.966473	0.134588	0.273733
C68	C	1.466473	0.634588	0.773733
C69	C	0.903422	0.248141	0.323566
C70	C	1.403422	0.748141	0.823566
C71	C	0.845272	0.352843	0.282242
C72	C	1.345272	0.852843	0.782242
C73	C	0.850179	0.343989	0.191092
C74	C	1.350179	0.843989	0.691092
C75	C	0.882248	0.286317	0.596632
C76	C	1.382248	0.786317	1.096632
C77	C	0.877348	0.295167	0.687788
C78	C	1.377348	0.795167	1.187788
C79	C	0.998548	0.076909	0.679272
C80	C	1.498548	0.576909	1.179272
C81	C	1.003451	0.068071	0.588121
C82	C	1.503451	0.568071	1.088121
C83	C	0.945299	0.172768	0.546805
C84	C	1.445299	0.672768	1.046805
N85	N	0.898405	0.257189	0.416738
N86	N	1.398405	0.757189	0.916738
N87	N	0.950314	0.163711	0.453635
N88	N	1.450314	0.663711	0.953635
H89	H	0.525306	0.230748	0.105863
H90	H	1.025306	0.730748	0.605863
Br91	Br	0.785958	-0.179635	-0.055108
Br92	Br	1.285958	0.320365	0.444892
H93	H	1.045892	-0.008333	0.712920
H94	H	1.545892	0.491667	1.212920
H95	H	0.826002	0.387642	0.728358
H96	H	1.326002	0.887642	1.228358
H97	H	0.834900	0.371569	0.563000
H98	H	1.334900	0.871569	1.063000
Br99	Br	0.771260	0.486076	0.135018
Br100	Br	1.271260	0.986076	0.635018
Br101	Br	0.759697	0.506943	0.349869
Br102	Br	1.259697	1.006943	0.849869
Br103	Br	0.133348	0.217482	0.105895
Br104	Br	0.633348	0.717482	0.605895
Br105	Br	0.695318	0.239525	0.136613
Br106	Br	1.195318	0.739525	0.636613
H107	H	1.020542	-0.343411	-0.071558
H108	H	1.520542	0.156589	0.428442
Br109	Br	1.056959	-0.028362	0.114960
Br110	Br	1.556959	0.471638	0.614960
Br111	Br	1.045381	-0.007509	0.329810
Br112	Br	1.545381	0.492491	0.829810
Br113	Br	0.328076	0.222766	0.092215
Br114	Br	0.828076	0.722766	0.592215
Br115	Br	1.089022	-0.086031	0.520489
Br116	Br	1.589022	0.413969	1.020489
H117	H	0.690636	0.206949	-0.191101
H118	H	1.190636	0.706949	0.308899
Br119	Br	0.348149	0.186614	-0.279932
Br120	Br	0.848149	0.686614	0.220068
H121	H	0.173517	0.186176	-0.224967
H122	H	0.673517	0.686176	0.275033
H123	H	0.540755	0.202951	-0.180566
H124	H	1.040755	0.702951	0.319434
