data_functionalizedCrystal
_audit_creation_method	'MofGen! by Chris Wilmer'
_symmetry_space_group_name_H-M	'P1'
_symmetry_Int_Tables_number	1
_symmetry_cell_setting	triclinic
loop_
_symmetry_equiv_pos_as_xyz
  x,y,z
_cell_length_a	12.837932
_cell_length_b	12.837942
_cell_length_c	11.295483
_cell_angle_alpha	94.530417
_cell_angle_beta	85.460332
_cell_angle_gamma	94.829322
loop_
_atom_site_label
_atom_site_type_symbol
_atom_site_fract_x
_atom_site_fract_y
_atom_site_fract_z
O1	O	1.408693	0.265796	-0.099027
O2	O	1.105559	0.252351	-0.099029
O3	O	1.250404	0.107507	-0.099021
O4	O	1.263848	0.410640	-0.099035
O5	O	1.237680	0.120208	0.099030
O6	O	1.092835	0.265051	0.099021
O7	O	1.395969	0.278497	0.099023
Cu8	Cu	1.243240	0.272933	0.117106
Cu9	Cu	1.258288	0.257914	-0.117111
O10	O	1.251124	0.423340	0.099015
C11	C	1.060128	0.254159	-0.000004
C12	C	0.943713	0.240614	-0.000004
C13	C	0.782686	0.127402	0.000003
C14	C	0.892069	0.140122	0.000002
C15	C	0.885965	0.328393	-0.000006
C16	C	0.776583	0.315673	-0.000005
C17	C	0.724947	0.215174	-0.000002
C18	C	0.615563	0.202454	-0.000010
C19	C	0.609461	0.390725	-0.000010
C20	C	0.718844	0.403445	-0.000011
C21	C	1.239500	0.074788	0.000004
C22	C	1.225956	-0.041627	0.000002
C23	C	1.388787	-0.266502	-0.000022
C24	C	1.376066	-0.375884	-0.000024
C25	C	1.187794	-0.369778	-0.000013
C26	C	1.200515	-0.260395	-0.000011
C27	C	1.301015	-0.208761	-0.000014
C28	C	1.313735	-0.099376	-0.000003
C29	C	1.125464	-0.093271	-0.000000
C30	C	1.112743	-0.202654	-0.000002
C31	C	1.441400	0.276688	-0.000004
C32	C	1.557816	0.290233	-0.000012
C33	C	1.262027	0.456059	-0.000012
C34	C	1.275572	0.572474	-0.000018
N35	N	1.232664	0.283497	0.281841
N36	N	1.268871	0.247343	-0.281847
C37	C	1.344999	0.171239	0.531137
C38	C	1.337015	0.179230	0.655801
C39	C	1.208705	0.307466	0.655833
C40	C	1.216690	0.299474	0.531170
C41	C	1.284840	0.231360	0.468826
C42	C	1.292830	0.223374	0.344161
C43	C	1.164515	0.351604	0.344196
C44	C	1.156531	0.359595	0.468859
H45	H	0.573523	0.120623	-0.000012
H46	H	1.395566	-0.057337	-0.000001
H47	H	1.030919	-0.244710	-0.000005
H48	H	0.928025	0.410215	0.000002
O49	O	0.553210	0.475885	0.000031
C50	C	0.445595	0.443110	-0.000007
H51	H	0.430865	0.362880	0.037500
H52	H	0.398378	0.502086	0.057477
H53	H	0.420523	0.437861	-0.095026
O54	O	0.732486	0.029792	-0.000211
C55	C	0.675965	0.010244	-0.102768
H56	H	0.711804	0.062903	-0.174457
H57	H	0.679630	-0.075363	-0.137202
H58	H	0.590757	0.027383	-0.079575
O59	O	1.090397	0.425896	0.529290
C60	C	1.119620	0.529266	0.498847
H61	H	1.165763	0.527342	0.408326
H62	H	1.046297	0.572733	0.494594
H63	H	1.170429	0.571310	0.569000
O64	O	1.090247	-0.420106	0.000039
C65	C	1.097850	-0.529034	-0.000002
H66	H	1.174608	-0.544190	0.037487
H67	H	1.029208	-0.564980	0.057497
H68	H	1.095881	-0.566012	-0.095019
O69	O	1.106230	0.410065	0.283539
C70	C	1.173301	0.475614	0.211447
H71	H	1.252292	0.440850	0.192749
H72	H	1.136861	0.482231	0.123796
H73	H	1.184986	0.556764	0.259500
O74	O	1.142562	0.373756	0.716267
C75	C	1.171769	0.477133	0.685836
H76	H	1.217916	0.475224	0.595318
H77	H	1.098438	0.520588	0.681585
H78	H	1.222569	0.519180	0.755996
H79	H	1.470617	-0.224460	-0.000013
H80	H	0.939076	0.068648	0.000007
H81	H	1.386001	0.130272	0.706531
H82	H	0.760900	0.485269	-0.000009
H83	H	1.447540	-0.422893	-0.000035
O84	O	1.040310	-0.037026	-0.000049
C85	C	1.073081	0.070593	-0.000014
H86	H	1.158127	0.080509	-0.037512
H87	H	1.021489	0.110432	-0.057508
H88	H	1.066128	0.107864	0.095003
O89	O	1.358900	0.157039	0.283677
C90	C	1.329676	0.053694	0.314209
H91	H	1.243610	0.047088	0.348481
H92	H	1.341778	-0.002932	0.232248
H93	H	1.380006	0.033358	0.386583
O94	O	1.411218	0.104996	0.470754
C95	C	1.462632	0.053669	0.552485
H96	H	1.413905	0.053915	0.641361
H97	H	1.472659	-0.030654	0.516461
H98	H	1.542905	0.096239	0.565722
