data_functionalizedCrystal
_audit_creation_method	'MofGen! by Chris Wilmer'
_symmetry_space_group_name_H-M	'P1'
_symmetry_Int_Tables_number	1
_symmetry_cell_setting	triclinic
loop_
_symmetry_equiv_pos_as_xyz
  x,y,z
_cell_length_a	19.288864
_cell_length_b	15.995350
_cell_length_c	18.366186
_cell_angle_alpha	89.995992
_cell_angle_beta	89.977106
_cell_angle_gamma	83.314311
loop_
_atom_site_label
_atom_site_type_symbol
_atom_site_fract_x
_atom_site_fract_y
_atom_site_fract_z
O1	O	0.921624	0.104451	-0.060780
O2	O	0.719400	0.118542	-0.060729
O3	O	0.826040	-0.010412	-0.060755
O4	O	0.814984	0.233405	-0.060754
O5	O	0.826022	-0.010418	0.060344
O6	O	0.719382	0.118535	0.060370
O7	O	0.921606	0.104445	0.060320
Zn8	Zn	0.820491	0.111489	0.079572
Zn9	Zn	0.820515	0.111498	-0.079982
O10	O	0.814966	0.233399	0.060346
C11	C	0.693513	0.118085	-0.000173
C12	C	0.616406	0.116724	-0.000154
C13	C	0.571906	0.192388	-0.000165
C14	C	0.499456	0.191110	-0.000173
C15	C	0.471508	0.114163	-0.000185
C16	C	0.516018	0.038489	-0.000170
C17	C	0.588467	0.039769	-0.000155
C18	C	0.363096	0.053676	-0.042636
C19	C	0.290648	0.052398	-0.042656
C20	C	0.248053	0.110209	-0.000229
C21	C	0.277912	0.169312	0.042208
C22	C	0.350361	0.170593	0.042224
C23	C	0.392951	0.112765	-0.000201
C24	C	0.124993	0.184492	-0.000248
C25	C	0.052542	0.183210	-0.000251
C26	C	0.069106	0.030587	-0.000255
C27	C	0.141556	0.031871	-0.000244
C28	C	0.169495	0.108826	-0.000244
C29	C	0.825574	-0.041608	-0.000207
C30	C	0.824203	-0.134553	-0.000211
C31	C	0.819282	-0.472282	-0.000207
C32	C	0.743335	-0.424562	-0.000460
C33	C	0.744706	-0.327877	-0.000187
C34	C	0.821723	-0.304731	-0.000209
C35	C	0.859173	-0.345953	0.068934
C36	C	0.857265	-0.442582	0.068992
C37	C	0.858854	-0.442939	-0.068721
C38	C	0.858836	-0.345993	-0.069635
C39	C	0.823107	-0.210039	-0.000208
C40	C	0.817901	-0.566975	-0.000203
C41	C	0.947492	0.104902	-0.000238
C42	C	1.024600	0.106263	-0.000262
C43	C	0.815432	0.264595	-0.000204
C44	C	0.816802	0.357540	-0.000206
N45	N	0.820480	0.111483	0.188463
N46	N	0.820531	0.111497	-0.188873
C47	C	0.867715	0.054410	0.226552
C48	C	0.867720	0.054407	0.302780
C49	C	0.820495	0.111490	0.340916
C50	C	0.773250	0.168567	0.302818
C51	C	0.773243	0.168564	0.226591
C52	C	0.811395	0.187781	0.461678
C53	C	0.811407	0.187785	0.537903
C54	C	0.820515	0.111500	0.576023
C55	C	0.829624	0.035208	0.537909
C56	C	0.829617	0.035204	0.461683
C57	C	0.820498	0.111500	0.423571
C58	C	0.867758	0.054419	0.696767
C59	C	0.867757	0.054414	0.772996
C60	C	0.773292	0.168582	0.773033
C61	C	0.773289	0.168579	0.696805
C62	C	0.820525	0.111499	0.658677
H63	H	0.177789	-0.029743	-0.000239
H64	H	0.266342	0.004277	-0.077214
H65	H	0.046352	-0.032065	-0.000310
N66	N	0.602032	0.275392	-0.000166
H67	H	0.585775	0.308530	0.044721
H68	H	0.654676	0.264662	-0.000184
H69	H	0.493259	-0.024162	-0.000189
N70	N	0.918678	-0.007160	0.655625
H71	H	0.949429	0.024731	0.623974
H72	H	0.948554	-0.043320	0.691361
H73	H	0.397772	0.006598	-0.077190
N74	N	0.824706	-0.308251	0.137120
H75	H	0.859960	-0.281015	0.166872
H76	H	0.784836	-0.264509	0.123326
H77	H	0.803994	0.249907	0.568929
H78	H	0.715055	-0.299903	0.049476
N79	N	0.801575	0.270068	0.420570
H80	H	0.843756	0.274900	0.388921
H81	H	0.758555	0.271982	0.389008
H82	H	0.837040	-0.026911	0.568945
H83	H	0.829941	-0.460783	0.120694
N84	N	0.636469	-0.041843	-0.000139
H85	H	0.607774	-0.090785	-0.000144
H86	H	0.666914	-0.044636	-0.045026
H87	H	0.715267	-0.299341	-0.049751
N88	N	0.933235	-0.325933	-0.075192
H89	H	0.943986	-0.289653	-0.032594
H90	H	0.965998	-0.379994	-0.074608
H91	H	0.243232	0.216387	0.076757
N92	N	0.703128	-0.448951	-0.066133
H93	H	0.733750	-0.491173	-0.096361
H94	H	0.660425	-0.474729	-0.049558
N95	N	0.918678	-0.007144	0.343871
H96	H	0.911515	0.001523	0.397946
H97	H	0.910665	-0.066524	0.330563
N98	N	0.722290	0.230125	0.185511
H99	H	0.730285	0.289529	0.198767
H100	H	0.729476	0.221391	0.131448
H101	H	0.837032	-0.026916	0.430654
H102	H	0.713107	-0.444044	0.048862
N103	N	0.931119	-0.485585	0.073132
H104	H	0.964769	-0.441745	0.074915
H105	H	0.936671	-0.521493	0.118457
H106	H	0.915755	-0.332041	0.071489
N107	N	0.825980	-0.470017	-0.138143
H108	H	0.785098	-0.501586	-0.125881
H109	H	0.809253	-0.418697	-0.168147
H110	H	0.016310	0.244828	-0.000256
H111	H	0.831456	-0.318639	-0.120785
N112	N	0.933027	-0.485284	-0.069363
H113	H	0.940988	-0.523293	-0.025514
H114	H	0.941330	-0.519756	-0.115272
H115	H	0.906177	0.007930	0.195510
H116	H	0.734798	0.215044	0.333872
N117	N	0.722352	0.230145	0.814157
H118	H	0.692425	0.266301	0.778457
H119	H	0.691654	0.198175	0.845797
N120	N	0.155135	0.267488	-0.000244
H121	H	0.115947	0.315229	-0.000246
H122	H	0.184811	0.271340	0.044653
H123	H	0.463217	0.252727	-0.000180
N124	N	0.918718	-0.007132	0.814082
H125	H	0.948645	-0.043283	0.778358
H126	H	0.949414	0.024855	0.845682
H127	H	0.734828	0.215057	0.665791
H128	H	0.374670	0.218714	0.076780
