data_functionalizedCrystal
_audit_creation_method	'MofGen! by Chris Wilmer'
_symmetry_space_group_name_H-M	'P1'
_symmetry_Int_Tables_number	1
_symmetry_cell_setting	triclinic
loop_
_symmetry_equiv_pos_as_xyz
  x,y,z
_cell_length_a	12.759394
_cell_length_b	21.395364
_cell_length_c	21.395355
_cell_angle_alpha	90.025677
_cell_angle_beta	89.985423
_cell_angle_gamma	89.991130
loop_
_atom_site_label
_atom_site_type_symbol
_atom_site_fract_x
_atom_site_fract_y
_atom_site_fract_z
Zn1	Zn	-0.418555	-0.957928	-0.354297
Zn2	Zn	-0.594220	-0.957860	-0.249527
Zn3	Zn	-0.418537	-0.853143	-0.249532
Zn4	Zn	-0.594175	-0.853141	-0.354265
O5	O	-0.506372	-0.905518	-0.301905
O6	O	-0.441884	-1.045597	-0.340411
O7	O	-0.570927	-0.943941	-0.161850
O8	O	-0.271519	-0.867073	-0.263445
O9	O	-0.570944	-1.045547	-0.263436
O10	O	-0.271532	-0.944058	-0.340416
O11	O	-0.441853	-0.867006	-0.161853
O12	O	-0.441809	-0.765465	-0.263414
O13	O	-0.570867	-0.867069	-0.441947
O14	O	-0.570850	-0.765464	-0.340361
O15	O	-0.441840	-0.944056	-0.441971
O16	O	-0.741235	-0.943939	-0.263405
O17	O	-0.741202	-0.867003	-0.340356
C18	C	-0.506323	-0.742730	-0.301885
C19	C	-0.506328	-0.673089	-0.301891
C20	C	-0.439292	-0.171319	-0.342045
C21	C	-0.439287	-0.236754	-0.342046
C22	C	-0.506372	-0.269451	-0.301907
C23	C	-0.573485	-0.236707	-0.261774
C24	C	-0.573495	-0.171273	-0.261778
C25	C	-0.514513	-0.373089	-0.245442
C26	C	-0.514495	-0.438522	-0.245436
C27	C	-0.506347	-0.471272	-0.301893
C28	C	-0.498194	-0.438581	-0.358358
C29	C	-0.498204	-0.373146	-0.358362
C30	C	-0.506369	-0.340403	-0.301898
C31	C	-0.439239	-0.574960	-0.342028
C32	C	-0.439241	-0.640397	-0.342030
C33	C	-0.573434	-0.640349	-0.261752
C34	C	-0.573436	-0.574913	-0.261755
C35	C	-0.506333	-0.542223	-0.301892
C36	C	-0.779339	-0.905480	-0.301890
C37	C	-0.896116	-0.905522	-0.301905
C38	C	-0.896097	-0.985695	-0.221836
C39	C	-0.950949	-1.025799	-0.181809
C40	C	-1.060671	-1.025835	-0.181826
C41	C	-1.115543	-0.985766	-0.221876
C42	C	-1.060692	-0.945663	-0.261903
C43	C	-0.950968	-0.945629	-0.261880
C44	C	-1.060710	-0.865493	-0.341974
C45	C	-0.950989	-0.865452	-0.341954
C46	C	-1.115583	-0.825424	-0.382023
C47	C	-1.060731	-0.785316	-0.422048
C48	C	-0.951003	-0.785281	-0.422029
C49	C	-0.896137	-0.825349	-0.381981
C50	C	-0.232339	-0.905573	-0.301934
C51	C	-0.115562	-0.905596	-0.301947
C52	C	-0.506351	-0.905570	-0.465329
C53	C	-0.506342	-0.905592	-0.534970
C54	C	-0.506409	-0.068941	-0.301922
C55	C	-0.506392	-0.138583	-0.301915
C56	C	-0.439155	-0.945677	-0.567696
C57	C	-0.439109	-0.945676	-0.633132
C58	C	-0.506270	-0.905597	-0.665838
C59	C	-0.573462	-0.865504	-0.633104
C60	C	-0.573498	-0.865502	-0.567670
C61	C	-0.600868	-0.900637	-0.769508
C62	C	-0.600834	-0.900644	-0.834941
C63	C	-0.506159	-0.905601	-0.867659
C64	C	-0.411515	-0.910565	-0.834937
C65	C	-0.411551	-0.910562	-0.769503
C66	C	-0.506238	-0.905595	-0.736791
C67	C	-0.438917	-0.945687	-0.971338
C68	C	-0.438870	-0.945682	-1.036775
C69	C	-0.573232	-0.865513	-1.036746
C70	C	-0.573270	-0.865515	-0.971311
C71	C	-0.506114	-0.905605	-0.938611
C72	C	-0.506317	-0.905502	-0.139118
C73	C	-0.506030	-0.905602	-0.069477
H74	H	-0.384642	-0.263413	-0.374724
C75	C	-0.775407	-0.985654	-0.221813
H76	H	-0.750583	-1.015262	-0.192232
H77	H	-0.750644	-0.945217	-0.210942
H78	H	-0.750535	-0.996470	-0.262252
C79	C	-1.121091	-0.741246	-0.466096
H80	H	-1.194292	-0.747012	-0.460373
H81	H	-1.103057	-0.750389	-0.508198
H82	H	-1.103174	-0.699143	-0.456881
H83	H	-0.491554	-0.465244	-0.404330
C84	C	-0.365278	-0.989770	-0.531730
H85	H	-0.325251	-1.013640	-0.560596
H86	H	-0.405487	-1.017060	-0.506215
H87	H	-0.319500	-0.965807	-0.506195
H88	H	-0.384392	-0.978317	-0.659783
H89	H	-0.334421	-0.914602	-0.861575
H90	H	-0.627987	-0.832877	-0.944664
C91	C	-0.890675	-0.741168	-0.466061
H92	H	-0.939073	-0.717310	-0.489911
H93	H	-0.847817	-0.765111	-0.493372
H94	H	-0.847929	-0.713858	-0.442062
C95	C	-0.647421	-0.821415	-0.531669
H96	H	-0.687421	-0.797547	-0.560517
H97	H	-0.607248	-0.794123	-0.506124
H98	H	-0.693222	-0.845383	-0.506162
C99	C	-0.523586	-0.474476	-0.183336
H100	H	-0.528497	-0.445601	-0.149716
H101	H	-0.463402	-0.500028	-0.177837
H102	H	-0.584521	-0.499972	-0.184141
C103	C	-0.890588	-1.069871	-0.137758
H104	H	-0.817386	-1.064104	-0.143474
H105	H	-0.908513	-1.111971	-0.146965
H106	H	-0.908620	-1.060719	-0.095653
H107	H	-0.677899	-0.896606	-0.861578
C108	C	-0.647273	-0.272671	-0.217620
H109	H	-0.637649	-0.316330	-0.223360
H110	H	-0.717888	-0.261951	-0.226718
H111	H	-0.631791	-0.261924	-0.175537
H112	H	-0.384229	-0.978328	-0.944713
C113	C	-0.365491	-0.135363	-0.386199
H114	H	-0.325533	-0.164235	-0.410103
H115	H	-0.319661	-0.109824	-0.362282
H116	H	-0.405756	-0.109852	-0.413464
H117	H	-1.204924	-0.825459	-0.382037
C118	C	-0.647339	-0.821417	-0.669075
H119	H	-0.687355	-0.797540	-0.640210
H120	H	-0.693111	-0.845376	-0.694613
H121	H	-0.607120	-0.794126	-0.694588
C122	C	-1.121009	-1.069946	-0.137797
H123	H	-1.072620	-1.093802	-0.113940
H124	H	-1.163763	-1.097248	-0.161794
H125	H	-1.163860	-1.045995	-0.110483
H126	H	-0.628063	-0.666970	-0.229074
C127	C	-0.489254	-0.337188	-0.420467
H128	H	-0.484407	-0.366060	-0.454093
H129	H	-0.428359	-0.311661	-0.419719
H130	H	-0.549494	-0.311666	-0.425910
H131	H	-0.806796	-0.825320	-0.381958
C132	C	-0.307451	-0.916012	-0.733510
H133	H	-0.251056	-0.918960	-0.762363
H134	H	-0.308837	-0.952327	-0.707996
H135	H	-0.298230	-0.880098	-0.707972
C136	C	-0.364961	-0.989778	-1.072774
H137	H	-0.324981	-1.013657	-1.043925
H138	H	-0.319158	-0.965825	-1.098288
H139	H	-0.405157	-1.017070	-1.098313
C140	C	-0.365446	-0.538998	-0.386185
H141	H	-0.325495	-0.567869	-0.410094
H142	H	-0.319611	-0.513461	-0.362270
H143	H	-0.405719	-0.513486	-0.413446
H144	H	-0.627905	-0.832873	-1.063375
C145	C	-0.365426	-0.676407	-0.386174
H146	H	-0.325459	-0.647564	-0.410073
H147	H	-0.405670	-0.701945	-0.413435
H148	H	-0.319590	-0.701922	-0.362244
H149	H	-0.677944	-0.896432	-0.742874
C150	C	-1.236234	-0.985812	-0.221904
H151	H	-1.261057	-0.956209	-0.251490
H152	H	-1.261117	-0.975006	-0.181468
H153	H	-1.260985	-1.026252	-0.232785
C154	C	-0.647241	-0.538899	-0.217611
H155	H	-0.637647	-0.495246	-0.223366
H156	H	-0.631770	-0.549600	-0.175527
H157	H	-0.717855	-0.549626	-0.226716
H158	H	-0.521152	-0.346429	-0.199465
H159	H	-0.628138	-0.144619	-0.229099
