data_functionalizedCrystal
_audit_creation_method	'MofGen! by Chris Wilmer'
_symmetry_space_group_name_H-M	'P1'
_symmetry_Int_Tables_number	1
_symmetry_cell_setting	triclinic
loop_
_symmetry_equiv_pos_as_xyz
  x,y,z
_cell_length_a	14.853569
_cell_length_b	15.995350
_cell_length_c	13.930277
_cell_angle_alpha	89.997676
_cell_angle_beta	89.994756
_cell_angle_gamma	83.563970
loop_
_atom_site_label
_atom_site_type_symbol
_atom_site_fract_x
_atom_site_fract_y
_atom_site_fract_z
O1	O	1.196220	0.109323	-0.079782
O2	O	0.933743	0.122344	-0.079793
O3	O	1.072157	-0.006046	-0.079786
O4	O	1.057807	0.237713	-0.079789
O5	O	1.072137	-0.006049	0.079875
O6	O	0.933724	0.122341	0.079869
O7	O	1.196201	0.109320	0.079880
Zn8	Zn	1.064959	0.115830	0.105224
Zn9	Zn	1.064985	0.115834	-0.105137
O10	O	1.057788	0.237710	0.079873
C11	C	0.900146	0.121752	0.000036
C12	C	0.800065	0.119984	0.000032
C13	C	1.071554	-0.037243	0.000043
C14	C	1.069775	-0.130195	0.000037
C15	C	0.763792	0.042888	0.000029
C16	C	0.742297	0.195418	0.000039
C17	C	0.648265	0.193759	0.000040
C18	C	0.611992	0.116663	0.000037
C19	C	0.669752	0.041226	0.000033
C20	C	0.590499	0.269195	0.000053
C21	C	0.496461	0.267538	0.000056
C22	C	0.460186	0.190441	0.000046
C23	C	0.517952	0.115001	0.000041
C24	C	0.481679	0.037905	0.000039
C25	C	0.539443	-0.037536	0.000027
C26	C	0.633477	-0.035871	0.000024
C27	C	0.366152	0.188777	0.000049
C28	C	0.387639	0.036244	0.000043
C29	C	1.063388	-0.467950	0.000040
C30	C	0.964813	-0.420631	-0.000322
C31	C	0.966591	-0.323939	0.000038
C32	C	1.066556	-0.300386	0.000038
C33	C	1.115166	-0.341408	0.091213
C34	C	1.112690	-0.438047	0.091290
C35	C	1.114748	-0.438399	-0.090276
C36	C	1.114725	-0.341454	-0.091481
C37	C	1.068352	-0.205686	0.000040
C38	C	1.061595	-0.562650	0.000045
C39	C	1.229798	0.109912	0.000048
C40	C	1.329880	0.111681	0.000046
C41	C	1.058390	0.268907	0.000042
C42	C	1.060169	0.361859	0.000041
N43	N	1.064949	0.115827	0.248790
N44	N	1.065003	0.115830	-0.248703
C45	C	1.003693	0.172663	0.701056
C46	C	1.126301	0.058999	0.701032
C47	C	1.126291	0.058996	0.600536
C48	C	1.064981	0.115828	0.550296
C49	C	1.003682	0.172663	0.600551
C50	C	1.187595	0.002168	0.550273
C51	C	1.187587	0.002164	0.449771
C52	C	1.126272	0.058993	0.399529
C53	C	1.064970	0.115829	0.449791
C54	C	1.003661	0.172661	0.399551
C55	C	0.942354	0.229495	0.449811
C56	C	0.942367	0.229492	0.550309
C57	C	1.126258	0.058995	0.299030
C58	C	1.003650	0.172662	0.299046
H59	H	0.358114	-0.026538	0.000035
N60	N	0.915590	-0.445226	0.081257
N61	N	0.835374	-0.414475	0.094150
H62	H	0.800614	-0.431838	0.151772
H63	H	1.187624	-0.326007	-0.096986
H64	H	0.680517	-0.097291	0.000016
N65	N	0.941035	0.230730	0.247731
N66	N	0.969631	0.282759	0.191651
H67	H	0.925411	0.323771	0.155410
H68	H	0.892454	0.275765	0.591237
N69	N	0.822802	-0.034162	0.000008
N70	N	0.906761	-0.032674	-0.000004
H71	H	0.948439	-0.087091	-0.000020
N72	N	1.188873	0.000920	0.247730
N73	N	1.244860	0.027519	0.191632
H74	H	1.289085	-0.013515	0.155420
N75	N	0.307137	0.265819	0.000049
N76	N	0.223179	0.264327	0.000044
H77	H	0.181498	0.318742	0.000041
N78	N	0.918651	-0.288345	-0.081953
N79	N	0.883640	-0.334909	-0.139842
H80	H	0.849776	-0.309775	-0.197749
N81	N	0.627538	0.347946	0.000073
N82	N	0.609844	0.398815	0.067385
H83	H	0.636006	0.454437	0.067400
H84	H	0.509898	-0.100308	0.000019
N85	N	1.207297	-0.323580	0.095458
N86	N	1.238232	-0.280337	0.031181
H87	H	1.303300	-0.267745	0.034175
H88	H	0.771836	0.258186	0.000047
N89	N	0.437474	0.344603	0.000069
N90	N	0.469874	0.413431	0.000075
H91	H	0.428214	0.467860	0.000082
H92	H	0.925421	-0.439208	-0.065705
H93	H	1.237505	-0.044113	0.408856
N94	N	0.918313	-0.289046	0.082168
N95	N	0.883205	-0.336117	0.139405
H96	H	0.849107	-0.311476	0.197415
N97	N	1.068201	-0.461052	0.176790
N98	N	1.039192	-0.405761	0.235990
H99	H	1.007770	-0.422004	0.296377
N100	N	1.188924	0.000938	0.752332
N101	N	1.243646	-0.049805	0.707447
H102	H	1.287875	-0.090815	0.743680
N103	N	0.941081	0.230724	0.752387
N104	N	0.942309	0.308121	0.741159
H105	H	0.898089	0.349128	0.777411
N106	N	1.205931	-0.478114	-0.091044
N107	N	1.257891	-0.466921	-0.022806
H108	H	1.322289	-0.494969	-0.023341
N109	N	1.203481	-0.478389	0.096492
N110	N	1.268468	-0.435145	0.100062
H111	H	1.332589	-0.463632	0.103744
H112	H	1.237516	-0.044099	0.591182
N113	N	1.072787	-0.305852	0.176324
N114	N	1.006794	-0.250312	0.170069
H115	H	0.976858	-0.225200	0.230177
H116	H	1.082527	-0.458975	-0.159381
N117	N	1.070190	-0.307256	-0.176092
N118	N	1.003225	-0.252838	-0.169092
H119	H	0.971769	-0.228681	-0.228847
N120	N	0.879743	0.287548	0.398472
N121	N	0.879756	0.287540	0.308741
H122	H	0.835540	0.328540	0.272478
