data_functionalizedCrystal
_audit_creation_method	'MofGen! by Chris Wilmer'
_symmetry_space_group_name_H-M	'P1'
_symmetry_Int_Tables_number	1
_symmetry_cell_setting	triclinic
loop_
_symmetry_equiv_pos_as_xyz
  x,y,z
_cell_length_a	21.395362
_cell_length_b	15.297327
_cell_length_c	21.395356
_cell_angle_alpha	99.650480
_cell_angle_beta	89.957023
_cell_angle_gamma	99.725883
loop_
_atom_site_label
_atom_site_type_symbol
_atom_site_fract_x
_atom_site_fract_y
_atom_site_fract_z
Zn1	Zn	0.914748	-0.358826	-0.397682
Zn2	Zn	1.248081	-0.025493	-0.064349
Zn3	Zn	1.581414	0.307840	0.268985
Zn4	Zn	0.896527	-0.509702	-0.311025
Zn5	Zn	1.229860	-0.176369	0.022308
Zn6	Zn	1.563194	0.156964	0.355642
Zn7	Zn	0.809956	-0.358892	-0.292891
Zn8	Zn	1.143290	-0.025559	0.040442
Zn9	Zn	1.476623	0.307774	0.373776
Zn10	Zn	0.791807	-0.509697	-0.415729
Zn11	Zn	1.125141	-0.176363	-0.082396
Zn12	Zn	1.458474	0.156970	0.250938
O13	O	0.853260	-0.434279	-0.354332
O14	O	1.186593	-0.100946	-0.020998
O15	O	1.519926	0.232387	0.312335
O16	O	1.000011	-0.378815	-0.386223
O17	O	1.333345	-0.045482	-0.052890
O18	O	1.666678	0.287852	0.280444
O19	O	0.885013	-0.489727	-0.220945
O20	O	1.218346	-0.156394	0.112388
O21	O	1.551680	0.176940	0.445721
O22	O	0.839078	-0.232629	-0.291650
O23	O	1.172411	0.100704	0.041684
O24	O	1.505744	0.434037	0.375017
O25	O	0.986625	-0.489663	-0.322557
O26	O	1.319958	-0.156329	0.010777
O27	O	1.653292	0.177004	0.344110
O28	O	0.916067	-0.232581	-0.368639
O29	O	1.249401	0.100753	-0.035306
O30	O	1.582734	0.434086	0.298028
O31	O	0.821410	-0.378928	-0.207622
O32	O	1.154743	-0.045594	0.125711
O33	O	1.488077	0.287739	0.459044
O34	O	0.719868	-0.378922	-0.309150
O35	O	1.053201	-0.045589	0.024184
O36	O	1.386534	0.287744	0.357517
O37	O	0.808146	-0.489653	-0.501009
O38	O	1.141479	-0.156320	-0.167676
O39	O	1.474812	0.177013	0.165657
O40	O	0.706534	-0.489717	-0.399398
O41	O	1.039867	-0.156384	-0.066065
O42	O	1.373201	0.176949	0.267269
O43	O	0.898469	-0.378809	-0.487750
O44	O	1.231803	-0.045476	-0.154417
O45	O	1.565136	0.287857	0.178916
O46	O	0.867415	-0.635956	-0.340056
O47	O	1.200748	-0.302622	-0.006723
O48	O	1.534082	0.030711	0.326610
O49	O	0.790478	-0.635952	-0.416982
O50	O	1.123811	-0.302618	-0.083649
O51	O	1.457145	0.030715	0.249685
C52	C	0.690466	-0.434327	-0.354265
C53	C	1.023799	-0.100994	-0.020932
C54	C	1.357133	0.232340	0.312402
C55	C	0.620820	-0.434369	-0.354254
C56	C	0.954153	-0.101036	-0.020920
C57	C	1.287486	0.232297	0.312413
C58	C	0.581171	-0.492137	-0.401195
C59	C	0.914504	-0.158803	-0.067862
C60	C	1.247838	0.174530	0.265471
C61	C	0.515738	-0.492115	-0.401221
C62	C	0.849072	-0.158781	-0.067887
C63	C	1.182405	0.174552	0.265446
C64	C	0.489956	-0.434334	-0.354294
C65	C	0.823289	-0.101001	-0.020961
C66	C	1.156622	0.232332	0.312373
C67	C	0.529614	-0.376556	-0.307348
C68	C	0.862947	-0.043222	0.025985
C69	C	1.196280	0.290111	0.359318
C70	C	0.595046	-0.376573	-0.307328
C71	C	0.928379	-0.043240	0.026005
C72	C	1.261712	0.290094	0.359339
C73	C	0.387103	-0.427079	-0.297018
C74	C	0.720437	-0.093746	0.036316
C75	C	1.053770	0.239587	0.369649
C76	C	0.321672	-0.427068	-0.297037
C77	C	0.655005	-0.093735	0.036296
C78	C	0.988339	0.239599	0.369629
C79	C	0.288142	-0.434276	-0.354356
C80	C	0.621475	-0.100942	-0.021023
C81	C	0.954809	0.232391	0.312310
C82	C	0.320050	-0.441513	-0.411659
C83	C	0.653383	-0.108180	-0.078326
C84	C	0.986716	0.225154	0.255008
C85	C	0.385482	-0.441530	-0.411639
C86	C	0.718815	-0.108197	-0.078306
C87	C	1.052148	0.225136	0.255028
C88	C	0.419006	-0.434309	-0.354311
C89	C	0.752340	-0.100975	-0.020978
C90	C	1.085673	0.232358	0.312356
C91	C	0.177543	-0.492022	-0.401329
C92	C	0.510877	-0.158689	-0.067996
C93	C	0.844210	0.174644	0.265338
C94	C	0.112110	-0.491994	-0.401355
C95	C	0.445443	-0.158660	-0.068021
C96	C	0.778777	0.174673	0.265312
C97	C	0.125986	-0.376440	-0.307477
C98	C	0.459320	-0.043106	0.025856
C99	C	0.792653	0.290227	0.359189
C100	C	0.191419	-0.376463	-0.307457
C101	C	0.524752	-0.043130	0.025877
C102	C	0.858085	0.290203	0.359210
C103	C	0.217193	-0.434259	-0.354382
C104	C	0.550526	-0.100926	-0.021049
C105	C	0.883859	0.232407	0.312284
C106	C	0.825017	-0.668690	-0.382459
C107	C	1.158350	-0.335357	-0.049126
C108	C	1.491684	-0.002023	0.284208
C109	C	0.812992	-0.768972	-0.394513
C110	C	1.146325	-0.435638	-0.061179
C111	C	1.479659	-0.102305	0.272154
C112	C	0.939462	-1.051533	-0.268395
C113	C	1.272796	-0.718199	0.064939
C114	C	1.606129	-0.384866	0.398272
C115	C	0.950760	-0.957313	-0.257066
C116	C	1.284093	-0.623979	0.076267
C117	C	1.617427	-0.290646	0.409600
C118	C	0.916319	-0.910223	-0.291427
C119	C	1.249653	-0.576890	0.041906
C120	C	1.582986	-0.243556	0.375240
C121	C	0.870578	-0.957362	-0.337118
C122	C	1.203912	-0.624029	-0.003785
C123	C	1.537245	-0.290695	0.329549
C124	C	0.859276	-1.051591	-0.348444
C125	C	1.192609	-0.718258	-0.015111
C126	C	1.525943	-0.384924	0.318223
C127	C	0.836133	-0.910281	-0.371476
C128	C	1.169466	-0.576948	-0.038143
C129	C	1.502799	-0.243615	0.295190
C130	C	0.790392	-0.957420	-0.417167
C131	C	1.123725	-0.624087	-0.083834
C132	C	1.457059	-0.290754	0.249499
C133	C	0.779092	-1.051640	-0.428491
C134	C	1.112425	-0.718307	-0.095158
C135	C	1.445759	-0.384973	0.238175
C136	C	0.813533	-1.098730	-0.394131
C137	C	1.146866	-0.765397	-0.060797
C138	C	1.480199	-0.432063	0.272536
C139	C	0.847435	-0.816052	-0.360150
C140	C	1.180769	-0.482719	-0.026817
C141	C	1.514102	-0.149386	0.306516
C142	C	0.767249	-0.816111	-0.440200
C143	C	1.100582	-0.482777	-0.106866
C144	C	1.433915	-0.149444	0.226467
C145	C	0.755951	-0.910330	-0.451528
C146	C	1.089284	-0.576997	-0.118195
C147	C	1.422618	-0.243664	0.215139
C148	C	1.016689	-0.434232	-0.354399
C149	C	1.350022	-0.100899	-0.021066
C150	C	1.683355	0.232435	0.312267
C151	C	1.086332	-0.434212	-0.354428
C152	C	1.419666	-0.100879	-0.021095
C153	C	1.752999	0.232455	0.312238
C154	C	0.853316	-0.434223	-0.517748
C155	C	1.186649	-0.100890	-0.184415
C156	C	1.519982	0.232443	0.148918
C157	C	0.853339	-0.434200	-0.587387
C158	C	1.186673	-0.100866	-0.254054
C159	C	1.520006	0.232467	0.079280
C160	C	0.881630	-0.198953	-0.326109
C161	C	1.214963	0.134380	0.007225
C162	C	1.548296	0.467713	0.340558
C163	C	0.893719	-0.098672	-0.314081
C164	C	1.227052	0.234662	0.019252
C165	C	1.560386	0.567995	0.352585
C166	C	0.820233	-0.376500	-0.613152
C167	C	1.153566	-0.043167	-0.279819
C168	C	1.486899	0.290167	0.053515
C169	C	0.820233	-0.376483	-0.678586
C170	C	1.153566	-0.043150	-0.345252
C171	C	1.486899	0.290183	-0.011919
C172	C	0.853352	-0.434157	-0.718250
C173	C	1.186685	-0.100823	-0.384917
C174	C	1.520018	0.232510	-0.051583
C175	C	0.886460	-0.491868	-0.692478
C176	C	1.219793	-0.158534	-0.359145
C177	C	1.553126	0.174799	-0.025812
C178	C	0.886454	-0.491889	-0.627047
C179	C	1.219787	-0.158556	-0.293713
C180	C	1.553120	0.174778	0.039620
C181	C	0.908954	-0.441227	-0.822805
C182	C	1.242287	-0.107894	-0.489471
C183	C	1.575621	0.225439	-0.156138
C184	C	0.908962	-0.441200	-0.888234
C185	C	1.242295	-0.107866	-0.554901
C186	C	1.575629	0.225467	-0.221568
C187	C	0.853369	-0.434096	-0.920064
C188	C	1.186702	-0.100762	-0.586730
C189	C	1.520036	0.232571	-0.253397
C190	C	0.797769	-0.427001	-0.886453
C191	C	1.131102	-0.093667	-0.553120
C192	C	1.464436	0.239666	-0.219786
C193	C	0.797763	-0.427022	-0.821021
C194	C	1.131096	-0.093689	-0.487688
C195	C	1.464430	0.239644	-0.154355
C196	C	0.853361	-0.434140	-0.789201
C197	C	1.186695	-0.100807	-0.455867
C198	C	1.520028	0.232526	-0.122534
C199	C	0.820259	-0.376375	-1.016779
C200	C	1.153593	-0.043042	-0.683446
C201	C	1.486926	0.290292	-0.350112
C202	C	0.820257	-0.376364	-1.082214
C203	C	1.153591	-0.043031	-0.748881
C204	C	1.486924	0.290302	-0.415548
C205	C	0.886491	-0.491744	-1.096105
C206	C	1.219824	-0.158411	-0.762772
C207	C	1.553157	0.174923	-0.429439
C208	C	0.886486	-0.491759	-1.030672
C209	C	1.219820	-0.158426	-0.697338
C210	C	1.553153	0.174907	-0.364005
C211	C	0.853372	-0.434070	-0.991012
C212	C	1.186706	-0.100736	-0.657679
C213	C	1.520039	0.232597	-0.324345
C214	C	0.853248	-0.434270	-0.191543
C215	C	1.186581	-0.100937	0.141790
C216	C	1.519914	0.232397	0.475124
C217	C	0.853376	-0.434040	-0.121875
C218	C	1.186709	-0.100706	0.211459
C219	C	1.520042	0.232627	0.544792
H220	H	0.411459	-0.447421	-0.458297
H221	H	0.744792	-0.114087	-0.124963
H222	H	1.078125	0.219246	0.208370
H223	H	0.741839	-1.090018	-0.465689
H224	H	1.075173	-0.756685	-0.132355
H225	H	1.408506	-0.423352	0.200978
H226	H	0.627329	-0.329529	-0.269102
H227	H	0.960662	0.003804	0.064231
H228	H	1.293995	0.337138	0.397565
H229	H	0.508618	-0.329509	-0.269141
H230	H	0.841951	0.003824	0.064192
H231	H	1.175284	0.337158	0.397525
H232	H	0.925520	-0.833505	-0.282200
H233	H	1.258853	-0.500172	0.051133
H234	H	1.592187	-0.166838	0.384467
H235	H	0.884678	-0.777680	-0.322948
H236	H	1.218011	-0.444347	0.010385
H237	H	1.551344	-0.111013	0.343718
H238	H	0.804338	-1.175452	-0.403353
H239	H	1.137671	-0.842118	-0.070020
H240	H	1.471005	-0.508785	0.263313
H241	H	0.954235	-0.446972	-0.915595
H242	H	1.287569	-0.113639	-0.582261
H243	H	1.620902	0.219694	-0.248928
H244	H	0.967495	-1.089882	-0.240419
H245	H	1.300829	-0.756548	0.092914
H246	H	1.634162	-0.423215	0.426247
H247	H	0.198530	-0.539079	-0.439541
H248	H	0.531863	-0.205745	-0.106208
H249	H	0.865197	0.127588	0.227125
H250	H	0.295697	-0.421181	-0.250379
H251	H	0.629030	-0.087847	0.082955
H252	H	0.962364	0.245486	0.416288
H253	H	0.793293	-0.329381	-1.103191
H254	H	1.126626	0.003952	-0.769857
H255	H	1.459960	0.337286	-0.436524
H256	H	0.988001	-0.918936	-0.219865
H257	H	1.321335	-0.585602	0.113469
H258	H	1.654668	-0.252269	0.446802
H259	H	0.414399	-0.421206	-0.250338
H260	H	0.747732	-0.087873	0.082995
H261	H	1.081065	0.245460	0.416329
H262	H	0.104995	-0.329390	-0.269271
H263	H	0.438329	0.003944	0.064062
H264	H	0.771662	0.337277	0.397395
H265	H	0.483450	-0.539155	-0.439448
H266	H	0.816783	-0.205822	-0.106115
H267	H	1.150117	0.127511	0.227218
H268	H	0.079828	-0.539033	-0.439584
H269	H	0.413162	-0.205700	-0.106250
H270	H	0.746495	0.127633	0.227083
H271	H	0.739203	-0.777771	-0.468178
H272	H	1.072536	-0.444437	-0.134845
H273	H	1.405869	-0.111104	0.198489
H274	H	0.718708	-0.948724	-0.488730
H275	H	1.052041	-0.615391	-0.155396
H276	H	1.385375	-0.282058	0.177937
H277	H	0.292751	-0.447380	-0.458334
H278	H	0.626085	-0.114047	-0.125000
H279	H	0.959418	0.219286	0.208333
H280	H	0.223701	-0.329427	-0.269229
H281	H	0.557035	0.003906	0.064104
H282	H	0.890368	0.337240	0.397437
H283	H	0.913458	-0.538701	-1.128399
H284	H	1.246791	-0.205368	-0.795066
H285	H	1.580125	0.127965	-0.461733
H286	H	0.793266	-0.329528	-0.580865
H287	H	1.126599	0.003805	-0.247532
H288	H	1.459933	0.337139	0.085802
H289	H	0.793275	-0.329493	-0.699567
H290	H	1.126608	0.003841	-0.366234
H291	H	1.459942	0.337174	-0.032901
H292	H	0.752491	-0.421247	-0.793658
H293	H	1.085825	-0.087914	-0.460325
H294	H	1.419158	0.245420	-0.126992
H295	H	0.752501	-0.421210	-0.912366
H296	H	1.085834	-0.087877	-0.579033
H297	H	1.419168	0.245457	-0.245699
H298	H	0.793295	-0.329401	-0.984486
H299	H	1.126629	0.003932	-0.651153
H300	H	1.459962	0.337265	-0.317819
H301	H	0.913447	-0.538742	-1.009694
H302	H	1.246780	-0.205409	-0.676361
H303	H	1.580114	0.127924	-0.343027
H304	H	0.954229	-0.447005	-0.796894
H305	H	1.287563	-0.113671	-0.463561
H306	H	1.620896	0.219662	-0.130227
H307	H	0.602152	-0.539198	-0.439407
H308	H	0.935485	-0.205864	-0.106073
H309	H	1.268818	0.127469	0.227260
H310	H	0.913425	-0.538826	-0.724778
H311	H	1.246758	-0.205493	-0.391444
H312	H	1.580092	0.127841	-0.058111
H313	H	0.913416	-0.538874	-0.606070
H314	H	1.246749	-0.205541	-0.272736
H315	H	1.580082	0.127793	0.060597
