data_functionalizedCrystal
_audit_creation_method	'MofGen! by Chris Wilmer'
_symmetry_space_group_name_H-M	'P1'
_symmetry_Int_Tables_number	1
_symmetry_cell_setting	triclinic
loop_
_symmetry_equiv_pos_as_xyz
  x,y,z
_cell_length_a	29.839134
_cell_length_b	16.994747
_cell_length_c	29.839125
_cell_angle_alpha	89.991363
_cell_angle_beta	90.021980
_cell_angle_gamma	90.005924
loop_
_atom_site_label
_atom_site_type_symbol
_atom_site_fract_x
_atom_site_fract_y
_atom_site_fract_z
Zn1	Zn	0.686814	-0.314247	0.254207
Zn2	Zn	0.686786	-0.446127	0.179112
Zn3	Zn	0.611697	-0.314229	0.179077
Zn4	Zn	0.611685	-0.446101	0.254200
O5	O	0.649246	-0.380176	0.216649
O6	O	0.749678	-0.331759	0.244263
O7	O	0.676819	-0.428635	0.116240
O8	O	0.621679	-0.203850	0.189031
O9	O	0.749657	-0.428651	0.189091
O10	O	0.676867	-0.203863	0.244230
O11	O	0.621651	-0.331730	0.116214
O12	O	0.548828	-0.331704	0.189025
O13	O	0.621657	-0.428606	0.317068
O14	O	0.548819	-0.428589	0.244217
O15	O	0.676855	-0.331734	0.317074
O16	O	0.676807	-0.556505	0.189084
O17	O	0.621630	-0.556486	0.244251
C18	C	0.532523	-0.380143	0.216617
C19	C	0.482589	-0.380147	0.216613
C20	C	0.649220	-0.585116	0.216669
C21	C	0.649223	-0.674438	0.216668
Zn22	Zn	0.611710	-0.945316	0.179064
Zn23	Zn	0.686834	-0.945312	0.254188
Zn24	Zn	0.611700	-0.813493	0.254193
Zn25	Zn	0.686795	-0.813382	0.179097
O26	O	0.649260	-0.879376	0.216635
O27	O	0.621696	-1.055697	0.189014
O28	O	0.676880	-0.927870	0.317055
O29	O	0.548834	-0.831028	0.244215
O30	O	0.676890	-1.055693	0.244206
O31	O	0.548842	-0.927877	0.189019
O32	O	0.621679	-0.831024	0.317059
O33	O	0.621641	-0.703097	0.244247
O34	O	0.676822	-0.830839	0.116226
O35	O	0.676812	-0.703016	0.189075
O36	O	0.621658	-0.927770	0.116202
O37	O	0.749696	-0.927763	0.244238
O38	O	0.749667	-0.830835	0.189070
C39	C	0.172950	-0.430699	0.245353
C40	C	-0.014723	-0.430721	0.245373
O41	O	-0.038984	-0.473665	0.269789
N42	N	-0.038196	-0.380205	0.216683
C43	C	-0.014749	-0.329676	0.187988
O44	O	-0.039020	-0.286704	0.163589
C45	C	0.172924	-0.329650	0.187971
C46	C	0.196395	-0.380176	0.216659
C47	C	0.196421	-0.481219	0.274039
C48	C	0.243337	-0.481216	0.274032
C49	C	0.266781	-0.430693	0.245339
C50	C	0.243310	-0.380172	0.216652
C51	C	0.196371	-0.279118	0.159279
C52	C	0.243292	-0.279115	0.159278
C53	C	0.266762	-0.329640	0.187966
C54	C	0.313670	-0.329646	0.187952
N55	N	0.337143	-0.380162	0.216642
C56	C	0.313699	-0.430686	0.245335
C57	C	-0.113279	-0.329694	0.187999
C58	C	-0.160197	-0.329701	0.188002
C59	C	-0.160168	-0.430746	0.245388
C60	C	-0.113250	-0.430742	0.245381
C61	C	-0.089806	-0.380210	0.216688
C62	C	0.412225	-0.430676	0.245318
C63	C	0.459144	-0.430671	0.245307
C64	C	0.459111	-0.329624	0.187924
C65	C	0.412196	-0.329632	0.187933
C66	C	0.388754	-0.380160	0.216633
O67	O	0.337960	-0.286719	0.163552
O68	O	0.337979	-0.473639	0.269737
C69	C	0.126035	-0.430702	0.245360
C70	C	0.102564	-0.380182	0.216673
C71	C	0.126008	-0.329658	0.187980
C72	C	0.055646	-0.380189	0.216677
C73	C	0.032201	-0.430712	0.245371
C74	C	0.055675	-0.481228	0.274060
C75	C	0.102590	-0.481225	0.274053
C76	C	0.102535	-0.279142	0.159290
C77	C	0.055619	-0.279150	0.159299
C78	C	0.032175	-0.329673	0.187992
C79	C	0.766424	-0.380210	0.216682
C80	C	0.816358	-0.380225	0.216696
C81	C	0.649258	-0.380169	0.333827
C82	C	0.649263	-0.380166	0.383762
C83	C	0.649274	-0.174436	0.216626
C84	C	0.649288	-0.085114	0.216617
C85	C	0.649259	-0.380126	0.099927
C86	C	0.649341	-0.379907	0.049992
C87	C	0.678035	-0.329592	0.693411
C88	C	0.678057	-0.329525	0.881084
O89	O	0.702486	-0.286600	0.905354
N90	N	0.649323	-0.379955	0.904547
C91	C	0.620579	-0.430401	0.881089
O92	O	0.596136	-0.473287	0.905352
C93	C	0.620554	-0.430464	0.693417
C94	C	0.649294	-0.380037	0.669956
C95	C	0.706771	-0.279168	0.669951
C96	C	0.706767	-0.279189	0.623035
C97	C	0.678026	-0.329633	0.599580
C98	C	0.649290	-0.380057	0.623041
C99	C	0.591809	-0.480906	0.669959
C100	C	0.591804	-0.480916	0.623038
C101	C	0.620544	-0.430488	0.599578
C102	C	0.620545	-0.430521	0.552670
N103	N	0.649279	-0.380092	0.529207
C104	C	0.678020	-0.329648	0.552662
C105	C	0.620594	-0.430366	0.979620
C106	C	0.620601	-0.430351	1.026537
C107	C	0.678078	-0.329474	1.026530
C108	C	0.678074	-0.329493	0.979611
C109	C	0.649328	-0.379936	0.956157
C110	C	0.678009	-0.329695	0.454136
C111	C	0.678004	-0.329722	0.407217
C112	C	0.620525	-0.430596	0.407229
C113	C	0.620531	-0.430572	0.454144
C114	C	0.649275	-0.380115	0.477597
O115	O	0.596125	-0.473418	0.528372
O116	O	0.702452	-0.286755	0.528391
C117	C	0.678039	-0.329572	0.740327
C118	C	0.649302	-0.379996	0.763787
C119	C	0.620561	-0.430440	0.740332
C120	C	0.649309	-0.379981	0.810705
C121	C	0.678049	-0.329537	0.834160
C122	C	0.706784	-0.279107	0.810697
C123	C	0.706779	-0.279128	0.763782
C124	C	0.591827	-0.480870	0.763795
C125	C	0.591834	-0.480846	0.810711
C126	C	0.620575	-0.430402	0.834166
C127	C	0.765982	-0.879289	0.216658
C128	C	0.815917	-0.879274	0.216681
C129	C	0.649237	-0.879293	0.099457
C130	C	0.649227	-0.879257	0.049523
C131	C	0.532081	-0.879465	0.216614
C132	C	0.482147	-0.879504	0.216605
C133	C	0.649251	-0.879503	0.333358
C134	C	0.649135	-0.879690	0.383292
C135	C	0.839369	-0.929780	0.245392
C136	C	0.886287	-0.929782	0.245413
C137	C	0.909753	-0.879274	0.216726
C138	C	0.886298	-0.828766	0.188012
C139	C	0.839380	-0.828769	0.187989
C140	C	0.620497	-0.929708	0.026058
C141	C	0.620479	-0.929675	-0.020861
C142	C	0.649193	-0.879194	-0.044314
C143	C	0.677923	-0.828738	-0.020846
C144	C	0.677939	-0.828768	0.026072
C145	C	0.458691	-0.829091	0.245338
C146	C	0.411772	-0.829111	0.245330
C147	C	0.388311	-0.879549	0.216589
C148	C	0.411770	-0.929964	0.187852
C149	C	0.458688	-0.929939	0.187859
C150	C	0.620547	-0.828988	0.406724
C151	C	0.620430	-0.829163	0.453643
C152	C	0.648904	-0.880035	0.477128
C153	C	0.677494	-0.930741	0.453693
C154	C	0.677608	-0.930570	0.406775
H155	H	0.393144	-0.471819	0.268690
O156	O	0.909166	-0.779726	0.160192
C157	C	0.955604	-0.790574	0.166368
H158	H	0.962000	-0.816491	0.201025
H159	H	0.973441	-0.731484	0.163374
H160	H	0.968923	-0.832515	0.139701
H161	H	0.820269	-0.970909	0.268755
H162	H	0.477788	-0.788016	0.268743
H163	H	0.700891	-0.971855	0.387700
H164	H	0.597082	-0.970763	-0.039962
O165	O	0.563871	-0.530002	0.600325
C166	C	0.538504	-0.574492	0.631097
H167	H	0.556907	-0.577201	0.664548
H168	H	0.533707	-0.636648	0.617558
H169	H	0.504386	-0.545602	0.636067
O170	O	0.592559	-0.978771	0.048765
C171	C	0.567208	-1.023297	0.017986
H172	H	0.565643	-0.990963	-0.015454
H173	H	0.531816	-1.031742	0.031533
H174	H	0.583666	-1.083191	0.012988
O175	O	0.908996	-0.978867	0.273353
C176	C	0.878220	-1.023449	0.298662
H177	H	0.844778	-0.991139	0.300215
H178	H	0.891768	-1.031931	0.334062
H179	H	0.873228	-1.083324	0.282176
H180	H	0.350107	-0.879558	0.216587
O181	O	0.592840	-0.779548	0.383986
C182	C	0.567591	-0.734832	0.414736
H183	H	0.565836	-0.767247	0.448140
H184	H	0.532259	-0.725954	0.401097
H185	H	0.584261	-0.675136	0.419838
H186	H	0.121619	-0.237999	0.135924
H187	H	0.701301	-0.787639	-0.039948
H188	H	0.392660	-0.971027	0.164452
O189	O	0.592609	-0.780013	0.476421
C190	C	0.563351	-0.824662	0.503434
H191	H	0.560365	-0.886703	0.489221
H192	H	0.528891	-0.795717	0.503894
H193	H	0.577137	-0.827671	0.539031
O194	O	0.705216	-0.980113	0.476461
C195	C	0.750087	-0.963350	0.465152
H196	H	0.751221	-0.932928	0.431120
H197	H	0.770015	-1.020507	0.463549
H198	H	0.765307	-0.923061	0.491642
O199	O	0.955330	-0.879349	0.216824
C200	C	0.970992	-0.934774	0.248311
H201	H	0.943946	-0.945876	0.274534
H202	H	1.002378	-0.911010	0.265394
H203	H	0.979318	-0.992252	0.230467
H204	H	0.478252	-0.471817	0.268669
H205	H	-0.094196	-0.288545	0.164631
O206	O	0.816671	-0.779623	0.160087
C207	C	0.847448	-0.735060	0.134768
H208	H	0.880890	-0.732380	0.153190
H209	H	0.833901	-0.672898	0.130010
H210	H	0.852440	-0.763867	0.100631
H211	H	0.393085	-0.288492	0.164571
H212	H	0.648807	-0.880165	0.515331
H213	H	0.649176	-0.879179	-0.082517
O214	O	0.705894	-0.779739	0.048794
C215	C	0.731224	-0.735171	0.018028
H216	H	0.732767	-0.767461	-0.015420
H217	H	0.766626	-0.726744	0.031581
H218	H	0.714763	-0.675271	0.013045
O219	O	0.388920	-0.780168	0.273208
C220	C	0.342478	-0.791009	0.267051
H221	H	0.336060	-0.816809	0.232374
H222	H	0.324644	-0.731935	0.270112
H223	H	0.329175	-0.833047	0.293687
H224	H	0.477782	-0.970995	0.164462
O225	O	0.592732	-0.479322	1.049394
C226	C	0.598889	-0.468488	1.095835
H227	H	0.633562	-0.442658	1.102251
H228	H	0.595837	-0.527569	1.113673
H229	H	0.572247	-0.426477	1.109136
O230	O	0.266112	-0.530207	0.301969
C231	C	0.254653	-0.513091	0.346756
H232	H	0.241762	-0.450081	0.349068
H233	H	0.285514	-0.519945	0.368949
H234	H	0.227419	-0.555408	0.358466
O235	O	0.173632	-0.530191	0.301961
C236	C	0.146496	-0.485380	0.331013
H237	H	0.160630	-0.423256	0.333838
H238	H	0.145987	-0.514008	0.365563
H239	H	0.110930	-0.482642	0.317133
O240	O	0.734628	-0.230077	0.692749
C241	C	0.709070	-0.179117	0.719881
H242	H	0.673683	-0.174241	0.705739
H243	H	0.725329	-0.118419	0.720396
H244	H	0.707530	-0.203482	0.755446
H245	H	-0.094143	-0.471883	0.268743
H246	H	-0.179265	-0.471884	0.268751
H247	H	-0.179303	-0.288567	0.164637
O248	O	0.734737	-0.230246	0.740972
C249	C	0.763740	-0.275154	0.713837
H250	H	0.766516	-0.337277	0.727985
H251	H	0.798315	-0.246623	0.713309
H252	H	0.749844	-0.277877	0.678276
O253	O	0.592593	-0.479449	0.476984
C254	C	0.563576	-0.434513	0.504091
H255	H	0.579433	-0.374740	0.511113
H256	H	0.557546	-0.466624	0.537088
H257	H	0.530287	-0.425839	0.485991
O258	O	0.563954	-0.529988	0.741036
C259	C	0.573757	-0.608598	0.752535
H260	H	0.609649	-0.612580	0.765439
H261	H	0.569875	-0.647588	0.721692
H262	H	0.549674	-0.629192	0.779772
O263	O	0.173648	-0.229959	0.131398
C264	C	0.204411	-0.185381	0.106071
H265	H	0.237863	-0.182711	0.124474
H266	H	0.190861	-0.123216	0.101332
H267	H	0.209383	-0.214167	0.071926
O268	O	0.592672	-0.479633	0.384386
C269	C	0.618244	-0.530602	0.357273
H270	H	0.652296	-0.502794	0.350259
H271	H	0.599947	-0.541166	0.324272
H272	H	0.623168	-0.589058	0.375362
H273	H	0.478208	-0.288492	0.164561
O274	O	0.125317	-0.530327	0.301966
C275	C	0.094555	-0.574928	0.327282
H276	H	0.061114	-0.542621	0.328861
H277	H	0.108123	-0.583437	0.362672
H278	H	0.089554	-0.634792	0.310784
H279	H	0.701409	-0.288657	0.388117
O280	O	0.734613	-0.230140	0.600205
C281	C	0.709030	-0.179180	0.573068
H282	H	0.674987	-0.207013	0.566024
H283	H	0.727328	-0.168586	0.540083
H284	H	0.704089	-0.120736	0.591151
O285	O	0.032892	-0.229992	0.131414
C286	C	0.063651	-0.185415	0.106082
H287	H	0.097105	-0.182742	0.124482
H288	H	0.050100	-0.123251	0.101343
H289	H	0.068621	-0.214204	0.071937
H290	H	0.262377	-0.237960	0.135914
O291	O	0.032875	-0.530192	0.301982
C292	C	0.005745	-0.485352	0.331024
H293	H	0.019893	-0.423237	0.333845
H294	H	0.005222	-0.513968	0.365577
H295	H	-0.029819	-0.482593	0.317136
H296	H	0.701414	-0.288605	0.473226
H297	H	0.701475	-0.288429	0.960512
H298	H	0.701480	-0.288401	1.045634
O299	O	0.592655	-0.479445	0.956909
C300	C	0.567290	-0.523931	0.987684
H301	H	0.585700	-0.526652	1.021131
H302	H	0.562483	-0.586084	0.974143
H303	H	0.533176	-0.495031	0.992664
H304	H	0.730187	-0.238036	0.829802
O305	O	0.563872	-0.529783	0.692794
C306	C	0.534857	-0.484862	0.719910
H307	H	0.550710	-0.425087	0.726934
H308	H	0.528835	-0.516983	0.752906
H309	H	0.501564	-0.476191	0.701817
H310	H	0.568432	-0.521917	0.829808
