data_functionalizedCrystal
_audit_creation_method	'MofGen! by Chris Wilmer'
_symmetry_space_group_name_H-M	'P1'
_symmetry_Int_Tables_number	1
_symmetry_cell_setting	triclinic
loop_
_symmetry_equiv_pos_as_xyz
  x,y,z
_cell_length_a	15.297475
_cell_length_b	18.101397
_cell_length_c	15.298259
_cell_angle_alpha	80.283915
_cell_angle_beta	88.370891
_cell_angle_gamma	80.322482
loop_
_atom_site_label
_atom_site_type_symbol
_atom_site_fract_x
_atom_site_fract_y
_atom_site_fract_z
Zn1	Zn	1.253525	-0.369904	-0.726640
Zn2	Zn	1.753525	0.130096	-0.226640
Zn3	Zn	1.278774	-0.518168	-0.580129
Zn4	Zn	1.778774	-0.018168	-0.080129
Zn5	Zn	1.132378	-0.377107	-0.554863
Zn6	Zn	1.632378	0.122893	-0.054863
Zn7	Zn	1.107016	-0.476468	-0.701273
Zn8	Zn	1.607016	0.023532	-0.201273
O9	O	1.192923	-0.435412	-0.640726
O10	O	1.692923	0.064588	-0.140726
O11	O	1.379456	-0.404008	-0.728395
O12	O	1.879456	0.095992	-0.228395
O13	O	1.280536	-0.519922	-0.454189
O14	O	1.780536	-0.019922	0.045811
O15	O	1.148496	-0.272519	-0.577692
O16	O	1.648496	0.227481	-0.077692
O17	O	1.398007	-0.512937	-0.620754
O18	O	1.898007	-0.012937	-0.120754
O19	O	1.237502	-0.267227	-0.703896
O20	O	1.737502	0.232773	-0.203896
O21	O	1.172979	-0.416285	-0.435626
O22	O	1.672979	0.083715	0.064374
O23	O	1.006432	-0.375850	-0.553095
O24	O	1.506432	0.124150	-0.053095
O25	O	1.105269	-0.441866	-0.827226
O26	O	1.605269	0.058134	-0.327226
O27	O	0.987798	-0.448851	-0.660661
O28	O	1.487798	0.051149	-0.160661
O29	O	1.212909	-0.363574	-0.845863
O30	O	1.712909	0.136426	-0.345863
O31	O	1.255943	-0.616269	-0.596157
O32	O	1.755943	-0.116269	-0.096157
O33	O	1.129753	-0.585632	-0.685161
O34	O	1.629753	-0.085632	-0.185161
C35	C	0.965331	-0.408608	-0.601384
C36	C	1.465331	0.091392	-0.101384
C37	C	0.867963	-0.397155	-0.584574
C38	C	1.367963	0.102845	-0.084574
C39	C	0.554848	-0.517269	-0.760872
C40	C	1.054848	-0.017269	-0.260872
C41	C	0.646331	-0.528036	-0.776663
C42	C	1.146331	-0.028036	-0.276663
C43	C	0.701743	-0.495316	-0.728643
C44	C	1.201743	0.004684	-0.228643
C45	C	0.665664	-0.451829	-0.664827
C46	C	1.165664	0.048171	-0.164827
C47	C	0.574173	-0.441067	-0.649030
C48	C	1.074173	0.058933	-0.149030
C49	C	0.721068	-0.419114	-0.616800
C50	C	1.221068	0.080886	-0.116800
C51	C	0.684988	-0.375627	-0.552985
C52	C	1.184988	0.124373	-0.052985
C53	C	0.593506	-0.364866	-0.537191
C54	C	1.093506	0.135134	-0.037191
C55	C	0.538094	-0.397586	-0.585211
C56	C	1.038094	0.102414	-0.085211
C57	C	0.812559	-0.429876	-0.632598
C58	C	1.312559	0.070124	-0.132598
C59	C	0.831884	-0.353674	-0.520756
C60	C	1.331884	0.146326	-0.020756
C61	C	0.740401	-0.342908	-0.504965
C62	C	1.240401	0.157092	-0.004965
C63	C	1.192856	-0.627821	-0.640671
C64	C	1.692856	-0.127821	-0.140671
C65	C	1.192902	-0.710138	-0.640690
C66	C	1.692902	-0.210138	-0.140690
C67	C	1.193000	-1.009229	-0.640790
C68	C	1.693000	-0.509229	-0.140790
C69	C	1.272238	-0.997157	-0.584577
C70	C	1.772238	-0.497157	-0.084577
C71	C	1.272441	-0.911537	-0.584793
C72	C	1.772441	-0.411537	-0.084793
C73	C	1.192952	-0.860847	-0.640740
C74	C	1.692952	-0.360847	-0.140740
C75	C	1.202001	-0.879402	-0.737398
C76	C	1.702001	-0.379402	-0.237398
C77	C	1.202587	-0.965171	-0.737118
C78	C	1.702587	-0.465171	-0.237118
C79	C	1.104394	-0.970771	-0.601112
C80	C	1.604394	-0.470771	-0.101112
C81	C	1.105208	-0.885519	-0.599130
C82	C	1.605208	-0.385519	-0.099130
C83	C	1.192922	-0.776986	-0.640717
C84	C	1.692922	-0.276986	-0.140717
C85	C	1.193031	-1.093089	-0.640819
C86	C	1.693031	-0.593089	-0.140819
C87	C	1.421404	-0.462321	-0.680223
C88	C	1.921404	0.037679	-0.180223
C89	C	1.518769	-0.473788	-0.697053
C90	C	2.018769	0.026212	-0.197053
C91	C	1.153444	-0.397265	-0.869219
C92	C	1.653444	0.102735	-0.369219
C93	C	1.136620	-0.381009	-0.966589
C94	C	1.636620	0.118991	-0.466589
C95	C	1.193012	-0.242251	-0.640805
C96	C	1.693012	0.257749	-0.140805
C97	C	1.193050	-0.159938	-0.640839
C98	C	1.693050	0.340062	-0.140839
C99	C	1.313195	-0.551027	-1.279711
C100	C	1.813195	-0.051027	-0.779711
C101	C	1.328998	-0.566305	-1.188226
C102	C	1.828998	-0.066305	-0.688226
C103	C	1.280905	-0.519982	-1.132813
C104	C	1.780905	-0.019982	-0.632813
C105	C	1.217006	-0.458380	-1.168893
C106	C	1.717006	0.041620	-0.668893
C107	C	1.201197	-0.443104	-1.260386
C108	C	1.701197	0.056896	-0.760386
C109	C	1.168907	-0.412059	-1.113487
C110	C	1.668907	0.087941	-0.613487
C111	C	1.105009	-0.350457	-1.149567
C112	C	1.605009	0.149543	-0.649567
C113	C	1.089203	-0.335184	-1.241052
C114	C	1.589203	0.164816	-0.741052
C115	C	1.137296	-0.381507	-1.296465
C116	C	1.637296	0.118493	-0.796465
C117	C	1.184716	-0.427334	-1.021994
C118	C	1.684716	0.072666	-0.521994
C119	C	1.072718	-0.319411	-1.002669
C120	C	1.572718	0.180589	-0.502669
C121	C	1.056916	-0.304134	-1.094154
C122	C	1.556916	0.195866	-0.594154
C123	C	1.232300	-0.473362	-0.413131
C124	C	1.732300	0.026638	0.086869
C125	C	1.249294	-0.489430	-0.315791
C126	C	1.749294	0.010570	0.184209
H127	H	0.509725	-0.543910	-0.799958
H128	H	1.009725	-0.043910	-0.299958
Cl129	Cl	0.857905	-0.484543	-0.712821
Cl130	Cl	1.357905	0.015457	-0.212821
H131	H	1.381015	-0.616468	-1.158855
H132	H	1.881015	-0.116468	-0.658855
Cl133	Cl	1.012243	-0.261182	-0.933010
Cl134	Cl	1.512243	0.238818	-0.433010
Cl135	Cl	0.548152	-0.310204	-0.456959
Cl136	Cl	1.048152	0.189796	0.043041
Cl137	Cl	1.265043	-0.504774	-0.976648
Cl138	Cl	1.765043	-0.004774	-0.476648
Cl139	Cl	1.266710	-1.043903	-0.474428
Cl140	Cl	1.766710	-0.543903	0.025572
H141	H	1.352339	-0.588741	-1.324835
H142	H	1.852339	-0.088741	-0.824835
Cl143	Cl	1.013546	-0.980194	-0.664019
Cl144	Cl	1.513546	-0.480194	-0.164019
Cl145	Cl	1.117435	-0.362302	-1.411481
Cl146	Cl	1.617435	0.137698	-0.911481
Cl147	Cl	0.976588	-0.226694	-1.139522
Cl148	Cl	1.476588	0.273306	-0.639522
Cl149	Cl	1.008838	-0.257766	-1.286401
Cl150	Cl	1.508838	0.242234	-0.786401
H151	H	0.877001	-0.327032	-0.481652
H152	H	1.377001	0.172968	0.018348
H153	H	0.711012	-0.307500	-0.453005
H154	H	1.211012	0.192500	0.046995
H155	H	0.776232	-0.504084	-0.741504
H156	H	1.276232	-0.004084	-0.241504
H157	H	0.675701	-0.563445	-0.828620
H158	H	1.175701	-0.063445	-0.328620
H159	H	1.293774	-0.532425	-1.058322
H160	H	1.793774	-0.032425	-0.558322
H161	H	1.268631	-0.900149	-0.513623
H162	H	1.768631	-0.400149	-0.013623
Cl163	Cl	1.116009	-0.975164	-0.805305
Cl164	Cl	1.616009	-0.475164	-0.305305
Cl165	Cl	1.373544	-1.038725	-0.626685
Cl166	Cl	1.873544	-0.538725	-0.126685
Cl167	Cl	0.423080	-0.384047	-0.565367
Cl168	Cl	0.923080	0.115953	-0.065367
Cl169	Cl	1.301849	-1.003083	-0.786135
Cl170	Cl	1.801849	-0.503083	-0.286135
Cl171	Cl	1.374274	-0.888262	-0.627286
Cl172	Cl	1.874274	-0.388262	-0.127286
H173	H	1.145359	-0.844773	-0.781095
H174	H	1.645359	-0.344773	-0.281095
Cl175	Cl	1.094218	-0.868301	-0.489188
Cl176	Cl	1.594218	-0.368301	0.010812
Cl177	Cl	1.086917	-1.017109	-0.492889
Cl178	Cl	1.586917	-0.517109	0.007111
Cl179	Cl	1.300001	-0.853130	-0.786741
Cl180	Cl	1.800001	-0.353130	-0.286741
H181	H	1.044288	-0.850255	-0.635790
H182	H	1.544288	-0.350255	-0.135790
