data_functionalizedCrystal
_audit_creation_method	'MofGen! by Chris Wilmer'
_symmetry_space_group_name_H-M	'P1'
_symmetry_Int_Tables_number	1
_symmetry_cell_setting	triclinic
loop_
_symmetry_equiv_pos_as_xyz
  x,y,z
_cell_length_a	15.995343
_cell_length_b	15.995292
_cell_length_c	14.048226
_cell_angle_alpha	89.996759
_cell_angle_beta	89.997860
_cell_angle_gamma	83.478900
loop_
_atom_site_label
_atom_site_type_symbol
_atom_site_fract_x
_atom_site_fract_y
_atom_site_fract_z
O1	O	1.110969	0.107900	-0.079058
O2	O	0.867190	0.121235	-0.079080
O3	O	0.995769	-0.007324	-0.079070
O4	O	0.982391	0.236459	-0.079068
O5	O	0.995754	-0.007331	0.079251
O6	O	0.867175	0.121227	0.079241
O7	O	1.110954	0.107893	0.079263
Zn8	Zn	0.989062	0.114559	0.104389
Zn9	Zn	0.989082	0.114569	-0.104206
O10	O	0.982375	0.236451	0.079253
C11	C	0.835988	0.120681	0.000077
C12	C	0.743037	0.119032	0.000069
C13	C	0.572852	0.116038	0.000081
C14	C	0.549525	0.023238	0.000081
C15	C	0.452848	0.021493	0.000445
C16	C	0.405292	0.113089	0.000093
C17	C	0.434365	0.159746	0.090323
C18	C	0.531158	0.160847	0.090393
C19	C	0.531086	0.162214	-0.089654
C20	C	0.434591	0.158788	-0.090835
C21	C	0.310595	0.111428	0.000103
C22	C	0.667549	0.117702	0.000078
C23	C	0.995217	-0.038523	0.000088
C24	C	0.993584	-0.131476	0.000081
C25	C	0.987583	-0.469214	0.000089
C26	C	1.080388	-0.445904	0.000451
C27	C	1.082152	-0.349229	0.000091
C28	C	0.990561	-0.301658	0.000085
C29	C	0.944172	-0.330754	-0.090325
C30	C	0.943055	-0.427544	-0.090397
C31	C	0.941142	-0.427410	0.089643
C32	C	0.944581	-0.330917	0.090835
C33	C	0.992239	-0.206962	0.000080
C34	C	0.985902	-0.563910	0.000088
C35	C	1.142156	0.108447	0.000103
C36	C	1.235107	0.110096	0.000106
C37	C	0.982927	0.267650	0.000093
C38	C	0.984560	0.360603	0.000094
N39	N	0.989054	0.114551	0.246750
N40	N	0.989097	0.114569	-0.246567
C41	C	1.046007	0.057649	0.296572
C42	C	1.046012	0.057649	0.396230
C43	C	0.989069	0.114555	0.446063
C44	C	0.932110	0.171460	0.396234
C45	C	0.932101	0.171456	0.296578
C46	C	0.932134	0.171466	0.603948
C47	C	0.932144	0.171472	0.703611
C48	C	1.046045	0.057659	0.703600
C49	C	1.046036	0.057655	0.603944
C50	C	0.989079	0.114561	0.554121
H51	H	0.545085	0.230520	-0.090524
H52	H	0.976398	-0.310691	-0.157604
H53	H	0.885750	0.217803	0.563386
C54	C	0.407460	0.117163	0.180217
C55	C	0.354292	0.174800	0.233734
C56	C	0.329486	0.135581	0.316533
H57	H	0.455759	0.097926	0.216843
H58	H	0.378382	0.070702	0.163452
H59	H	0.383370	0.221245	0.250502
H60	H	0.305981	0.194040	0.197137
H61	H	0.300408	0.089120	0.299768
H62	H	0.377790	0.116346	0.353151
H63	H	0.293403	0.174679	0.352850
C64	C	0.985849	-0.463463	-0.180468
C65	C	0.985284	-0.550926	-0.181501
C66	C	1.024691	-0.584037	-0.264465
H67	H	1.042310	-0.450428	-0.181957
H68	H	0.956489	-0.439636	-0.234561
H69	H	1.014646	-0.574744	-0.127422
H70	H	0.928834	-0.563983	-0.180026
H71	H	0.995331	-0.560210	-0.318558
H72	H	1.081150	-0.570996	-0.265947
H73	H	1.024306	-0.643382	-0.265181
H74	H	0.578511	-0.012149	0.064688
H75	H	0.557943	0.128907	0.158097
H76	H	0.401621	0.225623	-0.096562
C77	C	0.852277	-0.446779	-0.095949
C78	C	0.798678	-0.371280	-0.099218
C79	C	0.715052	-0.388962	-0.104357
H80	H	0.839436	-0.478089	-0.041459
H81	H	0.844748	-0.478669	-0.151723
H82	H	0.806203	-0.339404	-0.043450
H83	H	0.811493	-0.339959	-0.153706
H84	H	0.707522	-0.420852	-0.160131
H85	H	0.702219	-0.420274	-0.049865
H86	H	0.678675	-0.337740	-0.106585
C87	C	0.870446	0.233347	0.757762
C88	C	0.915028	0.284657	0.814940
C89	C	0.858217	0.341674	0.864825
H90	H	0.835588	0.203301	0.796726
H91	H	0.836533	0.267279	0.713843
H92	H	0.948926	0.250729	0.858854
H93	H	0.949883	0.314721	0.776000
H94	H	0.824304	0.375606	0.820907
H95	H	0.823362	0.311621	0.903784
H96	H	0.888458	0.376499	0.903620
H97	H	1.116153	-0.473906	0.065289
C98	C	1.107898	-0.004222	0.550009
C99	C	1.157766	-0.054073	0.614968
C100	C	1.214753	-0.111091	0.565318
H101	H	1.142817	0.025822	0.511119
H102	H	1.077804	-0.039141	0.511163
H103	H	1.187858	-0.019158	0.653797
H104	H	1.122871	-0.084134	0.653860
H105	H	1.184659	-0.146011	0.526473
H106	H	1.249666	-0.081041	0.526430
H107	H	1.248590	-0.144927	0.609385
C108	C	0.870244	0.233110	0.450460
C109	C	0.819026	0.188478	0.507708
C110	C	0.762033	0.245244	0.557683
H111	H	0.836240	0.267023	0.406624
H112	H	0.900336	0.267973	0.489380
H113	H	0.788936	0.153630	0.468791
H114	H	0.853007	0.154569	0.551562
H115	H	0.792125	0.280107	0.596603
H116	H	0.728035	0.279154	0.513840
H117	H	0.727280	0.214970	0.596538
C118	C	0.587000	-0.024599	-0.086210
C119	C	0.631725	0.028425	-0.140957
C120	C	0.666277	-0.015619	-0.220447
H121	H	0.543130	-0.043184	-0.123476
H122	H	0.623986	-0.071857	-0.065724
H123	H	0.594743	0.075667	-0.161444
H124	H	0.675608	0.047012	-0.103718
H125	H	0.703262	-0.062876	-0.199961
H126	H	0.622402	-0.034202	-0.257706
H127	H	0.696633	0.020349	-0.257598
C128	C	0.870231	0.233332	0.242653
C129	C	0.820379	0.283186	0.307622
C130	C	0.763379	0.340202	0.257983
H131	H	0.835303	0.203287	0.203784
H132	H	0.900315	0.268250	0.203787
H133	H	0.790297	0.248273	0.346471
H134	H	0.855284	0.313250	0.346493
H135	H	0.793463	0.375120	0.219117
H136	H	0.728457	0.310150	0.219115
H137	H	0.729553	0.374040	0.302056
H138	H	0.876773	-0.298884	-0.093690
H139	H	0.416047	0.124811	-0.157588
C140	C	1.107870	-0.004231	0.242644
C141	C	1.157732	-0.054078	0.307612
C142	C	1.214722	-0.111102	0.257972
H143	H	1.142793	0.025809	0.203755
H144	H	1.077778	-0.039152	0.203799
H145	H	1.187822	-0.019162	0.346441
H146	H	1.122832	-0.084136	0.346503
H147	H	1.184629	-0.146023	0.219127
H148	H	1.249638	-0.081055	0.219084
H149	H	1.248554	-0.144936	0.302045
C150	C	1.130889	-0.324511	-0.086398
C151	C	1.132621	-0.237192	-0.086935
C152	C	1.177514	-0.214392	-0.166596
H153	H	1.104265	-0.341025	-0.142698
H154	H	1.186802	-0.351753	-0.083761
H155	H	1.076718	-0.209959	-0.089581
H156	H	1.159251	-0.220656	-0.030653
H157	H	1.233428	-0.241635	-0.163958
H158	H	1.150886	-0.230912	-0.222890
H159	H	1.178702	-0.155146	-0.166966
C160	C	1.130617	-0.324026	0.086565
C161	C	1.158572	-0.395908	0.139609
C162	C	1.203215	-0.372728	0.219282
H163	H	1.094920	-0.286272	0.124891
H164	H	1.177647	-0.297308	0.066298
H165	H	1.111549	-0.422613	0.159877
H166	H	1.194280	-0.433670	0.101311
H167	H	1.250246	-0.346009	0.199015
H168	H	1.167513	-0.334973	0.257600
H169	H	1.222196	-0.421496	0.255278
C170	C	0.980033	-0.465168	0.180915
C171	C	1.046452	-0.526717	0.158403
C172	C	1.082313	-0.561513	0.242451
H173	H	0.938651	-0.489998	0.216274
H174	H	1.000703	-0.422189	0.217834
H175	H	1.025782	-0.569689	0.121499
H176	H	1.087852	-0.501908	0.123056
H177	H	1.102983	-0.518534	0.279371
H178	H	1.040925	-0.586338	0.277804
H179	H	1.127387	-0.603272	0.227189
C180	C	0.989524	-0.306281	0.180136
C181	C	0.947953	-0.332724	0.260530
C182	C	0.989341	-0.310052	0.342807
H183	H	0.989393	-0.246902	0.181943
H184	H	1.045931	-0.332359	0.179613
H185	H	0.891561	-0.306644	0.261053
H186	H	0.948083	-0.392101	0.258754
H187	H	1.045747	-0.336130	0.342284
H188	H	0.989207	-0.250673	0.344604
H189	H	0.961146	-0.327997	0.397364
C190	C	0.427326	-0.027143	-0.085748
C191	C	0.339981	-0.028680	-0.085381
C192	C	0.316444	-0.073469	-0.164776
H193	H	0.454453	-0.083101	-0.083380
H194	H	0.443471	-0.000512	-0.142227
H195	H	0.323844	-0.055312	-0.028917
H196	H	0.312834	0.027265	-0.087763
H197	H	0.332589	-0.046839	-0.221255
H198	H	0.343576	-0.129424	-0.162401
H199	H	0.257178	-0.074511	-0.164542
C200	C	1.127927	-0.484702	-0.085391
C201	C	1.197292	-0.539226	-0.054486
C202	C	1.241095	-0.574988	-0.133537
H203	H	1.146789	-0.441436	-0.123391
H204	H	1.091724	-0.515256	-0.121973
H205	H	1.233488	-0.508673	-0.017919
H206	H	1.178454	-0.582506	-0.016496
H207	H	1.204893	-0.605542	-0.170119
H208	H	1.259951	-0.531717	-0.171532
H209	H	1.288159	-0.611992	-0.112579
H210	H	0.877728	-0.297946	0.096291
H211	H	0.545717	0.228899	0.094252
C212	C	0.428420	-0.026970	0.087278
C213	C	0.500752	-0.054792	0.139617
C214	C	0.478281	-0.099427	0.219625
H215	H	0.401619	-0.074059	0.067422
H216	H	0.390920	0.008725	0.125915
H217	H	0.538238	-0.090485	0.100987
H218	H	0.527562	-0.007719	0.159497
H219	H	0.440781	-0.063732	0.258262
H220	H	0.451480	-0.146513	0.199760
H221	H	0.527353	-0.118304	0.255151
C222	C	0.391766	0.249594	0.094328
C223	C	0.338506	0.264700	0.015609
C224	C	0.299239	0.347453	0.019272
H225	H	0.433261	0.287615	0.093301
H226	H	0.359747	0.257456	0.151237
H227	H	0.370522	0.256846	-0.041285
H228	H	0.296995	0.226699	0.016621
H229	H	0.267221	0.355315	0.076181
H230	H	0.340741	0.385467	0.018247
H231	H	0.263092	0.357711	-0.034132
H232	H	0.872831	-0.441398	0.090248
H233	H	0.559368	0.132939	-0.158067
H234	H	1.092387	0.011314	0.436795
H235	H	1.092422	0.011324	0.744171
