data_functionalizedCrystal
_audit_creation_method	'MofGen! by Chris Wilmer'
_symmetry_space_group_name_H-M	'P1'
_symmetry_Int_Tables_number	1
_symmetry_cell_setting	triclinic
loop_
_symmetry_equiv_pos_as_xyz
  x,y,z
_cell_length_a	17.699083
_cell_length_b	15.944545
_cell_length_c	16.776229
_cell_angle_alpha	89.991247
_cell_angle_beta	89.998886
_cell_angle_gamma	83.389594
loop_
_atom_site_label
_atom_site_type_symbol
_atom_site_fract_x
_atom_site_fract_y
_atom_site_fract_z
O1	O	1.004258	0.106222	-0.066180
O2	O	0.783903	0.120042	-0.066207
O3	O	0.900100	-0.009156	-0.066183
O4	O	0.888060	0.235420	-0.066204
O5	O	0.900085	-0.009164	0.066393
O6	O	0.783887	0.120034	0.066370
O7	O	1.004242	0.106214	0.066396
Zn8	Zn	0.894062	0.113123	0.087432
Zn9	Zn	0.894083	0.113133	-0.087243
O10	O	0.888045	0.235412	0.066373
C11	C	0.755697	0.119543	0.000078
C12	C	0.671677	0.118057	0.000068
C13	C	0.623184	0.193894	0.000062
C14	C	0.544238	0.192493	0.000073
C15	C	0.513787	0.115255	0.000084
C16	C	0.562286	0.039412	0.000092
C17	C	0.641230	0.040814	0.000087
C18	C	0.243913	0.033758	0.000112
C19	C	0.164963	0.032362	0.000115
C20	C	0.146921	0.185436	0.000098
C21	C	0.225865	0.186838	0.000093
C22	C	0.274358	0.110996	0.000106
C23	C	0.359959	0.112516	0.000096
C24	C	0.428187	0.113734	0.000088
C25	C	0.899593	-0.040453	0.000106
C26	C	0.898097	-0.133696	0.000108
C27	C	0.821603	-0.404168	0.000082
C28	C	0.858490	-0.353656	-0.065281
C29	C	0.892763	-0.469329	0.000084
C30	C	0.858494	-0.353691	0.065429
C31	C	0.895380	-0.304421	0.000097
C32	C	0.929631	-0.420045	-0.065333
C33	C	0.929624	-0.420083	0.065436
C34	C	0.966563	-0.369604	0.000057
C35	C	0.891253	-0.564328	0.000076
C36	C	0.896895	-0.209424	0.000100
C37	C	1.032448	0.106713	0.000110
C38	C	1.116468	0.108199	0.000114
C39	C	0.888552	0.266709	0.000082
C40	C	0.890048	0.359952	0.000075
N41	N	0.894054	0.113115	0.206644
N42	N	0.894097	0.113134	-0.206454
C43	C	0.945522	0.055930	0.248371
C44	C	0.945526	0.055929	0.331823
C45	C	0.894065	0.113118	0.373547
C46	C	0.842592	0.170307	0.331813
C47	C	0.842585	0.170303	0.248363
C48	C	0.842619	0.170323	0.668360
C49	C	0.842632	0.170324	0.751817
C50	C	0.945561	0.055950	0.751821
C51	C	0.945553	0.055946	0.668371
C52	C	0.894078	0.113130	0.626644
C53	C	0.894073	0.113129	0.536156
C54	C	0.894073	0.113124	0.464033
H55	H	0.250654	0.249733	0.000080
H56	H	0.987460	0.009380	0.634402
C57	C	0.738817	-0.425151	-0.000011
C58	C	0.722212	-0.517855	0.000676
C59	C	0.639429	-0.538840	0.000578
C60	C	0.573251	-0.467121	-0.000207
C61	C	0.589854	-0.374410	-0.000894
C62	C	0.672637	-0.353425	-0.000796
H63	H	0.771203	-0.570952	0.001257
H64	H	0.627139	-0.607471	0.001087
H65	H	0.511970	-0.482655	-0.000280
H66	H	0.540863	-0.321314	-0.001476
H67	H	0.684927	-0.284794	-0.001305
C68	C	0.786017	0.233232	0.797715
C69	C	0.786031	0.233236	0.889507
C70	C	0.729421	0.296140	0.935406
C71	C	0.672796	0.359039	0.889512
C72	C	0.672780	0.359037	0.797714
C73	C	0.729391	0.296133	0.751816
H74	H	0.827950	0.186672	0.923485
H75	H	0.729433	0.296141	1.003361
H76	H	0.630890	0.405604	0.923488
H77	H	0.630861	0.405601	0.763736
H78	H	0.729378	0.296132	0.683861
C79	C	0.785983	0.233217	0.377704
C80	C	0.786023	0.233269	0.469497
C81	C	0.729414	0.296184	0.515385
C82	C	0.672766	0.359047	0.469481
C83	C	0.672724	0.358998	0.377683
C84	C	0.729333	0.296083	0.331795
H85	H	0.827959	0.186731	0.503482
H86	H	0.729446	0.296220	0.583340
H87	H	0.630861	0.405620	0.503450
H88	H	0.630787	0.405535	0.343698
H89	H	0.729301	0.296047	0.263840
H90	H	0.987435	0.009364	0.365798
H91	H	1.027895	-0.354242	0.000028
C92	C	1.002131	-0.006981	0.202480
C93	C	1.060008	0.025754	0.145098
C94	C	1.116617	-0.037161	0.099210
C95	C	1.115348	-0.132811	0.110703
C96	C	1.057468	-0.165550	0.168088
C97	C	1.000859	-0.102636	0.213976
H98	H	1.060950	0.096564	0.136588
H99	H	1.159464	-0.012924	0.056730
H100	H	1.157253	-0.179384	0.076734
H101	H	1.056527	-0.236360	0.176598
H102	H	0.958013	-0.126872	0.256456
H103	H	0.800673	0.216868	0.214389
H104	H	0.647970	0.256790	0.000053
C105	C	0.528792	-0.045552	0.000103
C106	C	0.441958	-0.047098	0.000102
C107	C	0.408466	-0.132065	0.000109
C108	C	0.461810	-0.215484	0.000117
C109	C	0.548650	-0.213940	0.000118
C110	C	0.582141	-0.128974	0.000111
H111	H	0.402465	0.014656	0.000096
H112	H	0.344181	-0.133207	0.000109
H113	H	0.437018	-0.278381	0.000122
H114	H	0.588143	-0.275695	0.000124
H115	H	0.646426	-0.127832	0.000111
C116	C	0.694576	-0.042607	0.000092
C117	C	0.691167	-0.105946	0.068943
C118	C	0.744513	-0.189369	0.068952
C119	C	0.801268	-0.209453	0.000111
C120	C	0.804680	-0.146112	-0.068745
C121	C	0.751334	-0.062689	-0.068754
H122	H	0.649152	-0.091080	0.119908
H123	H	0.741987	-0.236258	0.119924
H124	H	0.840758	-0.271208	0.000118
H125	H	0.846695	-0.160978	-0.119710
H126	H	0.753859	-0.015800	-0.119726
H127	H	0.800707	0.216886	0.634394
H128	H	0.828444	-0.324655	-0.120548
H129	H	0.504757	0.254246	0.000067
C130	C	0.970206	-0.459031	-0.140072
C131	C	1.040280	-0.525189	-0.131288
C132	C	1.080853	-0.564176	-0.206027
C133	C	1.051352	-0.537004	-0.289549
C134	C	0.981275	-0.470842	-0.298335
C135	C	0.940702	-0.431855	-0.223597
H136	H	1.062122	-0.545307	-0.069458
H137	H	1.132729	-0.613153	-0.199522
H138	H	1.081386	-0.565864	-0.344874
H139	H	0.959433	-0.450725	-0.360166
H140	H	0.888826	-0.382878	-0.230102
C141	C	0.093577	0.268866	0.000093
C142	C	0.036818	0.288955	-0.068747
C143	C	-0.016524	0.372382	-0.068754
C144	C	-0.013105	0.435719	0.000079
C145	C	0.043656	0.415630	0.068924
C146	C	0.096998	0.332204	0.068931
H147	H	0.034285	0.242068	-0.119705
H148	H	-0.058543	0.387252	-0.119718
H149	H	-0.052592	0.497476	0.000074
H150	H	0.046189	0.462517	0.119883
H151	H	0.139016	0.317334	0.119895
H152	H	0.959644	-0.449099	0.120706
C153	C	1.002181	-0.006963	0.797721
C154	C	1.002193	-0.006971	0.889514
C155	C	1.058813	-0.069880	0.935410
C156	C	1.115421	-0.132781	0.889515
C157	C	1.115411	-0.132776	0.797717
C158	C	1.058791	-0.069867	0.751820
H159	H	0.960286	0.039595	0.923493
H160	H	1.058820	-0.069883	1.003365
H161	H	1.157334	-0.179350	0.923490
H162	H	1.157317	-0.179342	0.763738
H163	H	1.058784	-0.069864	0.683865
H164	H	0.828423	-0.324717	0.120687
H165	H	0.283387	-0.027998	0.000123
H166	H	0.140173	-0.030538	0.000124
