data_functionalizedCrystal
_audit_creation_method	'MofGen! by Chris Wilmer'
_symmetry_space_group_name_H-M	'P1'
_symmetry_Int_Tables_number	1
_symmetry_cell_setting	triclinic
loop_
_symmetry_equiv_pos_as_xyz
  x,y,z
_cell_length_a	10.967926
_cell_length_b	10.908878
_cell_length_c	10.065875
_cell_angle_alpha	96.606954
_cell_angle_beta	93.120479
_cell_angle_gamma	72.684821
loop_
_atom_site_label
_atom_site_type_symbol
_atom_site_fract_x
_atom_site_fract_y
_atom_site_fract_z
O1	O	1.568541	0.221803	0.255422
O2	O	1.217771	0.225435	0.172920
O3	O	1.439654	0.038916	0.225113
O4	O	1.346658	0.408322	0.203230
O5	O	1.397314	0.074632	0.442142
O6	O	1.175431	0.261151	0.389950
O7	O	1.526201	0.257519	0.472451
Zn8	Zn	1.344094	0.265006	0.465659
Zn9	Zn	1.399879	0.217949	0.179713
O10	O	1.304318	0.444038	0.420259
C11	C	1.152400	0.240330	0.271039
C12	C	1.020698	0.231486	0.240062
C13	C	0.940048	0.246045	0.338680
C14	C	0.803926	0.236905	0.306666
C15	C	1.427176	0.009349	0.335670
C16	C	1.453059	-0.131964	0.341753
C17	C	1.358619	-0.185499	0.319538
C18	C	1.385369	-0.331553	0.325825
C19	C	1.591573	0.242624	0.374330
C20	C	1.723277	0.251466	0.405298
C21	C	1.316797	0.473605	0.309699
C22	C	1.290916	0.614917	0.303607
N23	N	1.306031	0.297121	0.660811
N24	N	1.437953	0.185824	-0.015437
C25	C	1.386630	0.229114	0.747548
C26	C	1.357343	0.253841	0.897827
H27	H	0.754997	0.270695	0.513436
Cl28	Cl	0.971729	0.201784	0.073113
Cl29	Cl	1.578175	0.067942	0.927515
Cl30	Cl	1.166011	0.415274	0.717916
H31	H	0.971777	0.265269	0.446810
H32	H	1.266648	0.330371	0.934814
H33	H	0.772207	0.217669	0.198529
H34	H	1.477312	0.152579	0.710555
H35	H	1.257961	-0.123202	0.295872
Cl36	Cl	1.135493	-0.288919	0.267068
H37	H	1.486031	-0.393843	0.349505
Cl38	Cl	1.608469	-0.228132	0.378314
