data_functionalizedCrystal
_audit_creation_method	'MofGen! by Chris Wilmer'
_symmetry_space_group_name_H-M	'P1'
_symmetry_Int_Tables_number	1
_symmetry_cell_setting	triclinic
loop_
_symmetry_equiv_pos_as_xyz
  x,y,z
_cell_length_a	16.120530
_cell_length_b	14.908520
_cell_length_c	14.908694
_cell_angle_alpha	83.255478
_cell_angle_beta	83.963005
_cell_angle_gamma	89.416769
loop_
_atom_site_label
_atom_site_type_symbol
_atom_site_fract_x
_atom_site_fract_y
_atom_site_fract_z
Zn1	Zn	1.282142	0.464621	-0.607157
Zn2	Zn	1.266834	0.606374	-0.463635
Zn3	Zn	1.135122	0.447353	-0.447261
Zn4	Zn	1.135087	0.607366	-0.607282
O5	O	1.204796	0.531428	-0.531334
O6	O	1.396777	0.490237	-0.594919
O7	O	1.242971	0.577638	-0.334429
O8	O	1.161046	0.323353	-0.461566
O9	O	1.385530	0.594382	-0.489474
O10	O	1.269061	0.336040	-0.579042
O11	O	1.146203	0.460806	-0.322399
O12	O	1.018453	0.461767	-0.461688
O13	O	1.160985	0.596072	-0.734300
O14	O	1.018426	0.579328	-0.579255
O15	O	1.269026	0.491198	-0.734208
O16	O	1.242936	0.732796	-0.489596
O17	O	1.146142	0.733524	-0.595132
C18	C	0.988189	0.518782	-0.518708
C19	C	0.895524	0.513394	-0.513330
C20	C	1.192898	0.765908	-0.544175
C21	C	1.187886	0.866226	-0.549704
C22	C	1.216710	0.545672	-0.768113
C23	C	1.221786	0.551741	-0.869014
C24	C	0.725865	0.503538	-0.503517
C25	C	0.684568	0.559389	-0.559221
C26	C	0.590164	0.553905	-0.553761
C27	C	0.820278	0.509021	-0.508976
C28	C	1.422249	0.544125	-0.544009
C29	C	1.514915	0.549536	-0.549411
C30	C	1.216765	0.296035	-0.518464
C31	C	1.221865	0.195725	-0.512979
C32	C	1.279373	1.053927	-0.450297
C33	C	1.274666	1.148184	-0.455489
C34	C	1.173770	1.149001	-0.565283
C35	C	1.178477	1.054744	-0.560092
C36	C	1.231279	1.007210	-0.502596
C37	C	1.235981	0.912950	-0.497400
C38	C	1.135090	0.913769	-0.607198
C39	C	1.130383	1.008026	-0.612390
C40	C	1.130541	0.441490	-1.046092
C41	C	1.135309	0.447190	-1.140897
C42	C	1.236083	0.568844	-1.153432
C43	C	1.231316	0.563144	-1.058626
C44	C	1.178544	0.499464	-1.004959
C45	C	1.173782	0.493761	-0.910153
C46	C	1.274551	0.615419	-0.922689
C47	C	1.279318	0.621119	-1.017494
C48	C	1.192981	0.517178	-0.295475
C49	C	1.188079	0.510864	-0.194570
H50	H	0.720114	0.611323	-0.611013
C51	C	1.293338	0.637903	-1.211864
C52	C	1.287241	0.630476	-1.303693
C53	C	1.339975	0.694076	-1.357547
H54	H	1.277321	0.696935	-1.199038
H55	H	1.349271	0.627039	-1.198940
H56	H	1.231320	0.641347	-1.316612
H57	H	1.303265	0.571458	-1.316547
H58	H	1.395908	0.683212	-1.344623
H59	H	1.323953	0.753104	-1.344714
H60	H	1.335851	0.689040	-1.419859
C61	C	1.336632	0.690342	-1.075609
C62	C	1.377638	0.739906	-1.019291
C63	C	1.430436	0.803688	-1.072792
H64	H	1.376637	0.660264	-1.112836
H65	H	1.304620	0.730079	-1.112867
H66	H	1.409648	0.700174	-0.982049
H67	H	1.337654	0.770003	-0.982064
H68	H	1.398424	0.843426	-1.110050
H69	H	1.470436	0.773603	-1.110017
H70	H	1.458259	0.837331	-1.034589
H71	H	1.313641	0.662623	-0.889190
H72	H	0.690322	0.451608	-0.451730
H73	H	1.278973	0.874248	-0.450581
H74	H	1.313831	1.186218	-0.412904
C75	C	1.336772	1.002477	-0.387848
C76	C	1.377894	1.063567	-0.343167
C77	C	1.430783	1.016207	-0.285638
H78	H	1.304837	0.961512	-0.344314
H79	H	1.376703	0.969886	-0.422674
H80	H	1.337969	1.096143	-0.308343
H81	H	1.409845	1.104534	-0.386678
H82	H	1.470714	0.983616	-0.320464
H83	H	1.398841	0.975243	-0.242110
H84	H	1.458697	1.057650	-0.255321
C85	C	1.116465	1.200778	-0.627616
C86	C	1.122628	1.293321	-0.620951
C87	C	1.069842	1.341044	-0.678348
H88	H	1.132400	1.189784	-0.688517
H89	H	1.060535	1.181377	-0.610156
H90	H	1.178546	1.312716	-0.638415
H91	H	1.106686	1.304342	-0.560062
H92	H	1.013911	1.321643	-0.660888
H93	H	1.085782	1.330043	-0.739246
H94	H	1.074010	1.403839	-0.673827
H95	H	1.096220	0.399981	-1.174383
H96	H	1.087395	1.046742	-0.659204
C97	C	1.082967	0.862887	-0.663947
C98	C	1.098401	0.770167	-0.647112
C99	C	1.050409	0.723267	-0.699377
H100	H	1.025492	0.874220	-0.648248
H101	H	1.097431	0.882627	-0.726528
H102	H	1.083932	0.750433	-0.584545
H103	H	1.155868	0.758806	-0.662816
H104	H	1.064873	0.743007	-0.761958
H105	H	0.992936	0.734608	-0.683673
H106	H	1.060880	0.660353	-0.687968
H107	H	1.130816	0.441906	-0.866458
H108	H	1.087581	0.389632	-1.002395
