data_functionalizedCrystal
_audit_creation_method	'MofGen! by Chris Wilmer'
_symmetry_space_group_name_H-M	'P1'
_symmetry_Int_Tables_number	1
_symmetry_cell_setting	triclinic
loop_
_symmetry_equiv_pos_as_xyz
  x,y,z
_cell_length_a	16.625548
_cell_length_b	29.839131
_cell_length_c	29.839135
_cell_angle_alpha	90.007589
_cell_angle_beta	90.006463
_cell_angle_gamma	90.042488
loop_
_atom_site_label
_atom_site_type_symbol
_atom_site_fract_x
_atom_site_fract_y
_atom_site_fract_z
Zn1	Zn	1.232462	-0.178948	0.254008
Zn2	Zn	1.232354	-0.254047	0.178878
Zn3	Zn	1.097657	-0.178933	0.178891
Zn4	Zn	1.097550	-0.254054	0.253979
O5	O	1.165006	-0.216496	0.216439
O6	O	1.345280	-0.188914	0.244049
O7	O	1.214486	-0.244074	0.116013
O8	O	1.115629	-0.116068	0.188872
O9	O	1.345200	-0.244089	0.188851
O10	O	1.214670	-0.116079	0.244061
O11	O	1.115524	-0.188888	0.116022
O12	O	0.984810	-0.188895	0.188844
O13	O	1.115446	-0.244100	0.316850
O14	O	0.984731	-0.244085	0.244012
O15	O	1.214566	-0.188920	0.316871
O16	O	1.214381	-0.316915	0.188823
O17	O	1.115341	-0.316920	0.244000
C18	C	0.955515	-0.216489	0.216426
C19	C	0.865894	-0.216497	0.216432
C20	C	0.537718	-0.216500	0.216451
C21	C	0.629026	-0.216498	0.216444
C22	C	0.701803	-0.216499	0.216441
C23	C	0.793117	-0.216496	0.216435
C24	C	1.164860	-0.333218	0.216417
C25	C	1.164871	-0.383153	0.216422
C26	C	1.216669	-0.692781	0.187751
C27	C	1.216769	-0.880454	0.187768
O28	O	1.260694	-0.904706	0.163373
N29	N	1.165173	-0.903938	0.216473
C30	C	1.113552	-0.880500	0.245178
O31	O	1.069674	-0.904781	0.269596
C32	C	1.113457	-0.692828	0.245162
C33	C	1.165051	-0.669347	0.216452
C34	C	1.268260	-0.669300	0.159043
C35	C	1.268231	-0.622384	0.159038
C36	C	1.216612	-0.598950	0.187739
C37	C	1.165022	-0.622431	0.216446
C38	C	1.061840	-0.669391	0.273869
C39	C	1.061823	-0.622470	0.273863
C40	C	1.113417	-0.598989	0.245153
C41	C	1.113375	-0.552082	0.245142
N42	N	1.164971	-0.528598	0.216437
C43	C	1.216590	-0.552032	0.187736
C44	C	1.113604	-0.979031	0.245183
C45	C	1.113627	-1.025949	0.245186
C46	C	1.216845	-1.025899	0.187777
C47	C	1.216818	-0.978980	0.187772
C48	C	1.165200	-0.955547	0.216478
C49	C	1.216526	-0.453506	0.187725
C50	C	1.216490	-0.406587	0.187721
C51	C	1.113275	-0.406640	0.245131
C52	C	1.113307	-0.453556	0.245134
C53	C	1.164939	-0.476988	0.216430
O54	O	1.069479	-0.527801	0.269528
O55	O	1.260474	-0.527744	0.163327
C56	C	1.216698	-0.739696	0.187756
C57	C	1.165108	-0.763178	0.216464
C58	C	1.113489	-0.739744	0.245165
C59	C	1.165130	-0.810096	0.216467
C60	C	1.216749	-0.833530	0.187766
C61	C	1.268345	-0.810046	0.159061
C62	C	1.268317	-0.763131	0.159055
C63	C	1.061893	-0.763227	0.273870
C64	C	1.061925	-0.810143	0.273873
C65	C	1.113543	-0.833577	0.245172
C66	C	1.375314	-0.216502	0.216452
C67	C	1.464935	-0.216505	0.216457
C68	C	1.165006	-0.216512	0.333617
C69	C	1.165006	-0.216519	0.383552
C70	C	1.165174	-0.099317	0.216471
C71	C	1.165245	-0.049383	0.216485
C72	C	1.216616	-0.187767	0.693209
C73	C	1.216622	-0.187762	0.880882
O74	O	1.260486	-0.163316	0.905159
N75	N	1.165019	-0.216491	0.904337
C76	C	1.113407	-0.245222	0.880870
O77	O	1.069510	-0.269654	0.905126
C78	C	1.113398	-0.245224	0.693198
C79	C	1.165010	-0.216496	0.669746
C80	C	1.268224	-0.159041	0.669757
C81	C	1.268225	-0.159044	0.622842
C82	C	1.216618	-0.187774	0.599378
C83	C	1.165011	-0.216500	0.622831
C84	C	1.061782	-0.273952	0.669732
C85	C	1.061783	-0.273949	0.622811
C86	C	1.113395	-0.245221	0.599359
C87	C	1.113406	-0.245232	0.552452
N88	N	1.165009	-0.216503	0.528997
C89	C	1.216615	-0.187774	0.552460
C90	C	1.113417	-0.245219	0.979401
C91	C	1.113420	-0.245219	1.026319
C92	C	1.216634	-0.187758	1.026328
C93	C	1.216635	-0.187761	0.979409
C94	C	1.165020	-0.216490	0.955946
C95	C	1.216614	-0.187783	0.453935
C96	C	1.216613	-0.187790	0.407015
C97	C	1.113396	-0.245249	0.407010
C98	C	1.113400	-0.245243	0.453926
C99	C	1.165011	-0.216507	0.477387
O100	O	1.069558	-0.269662	0.528146
O101	O	1.260493	-0.163338	0.528197
C102	C	1.216615	-0.187764	0.740125
C103	C	1.165008	-0.216490	0.763577
C104	C	1.113401	-0.245219	0.740114
C105	C	1.165011	-0.216490	0.810495
C106	C	1.216617	-0.187760	0.833958
C107	C	1.268220	-0.159031	0.810503
C108	C	1.268221	-0.159034	0.763588
C109	C	1.061798	-0.273948	0.763568
C110	C	1.061802	-0.273943	0.810484
C111	C	1.113408	-0.245214	0.833947
C112	C	1.165006	-0.216491	1.099716
C113	C	1.165026	-0.216490	1.049782
H114	H	1.258504	-0.387470	0.164340
N115	N	1.272469	-0.953654	0.156811
H116	H	1.259998	-0.961833	0.124706
H117	H	1.330049	-0.961798	0.163858
H118	H	1.019754	-0.297345	0.688819
H119	H	1.071245	-0.387553	0.268498
N120	N	1.272283	-0.156803	0.381722
H121	H	1.264459	-0.161164	0.348439
H122	H	1.329856	-0.163800	0.389930
H123	H	1.019742	-0.297340	0.603711
N124	N	1.272213	-0.478775	0.156767
H125	H	1.304886	-0.456775	0.138582
H126	H	1.239435	-0.498266	0.135960
H127	H	1.258875	-1.044987	0.164408
N128	N	1.006212	-0.737954	0.304825
H129	H	1.018686	-0.746105	0.336931
H130	H	0.948642	-0.746169	0.297775
N131	N	1.272275	-0.156787	0.479235
H132	H	1.304964	-0.138592	0.457253
H133	H	1.309567	-0.175072	0.498703
H134	H	1.310246	-0.603268	0.135661
H135	H	1.310251	-0.135650	0.603751
H136	H	1.258661	-0.164367	0.960317
H137	H	1.019904	-0.829257	0.297252
H138	H	1.019823	-0.688502	0.297245
H139	H	1.310298	-0.688375	0.135671
N140	N	1.057966	-1.051272	0.276144
H141	H	1.025265	-1.029303	0.294324
H142	H	1.090761	-1.070717	0.296955
H143	H	1.310243	-0.135640	0.829615
H144	H	1.310329	-0.744015	0.135677
H145	H	1.310248	-0.135644	0.688856
H146	H	1.258655	-0.164366	1.045439
N147	N	1.057764	-0.276210	1.051611
H148	H	1.025073	-0.294408	1.029624
H149	H	1.020475	-0.257923	1.071078
H150	H	1.019774	-0.297341	0.829574
N151	N	1.057727	-0.276198	0.954098
H152	H	1.025038	-0.294392	0.976080
H153	H	1.090497	-0.296994	0.934625
N154	N	1.057923	-0.953759	0.276144
H155	H	1.025243	-0.975760	0.294325
H156	H	1.020625	-0.934319	0.257836
N157	N	1.057739	-0.276235	0.381699
H158	H	1.065573	-0.271874	0.348419
H159	H	1.000164	-0.269239	0.389896
N160	N	1.057745	-0.276233	0.479224
H161	H	1.025056	-0.294435	0.457239
H162	H	1.020453	-0.257943	0.498687
H163	H	1.310249	-0.135641	0.744497
H164	H	1.019774	-0.297344	0.744469
H165	H	1.019790	-0.603393	0.297240
H166	H	1.310373	-0.829134	0.135690
N167	N	1.057653	-0.478886	0.276094
H168	H	1.024946	-0.456919	0.294274
H169	H	1.090457	-0.498325	0.296905
