data_functionalizedCrystal
_audit_creation_method	'MofGen! by Chris Wilmer'
_symmetry_space_group_name_H-M	'P1'
_symmetry_Int_Tables_number	1
_symmetry_cell_setting	triclinic
loop_
_symmetry_equiv_pos_as_xyz
  x,y,z
_cell_length_a	10.654550
_cell_length_b	9.065218
_cell_length_c	9.130313
_cell_angle_alpha	90.000552
_cell_angle_beta	89.996220
_cell_angle_gamma	84.750394
loop_
_atom_site_label
_atom_site_type_symbol
_atom_site_fract_x
_atom_site_fract_y
_atom_site_fract_z
O1	O	1.668655	0.207228	-0.121914
O2	O	1.303255	0.226972	-0.121889
O3	O	1.493507	0.002416	-0.121899
O4	O	1.478402	0.431784	-0.121904
O5	O	1.493505	0.002422	0.121700
O6	O	1.303252	0.226978	0.121709
O7	O	1.668653	0.207234	0.121685
Cu8	Cu	1.485952	0.217107	0.143940
Cu9	Cu	1.485955	0.217100	-0.144144
O10	O	1.478400	0.431790	0.121695
C11	C	1.256450	0.225525	-0.000087
C12	C	1.116989	0.221188	-0.000078
C13	C	1.038027	0.353403	-0.000101
C14	C	0.906990	0.349319	-0.000126
C15	C	0.933890	0.080793	-0.000112
C16	C	1.064925	0.084879	-0.000076
C17	C	1.022496	0.508434	-0.000115
C18	C	0.891459	0.504350	-0.000141
C19	C	1.492055	-0.052559	-0.000102
C20	C	1.487714	-0.216378	-0.000109
C21	C	1.715457	0.208681	-0.000120
C22	C	1.854918	0.213018	-0.000139
C23	C	1.479852	0.486766	-0.000106
C24	C	1.484193	0.650585	-0.000108
N25	N	1.485959	0.217111	0.346563
N26	N	1.485957	0.217084	-0.346767
C27	C	1.570225	0.117712	0.423210
C28	C	1.570222	0.117694	0.576547
C29	C	1.401682	0.316488	0.576575
C30	C	1.401681	0.316497	0.423241
C31	C	1.667534	0.002944	0.423195
C32	C	1.667531	0.002926	0.576532
H33	H	1.058348	0.557796	-0.105288
C34	C	0.830994	0.566648	0.140258
C35	C	0.880108	0.483530	0.259778
C36	C	0.824454	0.540879	0.389139
H37	H	0.742415	0.561683	0.135629
H38	H	0.848527	0.666903	0.151576
H39	H	0.862565	0.383301	0.248462
H40	H	0.968681	0.488487	0.264455
H41	H	0.841987	0.641133	0.400457
H42	H	0.735877	0.535911	0.384494
H43	H	0.857778	0.484500	0.470249
C44	C	0.836357	0.582227	-0.136202
C45	C	0.933653	0.633945	-0.219403
C46	C	0.882943	0.705676	-0.344753
H47	H	0.778703	0.663424	-0.108081
H48	H	0.793628	0.514589	-0.192932
H49	H	0.976361	0.701578	-0.162684
H50	H	0.991314	0.552778	-0.247562
H51	H	0.840214	0.638038	-0.401483
H52	H	0.825289	0.786866	-0.316617
H53	H	0.948951	0.740763	-0.401227
H54	H	1.333054	0.397423	0.360836
C55	C	1.789287	0.050658	0.359525
C56	C	1.847024	-0.063875	0.273224
C57	C	1.959160	-0.019941	0.214516
H58	H	1.844379	0.072265	0.436838
H59	H	1.771090	0.136540	0.300902
H60	H	1.865225	-0.149732	0.331843
H61	H	1.791968	-0.085498	0.195887
H62	H	1.940963	0.065942	0.155893
H63	H	2.014241	0.001667	0.291839
H64	H	1.998342	-0.097638	0.155944
C65	C	1.310045	0.424454	0.659565
C66	C	1.236226	0.511481	0.559615
C67	C	1.151783	0.610944	0.636007
H68	H	1.355766	0.486506	0.719394
H69	H	1.257097	0.370829	0.719342
H70	H	1.289168	0.565103	0.499863
H71	H	1.190478	0.449470	0.499783
H72	H	1.098834	0.557318	0.695784
H73	H	1.197514	0.672985	0.695833
H74	H	1.101679	0.669994	0.568203
H75	H	1.636593	-0.104243	0.624083
C76	C	1.061986	0.589527	0.135644
C77	C	1.122523	0.713538	0.093524
C78	C	1.158905	0.788281	0.218543
H79	H	1.118053	0.525130	0.192389
H80	H	0.989522	0.620531	0.192269
H81	H	1.194977	0.682532	0.036924
H82	H	1.066480	0.777970	0.036798
H83	H	1.086441	0.819285	0.275167
H84	H	1.214967	0.723872	0.275279
H85	H	1.199972	0.872438	0.189982
C86	C	1.638071	-0.148199	0.367782
C87	C	1.519372	-0.178878	0.419069
C88	C	1.492178	-0.318084	0.368041
H89	H	1.700199	-0.221775	0.402420
H90	H	1.637994	-0.148230	0.263727
H91	H	1.519459	-0.178859	0.523103
H92	H	1.457219	-0.105339	0.384436
H93	H	1.492101	-0.318115	0.263985
H94	H	1.554313	-0.391648	0.402682
H95	H	1.411634	-0.338911	0.402820
H96	H	1.764142	0.028206	0.618142
H97	H	0.891483	-0.030185	-0.000133
H98	H	1.129212	-0.022783	-0.000036
