data_functionalizedCrystal
_audit_creation_method	'MofGen! by Chris Wilmer'
_symmetry_space_group_name_H-M	'P1'
_symmetry_Int_Tables_number	1
_symmetry_cell_setting	triclinic
loop_
_symmetry_equiv_pos_as_xyz
  x,y,z
_cell_length_a	27.440280
_cell_length_b	20.875492
_cell_length_c	20.875641
_cell_angle_alpha	55.988504
_cell_angle_beta	89.994875
_cell_angle_gamma	58.311430
loop_
_atom_site_label
_atom_site_type_symbol
_atom_site_fract_x
_atom_site_fract_y
_atom_site_fract_z
Zr1	Zr	0.436323	0.750487	-0.127981
O2	O	0.349396	0.900520	-0.242412
O3	O	0.466997	0.606193	-0.087588
O4	O	0.456876	0.758750	-0.234753
O5	O	0.362921	0.739444	0.014794
O6	O	0.537078	0.758740	-0.234756
O7	O	0.359517	0.747963	-0.095247
O8	O	0.555183	0.485844	0.028495
O9	O	0.344816	1.012340	-0.248457
O10	O	0.535069	0.663410	-0.076784
O11	O	0.477755	0.657060	0.005341
O12	O	0.465839	0.836676	-0.167926
O13	O	0.408525	0.830325	-0.085802
Zr14	Zr	0.569665	0.736882	0.047516
Zr15	Zr	0.564236	0.750470	-0.127987
Zr16	Zr	0.441752	0.736899	0.047521
Zr17	Zr	0.429019	0.928827	-0.137623
Zr18	Zr	0.576969	0.558543	0.057157
O19	O	0.538992	0.881176	0.007122
O20	O	0.531272	0.900496	-0.242420
O21	O	0.357115	0.881200	0.007130
O22	O	0.656593	0.586850	0.161947
O23	O	0.648873	0.606169	-0.087595
O24	O	0.474716	0.586874	0.161954
O25	O	0.643067	0.747926	-0.095259
O26	O	0.549113	0.728619	0.154287
O27	O	0.468910	0.728630	0.154291
O28	O	0.646471	0.739406	0.014782
O29	O	0.446490	1.012326	-0.248462
O30	O	0.559498	0.475043	0.167996
O31	O	0.661172	0.475030	0.167992
O32	O	0.656857	0.485830	0.028491
O33	O	0.349132	1.001539	-0.108956
O34	O	0.450806	1.001526	-0.108961
O35	O	0.540150	0.650694	0.087461
O36	O	0.597463	0.657044	0.005336
O37	O	0.528233	0.830310	-0.085807
O38	O	0.470920	0.823960	-0.003682
C39	C	0.512130	0.520609	-0.028172
C40	C	0.515231	0.444899	-0.024079
C41	C	0.468103	0.475655	-0.086121
C42	C	0.471016	0.404533	-0.082305
C43	C	0.521057	0.302656	-0.016442
C44	C	0.568190	0.271900	0.045603
C45	C	0.565278	0.343021	0.041783
C46	C	0.534978	0.082836	0.001839
C47	C	0.537886	0.011714	0.005656
C48	C	0.440712	0.144353	-0.122253
C49	C	0.437803	0.215470	-0.126065
C50	C	0.484937	0.184708	-0.064023
N51	N	0.524036	0.229956	-0.012538
N52	N	0.481961	0.257408	-0.067931
C53	C	0.342994	0.743706	-0.040226
C54	C	0.288691	0.743713	-0.040224
C55	C	-0.049880	0.748357	-0.100855
C56	C	-0.100898	0.748350	-0.100855
O57	O	-0.128865	0.752304	-0.152393
N58	N	-0.124540	0.743658	-0.040234
C59	C	-0.097158	0.738963	0.020397
O60	O	-0.121953	0.734971	0.071960
C61	C	-0.046139	0.738963	0.020400
C62	C	-0.022503	0.743665	-0.040231
C63	C	-0.026243	0.753057	-0.161480
C64	C	0.024770	0.753066	-0.161481
C65	C	0.052147	0.748374	-0.100857
C66	C	0.028510	0.743674	-0.040231
C67	C	-0.018755	0.734261	0.081034
C68	C	0.032268	0.734260	0.081032
C69	C	0.055904	0.738962	0.020401
C70	C	0.106901	0.738990	0.020392
N71	N	0.130543	0.743682	-0.040229
C72	C	0.103166	0.748374	-0.100853
C73	C	-0.204302	0.738962	0.020387
C74	C	-0.255324	0.738970	0.020380
C75	C	-0.259059	0.748355	-0.100871
C76	C	-0.208039	0.748354	-0.100868
C77	C	-0.180660	0.743654	-0.040235
C78	C	0.210298	0.748393	-0.100851
C79	C	0.261315	0.748405	-0.100848
C80	C	0.265047	0.739015	0.020406
C81	C	0.214033	0.739007	0.020401
C82	C	0.186661	0.743693	-0.040231
O83	O	0.134902	0.735034	0.071906
O84	O	0.127972	0.752352	-0.152402
C85	C	0.662994	0.743664	-0.040240
C86	C	0.717297	0.743656	-0.040242
C87	C	0.496203	0.760681	-0.259760
C88	C	0.493899	0.766449	-0.334265
C89	C	0.493858	0.966760	-0.052293
C90	C	0.490757	1.042470	-0.056386
C91	C	0.528953	0.678719	-0.321694
C92	C	0.526783	0.684144	-0.391703
C93	C	0.489560	0.777302	-0.474282
C94	C	0.454501	0.865039	-0.486851
C95	C	0.456669	0.859612	-0.416843
C96	C	0.479199	0.803231	-0.688762
C97	C	0.477035	0.808651	-0.758771
C98	C	0.549316	0.627756	-0.663618
C99	C	0.551483	0.622337	-0.593613
C100	C	0.516422	0.710074	-0.606188
N101	N	0.487342	0.782850	-0.545843
N102	N	0.518637	0.704525	-0.534627
C103	C	0.509785	0.726689	0.179294
C104	C	0.512090	0.720920	0.253800
C105	C	0.672131	0.520588	-0.028179
C106	C	0.729534	0.444871	-0.024088
C107	C	0.518921	0.503613	0.191354
C108	C	0.524327	0.422135	0.269953
C109	C	0.678921	0.503592	0.191348
C110	C	0.738630	0.422106	0.269944
C111	C	0.327067	0.983778	-0.271813
C112	C	0.267359	1.065263	-0.350409
C113	C	0.333858	0.966782	-0.052286
C114	C	0.276454	1.042499	-0.056377
C115	C	0.487067	0.983757	-0.271820
C116	C	0.481662	1.065235	-0.350418
C117	C	0.723922	0.412637	-0.065040
C118	C	0.777853	0.341504	-0.061213
C119	C	0.837395	0.302601	-0.016429
C120	C	0.843006	0.334842	0.024524
C121	C	0.789076	0.405979	0.020691
C122	C	0.559435	0.380548	0.349737
C123	C	0.564511	0.304000	0.423595
C124	C	0.534483	0.269035	0.417667
C125	C	0.499371	0.310629	0.337875
C126	C	0.494291	0.387181	0.264018
C127	C	0.796592	0.387155	0.263985
C128	C	0.852698	0.310601	0.337827
C129	C	0.850841	0.268995	0.417628
C130	C	0.792873	0.303954	0.423584
C131	C	0.736768	0.380511	0.349743
C132	C	0.209396	1.100223	-0.344451
C133	C	0.153289	1.176799	-0.418294
C134	C	0.155146	1.218408	-0.498095
C135	C	0.213114	1.183445	-0.504052
C136	C	0.269220	1.106875	-0.430209
C137	C	0.282066	1.074741	-0.015433
C138	C	0.228134	1.145895	-0.019280
C139	C	0.168591	1.184801	-0.064067
C140	C	0.162980	1.152556	-0.105016
C141	C	0.216912	1.081408	-0.101174
C142	C	0.511698	1.100175	-0.344463
C143	C	0.506631	1.176722	-0.418308
C144	C	0.471524	1.218333	-0.498107
C145	C	0.441487	1.183386	-0.504060
C146	C	0.446558	1.106835	-0.430216
H147	H	0.402338	0.169388	-0.172766
Cl148	Cl	0.798942	0.439450	0.163674
H149	H	0.578636	-0.071244	0.059293
Cl150	Cl	-0.285039	0.733078	0.096594
H151	H	0.109456	1.280755	-0.558216
Cl152	Cl	0.356913	1.025850	0.040872
Cl153	Cl	0.407701	0.982152	-0.590665
H154	H	0.881304	0.244676	-0.013315
Cl155	Cl	0.921380	0.172749	0.510451
Cl156	Cl	0.597192	0.424485	0.357211
Cl157	Cl	0.917865	0.285920	0.080825
Cl158	Cl	0.555837	1.047879	-0.244154
H159	H	0.573359	0.057778	0.052358
H160	H	0.465705	0.421031	0.199058
H161	H	0.428122	0.931052	-0.427084
Cl162	Cl	0.408787	1.062929	-0.437717
H163	H	0.412904	1.217277	-0.569042
H164	H	0.608937	0.188944	0.099227
H165	H	0.214619	1.217333	-0.569034
H166	H	0.427348	0.558606	-0.139746
Cl167	Cl	0.649074	0.461533	-0.121351
Cl168	Cl	0.342085	1.062928	-0.437714
H169	H	0.581796	0.546478	-0.526377
Cl170	Cl	0.088122	1.201472	-0.161312
Cl171	Cl	0.207046	1.047930	-0.244139
H172	H	0.559266	0.602859	-0.254458
H173	H	0.232715	1.172136	0.014070
Cl174	Cl	0.299471	0.733118	0.096616
H175	H	0.593105	0.270143	0.488557
Cl176	Cl	0.570851	0.573849	-0.375894
H177	H	0.791370	0.270068	0.488568
H178	H	0.689575	0.408959	0.354606
H179	H	0.280556	0.752237	-0.150224
Cl180	Cl	-0.060652	0.758957	-0.237704
Cl181	Cl	0.209846	1.040878	-0.152646
Cl182	Cl	0.593386	0.517465	-0.647817
H183	H	0.793654	0.432214	0.054045
H184	H	0.531090	1.205168	-0.413444
H185	H	0.446721	0.884515	-0.826013
Cl186	Cl	0.540877	0.172796	0.510525
H187	H	0.124682	1.242733	-0.067189
Cl188	Cl	0.461626	0.266660	0.330438
H189	H	0.106095	1.205253	-0.413428
H190	H	0.603655	0.317972	0.092304
Cl191	Cl	0.465153	1.314573	-0.590932
H192	H	0.432639	0.429584	-0.132826
H193	H	0.397062	0.298422	-0.179709
H194	H	0.188018	0.752207	-0.150222
H195	H	-0.188798	0.752183	-0.150238
H196	H	-0.281357	0.752173	-0.150234
Cl197	Cl	0.925564	0.266665	0.330320
H198	H	-0.182015	0.735142	0.069760
Cl199	Cl	0.054482	0.758968	-0.237700
H200	H	-0.037992	0.730431	0.130405
Cl201	Cl	0.184315	0.733112	0.096616
Cl202	Cl	0.066685	0.728348	0.157263
H203	H	0.773272	0.315262	-0.094563
Cl204	Cl	0.435101	0.913530	-0.704580
