data_functionalizedCrystal
_audit_creation_method	'MofGen! by Chris Wilmer'
_symmetry_space_group_name_H-M	'P1'
_symmetry_Int_Tables_number	1
_symmetry_cell_setting	triclinic
loop_
_symmetry_equiv_pos_as_xyz
  x,y,z
_cell_length_a	14.971491
_cell_length_b	17.699092
_cell_length_c	13.448316
_cell_angle_alpha	89.995078
_cell_angle_beta	89.991393
_cell_angle_gamma	83.451302
loop_
_atom_site_label
_atom_site_type_symbol
_atom_site_fract_x
_atom_site_fract_y
_atom_site_fract_z
O1	O	1.186609	0.098652	-0.082731
O2	O	1.686609	0.598652	0.417269
O3	O	0.926169	0.110459	-0.082723
O4	O	1.426169	0.610459	0.417277
O5	O	1.063743	-0.005615	-0.082725
O6	O	1.563743	0.494385	0.417275
O7	O	1.049035	0.214726	-0.082729
O8	O	1.549035	0.714726	0.417271
O9	O	1.063726	-0.005622	0.082659
O10	O	1.563726	0.494378	0.582659
O11	O	0.926152	0.110452	0.082661
O12	O	1.426152	0.610452	0.582661
O13	O	1.186592	0.098644	0.082653
O14	O	1.686592	0.598644	0.582653
Cu15	Cu	1.056370	0.104547	0.097758
Cu16	Cu	1.556370	0.604547	0.597758
Cu17	Cu	1.056391	0.104556	-0.097828
Cu18	Cu	1.556391	0.604556	0.402172
O19	O	1.049018	0.214719	0.082655
O20	O	1.549018	0.714719	0.582655
C21	C	0.892838	0.109927	-0.000030
C22	C	1.392838	0.609927	0.499970
C23	C	0.793546	0.108342	-0.000027
C24	C	1.293546	0.608342	0.499973
C25	C	0.365873	0.101509	-0.090201
C26	C	0.865873	0.601509	0.409799
C27	C	0.459169	0.102995	-0.090197
C28	C	0.959169	0.602995	0.409803
C29	C	0.505802	0.103740	-0.000043
C30	C	1.005802	0.603740	0.499957
C31	C	0.459137	0.102990	0.090114
C32	C	0.959137	0.602990	0.590114
C33	C	0.365845	0.101498	0.090109
C34	C	0.865845	0.601498	0.590109
C35	C	0.653589	0.106101	0.090117
C36	C	1.153589	0.606101	0.590117
C37	C	0.746887	0.107595	0.090122
C38	C	1.246887	0.607595	0.590122
C39	C	0.746912	0.107599	-0.090189
C40	C	1.246912	0.607599	0.409811
C41	C	0.653620	0.106107	-0.090193
C42	C	1.153620	0.606107	0.409807
C43	C	0.606961	0.105358	-0.000037
C44	C	1.106961	0.605358	0.499963
C45	C	1.063206	-0.033817	-0.000034
C46	C	1.563206	0.466183	0.499966
C47	C	1.061622	-0.117839	-0.000039
C48	C	1.561622	0.382161	0.499961
C49	C	1.060888	-0.157304	-0.090191
C50	C	1.560888	0.342696	0.409809
C51	C	1.059393	-0.236251	-0.090192
C52	C	1.559393	0.263749	0.409808
C53	C	1.058638	-0.275731	-0.000040
C54	C	1.558638	0.224269	0.499960
C55	C	1.059369	-0.236260	0.090119
C56	C	1.559369	0.263740	0.590119
C57	C	1.060857	-0.157314	0.090119
C58	C	1.560857	0.342686	0.590119
C59	C	1.053365	-0.554640	0.090120
C60	C	1.553365	-0.054640	0.590120
C61	C	1.051879	-0.633592	0.090113
C62	C	1.551879	-0.133592	0.590113
C63	C	1.051901	-0.633577	-0.090190
C64	C	1.551901	-0.133577	0.409810
C65	C	1.053390	-0.554631	-0.090190
C66	C	1.553390	-0.054631	0.409810
C67	C	1.054115	-0.515166	-0.000032
C68	C	1.554115	-0.015166	0.499968
C69	C	1.055734	-0.429563	-0.000032
C70	C	1.555734	0.070437	0.499968
C71	C	1.057025	-0.361334	-0.000039
C72	C	1.557025	0.138666	0.499961
C73	C	1.219923	0.099177	-0.000042
C74	C	1.719923	0.599177	0.499958
C75	C	1.319215	0.100761	-0.000051
C76	C	1.819215	0.600761	0.499949
C77	C	1.049554	0.242920	-0.000038
C78	C	1.549554	0.742920	0.499962
C79	C	1.051139	0.326942	-0.000040
C80	C	1.551139	0.826942	0.499960
N81	N	1.056362	0.104541	0.235322
N82	N	1.556362	0.604541	0.735322
N83	N	1.056406	0.104556	-0.235392
N84	N	1.556406	0.604556	0.264608
C85	C	1.117299	0.053164	0.287362
C86	C	1.617299	0.553164	0.787362
C87	C	1.117305	0.053164	0.391465
C88	C	1.617305	0.553164	0.891465
C89	C	1.056377	0.104544	0.443527
C90	C	1.556377	0.604544	0.943527
C91	C	0.995434	0.155923	0.391480
C92	C	1.495434	0.655923	0.891480
C93	C	0.995425	0.155919	0.287379
C94	C	1.495425	0.655919	0.787379
C95	C	0.995459	0.155928	0.608460
C96	C	1.495459	0.655928	1.108460
C97	C	0.995469	0.155933	0.712569
C98	C	1.495469	0.655933	1.212569
C99	C	1.117339	0.053173	0.712546
C100	C	1.617339	0.553173	1.212546
C101	C	1.117329	0.053169	0.608445
C102	C	1.617329	0.553169	1.108445
C103	C	1.056387	0.104549	0.556405
C104	C	1.556387	0.604549	1.056405
H105	H	0.327855	0.100897	0.163518
H106	H	0.827855	0.600897	0.663518
N107	N	1.054160	-0.512085	0.187360
N108	N	1.554160	-0.012085	0.687360
H109	H	1.110202	-0.485413	0.191376
H110	H	1.610202	0.014587	0.691376
H111	H	0.999314	-0.473288	0.191328
H112	H	1.499314	0.026712	0.691328
H113	H	1.166923	0.011329	0.433835
H114	H	1.666923	0.511329	0.933835
N115	N	0.929723	0.211339	0.447637
N116	N	1.429723	0.711339	0.947637
H117	H	0.939903	0.265071	0.429505
H118	H	1.439903	0.765071	0.929505
H119	H	0.866290	0.202466	0.429522
H120	H	1.366290	0.702466	0.929522
H121	H	1.061508	-0.125165	-0.163603
H122	H	1.561508	0.374835	0.336397
H123	H	1.166959	0.011337	0.754923
H124	H	1.666959	0.511337	1.254923
H125	H	0.945803	0.197754	0.245009
H126	H	1.445803	0.697754	0.745009
H127	H	1.166917	0.011328	0.244980
H128	H	1.666917	0.511328	0.744980
N129	N	0.929765	0.211355	0.768725
N130	N	1.429765	0.711355	1.268725
H131	H	0.891155	0.243902	0.719964
H132	H	1.391155	0.743902	1.219964
H133	H	0.890296	0.182327	0.811942
H134	H	1.390296	0.682327	1.311942
H135	H	1.061441	-0.125181	0.163530
H136	H	1.561441	0.374819	0.663530
N137	N	0.315578	0.100711	-0.187439
N138	N	0.815578	0.600711	0.312561
H139	H	0.359297	0.101408	-0.244547
H140	H	0.859297	0.601408	0.255453
H141	H	0.284223	0.053209	-0.191365
H142	H	0.784223	0.553209	0.308635
H143	H	0.497155	0.103599	-0.163606
H144	H	0.997155	0.603599	0.336394
H145	H	0.615652	0.105506	-0.163605
H146	H	1.115652	0.605506	0.336395
H147	H	0.945830	0.197765	0.566093
H148	H	1.445830	0.697765	1.066093
H149	H	1.058748	-0.268411	0.163522
H150	H	1.558748	0.231589	0.663522
N151	N	1.058642	-0.278857	-0.187400
N152	N	1.558642	0.221143	0.312600
H153	H	1.113460	-0.317689	-0.191355
H154	H	1.613460	0.182311	0.308645
H155	H	1.002574	-0.305493	-0.191358
H156	H	1.502574	0.194507	0.308642
N157	N	0.797230	0.108409	-0.187432
N158	N	1.297230	0.608409	0.312568
H159	H	0.863407	0.109464	-0.173752
H160	H	1.363407	0.609464	0.326248
H161	H	0.788280	0.061270	-0.226803
H162	H	1.288280	0.561270	0.273197
N163	N	0.797189	0.108395	0.187357
N164	N	1.297189	0.608395	0.687357
H165	H	0.753478	0.107688	0.244470
H166	H	1.253478	0.607688	0.744470
H167	H	0.843251	0.062131	0.191277
H168	H	1.343251	0.562131	0.691277
N169	N	1.183048	-0.002241	0.552289
N170	N	1.683048	0.497759	1.052289
H171	H	1.221655	-0.034791	0.601050
H172	H	1.721655	0.465209	1.101050
H173	H	1.148875	-0.035750	0.509112
H174	H	1.648875	0.464250	1.009112
N175	N	1.051120	-0.676140	-0.187438
N176	N	1.551120	-0.176140	0.312562
H177	H	0.995079	-0.702810	-0.191474
H178	H	1.495079	-0.202810	0.308526
H179	H	1.051867	-0.639100	-0.244484
H180	H	1.551867	-0.139100	0.255516
N181	N	0.603265	0.105289	0.187358
N182	N	1.103265	0.605289	0.687358
H183	H	0.647046	0.105452	0.244467
H184	H	1.147046	0.605452	0.744467
H185	H	0.557635	0.151827	0.191585
H186	H	1.057635	0.651827	0.691585
H187	H	0.497115	0.103591	0.163519
H188	H	0.997115	0.603591	0.663519
H189	H	1.054009	-0.522490	-0.163601
H190	H	1.554009	-0.022490	0.336399
H191	H	1.051262	-0.665734	0.163530
H192	H	1.551262	-0.165734	0.663530
