data_functionalizedCrystal
_audit_creation_method	'MofGen! by Chris Wilmer'
_symmetry_space_group_name_H-M	'P1'
_symmetry_Int_Tables_number	1
_symmetry_cell_setting	triclinic
loop_
_symmetry_equiv_pos_as_xyz
  x,y,z
_cell_length_a	16.120530
_cell_length_b	17.077403
_cell_length_c	17.077396
_cell_angle_alpha	89.982408
_cell_angle_beta	92.916610
_cell_angle_gamma	92.903188
loop_
_atom_site_label
_atom_site_type_symbol
_atom_site_fract_x
_atom_site_fract_y
_atom_site_fract_z
Zn1	Zn	-1.274703	-0.373449	-0.504701
Zn2	Zn	-0.941370	-0.040115	-0.171367
Zn3	Zn	-0.608037	0.293218	0.161966
Zn4	Zn	-1.274658	-0.504721	-0.373458
Zn5	Zn	-0.941325	-0.171388	-0.040124
Zn6	Zn	-0.607992	0.161945	0.293209
Zn7	Zn	-1.135284	-0.366810	-0.366799
Zn8	Zn	-0.801950	-0.033477	-0.033466
Zn9	Zn	-0.468617	0.299856	0.299868
Zn10	Zn	-1.135304	-0.498012	-0.498034
Zn11	Zn	-0.801970	-0.164679	-0.164701
Zn12	Zn	-0.468637	0.168655	0.168632
O13	O	-1.204987	-0.435748	-0.435748
O14	O	-0.871654	-0.102415	-0.102415
O15	O	-0.538321	0.230919	0.230919
O16	O	-1.391365	-0.396448	-0.492868
O17	O	-1.058032	-0.063115	-0.159534
O18	O	-0.724699	0.270218	0.173799
O19	O	-1.256143	-0.486457	-0.262726
O20	O	-0.922810	-0.153124	0.070607
O21	O	-0.589476	0.180210	0.403941
O22	O	-1.153788	-0.257845	-0.385095
O23	O	-0.820455	0.075489	-0.051762
O24	O	-0.487122	0.408822	0.281572
O25	O	-1.391333	-0.492894	-0.396444
O26	O	-1.057999	-0.159560	-0.063111
O27	O	-0.724666	0.173773	0.270223
O28	O	-1.256219	-0.262722	-0.486411
O29	O	-0.922886	0.070612	-0.153078
O30	O	-0.589553	0.403945	0.180256
O31	O	-1.153745	-0.385134	-0.257834
O32	O	-0.820412	-0.051801	0.075499
O33	O	-0.487078	0.281532	0.408833
O34	O	-1.018618	-0.378629	-0.378631
O35	O	-0.685285	-0.045295	-0.045298
O36	O	-0.351952	0.288038	0.288036
O37	O	-1.153822	-0.481459	-0.608767
O38	O	-0.820489	-0.148125	-0.275434
O39	O	-0.487156	0.185208	0.057900
O40	O	-1.018633	-0.475022	-0.475049
O41	O	-0.685299	-0.141688	-0.141716
O42	O	-0.351966	0.191645	0.191617
O43	O	-1.256239	-0.389943	-0.613665
O44	O	-0.922905	-0.056609	-0.280331
O45	O	-0.589572	0.276724	0.053002
O46	O	-1.256162	-0.613678	-0.389980
O47	O	-0.922829	-0.280344	-0.056646
O48	O	-0.589496	0.052989	0.276687
O49	O	-1.153779	-0.608748	-0.481506
O50	O	-0.820446	-0.275415	-0.148173
O51	O	-0.487112	0.057918	0.185161
C52	C	-0.988375	-0.425377	-0.425395
C53	C	-0.655041	-0.092044	-0.092061
C54	C	-0.321708	0.241289	0.241272
C55	C	-0.895707	-0.420960	-0.420984
C56	C	-0.562374	-0.087626	-0.087651
C57	C	-0.229040	0.245707	0.245683
C58	C	-1.204991	-0.639696	-0.435760
C59	C	-0.871657	-0.306363	-0.102427
C60	C	-0.538324	0.026971	0.230906
C61	C	-1.205068	-0.726950	-0.435795
C62	C	-0.871735	-0.393616	-0.102462
C63	C	-0.538402	-0.060283	0.230871
C64	C	-1.422446	-0.446160	-0.446142
C65	C	-1.089112	-0.112827	-0.112809
C66	C	-0.755779	0.220507	0.220525
C67	C	-1.515113	-0.450597	-0.450572
C68	C	-1.181780	-0.117263	-0.117238
C69	C	-0.848447	0.216070	0.216095
C70	C	-0.726042	-0.412876	-0.412938
C71	C	-0.392709	-0.079542	-0.079605
C72	C	-0.059375	0.253791	0.253728
C73	C	-0.684773	-0.458678	-0.458615
C74	C	-0.351440	-0.125345	-0.125282
C75	C	-0.018106	0.207988	0.208052
C76	C	-0.590366	-0.454180	-0.454138
C77	C	-0.257032	-0.120847	-0.120805
C78	C	0.076301	0.212486	0.212528
C79	C	-0.820458	-0.417373	-0.417414
C80	C	-0.487125	-0.084039	-0.084081
C81	C	-0.153791	0.249294	0.249253
C82	C	-1.205038	-0.435693	-0.640495
C83	C	-0.871704	-0.102359	-0.307161
C84	C	-0.538371	0.230974	0.026172
C85	C	-1.205059	-0.435669	-0.727746
C86	C	-0.871726	-0.102336	-0.394412
C87	C	-0.538392	0.230998	-0.061079
C88	C	-1.205007	-0.231005	-0.435754
C89	C	-0.871673	0.102329	-0.102421
C90	C	-0.538340	0.435662	0.230913
C91	C	-1.205015	-0.143755	-0.435756
C92	C	-0.871681	0.189578	-0.102423
C93	C	-0.538348	0.522911	0.230910
C94	C	-1.151692	-0.100225	-0.383010
C95	C	-0.818358	0.233108	-0.049676
C96	C	-0.485025	0.566442	0.283657
C97	C	-1.151698	-0.018245	-0.383020
C98	C	-0.818365	0.315088	-0.049687
C99	C	-0.485031	0.648422	0.283647
C100	C	-1.205032	0.020203	-0.435774
C101	C	-0.871699	0.353537	-0.102440
C102	C	-0.538366	0.686870	0.230893
C103	C	-1.258358	-0.023333	-0.488526
C104	C	-0.925025	0.310000	-0.155193
C105	C	-0.591691	0.643334	0.178141
C106	C	-1.258347	-0.105311	-0.488519
C107	C	-0.925013	0.228022	-0.155186
C108	C	-0.591680	0.561355	0.178148
C109	C	-1.258379	0.147536	-0.488536
C110	C	-0.925046	0.480869	-0.155202
C111	C	-0.591712	0.814203	0.178131
C112	C	-1.258391	0.229520	-0.488542
C113	C	-0.925058	0.562853	-0.155209
C114	C	-0.591725	0.896187	0.178125
C115	C	-1.151730	0.234603	-0.383037
C116	C	-0.818397	0.567936	-0.049703
C117	C	-0.485064	0.901269	0.283630
C118	C	-1.151719	0.152624	-0.383030
C119	C	-0.818386	0.485957	-0.049696
C120	C	-0.485052	0.819291	0.283637
C121	C	-1.205046	0.109094	-0.435781
C122	C	-0.871713	0.442427	-0.102448
C123	C	-0.538379	0.775760	0.230885
C124	C	-1.258389	-0.388012	-0.771287
C125	C	-0.925056	-0.054679	-0.437954
C126	C	-0.591723	0.278654	-0.104621
C127	C	-1.258399	-0.387987	-0.853268
C128	C	-0.925066	-0.054654	-0.519935
C129	C	-0.591733	0.278680	-0.186602
C130	C	-1.205083	-0.435622	-0.891706
C131	C	-0.871749	-0.102289	-0.558373
C132	C	-0.538416	0.231044	-0.225040
C133	C	-1.151747	-0.483281	-0.848158
C134	C	-0.818413	-0.149948	-0.514825
C135	C	-0.485080	0.183386	-0.181492
C136	C	-1.151733	-0.483302	-0.766179
C137	C	-0.818400	-0.149969	-0.432845
C138	C	-0.485066	0.183365	-0.099512
C139	C	-1.151780	-0.483235	-1.019030
C140	C	-0.818447	-0.149902	-0.685697
C141	C	-0.485114	0.183431	-0.352364
C142	C	-1.151795	-0.483216	-1.101016
C143	C	-0.818461	-0.149882	-0.767682
C144	C	-0.485128	0.183451	-0.434349
C145	C	-1.258446	-0.387920	-1.106120
C146	C	-0.925113	-0.054587	-0.772786
C147	C	-0.591780	0.278746	-0.439453
C148	C	-1.258433	-0.387941	-1.024140
C149	C	-0.925099	-0.054608	-0.690807
C150	C	-0.591766	0.278725	-0.357473
C151	C	-1.205098	-0.435601	-0.980598
C152	C	-0.871764	-0.102268	-0.647265
C153	C	-0.538431	0.231066	-0.313931
C154	C	-1.204985	-0.435749	-0.231800
C155	C	-0.871652	-0.102416	0.101533
C156	C	-0.538318	0.230918	0.434867
C157	C	-1.205125	-0.435559	-0.144557
C158	C	-0.871792	-0.102226	0.188776
C159	C	-0.538458	0.231108	0.522109
H160	H	-0.720344	-0.501268	-0.501083
H161	H	-0.387011	-0.167935	-0.167750
H162	H	-0.053677	0.165398	0.165584
N163	N	-1.315888	0.018134	-0.545420
N164	N	-0.982555	0.351468	-0.212087
N165	N	-0.649222	0.684801	0.121247
H166	H	-1.349666	-0.021884	-0.578835
H167	H	-1.016333	0.311449	-0.245501
H168	H	-0.683000	0.644783	0.087832
H169	H	-1.281968	0.053784	-0.580128
H170	H	-0.948634	0.387118	-0.246795
H171	H	-0.615301	0.720451	0.086539
H172	H	-0.690473	-0.370288	-0.370474
H173	H	-0.357140	-0.036955	-0.037141
H174	H	-0.023807	0.296378	0.296192
N175	N	-1.094195	0.111148	-0.326138
N176	N	-0.760861	0.444481	0.007196
N177	N	-0.427528	0.777814	0.340529
H178	H	-1.128065	0.075503	-0.291380
H179	H	-0.794732	0.408836	0.041954
H180	H	-0.461398	0.742170	0.375287
H181	H	-1.060421	0.151208	-0.292774
H182	H	-0.727088	0.484541	0.040560
H183	H	-0.393754	0.817874	0.373893
H184	H	-1.108263	-0.131523	-0.340049
H185	H	-0.774930	0.201810	-0.006715
H186	H	-0.441597	0.535143	0.326618
N187	N	-1.315865	-0.152256	-0.545413
N188	N	-0.982532	0.181078	-0.212080
N189	N	-0.649199	0.514411	0.121254
H190	H	-1.354491	-0.188129	-0.515361
H191	H	-1.021157	0.145204	-0.182027
H192	H	-0.687824	0.478537	0.151306
H193	H	-1.281929	-0.184587	-0.580157
H194	H	-0.948595	0.148747	-0.246824
H195	H	-0.615262	0.482080	0.086510
H196	H	-1.108278	0.017197	-0.340070
H197	H	-0.774944	0.350531	-0.006737
H198	H	-0.441611	0.683864	0.326597
N199	N	-1.094213	0.281547	-0.326137
N200	N	-0.760880	0.614881	0.007196
N201	N	-0.427547	0.948214	0.340529
H202	H	-1.102309	0.339315	-0.334147
H203	H	-0.768975	0.672648	-0.000814
H204	H	-0.435642	1.005981	0.332519
H205	H	-1.034671	0.270071	-0.335503
H206	H	-0.701338	0.603404	-0.002170
H207	H	-0.368004	0.936737	0.331163
N208	N	-1.315901	-0.336639	-0.729832
N209	N	-0.982568	-0.003306	-0.396499
N210	N	-0.649234	0.330028	-0.063166
H211	H	-1.349685	-0.306444	-0.769859
H212	H	-1.016352	0.026889	-0.436526
H213	H	-0.683019	0.360222	-0.103192
H214	H	-1.281963	-0.298696	-0.694195
H215	H	-0.948630	0.034638	-0.360861
H216	H	-0.615297	0.367971	-0.027528
N217	N	-1.315916	0.270992	-0.545437
N218	N	-0.982583	0.604326	-0.212104
N219	N	-0.649250	0.937659	0.121229
H220	H	-1.349693	0.230978	-0.578858
H221	H	-1.016360	0.564312	-0.245524
H222	H	-0.683027	0.897645	0.087809
H223	H	-1.281990	0.306643	-0.580139
H224	H	-0.948656	0.639977	-0.246806
H225	H	-0.615323	0.973310	0.086528
N226	N	-1.315903	-0.336570	-0.900231
N227	N	-0.982570	-0.003237	-0.566898
N228	N	-0.649236	0.330097	-0.233565
H229	H	-1.349675	-0.306395	-0.863441
H230	H	-1.016342	0.026938	-0.530108
H231	H	-0.683008	0.360271	-0.196775
H232	H	-1.354491	-0.370348	-0.936101
H233	H	-1.021157	-0.037014	-0.602768
H234	H	-0.687824	0.296319	-0.269434
H235	H	-1.301852	-0.349157	-0.992847
H236	H	-0.968519	-0.015823	-0.659513
H237	H	-0.635186	0.317510	-0.326180
N238	N	-1.315890	0.100583	-0.545435
N239	N	-0.982557	0.433916	-0.212101
N240	N	-0.649223	0.767249	0.121232
H241	H	-1.349681	0.137377	-0.578854
H242	H	-1.016348	0.470711	-0.245521
H243	H	-0.683015	0.804044	0.087813
H244	H	-1.354459	0.064713	-0.515322
H245	H	-1.021126	0.398047	-0.181989
H246	H	-0.687793	0.731380	0.151344
N247	N	-1.315976	-0.336517	-1.153077
N248	N	-0.982643	-0.003184	-0.819744
N249	N	-0.649309	0.330150	-0.486410
H250	H	-1.307894	-0.343727	-1.210843
H251	H	-0.974561	-0.010394	-0.877510
H252	H	-0.641227	0.322939	-0.544177
H253	H	-1.303008	-0.279837	-1.138127
H254	H	-0.969675	0.053496	-0.804793
H255	H	-0.636342	0.386829	-0.471460
N256	N	-1.094291	-0.534593	-1.142477
N257	N	-0.760958	-0.201259	-0.809143
N258	N	-0.427625	0.132074	-0.475810
H259	H	-1.060497	-0.564784	-1.102455
H260	H	-0.727164	-0.231451	-0.769122
H261	H	-0.393831	0.101883	-0.435788
H262	H	-1.055724	-0.500780	-1.174648
H263	H	-0.722391	-0.167446	-0.841315
H264	H	-0.389058	0.165887	-0.507982
H265	H	-1.108336	-0.522032	-0.983580
H266	H	-0.775003	-0.188699	-0.650247
H267	H	-0.441669	0.144635	-0.316913
H268	H	-1.108333	-0.522064	-0.879461
H269	H	-0.774999	-0.188730	-0.546128
H270	H	-0.441666	0.144603	-0.212794
H271	H	-1.108298	-0.522100	-0.730727
H272	H	-0.774965	-0.188767	-0.397394
H273	H	-0.441631	0.144566	-0.064061
