data_functionalizedCrystal
_audit_creation_method	'MofGen! by Chris Wilmer'
_symmetry_space_group_name_H-M	'P1'
_symmetry_Int_Tables_number	1
_symmetry_cell_setting	triclinic
loop_
_symmetry_equiv_pos_as_xyz
  x,y,z
_cell_length_a	27.440280
_cell_length_b	27.440280
_cell_length_c	14.809374
_cell_angle_alpha	67.418596
_cell_angle_beta	90.004513
_cell_angle_gamma	59.999099
loop_
_atom_site_label
_atom_site_type_symbol
_atom_site_fract_x
_atom_site_fract_y
_atom_site_fract_z
Zr1	Zr	0.475894	0.520599	-0.107977
O2	O	0.405874	0.606681	-0.239346
O3	O	0.497361	0.423703	-0.067686
O4	O	0.507549	0.504997	-0.239297
O5	O	0.387647	0.541466	0.067613
O6	O	0.587751	0.504989	-0.239280
O7	O	0.395685	0.525388	-0.067735
O8	O	0.569526	0.359570	0.067701
O9	O	0.405872	0.686885	-0.239368
O10	O	0.566368	0.467557	-0.050513
O11	O	0.500515	0.479561	0.050483
O12	O	0.512511	0.575273	-0.151567
O13	O	0.446658	0.587278	-0.050571
Zr14	Zr	0.590986	0.546229	0.107915
Zr15	Zr	0.603807	0.520587	-0.107950
Zr16	Zr	0.463074	0.546241	0.107888
Zr17	Zr	0.475892	0.648514	-0.108011
Zr18	Zr	0.590989	0.418314	0.107949
O19	O	0.569520	0.643124	0.067624
O20	O	0.587749	0.606665	-0.239308
O21	O	0.387644	0.643141	0.067586
O22	O	0.661007	0.460146	0.239284
O23	O	0.679236	0.423686	-0.067648
O24	O	0.479131	0.460163	0.239246
O25	O	0.679234	0.525362	-0.067675
O26	O	0.559331	0.561831	0.239235
O27	O	0.479129	0.561838	0.239218
O28	O	0.671195	0.541440	0.067673
O29	O	0.507545	0.686876	-0.239346
O30	O	0.559335	0.379952	0.239284
O31	O	0.661008	0.379943	0.239306
O32	O	0.671199	0.359561	0.067722
O33	O	0.395681	0.707267	-0.067784
O34	O	0.497355	0.707258	-0.067763
O35	O	0.554370	0.491554	0.151505
O36	O	0.620222	0.479550	0.050509
O37	O	0.566365	0.587267	-0.050545
O38	O	0.500512	0.599271	0.050451
C39	C	0.533444	0.373411	0.000012
C40	C	0.533445	0.319108	0.000027
C41	C	0.493685	0.017745	-0.074646
C42	C	0.493685	-0.033274	-0.074656
O43	O	0.459888	-0.029615	-0.138112
N44	N	0.533440	-0.094123	-0.000070
C45	C	0.573202	-0.103955	0.074525
O46	O	0.607018	-0.160396	0.137964
C47	C	0.573204	-0.052937	0.074530
C48	C	0.533442	0.007913	-0.000055
C49	C	0.453926	0.078591	-0.149225
C50	C	0.453926	0.129606	-0.149213
C51	C	0.493683	0.119774	-0.074622
C52	C	0.533441	0.058927	-0.000043
C53	C	0.612968	-0.062770	0.149121
C54	C	0.612967	-0.011746	0.149119
C55	C	0.573205	0.049104	0.074534
C56	C	0.573198	0.100110	0.074561
N57	N	0.533443	0.160959	-0.000025
C58	C	0.493685	0.170791	-0.074617
C59	C	0.573196	-0.211092	0.074507
C60	C	0.573191	-0.262108	0.074506
C61	C	0.493675	-0.191424	-0.074676
C62	C	0.493677	-0.140406	-0.074671
C63	C	0.533440	-0.150242	-0.000079
C64	C	0.493686	0.277924	-0.074585
C65	C	0.493687	0.328940	-0.074565
C66	C	0.573206	0.258251	0.074614
C67	C	0.573203	0.207239	0.074597
C68	C	0.533441	0.217080	-0.000011
O69	O	0.606980	0.096498	0.137981
O70	O	0.459880	0.227234	-0.138053
C71	C	0.373441	0.533428	-0.000065
C72	C	0.319139	0.533433	-0.000076
C73	C	0.010550	0.477179	0.052746
C74	C	-0.040469	0.477176	0.052755
O75	O	-0.042950	0.429361	0.097647
N76	N	-0.094099	0.533402	0.000005
C77	C	-0.096709	0.589636	-0.052749
O78	O	-0.147010	0.637460	-0.097616
C79	C	-0.045691	0.589639	-0.052752
C80	C	0.007938	0.533408	-0.000007
C81	C	0.064177	0.420952	0.105488
C82	C	0.115192	0.420955	0.105477
C83	C	0.112581	0.477184	0.052725
C84	C	0.058954	0.533410	-0.000017
C85	C	-0.048302	0.645872	-0.105499
C86	C	0.002722	0.645870	-0.105497
C87	C	0.056351	0.589639	-0.052751
C88	C	0.107358	0.589642	-0.052780
N89	N	0.160987	0.533416	-0.000030
C90	C	0.163599	0.477187	0.052722
C91	C	-0.203848	0.589626	-0.052739
C92	C	-0.254865	0.589623	-0.052743
C93	C	-0.198622	0.477163	0.052763
C94	C	-0.147604	0.477166	0.052761
C95	C	-0.150219	0.533400	0.000011
C96	C	0.270733	0.477197	0.052695
C97	C	0.321750	0.477204	0.052676
C98	C	0.265503	0.589664	-0.052825
C99	C	0.214489	0.589657	-0.052811
C100	C	0.217108	0.533419	-0.000043
O101	O	0.109883	0.637433	-0.097646
O102	O	0.213901	0.429372	0.097592
C103	C	0.693439	0.533399	0.000003
C104	C	0.747742	0.533394	0.000014
C105	C	0.549477	0.501339	-0.270045
C106	C	0.554920	0.490454	-0.361685
C107	C	0.533437	0.693416	-0.000074
C108	C	0.533436	0.747720	-0.000089
C109	C	0.530629	0.539035	-0.452671
C110	C	0.536254	0.527786	-0.547387
C111	C	0.517403	0.565488	0.269983
C112	C	0.511961	0.576374	0.361623
C113	C	0.693443	0.373397	0.000046
C114	C	0.747746	0.319088	0.000072
C115	C	0.517407	0.405486	0.270026
C116	C	0.511965	0.362068	0.361681
C117	C	0.677406	0.405471	0.270060
C118	C	0.726267	0.362048	0.361726
C119	C	0.389474	0.661357	-0.270122
C120	C	0.340614	0.704779	-0.361788
C121	C	0.373438	0.693431	-0.000108
C122	C	0.319134	0.747739	-0.000134
C123	C	0.549474	0.661342	-0.270088
C124	C	0.554915	0.704759	-0.361743
C125	C	0.745137	0.287323	-0.052657
C126	C	0.796157	0.236299	-0.052653
C127	C	0.849786	0.217039	0.000087
C128	C	0.852394	0.248809	0.052818
C129	C	0.801375	0.299835	0.052807
C130	C	0.537521	0.347940	0.457465
C131	C	0.532405	0.307153	0.543592
C132	C	0.501737	0.280490	0.533935
C133	C	0.476178	0.294622	0.438141
C134	C	0.481291	0.335412	0.352015
C135	C	0.783592	0.335390	0.352055
C136	C	0.829507	0.294596	0.438177
C137	C	0.818096	0.280457	0.533970
C138	C	0.760765	0.307120	0.543639
C139	C	0.714851	0.347917	0.457518
C140	C	0.283288	0.731443	-0.352117
C141	C	0.237373	0.772253	-0.438239
C142	C	0.248785	0.786395	-0.534032
C143	C	0.306116	0.759729	-0.543701
C144	C	0.352030	0.718923	-0.457580
C145	C	0.321744	0.779509	0.052586
C146	C	0.270726	0.830544	0.052558
C147	C	0.217097	0.849806	-0.000185
C148	C	0.214489	0.818033	-0.052912
C149	C	0.265507	0.767002	-0.052889
C150	C	0.585587	0.731409	-0.352053
C151	C	0.590711	0.772199	-0.438164
C152	C	0.565159	0.786342	-0.533965
C153	C	0.534486	0.759687	-0.543653
C154	C	0.529366	0.718895	-0.457542
H155	H	0.421551	0.086608	-0.209972
H156	H	0.398706	0.697212	-0.465467
H157	H	0.170822	0.635443	-0.095773
C158	C	0.496125	0.235614	0.628686
N159	N	0.491903	0.201811	0.700056
H160	H	0.794022	0.210437	-0.095592
H161	H	0.461295	-0.090862	-0.135399
C162	C	0.478236	0.643821	-0.648896
N163	N	0.452834	0.694621	-0.656818
C164	C	0.380731	0.758334	0.110606
N165	N	0.425159	0.742391	0.154304
C166	C	0.651793	0.377235	0.468174
N167	N	0.604298	0.399317	0.476207
C168	C	0.905903	0.160904	0.000097
N169	N	0.948168	0.118621	0.000105
H170	H	0.569333	0.819558	-0.604073
C171	C	0.442448	0.265285	0.427534
N172	N	0.417046	0.243183	0.419548
C173	C	0.560531	0.291609	0.648955
N174	N	0.581718	0.279901	0.728312
H175	H	0.263386	0.635444	-0.095778
C176	C	0.506406	0.775226	-0.649043
N177	N	0.485264	0.786924	-0.728426
C178	C	0.748221	0.291555	0.649021
N179	N	0.738776	0.279826	0.728397
C180	C	0.911391	0.227611	0.110836
N181	N	0.955829	0.211639	0.154542
C182	C	0.453183	0.350940	0.246655
N183	N	0.432010	0.362633	0.167299
H184	H	0.876185	0.272891	0.430286
H185	H	0.505672	0.588956	-0.460446
C186	C	0.588640	0.423011	-0.351175
N187	N	0.614038	0.372211	-0.343256
H188	H	0.803507	0.325693	0.095751
H189	H	-0.091961	0.691662	-0.148449
H190	H	0.263374	0.741136	-0.095817
C191	C	0.273607	0.865480	0.110572
N192	N	0.275779	0.891792	0.154272
H193	H	0.066313	0.375162	0.148450
C194	C	0.868609	0.235574	0.628696
N195	N	0.906659	0.201764	0.700041
C196	C	0.198271	0.831278	-0.628758
N197	N	0.160222	0.865082	-0.700103
C198	C	0.270722	0.715900	-0.246753
N199	N	0.261251	0.704200	-0.167394
C200	C	0.686151	0.308502	-0.110686
N201	N	0.641724	0.324453	-0.154402
H202	H	0.792895	0.346895	0.274064
C203	C	0.174313	0.801578	-0.427580
N204	N	0.126818	0.823664	-0.419549
H205	H	0.315401	0.771248	-0.621706
H206	H	0.562493	0.369645	0.465347
H207	H	0.175559	0.891360	-0.000195
C208	C	0.449944	-0.180618	-0.156735
N209	N	0.417009	-0.172482	-0.218538
H210	H	0.170817	0.833724	-0.095853
H211	H	0.606395	0.719902	-0.274055
H212	H	0.615687	0.793898	-0.430256
H213	H	0.461304	0.378488	-0.135299
C214	C	0.449942	0.288758	-0.156653
N215	N	0.416990	0.296919	-0.218460
C216	C	0.495614	0.689593	-0.468219
N217	N	0.470188	0.667526	-0.476268
H218	H	0.421553	0.179148	-0.209956
H219	H	0.605574	-0.219109	0.135257
C220	C	0.656724	-0.129699	0.231151
N221	N	0.689688	-0.180113	0.292933
C222	C	0.616933	-0.329040	0.156555
N223	N	0.649884	-0.379453	0.218351
H224	H	0.605574	0.157693	0.135339
C225	C	0.656710	-0.022572	0.231181
N226	N	0.689655	-0.030727	0.292992
H227	H	0.605574	0.250256	0.135347
H228	H	0.365417	0.431413	0.095631
H229	H	0.158856	0.375166	0.148423
C230	C	-0.088615	0.415309	0.110791
N231	N	-0.044186	0.368716	0.154505
C232	C	0.273622	0.415331	0.110734
N233	N	0.275800	0.368733	0.154442
H234	H	-0.196503	0.431378	0.095714
H235	H	-0.298528	0.635410	-0.095706
H236	H	0.000586	0.691665	-0.148439
C237	C	-0.206732	0.651489	-0.110788
N238	N	-0.208907	0.698085	-0.154513
H239	H	0.561218	0.477861	-0.539605
