data_functionalizedCrystal
_audit_creation_method	'MofGen! by Chris Wilmer'
_symmetry_space_group_name_H-M	'P1'
_symmetry_Int_Tables_number	1
_symmetry_cell_setting	triclinic
loop_
_symmetry_equiv_pos_as_xyz
  x,y,z
_cell_length_a	15.995363
_cell_length_b	9.065218
_cell_length_c	8.140239
_cell_angle_alpha	89.998670
_cell_angle_beta	90.001679
_cell_angle_gamma	84.256640
loop_
_atom_site_label
_atom_site_type_symbol
_atom_site_fract_x
_atom_site_fract_y
_atom_site_fract_z
O1	O	-1.112418	-0.190246	0.136487
O2	O	-0.868822	-0.213709	0.136515
O3	O	-0.995655	0.012783	0.136497
O4	O	-0.985585	-0.416738	0.136505
O5	O	-0.995651	0.012784	-0.136730
O6	O	-0.868818	-0.213708	-0.136712
O7	O	-1.112414	-0.190244	-0.136741
Zn8	Zn	-0.990616	-0.201976	-0.180107
Zn9	Zn	-0.990621	-0.201978	0.179882
O10	O	-0.985581	-0.416737	-0.136722
C11	C	-0.837618	-0.212735	-0.000094
C12	C	-0.744646	-0.209818	-0.000083
N13	N	-0.990618	-0.201974	-0.425789
C14	C	-0.994686	0.067748	-0.000114
C15	C	-0.991792	0.231523	-0.000106
C16	C	-0.406821	-0.199339	-0.000123
C17	C	-0.453032	-0.038032	-0.000735
C18	C	-0.549744	-0.040951	-0.000106
C19	C	-0.574420	-0.204537	-0.000104
C20	C	-0.533939	-0.284098	0.155916
C21	C	-0.437273	-0.280039	0.156033
C22	C	-0.436955	-0.283370	-0.154677
C23	C	-0.533900	-0.283339	-0.156726
C24	C	-0.669140	-0.207483	-0.000088
C25	C	-0.312102	-0.196398	-0.000129
C26	C	-0.143620	-0.191199	-0.000131
C27	C	-0.236595	-0.194058	-0.000145
C28	C	-0.986551	-0.471701	-0.000108
C29	C	-0.989445	-0.635476	-0.000105
N30	N	-0.990625	-0.201969	0.425564
H31	H	-0.434019	0.026450	-0.112624
H32	H	-0.432953	0.026152	0.110534
N33	N	-0.586025	0.042450	0.148289
H34	H	-0.539182	0.081247	0.213556
H35	H	-0.616395	-0.026394	0.219270
H36	H	-0.561896	-0.228840	0.272029
H37	H	-0.406096	-0.402301	-0.155732
N38	N	-0.553862	-0.443288	0.163634
H39	H	-0.589405	-0.465416	0.065832
H40	H	-0.585635	-0.459641	0.268209
H41	H	-0.416018	-0.230631	-0.272938
N42	N	-0.555439	-0.441362	-0.169213
H43	H	-0.586749	-0.454696	-0.275074
H44	H	-0.591902	-0.464108	-0.073013
H45	H	-0.418527	-0.222016	0.272662
H46	H	-0.577696	0.021589	-0.111949
H47	H	-0.405923	-0.398468	0.163114
H48	H	-0.560774	-0.225259	-0.272149
