data_functionalizedCrystal
_audit_creation_method	'MofGen! by Chris Wilmer'
_symmetry_space_group_name_H-M	'P1'
_symmetry_Int_Tables_number	1
_symmetry_cell_setting	triclinic
loop_
_symmetry_equiv_pos_as_xyz
  x,y,z
_cell_length_a	19.288864
_cell_length_b	17.038272
_cell_length_c	17.766277
_cell_angle_alpha	89.993732
_cell_angle_beta	89.976791
_cell_angle_gamma	87.123901
loop_
_atom_site_label
_atom_site_type_symbol
_atom_site_fract_x
_atom_site_fract_y
_atom_site_fract_z
O1	O	0.927386	0.097514	-0.062838
O2	O	1.427386	0.597514	0.437162
O3	O	0.725940	0.110668	-0.062787
O4	O	1.225940	0.610668	0.437213
O5	O	0.825466	-0.009720	-0.062806
O6	O	1.325466	0.490280	0.437194
O7	O	0.827860	0.217903	-0.062819
O8	O	1.327860	0.717903	0.437181
O9	O	0.825447	-0.009726	0.062382
O10	O	1.325447	0.490274	0.562382
O11	O	0.725920	0.110662	0.062402
O12	O	1.225920	0.610662	0.562402
O13	O	0.927367	0.097508	0.062351
O14	O	1.427367	0.597508	0.562351
Cu15	Cu	0.826642	0.104085	0.073807
Cu16	Cu	1.326642	0.604085	0.573807
Cu17	Cu	0.826665	0.104092	-0.074243
Cu18	Cu	1.326665	0.604092	0.425757
O19	O	0.827841	0.217897	0.062370
O20	O	1.327841	0.717897	0.562370
C21	C	0.700027	0.110242	-0.000186
C22	C	1.200027	0.610242	0.499814
C23	C	0.622845	0.108972	-0.000166
C24	C	1.122845	0.608972	0.499834
C25	C	0.582519	0.179610	-0.000182
C26	C	1.082519	0.679610	0.499818
C27	C	0.509998	0.178417	-0.000190
C28	C	1.009998	0.678417	0.499810
C29	C	0.477806	0.106580	-0.000198
C30	C	0.977806	0.606580	0.499802
C31	C	0.518141	0.035932	-0.000178
C32	C	1.018141	0.535932	0.499822
C33	C	0.590661	0.037128	-0.000162
C34	C	1.090661	0.537128	0.499838
C35	C	0.366057	0.050111	-0.044079
C36	C	0.866057	0.550111	0.455921
C37	C	0.293539	0.048918	-0.044100
C38	C	0.793539	0.548918	0.455900
C39	C	0.254132	0.102889	-0.000243
C40	C	0.754132	0.602889	0.499757
C41	C	0.287252	0.158066	0.043624
C42	C	0.787252	0.658066	0.543624
C43	C	0.359772	0.159262	0.043640
C44	C	0.859772	0.659262	0.543640
C45	C	0.399172	0.105276	-0.000214
C46	C	0.899172	0.605276	0.499786
C47	C	0.135171	0.172238	-0.000267
C48	C	0.635171	0.672238	0.499733
C49	C	0.062649	0.171042	-0.000270
C50	C	0.562649	0.671042	0.499730
C51	C	0.070793	0.028556	-0.000266
C52	C	0.570793	0.528556	0.499734
C53	C	0.143314	0.029754	-0.000254
C54	C	0.643314	0.529754	0.499746
C55	C	0.175498	0.101598	-0.000259
C56	C	0.675498	0.601598	0.499741
C57	C	0.823278	-0.038845	-0.000211
C58	C	1.323278	0.461155	0.499789
C59	C	0.816781	-0.125616	-0.000210
C60	C	1.316781	0.374384	0.499790
C61	C	0.876437	-0.175923	-0.000224
C62	C	1.376437	0.324077	0.499776
C63	C	0.870327	-0.257454	-0.000230
C64	C	1.370327	0.242546	0.499770
C65	C	0.804561	-0.288677	-0.000216
C66	C	1.304561	0.211323	0.499784
C67	C	0.744901	-0.238363	-0.000204
C68	C	1.244901	0.261637	0.499796
C69	C	0.751011	-0.156834	-0.000203
C70	C	1.251011	0.343166	0.499797
C71	C	0.782976	-0.534365	-0.000221
C72	C	1.282976	-0.034365	0.499779
C73	C	0.776870	-0.615900	-0.000219
C74	C	1.276870	-0.115900	0.499781
C75	C	0.902297	-0.634985	-0.000246
C76	C	1.402297	-0.134985	0.499754
C77	C	0.908402	-0.553454	-0.000241
C78	C	1.408402	-0.053454	0.499759
C79	C	0.848741	-0.503148	-0.000233
C80	C	1.348741	-0.003148	0.499767
C81	C	0.798315	-0.372014	-0.000219
C82	C	1.298315	0.127986	0.499781
C83	C	0.854988	-0.419812	-0.000235
C84	C	1.354988	0.080188	0.499765
C85	C	0.953279	0.097934	-0.000252
C86	C	1.453279	0.597934	0.499748
C87	C	1.030462	0.099205	-0.000277
C88	C	1.530462	0.599205	0.499723
C89	C	0.830029	0.247021	-0.000227
C90	C	1.330029	0.747021	0.499773
C91	C	0.836526	0.333793	-0.000233
C92	C	1.336526	0.833793	0.499767
N93	N	0.826631	0.104079	0.177937
N94	N	1.326631	0.604079	0.677937
N95	N	0.826681	0.104091	-0.178373
N96	N	1.326681	0.604091	0.321627
C97	C	0.870718	0.050797	0.217315
C98	C	1.370718	0.550797	0.717315
C99	C	0.870722	0.050793	0.296117
C100	C	1.370722	0.550793	0.796117
C101	C	0.826646	0.104085	0.335538
C102	C	1.326646	0.604085	0.835538
C103	C	0.782551	0.157371	0.296150
C104	C	1.282551	0.657371	0.796150
C105	C	0.782543	0.157368	0.217350
C106	C	1.282543	0.657368	0.717350
C107	C	0.821754	0.175309	0.460373
C108	C	1.321754	0.675309	0.960373
C109	C	0.821767	0.175313	0.539172
C110	C	1.321767	0.675313	1.039172
C111	C	0.826665	0.104095	0.578584
C112	C	1.326665	0.604095	1.078584
C113	C	0.831566	0.032869	0.539188
C114	C	1.331566	0.532869	1.039188
C115	C	0.831559	0.032866	0.460387
C116	C	1.331559	0.532866	0.960387
C117	C	0.826649	0.104094	0.420983
C118	C	1.326649	0.604094	0.920983
C119	C	0.870759	0.050804	0.703408
C120	C	1.370759	0.550804	1.203408
C121	C	0.870758	0.050800	0.782212
C122	C	1.370758	0.550800	1.282212
C123	C	0.782590	0.157384	0.782243
C124	C	1.282590	0.657384	1.282243
C125	C	0.782587	0.157382	0.703441
C126	C	1.282587	0.657382	1.203441
C127	C	0.826676	0.104093	0.664028
C128	C	1.326676	0.604093	1.164028
H129	H	0.491926	-0.022557	-0.000194
H130	H	0.991926	0.477443	0.499806
H131	H	0.266578	0.003993	-0.079822
H132	H	0.766578	0.503993	0.420178
N133	N	0.466492	0.254608	-0.000209
N134	N	0.966492	0.754608	0.499791
H135	H	0.497885	0.300301	-0.000209
H136	H	0.997885	0.800301	0.499791
H137	H	0.436254	0.257207	-0.046627
H138	H	0.936254	0.757207	0.453373
H139	H	0.929990	-0.150509	-0.000231
H140	H	1.429990	0.349491	0.499769
H141	H	0.746662	0.200761	0.328250
H142	H	1.246662	0.700761	0.828250
H143	H	0.044583	-0.029935	-0.000318
H144	H	0.544583	0.470065	0.499682
N145	N	0.186807	-0.046440	-0.000240
N146	N	0.686807	0.453560	0.499760
H147	H	0.175992	-0.077791	-0.046649
H148	H	0.675992	0.422209	0.453351
H149	H	0.237617	-0.034722	-0.000199
H150	H	0.737617	0.465278	0.499801
H151	H	0.744768	-0.397444	-0.000206
H152	H	1.244768	0.102556	0.499794
H153	H	0.623494	-0.020396	-0.000150
H154	H	1.123494	0.479604	0.499850
N155	N	0.934670	-0.311714	-0.000241
N156	N	1.434670	0.188286	0.499759
H157	H	0.977259	-0.279564	-0.000243
H158	H	1.477259	0.220436	0.499757
H159	H	0.934854	-0.345962	0.046168
H160	H	1.434854	0.154038	0.546168
N161	N	0.408557	-0.008107	-0.091382
N162	N	0.908557	0.491893	0.408618
H163	H	0.376573	-0.043236	-0.119177
H164	H	0.876573	0.456764	0.380823
H165	H	0.437022	0.021157	-0.128838
H166	H	0.937022	0.521157	0.371162
H167	H	0.906624	0.007403	0.328185
H168	H	1.406624	0.507403	0.828185
H169	H	0.906616	0.007404	0.185228
H170	H	1.406616	0.507404	0.685228
H171	H	0.608719	0.238111	-0.000187
H172	H	1.108719	0.738111	0.499813
H173	H	0.746641	0.200758	0.185287
H174	H	1.246641	0.700758	0.685287
H175	H	0.950869	-0.675953	-0.000254
H176	H	1.450869	-0.175953	0.499746
N177	N	0.395496	0.218765	0.090952
N178	N	0.895496	0.718765	0.590952
H179	H	0.359533	0.252777	0.118735
H180	H	0.859533	0.752777	0.618735
H181	H	0.427207	0.190490	0.128420
H182	H	0.927207	0.690490	0.628420
N183	N	0.244761	0.216288	0.090926
N184	N	0.744761	0.716288	0.590926
H185	H	0.193795	0.207159	0.084265
H186	H	0.693795	0.707159	0.584265
H187	H	0.257828	0.209188	0.145636
H188	H	0.757828	0.709188	0.645636
H189	H	0.961955	-0.528039	-0.000253
H190	H	1.461955	-0.028039	0.499747
H191	H	0.161377	0.230738	-0.000259
H192	H	0.661377	0.730738	0.499741
N193	N	0.735046	0.214860	0.824750
N194	N	1.235046	0.714860	1.324750
H195	H	0.685229	0.205991	0.811063
H196	H	1.185229	0.705991	1.311063
H197	H	0.741798	0.206744	0.880632
H198	H	1.241798	0.706744	1.380632
N199	N	0.673967	-0.272038	-0.000181
N200	N	1.173967	0.227962	0.499819
H201	H	0.637103	-0.227795	-0.000173
H202	H	1.137103	0.272205	0.499827
H203	H	0.668706	-0.305445	-0.046588
H204	H	1.168706	0.194555	0.453412
N205	N	0.836854	-0.043952	0.581683
N206	N	1.336854	0.456048	1.081683
H207	H	0.836112	-0.033146	0.637580
H208	H	1.336112	0.466854	1.137580
H209	H	0.796324	-0.076397	0.567932
H210	H	1.296324	0.423603	1.067932
N211	N	0.019153	0.247236	-0.000293
N212	N	0.519153	0.747236	0.499707
H213	H	-0.031672	0.235579	-0.000300
H214	H	0.468328	0.735579	0.499700
H215	H	0.030027	0.278559	0.046112
H216	H	0.530027	0.778559	0.546112
N217	N	0.686668	-0.102571	-0.000193
N218	N	1.186668	0.397429	0.499807
H219	H	0.644078	-0.134720	-0.000183
H220	H	1.144078	0.365280	0.499817
H221	H	0.686462	-0.068331	0.046216
H222	H	1.186462	0.431669	0.546216
N223	N	0.705934	-0.649579	-0.000204
N224	N	1.205934	-0.149579	0.499796
H225	H	0.669065	-0.605340	-0.000201
H226	H	1.169065	-0.105340	0.499799
H227	H	0.700681	-0.682988	-0.046612
H228	H	1.200681	-0.182988	0.453388
H229	H	0.835548	-0.025128	0.428314
H230	H	1.335548	0.474872	0.928314
N231	N	0.718631	-0.480113	-0.000209
N232	N	1.218631	0.019887	0.499791
H233	H	0.676043	-0.512266	-0.000196
H234	H	1.176043	-0.012266	0.499804
H235	H	0.718425	-0.445875	0.046200
H236	H	1.218425	0.054125	0.546200
N237	N	0.925919	-0.386138	-0.000242
N238	N	1.425919	0.113862	0.499758
H239	H	0.962788	-0.430376	-0.000248
H240	H	1.462788	0.069624	0.499752
H241	H	0.931195	-0.352720	-0.046651
H242	H	1.431195	0.147280	0.453349
H243	H	0.906656	0.007410	0.671317
H244	H	1.406656	0.507410	1.171317
N245	N	0.918323	-0.006659	0.824688
N246	N	1.418323	0.493341	1.324688
H247	H	0.946256	-0.040408	0.787760
H248	H	1.446256	0.459592	1.287760
H249	H	0.950783	0.023203	0.857354
H250	H	1.450783	0.523203	1.357354
N251	N	0.735036	0.214851	0.660962
N252	N	1.235036	0.714851	1.160962
H253	H	0.707113	0.248611	0.697890
H254	H	1.207113	0.748611	1.197890
H255	H	0.763656	0.249333	0.628245
H256	H	1.263656	0.749333	1.128245
H257	H	0.817753	0.233307	0.428290
H258	H	1.317753	0.733307	0.928290
N259	N	0.816475	0.252130	0.581661
N260	N	1.316475	0.752130	1.081661
H261	H	0.856993	0.284619	0.567919
H262	H	1.356993	0.784619	1.067919
H263	H	0.771634	0.281847	0.567948
H264	H	1.271634	0.781847	1.067948
