data_functionalizedCrystal
_audit_creation_method	'MofGen! by Chris Wilmer'
_symmetry_space_group_name_H-M	'P1'
_symmetry_Int_Tables_number	1
_symmetry_cell_setting	triclinic
loop_
_symmetry_equiv_pos_as_xyz
  x,y,z
_cell_length_a	19.121424
_cell_length_b	19.121063
_cell_length_c	12.759387
_cell_angle_alpha	92.403602
_cell_angle_beta	92.410763
_cell_angle_gamma	94.804615
loop_
_atom_site_label
_atom_site_type_symbol
_atom_site_fract_x
_atom_site_fract_y
_atom_site_fract_z
Zn1	Zn	1.063732	-0.234162	-0.541317
Zn2	Zn	1.563732	0.265838	-0.041317
Zn3	Zn	1.058612	-0.351848	-0.373451
Zn4	Zn	1.558612	0.148152	0.126549
Zn5	Zn	0.946060	-0.239221	-0.373453
Zn6	Zn	1.446060	0.260779	0.126547
Zn7	Zn	0.941013	-0.356816	-0.556879
Zn8	Zn	1.441013	0.143184	-0.056879
O9	O	1.002354	-0.295512	-0.461275
O10	O	1.502354	0.204488	0.038725
O11	O	1.161515	-0.245578	-0.512537
O12	O	1.661515	0.254422	-0.012537
O13	O	1.043652	-0.336946	-0.226435
O14	O	1.543652	0.163054	0.273565
O15	O	0.965925	-0.140084	-0.389208
O16	O	1.465925	0.359916	0.110792
O17	O	1.157754	-0.332041	-0.389206
O18	O	1.657754	0.167959	0.110794
O19	O	1.052378	-0.136367	-0.512538
O20	O	1.552378	0.363633	-0.012538
O21	O	0.960961	-0.254200	-0.226436
O22	O	1.460961	0.245800	0.273564
O23	O	0.846929	-0.259016	-0.404298
O24	O	1.346929	0.240984	0.095702
O25	O	0.957322	-0.340507	-0.701831
O26	O	1.457322	0.159493	-0.201831
O27	O	0.843220	-0.345413	-0.539060
O28	O	1.343220	0.154587	-0.039060
O29	O	1.047483	-0.250394	-0.690398
O30	O	1.547483	0.249606	-0.190398
O31	O	1.038757	-0.450973	-0.404295
O32	O	1.538757	0.049027	0.095705
O33	O	0.952357	-0.454623	-0.539059
O34	O	1.452357	0.045377	-0.039059
C35	C	0.819544	-0.303303	-0.473368
C36	C	1.319544	0.196697	0.026632
C37	C	0.741337	-0.306653	-0.478568
C38	C	1.241337	0.193347	0.021432
C39	C	0.298915	-0.327837	-0.511571
C40	C	0.798915	0.172163	-0.011571
C41	C	0.372399	-0.324695	-0.506666
C42	C	0.872399	0.175305	-0.006666
C43	C	0.411052	-0.278069	-0.434157
C44	C	0.911052	0.221931	0.065843
C45	C	0.376217	-0.234588	-0.366541
C46	C	0.876217	0.265412	0.133459
C47	C	0.302734	-0.237735	-0.371442
C48	C	0.802734	0.262265	0.128558
C49	C	0.633019	-0.266319	-0.415852
C50	C	1.133019	0.233681	0.084148
C51	C	0.706507	-0.263174	-0.410959
C52	C	1.206507	0.236826	0.089041
C53	C	0.702684	-0.353282	-0.551083
C54	C	1.202684	0.146718	-0.051083
C55	C	0.629200	-0.356421	-0.555981
C56	C	1.129200	0.143579	-0.055981
C57	C	0.594371	-0.312943	-0.488362
C58	C	1.094371	0.187057	0.011638
C59	C	0.486165	-0.274855	-0.429144
C60	C	0.986165	0.225145	0.070856
C61	C	0.519259	-0.316161	-0.493370
C62	C	1.019259	0.183839	0.006630
C63	C	0.994473	-0.478328	-0.473387
C64	C	1.494473	0.021672	0.026613
C65	C	0.991166	-0.556535	-0.478600
C66	C	1.491166	-0.056535	0.021400
C67	C	1.034631	-0.591352	-0.410938
C68	C	1.534631	-0.091352	0.089062
C69	C	1.031525	-0.664835	-0.415846
C70	C	1.531525	-0.164835	0.084154
C71	C	0.984949	-0.703501	-0.488412
C72	C	1.484949	-0.203501	0.011588
C73	C	0.941482	-0.668679	-0.556081
C74	C	1.441482	-0.168679	-0.056081
C75	C	0.944593	-0.595197	-0.551177
C76	C	1.444593	-0.095197	-0.051177
C77	C	0.973309	-0.925467	-0.506730
C78	C	1.473309	-0.425467	-0.006730
C79	C	0.970200	-0.998954	-0.511627
C80	C	1.470200	-0.498954	-0.011627
C81	C	1.060244	-0.995105	-0.371393
C82	C	1.560244	-0.495105	0.128607
C83	C	1.063347	-0.921622	-0.366491
C84	C	1.563347	-0.421622	0.133509
C85	C	1.019883	-0.886806	-0.434164
C86	C	1.519883	-0.386806	0.065836
C87	C	0.981771	-0.778613	-0.493428
C88	C	1.481771	-0.278613	0.006572
C89	C	1.023065	-0.811695	-0.429152
C90	C	1.523065	-0.311695	0.070848
C91	C	1.185878	-0.287691	-0.449135
C92	C	1.685878	0.212309	0.050865
C93	C	1.264085	-0.284358	-0.443962
C94	C	1.764085	0.215642	0.056038
C95	C	1.002410	-0.295441	-0.735301
C96	C	1.502410	0.204559	-0.235301
C97	C	1.002434	-0.295410	-0.852074
C98	C	1.502434	0.204590	-0.352074
C99	C	1.010286	-0.111981	-0.449138
C100	C	1.510286	0.388019	0.050862
C101	C	1.013665	-0.033771	-0.443965
C102	C	1.513665	0.466229	0.056035
C103	C	1.096325	-0.201581	-0.840189
C104	C	1.596325	0.298419	-0.340189
C105	C	1.143281	-0.154656	-0.889106
C106	C	1.643281	0.345344	-0.389106
C107	C	1.143299	-0.154629	-0.998824
C108	C	1.643299	0.345371	-0.498824
C109	C	1.096355	-0.201532	-1.059630
C110	C	1.596355	0.298468	-0.559630
C111	C	1.049400	-0.248458	-1.010713
C112	C	1.549400	0.251542	-0.510713
C113	C	1.049388	-0.248480	-0.900991
C114	C	1.549388	0.251520	-0.400991
C115	C	0.955506	-0.342282	-1.022598
C116	C	1.455506	0.157718	-0.522598
C117	C	0.955490	-0.342313	-0.912879
C118	C	1.455490	0.157687	-0.412879
C119	C	0.908562	-0.389185	-1.083403
C120	C	1.408562	0.110815	-0.583403
C121	C	0.861609	-0.436115	-1.034486
C122	C	1.361609	0.063885	-0.534486
C123	C	0.861593	-0.436140	-0.924760
C124	C	1.361593	0.063860	-0.424760
C125	C	0.908535	-0.389239	-0.863962
C126	C	1.408535	0.110761	-0.363962
C127	C	1.002341	-0.295530	-0.188310
C128	C	1.502341	0.204470	0.311690
C129	C	1.002462	-0.295357	-0.071515
C130	C	1.502462	0.204643	0.428485
H131	H	0.737977	-0.225197	-0.351920
H132	H	1.237977	0.274803	0.148080
H133	H	1.096322	-0.201604	-0.750849
H134	H	1.596322	0.298396	-0.250849
H135	H	0.908578	-0.389158	-1.172741
H136	H	1.408578	0.110842	-0.672741
Cl137	Cl	0.534764	-0.216238	-0.337998
Cl138	Cl	1.034764	0.283762	0.162002
Cl139	Cl	0.802597	-0.495068	-1.110930
Cl140	Cl	1.302597	0.004932	-0.610930
Cl141	Cl	1.096374	-0.201491	-1.197563
Cl142	Cl	1.596374	0.298509	-0.697563
Cl143	Cl	0.918666	-0.881708	-0.591804
Cl144	Cl	1.418666	-0.381708	-0.091804
Cl145	Cl	0.911635	-1.047562	-0.602846
Cl146	Cl	1.411635	-0.547562	-0.102846
Cl147	Cl	1.093182	-0.542751	-0.319701
Cl148	Cl	1.593182	-0.042751	0.180299
Cl149	Cl	1.114886	-1.038877	-0.286331
Cl150	Cl	1.614886	-0.538877	0.213669
H151	H	0.487785	-0.354126	-0.552403
H152	H	0.987785	0.145874	-0.052403
H153	H	1.181501	-0.116467	-0.839586
H154	H	1.681501	0.383533	-0.339586
Cl155	Cl	0.908522	-0.389269	-0.726028
Cl156	Cl	1.408522	0.110731	-0.226028
H157	H	1.066918	-0.693180	-0.360748
H158	H	1.566918	-0.193180	0.139252
Cl159	Cl	0.882934	-0.717288	-0.647313
Cl160	Cl	1.382934	-0.217288	-0.147313
H161	H	0.823348	-0.474345	-0.884940
H162	H	1.323348	0.025655	-0.384940
Cl163	Cl	0.589244	-0.211652	-0.330854
Cl164	Cl	1.089244	0.288348	0.169146
H165	H	0.267449	-0.365801	-0.570621
H166	H	0.767449	0.134199	-0.070621
Cl167	Cl	1.202319	-0.095627	-1.060323
Cl168	Cl	1.702319	0.404373	-0.560323
Cl169	Cl	0.424810	-0.175975	-0.275383
Cl170	Cl	0.924810	0.324025	0.224617
Cl171	Cl	0.416182	-0.379359	-0.591663
Cl172	Cl	0.916182	0.120641	-0.091663
H173	H	0.597733	-0.394390	-0.615024
H174	H	1.097733	0.105610	-0.115024
H175	H	1.101273	-0.890141	-0.307403
H176	H	1.601273	-0.390141	0.192597
H177	H	0.274377	-0.202327	-0.316390
H178	H	0.774377	0.297673	0.183610
Cl179	Cl	0.746472	-0.407943	-0.636076
Cl180	Cl	1.246472	0.092057	-0.136076
H181	H	1.060989	-0.780211	-0.370073
H182	H	1.560989	-0.280211	0.129927
Cl183	Cl	0.889951	-0.551427	-0.636244
Cl184	Cl	1.389951	-0.051427	-0.136244
H185	H	0.943848	-0.810103	-0.552509
H186	H	1.443848	-0.310103	-0.052509
