data_functionalizedCrystal
_audit_creation_method	'MofGen! by Chris Wilmer'
_symmetry_space_group_name_H-M	'P1'
_symmetry_Int_Tables_number	1
_symmetry_cell_setting	triclinic
loop_
_symmetry_equiv_pos_as_xyz
  x,y,z
_cell_length_a	15.944493
_cell_length_b	15.021413
_cell_length_c	14.519709
_cell_angle_alpha	89.996924
_cell_angle_beta	83.577594
_cell_angle_gamma	90.006749
loop_
_atom_site_label
_atom_site_type_symbol
_atom_site_fract_x
_atom_site_fract_y
_atom_site_fract_z
O1	O	1.114731	0.074022	0.118675
O2	O	1.364731	0.324022	0.368675
O3	O	1.614731	0.574022	0.618675
O4	O	1.864731	0.824022	0.868675
O5	O	0.870196	0.074027	0.133395
O6	O	1.120196	0.324027	0.383395
O7	O	1.370196	0.574027	0.633395
O8	O	1.620196	0.824027	0.883395
O9	O	0.998947	0.074016	-0.008217
O10	O	1.248947	0.324016	0.241783
O11	O	1.498947	0.574016	0.491783
O12	O	1.748947	0.824016	0.741783
O13	O	0.985980	0.074033	0.260286
O14	O	1.235980	0.324033	0.510286
O15	O	1.485980	0.574033	0.760286
O16	O	1.735980	0.824033	1.010286
O17	O	0.998927	-0.074048	-0.008196
O18	O	1.248927	0.175952	0.241804
O19	O	1.498927	0.425952	0.491804
O20	O	1.748927	0.675952	0.741804
O21	O	0.870176	-0.074037	0.133415
O22	O	1.120176	0.175963	0.383415
O23	O	1.370176	0.425963	0.633415
O24	O	1.620176	0.675963	0.883415
O25	O	1.114711	-0.074042	0.118695
O26	O	1.364711	0.175958	0.368695
O27	O	1.614711	0.425958	0.618695
O28	O	1.864711	0.675958	0.868695
Zn29	Zn	0.992440	-0.097548	0.126058
Zn30	Zn	1.242440	0.152452	0.376058
Zn31	Zn	1.492440	0.402452	0.626058
Zn32	Zn	1.742440	0.652452	0.876058
Zn33	Zn	0.992467	0.097533	0.126031
Zn34	Zn	1.242467	0.347533	0.376031
Zn35	Zn	1.492467	0.597533	0.626031
Zn36	Zn	1.742467	0.847533	0.876031
O37	O	0.985960	-0.074032	0.260306
O38	O	1.235960	0.175968	0.510306
O39	O	1.485960	0.425968	0.760306
O40	O	1.735960	0.675968	1.010306
C41	C	0.838891	-0.000005	0.132803
C42	C	1.088891	0.249995	0.382803
C43	C	1.338891	0.499995	0.632803
C44	C	1.588891	0.749995	0.882803
C45	C	0.745639	-0.000003	0.130999
C46	C	0.995639	0.249997	0.380999
C47	C	1.245639	0.499997	0.630999
C48	C	1.495639	0.749997	0.880999
N49	N	0.992428	-0.230686	0.126076
N50	N	1.242428	0.019314	0.376076
N51	N	1.492428	0.269314	0.626076
N52	N	1.742428	0.519314	0.876076
C53	C	0.510000	0.000002	0.214355
C54	C	0.760000	0.250002	0.464355
C55	C	1.010000	0.500002	0.714355
C56	C	1.260000	0.750002	0.964355
C57	C	0.459367	-0.073008	0.169415
C58	C	0.709367	0.176992	0.419415
C59	C	0.959367	0.426992	0.669415
C60	C	1.209367	0.676992	0.919415
C61	C	0.574913	-0.000005	0.127657
C62	C	0.824913	0.249995	0.377657
C63	C	1.074913	0.499995	0.627657
C64	C	1.324913	0.749995	0.877657
C65	C	0.459391	0.072972	0.169374
C66	C	0.709391	0.322972	0.419374
C67	C	0.959391	0.572972	0.669374
C68	C	1.209391	0.822972	0.919374
C69	C	0.409999	-0.000003	0.124435
C70	C	0.659999	0.249997	0.374435
C71	C	0.909999	0.499997	0.624435
C72	C	1.159999	0.749997	0.874435
C73	C	0.525508	-0.073075	0.082740
C74	C	0.775508	0.176925	0.332740
C75	C	1.025508	0.426925	0.582740
C76	C	1.275508	0.676925	0.832740
C77	C	0.525536	0.072970	0.082712
C78	C	0.775536	0.322970	0.332712
C79	C	1.025536	0.572970	0.582712
C80	C	1.275536	0.822970	0.832712
C81	C	0.474935	-0.000058	0.037708
C82	C	0.724935	0.249942	0.287708
C83	C	0.974935	0.499942	0.537708
C84	C	1.224935	0.749942	0.787708
C85	C	0.669916	-0.000007	0.129516
C86	C	0.919916	0.249993	0.379516
C87	C	1.169916	0.499993	0.629516
C88	C	1.419916	0.749993	0.879516
C89	C	0.314999	-0.000008	0.122570
C90	C	0.564999	0.249992	0.372570
C91	C	0.814999	0.499992	0.622570
C92	C	1.064999	0.749992	0.872570
C93	C	0.932884	-0.470364	0.191526
C94	C	1.182884	-0.220364	0.441526
C95	C	1.432884	0.029636	0.691526
C96	C	1.682884	0.279636	0.941526
C97	C	1.008813	-0.529699	0.209413
C98	C	1.258813	-0.279699	0.459413
C99	C	1.508813	-0.029699	0.709413
C100	C	1.758813	0.220301	0.959413
C101	C	0.992449	-0.412293	0.126053
C102	C	1.242449	-0.162293	0.376053
C103	C	1.492449	0.087707	0.626053
C104	C	1.742449	0.337707	0.876053
C105	C	0.916542	-0.529700	0.108186
C106	C	1.166542	-0.279700	0.358186
C107	C	1.416542	-0.029700	0.608186
C108	C	1.666542	0.220300	0.858186
C109	C	0.992463	-0.587717	0.126032
C110	C	1.242463	-0.337717	0.376032
C111	C	1.492463	-0.087717	0.626032
C112	C	1.742463	0.162283	0.876032
C113	C	1.068416	-0.470321	0.143981
C114	C	1.318416	-0.220321	0.393981
C115	C	1.568416	0.029679	0.643981
C116	C	1.818416	0.279679	0.893981
C117	C	0.976095	-0.470317	0.042718
C118	C	1.226095	-0.220317	0.292718
C119	C	1.476095	0.029683	0.542718
C120	C	1.726095	0.279683	0.792718
C121	C	1.052078	-0.529624	0.060570
C122	C	1.302078	-0.279624	0.310570
C123	C	1.552078	-0.029624	0.560570
C124	C	1.802078	0.220376	0.810570
C125	C	0.992440	-0.311235	0.126067
C126	C	1.242440	-0.061235	0.376067
C127	C	1.492440	0.188765	0.626067
C128	C	1.742440	0.438765	0.876067
C129	C	0.992481	-0.688772	0.126018
C130	C	1.242481	-0.438772	0.376018
C131	C	1.492481	-0.188772	0.626018
C132	C	1.742481	0.061228	0.876018
C133	C	1.146017	-0.000009	0.119286
C134	C	1.396017	0.249991	0.369286
C135	C	1.646017	0.499991	0.619286
C136	C	1.896017	0.749991	0.869286
C137	C	1.239268	-0.000004	0.121090
C138	C	1.489268	0.249996	0.371090
C139	C	1.739268	0.499996	0.621090
C140	C	1.989268	0.749996	0.871090
C141	C	0.998333	-0.000016	-0.042565
C142	C	1.248333	0.249984	0.207435
C143	C	1.498333	0.499984	0.457435
C144	C	1.748333	0.749984	0.707435
C145	C	0.996522	-0.000016	-0.144943
C146	C	1.246522	0.249984	0.105057
C147	C	1.496522	0.499984	0.355057
C148	C	1.746522	0.749984	0.605057
N149	N	0.992486	0.230670	0.126006
N150	N	1.242486	0.480670	0.376006
N151	N	1.492486	0.730670	0.626006
N152	N	1.742486	0.980670	0.876006
C153	C	0.989855	0.000007	-0.519825
C154	C	1.239855	0.250007	-0.269825
C155	C	1.489855	0.500007	-0.019825
C156	C	1.739855	0.750007	0.230175
C157	C	0.991707	0.000000	-0.415521
C158	C	1.241707	0.250000	-0.165521
C159	C	1.491707	0.500000	0.084479
C160	C	1.741707	0.750000	0.334479
C161	C	0.993188	-0.000006	-0.332387
C162	C	1.243188	0.249994	-0.082387
C163	C	1.493188	0.499994	0.167613
C164	C	1.743188	0.749994	0.417613
C165	C	0.995040	-0.000011	-0.228077
C166	C	1.245040	0.249989	0.021923
C167	C	1.495040	0.499989	0.271923
C168	C	1.745040	0.749989	0.521923
C169	C	0.986575	0.000003	0.294655
C170	C	1.236575	0.250003	0.544655
C171	C	1.486575	0.500003	0.794655
C172	C	1.736575	0.750003	1.044655
C173	C	0.988385	0.000009	0.397032
C174	C	1.238385	0.250009	0.647032
C175	C	1.488385	0.500009	0.897032
C176	C	1.738385	0.750009	1.147032
H177	H	0.525732	-0.000061	0.289036
H178	H	0.775732	0.249939	0.539036
H179	H	1.025732	0.499939	0.789036
H180	H	1.275732	0.749939	1.039036
H181	H	0.962226	-0.444213	-0.027724
H182	H	1.212226	-0.194213	0.222276
H183	H	1.462226	0.055787	0.472276
H184	H	1.712226	0.305787	0.722276
H185	H	1.132630	-0.444348	0.159168
H186	H	1.382630	-0.194348	0.409168
H187	H	1.632630	0.055652	0.659168
H188	H	1.882630	0.305652	0.909168
H189	H	0.882563	-0.444345	0.246939
H190	H	1.132563	-0.194345	0.496939
H191	H	1.382563	0.055655	0.746939
H192	H	1.632563	0.305655	0.996939
H193	H	0.554274	-0.134861	0.046157
H194	H	0.804274	0.115139	0.296157
H195	H	1.054274	0.365139	0.546157
H196	H	1.304274	0.615139	0.796157
H197	H	0.459361	-0.000105	-0.037029
H198	H	0.709361	0.249895	0.212971
H199	H	0.959361	0.499895	0.462971
H200	H	1.209361	0.749895	0.712971
C201	C	0.420388	0.156352	0.218846
C202	C	0.670388	0.406352	0.468846
C203	C	0.920388	0.656352	0.718846
C204	C	1.170388	0.906352	0.968846
N205	N	0.391014	0.219151	0.256115
N206	N	0.641014	0.469151	0.506115
N207	N	0.891014	0.719151	0.756115
N208	N	1.141014	0.969151	1.006115
H209	H	1.102511	-0.555481	0.005189
H210	H	1.352511	-0.305481	0.255189
H211	H	1.602511	-0.055481	0.505189
H212	H	1.852511	0.194519	0.755189
C213	C	0.829810	-0.564932	0.087779
C214	C	1.079810	-0.314932	0.337779
C215	C	1.329810	-0.064932	0.587779
C216	C	1.579810	0.185068	0.837779
N217	N	0.764482	-0.591466	0.072414
N218	N	1.014482	-0.341466	0.322414
N219	N	1.264482	-0.091466	0.572414
N220	N	1.514482	0.158534	0.822414
C221	C	1.027512	-0.564946	0.304605
C222	C	1.277512	-0.314946	0.554605
C223	C	1.527512	-0.064946	0.804605
C224	C	1.777512	0.185054	1.054605
N225	N	1.041589	-0.591495	0.376306
N226	N	1.291589	-0.341495	0.626306
N227	N	1.541589	-0.091495	0.876306
N228	N	1.791589	0.158505	1.126306
H229	H	0.430474	-0.134726	0.206037
H230	H	0.680474	0.115274	0.456037
H231	H	0.930474	0.365274	0.706037
H232	H	1.180474	0.615274	0.956037
H233	H	0.554438	0.134692	0.046118
H234	H	0.804438	0.384692	0.296118
H235	H	1.054438	0.634692	0.546118
H236	H	1.304438	0.884692	0.796118
