data_functionalizedCrystal
_audit_creation_method	'MofGen! by Chris Wilmer'
_symmetry_space_group_name_H-M	'P1'
_symmetry_Int_Tables_number	1
_symmetry_cell_setting	triclinic
loop_
_symmetry_equiv_pos_as_xyz
  x,y,z
_cell_length_a	10.723024
_cell_length_b	17.019294
_cell_length_c	9.198806
_cell_angle_alpha	86.117847
_cell_angle_beta	89.996352
_cell_angle_gamma	83.929829
loop_
_atom_site_label
_atom_site_type_symbol
_atom_site_fract_x
_atom_site_fract_y
_atom_site_fract_z
O1	O	1.655493	0.110636	-0.134731
O2	O	2.155493	0.610636	0.365269
O3	O	1.292178	0.121226	-0.136061
O4	O	1.792178	0.621226	0.363939
O5	O	1.483971	0.001154	-0.121020
O6	O	1.983971	0.501154	0.378980
O7	O	1.463700	0.230709	-0.149771
O8	O	1.963700	0.730709	0.350229
O9	O	1.483955	0.001153	0.120765
O10	O	1.983955	0.501153	0.620765
O11	O	1.292163	0.121226	0.105724
O12	O	1.792163	0.621226	0.605724
O13	O	1.655477	0.110636	0.107055
O14	O	2.155477	0.610636	0.607055
Cu15	Cu	1.473819	0.115931	0.128466
Cu16	Cu	1.973819	0.615931	0.628466
Cu17	Cu	1.473837	0.115931	-0.157473
Cu18	Cu	1.973837	0.615931	0.342527
O19	O	1.463685	0.230709	0.092014
O20	O	1.963685	0.730709	0.592014
C21	C	1.245683	0.120456	-0.015073
C22	C	1.745683	0.620456	0.484927
C23	C	1.107164	0.118150	-0.014786
C24	C	1.607164	0.618150	0.485214
C25	C	1.483194	-0.028240	0.003551
C26	C	1.983194	0.471760	0.503551
C27	C	1.480888	-0.115823	0.014511
C28	C	1.980888	0.384177	0.514511
C29	C	1.031152	0.185336	-0.023201
C30	C	1.531152	0.685336	0.476799
C31	C	0.887985	0.182955	-0.022905
C32	C	1.387985	0.682955	0.477095
C33	C	1.479816	-0.156965	-0.112136
C34	C	1.979816	0.343035	0.387864
C35	C	1.477642	-0.239257	-0.101834
C36	C	1.977642	0.260743	0.398166
C37	C	1.476548	-0.280407	0.035117
C38	C	1.976548	0.219593	0.535117
C39	C	1.477617	-0.239259	0.161774
C40	C	1.977617	0.260741	0.661774
C41	C	1.479782	-0.156967	0.151470
C42	C	1.979782	0.343033	0.651470
C43	C	1.470001	-0.528875	0.072823
C44	C	1.970001	-0.028875	0.572823
C45	C	1.467839	-0.611173	0.083117
C46	C	1.967839	-0.111173	0.583117
C47	C	1.467862	-0.611165	-0.180492
C48	C	1.967862	-0.111165	0.319508
C49	C	1.470035	-0.528872	-0.190784
C50	C	1.970035	-0.028872	0.309216
C51	C	1.471097	-0.487731	-0.064127
C52	C	1.971097	0.012269	0.435873
C53	C	1.474330	-0.364524	0.045652
C54	C	1.974330	0.135476	0.545652
C55	C	1.473307	-0.403615	-0.074663
C56	C	1.973307	0.096385	0.425337
C57	C	1.701973	0.111407	-0.013937
C58	C	2.201973	0.611407	0.486063
C59	C	1.840492	0.113713	-0.014234
C60	C	2.340492	0.613713	0.485766
C61	C	1.464461	0.260102	-0.032560
C62	C	1.964461	0.760102	0.467440
C63	C	1.466767	0.347685	-0.043530
C64	C	1.966767	0.847685	0.456470
N65	N	1.473815	0.115930	0.329580
N66	N	1.973815	0.615930	0.829580
N67	N	1.473850	0.115926	-0.358586
N68	N	1.973850	0.615926	0.141414
C69	C	1.554347	0.065293	0.408120
C70	C	2.054347	0.565293	0.908120
C71	C	1.554366	0.065290	0.575533
C72	C	2.054366	0.565290	1.075533
H73	H	1.072065	0.244620	-0.030618
H74	H	1.572065	0.744620	0.469382
H75	H	1.476774	-0.272752	-0.204963
H76	H	1.976774	0.227248	0.295037
H77	H	1.470927	-0.495374	-0.302304
H78	H	1.970927	0.004626	0.197696
C79	C	1.471175	-0.483631	0.212150
C80	C	1.971175	0.016369	0.712150
N81	N	1.472060	-0.449550	0.317099
N82	N	1.972060	0.050450	0.817099
C83	C	1.466680	-0.656426	-0.319804
C84	C	1.966680	-0.156426	0.180196
N85	N	1.465783	-0.690516	-0.424740
N86	N	1.965783	-0.190516	0.075260
C87	C	1.380684	0.174494	0.406172
C88	C	1.880684	0.674494	0.906172
N89	N	1.310534	0.218606	0.463858
N90	N	1.810534	0.718606	0.963858
H91	H	0.905798	0.056193	-0.007038
H92	H	1.405798	0.556193	0.492962
C93	C	1.051898	0.038057	-0.004754
C94	C	1.551898	0.538057	0.495246
N95	N	1.010273	-0.022271	0.002799
N96	N	1.510273	0.477729	0.502799
H97	H	1.623317	0.021940	0.643049
H98	H	2.123317	0.521940	1.143049
H99	H	0.822671	0.240471	-0.030116
H100	H	1.322671	0.740471	0.469884
C101	C	1.481019	-0.111707	-0.262795
C102	C	1.981019	0.388293	0.237205
N103	N	1.481919	-0.077621	-0.376275
N104	N	1.981919	0.422379	0.123725
H105	H	1.476719	-0.272770	0.273282
H106	H	1.976719	0.227230	0.773282
C107	C	1.647453	0.006713	0.331531
C108	C	2.147453	0.506713	0.831531
N109	N	1.717577	-0.037416	0.273846
N110	N	2.217577	0.462584	0.773846
H111	H	1.404904	0.159284	0.573906
H112	H	1.904904	0.659284	1.073906
C113	C	1.466632	-0.656436	0.233781
C114	C	1.966632	-0.156436	0.733781
N115	N	1.465724	-0.690528	0.347255
N116	N	1.965724	-0.190528	0.847255
H117	H	1.480638	-0.123469	0.254599
H118	H	1.980638	0.376531	0.754599
H119	H	1.474188	-0.370107	-0.186168
H120	H	1.974188	0.129893	0.313832
H121	H	1.473443	-0.398038	0.157158
H122	H	1.973443	0.101962	0.657158
