data_functionalizedCrystal
_audit_creation_method	'MofGen! by Chris Wilmer'
_symmetry_space_group_name_H-M	'P1'
_symmetry_Int_Tables_number	1
_symmetry_cell_setting	triclinic
loop_
_symmetry_equiv_pos_as_xyz
  x,y,z
_cell_length_a	18.050589
_cell_length_b	13.897449
_cell_length_c	13.897441
_cell_angle_alpha	90.022859
_cell_angle_beta	89.972127
_cell_angle_gamma	89.971946
loop_
_atom_site_label
_atom_site_type_symbol
_atom_site_fract_x
_atom_site_fract_y
_atom_site_fract_z
Zn1	Zn	-0.295639	-1.474632	-0.545454
Zn2	Zn	0.037694	-1.141299	-0.212121
Zn3	Zn	0.371028	-0.807965	0.121213
Zn4	Zn	-0.419843	-1.474496	-0.384163
Zn5	Zn	-0.086510	-1.141163	-0.050830
Zn6	Zn	0.246823	-0.807830	0.282504
Zn7	Zn	-0.295671	-1.313321	-0.384166
Zn8	Zn	0.037662	-0.979988	-0.050833
Zn9	Zn	0.370995	-0.646655	0.282500
Zn10	Zn	-0.419791	-1.313273	-0.545410
Zn11	Zn	-0.086458	-0.979940	-0.212076
Zn12	Zn	0.246875	-0.646607	0.121257
O13	O	-0.357736	-1.393931	-0.464798
O14	O	-0.024403	-1.060597	-0.131465
O15	O	0.308930	-0.727264	0.201868
O16	O	-0.312123	-1.609596	-0.524076
O17	O	0.021210	-1.276262	-0.190742
O18	O	0.354543	-0.942929	0.142591
O19	O	-0.403407	-1.453079	-0.249182
O20	O	-0.070074	-1.119746	0.084151
O21	O	0.263260	-0.786413	0.417485
O22	O	-0.191742	-1.334796	-0.405582
O23	O	0.141591	-1.001463	-0.072248
O24	O	0.474924	-0.668130	0.261085
O25	O	-0.403376	-1.609496	-0.405576
O26	O	-0.070042	-1.276163	-0.072243
O27	O	0.263291	-0.942829	0.261091
O28	O	-0.191719	-1.453311	-0.524079
O29	O	0.141615	-1.119977	-0.190746
O30	O	0.474948	-0.786644	0.142588
O31	O	-0.312178	-1.334665	-0.249184
O32	O	0.021155	-1.001331	0.084149
O33	O	0.354488	-0.667998	0.417482
O34	O	-0.312128	-1.178333	-0.405539
O35	O	0.021205	-0.845000	-0.072205
O36	O	0.354539	-0.511667	0.261128
O37	O	-0.403287	-1.334715	-0.680397
O38	O	-0.069954	-1.001381	-0.347064
O39	O	0.263380	-0.668048	-0.013731
O40	O	-0.403318	-1.178298	-0.524003
O41	O	-0.069985	-0.844965	-0.190670
O42	O	0.263348	-0.511631	0.142663
O43	O	-0.312073	-1.453264	-0.680430
O44	O	0.021260	-1.119931	-0.347097
O45	O	0.354594	-0.786598	-0.013763
O46	O	-0.523761	-1.453033	-0.405533
O47	O	-0.190428	-1.119700	-0.072200
O48	O	0.142906	-0.786366	0.261134
O49	O	-0.523723	-1.334583	-0.524000
O50	O	-0.190390	-1.001250	-0.190667
O51	O	0.142944	-0.667916	0.142667
C52	C	-0.357721	-1.143316	-0.464767
C53	C	-0.024388	-0.809983	-0.131434
C54	C	0.308945	-0.476650	0.201900
C55	C	-0.357733	-1.036102	-0.464777
C56	C	-0.024400	-0.702769	-0.131443
C57	C	0.308934	-0.369436	0.201890
C58	C	-0.550688	-1.393814	-0.464782
C59	C	-0.217355	-1.060481	-0.131449
C60	C	0.115978	-0.727148	0.201884
C61	C	-0.633234	-1.393853	-0.464808
C62	C	-0.299901	-1.060519	-0.131474
C63	C	0.033432	-0.727186	0.201859
C64	C	-0.357732	-0.839807	-0.464795
C65	C	-0.024399	-0.506474	-0.131461
C66	C	0.308935	-0.173141	0.201872
C67	C	-0.357730	-0.949040	-0.464782
C68	C	-0.024397	-0.615707	-0.131449
C69	C	0.308936	-0.282373	0.201885
C70	C	-0.832691	-1.329503	-0.529208
C71	C	-0.499358	-0.996170	-0.195874
C72	C	-0.166024	-0.662836	0.137459
C73	C	-0.882136	-1.305986	-0.441188
C74	C	-0.548803	-0.972653	-0.107855
C75	C	-0.215470	-0.639319	0.225478
C76	C	-0.784365	-1.393947	-0.464820
C77	C	-0.451031	-1.060614	-0.131487
C78	C	-0.117698	-0.727281	0.201846
C79	C	-0.882001	-1.417512	-0.552850
C80	C	-0.548668	-1.084178	-0.219517
C81	C	-0.215334	-0.750845	0.113817
C82	C	-0.930350	-1.394037	-0.464840
C83	C	-0.597016	-1.060704	-0.131507
C84	C	-0.263683	-0.727371	0.201826
C85	C	-0.832723	-1.370384	-0.376754
C86	C	-0.499389	-1.037051	-0.043421
C87	C	-0.166056	-0.703718	0.289912
C88	C	-0.832583	-1.481951	-0.488475
C89	C	-0.499249	-1.148618	-0.155142
C90	C	-0.165916	-0.815284	0.178191
C91	C	-0.882006	-1.458467	-0.400395
C92	C	-0.548672	-1.125134	-0.067062
C93	C	-0.215339	-0.791801	0.266271
C94	C	-0.700266	-1.393893	-0.464810
C95	C	-0.366933	-1.060560	-0.131477
C96	C	-0.033600	-0.727227	0.201856
C97	C	-1.014446	-1.394092	-0.464841
C98	C	-0.681113	-1.060758	-0.131507
C99	C	-0.347779	-0.727425	0.201826
C100	C	-0.164031	-1.394074	-0.464836
C101	C	0.169303	-1.060741	-0.131502
C102	C	0.502636	-0.727407	0.201831
C103	C	-0.081485	-1.394135	-0.464851
C104	C	0.251849	-1.060802	-0.131518
C105	C	0.585182	-0.727468	0.201815
C106	C	-0.357671	-1.393999	-0.716392
C107	C	-0.024337	-1.060666	-0.383058
C108	C	0.308996	-0.727333	-0.049725
C109	C	-0.357643	-1.394028	-0.823606
C110	C	-0.024309	-1.060695	-0.490272
C111	C	0.309024	-0.727362	-0.156939
C112	C	-0.357747	-0.645524	-0.464821
C113	C	-0.024413	-0.312190	-0.131488
C114	C	0.308920	0.021143	0.201846
C115	C	-0.357739	-0.752738	-0.464807
C116	C	-0.024405	-0.419404	-0.131474
C117	C	0.308928	-0.086071	0.201860
C118	C	-0.357592	-1.394055	-1.019901
C119	C	-0.024259	-1.060721	-0.686567
C120	C	0.309074	-0.727388	-0.353234
C121	C	-0.357622	-1.394037	-0.910668
C122	C	-0.024289	-1.060704	-0.577335
C123	C	0.309044	-0.727370	-0.244002
C124	C	-0.357748	-1.393918	-0.214184
C125	C	-0.024415	-1.060585	0.119149
C126	C	0.308919	-0.727251	0.452483
C127	C	-0.357567	-1.394076	-0.106971
C128	C	-0.024233	-1.060743	0.226363
C129	C	0.309100	-0.727409	0.559696
H130	H	-0.811037	-1.274924	-0.583581
H131	H	-0.477704	-0.941591	-0.250248
H132	H	-0.144370	-0.608258	0.083086
O133	O	-0.910511	-1.530709	-0.328201
O134	O	-0.577177	-1.197376	0.005132
O135	O	-0.243844	-0.864042	0.338465
H136	H	-0.944292	-1.585779	-0.365864
H137	H	-0.610959	-1.252446	-0.032531
H138	H	-0.277625	-0.919113	0.300803
O139	O	-0.910970	-1.207461	-0.414679
O140	O	-0.577637	-0.874128	-0.081345
O141	O	-0.244303	-0.540794	0.251988
H142	H	-0.891224	-1.154055	-0.468218
H143	H	-0.557891	-0.820721	-0.134885
H144	H	-0.224558	-0.487388	0.198449
O145	O	-0.804179	-1.343909	-0.278124
O146	O	-0.470846	-1.010576	0.055210
O147	O	-0.137513	-0.677243	0.388543
H148	H	-0.742691	-1.344041	-0.278900
H149	H	-0.409358	-1.010708	0.054433
H150	H	-0.076024	-0.677374	0.387767
O151	O	-0.803892	-1.580564	-0.514895
O152	O	-0.470559	-1.247231	-0.181561
O153	O	-0.137226	-0.913897	0.151772
H154	H	-0.823653	-1.599968	-0.587986
H155	H	-0.490319	-1.266634	-0.254652
H156	H	-0.156986	-0.933301	0.078681
O157	O	-0.910672	-1.443874	-0.651449
O158	O	-0.577339	-1.110541	-0.318115
O159	O	-0.244005	-0.777208	0.015218
H160	H	-0.890920	-1.390226	-0.704741
H161	H	-0.557587	-1.056893	-0.371408
H162	H	-0.224254	-0.723559	-0.038075
