data_functionalizedCrystal
_audit_creation_method	'MofGen! by Chris Wilmer'
_symmetry_space_group_name_H-M	'P1'
_symmetry_Int_Tables_number	1
_symmetry_cell_setting	triclinic
loop_
_symmetry_equiv_pos_as_xyz
  x,y,z
_cell_length_a	14.044220
_cell_length_b	12.837942
_cell_length_c	13.101050
_cell_angle_alpha	86.281157
_cell_angle_beta	93.660060
_cell_angle_gamma	94.008909
loop_
_atom_site_label
_atom_site_type_symbol
_atom_site_fract_x
_atom_site_fract_y
_atom_site_fract_z
O1	O	-1.285201	-0.246744	-0.085103
O2	O	-1.008412	-0.237648	-0.085129
O3	O	-1.140669	-0.090726	-0.085110
O4	O	-1.152945	-0.393666	-0.085121
O5	O	-1.131181	-0.101288	0.085319
O6	O	-0.998924	-0.248210	0.085300
O7	O	-1.275713	-0.257306	0.085326
Zn8	Zn	-1.135812	-0.254435	0.112372
Zn9	Zn	-1.148313	-0.240519	-0.112175
O10	O	-1.143457	-0.404228	0.085307
C11	C	-0.967994	-0.238948	0.000082
C12	C	-0.861697	-0.227073	0.000072
C13	C	-1.316131	-0.256006	0.000113
C14	C	-1.422429	-0.267880	0.000116
C15	C	-1.131778	-0.057003	0.000103
C16	C	-1.119411	0.059218	0.000101
C17	C	-0.667073	-0.205366	0.000094
C18	C	-0.617047	-0.289583	0.000095
C19	C	-0.508752	-0.277505	0.000106
C20	C	-0.775378	-0.217443	0.000082
C21	C	-1.152347	-0.437951	0.000092
C22	C	-1.164715	-0.554172	0.000088
N23	N	-1.127288	-0.263933	0.265619
C24	C	-1.268091	0.286428	0.000093
C25	C	-1.256475	0.395629	0.000090
C26	C	-1.084565	0.386821	0.000085
C27	C	-1.096181	0.277620	0.000088
C28	C	-1.187946	0.227428	0.000093
C29	C	-1.199561	0.118226	0.000103
C30	C	-1.027652	0.109420	0.000091
C31	C	-1.016037	0.218620	0.000088
C32	C	-1.115691	-0.276864	0.474660
C33	C	-1.168436	-0.218096	0.525543
C34	C	-1.161984	-0.225291	0.641861
C35	C	-1.122142	-0.269670	0.358332
N36	N	-1.156842	-0.231024	0.734578
H37	H	-0.655550	-0.370755	0.000087
H38	H	-0.941324	0.259502	0.000079
C39	C	-0.983630	0.442051	0.000088
N40	N	-0.907604	0.483651	0.000098
C41	C	-1.048141	-0.352128	0.533823
N42	N	-0.997264	-0.408817	0.578396
H43	H	-1.342809	0.245561	0.000108
C44	C	-0.615060	-0.095713	0.000095
N45	N	-0.575872	-0.013122	0.000092
C46	C	-1.344640	0.460525	0.000097
N47	N	-1.411050	0.509405	0.000104
H48	H	-1.218440	-0.162381	0.481748
C49	C	-1.300504	0.063016	0.000106
N50	N	-1.376538	0.021436	0.000104
H51	H	-0.962393	0.061370	0.000099
