data_functionalizedCrystal
_audit_creation_method	'MofGen! by Chris Wilmer'
_symmetry_space_group_name_H-M	'P1'
_symmetry_Int_Tables_number	1
_symmetry_cell_setting	triclinic
loop_
_symmetry_equiv_pos_as_xyz
  x,y,z
_cell_length_a	16.109293
_cell_length_b	15.995343
_cell_length_c	15.186229
_cell_angle_alpha	90.010549
_cell_angle_beta	89.996077
_cell_angle_gamma	96.526273
loop_
_atom_site_label
_atom_site_type_symbol
_atom_site_fract_x
_atom_site_fract_y
_atom_site_fract_z
O1	O	-1.103157	0.107596	0.073307
O2	O	-0.861097	0.120997	0.073295
O3	O	-0.988747	-0.007594	0.073285
O4	O	-0.975507	0.236186	0.073317
O5	O	-0.988746	-0.007601	-0.073172
O6	O	-0.861096	0.120989	-0.073162
O7	O	-1.103156	0.107588	-0.073150
Zn8	Zn	-0.982126	0.114287	-0.096409
Zn9	Zn	-0.982127	0.114298	0.096555
O10	O	-0.975506	0.236179	-0.073140
C11	C	-0.830122	0.120451	0.000065
C12	C	-0.737826	0.118827	0.000059
C13	C	-0.525482	0.115068	-0.079772
C14	C	-0.438762	0.113533	-0.079772
C15	C	-0.438773	0.113546	0.079904
C16	C	-0.525493	0.115075	0.079903
C17	C	-0.568845	0.115840	0.000062
C18	C	-0.395404	0.112776	0.000064
C19	C	-0.301378	0.111112	0.000065
C20	C	-0.662878	0.117503	0.000060
C21	C	-0.988201	-0.038792	0.000054
C22	C	-0.986563	-0.131743	0.000047
C23	C	-0.983590	-0.301928	0.000067
C24	C	-0.891447	-0.325246	0.000064
C25	C	-0.889713	-0.421923	0.000407
C26	C	-0.980663	-0.469487	0.000086
C27	C	-1.026995	-0.440398	0.083554
C28	C	-1.028088	-0.343605	0.083614
C29	C	-1.029435	-0.343719	-0.082941
C30	C	-1.026034	-0.440213	-0.084028
C31	C	-0.979013	-0.564185	0.000099
C32	C	-0.985243	-0.207231	0.000060
C33	C	-0.134131	0.108142	0.000076
C34	C	-0.226424	0.109789	0.000067
C35	C	-0.976053	0.267377	0.000093
C36	C	-0.977690	0.360328	0.000106
N37	N	-0.982129	0.114298	0.228247
N38	N	-0.982131	0.114280	-0.228102
C39	C	-1.038761	0.057469	0.453966
C40	C	-1.038764	0.057466	0.546155
C41	C	-0.925496	0.171116	0.546173
C42	C	-0.925498	0.171121	0.453985
C43	C	-0.982130	0.114293	0.407884
C44	C	-0.982130	0.114285	0.592261
C45	C	-0.982132	0.114283	0.692218
C46	C	-0.982129	0.114296	0.307921
H47	H	-0.560800	0.115701	0.144917
H48	H	-1.000364	-0.315449	-0.146229
H49	H	-1.084879	0.011196	0.583673
H50	H	-0.403465	0.112924	0.144908
H51	H	-1.095660	-0.329052	0.087175
H52	H	-0.879382	0.217399	0.416463
H53	H	-0.853437	-0.440939	-0.059410
Cl54	Cl	-1.130340	-0.489593	0.087996
Cl55	Cl	-0.977918	-0.471386	0.179824
Cl56	Cl	-0.836296	-0.281996	-0.092335
H57	H	-0.992294	-0.458771	-0.145779
Cl58	Cl	-0.384252	0.112564	-0.180139
Cl59	Cl	-1.128522	-0.491066	-0.092160
H60	H	-0.560777	0.115691	-0.144784
H61	H	-1.084875	0.011197	0.416432
Cl62	Cl	-0.854302	0.242551	0.604133
H63	H	-0.856313	-0.296243	0.059828
Cl64	Cl	-0.979128	-0.302218	0.180307
Cl65	Cl	-0.833987	-0.450365	0.093328
Cl66	Cl	-1.134148	-0.322113	-0.084184
