data_functionalizedCrystal
_audit_creation_method	'MofGen! by Chris Wilmer'
_symmetry_space_group_name_H-M	'P1'
_symmetry_Int_Tables_number	1
_symmetry_cell_setting	triclinic
loop_
_symmetry_equiv_pos_as_xyz
  x,y,z
_cell_length_a	11.792254
_cell_length_b	19.288857
_cell_length_c	10.868271
_cell_angle_alpha	89.996434
_cell_angle_beta	90.005560
_cell_angle_gamma	96.334147
loop_
_atom_site_label
_atom_site_type_symbol
_atom_site_fract_x
_atom_site_fract_y
_atom_site_fract_z
O1	O	-1.505452	0.095239	-0.102363
O2	O	-1.005452	0.595239	0.397637
O3	O	-1.174963	0.105041	-0.102359
O4	O	-0.674963	0.605041	0.397641
O5	O	-1.349762	-0.000937	-0.102346
O6	O	-0.849762	0.499063	0.397654
O7	O	-1.330653	0.201216	-0.102376
O8	O	-0.830653	0.701216	0.397624
O9	O	-1.349746	-0.000933	0.102298
O10	O	-0.849746	0.499067	0.602298
O11	O	-1.174948	0.105044	0.102286
O12	O	-0.674948	0.605044	0.602286
O13	O	-1.505436	0.095242	0.102281
O14	O	-1.005436	0.595242	0.602281
Zn15	Zn	-1.340189	0.100144	0.134775
Zn16	Zn	-0.840189	0.600144	0.634775
Zn17	Zn	-1.340210	0.100139	-0.134853
Zn18	Zn	-0.840210	0.600139	0.365147
O19	O	-1.330638	0.201219	0.102269
O20	O	-0.830638	0.701219	0.602269
C21	C	-1.132674	0.104425	-0.000036
C22	C	-0.632674	0.604425	0.499964
C23	C	-1.006689	0.102577	-0.000033
C24	C	-0.506689	0.602577	0.499967
C25	C	-0.904376	0.101075	-0.000036
C26	C	-0.404376	0.601075	0.499964
C27	C	-0.776017	0.099197	-0.000033
C28	C	-0.276017	0.599197	0.499967
C29	C	-1.349140	-0.026815	-0.000023
C30	C	-0.849140	0.473185	0.499977
C31	C	-1.347299	-0.103929	-0.000019
C32	C	-0.847299	0.396071	0.499981
C33	C	-1.346448	-0.140147	-0.111571
C34	C	-0.846448	0.359853	0.388429
C35	C	-1.344702	-0.212603	-0.111580
C36	C	-0.844702	0.287397	0.388420
C37	C	-1.343829	-0.248840	-0.000031
C38	C	-0.843829	0.251160	0.499969
C39	C	-1.344674	-0.212614	0.111535
C40	C	-0.844674	0.287386	0.611535
C41	C	-1.346409	-0.140158	0.111541
C42	C	-0.846409	0.359842	0.611541
C43	C	-1.407550	-0.368706	0.085421
C44	C	-0.907550	0.131294	0.585421
C45	C	-1.405823	-0.441161	0.085411
C46	C	-0.905823	0.058839	0.585411
C47	C	-1.338474	-0.472317	-0.000045
C48	C	-0.838474	0.027683	0.499955
C49	C	-1.272867	-0.431010	-0.085511
C50	C	-0.772867	0.068990	0.414489
C51	C	-1.274602	-0.358554	-0.085505
C52	C	-0.774602	0.141446	0.414495
C53	C	-1.341948	-0.327406	-0.000025
C54	C	-0.841948	0.172594	0.499975
C55	C	-1.335728	-0.587099	-0.111615
C56	C	-0.835728	-0.087099	0.388385
C57	C	-1.333975	-0.659556	-0.111619
C58	C	-0.833975	-0.159556	0.388381
C59	C	-1.333958	-0.659566	0.111500
C60	C	-0.833958	-0.159566	0.611500
C61	C	-1.335700	-0.587110	0.111501
C62	C	-0.835700	-0.087110	0.611501
C63	C	-1.336590	-0.550881	-0.000059
C64	C	-0.836590	-0.050881	0.499941
C65	C	-0.547725	0.095858	-0.000038
C66	C	-0.047725	0.595858	0.499962
C67	C	-0.673710	0.097706	-0.000031
C68	C	-0.173710	0.597706	0.499969
C69	C	-1.331259	0.227098	-0.000057
C70	C	-0.831259	0.727098	0.499943
C71	C	-1.333100	0.304212	-0.000069
C72	C	-0.833100	0.804212	0.499931
N73	N	-1.340183	0.100146	0.318789
N74	N	-0.840183	0.600146	0.818789
N75	N	-1.340225	0.100131	-0.318867
N76	N	-0.840225	0.600131	0.181133
C77	C	-1.340192	0.100146	0.430127
C78	C	-0.840192	0.600146	0.930127
C79	C	-1.340207	0.100140	0.569805
C80	C	-0.840207	0.600140	1.069805
H81	H	-1.347170	-0.110653	-0.202413
H82	H	-0.847170	0.389347	0.297587
F83	F	-1.333023	-0.698128	0.230220
F84	F	-0.833023	-0.198128	0.730220
H85	H	-1.333276	-0.689042	-0.202462
H86	H	-0.833276	-0.189042	0.297538
F87	F	-1.204778	-0.314595	-0.176458
F88	F	-0.704778	0.185405	0.323542
H89	H	-1.218026	-0.456374	-0.155097
H90	H	-0.718026	0.043626	0.344903
F91	F	-1.336605	-0.548563	0.230232
F92	F	-0.836605	-0.048563	0.730232
F93	F	-1.336668	-0.548538	-0.230345
F94	F	-0.836668	-0.048538	0.269655
F95	F	-1.479260	-0.335558	0.176360
F96	F	-0.979260	0.164442	0.676360
H97	H	-1.459247	-0.474788	0.154998
H98	H	-0.959247	0.025212	0.654998
H99	H	-1.343960	-0.242123	0.202360
H100	H	-0.843960	0.257877	0.702360
F101	F	-1.347312	-0.101612	0.230276
F102	F	-0.847312	0.398388	0.730276
H103	H	-1.344002	-0.242096	-0.202422
H104	H	-0.844002	0.257904	0.297578
