data_functionalizedCrystal
_audit_creation_method	'MofGen! by Chris Wilmer'
_symmetry_space_group_name_H-M	'P1'
_symmetry_Int_Tables_number	1
_symmetry_cell_setting	triclinic
loop_
_symmetry_equiv_pos_as_xyz
  x,y,z
_cell_length_a	13.339070
_cell_length_b	10.540539
_cell_length_c	11.804365
_cell_angle_alpha	101.953828
_cell_angle_beta	74.875130
_cell_angle_gamma	100.077393
loop_
_atom_site_label
_atom_site_type_symbol
_atom_site_fract_x
_atom_site_fract_y
_atom_site_fract_z
O1	O	1.367200	0.619505	-0.099049
O2	O	1.072067	0.535766	-0.099045
O3	O	1.226367	0.395225	-0.099046
O4	O	1.212901	0.760047	-0.099049
O5	O	1.185745	0.432172	0.099010
O6	O	1.031446	0.572714	0.099011
O7	O	1.326579	0.656453	0.099007
Cu8	Cu	1.175303	0.617957	0.117093
Cu9	Cu	1.223343	0.574262	-0.117131
O10	O	1.172279	0.796994	0.099007
C11	C	1.013965	0.540095	-0.000017
C12	C	0.901358	0.497931	-0.000015
C13	C	0.538938	0.825770	-0.000037
C14	C	0.644738	0.865388	-0.000042
C15	C	0.708898	0.773527	-0.000035
C16	C	0.667248	0.642042	-0.000023
C17	C	0.561440	0.602418	-0.000028
C18	C	0.731400	0.550175	-0.000026
C19	C	0.689750	0.418690	-0.000014
C20	C	0.583951	0.379073	-0.000018
C21	C	0.519791	0.470934	-0.000025
C22	C	0.837208	0.589799	-0.000021
C23	C	0.859710	0.366447	-0.000012
C24	C	0.753910	0.326829	-0.000007
C25	C	1.205047	0.366051	-0.000020
C26	C	1.202026	0.224072	-0.000026
C27	C	1.086340	0.001099	-0.000469
C28	C	1.089311	0.148845	-0.000023
C29	C	1.233073	0.202001	0.113073
C30	C	1.229207	0.054163	0.113168
C31	C	1.277693	0.012410	-0.112059
C32	C	1.279038	0.159467	-0.113554
C33	C	1.384682	0.652124	-0.000024
C34	C	1.497290	0.694286	-0.000034
C35	C	1.193600	0.826168	-0.000021
C36	C	1.196622	0.968145	-0.000023
N37	N	1.141522	0.648691	0.281834
N38	N	1.257132	0.543521	-0.281872
C39	C	1.338253	0.469692	0.655781
C40	C	1.363807	0.446436	0.531120
C41	C	1.308237	0.496997	0.468792
C42	C	1.227110	0.570820	0.531138
C43	C	1.201559	0.594087	0.655812
C44	C	1.171544	0.621392	0.468823
C45	C	1.090417	0.695214	0.531169
C46	C	1.064869	0.718477	0.655831
C47	C	1.120438	0.667916	0.718159
C48	C	1.197095	0.598125	0.344149
C49	C	1.060402	0.722520	0.344180
C50	C	1.034847	0.745776	0.468842
H51	H	0.871108	0.696856	-0.000026
H52	H	1.099630	0.686846	0.819669
H53	H	1.329047	0.478058	0.367287
C54	C	1.286327	0.516913	0.275583
N55	N	1.353539	0.455736	0.223939
C56	C	1.399371	0.414086	0.724350
N57	N	1.445408	0.372199	0.775997
H58	H	0.998818	0.778600	0.706594
C59	C	1.453038	0.365226	0.462548
N60	N	1.520250	0.304050	0.410899
H61	H	0.550047	0.272006	-0.000022
H62	H	0.678644	0.972442	-0.000060
C63	C	0.945607	0.826977	0.537439
N64	N	0.878389	0.888135	0.589108
H65	H	1.178130	0.247459	0.197238
C66	C	0.825278	0.817116	-0.000025
N67	N	0.912937	0.849954	-0.000008
C68	C	0.468358	0.926800	-0.000047
N69	N	0.415194	1.002903	-0.000053
C70	C	1.343723	0.271401	0.118772
N71	N	1.427061	0.323685	0.123067
H72	H	0.719985	0.219769	-0.000008
H73	H	0.433639	0.438683	-0.000020
C74	C	0.930281	0.265393	-0.000001
N75	N	0.983442	0.189286	0.000007
C76	C	0.999269	0.778139	0.275625
N77	N	0.953229	0.820028	0.223982
H78	H	1.063258	0.161776	-0.081097
C79	C	1.391953	0.228300	-0.122779
N80	N	1.477004	0.280143	-0.129716
H81	H	1.058450	-0.057807	-0.081574
H82	H	1.025454	-0.029177	0.080183
H83	H	1.029674	0.191100	0.081187
C84	C	1.151613	0.018908	0.227377
N85	N	1.093165	-0.007641	0.313400
C86	C	1.387888	-0.014103	-0.113094
N87	N	1.470882	-0.034080	-0.113866
H88	H	1.258795	-0.047568	-0.197781
C89	C	1.337291	0.027980	0.120117
N90	N	1.418697	0.008265	0.125358
C91	C	1.248655	0.175393	-0.226590
N92	N	1.225760	0.187382	-0.311727
