data_functionalizedCrystal
_audit_creation_method	'MofGen! by Chris Wilmer'
_symmetry_space_group_name_H-M	'P1'
_symmetry_Int_Tables_number	1
_symmetry_cell_setting	triclinic
loop_
_symmetry_equiv_pos_as_xyz
  x,y,z
_cell_length_a	19.077399
_cell_length_b	16.120444
_cell_length_c	19.076919
_cell_angle_alpha	95.047308
_cell_angle_beta	94.479523
_cell_angle_gamma	95.104436
loop_
_atom_site_label
_atom_site_type_symbol
_atom_site_fract_x
_atom_site_fract_y
_atom_site_fract_z
Zn1	Zn	1.048305	-0.299594	-0.368745
Zn2	Zn	1.046973	-0.433752	-0.256844
Zn3	Zn	0.935159	-0.299617	-0.255601
Zn4	Zn	0.923881	-0.445422	-0.379933
O5	O	0.988580	-0.369596	-0.315281
O6	O	1.146995	-0.312497	-0.349740
O7	O	1.036303	-0.411084	-0.157815
O8	O	0.955446	-0.182449	-0.265408
O9	O	1.146016	-0.411062	-0.267526
O10	O	1.038574	-0.182432	-0.348534
O11	O	0.954154	-0.312536	-0.156901
O12	O	0.834796	-0.323852	-0.276255
O13	O	0.936223	-0.430952	-0.477313
O14	O	0.826510	-0.430974	-0.367601
O15	O	1.027638	-0.323813	-0.469094
O16	O	1.025367	-0.552465	-0.278374
O17	O	0.934931	-0.561039	-0.368807
C18	C	0.805018	-0.378682	-0.323008
C19	C	0.726488	-0.382590	-0.326331
C20	C	0.693889	-0.328577	-0.280404
C21	C	0.620101	-0.332256	-0.283527
C22	C	0.578914	-0.389946	-0.332580
C23	C	0.611519	-0.443965	-0.378510
C24	C	0.685305	-0.440289	-0.375383
C25	C	0.357776	-0.406932	-0.347021
C26	C	0.283985	-0.410602	-0.350145
C27	C	0.292573	-0.298893	-0.255161
C28	C	0.366360	-0.295219	-0.252042
C29	C	0.398958	-0.349242	-0.297968
N30	N	0.503492	-0.393706	-0.335775
N31	N	0.474380	-0.345485	-0.294770
C32	C	0.978799	-0.587131	-0.324954
C33	C	0.974678	-0.680192	-0.329113
C34	C	1.010122	-0.887767	-0.293850
C35	C	0.967168	-0.850568	-0.336713
C36	C	0.971348	-0.755762	-0.332483
C37	C	1.005943	-0.982581	-0.298079
C38	C	1.172858	-0.360475	-0.307524
C39	C	1.251386	-0.356588	-0.304218
C40	C	0.980821	-0.378682	-0.499555
C41	C	0.977515	-0.382553	-0.578081
C42	C	0.998417	-0.151211	-0.305584
C43	C	1.002609	-0.058149	-0.301452
C44	C	1.023554	-0.328593	-0.610695
C45	C	1.020439	-0.332229	-0.684479
C46	C	0.971288	-0.389828	-0.725648
C47	C	0.925244	-0.443791	-0.693030
C48	C	0.928356	-0.440151	-0.619247
C49	C	0.956873	-0.406692	-0.946775
C50	C	0.953766	-0.410329	-1.020563
C51	C	1.048960	-0.298765	-1.012008
C52	C	1.052071	-0.295134	-0.938224
C53	C	1.006025	-0.349094	-0.905611
N54	N	0.968104	-0.393547	-0.801068
N55	N	1.009206	-0.345370	-0.830193
C56	C	0.996351	-0.360484	-0.131719
C57	C	0.999805	-0.356369	-0.053177
H58	H	0.577978	-0.490941	-0.418447
H59	H	0.727418	-0.281593	-0.240464
H60	H	0.919389	-0.450641	-0.920231
H61	H	0.913739	-0.457236	-1.054081
H62	H	1.086448	-0.254834	-1.038569
H63	H	1.057930	-0.288291	-0.711030
H64	H	1.050032	-0.848416	-0.253978
H65	H	1.063580	-0.281692	-0.577180
O66	O	0.877560	-0.499717	-0.733124
C67	C	0.884673	-0.491347	-0.805241
H68	H	0.940007	-0.461727	-0.811810
H69	H	0.843893	-0.449866	-0.825961
C70	C	0.804820	-0.614632	-0.839085
C71	C	0.872784	-0.578258	-0.847154
H72	H	0.797483	-0.668242	-0.864940
H73	H	0.800025	-0.620270	-0.790498
H74	H	0.770844	-0.580056	-0.856351
H75	H	0.906758	-0.612829	-0.829879
H76	H	0.877584	-0.572629	-0.895739
O77	O	0.717006	-0.492839	-0.419900
C78	C	0.758964	-0.542715	-0.380194
H79	H	0.738829	-0.546148	-0.325712
H80	H	0.816147	-0.513920	-0.374275
C81	C	0.779485	-0.627240	-0.485328
C82	C	0.754750	-0.631463	-0.418415
H83	H	0.776888	-0.681983	-0.508905
H84	H	0.751219	-0.593636	-0.512080
H85	H	0.827135	-0.603241	-0.480387
H86	H	0.707098	-0.655452	-0.423358
H87	H	0.783008	-0.665073	-0.391665
H88	H	0.250452	-0.457580	-0.390095
O89	O	0.919568	-0.897637	-0.384220
C90	C	0.925944	-0.983189	-0.377929
H91	H	0.950914	-0.991191	-0.322969
H92	H	0.960695	-1.008147	-0.419368
C93	C	0.821566	-1.022289	-0.456823
C94	C	0.852230	-1.032118	-0.389318
H95	H	0.776097	-1.052473	-0.463851
H96	H	0.817272	-0.964651	-0.461064
H97	H	0.850532	-1.043087	-0.491348
H98	H	0.823269	-1.011311	-0.354794
H99	H	0.856518	-1.089754	-0.385071
H100	H	1.092097	-0.248233	-0.904708
H101	H	0.890859	-0.484083	-0.592693
H102	H	0.593562	-0.288277	-0.246124
H103	H	0.384308	-0.450921	-0.384418
H104	H	0.399890	-0.248248	-0.212092
O105	O	0.260793	-0.246512	-0.210576
C106	C	0.186836	-0.262110	-0.223862
H107	H	0.172894	-0.328403	-0.250217
H108	H	0.166542	-0.215413	-0.260231
C109	C	0.169421	-0.171254	-0.121278
C110	C	0.152296	-0.252679	-0.153642
H111	H	0.148114	-0.165433	-0.077964
H112	H	0.219247	-0.160742	-0.112328
H113	H	0.152508	-0.132349	-0.151592
H114	H	0.169217	-0.291580	-0.123331
H115	H	0.102472	-0.263196	-0.162585
