data_functionalizedCrystal
_audit_creation_method	'MofGen! by Chris Wilmer'
_symmetry_space_group_name_H-M	'P1'
_symmetry_Int_Tables_number	1
_symmetry_cell_setting	triclinic
loop_
_symmetry_equiv_pos_as_xyz
  x,y,z
_cell_length_a	16.625546
_cell_length_b	12.759401
_cell_length_c	12.759393
_cell_angle_alpha	90.022088
_cell_angle_beta	89.963806
_cell_angle_gamma	89.979670
loop_
_atom_site_label
_atom_site_type_symbol
_atom_site_fract_x
_atom_site_fract_y
_atom_site_fract_z
Zn1	Zn	-0.321000	-1.606199	-0.594048
Zn2	Zn	-0.455857	-1.606069	-0.418354
Zn3	Zn	-0.321037	-1.430501	-0.418377
Zn4	Zn	-0.455789	-1.430465	-0.593985
O5	O	-0.388421	-1.518309	-0.506191
O6	O	-0.338902	-1.753203	-0.570759
O7	O	-0.438016	-1.582740	-0.271336
O8	O	-0.208200	-1.453876	-0.441716
O9	O	-0.437981	-1.753107	-0.441678
O10	O	-0.208173	-1.582961	-0.570781
O11	O	-0.338965	-1.453751	-0.271352
O12	O	-0.338899	-1.283475	-0.441654
O13	O	-0.437866	-1.453816	-0.741014
O14	O	-0.437901	-1.283449	-0.570673
O15	O	-0.338836	-1.582927	-0.741061
O16	O	-0.568680	-1.582706	-0.441616
O17	O	-0.568631	-1.453691	-0.570651
C18	C	-0.388398	-1.245341	-0.506160
C19	C	-0.388407	-1.128565	-0.506171
C20	C	-0.439913	-1.073657	-0.438864
C21	C	-0.439923	-0.963933	-0.438878
C22	C	-0.336915	-0.964034	-0.573508
C23	C	-0.336909	-1.073756	-0.573499
C24	C	-0.499381	-1.073597	-0.361133
C25	C	-0.499392	-0.963873	-0.361147
C26	C	-0.597912	-1.518209	-0.506147
C27	C	-0.687533	-1.518263	-0.506163
C28	C	-1.015708	-1.518446	-0.506273
C29	C	-0.924400	-1.518392	-0.506245
C30	C	-0.851623	-1.518353	-0.506217
C31	C	-0.760309	-1.518301	-0.506191
C32	C	-0.178112	-1.518437	-0.506258
C33	C	-0.088491	-1.518492	-0.506287
C34	C	-0.388339	-1.518382	-0.780224
C35	C	-0.388305	-1.518413	-0.897001
C36	C	-0.388437	-0.792342	-0.506212
C37	C	-0.388423	-0.909118	-0.506193
C38	C	-0.336735	-1.585651	-0.951889
C39	C	-0.336706	-1.585675	-1.061613
C40	C	-0.439823	-1.451223	-1.061552
C41	C	-0.439847	-1.451194	-0.951829
C42	C	-0.277204	-1.663279	-0.951926
C43	C	-0.277175	-1.663304	-1.061650
C44	C	-0.388444	-1.518296	-0.233223
C45	C	-0.388251	-1.518468	-0.116447
H46	H	-0.482592	-0.934062	-0.279819
H47	H	-0.481785	-1.396493	-1.106206
C48	C	-0.496565	-1.377212	-0.891456
N49	N	-0.539286	-1.321484	-0.845984
C50	C	-0.192848	-1.633877	-0.911729
N51	N	-0.129313	-1.611729	-0.881453
H52	H	-0.299592	-1.740546	-0.917892
H53	H	-0.217843	-1.634200	-1.095702
C54	C	-0.469067	-1.119541	-0.256782
N55	N	-0.446232	-1.154147	-0.178185
H56	H	-0.293902	-1.744671	-1.091431
H57	H	-0.294977	-1.118458	-0.628317
H58	H	-0.294988	-0.919396	-0.628324
H59	H	-0.561848	-1.103360	-0.382773
H60	H	-0.558744	-0.929835	-0.390151
