data_functionalizedCrystal
_audit_creation_method	'MofGen! by Chris Wilmer'
_symmetry_space_group_name_H-M	'P1'
_symmetry_Int_Tables_number	1
_symmetry_cell_setting	triclinic
loop_
_symmetry_equiv_pos_as_xyz
  x,y,z
_cell_length_a	9.065218
_cell_length_b	12.996460
_cell_length_c	9.065218
_cell_angle_alpha	89.995890
_cell_angle_beta	85.015885
_cell_angle_gamma	89.993829
loop_
_atom_site_label
_atom_site_type_symbol
_atom_site_fract_x
_atom_site_fract_y
_atom_site_fract_z
O1	O	1.960405	-0.085565	0.216359
O2	O	2.293738	0.247768	0.549692
O3	O	2.627071	0.581102	0.883026
O4	O	1.531120	-0.085566	0.234106
O5	O	1.864453	0.247767	0.567439
O6	O	2.197787	0.581101	0.900772
O7	O	1.754636	-0.085563	0.010590
O8	O	2.087969	0.247770	0.343923
O9	O	2.421302	0.581103	0.677257
O10	O	1.736889	-0.085568	0.439875
O11	O	2.070222	0.247766	0.773208
O12	O	2.403556	0.581099	1.106541
O13	O	1.754609	0.085570	0.010578
O14	O	2.087943	0.418904	0.343911
O15	O	2.421276	0.752237	0.677245
O16	O	1.531094	0.085568	0.234094
O17	O	1.864427	0.418901	0.567427
O18	O	2.197760	0.752235	0.900760
O19	O	1.960379	0.085569	0.216347
O20	O	2.293712	0.418902	0.549681
O21	O	2.627045	0.752236	0.883014
Cu22	Cu	1.745734	0.101194	0.225219
Cu23	Cu	2.079067	0.434528	0.558553
Cu24	Cu	2.412401	0.767861	0.891886
Cu25	Cu	1.745765	-0.101191	0.225233
Cu26	Cu	2.079098	0.232142	0.558567
Cu27	Cu	2.412431	0.565475	0.891900
O28	O	1.736863	0.085566	0.439863
O29	O	2.070196	0.418900	0.773196
O30	O	2.403530	0.752233	1.106530
C31	C	1.476120	0.000001	0.232394
C32	C	1.809454	0.333334	0.565727
C33	C	2.142787	0.666667	0.899061
C34	C	1.312277	0.000000	0.227294
C35	C	1.645611	0.333334	0.560628
C36	C	1.978944	0.666667	0.893961
N37	N	1.745723	0.243541	0.225209
N38	N	2.079056	0.576875	0.558542
N39	N	2.412390	0.910208	0.891875
C40	C	1.745752	0.663356	0.225239
C41	C	2.079085	0.996689	0.558572
C42	C	2.412419	1.330022	0.891906
C43	C	1.745740	0.546551	0.225236
C44	C	2.079073	0.879884	0.558569
C45	C	2.412406	1.213217	0.891902
C46	C	1.745738	0.453452	0.225225
C47	C	2.079072	0.786786	0.558558
C48	C	2.412405	1.120119	0.891892
C49	C	1.745724	0.336640	0.225219
C50	C	2.079058	0.669973	0.558553
C51	C	2.412391	1.003306	0.891886
C52	C	2.015378	-0.000000	0.218059
C53	C	2.348712	0.333333	0.551392
C54	C	2.682045	0.666667	0.884725
C55	C	2.179221	-0.000006	0.223158
C56	C	2.512555	0.333327	0.556492
C57	C	2.845888	0.666660	0.889825
N58	N	1.745773	0.756462	0.225238
N59	N	2.079107	1.089795	0.558571
N60	N	2.412440	1.423128	0.891905
C61	C	1.752917	0.000002	-0.044403
C62	C	2.086250	0.333335	0.288931
C63	C	2.419584	0.666669	0.622264
C64	C	1.747817	-0.000003	-0.208245
C65	C	2.081151	0.333330	0.125088
C66	C	2.414484	0.666664	0.458421
C67	C	1.738582	-0.000001	0.494855
C68	C	2.071915	0.333332	0.828189
C69	C	2.405248	0.666665	1.161522
C70	C	1.743681	-0.000003	0.658698
C71	C	2.077015	0.333330	0.992032
C72	C	2.410348	0.666664	1.325365
