data_functionalizedCrystal
_audit_creation_method	'MofGen! by Chris Wilmer'
_symmetry_space_group_name_H-M	'P1'
_symmetry_Int_Tables_number	1
_symmetry_cell_setting	triclinic
loop_
_symmetry_equiv_pos_as_xyz
  x,y,z
_cell_length_a	21.395362
_cell_length_b	16.625546
_cell_length_c	21.395355
_cell_angle_alpha	90.018476
_cell_angle_beta	90.043940
_cell_angle_gamma	90.038346
loop_
_atom_site_label
_atom_site_type_symbol
_atom_site_fract_x
_atom_site_fract_y
_atom_site_fract_z
Zn1	Zn	0.957895	-0.320753	0.354586
Zn2	Zn	1.457895	0.179247	0.854586
Zn3	Zn	0.957813	-0.455568	0.249808
Zn4	Zn	1.457813	0.044432	0.749808
Zn5	Zn	0.853110	-0.320791	0.249787
Zn6	Zn	1.353110	0.179209	0.749787
Zn7	Zn	0.853095	-0.455585	0.354513
Zn8	Zn	1.353095	0.044415	0.854513
O9	O	0.905478	-0.388174	0.302174
O10	O	1.405478	0.111826	0.802174
O11	O	1.045562	-0.338614	0.340726
O12	O	1.545562	0.161386	0.840726
O13	O	0.943896	-0.437699	0.162128
O14	O	1.443896	0.062301	0.662128
O15	O	0.867051	-0.207953	0.263710
O16	O	1.367051	0.292047	0.763710
O17	O	1.045502	-0.437662	0.263747
O18	O	1.545502	0.062338	0.763747
O19	O	0.944036	-0.207926	0.340706
O20	O	1.444036	0.292074	0.840706
O21	O	0.866971	-0.338678	0.162112
O22	O	1.366971	0.161322	0.662112
O23	O	0.765430	-0.338694	0.263640
O24	O	1.265430	0.161306	0.763640
O25	O	0.867024	-0.437690	0.442201
O26	O	1.367024	0.062310	0.942201
O27	O	0.765419	-0.437727	0.340582
O28	O	1.265419	0.062273	0.840582
O29	O	0.944021	-0.338630	0.442254
O30	O	1.444021	0.161370	0.942254
O31	O	0.943881	-0.568403	0.263676
O32	O	1.443881	-0.068403	0.763676
O33	O	0.866945	-0.568415	0.340602
O34	O	1.366945	-0.068415	0.840602
C35	C	0.742691	-0.388217	0.302101
C36	C	1.242691	0.111783	0.802101
C37	C	0.673049	-0.388255	0.302085
C38	C	1.173049	0.111745	0.802085
C39	C	0.905419	-0.597665	0.302147
C40	C	1.405419	-0.097665	0.802147
C41	C	0.905451	-0.687286	0.302157
C42	C	1.405451	-0.187286	0.802157
C43	C	0.640347	-0.439889	0.342088
C44	C	1.140347	0.060111	0.842088
C45	C	0.574911	-0.439870	0.342116
C46	C	1.074911	0.060130	0.842116
C47	C	0.542181	-0.388224	0.302129
C48	C	1.042181	0.111776	0.802129
C49	C	0.574892	-0.336579	0.262123
C50	C	1.074892	0.163421	0.762123
C51	C	0.640326	-0.336594	0.262101
C52	C	1.140326	0.163406	0.762101
C53	C	0.438456	-0.381728	0.245724
C54	C	0.938456	0.118272	0.745724
C55	C	0.373023	-0.381718	0.245745
C56	C	0.873023	0.118282	0.745745
C57	C	0.340360	-0.388171	0.302198
C58	C	0.840360	0.111829	0.802198
C59	C	0.373139	-0.394651	0.358632
C60	C	0.873139	0.105349	0.858632
C61	C	0.438573	-0.394666	0.358610
C62	C	0.938573	0.105334	0.858610
C63	C	0.471229	-0.388201	0.302149
C64	C	0.971229	0.111799	0.802149
C65	C	0.236705	-0.439787	0.342236
C66	C	0.736705	0.060213	0.842236
C67	C	0.171268	-0.439762	0.342265
C68	C	0.671268	0.060238	0.842265
C69	C	0.171250	-0.336475	0.262266
C70	C	0.671250	0.163525	0.762266
C71	C	0.236686	-0.336496	0.262242
C72	C	0.736686	0.163504	0.762242
C73	C	0.269409	-0.388157	0.302227
C74	C	0.769409	0.111843	0.802227
C75	C	0.905560	-1.015462	0.302222
C76	C	1.405560	-0.515462	0.802222
C77	C	0.905528	-0.924153	0.302206
C78	C	1.405528	-0.424153	0.802206
C79	C	0.905505	-0.851377	0.302189
C80	C	1.405505	-0.351377	0.802189
C81	C	0.905474	-0.760063	0.302174
C82	C	1.405474	-0.260063	0.802174
C83	C	1.068902	-0.388132	0.302247
C84	C	1.568902	0.111868	0.802247
C85	C	1.138543	-0.388114	0.302278
C86	C	1.638543	0.111886	0.802278
C87	C	0.905530	-0.388158	0.465597
C88	C	1.405530	0.111842	0.965597
C89	C	0.905552	-0.388151	0.535238
C90	C	1.405552	0.111849	1.035238
C91	C	0.905555	-0.177865	0.302214
C92	C	1.405555	0.322135	0.802214
C93	C	0.905588	-0.088244	0.302231
C94	C	1.405588	0.411756	0.802231
C95	C	0.905463	-0.388132	0.139386
C96	C	1.405463	0.111868	0.639386
C97	C	0.905562	-0.387912	0.069745
C98	C	1.405562	0.112088	0.569745
C99	C	0.945643	-0.336568	0.567980
C100	C	1.445643	0.163432	1.067980
C101	C	0.945642	-0.336534	0.633416
C102	C	1.445642	0.163466	1.133416
C103	C	0.905557	-0.388096	0.666107
C104	C	1.405557	0.111904	1.166107
C105	C	0.865459	-0.439683	0.633357
C106	C	1.365459	0.060317	1.133357
C107	C	0.865457	-0.439710	0.567923
C108	C	1.365457	0.060290	1.067923
C109	C	0.900589	-0.460699	0.769771
C110	C	1.400589	0.039301	1.269771
C111	C	0.900596	-0.460672	0.835204
C112	C	1.400596	0.039328	1.335204
C113	C	0.905561	-0.388011	0.867927
C114	C	1.405561	0.111989	1.367927
C115	C	0.910532	-0.315373	0.835210
C116	C	1.410532	0.184627	1.335210
C117	C	0.910530	-0.315401	0.769776
C118	C	1.410530	0.184599	1.269776
C119	C	0.905555	-0.388072	0.737059
C120	C	1.405555	0.111928	1.237059
C121	C	0.945653	-0.336386	0.971622
C122	C	1.445653	0.163614	1.471622
C123	C	0.945648	-0.336350	1.037059
C124	C	1.445648	0.163650	1.537059
C125	C	0.865468	-0.439506	1.036999
C126	C	1.365468	0.060494	1.536999
C127	C	0.865470	-0.439535	0.971563
C128	C	1.365470	0.060465	1.471563
C129	C	0.905566	-0.387976	0.938879
C130	C	1.405566	0.112024	1.438879
H131	H	0.666986	-0.481954	0.374647
H132	H	1.166986	0.018046	0.874647
Cl133	Cl	0.130156	-0.504675	0.392563
Cl134	Cl	0.630156	-0.004675	0.892563
H135	H	0.896552	-0.519818	0.861837
H136	H	1.396552	-0.019818	1.361837
H137	H	0.548239	-0.294527	0.229567
H138	H	1.048239	0.205473	0.729567
H139	H	0.832820	-0.481663	0.659978
H140	H	1.332820	0.018337	1.159978
Cl141	Cl	0.681440	-0.271677	0.211806
Cl142	Cl	1.181440	0.228323	0.711806
Cl143	Cl	0.331822	-0.373572	0.174801
Cl144	Cl	0.831822	0.126428	0.674801
H145	H	0.978298	-0.294399	0.945009
H146	H	1.478298	0.205601	1.445009
Cl147	Cl	0.533790	-0.504787	0.392410
Cl148	Cl	1.033790	-0.004787	0.892410
Cl149	Cl	0.130110	-0.271543	0.212000
Cl150	Cl	0.630110	0.228457	0.712000
Cl151	Cl	0.479779	-0.402806	0.429551
Cl152	Cl	0.979779	0.097194	0.929551
H153	H	0.896379	-0.519853	0.743132
H154	H	1.396379	-0.019853	1.243132
H155	H	0.914576	-0.256205	0.861853
H156	H	1.414576	0.243795	1.361853
Cl157	Cl	0.996062	-0.271509	1.078221
Cl158	Cl	1.496062	0.228491	1.578221
Cl159	Cl	0.277800	-0.271583	0.211947
Cl160	Cl	0.777800	0.228417	0.711947
H161	H	0.832828	-0.481544	0.944904
H162	H	1.332828	0.018456	1.444904
Cl163	Cl	0.815053	-0.504563	0.526759
Cl164	Cl	1.315053	-0.004563	1.026759
H165	H	0.465044	-0.376470	0.199750
H166	H	0.965044	0.123530	0.699750
Cl167	Cl	0.996033	-0.271665	0.674586
Cl168	Cl	1.496033	0.228335	1.174586
Cl169	Cl	0.332086	-0.402758	0.429607
Cl170	Cl	0.832086	0.097242	0.929607
Cl171	Cl	0.277846	-0.504725	0.392504
Cl172	Cl	0.777846	-0.004725	0.892504
Cl173	Cl	0.916774	-0.224089	0.728648
Cl174	Cl	1.416774	0.275911	1.228648
Cl175	Cl	0.996045	-0.271747	0.526895
Cl176	Cl	1.496045	0.228253	1.026895
H177	H	0.832824	-0.481481	1.063615
H178	H	1.332824	0.018519	1.563615
