data_functionalizedCrystal
_audit_creation_method	'MofGen! by Chris Wilmer'
_symmetry_space_group_name_H-M	'P1'
_symmetry_Int_Tables_number	1
_symmetry_cell_setting	triclinic
loop_
_symmetry_equiv_pos_as_xyz
  x,y,z
_cell_length_a	19.805407
_cell_length_b	25.639239
_cell_length_c	19.805407
_cell_angle_alpha	90.014465
_cell_angle_beta	90.009221
_cell_angle_gamma	90.038686
loop_
_atom_site_label
_atom_site_type_symbol
_atom_site_fract_x
_atom_site_fract_y
_atom_site_fract_z
Zn1	Zn	1.034609	-0.208237	0.382714
Zn2	Zn	1.284609	0.041763	0.632714
Zn3	Zn	1.534609	0.291763	0.882714
Zn4	Zn	1.784609	0.541763	1.132714
Zn5	Zn	1.034520	-0.295649	0.269524
Zn6	Zn	1.284520	-0.045649	0.519524
Zn7	Zn	1.534520	0.204351	0.769524
Zn8	Zn	1.784520	0.454351	1.019524
Zn9	Zn	0.921444	-0.208229	0.269539
Zn10	Zn	1.171444	0.041771	0.519539
Zn11	Zn	1.421444	0.291771	0.769539
Zn12	Zn	1.671444	0.541771	1.019539
Zn13	Zn	0.921363	-0.295643	0.382670
Zn14	Zn	1.171363	-0.045643	0.632670
Zn15	Zn	1.421363	0.204357	0.882670
Zn16	Zn	1.671363	0.454357	1.132670
O17	O	0.977984	-0.251939	0.326112
O18	O	1.227984	-0.001939	0.576112
O19	O	1.477984	0.248061	0.826112
O20	O	1.727984	0.498061	1.076112
O21	O	1.129313	-0.219838	0.367711
O22	O	1.379313	0.030162	0.617711
O23	O	1.629313	0.280162	0.867711
O24	O	1.879313	0.530162	1.117711
O25	O	1.019517	-0.284052	0.174809
O26	O	1.269517	-0.034052	0.424809
O27	O	1.519517	0.215948	0.674809
O28	O	1.769517	0.465948	0.924809
O29	O	0.936527	-0.135065	0.284576
O30	O	1.186527	0.114935	0.534576
O31	O	1.436527	0.364935	0.784576
O32	O	1.686527	0.614935	1.034576
O33	O	1.129248	-0.284059	0.284551
O34	O	1.379248	-0.034059	0.534551
O35	O	1.629248	0.215941	0.784551
O36	O	1.879248	0.465941	1.034551
O37	O	1.019668	-0.135070	0.367726
O38	O	1.269668	0.114930	0.617726
O39	O	1.519668	0.364930	0.867726
O40	O	1.769668	0.614930	1.117726
O41	O	0.936440	-0.219825	0.174820
O42	O	1.186440	0.030175	0.424820
O43	O	1.436440	0.280175	0.674820
O44	O	1.686440	0.530175	0.924820
O45	O	0.826717	-0.219819	0.284534
O46	O	1.076717	0.030181	0.534534
O47	O	1.326717	0.280181	0.784534
O48	O	1.576717	0.530181	1.034534
O49	O	0.936388	-0.284049	0.477393
O50	O	1.186388	-0.034049	0.727393
O51	O	1.436388	0.215951	0.977393
O52	O	1.686388	0.465951	1.227393
O53	O	0.826657	-0.284042	0.367651
O54	O	1.076657	-0.034042	0.617651
O55	O	1.326657	0.215958	0.867651
O56	O	1.576657	0.465958	1.117651
O57	O	1.019590	-0.219832	0.477425
O58	O	1.269590	0.030168	0.727425
O59	O	1.519590	0.280168	0.977425
O60	O	1.769590	0.530168	1.227425
O61	O	1.019438	-0.368813	0.284508
O62	O	1.269438	-0.118813	0.534508
O63	O	1.519438	0.131187	0.784508
O64	O	1.769438	0.381187	1.034508
O65	O	0.936302	-0.368809	0.367636
O66	O	1.186302	-0.118809	0.617636
O67	O	1.436302	0.131191	0.867636
O68	O	1.686302	0.381191	1.117636
C69	C	0.802128	-0.251929	0.326090
C70	C	1.052128	-0.001929	0.576090
C71	C	1.302128	0.248071	0.826090
C72	C	1.552128	0.498071	1.076090
C73	C	0.726896	-0.251938	0.326096
C74	C	0.976896	-0.001938	0.576096
C75	C	1.226896	0.248062	0.826096
C76	C	1.476896	0.498062	1.076096
C77	C	0.691538	-0.285429	0.369306
C78	C	0.941538	-0.035429	0.619306
C79	C	1.191538	0.214571	0.869306
C80	C	1.441538	0.464571	1.119306
C81	C	0.620850	-0.285429	0.369315
C82	C	0.870850	-0.035429	0.619315
C83	C	1.120850	0.214571	0.869315
C84	C	1.370850	0.464571	1.119315
C85	C	0.585520	-0.251942	0.326112
C86	C	0.835520	-0.001942	0.576112
C87	C	1.085520	0.248058	0.826112
C88	C	1.335520	0.498058	1.076112
C89	C	0.620883	-0.218447	0.282901
C90	C	0.870883	0.031553	0.532901
C91	C	1.120883	0.281553	0.782901
C92	C	1.370883	0.531553	1.032901
C93	C	0.691570	-0.218444	0.282895
C94	C	0.941570	0.031556	0.532895
C95	C	1.191570	0.281556	0.782895
C96	C	1.441570	0.531556	1.032895
C97	C	0.335809	-0.218459	0.282923
C98	C	0.585809	0.031541	0.532923
C99	C	0.835809	0.281541	0.782923
C100	C	1.085809	0.531541	1.032923
C101	C	0.265117	-0.218466	0.282930
C102	C	0.515117	0.031534	0.532930
C103	C	0.765117	0.281534	0.782930
C104	C	1.015117	0.531534	1.032930
C105	C	0.265089	-0.285444	0.369343
C106	C	0.515089	-0.035444	0.619343
C107	C	0.765089	0.214556	0.869343
C108	C	1.015089	0.464556	1.119343
C109	C	0.335776	-0.285441	0.369337
C110	C	0.585776	-0.035441	0.619337
C111	C	0.835776	0.214559	0.869337
C112	C	1.085776	0.464559	1.119337
C113	C	0.371133	-0.251945	0.326129
C114	C	0.621133	-0.001945	0.576129
C115	C	0.871133	0.248055	0.826129
C116	C	1.121133	0.498055	1.076129
C117	C	0.447781	-0.251943	0.326120
C118	C	0.697781	-0.001943	0.576120
C119	C	0.947781	0.248057	0.826120
C120	C	1.197781	0.498057	1.076120
C121	C	0.508873	-0.251945	0.326117
C122	C	0.758873	-0.001945	0.576117
C123	C	1.008873	0.248055	0.826117
C124	C	1.258873	0.498055	1.076117
C125	C	0.977870	-0.387782	0.326081
C126	C	1.227870	-0.137782	0.576081
C127	C	1.477870	0.112218	0.826081
C128	C	1.727870	0.362218	1.076081
C129	C	0.977883	-0.445896	0.326090
C130	C	1.227883	-0.195896	0.576090
C131	C	1.477883	0.054104	0.826090
C132	C	1.727883	0.304104	1.076090
C133	C	1.021386	-0.806249	0.282900
C134	C	1.271386	-0.556249	0.532900
C135	C	1.521386	-0.306249	0.782900
C136	C	1.771386	-0.056249	1.032900
C137	C	1.021412	-0.860853	0.282910
C138	C	1.271412	-0.610853	0.532910
C139	C	1.521412	-0.360853	0.782910
C140	C	1.771412	-0.110853	1.032910
O141	O	1.058281	-0.889081	0.246154
O142	O	1.308281	-0.639081	0.496154
O143	O	1.558281	-0.389081	0.746154
O144	O	1.808281	-0.139081	0.996154
N145	N	0.978103	-0.888178	0.326156
N146	N	1.228103	-0.638178	0.576156
N147	N	1.478103	-0.388178	0.826156
N148	N	1.728103	-0.138178	1.076156
C149	C	0.934769	-0.860897	0.369402
C150	C	1.184769	-0.610897	0.619402
C151	C	1.434769	-0.360897	0.869402
C152	C	1.684769	-0.110897	1.119402
O153	O	0.897934	-0.889153	0.406188
O154	O	1.147934	-0.639153	0.656188
O155	O	1.397934	-0.389153	0.906188
O156	O	1.647934	-0.139153	1.156188
C157	C	0.934747	-0.806293	0.369396
C158	C	1.184747	-0.556293	0.619396
C159	C	1.434747	-0.306293	0.869396
C160	C	1.684747	-0.056293	1.119396
C161	C	0.978054	-0.778971	0.326141
C162	C	1.228054	-0.528971	0.576141
C163	C	1.478054	-0.278971	0.826141
C164	C	1.728054	-0.028971	1.076141
C165	C	1.064690	-0.778926	0.239650
C166	C	1.314690	-0.528926	0.489650
C167	C	1.564690	-0.278926	0.739650
C168	C	1.814690	-0.028926	0.989650
C169	C	1.064662	-0.724326	0.239640
C170	C	1.314662	-0.474326	0.489640
C171	C	1.564662	-0.224326	0.739640
C172	C	1.814662	0.025674	0.989640
C173	C	1.021331	-0.697048	0.282881
C174	C	1.271331	-0.447048	0.532881
C175	C	1.521331	-0.197048	0.782881
C176	C	1.771331	0.052952	1.032881
C177	C	0.978027	-0.724370	0.326132
C178	C	1.228027	-0.474370	0.576132
C179	C	1.478027	-0.224370	0.826132
C180	C	1.728027	0.025630	1.076132
C181	C	0.891418	-0.779012	0.412644
C182	C	1.141418	-0.529012	0.662644
C183	C	1.391418	-0.279012	0.912644
C184	C	1.641418	-0.029012	1.162644
C185	C	0.891399	-0.724405	0.412635
C186	C	1.141399	-0.474405	0.662635
C187	C	1.391399	-0.224405	0.912635
C188	C	1.641399	0.025595	1.162635
C189	C	0.934707	-0.697083	0.369380
C190	C	1.184707	-0.447083	0.619380
C191	C	1.434707	-0.197083	0.869380
C192	C	1.684707	0.052917	1.119380
C193	C	0.934668	-0.642492	0.369363
C194	C	1.184668	-0.392492	0.619363
C195	C	1.434668	-0.142492	0.869363
C196	C	1.684668	0.107508	1.119363
N197	N	0.977977	-0.615166	0.326116
N198	N	1.227977	-0.365166	0.576116
N199	N	1.477977	-0.115166	0.826116
N200	N	1.727977	0.134834	1.076116
C201	C	1.021309	-0.642444	0.282875
C202	C	1.271309	-0.392444	0.532875
C203	C	1.521309	-0.142444	0.782875
C204	C	1.771309	0.107556	1.032875
C205	C	0.934820	-0.975567	0.369413
C206	C	1.184820	-0.725567	0.619413
C207	C	1.434820	-0.475567	0.869413
C208	C	1.684820	-0.225567	1.119413
C209	C	0.934839	-1.030169	0.369416
C210	C	1.184839	-0.780169	0.619416
C211	C	1.434839	-0.530169	0.869416
C212	C	1.684839	-0.280169	1.119416
C213	C	1.021482	-1.030122	0.282924
C214	C	1.271482	-0.780122	0.532924
C215	C	1.521482	-0.530122	0.782924
C216	C	1.771482	-0.280122	1.032924
C217	C	1.021460	-0.975519	0.282918
C218	C	1.271460	-0.725519	0.532918
C219	C	1.521460	-0.475519	0.782918
C220	C	1.771460	-0.225519	1.032918
C221	C	0.978129	-0.948242	0.326166
C222	C	1.228129	-0.698242	0.576166
C223	C	1.478129	-0.448242	0.826166
C224	C	1.728129	-0.198242	1.076166
C225	C	1.021248	-0.527779	0.282857
C226	C	1.271248	-0.277779	0.532857
C227	C	1.521248	-0.027779	0.782857
C228	C	1.771248	0.222221	1.032857
C229	C	1.021215	-0.473174	0.282849
C230	C	1.271215	-0.223174	0.532849
C231	C	1.521215	0.026826	0.782849
C232	C	1.771215	0.276826	1.032849
C233	C	0.934574	-0.473226	0.369343
C234	C	1.184574	-0.223226	0.619343
C235	C	1.434574	0.026774	0.869343
C236	C	1.684574	0.276774	1.119343
C237	C	0.934604	-0.527827	0.369349
C238	C	1.184604	-0.277827	0.619349
C239	C	1.434604	-0.027827	0.869349
C240	C	1.684604	0.222173	1.119349
C241	C	0.977947	-0.555102	0.326104
C242	C	1.227947	-0.305102	0.576104
C243	C	1.477947	-0.055102	0.826104
C244	C	1.727947	0.194898	1.076104
O245	O	0.897820	-0.614229	0.406101
O246	O	1.147820	-0.364229	0.656101
O247	O	1.397820	-0.114229	0.906101
O248	O	1.647820	0.135771	1.156101
O249	O	1.058144	-0.614181	0.246101
O250	O	1.308144	-0.364181	0.496101
O251	O	1.558144	-0.114181	0.746101
O252	O	1.808144	0.135819	0.996101
C253	C	1.154526	-0.251950	0.326134
C254	C	1.404526	-0.001950	0.576134
C255	C	1.654526	0.248050	0.826134
C256	C	1.904526	0.498050	1.076134
C257	C	1.229758	-0.251954	0.326144
C258	C	1.479758	-0.001954	0.576144
C259	C	1.729758	0.248046	0.826144
C260	C	1.979758	0.498046	1.076144
C261	C	0.977990	-0.251940	0.502654
C262	C	1.227990	-0.001940	0.752654
C263	C	1.477990	0.248060	1.002654
C264	C	1.727990	0.498060	1.252654
C265	C	0.977992	-0.251941	0.577886
C266	C	1.227992	-0.001941	0.827886
C267	C	1.477992	0.248059	1.077886
C268	C	1.727992	0.498059	1.327886
C269	C	0.978116	-0.115566	0.326158
C270	C	1.228116	0.134434	0.576158
C271	C	1.478116	0.384434	0.826158
C272	C	1.728116	0.634434	1.076158
C273	C	0.978173	-0.057452	0.326177
C274	C	1.228173	0.192548	0.576177
C275	C	1.478173	0.442548	0.826177
C276	C	1.728173	0.692548	1.076177
C277	C	1.021310	-0.218508	0.613248
C278	C	1.271310	0.031492	0.863248
C279	C	1.521310	0.281492	1.113248
C280	C	1.771310	0.531492	1.363248
C281	C	1.021304	-0.218507	0.683937
C282	C	1.271304	0.031493	0.933937
C283	C	1.521304	0.281493	1.183937
C284	C	1.771304	0.531493	1.433937
C285	C	0.977984	-0.251941	0.719262
C286	C	1.227984	-0.001941	0.969262
C287	C	1.477984	0.248059	1.219262
C288	C	1.727984	0.498059	1.469262
C289	C	0.934661	-0.285375	0.683895
C290	C	1.184661	-0.035375	0.933895
C291	C	1.434661	0.214625	1.183895
C292	C	1.684661	0.464625	1.433895
C293	C	0.934664	-0.285373	0.613208
C294	C	1.184664	-0.035373	0.863208
C295	C	1.434664	0.214627	1.113208
C296	C	1.684664	0.464627	1.363208
C297	C	0.934648	-0.285381	0.968968
C298	C	1.184648	-0.035381	1.218968
C299	C	1.434648	0.214619	1.468968
C300	C	1.684648	0.464619	1.718968
C301	C	0.934650	-0.285381	1.039660
C302	C	1.184650	-0.035381	1.289660
C303	C	1.434650	0.214619	1.539660
C304	C	1.684650	0.464619	1.789660
C305	C	1.021288	-0.218514	1.039697
C306	C	1.271288	0.031486	1.289697
C307	C	1.521288	0.281486	1.539697
C308	C	1.771288	0.531486	1.789697
C309	C	1.021291	-0.218513	0.969010
C310	C	1.271291	0.031487	1.219010
C311	C	1.521291	0.281487	1.469010
C312	C	1.771291	0.531487	1.719010
C313	C	0.977966	-0.251945	0.933649
C314	C	1.227966	-0.001945	1.183649
C315	C	1.477966	0.248055	1.433649
C316	C	1.727966	0.498055	1.683649
C317	C	0.977972	-0.251945	0.857001
C318	C	1.227972	-0.001945	1.107001
C319	C	1.477972	0.248055	1.357001
C320	C	1.727972	0.498055	1.607001
C321	C	0.977981	-0.251943	0.795909
C322	C	1.227981	-0.001943	1.045909
C323	C	1.477981	0.248057	1.295909
C324	C	1.727981	0.498057	1.545909
C325	C	0.977971	-0.251949	1.150256
C326	C	1.227971	-0.001949	1.400256
C327	C	1.477971	0.248051	1.650256
C328	C	1.727971	0.498051	1.900256
C329	C	0.977964	-0.251945	1.075024
C330	C	1.227964	-0.001945	1.325024
C331	C	1.477964	0.248055	1.575024
C332	C	1.727964	0.498055	1.825024
H333	H	0.720299	-0.312700	0.404485
H334	H	0.970299	-0.062700	0.654485
H335	H	1.220299	0.187300	0.904485
H336	H	1.470299	0.437300	1.154485
H337	H	0.592112	-0.191179	0.247726
H338	H	0.842112	0.058821	0.497726
H339	H	1.092112	0.308821	0.747726
H340	H	1.342112	0.558821	0.997726
Cl341	Cl	0.736019	-0.176338	0.228574
Cl342	Cl	0.986019	0.073662	0.478574
Cl343	Cl	1.236019	0.323662	0.728574
Cl344	Cl	1.486019	0.573662	0.978574
Cl345	Cl	1.119171	-0.813209	0.185282
Cl346	Cl	1.369171	-0.563209	0.435282
Cl347	Cl	1.619171	-0.313209	0.685282
Cl348	Cl	1.869171	-0.063209	0.935282
Cl349	Cl	1.075793	-0.176498	0.728389
Cl350	Cl	1.325793	0.073502	0.978389
Cl351	Cl	1.575793	0.323502	1.228389
Cl352	Cl	1.825793	0.573502	1.478389
H353	H	1.099929	-0.702083	0.204420
H354	H	1.349929	-0.452083	0.454420
H355	H	1.599929	-0.202083	0.704420
H356	H	1.849929	0.047917	0.954420
H357	H	0.856149	-0.801249	0.447864
H358	H	1.106149	-0.551249	0.697864
H359	H	1.356149	-0.301249	0.947864
H360	H	1.606149	-0.051249	1.197864
H361	H	0.592065	-0.312702	0.404500
H362	H	0.842065	-0.062702	0.654500
H363	H	1.092065	0.187298	0.904500
H364	H	1.342065	0.437298	1.154500
H365	H	0.236354	-0.191193	0.247749
H366	H	0.486354	0.058807	0.497749
H367	H	0.736354	0.308807	0.747749
H368	H	0.986354	0.558807	0.997749
Cl369	Cl	0.880203	-0.327403	0.568753
Cl370	Cl	1.130203	-0.077403	0.818753
Cl371	Cl	1.380203	0.172597	1.068753
Cl372	Cl	1.630203	0.422597	1.318753
Cl373	Cl	0.380248	-0.176347	0.228606
Cl374	Cl	0.630248	0.073653	0.478606
Cl375	Cl	0.880248	0.323653	0.728606
Cl376	Cl	1.130248	0.573653	0.978606
Cl377	Cl	0.380187	-0.327543	0.423650
Cl378	Cl	0.630187	-0.077543	0.673650
Cl379	Cl	0.880187	0.172457	0.923650
Cl380	Cl	1.130187	0.422457	1.173650
H381	H	1.056480	-0.450930	0.247624
H382	H	1.306480	-0.200930	0.497624
H383	H	1.556480	0.049070	0.747624
H384	H	1.806480	0.299070	0.997624
H385	H	1.056543	-0.549980	0.247644
H386	H	1.306543	-0.299980	0.497644
H387	H	1.556543	-0.049980	0.747644
H388	H	1.806543	0.200020	0.997644
Cl389	Cl	0.880336	-0.941282	0.423781
Cl390	Cl	1.130336	-0.691282	0.673781
Cl391	Cl	1.380336	-0.441282	0.923781
Cl392	Cl	1.630336	-0.191282	1.173781
Cl393	Cl	1.075755	-0.176481	0.924605
Cl394	Cl	1.325755	0.073519	1.174605
Cl395	Cl	1.575755	0.323519	1.424605
Cl396	Cl	1.825755	0.573519	1.674605
H397	H	1.056725	-0.953276	0.247697
H398	H	1.306725	-0.703276	0.497697
H399	H	1.556725	-0.453276	0.747697
H400	H	1.806725	-0.203276	0.997697
Cl401	Cl	0.880385	-1.064511	0.423787
Cl402	Cl	1.130385	-0.814511	0.673787
Cl403	Cl	1.380385	-0.564511	0.923787
Cl404	Cl	1.630385	-0.314511	1.173787
H405	H	0.856115	-0.702199	0.447855
H406	H	1.106115	-0.452199	0.697855
H407	H	1.356115	-0.202199	0.947855
H408	H	1.606115	0.047801	1.197855
Cl409	Cl	1.075956	-1.064425	0.228562
Cl410	Cl	1.325956	-0.814425	0.478562
Cl411	Cl	1.575956	-0.564425	0.728562
Cl412	Cl	1.825956	-0.314425	0.978562
H413	H	0.899342	-0.550074	0.404573
H414	H	1.149342	-0.300074	0.654573
H415	H	1.399342	-0.050074	0.904573
H416	H	1.649342	0.199926	1.154573
H417	H	0.236294	-0.312717	0.404528
H418	H	0.486294	-0.062717	0.654528
H419	H	0.736294	0.187283	0.904528
H420	H	0.986294	0.437283	1.154528
Cl421	Cl	0.880198	-0.327405	0.728304
Cl422	Cl	1.130198	-0.077405	0.978304
Cl423	Cl	1.380198	0.172595	1.228304
Cl424	Cl	1.630198	0.422595	1.478304
Cl425	Cl	0.880107	-0.438924	0.423704
Cl426	Cl	1.130107	-0.188924	0.673704
Cl427	Cl	1.380107	0.061076	0.923704
Cl428	Cl	1.630107	0.311076	1.173704
Cl429	Cl	1.075777	-0.176477	0.568846
Cl430	Cl	1.325777	0.073523	0.818846
Cl431	Cl	1.575777	0.323523	1.068846
Cl432	Cl	1.825777	0.573523	1.318846
Cl433	Cl	1.075751	-0.176483	1.084155
Cl434	Cl	1.325751	0.073517	1.334155
Cl435	Cl	1.575751	0.323517	1.584155
Cl436	Cl	1.825751	0.573517	1.834155
Cl437	Cl	0.880185	-0.327415	1.084068
Cl438	Cl	1.130185	-0.077415	1.334068
Cl439	Cl	1.380185	0.172585	1.584068
Cl440	Cl	1.630185	0.422585	1.834068
H441	H	0.899380	-0.312611	0.940186
H442	H	1.149380	-0.062611	1.190186
H443	H	1.399380	0.187389	1.440186
H444	H	1.649380	0.437389	1.690186
