data_functionalizedCrystal
_audit_creation_method	'MofGen! by Chris Wilmer'
_symmetry_space_group_name_H-M	'P1'
_symmetry_Int_Tables_number	1
_symmetry_cell_setting	triclinic
loop_
_symmetry_equiv_pos_as_xyz
  x,y,z
_cell_length_a	13.635800
_cell_length_b	11.168121
_cell_length_c	17.078481
_cell_angle_alpha	84.865581
_cell_angle_beta	99.306161
_cell_angle_gamma	71.491504
loop_
_atom_site_label
_atom_site_type_symbol
_atom_site_fract_x
_atom_site_fract_y
_atom_site_fract_z
V1	V	2.002596	-0.174410	0.247368
O2	O	1.983386	0.008684	0.242653
O3	O	1.991097	-0.346117	0.245683
O4	O	1.967913	-0.171594	0.355251
O5	O	2.006731	-0.167047	0.132326
V6	V	2.244123	-0.152525	0.233607
O7	O	2.133740	-0.222415	0.277554
O8	O	2.338077	-0.104520	0.203422
O9	O	2.144019	0.019182	0.235293
O10	O	2.322031	-0.335620	0.238323
O11	O	2.298687	-0.159888	0.348650
O12	O	2.167203	-0.155341	0.125725
V13	V	2.502596	-0.174410	0.247368
O14	O	2.483386	0.008684	0.242653
O15	O	2.491097	-0.346117	0.245683
O16	O	2.467913	-0.171594	0.355251
O17	O	2.506731	-0.167047	0.132326
V18	V	2.744123	-0.152525	0.233607
O19	O	2.633740	-0.222415	0.277554
O20	O	2.838077	-0.104520	0.203422
O21	O	2.644019	0.019182	0.235293
O22	O	2.822031	-0.335620	0.238323
O23	O	2.798687	-0.159888	0.348650
O24	O	2.667203	-0.155341	0.125725
C25	C	1.917026	-0.387980	0.241782
C26	C	1.948197	-0.528352	0.241123
C27	C	2.048718	-0.597040	0.244593
C28	C	2.080937	-0.742122	0.243912
C29	C	1.887452	-0.165357	0.381546
C30	C	1.899820	-0.164190	0.469741
C31	C	2.049762	0.061038	0.239191
C32	C	2.008209	0.201409	0.239855
C33	C	2.079336	-0.161583	0.099425
C34	C	2.056586	-0.162742	0.011230
C35	C	2.417026	-0.387980	0.241782
C36	C	2.448197	-0.528352	0.241123
C37	C	1.996763	-0.169946	0.515217
C38	C	2.008378	-0.168849	0.598085
C39	C	1.923052	-0.162006	0.635477
C40	C	1.826100	-0.156247	0.589994
C41	C	1.814484	-0.157334	0.507127
C42	C	1.948018	-0.158070	0.882880
C43	C	1.959643	-0.156987	0.965754
C44	C	2.141921	-0.169587	0.973839
C45	C	2.130298	-0.170682	0.890970
C46	C	2.033346	-0.164915	0.845494
N47	N	1.934923	-0.160889	0.720181
N48	N	2.021474	-0.166023	0.760790
C49	C	2.387452	-0.165357	0.381546
C50	C	2.399820	-0.164190	0.469741
C51	C	2.549762	0.061038	0.239191
C52	C	2.508209	0.201409	0.239855
C53	C	2.579336	-0.161583	0.099425
C54	C	2.556586	-0.162742	0.011230
C55	C	2.496768	-0.169934	0.515202
C56	C	2.508400	-0.168821	0.598070
C57	C	2.423084	-0.161975	0.635475
C58	C	2.326127	-0.156228	0.590007
C59	C	2.314495	-0.157331	0.507141
C60	C	2.459668	-0.169574	-0.026155
C61	C	2.438274	-0.170649	-0.109025
C62	C	2.513802	-0.164901	-0.154508
C63	C	2.610727	-0.158065	-0.117118
C64	C	2.632117	-0.156981	-0.034250
C65	C	2.548718	-0.597040	0.244593
C66	C	2.580937	-0.742122	0.243912
H67	H	2.110925	-0.548440	0.248071
H68	H	2.587355	-0.173507	0.635079
H69	H	2.496377	-0.165800	-0.221982
H70	H	2.432570	-0.161078	0.702951
F71	F	2.691104	-0.151958	-0.165535
H72	H	1.869087	-0.153420	0.845867
F73	F	2.735278	-0.149725	0.005530
H74	H	1.735536	-0.152616	0.470098
H75	H	2.398157	-0.174255	0.010867
H76	H	2.256668	-0.150654	0.620475
F77	F	2.366885	-0.591872	0.236588
F78	F	2.335117	-0.177933	-0.148802
F79	F	2.221117	-0.177969	0.851182
F80	F	2.211309	-0.151231	0.458767
F81	F	2.630032	-0.533522	0.249139
F82	F	1.866885	-0.591872	0.236588
F83	F	2.693494	-0.819295	0.247787
H84	H	2.422094	-0.739551	0.236883
H85	H	1.922094	-0.739551	0.236883
F86	F	2.193494	-0.819295	0.247787
F87	F	2.087585	-0.177238	0.475431
F88	F	2.111561	-0.174988	0.646482
H89	H	1.890153	-0.151411	0.996194
F90	F	1.735288	-0.148963	0.629791
F91	F	2.245097	-0.175720	1.022243
H92	H	2.566249	-0.175512	0.484759
