data_functionalizedCrystal
_audit_creation_method	'MofGen! by Chris Wilmer'
_symmetry_space_group_name_H-M	'P1'
_symmetry_Int_Tables_number	1
_symmetry_cell_setting	triclinic
loop_
_symmetry_equiv_pos_as_xyz
  x,y,z
_cell_length_a	18.101398
_cell_length_b	25.639239
_cell_length_c	25.639233
_cell_angle_alpha	89.981253
_cell_angle_beta	89.981277
_cell_angle_gamma	90.033952
loop_
_atom_site_label
_atom_site_type_symbol
_atom_site_fract_x
_atom_site_fract_y
_atom_site_fract_z
Zn1	Zn	1.132041	-0.208280	-0.295694
Zn2	Zn	1.131933	-0.295699	-0.208259
Zn3	Zn	1.008212	-0.208272	-0.208264
Zn4	Zn	1.008134	-0.295679	-0.295654
O5	O	1.070080	-0.251983	-0.251968
O6	O	1.235659	-0.219888	-0.284111
O7	O	1.115508	-0.284107	-0.135094
O8	O	1.024716	-0.135108	-0.219880
O9	O	1.235580	-0.284115	-0.219872
O10	O	1.115693	-0.135114	-0.284115
O11	O	1.024611	-0.219875	-0.135098
O12	O	0.904569	-0.219855	-0.219841
O13	O	1.024584	-0.284081	-0.368824
O14	O	0.904512	-0.284073	-0.284046
O15	O	1.115617	-0.219869	-0.368854
O16	O	1.115433	-0.368862	-0.219833
O17	O	1.024478	-0.368847	-0.284042
C18	C	0.877669	-0.251962	-0.251940
C19	C	0.795355	-0.251965	-0.251941
C20	C	1.069955	-0.387825	-0.251944
C21	C	1.069970	-0.445939	-0.251951
C22	C	0.496264	-0.251998	-0.251985
C23	C	0.527601	-0.211392	-0.211786
C24	C	0.613219	-0.211501	-0.211614
C25	C	0.644647	-0.251981	-0.251963
C26	C	0.613521	-0.307055	-0.236906
C27	C	0.527875	-0.306829	-0.236626
C28	C	0.527874	-0.238009	-0.307336
C29	C	0.613525	-0.236782	-0.307034
C30	C	0.728506	-0.251975	-0.251952
C31	C	0.412405	-0.252008	-0.251995
C32	C	1.117563	-0.806298	-0.218591
C33	C	1.117592	-0.860902	-0.218598
O34	O	1.157928	-0.889134	-0.190208
N35	N	1.070210	-0.888222	-0.252002
C36	C	1.022802	-0.860935	-0.285405
O37	O	0.982503	-0.889187	-0.313819
C38	C	1.022777	-0.806332	-0.285401
C39	C	1.070157	-0.779014	-0.251990
C40	C	1.164940	-0.778980	-0.185184
C41	C	1.164910	-0.724380	-0.185176
C42	C	1.117504	-0.697096	-0.218576
C43	C	1.070127	-0.724414	-0.251983
C44	C	0.975373	-0.779045	-0.318806
C45	C	0.975353	-0.724438	-0.318799
C46	C	1.022733	-0.697121	-0.285388
C47	C	1.022691	-0.642530	-0.285375
N48	N	1.070073	-0.615210	-0.251971
C49	C	1.117479	-0.642493	-0.218571
C50	C	1.022858	-0.975605	-0.285413
C51	C	1.022878	-1.030208	-0.285416
C52	C	1.117669	-1.030171	-0.218609
C53	C	1.117645	-0.975568	-0.218604
C54	C	1.070239	-0.948285	-0.252009
C55	C	1.117412	-0.527828	-0.218557
C56	C	1.117376	-0.473223	-0.218551
C57	C	1.022588	-0.473264	-0.285360
C58	C	1.022621	-0.527865	-0.285364
C59	C	1.070039	-0.555145	-0.251961
O60	O	0.982377	-0.614263	-0.313752
O61	O	1.157778	-0.614235	-0.190167
C62	C	1.263242	-0.252005	-0.251995
C63	C	1.345556	-0.252014	-0.252007
C64	C	1.070104	-0.251974	-0.388341
C65	C	1.070114	-0.251970	-0.446455
C66	C	1.070225	-0.115610	-0.252003
C67	C	1.070287	-0.057496	-0.252018
C68	C	1.117575	-0.218435	-0.806839
C69	C	1.117585	-0.218421	-0.861443
O70	O	1.157878	-0.189970	-0.889698
N71	N	1.070196	-0.251847	-0.888737
C72	C	1.022789	-0.285286	-0.861424
O73	O	0.982482	-0.313716	-0.889654
C74	C	1.022777	-0.285298	-0.806821
C75	C	1.070174	-0.251873	-0.779530
C76	C	1.164968	-0.185013	-0.779548
C77	C	1.164960	-0.185028	-0.724947
C78	C	1.117559	-0.218466	-0.697638
C79	C	1.070166	-0.251888	-0.724929
C80	C	0.975367	-0.318734	-0.779509
C81	C	0.975359	-0.318742	-0.724902
C82	C	1.022756	-0.285317	-0.697610
C83	C	1.022756	-0.285341	-0.643019
N84	N	1.070145	-0.251915	-0.615725
C85	C	1.117546	-0.218477	-0.643034
C86	C	1.022818	-0.285259	-0.976095
C87	C	1.022833	-0.285251	-1.030697
C88	C	1.117628	-0.218385	-1.030713
C89	C	1.117616	-0.218396	-0.976109
C90	C	1.070207	-0.251833	-0.948801
C91	C	1.117526	-0.218512	-0.528369
C92	C	1.117515	-0.218532	-0.473764
C93	C	1.022718	-0.285396	-0.473753
C94	C	1.022731	-0.285379	-0.528354
C95	C	1.070137	-0.251932	-0.555661
O96	O	0.982481	-0.313776	-0.614730
O97	O	1.157840	-0.190047	-0.614798
C98	C	1.070099	-0.251954	-0.116125
C99	C	1.070232	-0.251811	-0.058011
H100	H	0.634266	-0.170661	-0.221053
C101	C	1.217037	-0.694337	-0.148431
H102	H	1.245277	-0.718413	-0.128548
H103	H	1.188731	-0.673063	-0.125624
H104	H	1.249279	-0.673010	-0.168457
H105	H	0.936788	-0.801278	-0.346010
C106	C	1.169814	-1.060189	-0.181868
H107	H	1.163042	-1.096621	-0.186661
H108	H	1.159005	-1.051264	-0.146730
H109	H	1.219565	-1.051209	-0.189555
H110	H	0.984248	-0.953395	-0.312614
H111	H	0.633875	-0.196255	-0.318387
H112	H	1.155958	-0.450983	-0.191343
C113	C	1.217087	-0.808983	-0.148438
H114	H	1.245290	-0.784887	-0.128542
H115	H	1.249351	-0.830258	-0.168455
H116	H	1.188784	-0.830308	-0.125635
H117	H	0.984246	-0.312474	-1.052913
C118	C	0.923210	-0.355524	-0.694863
H119	H	0.929985	-0.350745	-0.658434
H120	H	0.934008	-0.390652	-0.703812
H121	H	0.873460	-0.347857	-0.703806
C122	C	0.500497	-0.277958	-0.347802
H123	H	0.519784	-0.269303	-0.381168
H124	H	0.448055	-0.277383	-0.349027
H125	H	0.516775	-0.311838	-0.338174
C126	C	0.642413	-0.273831	-0.349664
H127	H	0.673969	-0.299168	-0.334366
H128	H	0.669189	-0.254390	-0.374931
H129	H	0.601892	-0.290805	-0.365989
H130	H	0.936751	-0.702228	-0.346003
H131	H	0.984043	-0.550108	-0.312571
H132	H	0.984128	-0.312622	-0.451508
H133	H	1.156027	-0.550033	-0.191359
H134	H	0.984143	-0.312601	-0.550576
C135	C	0.970448	-0.443246	-0.322099
H136	H	0.977227	-0.406814	-0.317311
H137	H	0.920699	-0.452227	-0.314419
H138	H	0.981268	-0.452170	-0.357238
C139	C	0.499802	-0.156054	-0.224381
H140	H	0.468833	-0.157216	-0.254267
H141	H	0.540787	-0.133891	-0.231102
H142	H	0.472612	-0.142919	-0.195542
C143	C	0.641018	-0.349025	-0.275215
H144	H	0.621541	-0.382014	-0.265391
H145	H	0.693450	-0.350313	-0.274399
H146	H	0.625012	-0.340644	-0.309490
H147	H	1.156114	-0.191313	-0.451546
C148	C	0.970681	-0.322054	-0.946060
H149	H	0.942471	-0.341962	-0.970139
H150	H	0.938424	-0.302065	-0.924754
H151	H	0.998993	-0.344844	-0.924765
C152	C	1.169677	-0.181727	-0.558399
H153	H	1.197902	-0.161830	-0.534319
H154	H	1.141385	-0.158933	-0.579699
H155	H	1.201931	-0.201729	-0.579701
H156	H	0.506055	-0.220534	-0.171010
H157	H	1.203554	-0.157809	-0.702732
H158	H	1.156226	-0.953329	-0.191399
C159	C	1.217119	-0.148231	-0.809580
H160	H	1.245341	-0.128334	-0.785498
H161	H	1.188830	-0.125438	-0.830882
H162	H	1.249375	-0.168235	-0.830878
C163	C	0.970756	-1.060251	-0.322164
H164	H	0.942524	-1.036177	-0.342055
H165	H	0.938517	-1.081584	-0.302147
H166	H	0.999077	-1.081520	-0.344972
C167	C	1.169744	-0.181624	-0.946094
H168	H	1.197970	-0.161707	-0.970183
H169	H	1.201987	-0.201627	-0.924791
H170	H	1.141428	-0.158840	-0.924796
H171	H	0.633676	-0.220748	-0.170600
C172	C	0.500842	-0.322851	-0.181963
H173	H	0.542202	-0.329434	-0.160135
H174	H	0.471594	-0.353515	-0.184559
H175	H	0.472062	-0.295481	-0.167466
H176	H	0.507144	-0.338107	-0.264629
C177	C	1.169766	-0.181600	-1.060757
H178	H	1.197996	-0.161695	-1.036686
H179	H	1.141462	-0.158813	-1.082057
H180	H	1.202018	-0.201603	-1.082060
C181	C	0.642443	-0.323361	-0.182831
H182	H	0.673479	-0.296684	-0.169358
H183	H	0.669782	-0.354826	-0.185890
H184	H	0.601906	-0.328621	-0.159878
H185	H	0.936771	-0.345952	-0.801720
H186	H	0.506307	-0.198549	-0.321025
