data_functionalizedCrystal
_audit_creation_method	'MofGen! by Chris Wilmer'
_symmetry_space_group_name_H-M	'P1'
_symmetry_Int_Tables_number	1
_symmetry_cell_setting	triclinic
loop_
_symmetry_equiv_pos_as_xyz
  x,y,z
_cell_length_a	10.723023
_cell_length_b	19.188930
_cell_length_c	9.198806
_cell_angle_alpha	89.991701
_cell_angle_beta	89.996513
_cell_angle_gamma	83.806164
loop_
_atom_site_label
_atom_site_type_symbol
_atom_site_fract_x
_atom_site_fract_y
_atom_site_fract_z
O1	O	1.655156	0.097919	-0.120896
O2	O	2.155156	0.597919	0.379104
O3	O	1.291809	0.107293	-0.120904
O4	O	1.791809	0.607293	0.379096
O5	O	1.483968	0.001019	-0.120871
O6	O	1.983968	0.501019	0.379129
O7	O	1.462997	0.204194	-0.120928
O8	O	1.962997	0.704194	0.379072
O9	O	1.483952	0.001018	0.120914
O10	O	1.983952	0.501018	0.620914
O11	O	1.291794	0.107293	0.120881
O12	O	1.791794	0.607293	0.620881
O13	O	1.655141	0.097919	0.120889
O14	O	2.155141	0.597919	0.620889
Cu15	Cu	1.473466	0.102606	0.142962
Cu16	Cu	1.973466	0.602606	0.642962
Cu17	Cu	1.473484	0.102606	-0.142977
Cu18	Cu	1.973484	0.602606	0.357023
O19	O	1.462982	0.204193	0.120857
O20	O	1.962982	0.704193	0.620857
C21	C	1.245316	0.106611	-0.000012
C22	C	1.745316	0.606611	0.499988
C23	C	1.106804	0.104570	-0.000014
C24	C	1.606804	0.604570	0.499986
C25	C	1.045043	0.103660	0.125237
C26	C	1.545043	0.603660	0.625237
C27	C	0.901883	0.101551	0.125238
C28	C	1.401883	0.601551	0.625238
C29	C	1.483281	-0.024997	0.000025
C30	C	1.983281	0.475003	0.500025
C31	C	1.481242	-0.102515	0.000038
C32	C	1.981242	0.397485	0.500038
C33	C	1.593995	-0.146706	0.000047
C34	C	2.093995	0.353294	0.500047
C35	C	1.592080	-0.219542	0.000024
C36	C	2.092080	0.280458	0.500024
C37	C	1.477405	-0.248184	0.000020
C38	C	1.977405	0.251816	0.500020
C39	C	1.364638	-0.203983	0.000003
C40	C	1.864638	0.296017	0.500003
C41	C	1.366557	-0.131148	0.000012
C42	C	1.866557	0.368852	0.500012
N43	N	1.389746	-0.356758	0.082303
N44	N	1.889746	0.143242	0.582303
N45	N	1.387931	-0.425949	0.082297
N46	N	1.887931	0.074051	0.582297
C47	C	1.471618	-0.467630	-0.000009
C48	C	1.971618	0.032370	0.499991
N49	N	1.557208	-0.437508	-0.082292
N50	N	2.057208	0.062492	0.417708
N51	N	1.559027	-0.368312	-0.082280
N52	N	2.059027	0.131688	0.417720
C53	C	1.475313	-0.327160	0.000010
C54	C	1.975313	0.172840	0.500010
C55	C	1.582302	-0.590799	-0.000027
C56	C	2.082302	-0.090799	0.499973
C57	C	1.580382	-0.663637	-0.000059
C58	C	2.080382	-0.163637	0.499941
C59	C	1.352937	-0.648076	-0.000066
C60	C	1.852937	-0.148076	0.499934
C61	C	1.354861	-0.575240	-0.000048
C62	C	1.854861	-0.075240	0.499952
C63	C	1.469546	-0.546606	-0.000022
C64	C	1.969546	-0.046606	0.499978
C65	C	1.701634	0.098601	-0.000006
C66	C	2.201634	0.598601	0.499994
C67	C	1.840146	0.100642	-0.000014
C68	C	2.340146	0.600642	0.499986
C69	C	1.463668	0.230209	-0.000043
C70	C	1.963668	0.730209	0.499957
C71	C	1.465707	0.307727	-0.000065
C72	C	1.965707	0.807727	0.499935
N73	N	1.473462	0.102605	0.344076
N74	N	1.973462	0.602605	0.844076
N75	N	1.473497	0.102601	-0.344091
N76	N	1.973497	0.602601	0.155909
C77	C	1.554148	0.057787	0.416287
C78	C	2.054148	0.557787	0.916287
C79	C	1.554168	0.057784	0.583699
C80	C	2.054168	0.557784	1.083699
H81	H	1.098153	0.104439	0.232468
H82	H	1.598153	0.604439	0.732468
F83	F	1.644202	0.007510	0.335102
F84	F	2.144202	0.507510	0.835102
H85	H	0.893250	0.101428	-0.107251
H86	H	1.393250	0.601428	0.392749
H87	H	1.271269	-0.227307	-0.000003
H88	H	1.771269	0.272693	0.499997
F89	F	0.832464	0.100534	0.265404
F90	F	1.332464	0.600534	0.765404
F91	F	1.037394	0.103543	-0.140178
F92	F	1.537394	0.603543	0.359822
F93	F	1.704359	-0.560323	0.000008
F94	F	2.204359	-0.060323	0.500008
H95	H	1.404419	0.140977	0.593821
H96	H	1.904419	0.640977	1.093821
H97	H	1.687381	-0.123398	0.000064
H98	H	2.187381	0.376602	0.500064
F99	F	1.383181	0.152754	0.425261
F100	F	1.883181	0.652754	0.925261
F101	F	1.644468	0.007633	0.664862
F102	F	2.144468	0.507633	1.164862
H103	H	1.683899	-0.255530	0.000026
H104	H	2.183899	0.244470	0.500026
H105	H	1.672203	-0.699617	-0.000060
H106	H	2.172203	-0.199617	0.499940
H107	H	1.274737	-0.095167	0.000004
H108	H	1.774737	0.404833	0.500004
H109	H	1.259567	-0.671395	-0.000076
H110	H	1.759567	-0.171395	0.499924
H111	H	1.263045	-0.539258	-0.000048
H112	H	1.763045	-0.039258	0.499952
