data_functionalizedCrystal
_audit_creation_method	'MofGen! by Chris Wilmer'
_symmetry_space_group_name_H-M	'P1'
_symmetry_Int_Tables_number	1
_symmetry_cell_setting	triclinic
loop_
_symmetry_equiv_pos_as_xyz
  x,y,z
_cell_length_a	16.120530
_cell_length_b	16.120484
_cell_length_c	21.395355
_cell_angle_alpha	87.119279
_cell_angle_beta	92.920957
_cell_angle_gamma	90.167327
loop_
_atom_site_label
_atom_site_type_symbol
_atom_site_fract_x
_atom_site_fract_y
_atom_site_fract_z
Zn1	Zn	1.254514	-0.395720	0.417083
Zn2	Zn	1.754514	0.104280	0.917083
Zn3	Zn	1.247347	-0.534752	0.317329
Zn4	Zn	1.747347	-0.034752	0.817329
Zn5	Zn	1.115443	-0.388657	0.306758
Zn6	Zn	1.615443	0.111343	0.806758
Zn7	Zn	1.108366	-0.527673	0.416510
Zn8	Zn	1.608366	-0.027673	0.916510
O9	O	1.181417	-0.461700	0.364420
O10	O	1.681417	0.038300	0.864420
O11	O	1.369929	-0.420081	0.408515
O12	O	1.869929	0.079919	0.908515
O13	O	1.229812	-0.515380	0.228248
O14	O	1.729812	-0.015380	0.728248
O15	O	1.139852	-0.273229	0.317208
O16	O	1.639852	0.226771	0.817208
O17	O	1.364664	-0.522228	0.335226
O18	O	1.864664	-0.022228	0.835226
O19	O	1.242027	-0.278418	0.398264
O20	O	1.742027	0.221582	0.898264
O21	O	1.132903	-0.408044	0.220481
O22	O	1.632903	0.091956	0.720481
O23	O	0.998138	-0.401179	0.316652
O24	O	1.498138	0.098821	0.816652
O25	O	1.127790	-0.510162	0.504265
O26	O	1.627790	-0.010162	1.004265
O27	O	0.992939	-0.503313	0.397287
O28	O	1.492939	-0.003313	0.897287
O29	O	1.235164	-0.413216	0.504686
O30	O	1.735164	0.086784	1.004686
O31	O	1.222950	-0.650177	0.334670
O32	O	1.722950	-0.150177	0.834670
O33	O	1.120841	-0.644976	0.407537
O34	O	1.620841	-0.144976	0.907537
C35	C	0.965366	-0.450712	0.355761
C36	C	1.465366	0.049288	0.855761
C37	C	0.872937	-0.446031	0.352072
C38	C	1.372937	0.053969	0.852072
C39	C	0.703709	-0.437466	0.345342
C40	C	1.203709	0.062534	0.845342
C41	C	0.659963	-0.485996	0.383546
C42	C	1.159963	0.014004	0.883546
C43	C	0.565799	-0.481230	0.379801
C44	C	1.065799	0.018770	0.879801
C45	C	0.797882	-0.442230	0.349085
C46	C	1.297882	0.057770	0.849085
C47	C	1.170373	-0.677750	0.372203
C48	C	1.670373	-0.177750	0.872203
C49	C	1.165724	-0.770181	0.375557
C50	C	1.665724	-0.270181	0.875557
C51	C	1.157241	-0.939413	0.381693
C52	C	1.657241	-0.439413	0.881693
C53	C	1.205743	-0.983154	0.347163
C54	C	1.705743	-0.483154	0.847163
C55	C	1.201023	-1.077321	0.350577
C56	C	1.701023	-0.577321	0.850577
C57	C	1.161960	-0.845238	0.378280
C58	C	1.661960	-0.345238	0.878280
C59	C	1.398313	-0.472732	0.373113
C60	C	1.898313	0.027268	0.873113
C61	C	1.490740	-0.477433	0.376818
C62	C	1.990740	0.022567	0.876818
C63	C	1.181487	-0.461687	0.527845
C64	C	1.681487	0.038313	1.027845
C65	C	1.181517	-0.461681	0.597488
C66	C	1.681517	0.038319	1.097488
C67	C	1.192528	-0.244808	0.356621
C68	C	1.692528	0.255192	0.856621
C69	C	1.197262	-0.152382	0.353297
C70	C	1.697262	0.347618	0.853297
C71	C	1.181399	-0.461656	0.201630
C72	C	1.681399	0.038344	0.701630
C73	C	1.181542	-0.461436	0.131986
C74	C	1.681542	0.038564	0.631986
C75	C	1.237425	-0.411200	0.630421
C76	C	1.737425	0.088800	1.130421
C77	C	1.237425	-0.411164	0.695855
C78	C	1.737425	0.088836	1.195855
C79	C	1.181526	-0.461625	0.728354
C80	C	1.681526	0.038375	1.228354
C81	C	1.125608	-0.512110	0.695413
C82	C	1.625608	-0.012110	1.195413
C83	C	1.125604	-0.512138	0.629979
C84	C	1.625604	-0.012138	1.129979
C85	C	1.171133	-0.536165	0.834464
C86	C	1.671133	-0.036165	1.334464
C87	C	1.171143	-0.536139	0.899896
C88	C	1.671143	-0.036139	1.399896
C89	C	1.181536	-0.461537	0.930172
C90	C	1.681536	0.038463	1.430172
C91	C	1.191936	-0.386961	0.895008
C92	C	1.691936	0.113039	1.395008
C93	C	1.191931	-0.386989	0.829575
C94	C	1.691931	0.113011	1.329575
C95	C	1.181525	-0.461600	0.799306
C96	C	1.681525	0.038400	1.299306
C97	C	1.237447	-0.411012	1.034056
C98	C	1.737447	0.088988	1.534056
C99	C	1.237442	-0.410975	1.099491
C100	C	1.737442	0.089025	1.599491
C101	C	1.125629	-0.511929	1.099048
C102	C	1.625629	-0.011929	1.599048
C103	C	1.125630	-0.511959	1.033614
C104	C	1.625630	-0.011959	1.533614
C105	C	1.181544	-0.461502	1.001122
C106	C	1.681544	0.038498	1.501122
H107	H	0.670444	-0.392342	0.309824
H108	H	1.170444	0.107658	0.809824
Cl109	Cl	1.087661	-0.990782	0.431288
Cl110	Cl	1.587661	-0.490782	0.931288
H111	H	0.693230	-0.531123	0.419067
H112	H	1.193230	-0.031123	0.919067
H113	H	1.250810	-0.949881	0.315037
H114	H	1.750810	-0.449881	0.815037
H115	H	1.282953	-0.370113	0.603970
H116	H	1.782953	0.129887	1.103970
H117	H	1.282950	-0.370051	0.722674
H118	H	1.782950	0.129949	1.222674
H119	H	1.200397	-0.326267	0.800947
H120	H	1.700397	0.173733	1.300947
H121	H	1.200400	-0.326214	0.919657
H122	H	1.700400	0.173786	1.419657
Cl123	Cl	1.307733	-0.347578	0.993206
Cl124	Cl	1.807733	0.152422	1.493206
H125	H	1.282968	-0.369862	1.126304
H126	H	1.782968	0.130138	1.626304
Cl127	Cl	1.055348	-0.575359	1.139898
Cl128	Cl	1.555348	-0.075359	1.639898
H129	H	1.080109	-0.553072	1.006800
H130	H	1.580109	-0.053072	1.506800
Cl131	Cl	1.158077	-0.629891	0.944095
Cl132	Cl	1.658077	-0.129891	1.444095
Cl133	Cl	1.158091	-0.629963	0.796410
Cl134	Cl	1.658091	-0.129963	1.296410
Cl135	Cl	1.055332	-0.575544	0.736268
Cl136	Cl	1.555332	-0.075544	1.236268
Cl137	Cl	1.055314	-0.575607	0.588575
Cl138	Cl	1.555314	-0.075607	1.088575
