data_functionalizedCrystal
_audit_creation_method	'MofGen! by Chris Wilmer'
_symmetry_space_group_name_H-M	'P1'
_symmetry_Int_Tables_number	1
_symmetry_cell_setting	triclinic
loop_
_symmetry_equiv_pos_as_xyz
  x,y,z
_cell_length_a	18.215407
_cell_length_b	10.686285
_cell_length_c	18.215399
_cell_angle_alpha	94.390852
_cell_angle_beta	90.019833
_cell_angle_gamma	85.632014
loop_
_atom_site_label
_atom_site_type_symbol
_atom_site_fract_x
_atom_site_fract_y
_atom_site_fract_z
Zn1	Zn	1.147639	-0.502344	0.393704
Zn2	Zn	1.647639	-0.002344	0.893704
Zn3	Zn	1.157027	-0.713359	0.261223
Zn4	Zn	1.657027	-0.213359	0.761223
Zn5	Zn	1.024574	-0.502385	0.270649
Zn6	Zn	1.524574	-0.002385	0.770649
Zn7	Zn	1.034014	-0.713289	0.384251
Zn8	Zn	1.534014	-0.213289	0.884251
O9	O	1.090813	-0.607844	0.327457
O10	O	1.590813	-0.107844	0.827457
O11	O	1.251869	-0.530347	0.376141
O12	O	1.751869	-0.030347	0.876141
O13	O	1.139435	-0.685420	0.159487
O14	O	1.639435	-0.185420	0.659487
O15	O	1.033019	-0.325804	0.294874
O16	O	1.533019	0.174196	0.794874
O17	O	1.258767	-0.685380	0.278808
O18	O	1.758767	-0.185380	0.778808
O19	O	1.123434	-0.325774	0.385281
O20	O	1.623434	0.174226	0.885281
O21	O	1.042122	-0.530418	0.166413
O22	O	1.542122	-0.030418	0.666413
O23	O	0.922841	-0.530350	0.285708
O24	O	1.422841	-0.030350	0.785708
O25	O	1.049109	-0.685260	0.488492
O26	O	1.549109	-0.185260	0.988492
O27	O	0.929777	-0.685300	0.369171
O28	O	1.429777	-0.185300	0.869171
O29	O	1.132588	-0.530279	0.495436
O30	O	1.632588	-0.030279	0.995436
O31	O	1.148589	-0.889925	0.269642
O32	O	1.648589	-0.389925	0.769642
O33	O	1.058212	-0.889873	0.360030
O34	O	1.558212	-0.389873	0.860030
C35	C	0.899606	-0.607823	0.327437
C36	C	1.399606	-0.107823	0.827437
C37	C	0.817808	-0.607844	0.327444
C38	C	1.317808	-0.107844	0.827444
C39	C	0.633251	-0.688653	0.370839
C40	C	1.133251	-0.188653	0.870839
C41	C	0.556392	-0.688657	0.370848
C42	C	1.056392	-0.188657	0.870848
C43	C	0.549129	-0.527058	0.284090
C44	C	1.049129	-0.027058	0.784090
C45	C	0.625986	-0.527049	0.284086
C46	C	1.125986	-0.027049	0.784086
C47	C	0.668045	-0.607853	0.327459
C48	C	1.168045	-0.107853	0.827459
C49	C	0.514330	-0.607867	0.327472
C50	C	1.014330	-0.107867	0.827472
C51	C	0.430996	-0.607870	0.327482
C52	C	0.930996	-0.107870	0.827482
C53	C	0.751384	-0.607848	0.327450
C54	C	1.251384	-0.107848	0.827450
C55	C	1.105463	-0.935683	0.312804
C56	C	1.605463	-0.435683	0.812804
C57	C	1.111798	-1.075934	0.306560
C58	C	1.611798	-0.575934	0.806560
C59	C	1.282767	-0.607867	0.327478
C60	C	1.782767	-0.107867	0.827478
C61	C	1.364567	-0.607876	0.327486
C62	C	1.864567	-0.107876	0.827486
C63	C	1.090854	-0.607757	0.519414
C64	C	1.590854	-0.107757	1.019414
C65	C	1.090872	-0.607720	0.601214
C66	C	1.590872	-0.107720	1.101214
C67	C	1.076126	-0.278725	0.342183
C68	C	1.576126	0.221275	0.842183
C69	C	1.069867	-0.138474	0.348459
C70	C	1.569867	0.361526	0.848459
C71	C	1.090811	-0.607840	0.136251
C72	C	1.590811	-0.107840	0.636251
C73	C	1.090920	-0.607521	0.054467
C74	C	1.590920	-0.107521	0.554467
C75	C	1.134353	-0.526946	0.793029
C76	C	1.634353	-0.026946	1.293029
C77	C	1.134360	-0.526909	0.869890
C78	C	1.634360	-0.026909	1.369890
C79	C	1.047434	-0.688299	0.862646
C80	C	1.547434	-0.188299	1.362646
C81	C	1.047423	-0.688328	0.785788
C82	C	1.547423	-0.188328	1.285788
C83	C	1.090887	-0.607654	0.750981
C84	C	1.590887	-0.107654	1.250981
C85	C	1.090905	-0.607588	0.904700
C86	C	1.590905	-0.107588	1.404700
C87	C	1.090912	-0.607548	0.988036
C88	C	1.590912	-0.107548	1.488036
C89	C	1.090879	-0.607691	0.667640
C90	C	1.590879	-0.107691	1.167640
H91	H	0.514875	-0.461271	0.248777
H92	H	1.014875	0.038729	0.748777
H93	H	1.169742	-0.461252	0.764692
H94	H	1.669742	0.038748	1.264692
H95	H	1.012048	-0.753984	0.890995
H96	H	1.512048	-0.253984	1.390995
H97	H	1.012022	-0.754049	0.751551
H98	H	1.512022	-0.254049	1.251551
H99	H	0.667493	-0.754447	0.406158
H100	H	1.167493	-0.254447	0.906158
C101	C	0.664263	-0.438166	0.236364
C102	C	1.164263	0.061834	0.736364
H103	H	0.628208	-0.390056	0.210526
H104	H	1.128208	0.109944	0.710526
H105	H	0.691801	-0.383247	0.267021
H106	H	1.191801	0.116753	0.767021
H107	H	0.696386	-0.486372	0.202096
H108	H	1.196386	0.013628	0.702096
C109	C	1.182177	-0.438137	0.916139
C110	C	1.682177	0.061863	1.416139
H111	H	1.208063	-0.390105	0.884399
H112	H	1.708063	0.109895	1.384399
H113	H	1.151578	-0.383140	0.948578
H114	H	1.651578	0.116860	1.448578
H115	H	1.216403	-0.486406	0.943966
H116	H	1.716403	0.013594	1.443966
C117	C	1.014828	-1.065872	0.403381
C118	C	1.514828	-0.565872	0.903381
H119	H	0.989368	-1.123912	0.428826
H120	H	1.489368	-0.623912	0.928826
H121	H	1.040665	-1.014386	0.437738
H122	H	1.540665	-0.514386	0.937738
H123	H	0.980485	-1.014535	0.377456
H124	H	1.480485	-0.514535	0.877456
H125	H	1.152540	-1.129693	0.265903
H126	H	1.652540	-0.629693	0.765903
H127	H	0.528066	-0.754451	0.406173
H128	H	1.028066	-0.254451	0.906173
