data_functionalizedCrystal
_audit_creation_method	'MofGen! by Chris Wilmer'
_symmetry_space_group_name_H-M	'P1'
_symmetry_Int_Tables_number	1
_symmetry_cell_setting	triclinic
loop_
_symmetry_equiv_pos_as_xyz
  x,y,z
_cell_length_a	19.188930
_cell_length_b	19.188930
_cell_length_c	18.266242
_cell_angle_alpha	90.011475
_cell_angle_beta	89.977082
_cell_angle_gamma	96.855221
loop_
_atom_site_label
_atom_site_type_symbol
_atom_site_fract_x
_atom_site_fract_y
_atom_site_fract_z
O1	O	0.926149	-0.087169	-0.061124
O2	O	0.722838	-0.098903	-0.061075
O3	O	0.830361	0.008620	-0.061087
O4	O	0.818627	-0.194691	-0.061113
O5	O	0.830343	0.008625	0.060675
O6	O	0.722820	-0.098897	0.060687
O7	O	0.926131	-0.087163	0.060638
Zn8	Zn	0.824473	-0.093029	0.079994
Zn9	Zn	0.824497	-0.093037	-0.080432
O10	O	0.818608	-0.194686	0.060649
C11	C	0.696818	-0.098520	-0.000188
C12	C	0.619313	-0.097380	-0.000169
C13	C	0.574389	-0.160470	-0.000188
C14	C	0.501566	-0.159399	-0.000196
C15	C	0.473669	-0.095233	-0.000199
C16	C	0.518603	-0.032133	-0.000175
C17	C	0.591425	-0.033207	-0.000160
N18	N	0.365695	-0.046188	-0.041663
N19	N	0.296516	-0.045172	-0.041679
C20	C	0.254260	-0.091994	-0.000243
N21	N	0.283795	-0.139881	0.041200
N22	N	0.352980	-0.140899	0.041213
C23	C	0.394707	-0.094062	-0.000215
C24	C	0.130372	-0.153928	-0.000270
C25	C	0.057547	-0.152853	-0.000274
C26	C	0.074586	-0.025586	-0.000261
C27	C	0.147409	-0.026662	-0.000250
C28	C	0.175298	-0.090835	-0.000258
C29	C	0.829972	0.034634	-0.000204
C30	C	0.828831	0.112138	-0.000197
C31	C	0.952151	-0.087546	-0.000252
C32	C	1.029656	-0.088687	-0.000276
C33	C	0.818997	-0.220700	-0.000236
C34	C	0.820138	-0.298204	-0.000247
N35	N	0.824461	-0.093024	0.189481
C36	C	0.891922	0.157062	-0.000209
C37	C	0.890850	0.229886	-0.000220
C38	C	0.826684	0.257782	-0.000206
C39	C	0.763585	0.212849	-0.000198
C40	C	0.764658	0.140026	-0.000194
N41	N	0.777631	0.365789	0.041244
N42	N	0.776615	0.434968	0.041242
C43	C	0.823446	0.477191	-0.000220
N44	N	0.871341	0.447624	-0.041669
N45	N	0.872359	0.378439	-0.041664
C46	C	0.825513	0.336745	-0.000210
C47	C	0.885379	0.601079	-0.000245
C48	C	0.884305	0.673904	-0.000261
C49	C	0.757038	0.656865	-0.000231
C50	C	0.758114	0.584042	-0.000222
C51	C	0.822287	0.556154	-0.000226
N52	N	0.824513	-0.093037	-0.189919
C53	C	0.872088	-0.045436	0.227785
C54	C	0.872092	-0.045433	0.304430
C55	C	0.824477	-0.093030	0.342768
C56	C	0.776841	-0.140621	0.304455
C57	C	0.776834	-0.140618	0.227812
N58	N	0.815401	-0.154837	0.463094
N59	N	0.815413	-0.154838	0.535902
C60	C	0.824496	-0.093040	0.573691
N61	N	0.833582	-0.031239	0.535920
N62	N	0.833574	-0.031240	0.463106
C63	C	0.824480	-0.093038	0.425875
C64	C	0.872131	-0.045444	0.695101
C65	C	0.872130	-0.045440	0.771748
C66	C	0.776882	-0.140634	0.771772
C67	C	0.776879	-0.140632	0.695127
C68	C	0.824507	-0.093038	0.656796
H69	H	0.153080	-0.206181	-0.000267
O70	O	0.918423	0.000825	0.341535
C71	C	1.012864	0.095274	0.333429
C72	C	0.960447	0.042912	0.291319
H73	H	1.046843	0.129324	0.292848
H74	H	1.047698	0.065251	0.369267
H75	H	0.982815	0.130045	0.369354
H76	H	0.990438	0.008127	0.255354
H77	H	0.925613	0.072979	0.255527
H78	H	0.464982	-0.210776	-0.000210
H79	H	0.704792	0.679578	-0.000222
O80	O	0.947729	0.574015	-0.000390
C81	C	1.056851	0.566307	-0.063483
C82	C	0.986259	0.596989	-0.063416
H83	H	1.088028	0.584881	-0.114427
H84	H	1.046820	0.506539	-0.063521
H85	H	1.087987	0.584825	-0.012515
H86	H	0.955086	0.578524	-0.114376
H87	H	0.996339	0.656754	-0.063340
H88	H	0.597091	-0.212725	-0.000196
H89	H	0.713281	0.103448	-0.000184
O90	O	0.635039	0.028101	-0.000276
C91	C	0.671886	0.136560	-0.063321
C92	C	0.622463	0.067148	-0.063286
H93	H	0.661726	0.168155	-0.114251
H94	H	0.728739	0.124812	-0.063360
H95	H	0.661748	0.168123	-0.012339
H96	H	0.632538	0.035550	-0.114259
H97	H	0.565627	0.078945	-0.063208
H98	H	0.738100	-0.179386	0.663938
H99	H	0.706738	0.547464	-0.000208
H100	H	0.910868	-0.006681	0.196579
O101	O	0.918415	0.000859	0.657975
C102	C	1.012911	0.095251	0.666039
C103	C	0.960523	0.042862	0.708172
H104	H	1.046980	0.129214	0.706605
H105	H	0.982910	0.130104	0.630199
H106	H	1.047663	0.065179	0.630113
H107	H	0.925759	0.072876	0.744138
H108	H	0.990568	0.008009	0.743966
O109	O	0.191023	0.034644	-0.000370
C110	C	0.227869	0.143103	-0.063414
C111	C	0.178449	0.073689	-0.063381
H112	H	0.217710	0.174697	-0.114346
H113	H	0.284722	0.131357	-0.063451
H114	H	0.217727	0.174666	-0.012434
H115	H	0.188528	0.042091	-0.114353
H116	H	0.121612	0.085484	-0.063307
O117	O	0.730560	-0.186761	0.341775
C118	C	0.635149	-0.201859	0.428325
C119	C	0.687538	-0.149531	0.386120
H120	H	0.600342	-0.171779	0.464176
H121	H	0.665149	-0.236658	0.464230
H122	H	0.601136	-0.235887	0.387767
H123	H	0.721564	-0.115456	0.426626
H124	H	0.657495	-0.114780	0.350204
O125	O	0.730543	-0.186918	0.190713
C126	C	0.636044	-0.281307	0.198825
C127	C	0.688439	-0.228920	0.240932
H128	H	0.601978	-0.315269	0.239408
H129	H	0.666040	-0.316161	0.162941
H130	H	0.601290	-0.251233	0.162946
H131	H	0.723205	-0.258936	0.276851
H132	H	0.658399	-0.194066	0.276770
O133	O	0.730531	-0.186802	0.808971
C134	C	0.609008	-0.228043	0.832437
C135	C	0.661428	-0.175710	0.790273
H136	H	0.553127	-0.219103	0.817324
H137	H	0.617131	-0.219872	0.893805
H138	H	0.617967	-0.283937	0.817357
H139	H	0.652500	-0.119795	0.805291
H140	H	0.653293	-0.183942	0.728915
H141	H	0.944176	0.134360	-0.000214
H142	H	0.495885	0.020111	-0.000188
H143	H	0.020970	-0.204232	-0.000285
H144	H	0.051874	0.026659	-0.000309
H145	H	0.910911	-0.006685	0.802935
H146	H	0.935683	0.710481	-0.000274
H147	H	0.942228	0.266470	-0.000233
H148	H	0.711340	0.235567	-0.000187
