data_functionalizedCrystal
_audit_creation_method	'MofGen! by Chris Wilmer'
_symmetry_space_group_name_H-M	'P1'
_symmetry_Int_Tables_number	1
_symmetry_cell_setting	triclinic
loop_
_symmetry_equiv_pos_as_xyz
  x,y,z
_cell_length_a	6.817900
_cell_length_b	19.453103
_cell_length_c	19.453030
_cell_angle_alpha	96.316731
_cell_angle_beta	101.707737
_cell_angle_gamma	101.709178
loop_
_atom_site_label
_atom_site_type_symbol
_atom_site_fract_x
_atom_site_fract_y
_atom_site_fract_z
V1	V	-3.997980	-0.097914	-0.219328
O2	O	-3.995081	0.003953	-0.214817
O3	O	-3.940999	-0.193422	-0.218151
O4	O	-3.940993	-0.096738	-0.314837
O5	O	-3.995087	-0.093401	-0.117461
V6	V	-4.483832	-0.085690	-0.207104
O7	O	-4.254128	-0.124727	-0.246140
O8	O	-4.677881	-0.058877	-0.180292
O9	O	-4.317606	0.009819	-0.208281
O10	O	-4.604128	-0.187556	-0.211615
O11	O	-4.604121	-0.090202	-0.308971
O12	O	-4.317612	-0.086866	-0.111595
C13	C	-3.784191	-0.216695	-0.214774
C14	C	-3.818832	-0.294777	-0.214448
C15	C	-4.016565	-0.335044	-0.217808
C16	C	-4.049118	-0.408411	-0.217509
C17	C	-3.883920	-0.441507	-0.213836
C18	C	-3.686161	-0.401231	-0.210481
C19	C	-3.653617	-0.327866	-0.210787
N20	N	-3.779044	-0.547627	-0.170551
N21	N	-3.809970	-0.617320	-0.170259
C22	C	-3.981962	-0.662551	-0.212916
N23	N	-4.121885	-0.635454	-0.255867
N24	N	-4.090959	-0.565754	-0.256156
C25	C	-3.919188	-0.521058	-0.213505
C26	C	-4.215006	-0.782371	-0.215952
C27	C	-4.247555	-0.855740	-0.215658
C28	C	-3.884588	-0.848558	-0.208622
C29	C	-3.852049	-0.775191	-0.208924
C30	C	-4.017264	-0.742102	-0.212586
C31	C	-3.784181	-0.093363	-0.338106
C32	C	-3.818815	-0.093034	-0.416187
C33	C	-3.868540	-0.157237	-0.463108
C34	C	-3.901105	-0.156935	-0.536475
C35	C	-3.883902	-0.092425	-0.562917
C36	C	-3.834181	-0.028213	-0.515986
C37	C	-3.801637	-0.028518	-0.442621
N38	N	-3.796770	-0.041847	-0.668241
N39	N	-3.827683	-0.041562	-0.737935
C40	C	-3.981956	-0.091504	-0.783961
N41	N	-4.104129	-0.141752	-0.757661
N42	N	-4.073205	-0.142039	-0.687960
C43	C	-3.919188	-0.092088	-0.642468
C44	C	-4.066996	-0.155384	-0.910436
C45	C	-4.099573	-0.155079	-0.983804
C46	C	-4.032627	-0.026356	-0.963313
C47	C	-4.000072	-0.026662	-0.889947
C48	C	-4.017250	-0.091178	-0.863513
C49	C	-4.137757	0.033088	-0.211656
C50	C	-4.082353	0.111169	-0.211986
C51	C	-4.137766	-0.090243	-0.088323
C52	C	-4.082371	-0.090569	-0.010241
H53	H	-4.408578	-0.888526	-0.218398
F54	F	-4.085280	-0.224046	-0.882300
H55	H	-3.882541	-0.209771	-0.441591
F56	F	-3.748694	0.039820	-0.392681
F57	F	-3.708772	-0.883777	-0.204720
H58	H	-3.691033	-0.742405	-0.206184
F59	F	-4.259583	-0.451274	-0.221085
H60	H	-4.140078	-0.207364	-1.022008
H61	H	-3.941590	-0.209218	-0.574685
H62	H	-3.820181	0.024311	-0.537520
F63	F	-4.014341	0.042301	-0.991450
H64	H	-3.959571	0.025619	-0.851742
H65	H	-3.551658	-0.428183	-0.207492
F66	F	-4.192399	-0.299830	-0.221697
F67	F	-3.443155	-0.285010	-0.207210
H68	H	-4.349533	-0.755428	-0.218933
