data_functionalizedCrystal
_audit_creation_method	'MofGen! by Chris Wilmer'
_symmetry_space_group_name_H-M	'P1'
_symmetry_Int_Tables_number	1
_symmetry_cell_setting	triclinic
loop_
_symmetry_equiv_pos_as_xyz
  x,y,z
_cell_length_a	15.944551
_cell_length_b	15.944493
_cell_length_c	12.503572
_cell_angle_alpha	93.528588
_cell_angle_beta	86.485927
_cell_angle_gamma	83.486891
loop_
_atom_site_label
_atom_site_type_symbol
_atom_site_fract_x
_atom_site_fract_y
_atom_site_fract_z
O1	O	1.119339	0.103483	-0.089195
O2	O	1.369339	0.353483	0.160805
O3	O	1.619339	0.603483	0.410805
O4	O	1.869339	0.853483	0.660805
O5	O	0.874788	0.116838	-0.089220
O6	O	1.124788	0.366838	0.160780
O7	O	1.374788	0.616838	0.410780
O8	O	1.624788	0.866838	0.660780
O9	O	1.003768	-0.012118	-0.089215
O10	O	1.253768	0.237882	0.160785
O11	O	1.503768	0.487882	0.410785
O12	O	1.753768	0.737882	0.660785
O13	O	0.990360	0.232439	-0.089199
O14	O	1.240360	0.482439	0.160801
O15	O	1.490360	0.732439	0.410801
O16	O	1.740360	0.982439	0.660801
O17	O	0.994068	-0.002404	0.089426
O18	O	1.244068	0.247596	0.339426
O19	O	1.494068	0.497596	0.589426
O20	O	1.744068	0.747596	0.839426
O21	O	0.865088	0.126552	0.089422
O22	O	1.115088	0.376552	0.339422
O23	O	1.365088	0.626552	0.589422
O24	O	1.615088	0.876552	0.839422
O25	O	1.109639	0.113197	0.089447
O26	O	1.359639	0.363197	0.339447
O27	O	1.609639	0.613197	0.589447
O28	O	1.859639	0.863197	0.839447
Cu29	Cu	0.986478	0.120762	0.105746
Cu30	Cu	1.236478	0.370762	0.355746
Cu31	Cu	1.486478	0.620762	0.605746
Cu32	Cu	1.736478	0.870762	0.855746
Cu33	Cu	0.997949	0.109273	-0.105518
Cu34	Cu	1.247949	0.359273	0.144482
Cu35	Cu	1.497949	0.609273	0.394482
Cu36	Cu	1.747949	0.859273	0.644482
O37	O	0.980660	0.242153	0.089443
O38	O	1.230660	0.492153	0.339443
O39	O	1.480660	0.742153	0.589443
O40	O	1.730660	0.992153	0.839443
C41	C	0.838644	0.121140	0.000098
C42	C	1.088644	0.371140	0.250098
C43	C	1.338644	0.621140	0.500098
C44	C	1.588644	0.871140	0.750098
C45	C	0.745399	0.119478	0.000088
C46	C	0.995399	0.369478	0.250088
C47	C	1.245399	0.619478	0.500088
C48	C	1.495399	0.869478	0.750088
C49	C	0.530559	0.035572	0.000103
C50	C	0.780559	0.285572	0.250103
C51	C	1.030559	0.535572	0.500103
C52	C	1.280559	0.785572	0.750103
C53	C	0.474314	0.069746	-0.087974
C54	C	0.724314	0.319746	0.162026
C55	C	0.974314	0.569746	0.412026
C56	C	1.224314	0.819746	0.662026
C57	C	0.574673	0.116471	0.000100
C58	C	0.824673	0.366471	0.250100
C59	C	1.074673	0.616471	0.500100
C60	C	1.324673	0.866471	0.750100
C61	C	0.464772	0.079342	0.088152
C62	C	0.714772	0.329342	0.338152
C63	C	0.964772	0.579342	0.588152
C64	C	1.214772	0.829342	0.838152
C65	C	0.409760	0.113561	0.000117
C66	C	0.659760	0.363561	0.250117
C67	C	0.909760	0.613561	0.500117
C68	C	1.159760	0.863561	0.750117
C69	C	0.519660	0.150663	-0.088050
C70	C	0.769660	0.400663	0.161950
C71	C	1.019660	0.650663	0.411950
C72	C	1.269660	0.900663	0.661950
C73	C	0.510121	0.160253	0.088156
C74	C	0.760121	0.410253	0.338156
C75	C	1.010121	0.660253	0.588156
C76	C	1.260121	0.910253	0.838156
C77	C	0.453894	0.194484	0.000057
C78	C	0.703894	0.444484	0.250057
C79	C	0.953894	0.694484	0.500057
C80	C	1.203894	0.944484	0.750057
C81	C	0.669676	0.118145	0.000090
C82	C	0.919676	0.368145	0.250090
C83	C	1.169676	0.618145	0.500090
C84	C	1.419676	0.868145	0.750090
C85	C	0.314759	0.111893	0.000120
C86	C	0.564759	0.361893	0.250120
C87	C	0.814759	0.611893	0.500120
C88	C	1.064759	0.861893	0.750120
C89	C	0.998370	-0.038556	0.000101
C90	C	1.248370	0.211444	0.250101
C91	C	1.498370	0.461444	0.500101
C92	C	1.748370	0.711444	0.750101
C93	C	0.996728	-0.131806	0.000087
C94	C	1.246728	0.118194	0.250087
C95	C	1.496728	0.368194	0.500087
C96	C	1.746728	0.618194	0.750087
C97	C	1.072647	-0.367564	0.000115
C98	C	1.322647	-0.117564	0.250115
C99	C	1.572647	0.132436	0.500115
C100	C	1.822647	0.382436	0.750115
C101	C	1.036489	-0.422922	-0.087968
C102	C	1.286489	-0.172922	0.162032
C103	C	1.536489	0.077078	0.412032
C104	C	1.786489	0.327078	0.662032
C105	C	0.993683	-0.302526	0.000100
C106	C	1.243683	-0.052526	0.250100
C107	C	1.493683	0.197474	0.500100
C108	C	1.743683	0.447474	0.750100
C109	C	1.026907	-0.413320	0.088159
C110	C	1.276907	-0.163320	0.338159
C111	C	1.526907	0.086680	0.588159
C112	C	1.776907	0.336680	0.838159
C113	C	0.990748	-0.467435	0.000117
C114	C	1.240748	-0.217435	0.250117
C115	C	1.490748	0.032565	0.500117
C116	C	1.740748	0.282565	0.750117
C117	C	0.957550	-0.356659	-0.088056
C118	C	1.207550	-0.106659	0.161944
C119	C	1.457550	0.143341	0.411944
C120	C	1.707550	0.393341	0.661944
C121	C	0.947975	-0.347050	0.088150
C122	C	1.197975	-0.097050	0.338150
C123	C	1.447975	0.152950	0.588150
C124	C	1.697975	0.402950	0.838150
C125	C	0.911760	-0.402377	0.000045
C126	C	1.161760	-0.152377	0.250045
C127	C	1.411760	0.097623	0.500045
C128	C	1.661760	0.347623	0.750045
C129	C	0.995376	-0.207527	0.000089
C130	C	1.245376	0.042473	0.250089
C131	C	1.495376	0.292473	0.500089
C132	C	1.745376	0.542473	0.750089
C133	C	0.989048	-0.562431	0.000120
C134	C	1.239048	-0.312431	0.250120
C135	C	1.489048	-0.062431	0.500120
C136	C	1.739048	0.187569	0.750120
C137	C	1.145783	0.108894	0.000127
C138	C	1.395783	0.358894	0.250127
C139	C	1.645783	0.608894	0.500127
C140	C	1.895783	0.858894	0.750127
C141	C	1.239028	0.110557	0.000131
C142	C	1.489028	0.360557	0.250131
C143	C	1.739028	0.610557	0.500131
C144	C	1.989028	0.860557	0.750131
C145	C	0.986058	0.268591	0.000124
C146	C	1.236058	0.518591	0.250124
C147	C	1.486058	0.768591	0.500124
C148	C	1.736058	1.018591	0.750124
C149	C	0.987700	0.361840	0.000131
C150	C	1.237700	0.611840	0.250131
C151	C	1.487700	0.861840	0.500131
C152	C	1.737700	1.111840	0.750131
N153	N	0.978416	0.128841	0.254338
N154	N	1.228416	0.378841	0.504338
N155	N	1.478416	0.628841	0.754338
N156	N	1.728416	0.878841	1.004338
N157	N	1.006018	0.101187	-0.254110
N158	N	1.256018	0.351187	-0.004110
N159	N	1.506018	0.601187	0.245890
N160	N	1.756018	0.851187	0.495890
C161	C	0.966556	0.140734	0.473453
C162	C	1.216556	0.390734	0.723453
C163	C	1.466556	0.640734	0.973453
C164	C	1.716556	0.890734	1.223453
C165	C	1.017875	0.089297	0.526782
C166	C	1.267875	0.339297	0.776782
C167	C	1.517875	0.589297	1.026782
C168	C	1.767875	0.839297	1.276782
C169	C	1.011276	0.095914	0.648705
C170	C	1.261276	0.345914	0.898705
C171	C	1.511276	0.595914	1.148705
C172	C	1.761276	0.845914	1.398705
C173	C	0.973154	0.134118	0.351519
C174	C	1.223154	0.384118	0.601519
C175	C	1.473154	0.634118	0.851519
C176	C	1.723154	0.884118	1.101519
H177	H	0.526201	0.198491	0.162627
H178	H	0.776201	0.448491	0.412627
H179	H	1.026201	0.698491	0.662627
H180	H	1.276201	0.948491	0.912627
Br181	Br	0.424566	0.029039	0.212257
Br182	Br	0.674566	0.279039	0.462257
Br183	Br	0.924566	0.529039	0.712257
Br184	Br	1.174566	0.779039	0.962257
Br185	Br	1.186019	-0.341519	-0.000013
Br186	Br	1.436019	-0.091519	0.249987
Br187	Br	1.686019	0.158481	0.499987
Br188	Br	1.936019	0.408481	0.749987
H189	H	1.066768	0.040291	0.480870
H190	H	1.316768	0.290291	0.730870
H191	H	1.566768	0.540291	0.980870
H192	H	1.816768	0.790291	1.230870
H193	H	0.543688	0.180801	-0.162593
H194	H	0.793688	0.430801	0.087407
H195	H	1.043688	0.680801	0.337407
H196	H	1.293688	0.930801	0.587407
H197	H	0.917667	0.189738	0.519359
H198	H	1.167667	0.439738	0.769359
H199	H	1.417667	0.689738	1.019359
H200	H	1.667667	0.939738	1.269359
H201	H	0.910613	-0.314040	0.162614
H202	H	1.160613	-0.064040	0.412614
H203	H	1.410613	0.185960	0.662614
H204	H	1.660613	0.435960	0.912614
H205	H	1.073880	-0.455917	-0.162430
H206	H	1.323880	-0.205917	0.087570
H207	H	1.573880	0.044083	0.337570
H208	H	1.823880	0.294083	0.587570
H209	H	0.928269	-0.331894	-0.162603
H210	H	1.178269	-0.081894	0.087397
H211	H	1.428269	0.168106	0.337397
H212	H	1.678269	0.418106	0.587397
H213	H	0.420724	0.261691	0.000013
H214	H	0.670724	0.511691	0.250013
H215	H	0.920724	0.761691	0.500013
H216	H	1.170724	1.011691	0.750013
H217	H	1.056228	-0.438202	0.162621
H218	H	1.306228	-0.188202	0.412621
H219	H	1.556228	0.061798	0.662621
H220	H	1.806228	0.311798	0.912621
Br221	Br	0.586105	-0.076356	-0.000042
Br222	Br	0.836105	0.173644	0.249958
Br223	Br	1.086105	0.423644	0.499958
Br224	Br	1.336105	0.673644	0.749958
H225	H	0.458254	0.031479	-0.162442
H226	H	0.708254	0.281479	0.087558
H227	H	0.958254	0.531479	0.337558
H228	H	1.208254	0.781479	0.587558
H229	H	0.843693	-0.417845	-0.000010
H230	H	1.093693	-0.167845	0.249990
H231	H	1.343693	0.082155	0.499990
H232	H	1.593693	0.332155	0.749990
