data_functionalizedCrystal
_audit_creation_method	'MofGen! by Chris Wilmer'
_symmetry_space_group_name_H-M	'P1'
_symmetry_Int_Tables_number	1
_symmetry_cell_setting	triclinic
loop_
_symmetry_equiv_pos_as_xyz
  x,y,z
_cell_length_a	9.730223
_cell_length_b	14.971486
_cell_length_c	14.971486
_cell_angle_alpha	96.385871
_cell_angle_beta	90.001545
_cell_angle_gamma	90.004750
loop_
_atom_site_label
_atom_site_type_symbol
_atom_site_fract_x
_atom_site_fract_y
_atom_site_fract_z
O1	O	0.114132	-1.186940	0.116559
O2	O	0.614132	-0.686940	0.616559
O3	O	0.114170	-0.926539	0.130518
O4	O	0.614170	-0.426539	0.630518
O5	O	0.114140	-1.063719	-0.006662
O6	O	0.614140	-0.563719	0.493338
O7	O	0.114162	-1.049760	0.253738
O8	O	0.614162	-0.549760	0.753738
O9	O	-0.114439	-1.063717	-0.006658
O10	O	0.385561	-0.563717	0.493342
O11	O	-0.114410	-0.926538	0.130521
O12	O	0.385590	-0.426538	0.630521
O13	O	-0.114447	-1.186938	0.116562
O14	O	0.385553	-0.686938	0.616562
Zn15	Zn	-0.150721	-1.056738	0.123542
Zn16	Zn	0.349279	-0.556738	0.623542
Zn17	Zn	0.150443	-1.056740	0.123538
Zn18	Zn	0.650443	-0.556740	0.623538
O19	O	-0.114418	-1.049758	0.253742
O20	O	0.385582	-0.549758	0.753742
C21	C	-0.000115	-0.893214	0.129895
C22	C	0.499885	-0.393214	0.629895
C23	C	-0.000101	-0.793917	0.128024
C24	C	0.499899	-0.293917	0.628024
N25	N	-0.356257	-1.056743	0.123545
N26	N	0.143743	-0.556743	0.623545
C27	C	-0.000149	-1.063094	-0.039985
C28	C	0.499851	-0.563094	0.460015
C29	C	-0.000148	-1.061223	-0.139282
C30	C	0.499852	-0.561223	0.360718
C31	C	-0.428196	-1.117501	0.062822
C32	C	0.071804	-0.617501	0.562822
C33	C	-0.572079	-1.117499	0.062811
C34	C	-0.072079	-0.617499	0.562811
C35	C	-0.572071	-0.995977	0.184254
C36	C	-0.072071	-0.495977	0.684254
C37	C	-0.428191	-0.995975	0.184259
C38	C	0.071809	-0.495975	0.684259
C39	C	-0.428202	-1.187664	-0.007289
C40	C	0.071798	-0.687664	0.492711
C41	C	-0.572085	-1.187662	-0.007300
C42	C	-0.072085	-0.687662	0.492700
N43	N	0.355980	-1.056742	0.123528
N44	N	0.855980	-0.556742	0.623528
C45	C	-0.000159	-1.220263	0.117185
C46	C	0.499841	-0.720263	0.617185
C47	C	-0.000164	-1.319561	0.119056
C48	C	0.499836	-0.819561	0.619056
C49	C	-0.000096	-0.736692	0.208614
C50	C	0.499904	-0.236692	0.708614
C51	C	-0.000117	-0.643392	0.206850
C52	C	0.499883	-0.143392	0.706850
C53	C	-0.000133	-0.607320	0.124497
C54	C	0.499867	-0.107320	0.624497
C55	C	-0.000141	-0.664552	0.043902
C56	C	0.499859	-0.164552	0.543902
C57	C	-0.000131	-0.757850	0.045666
C58	C	0.499869	-0.257850	0.545666
C59	C	-0.000161	-0.470090	0.040231
C60	C	0.499839	0.029910	0.540231
C61	C	-0.000169	-0.376786	0.038466
C62	C	0.499831	0.123214	0.538466
C63	C	-0.000147	-0.355632	0.201415
C64	C	0.499853	0.144368	0.701415
C65	C	-0.000136	-0.448930	0.203179
C66	C	0.499864	0.051070	0.703179
C67	C	-0.000143	-0.506156	0.122584
C68	C	0.499857	-0.006156	0.622584
C69	C	-0.000160	-1.141812	-0.196507
C70	C	0.499840	-0.641812	0.303493
C71	C	-0.000146	-1.140049	-0.289807
C72	C	0.499854	-0.640049	0.210193
C73	C	-0.000129	-1.057696	-0.325879
C74	C	0.499871	-0.557696	0.174121
C75	C	-0.000112	-0.977101	-0.268646
C76	C	0.499888	-0.477101	0.231354
C77	C	-0.000117	-0.978865	-0.175349
C78	C	0.499883	-0.478865	0.324651
C79	C	-0.000107	-0.973430	-0.463109
C80	C	0.499893	-0.473430	0.036891
C81	C	-0.000105	-0.971665	-0.556413
C82	C	0.499895	-0.471665	-0.056413
C83	C	-0.000136	-1.134614	-0.577567
C84	C	0.499864	-0.634614	-0.077567
C85	C	-0.000141	-1.136378	-0.484269
C86	C	0.499859	-0.636378	0.015731
C87	C	-0.000126	-1.055782	-0.427043
C88	C	0.499874	-0.555782	0.072957
C89	C	-0.000125	-1.050384	0.287065
C90	C	0.499875	-0.550384	0.787065
C91	C	-0.000118	-1.052254	0.386362
C92	C	0.499882	-0.552254	0.886362
H93	H	-0.369619	-0.946493	0.233697
H94	H	0.130381	-0.446493	0.733697
H95	H	-0.630655	-0.946501	0.233685
H96	H	-0.130655	-0.446501	0.733685
F97	F	-0.000089	-0.884016	-0.594802
F98	F	0.499911	-0.384016	-0.094802
H99	H	-0.000092	-0.907800	-0.416517
H100	H	0.499908	-0.407800	0.083483
H101	H	-0.000106	-0.913240	-0.128756
H102	H	0.499894	-0.413240	0.371244
F103	F	-0.000143	-0.294727	0.287192
F104	F	0.499857	0.205273	0.787192
F105	F	-0.369875	-1.272328	0.020548
F106	F	0.130125	-0.772328	0.520548
H107	H	-0.616702	-1.166425	-0.072106
H108	H	-0.116702	-0.666425	0.427894
F109	F	-0.377153	-1.168388	-0.097001
F110	F	0.122847	-0.668388	0.402999
H111	H	-0.611144	-1.256284	0.007501
H112	H	-0.111144	-0.756284	0.507501
H113	H	-0.000134	-0.804443	-0.019958
H114	H	0.499866	-0.304443	0.480042
H115	H	-0.000083	-0.766054	0.275675
H116	H	0.499917	-0.266054	0.775675
F117	F	-0.000145	-1.220391	-0.638472
F118	F	0.499855	-0.720391	-0.138472
F119	F	-0.000106	-0.582492	0.292625
F120	F	0.499894	-0.082492	0.792625
H121	H	-0.000111	-0.478296	0.270239
H122	H	0.499889	0.021704	0.770239
H123	H	-0.000183	-0.347419	-0.028593
H124	H	0.499817	0.152581	0.471407
H125	H	-0.000168	-0.516682	-0.025399
H126	H	0.499832	-0.016682	0.474601
F127	F	-0.000167	-0.626159	-0.043745
F128	F	0.499833	-0.126159	0.456255
H129	H	-0.000159	-1.205673	-0.336396
H130	H	0.499841	-0.705673	0.163604
F131	F	-0.000079	-0.889454	-0.307040
F132	F	0.499921	-0.389454	0.192960
F133	F	-0.000191	-1.229465	-0.158125
F134	F	0.499809	-0.729465	0.341875
F135	F	-0.000155	-1.224028	-0.445880
F136	F	0.499845	-0.724028	0.054120
