data_functionalizedCrystal
_audit_creation_method	'MofGen! by Chris Wilmer'
_symmetry_space_group_name_H-M	'P1'
_symmetry_Int_Tables_number	1
_symmetry_cell_setting	triclinic
loop_
_symmetry_equiv_pos_as_xyz
  x,y,z
_cell_length_a	17.699083
_cell_length_b	16.992695
_cell_length_c	16.176319
_cell_angle_alpha	89.993125
_cell_angle_beta	89.998611
_cell_angle_gamma	86.975619
loop_
_atom_site_label
_atom_site_type_symbol
_atom_site_fract_x
_atom_site_fract_y
_atom_site_fract_z
O1	O	1.010252	0.099146	-0.068631
O2	O	1.510252	0.599146	0.431369
O3	O	0.790676	0.112045	-0.068658
O4	O	1.290676	0.612045	0.431342
O5	O	0.899584	-0.008546	-0.068638
O6	O	1.399584	0.491454	0.431362
O7	O	0.901344	0.219736	-0.068651
O8	O	1.401344	0.719736	0.431349
O9	O	0.899567	-0.008553	0.068855
O10	O	1.399567	0.491447	0.568855
O11	O	0.790660	0.112037	0.068835
O12	O	1.290660	0.612037	0.568835
O13	O	1.010235	0.099138	0.068862
O14	O	1.510235	0.599138	0.568862
Cu15	Cu	0.900446	0.105587	0.081403
Cu16	Cu	1.400446	0.605587	0.581403
Cu17	Cu	0.900465	0.105596	-0.081199
Cu18	Cu	1.400465	0.605596	0.418801
O19	O	0.901328	0.219729	0.068842
O20	O	1.401328	0.719729	0.568842
C21	C	0.762442	0.111579	0.000085
C22	C	1.262442	0.611579	0.500085
C23	C	0.678338	0.110192	0.000075
C24	C	1.178338	0.610192	0.500075
C25	C	0.634124	0.180976	0.000071
C26	C	1.134124	0.680976	0.500071
C27	C	0.555099	0.179669	0.000082
C28	C	1.055099	0.679669	0.500082
C29	C	0.520290	0.107576	0.000091
C30	C	1.020290	0.607576	0.500091
C31	C	0.564510	0.036787	0.000097
C32	C	1.064510	0.536787	0.500097
C33	C	0.643533	0.038095	0.000092
C34	C	1.143533	0.538095	0.500092
C35	C	0.245818	0.031509	0.000118
C36	C	0.745818	0.531509	0.500118
C37	C	0.166789	0.030206	0.000120
C38	C	0.666789	0.530206	0.500120
C39	C	0.157384	0.173082	0.000108
C40	C	0.657384	0.673082	0.500108
C41	C	0.236408	0.174391	0.000103
C42	C	0.736408	0.674391	0.500103
C43	C	0.280621	0.103602	0.000113
C44	C	0.780621	0.603602	0.500113
C45	C	0.366308	0.105020	0.000103
C46	C	0.866308	0.605020	0.500103
C47	C	0.434604	0.106157	0.000095
C48	C	0.934604	0.606157	0.500095
C49	C	0.897311	-0.037758	0.000108
C50	C	1.397311	0.462242	0.500108
C51	C	0.890554	-0.124789	0.000107
C52	C	1.390554	0.375211	0.500107
C53	C	0.955751	-0.175154	0.000116
C54	C	1.455751	0.324846	0.500116
C55	C	0.949398	-0.256928	0.000107
C56	C	1.449398	0.243072	0.500107
C57	C	0.877846	-0.288336	0.000096
C58	C	1.377846	0.211664	0.500096
C59	C	0.812643	-0.237965	0.000084
C60	C	1.312643	0.262035	0.500084
C61	C	0.818998	-0.156192	0.000087
C62	C	1.318998	0.343808	0.500087
C63	C	0.851510	-0.531884	0.000081
C64	C	1.351510	-0.031884	0.500081
C65	C	0.845160	-0.613663	0.000081
C66	C	1.345160	-0.113663	0.500081
C67	C	0.981915	-0.632621	0.000102
C68	C	1.481915	-0.132621	0.500102
C69	C	0.988263	-0.550845	0.000110
C70	C	1.488263	-0.050845	0.500110
C71	C	0.923061	-0.500481	0.000094
C72	C	1.423061	-0.000481	0.500094
N73	N	0.871350	-0.371923	0.000090
N74	N	1.371350	0.128077	0.500090
N75	N	0.929558	-0.416897	0.000095
N76	N	1.429558	0.083103	0.500095
C77	C	1.038469	0.099604	0.000117
C78	C	1.538469	0.599604	0.500117
C79	C	1.122574	0.100991	0.000122
C80	C	1.622574	0.600991	0.500122
C81	C	0.903601	0.248941	0.000094
C82	C	1.403601	0.748941	0.500094
C83	C	0.910358	0.335972	0.000090
C84	C	1.410358	0.835972	0.500090
N85	N	0.900438	0.105580	0.195768
N86	N	1.400438	0.605580	0.695768
N87	N	0.900479	0.105597	-0.195564
N88	N	1.400479	0.605597	0.304436
C89	C	0.948679	0.052204	0.239041
C90	C	1.448679	0.552204	0.739041
C91	C	0.948683	0.052203	0.325588
C92	C	1.448683	0.552203	0.825588
C93	C	0.900449	0.105583	0.368861
C94	C	1.400449	0.605583	0.868861
C95	C	0.852202	0.158961	0.325582
C96	C	1.352202	0.658961	0.825582
C97	C	0.852195	0.158957	0.239036
C98	C	1.352195	0.658957	0.739036
C99	C	0.852229	0.158976	0.674610
C100	C	1.352229	0.658976	1.174610
C101	C	0.852242	0.158977	0.761161
C102	C	1.352242	0.658977	1.261161
C103	C	0.948717	0.052222	0.761162
C104	C	1.448717	0.552222	1.261162
C105	C	0.948709	0.052218	0.674617
C106	C	1.448709	0.552218	1.174617
C107	C	0.900461	0.105593	0.631345
C108	C	1.400461	0.605593	1.131345
C109	C	0.900456	0.105593	0.537501
C110	C	1.400456	0.605593	1.037501
C111	C	0.900457	0.105588	0.462703
C112	C	1.400457	0.605588	0.962703
H113	H	0.662460	0.239682	0.000064
H114	H	1.162460	0.739682	0.500064
H115	H	0.812925	0.202421	0.360819
H116	H	1.312925	0.702421	0.860819
H117	H	0.121377	0.230722	0.000103
H118	H	0.621377	0.730722	0.500103
H119	H	0.754384	-0.263544	0.000070
H120	H	1.254384	0.236456	0.500070
C121	C	1.034457	-0.140608	0.000132
C122	C	1.534457	0.359392	0.500132
H123	H	1.028906	-0.084693	0.000140
H124	H	1.528906	0.415307	0.500140
H125	H	1.061518	-0.157899	-0.047811
H126	H	1.561518	0.342101	0.452189
H127	H	1.061501	-0.157913	0.048089
H128	H	1.561501	0.342087	0.548089
C129	C	1.021115	-0.312326	0.000126
C130	C	1.521115	0.187674	0.500126
H131	H	1.064639	-0.281909	0.000145
H132	H	1.564639	0.218091	0.500145
H133	H	1.021493	-0.344616	-0.047821
H134	H	1.521493	0.155384	0.452179
H135	H	1.021467	-0.344624	0.048079
H136	H	1.521467	0.155376	0.548079
C137	C	0.128496	-0.049097	0.000132
C138	C	0.628496	0.450903	0.500132
H139	H	0.075101	-0.039735	0.000124
H140	H	0.575101	0.460265	0.500124
H141	H	0.143376	-0.078239	0.048082
H142	H	0.643376	0.421761	0.548082
H143	H	0.143380	-0.078236	-0.047818
H144	H	0.643380	0.421764	0.452182
H145	H	0.519103	0.237308	0.000078
H146	H	1.019103	0.737308	0.500078
C147	C	0.526222	-0.042513	0.000105
C148	C	1.026222	0.457487	0.500105
H149	H	0.472826	-0.033156	0.000098
H150	H	0.972826	0.466844	0.500098
H151	H	0.541105	-0.071657	0.048052
H152	H	1.041105	0.428343	0.548052
H153	H	0.541106	-0.071647	-0.047848
H154	H	1.041106	0.428353	0.452152
H155	H	0.798417	-0.490887	0.000069
H156	H	1.298417	0.009113	0.500069
H157	H	0.281807	-0.026132	0.000127
H158	H	0.781807	0.473868	0.500127
H159	H	1.046528	-0.525279	0.000120
H160	H	1.546528	-0.025279	0.500120
C161	C	0.747280	-0.100791	0.000079
C162	C	1.247280	0.399209	0.500079
H163	H	0.703756	-0.131207	0.000079
H164	H	1.203756	0.368793	0.500079
H165	H	0.746923	-0.068492	-0.047867
H166	H	1.246923	0.431508	0.452133
H167	H	0.746910	-0.068504	0.048033
H168	H	1.246910	0.431496	0.548033
H169	H	0.264745	0.233096	0.000092
H170	H	0.764745	0.733096	0.500092
C171	C	1.001736	-0.006515	0.191449
C172	C	1.501736	0.493485	0.691449
H173	H	1.030461	-0.038308	0.229620
H174	H	1.530461	0.461692	0.729620
H175	H	1.034940	0.021643	0.157677
H176	H	1.534940	0.521643	0.657677
H177	H	0.972532	-0.039120	0.157699
H178	H	1.472532	0.460880	0.657699
H179	H	0.812912	0.202420	0.203804
H180	H	1.312912	0.702420	0.703804
C181	C	1.001755	-0.006502	0.373185
C182	C	1.501755	0.493498	0.873185
H183	H	1.030489	-0.038285	0.335019
H184	H	1.530489	0.461715	0.835019
H185	H	0.972571	-0.039108	0.406958
H186	H	1.472571	0.460892	0.906958
H187	H	1.034963	0.021673	0.406935
H188	H	1.534963	0.521673	0.906935
H189	H	0.987989	0.008755	0.639387
H190	H	1.487989	0.508755	1.139387
C191	C	1.053631	-0.688021	0.000108
C192	C	1.553631	-0.188021	0.500108
H193	H	1.039602	-0.741221	0.000097
H194	H	1.539602	-0.241221	0.500097
H195	H	1.082765	-0.678523	0.048056
H196	H	1.582765	-0.178523	0.548056
H197	H	1.082768	-0.678506	-0.047844
H198	H	1.582768	-0.178506	0.452156
C199	C	0.799180	0.217691	0.808764
C200	C	1.299180	0.717691	1.308764
H201	H	0.806102	0.210053	0.866504
H202	H	1.306102	0.710053	1.366504
H203	H	0.748158	0.209238	0.794593
H204	H	1.248158	0.709238	1.294593
H205	H	0.810559	0.270010	0.794570
H206	H	1.310559	0.770010	1.294570
C207	C	0.692172	-0.039765	0.000095
C208	C	1.192172	0.460235	0.500095
H209	H	0.744220	-0.028661	0.000100
H210	H	1.244220	0.471339	0.500100
H211	H	0.681155	-0.069334	-0.047847
H212	H	1.181155	0.430666	0.452153
H213	H	0.681154	-0.069331	0.048053
H214	H	1.181154	0.430669	0.548053
C215	C	0.766450	-0.648211	0.000054
C216	C	1.266450	-0.148211	0.500054
H217	H	0.728527	-0.606505	0.000035
H218	H	1.228527	-0.106505	0.500035
H219	H	0.761115	-0.679724	0.047998
H220	H	1.261115	-0.179724	0.547998
H221	H	0.761147	-0.679710	-0.047902
H222	H	1.261147	-0.179710	0.452098
C223	C	0.799180	0.217704	0.627018
C224	C	1.299180	0.717704	1.127018
H225	H	0.806079	0.210060	0.569277
H226	H	1.306079	0.710060	1.069277
H227	H	0.810577	0.270013	0.641201
H228	H	1.310577	0.770013	1.141201
H229	H	0.748153	0.209266	0.641205
H230	H	1.248153	0.709266	1.141205
C231	C	1.001782	-0.006499	0.808763
C232	C	1.501782	0.493501	1.308763
H233	H	0.994875	0.001139	0.866504
H234	H	1.494875	0.501139	1.366504
H235	H	1.052801	0.001950	0.794573
H236	H	1.552801	0.501950	1.294573
H237	H	0.990395	-0.058816	0.794586
H238	H	1.490395	0.441184	1.294586
