data_functionalizedCrystal
_audit_creation_method	'MofGen! by Chris Wilmer'
_symmetry_space_group_name_H-M	'P1'
_symmetry_Int_Tables_number	1
_symmetry_cell_setting	triclinic
loop_
_symmetry_equiv_pos_as_xyz
  x,y,z
_cell_length_a	17.699104
_cell_length_b	6.394989
_cell_length_c	16.176319
_cell_angle_alpha	90.003737
_cell_angle_beta	89.991696
_cell_angle_gamma	95.105386
loop_
_atom_site_label
_atom_site_type_symbol
_atom_site_fract_x
_atom_site_fract_y
_atom_site_fract_z
O1	O	1.006766	-0.264339	-0.068758
O2	O	0.786740	-0.298658	-0.068755
O3	O	0.899876	0.022581	-0.068757
O4	O	0.893630	-0.585578	-0.068756
O5	O	0.899860	0.022601	0.068736
O6	O	0.786724	-0.298637	0.068738
O7	O	1.006750	-0.264319	0.068735
Cu8	Cu	0.896736	-0.281476	0.081291
Cu9	Cu	0.896755	-0.281500	-0.081311
O10	O	0.893614	-0.585558	0.068737
C11	C	0.758523	-0.297411	-0.000009
C12	C	0.674468	-0.293699	-0.000008
C13	C	0.151308	-0.461329	-0.000016
C14	C	0.230287	-0.464804	-0.000018
C15	C	0.276980	-0.276225	-0.000019
C16	C	0.244690	-0.084158	-0.000025
C17	C	0.165712	-0.080686	-0.000028
C18	C	0.563199	-0.098158	-0.000012
C19	C	0.642182	-0.101645	-0.000006
C20	C	0.627773	-0.482276	-0.000002
C21	C	0.548796	-0.478804	-0.000005
C22	C	0.516513	-0.286739	-0.000016
C23	C	0.430874	-0.282973	-0.000015
C24	C	0.362617	-0.279988	-0.000014
C25	C	1.034968	-0.265566	-0.000014
C26	C	1.119023	-0.269277	-0.000020
C27	C	0.898633	0.100407	-0.000014
C28	C	0.894859	0.336623	-0.000015
N29	N	0.896728	-0.281458	0.195656
N30	N	0.896769	-0.281502	-0.195676
C31	C	0.946840	-0.139271	0.238919
C32	C	0.946844	-0.139269	0.325466
C33	C	0.896739	-0.281465	0.368749
C34	C	0.846620	-0.423658	0.325479
C35	C	0.846613	-0.423649	0.238934
C36	C	0.846647	-0.423698	0.674507
C37	C	0.846659	-0.423700	0.761059
C38	C	0.946878	-0.139318	0.761040
C39	C	0.946871	-0.139308	0.674495
C40	C	0.896750	-0.281493	0.631233
C41	C	0.896746	-0.281491	0.537389
C42	C	0.896746	-0.281479	0.462591
H43	H	0.139428	0.075703	-0.000033
H44	H	0.510781	-0.632365	-0.000001
O45	O	0.528381	0.108985	-0.000019
H46	H	0.492727	0.119671	0.056014
O47	O	0.265099	-0.671962	-0.000007
H48	H	0.300738	-0.682695	-0.056049
O49	O	1.000880	0.014106	0.192237
H50	H	1.035721	0.112992	0.236864
O51	O	0.662591	-0.689446	-0.000001
H52	H	0.725353	-0.660192	-0.000008
H53	H	0.987686	-0.023536	0.796273
O54	O	0.692549	0.101759	-0.000007
H55	H	0.680864	0.193665	-0.056054
O56	O	1.000908	0.014050	0.372132
H57	H	1.035759	0.112897	0.327496
O58	O	0.792626	-0.577106	0.807747
H59	H	0.757773	-0.675978	0.763126
O60	O	1.000908	0.014069	0.627809
H61	H	1.035750	0.112960	0.672434
H62	H	0.805838	-0.539473	0.639290
H63	H	0.282714	0.069386	-0.000030
O64	O	0.792581	-0.577050	0.372156
H65	H	0.754968	-0.489267	0.411610
O66	O	0.100945	-0.664724	-0.000011
H67	H	0.112653	-0.756655	-0.056054
O68	O	0.792568	-0.577015	0.192264
H69	H	0.757732	-0.675911	0.236899
