data_functionalizedCrystal
_audit_creation_method	'MofGen! by Chris Wilmer'
_symmetry_space_group_name_H-M	'P1'
_symmetry_Int_Tables_number	1
_symmetry_cell_setting	triclinic
loop_
_symmetry_equiv_pos_as_xyz
  x,y,z
_cell_length_a	15.944493
_cell_length_b	15.944493
_cell_length_c	15.021413
_cell_angle_alpha	90.009890
_cell_angle_beta	89.993251
_cell_angle_gamma	83.475044
loop_
_atom_site_label
_atom_site_type_symbol
_atom_site_fract_x
_atom_site_fract_y
_atom_site_fract_z
O1	O	1.114537	0.108092	-0.074008
O2	O	0.869978	0.121499	-0.074011
O3	O	0.998961	-0.007484	-0.074017
O4	O	0.985553	0.237075	-0.074003
O5	O	0.998940	-0.007466	0.074047
O6	O	0.869957	0.121518	0.074053
O7	O	1.114516	0.108110	0.074056
Zn8	Zn	0.992233	0.114817	0.097563
Zn9	Zn	0.992260	0.114793	-0.097518
O10	O	0.985533	0.237094	0.074062
C11	C	0.838673	0.120961	0.000020
C12	C	0.745424	0.119318	0.000018
C13	C	0.509649	0.195240	0.000022
C14	C	0.459089	0.154307	0.073027
C15	C	0.574704	0.116273	0.000020
C16	C	0.459114	0.154270	-0.072953
C17	C	0.409795	0.113339	0.000018
C18	C	0.525372	0.075362	0.073085
C19	C	0.525400	0.075337	-0.072960
C20	C	0.474873	0.034346	0.000062
C21	C	0.669704	0.117966	0.000022
C22	C	0.314798	0.111640	0.000022
C23	C	0.998403	-0.038769	0.000011
C24	C	0.996760	-0.132018	-0.000000
C25	C	1.072682	-0.367793	0.000017
C26	C	1.031750	-0.418362	-0.072986
C27	C	0.993716	-0.302738	0.000011
C28	C	1.031712	-0.418320	0.072994
C29	C	0.990781	-0.467647	0.000025
C30	C	0.952805	-0.352078	-0.073053
C31	C	0.952778	-0.352033	0.072992
C32	C	0.911788	-0.402569	-0.000029
C33	C	0.995408	-0.207739	0.000002
C34	C	0.989082	-0.562644	0.000028
C35	C	1.145821	0.108649	0.000022
C36	C	1.239069	0.110292	0.000018
C37	C	0.986091	0.268379	0.000031
C38	C	0.987734	0.361627	0.000037
N39	N	0.992221	0.114833	0.230700
N40	N	0.992279	0.114770	-0.230656
C41	C	0.932570	0.174447	0.470386
C42	C	1.008469	0.190739	0.529723
C43	C	0.992243	0.114812	0.412307
C44	C	0.916364	0.098539	0.529712
C45	C	0.992256	0.114794	0.587731
C46	C	1.068180	0.131141	0.470337
C47	C	0.976025	0.038909	0.470321
C48	C	1.051979	0.055168	0.529631
C49	C	0.992233	0.114825	0.311250
C50	C	0.992274	0.114780	0.688786
H51	H	0.554362	0.042005	-0.134687
H52	H	1.065107	-0.447322	-0.134705
H53	H	1.132369	0.144974	0.444366
H54	H	1.102503	0.004726	0.555481
O55	O	0.454389	-0.055818	0.000107
H56	H	0.481172	-0.088384	0.060762
O57	O	0.908635	-0.313642	0.154749
H58	H	0.909760	-0.244174	0.153635
H59	H	0.554198	0.042041	0.134866
O60	O	1.075881	-0.456622	0.154758
H61	H	1.073719	-0.525955	0.154351
H62	H	0.430136	0.187664	0.134750
H63	H	0.525258	0.263261	0.000095
H64	H	0.430177	0.187628	-0.134664
H65	H	1.140702	-0.352179	-0.000055
O66	O	0.908676	-0.313918	-0.154904
H67	H	0.910293	-0.244509	-0.154286
O68	O	0.865794	0.241294	0.435914
H69	H	0.879471	0.304233	0.459705
H70	H	0.843715	-0.418021	-0.000070
H71	H	1.022199	0.254920	0.555814
O72	O	0.957817	-0.046081	0.435725
H73	H	0.899992	-0.038046	0.394036
O74	O	0.831362	0.080306	0.564262
H75	H	0.781940	0.129902	0.540525
