data_functionalizedCrystal
_audit_creation_method	'MofGen! by Chris Wilmer'
_symmetry_space_group_name_H-M	'P1'
_symmetry_Int_Tables_number	1
_symmetry_cell_setting	triclinic
loop_
_symmetry_equiv_pos_as_xyz
  x,y,z
_cell_length_a	14.908571
_cell_length_b	18.101389
_cell_length_c	14.908520
_cell_angle_alpha	93.278894
_cell_angle_beta	90.205961
_cell_angle_gamma	86.688960
loop_
_atom_site_label
_atom_site_type_symbol
_atom_site_fract_x
_atom_site_fract_y
_atom_site_fract_z
Zn1	Zn	1.353949	-0.503469	-0.437523
Zn2	Zn	1.345169	-0.386332	-0.587860
Zn3	Zn	1.203588	-0.372121	-0.428834
Zn4	Zn	1.194876	-0.502614	-0.579147
O5	O	1.274395	-0.441134	-0.508341
O6	O	1.478609	-0.494236	-0.464748
O7	O	1.326359	-0.280813	-0.566776
O8	O	1.230853	-0.383956	-0.304164
O9	O	1.472158	-0.408176	-0.575201
O10	O	1.341323	-0.480457	-0.310547
O11	O	1.222340	-0.270373	-0.449940
O12	O	1.076607	-0.383126	-0.441491
O13	O	1.216006	-0.606361	-0.560349
O14	O	1.070207	-0.478998	-0.551924
O15	O	1.332876	-0.606990	-0.456299
O16	O	1.317913	-0.407346	-0.712528
O17	O	1.207493	-0.492778	-0.706126
C18	C	1.040782	-0.429428	-0.494820
C19	C	0.940841	-0.424438	-0.489057
C20	C	0.746413	-0.514774	-0.593401
C21	C	0.652508	-0.510089	-0.587989
C22	C	0.659126	-0.410386	-0.472817
C23	C	0.753030	-0.415071	-0.478229
C24	C	0.796670	-0.467266	-0.538524
C25	C	0.890576	-0.471948	-0.543940
C26	C	0.897192	-0.372249	-0.428764
C27	C	0.803288	-0.367563	-0.423352
C28	C	1.274449	-0.634298	-0.508321
C29	C	1.274471	-0.716613	-0.508313
C30	C	1.274533	-1.015699	-0.508147
C31	C	1.200776	-0.983956	-0.573378
C32	C	1.200946	-0.898362	-0.573710
C33	C	1.274502	-0.867319	-0.508229
C34	C	1.367755	-0.904304	-0.539426
C35	C	1.367341	-0.989949	-0.539859
C36	C	1.255870	-0.978671	-0.411613
C37	C	1.253731	-0.892939	-0.412041
C38	C	1.274490	-0.783461	-0.508275
C39	C	1.274552	-1.099557	-0.508105
C40	C	1.508921	-0.452887	-0.521916
C41	C	1.608861	-0.457895	-0.527700
C42	C	1.260829	-0.451529	-0.741953
C43	C	1.255108	-0.456004	-0.841897
C44	C	1.274398	-0.248722	-0.508299
C45	C	1.274564	-0.166405	-0.508064
C46	C	1.359455	-0.375537	-1.036316
C47	C	1.354082	-0.379740	-1.130224
C48	C	1.238995	-0.468617	-1.123621
C49	C	1.244368	-0.464414	-1.029714
C50	C	1.304599	-0.417871	-0.986065
C51	C	1.309966	-0.413665	-0.892156
C52	C	1.194884	-0.502545	-0.885555
C53	C	1.189511	-0.506748	-0.979462
C54	C	1.288039	-0.430717	-0.273819
C55	C	1.293853	-0.426277	-0.173879
H56	H	1.131623	-0.873102	-0.553554
Cl57	Cl	1.163294	-0.527132	-1.178510
H58	H	0.781945	-0.557270	-0.642500
Cl59	Cl	1.435158	-0.317017	-0.981439
H60	H	1.398753	-0.345268	-1.171135
Cl61	Cl	1.113800	-0.565257	-1.034344
Cl62	Cl	0.945437	-0.537562	-0.619740
Cl63	Cl	1.385681	-0.355153	-0.837283
Cl64	Cl	1.392752	-1.027176	-0.649061
H65	H	0.611592	-0.548776	-0.632674
Cl66	Cl	1.125906	-0.555758	-0.822375
H67	H	0.623578	-0.367895	-0.423723
H68	H	0.767743	-0.325069	-0.374260
H69	H	0.938122	-0.333563	-0.384081
H70	H	1.212520	-1.009398	-0.644380
Cl71	Cl	1.093400	-1.009200	-0.542492
Cl72	Cl	1.454518	-0.873643	-0.468751
Cl73	Cl	1.219336	-0.872823	-0.684002
Cl74	Cl	1.454564	-1.022789	-0.470095
H75	H	1.189340	-0.995821	-0.384255
Cl76	Cl	1.393785	-0.877549	-0.647521
Cl77	Cl	1.147813	-0.854846	-0.375873
Cl78	Cl	1.331304	-0.859824	-0.332339
H79	H	1.309659	-0.999182	-0.362945
