data_functionalizedCrystal
_audit_creation_method	'MofGen! by Chris Wilmer'
_symmetry_space_group_name_H-M	'P1'
_symmetry_Int_Tables_number	1
_symmetry_cell_setting	triclinic
loop_
_symmetry_equiv_pos_as_xyz
  x,y,z
_cell_length_a	14.395555
_cell_length_b	19.851628
_cell_length_c	14.395555
_cell_angle_alpha	90.005559
_cell_angle_beta	60.004396
_cell_angle_gamma	59.995078
loop_
_atom_site_label
_atom_site_type_symbol
_atom_site_fract_x
_atom_site_fract_y
_atom_site_fract_z
Zr1	Zr	1.016717	0.648931	-0.121791
O2	O	1.210528	0.541355	-0.270130
O3	O	0.822911	0.681915	-0.076317
O4	O	1.016702	0.681906	-0.270107
O5	O	1.016747	0.541365	0.076526
O6	O	1.016684	0.792768	-0.270089
O7	O	1.016737	0.541364	-0.076340
O8	O	0.670028	0.792784	0.076567
O9	O	1.363403	0.541349	-0.270130
O10	O	0.902611	0.778710	-0.056908
O11	O	0.902632	0.695975	0.057160
O12	O	1.130795	0.695964	-0.171004
O13	O	1.130816	0.613230	-0.056936
Zr14	Zr	1.016704	0.825743	0.122042
Zr15	Zr	1.016688	0.825743	-0.121761
Zr16	Zr	1.016733	0.648932	0.122013
Zr17	Zr	1.260535	0.648920	-0.121790
Zr18	Zr	0.772886	0.825754	0.122042
O19	O	1.210509	0.792760	0.076568
O20	O	1.210487	0.792759	-0.270088
O21	O	1.210550	0.541356	0.076526
O22	O	0.822893	0.933319	0.270382
O23	O	0.822871	0.933319	-0.076275
O24	O	0.822934	0.681915	0.270340
O25	O	1.016674	0.933310	-0.076274
O26	O	1.016719	0.792769	0.270359
O27	O	1.016737	0.681907	0.270340
O28	O	1.016684	0.933310	0.076592
O29	O	1.363380	0.681890	-0.270107
O30	O	0.670041	0.792784	0.270358
O31	O	0.670018	0.933326	0.270382
O32	O	0.670005	0.933326	0.076591
O33	O	1.363416	0.541349	-0.076339
O34	O	1.363393	0.681891	-0.076315
O35	O	0.902626	0.778710	0.171256
O36	O	0.902605	0.861445	0.057187
O37	O	1.130789	0.778699	-0.056908
O38	O	1.130810	0.695965	0.057160
C39	C	0.711731	0.737351	0.000125
C40	C	0.608224	0.737356	0.000125
C41	C	0.485727	0.782448	-0.062072
C42	C	0.623864	0.704663	-0.107177
C43	C	0.471498	0.815126	0.045178
C44	C	0.562034	0.659488	-0.045041
C45	C	0.409594	0.770007	0.107374
C46	C	0.547721	0.692176	0.062296
C47	C	1.016746	0.516173	0.000089
C48	C	1.016758	0.441111	0.000076
C49	C	1.141145	0.214650	-0.062095
C50	C	1.078948	0.192292	-0.107172
C51	C	1.016724	0.303705	0.000109
C52	C	1.078929	0.192323	0.045164
C53	C	1.016701	0.170973	0.000140
C54	C	0.954527	0.282335	-0.045030
C55	C	0.954526	0.282364	0.107365
C56	C	0.892238	0.260058	0.062316
C57	C	1.016742	0.380167	0.000088
C58	C	1.016674	0.094516	0.000158
C59	C	1.321690	0.737324	0.000127
C60	C	1.425197	0.737319	0.000127
C61	C	1.016691	0.737337	-0.304835
C62	C	1.016684	0.737337	-0.408336
C63	C	1.016675	0.958502	0.000163
C64	C	1.016663	1.033563	0.000176
C65	C	0.892291	0.782456	-0.468636
C66	C	0.954447	0.815155	-0.437758
C67	C	0.954496	0.704676	-0.437823
C68	C	1.078894	0.770081	-0.561898
C69	C	1.078925	0.659560	-0.561960
C70	C	1.141172	0.692238	-0.531154
C71	C	1.016730	0.737338	0.305087
C72	C	1.016737	0.737338	0.408587
C73	C	0.711695	0.958516	0.000162
C74	C	0.608176	1.033581	0.000175
C75	C	0.711751	0.737351	0.305086
C76	C	0.608250	0.737356	0.408586
C77	C	0.711715	0.958516	0.305123
C78	C	0.608202	1.033582	0.408636
C79	C	1.321706	0.516159	-0.304871
C80	C	1.425219	0.441092	-0.408384
C81	C	1.321726	0.516159	0.000090
C82	C	1.425245	0.441093	0.000077
C83	C	1.321670	0.737323	-0.304834
C84	C	1.425171	0.737318	-0.408335
C85	C	0.559565	1.025646	-0.059387
C86	C	0.462311	1.096172	-0.059398
C87	C	0.413663	1.174632	0.000160
C88	C	0.462283	1.182565	0.059723
C89	C	0.559542	1.112041	0.059727
C90	C	0.559580	1.112028	0.397705
C91	C	0.462333	1.182567	0.494957
C92	C	0.413702	1.174659	0.603140
C93	C	0.462333	1.096205	0.614069
C94	C	0.559585	1.025667	0.516818
C95	C	1.473852	0.362647	-0.397453
C96	C	1.571130	0.292107	-0.494705
C97	C	1.619766	0.300016	-0.602888
C98	C	1.571129	0.378470	-0.613817
C99	C	1.473860	0.449007	-0.516566
C100	C	1.473866	0.449028	0.059628
C101	C	1.571147	0.378503	0.059613
C102	C	1.619799	0.300043	0.000052
C103	C	1.571174	0.292109	-0.059507
C104	C	1.473901	0.362634	-0.059497
C105	C	0.547670	0.692247	0.406964
C106	C	0.409557	0.770051	0.499994
C107	C	0.561913	0.659588	0.499983
C108	C	0.471437	0.815206	0.500253
C109	C	0.623867	0.704687	0.500228
C110	C	0.485764	0.782537	0.593275
H111	H	0.317958	0.797662	0.198054
H112	H	0.317929	0.797697	0.500925
Br113	Br	1.316486	0.183894	-0.149889
Br114	Br	0.776632	0.658580	0.498600
H115	H	0.599449	0.593672	-0.083252
H116	H	1.434261	0.512908	0.108137
H117	H	0.434050	0.881014	0.499439
H118	H	0.599160	0.961796	0.525734
Br119	Br	0.409461	0.924770	0.108684
H120	H	0.334467	1.232051	0.000148
Br121	Br	1.166582	0.127601	-0.258330
H122	H	1.131484	0.593798	-0.615477
H123	H	1.699004	0.242624	0.000053
Br124	Br	0.625565	1.122784	0.250897
Br125	Br	0.396351	1.289030	0.480098
Br126	Br	1.407864	0.351891	-0.250646
H127	H	1.610721	0.384978	0.108117
H128	H	0.458732	0.820747	0.672908
Br129	Br	1.166481	0.816248	-0.650797
Br130	Br	0.866811	0.658635	-0.348674
Br131	Br	1.637212	0.185621	-0.140331
Br132	Br	0.866972	0.346815	-0.108727
Br133	Br	0.716799	0.290991	0.149920
Br134	Br	1.316635	0.628659	-0.573845
H135	H	1.434317	0.356162	-0.107987
H136	H	1.434263	0.512880	-0.525480
H137	H	0.901990	0.321174	0.198039
H138	H	0.599173	0.961767	-0.107899
Br139	Br	1.751777	0.204277	-0.734862
H140	H	1.131543	0.153519	0.083256
Br141	Br	0.716968	0.846121	-0.426294
Br142	Br	0.281714	1.270398	0.735114
Br143	Br	0.592188	0.628611	0.150295
Br144	Br	0.592824	0.628753	0.274021
H145	H	0.422736	1.089696	-0.107901
Br146	Br	0.440510	0.845928	-0.149836
Br147	Br	0.776556	0.658592	-0.258352
H148	H	0.901842	0.880931	-0.384239
Br149	Br	0.396243	1.289053	0.140549
H150	H	0.599108	1.118513	0.108235
H151	H	0.422723	1.089778	0.702164
H152	H	1.610714	0.228234	-0.485784
Br153	Br	0.623966	0.549948	0.501459
Br154	Br	1.637147	0.389189	-0.760646
