data_functionalizedCrystal
_audit_creation_method	'MofGen! by Chris Wilmer'
_symmetry_space_group_name_H-M	'P1'
_symmetry_Int_Tables_number	1
_symmetry_cell_setting	triclinic
loop_
_symmetry_equiv_pos_as_xyz
  x,y,z
_cell_length_a	12.837943
_cell_length_b	8.140239
_cell_length_c	9.065218
_cell_angle_alpha	89.998314
_cell_angle_beta	89.922413
_cell_angle_gamma	89.998362
loop_
_atom_site_label
_atom_site_type_symbol
_atom_site_fract_x
_atom_site_fract_y
_atom_site_fract_z
O1	O	1.379057	-0.136571	0.384028
O2	O	1.077073	-0.136582	0.365058
O3	O	1.234307	-0.136573	0.160660
O4	O	1.221823	-0.136580	0.588427
O5	O	1.234298	0.136654	0.160656
O6	O	1.077064	0.136646	0.365054
O7	O	1.379048	0.136656	0.384025
Zn8	Zn	1.228055	0.180031	0.374539
Zn9	Zn	1.228067	-0.179957	0.374544
O10	O	1.221814	0.136647	0.588423
C11	C	1.038388	0.000031	0.358647
C12	C	0.923132	0.000027	0.339534
N13	N	1.228055	0.425714	0.374536
N14	N	1.228075	-0.425640	0.374536
C15	C	0.684331	0.000046	0.569311
C16	C	0.576036	0.000044	0.551359
C17	C	0.598246	0.000031	0.285680
C18	C	0.706541	0.000033	0.303632
C19	C	0.749579	0.000038	0.445452
C20	C	0.857875	0.000029	0.463402
C21	C	0.880083	0.000028	0.197725
C22	C	0.771789	0.000025	0.179773
C23	C	1.417733	0.000040	0.390435
C24	C	1.532990	0.000033	0.409548
C25	C	1.233103	0.000038	0.105525
C26	C	1.229515	0.000030	-0.058754
C27	C	1.223019	0.000033	0.643557
C28	C	1.226606	0.000030	0.807836
H29	H	0.719372	0.000048	0.684786
H30	H	0.736732	0.000040	0.064307
H31	H	0.522914	0.000054	0.652219
H32	H	0.933220	0.000011	0.096870
C33	C	0.905222	0.000038	0.619398
C34	C	0.976617	0.141918	0.668260
C35	C	1.023961	0.141931	0.824259
C36	C	0.999909	0.000064	0.931395
C37	C	0.928510	-0.141828	0.882535
C38	C	0.881166	-0.141841	0.726536
H39	H	0.994425	0.246947	0.588950
H40	H	1.076815	0.246969	0.860428
H41	H	1.034955	0.000073	1.046875
H42	H	0.910702	-0.246856	0.961846
H43	H	0.828312	-0.246879	0.690367
H44	H	0.563185	0.000162	0.170217
