data_functionalizedCrystal
_audit_creation_method	'MofGen! by Chris Wilmer'
_symmetry_space_group_name_H-M	'P1'
_symmetry_Int_Tables_number	1
_symmetry_cell_setting	triclinic
loop_
_symmetry_equiv_pos_as_xyz
  x,y,z
_cell_length_a	15.298068
_cell_length_b	16.120444
_cell_length_c	15.296720
_cell_angle_alpha	78.012939
_cell_angle_beta	91.645182
_cell_angle_gamma	103.030534
loop_
_atom_site_label
_atom_site_type_symbol
_atom_site_fract_x
_atom_site_fract_y
_atom_site_fract_z
Zn1	Zn	1.237592	-0.252309	0.738455
Zn2	Zn	1.255727	-0.366217	0.596994
Zn3	Zn	1.116987	-0.244068	0.566260
Zn4	Zn	1.080981	-0.413764	0.720107
O5	O	1.172822	-0.319089	0.655454
O6	O	1.363602	-0.250969	0.740231
O7	O	1.259981	-0.326666	0.469329
O8	O	1.140465	-0.126471	0.583918
O9	O	1.376926	-0.334657	0.636300
O10	O	1.229073	-0.132526	0.710430
O11	O	1.158050	-0.236923	0.446749
O12	O	0.988606	-0.283028	0.566127
O13	O	1.079097	-0.415695	0.846129
O14	O	0.962152	-0.407704	0.679158
O15	O	1.194159	-0.297074	0.859609
O16	O	1.225067	-0.491214	0.618508
O17	O	1.096682	-0.526147	0.708959
C18	C	0.943329	-0.349632	0.617317
C19	C	0.845147	-0.362722	0.601024
C20	C	0.540553	-0.225743	0.771916
C21	C	0.632800	-0.213447	0.787229
C22	C	0.685891	-0.250764	0.740679
C23	C	0.646727	-0.300380	0.678813
C24	C	0.554470	-0.312683	0.663503
C25	C	0.699808	-0.337705	0.632266
C26	C	0.660643	-0.387321	0.570400
C27	C	0.568395	-0.399621	0.555093
C28	C	0.515304	-0.362303	0.601643
C29	C	0.792064	-0.325402	0.647576
C30	C	0.805981	-0.412342	0.539164
C31	C	0.713734	-0.424638	0.523850
C32	C	1.158956	-0.539456	0.665101
C33	C	1.153099	-0.633724	0.669271
C34	C	1.203384	-0.831001	0.634048
C35	C	1.142421	-0.806306	0.676897
C36	C	1.148364	-0.710272	0.672653
C37	C	1.197442	-0.927043	0.638291
C38	C	1.403210	-0.288429	0.693740
C39	C	1.501388	-0.275363	0.710056
C40	C	1.130589	-0.362607	0.885810
C41	C	1.112591	-0.381152	0.983974
C42	C	1.186762	-0.097863	0.645793
C43	C	1.192703	-0.003589	0.641675
C44	C	1.214945	-0.275673	0.426000
C45	C	1.233128	-0.256866	0.327854
C46	C	1.301493	-0.186394	1.288758
C47	C	1.318407	-0.168971	1.196529
C48	C	1.266955	-0.222015	1.143386
C49	C	1.198585	-0.292485	1.182481
C50	C	1.181673	-0.309913	1.274720
C51	C	1.147135	-0.345534	1.129348
C52	C	1.078765	-0.416004	1.168442
C53	C	1.061856	-0.433429	1.260673
C54	C	1.113309	-0.380386	1.313816
C55	C	1.164047	-0.328105	1.037108
C56	C	1.044227	-0.451624	1.023070
C57	C	1.027312	-0.469047	1.115299
H58	H	0.440187	-0.372319	0.589184
O59	O	1.283471	-0.204944	1.053802
C60	C	1.354862	-0.131384	1.030694
H61	H	1.360615	-0.090230	1.083743
H62	H	1.341551	-0.091083	0.963157
H63	H	1.420147	-0.153356	1.026496
H64	H	0.536509	-0.440029	0.504724
O65	O	0.675615	-0.472959	0.463884
C66	C	0.609601	-0.544395	0.507618
H67	H	0.624334	-0.559170	0.582017
H68	H	0.610322	-0.603704	0.478245
H69	H	0.540768	-0.528077	0.497959
H70	H	1.374076	-0.111596	1.164705
H71	H	0.971645	-0.526425	1.147143
O72	O	1.074898	-0.867093	0.724600
C73	C	1.079276	-0.859538	0.814894
H74	H	1.150493	-0.826524	0.830085
H75	H	1.060090	-0.927070	0.859772
H76	H	1.030788	-0.818913	0.827839
O77	O	1.270886	-0.770075	0.586486
C78	C	1.261867	-0.686371	0.592796
H79	H	1.189108	-0.688975	0.609825
H80	H	1.282073	-0.639362	0.526190
H81	H	1.307124	-0.663089	0.647473
H82	H	0.849207	-0.442734	0.501263
O83	O	1.230358	-0.259549	0.999158
C84	C	1.212257	-0.181850	1.014826
H85	H	1.137313	-0.191751	1.028263
H86	H	1.233630	-0.127468	0.953610
H87	H	1.251190	-0.163500	1.075271
H88	H	0.497317	-0.195370	0.809816
O89	O	0.994378	-0.503162	0.971381
C90	C	1.050995	-0.541185	0.928793
H91	H	1.122352	-0.499752	0.924798
H92	H	1.026194	-0.545081	0.858450
H93	H	1.050221	-0.609465	0.968693
O94	O	1.096874	-0.397465	1.403418
C95	C	1.108809	-0.481547	1.441561
H96	H	1.100383	-0.522372	1.388038
H97	H	1.056706	-0.513579	1.497306
H98	H	1.178986	-0.476680	1.470183
O99	O	0.995501	-0.501983	1.298561
C100	C	1.013626	-0.579687	1.282932
H101	H	1.059752	-0.564267	1.221686
H102	H	0.948062	-0.625605	1.270836
H103	H	1.047718	-0.612024	1.343636
O104	O	1.351361	-0.134942	1.340504
C105	C	1.321791	-0.165456	1.430298
H106	H	1.249562	-0.204679	1.432775
H107	H	1.325365	-0.107756	1.463584
H108	H	1.366533	-0.208604	1.467144
H109	H	0.823943	-0.285003	0.697947
H110	H	0.761003	-0.240747	0.753148
H111	H	0.664680	-0.173052	0.837604
