data_functionalizedCrystal
_audit_creation_method	'MofGen! by Chris Wilmer'
_symmetry_space_group_name_H-M	'P1'
_symmetry_Int_Tables_number	1
_symmetry_cell_setting	triclinic
loop_
_symmetry_equiv_pos_as_xyz
  x,y,z
_cell_length_a	14.044220
_cell_length_b	8.559649
_cell_length_c	7.681481
_cell_angle_alpha	94.904209
_cell_angle_beta	96.264921
_cell_angle_gamma	98.516229
loop_
_atom_site_label
_atom_site_type_symbol
_atom_site_fract_x
_atom_site_fract_y
_atom_site_fract_z
O1	O	1.239912	-0.367620	0.146229
O2	O	1.739912	0.132380	0.646229
O3	O	0.964948	-0.353858	0.146273
O4	O	1.464948	0.146142	0.646273
O5	O	1.126654	-0.131590	0.146245
O6	O	1.626654	0.368410	0.646245
O7	O	1.078206	-0.589888	0.146257
O8	O	1.578206	-0.089888	0.646257
O9	O	1.106695	-0.158909	-0.146609
O10	O	1.606695	0.341091	0.353391
O11	O	0.944989	-0.381177	-0.146581
O12	O	1.444989	0.118823	0.353419
O13	O	1.219953	-0.394939	-0.146626
O14	O	1.719953	0.105061	0.353374
Zn15	Zn	1.079302	-0.392396	-0.193100
Zn16	Zn	1.579302	0.107604	0.306900
Zn17	Zn	1.105599	-0.356402	0.192748
Zn18	Zn	1.605599	0.143598	0.692748
O19	O	1.058246	-0.617207	-0.146598
O20	O	1.558246	-0.117207	0.353402
C21	C	0.920093	-0.361495	-0.000148
C22	C	1.420093	0.138505	0.499852
C23	C	0.816176	-0.343529	-0.000131
C24	C	1.316176	0.156471	0.499869
N25	N	1.123547	-0.331825	0.456079
N26	N	1.623547	0.168175	0.956079
C27	C	1.120347	-0.086243	-0.000179
C28	C	1.620347	0.413757	0.499821
C29	C	1.131276	0.089580	-0.000171
C30	C	1.631276	0.589580	0.499829
C31	C	0.625902	-0.310691	-0.000166
C32	C	1.125902	0.189309	0.499834
C33	C	0.558994	-0.438098	-0.000171
C34	C	1.058994	0.061902	0.499829
C35	C	0.453120	-0.419826	-0.000190
C36	C	0.953120	0.080174	0.499810
C37	C	0.731787	-0.328960	-0.000146
C38	C	1.231787	0.171040	0.499854
C39	C	1.264809	-0.387302	-0.000201
C40	C	1.764809	0.112698	0.499799
C41	C	1.368726	-0.405267	-0.000206
C42	C	1.868726	0.094733	0.499794
C43	C	1.064554	-0.662554	-0.000169
C44	C	1.564554	-0.162554	0.499831
C45	C	1.053625	-0.838376	-0.000166
C46	C	1.553625	-0.338376	0.499834
N47	N	1.061362	-0.416960	-0.456431
N48	N	1.561362	0.083040	0.043569
H49	H	0.581227	-0.560897	-0.000159
H50	H	1.081227	-0.060897	0.499841
Br51	Br	0.928879	0.040244	-0.000156
Br52	Br	1.428879	0.540244	0.499844
Br53	Br	1.256026	0.210963	-0.000223
Br54	Br	1.756026	0.710963	0.499777
H55	H	0.997888	-0.503867	0.468383
H56	H	1.497888	-0.003867	0.968383
Br57	Br	0.588849	-0.106028	-0.000180
Br58	Br	1.088849	0.393972	0.499820
Br59	Br	1.229339	-0.186941	0.581396
Br60	Br	1.729339	0.313059	1.081396
