data_functionalizedCrystal
_audit_creation_method	'MofGen! by Chris Wilmer'
_symmetry_space_group_name_H-M	'P1'
_symmetry_Int_Tables_number	1
_symmetry_cell_setting	triclinic
loop_
_symmetry_equiv_pos_as_xyz
  x,y,z
_cell_length_a	19.077105
_cell_length_b	18.101390
_cell_length_c	19.077068
_cell_angle_alpha	87.736754
_cell_angle_beta	89.884684
_cell_angle_gamma	87.683335
loop_
_atom_site_label
_atom_site_type_symbol
_atom_site_fract_x
_atom_site_fract_y
_atom_site_fract_z
Zn1	Zn	1.062992	-0.477246	0.322945
Zn2	Zn	1.058178	-0.358162	0.440463
Zn3	Zn	0.945483	-0.348259	0.318249
Zn4	Zn	0.940727	-0.476801	0.435687
O5	O	1.001845	-0.415117	0.379336
O6	O	1.160685	-0.465780	0.342498
O7	O	1.043205	-0.253216	0.424284
O8	O	0.965076	-0.361411	0.220543
O9	O	1.157148	-0.378289	0.428838
O10	O	1.051409	-0.456178	0.223993
O11	O	0.960409	-0.245940	0.334495
O12	O	0.846521	-0.360980	0.329863
O13	O	0.956969	-0.580493	0.420698
O14	O	0.843026	-0.455419	0.416144
O15	O	1.046797	-0.580820	0.337867
O16	O	1.038593	-0.377858	0.538159
O17	O	0.952302	-0.465021	0.534650
C18	C	0.819277	-0.407077	0.371977
C19	C	0.741173	-0.403656	0.368845
C20	C	0.702676	-0.451147	0.412364
C21	C	0.629290	-0.447935	0.409412
C22	C	0.594402	-0.397229	0.362945
C23	C	0.632904	-0.349737	0.319422
C24	C	0.706290	-0.352952	0.322370
C25	C	0.375117	-0.382351	0.349299
C26	C	0.301726	-0.379138	0.346355
C27	C	0.298117	-0.477338	0.436345
C28	C	0.371503	-0.480545	0.439292
C29	C	0.410000	-0.433056	0.395766
N30	N	0.519389	-0.393944	0.359928
N31	N	0.485011	-0.436345	0.398780
C32	C	1.001889	-0.608278	0.379274
C33	C	1.001908	-0.690592	0.379247
C34	C	1.001948	-0.989683	0.379205
C35	C	1.058636	-0.958579	0.327288
C36	C	1.058474	-0.872945	0.327080
C37	C	1.001929	-0.841301	0.379226
C38	C	0.928710	-0.868308	0.356128
C39	C	0.929053	-0.953951	0.355736
C40	C	1.017821	-0.961936	0.454331
C41	C	1.019461	-0.876342	0.454018
C42	C	1.001913	-0.757441	0.379239
C43	C	1.001958	-1.073542	0.379190
C44	C	1.185125	-0.423189	0.386725
C45	C	1.263229	-0.426628	0.389873
C46	C	0.994428	-0.422483	0.561901
C47	C	0.991319	-0.425661	0.640006
C48	C	1.001843	-0.222707	0.379349
C49	C	1.001969	-0.140392	0.379183
C50	C	1.009310	-0.407740	0.196059
C51	C	1.012492	-0.404596	0.117957
C52	C	1.034820	-0.381814	0.678504
C53	C	1.031901	-0.384808	0.751892
C54	C	0.985475	-0.431647	0.786779
C55	C	0.941972	-0.475499	0.748276
C56	C	0.944896	-0.472508	0.674889
C57	C	0.971912	-0.445457	1.006067
C58	C	0.968990	-0.448443	1.079458
C59	C	1.058920	-0.357753	1.083070
C60	C	1.061837	-0.354763	1.009682
C61	C	1.018336	-0.398618	0.971185
N62	N	0.982488	-0.434707	0.861793
N63	N	1.021328	-0.395562	0.896172
H64	H	0.399904	-0.521834	0.477132
N65	N	0.900448	-0.517285	0.635562
N66	N	0.857314	-0.487553	0.592867
H67	H	0.825922	-0.519179	0.565092
H68	H	0.915248	-0.971038	0.300730
H69	H	0.885539	-0.974342	0.391743
H70	H	1.112861	-0.854858	0.341888
N71	N	0.921557	-0.496279	1.115099
N72	N	0.857044	-0.488126	1.104354
H73	H	0.823544	-0.521905	1.129527
H74	H	0.737633	-0.314284	0.286929
N75	N	1.127095	-0.988094	0.345683
N76	N	1.134907	-1.032400	0.397267
H77	H	1.183258	-1.053250	0.410261
H78	H	1.072622	-0.343670	0.650104
H79	H	1.067324	-0.349102	0.783235
H80	H	0.731077	-0.492435	0.450204
N81	N	0.965994	-0.987197	0.502919
N82	N	0.969148	-0.971003	0.565895
H83	H	0.932545	-0.988846	0.600207
H84	H	1.048203	-0.849692	0.271485
H85	H	0.273323	-0.337851	0.308508
H86	H	1.048511	-0.977356	0.272006
H87	H	1.073329	-0.859039	0.471380
N88	N	1.109261	-0.306912	0.974059
N89	N	1.148099	-0.267764	1.008442
H90	H	1.181591	-0.233966	0.983283
N91	N	0.911005	-0.837810	0.287857
N92	N	0.900936	-0.879747	0.238669
H93	H	0.888436	-0.858211	0.190449
N94	N	1.083462	-0.992887	0.479955
N95	N	1.138730	-0.980696	0.446929
H96	H	1.185092	-1.002554	0.465018
H97	H	0.406451	-0.343676	0.313862
N98	N	1.103346	-0.312963	1.122405
N99	N	1.100731	-0.315636	1.187927
H100	H	1.132110	-0.284002	1.215709
N101	N	0.874441	-0.842370	0.401925
N102	N	0.824768	-0.801888	0.378001
H103	H	0.786441	-0.783566	0.410345
H104	H	0.597948	-0.486606	0.444850
N105	N	0.971120	-0.849613	0.505446
N106	N	0.922742	-0.804102	0.487733
H107	H	0.888592	-0.785228	0.524052
H108	H	0.936491	-0.481164	0.974728
N109	N	0.894549	-0.523334	0.783922
N110	N	0.848154	-0.496936	0.823127
H111	H	0.814659	-0.530718	0.848303
N112	N	0.258783	-0.525838	0.480798
N113	N	0.193261	-0.522962	0.478163
H114	H	0.165480	-0.557218	0.509559
N115	N	0.597259	-0.297951	0.271955
N116	N	0.531736	-0.295086	0.269328
H117	H	0.506562	-0.258510	0.235805
