data_functionalizedCrystal
_audit_creation_method	'MofGen! by Chris Wilmer'
_symmetry_space_group_name_H-M	'P1'
_symmetry_Int_Tables_number	1
_symmetry_cell_setting	triclinic
loop_
_symmetry_equiv_pos_as_xyz
  x,y,z
_cell_length_a	15.296363
_cell_length_b	19.077142
_cell_length_c	19.076919
_cell_angle_alpha	90.074357
_cell_angle_beta	97.826470
_cell_angle_gamma	82.978136
loop_
_atom_site_label
_atom_site_type_symbol
_atom_site_fract_x
_atom_site_fract_y
_atom_site_fract_z
Zn1	Zn	-0.430587	-1.002616	0.380034
Zn2	Zn	0.069413	-0.502616	0.880034
Zn3	Zn	-0.573687	-0.988760	0.242448
Zn4	Zn	-0.073687	-0.488760	0.742448
Zn5	Zn	-0.418662	-0.891375	0.259497
Zn6	Zn	0.081338	-0.391375	0.759497
Zn7	Zn	-0.573148	-0.866652	0.355273
Zn8	Zn	-0.073148	-0.366652	0.855273
O9	O	-0.499021	-0.937351	0.309313
O10	O	0.000979	-0.437351	0.809313
O11	O	-0.454786	-1.098436	0.365011
O12	O	0.045214	-0.598436	0.865011
O13	O	-0.548358	-0.980390	0.147047
O14	O	-0.048358	-0.480390	0.647047
O15	O	-0.295704	-0.922277	0.292985
O16	O	0.204296	-0.422277	0.792985
O17	O	-0.559921	-1.088256	0.263927
O18	O	-0.059921	-0.588256	0.763927
O19	O	-0.304465	-1.004005	0.381543
O20	O	0.195535	-0.504005	0.881543
O21	O	-0.434462	-0.908842	0.159573
O22	O	0.065538	-0.408842	0.659573
O23	O	-0.433939	-0.790438	0.268974
O24	O	0.066061	-0.290438	0.768974
O25	O	-0.559002	-0.880140	0.456220
O26	O	-0.059002	-0.380140	0.956220
O27	O	-0.547439	-0.772274	0.339340
O28	O	-0.047439	-0.272274	0.839340
O29	O	-0.454263	-0.980032	0.474412
O30	O	0.045737	-0.480032	0.974412
O31	O	-0.698156	-0.956417	0.239917
O32	O	-0.198156	-0.456417	0.739917
O33	O	-0.697760	-0.866705	0.322808
O34	O	-0.197760	-0.366705	0.822808
C35	C	-0.489337	-0.756035	0.303320
C36	C	0.010663	-0.256035	0.803320
C37	C	-0.485216	-0.678463	0.300770
C38	C	0.014784	-0.178463	0.800770
C39	C	-0.730251	-0.907393	0.276841
C40	C	-0.230251	-0.407393	0.776841
C41	C	-0.829177	-0.894639	0.262975
C42	C	-0.329177	-0.394639	0.762975
C43	C	-0.542456	-0.632573	0.336126
C44	C	-0.042456	-0.132573	0.836126
C45	C	-0.538573	-0.559688	0.333734
C46	C	-0.038573	-0.059688	0.833734
C47	C	-0.477453	-0.532694	0.295983
C48	C	0.022547	-0.032694	0.795983
C49	C	-0.420207	-0.578589	0.260627
C50	C	0.079793	-0.078589	0.760627
C51	C	-0.424087	-0.651474	0.263023
C52	C	0.075913	-0.151474	0.763023
C53	C	-0.459500	-0.315727	0.284902
C54	C	0.040500	0.184273	0.784902
C55	C	-0.455627	-0.242837	0.282508
C56	C	0.044373	0.257163	0.782508
C57	C	-0.573991	-0.223941	0.355617
C58	C	-0.073991	0.276059	0.855617
C59	C	-0.577869	-0.296827	0.358005
C60	C	-0.077869	0.203173	0.858005
C61	C	-0.520620	-0.342716	0.322652
C62	C	-0.020620	0.157284	0.822652
N63	N	-0.473484	-0.458193	0.293536
N64	N	0.026516	0.041807	0.793536
N65	N	-0.524585	-0.417216	0.325104
N66	N	-0.024585	0.082784	0.825104
C67	C	-1.125984	-1.028785	0.408494
C68	C	-0.625984	-0.528785	0.908494
C69	C	-1.033038	-1.040773	0.421521
C70	C	-0.533038	-0.540773	0.921521
C71	C	-0.982068	-1.004240	0.381886
C72	C	-0.482068	-0.504240	0.881886
C73	C	-1.024053	-0.955719	0.329221
C74	C	-0.524053	-0.455719	0.829221
C75	C	-1.117008	-0.943734	0.316188
C76	C	-0.617008	-0.443734	0.816188
C77	C	-0.973093	-0.919189	0.289580
C78	C	-0.473093	-0.419189	0.789580
C79	C	-1.015078	-0.870667	0.236915
C80	C	-0.515078	-0.370667	0.736915
C81	C	-1.108023	-0.858685	0.223885
C82	C	-0.608023	-0.358685	0.723885
C83	C	-1.158993	-0.895217	0.263520
C84	C	-0.658993	-0.395217	0.763520
C85	C	-0.880138	-0.931174	0.302613
C86	C	-0.380138	-0.431174	0.802613
C87	C	-0.871162	-0.846122	0.210308
C88	C	-0.371162	-0.346122	0.710308
C89	C	-0.964108	-0.834135	0.197280
C90	C	-0.464108	-0.334135	0.697280
C91	C	-0.266889	-0.967444	0.341928
C92	C	0.233111	-0.467444	0.841928
C93	C	-0.167969	-0.980268	0.355826
C94	C	0.332031	-0.480268	0.855826
C95	C	-0.507902	-0.928874	0.491347
C96	C	-0.007902	-0.428874	0.991347
C97	C	-0.511687	-0.925261	0.568919
C98	C	-0.011687	-0.425261	1.068919
C99	C	-0.508738	-0.119376	0.315322
C100	C	-0.008738	0.380624	0.815322
C101	C	-0.512866	-0.196947	0.317863
C102	C	-0.012866	0.303053	0.817863
C103	C	-0.490112	-0.945844	0.127998
C104	C	0.009888	-0.445844	0.627998
C105	C	-0.486084	-0.949624	0.050466
C106	C	0.013916	-0.449624	0.550466
C107	C	-0.458936	-0.975570	0.614835
C108	C	0.041064	-0.475570	1.114835
C109	C	-0.462488	-0.972167	0.687722
C110	C	0.037512	-0.472167	1.187722
C111	C	-0.518797	-0.918459	0.714691
C112	C	-0.018797	-0.418459	1.214691
C113	C	-0.571550	-0.868145	0.668770
C114	C	-0.071550	-0.368145	1.168770
C115	C	-0.567993	-0.871545	0.595884
C116	C	-0.067993	-0.371545	1.095884
C117	C	-0.535280	-0.902710	0.931659
C118	C	-0.035280	-0.402710	1.431659
C119	C	-0.538835	-0.899315	1.004550
C120	C	-0.038835	-0.399315	1.504550
C121	C	-0.429771	-1.003337	1.023497
C122	C	0.070229	-0.503337	1.523497
C123	C	-0.426223	-1.006735	0.950609
C124	C	0.073777	-0.506735	1.450609
C125	C	-0.478972	-0.956419	0.904695
C126	C	0.021028	-0.456419	1.404695
N127	N	-0.522431	-0.914981	0.789193
N128	N	-0.022431	-0.414981	1.289193
N129	N	-0.475333	-0.959895	0.830195
N130	N	0.024667	-0.459895	1.330195
H131	H	-0.592229	-0.654546	0.366864
H132	H	-0.092229	-0.154546	0.866864
H133	H	-1.142204	-0.819181	0.180995
H134	H	-0.642204	-0.319181	0.680995
Cl135	Cl	-0.343365	-0.544654	0.213173
Cl136	Cl	0.156635	-0.044654	0.713173
H137	H	-0.405846	-0.220862	0.251772
H138	H	0.094154	0.279138	0.751772
Cl139	Cl	-0.827368	-0.992170	0.368820
Cl140	Cl	-0.327368	-0.492170	0.868820
Cl141	Cl	-0.363458	-1.066585	1.081222
Cl142	Cl	0.136542	-0.566585	1.581222
Cl143	Cl	-0.387527	-0.373408	0.240460
Cl144	Cl	0.112473	0.126592	0.740460
H145	H	-0.906388	-1.014004	0.392496
H146	H	-0.406388	-0.514004	0.892496
H147	H	-0.627641	-0.318800	0.388744
H148	H	-0.127641	0.181200	0.888744
Cl149	Cl	-1.190063	-1.074711	0.458309
Cl150	Cl	-0.690063	-0.574711	0.958309
H151	H	-0.419534	-1.013135	0.725104
H152	H	0.080466	-0.513135	1.225104
H153	H	-0.584691	-0.855577	1.026505
H154	H	-0.084691	-0.355577	1.526505
H155	H	-0.585184	-0.522327	0.362524
H156	H	-0.085184	-0.022327	0.862524
H157	H	-0.413086	-1.019307	0.592882
H158	H	0.086914	-0.519307	1.092882
Cl159	Cl	-1.016900	-0.773137	0.131075
Cl160	Cl	-0.516900	-0.273137	0.631075
H161	H	-0.829663	-0.816376	0.178032
H162	H	-0.329663	-0.316376	0.678032
Cl163	Cl	-0.352123	-0.709164	0.218576
Cl164	Cl	0.147877	-0.209164	0.718576
H165	H	-0.380373	-1.050472	0.928657
H166	H	0.119627	-0.550472	1.428657
Cl167	Cl	-0.601595	-0.839456	0.873947
Cl168	Cl	-0.101595	-0.339456	1.373947
Cl169	Cl	-0.634309	-0.808295	0.538161
Cl170	Cl	-0.134309	-0.308295	1.038161
Cl171	Cl	-0.645958	-0.166248	0.400057
Cl172	Cl	-0.145958	0.333752	0.900057
Cl173	Cl	-0.980264	-1.101768	0.487727
Cl174	Cl	-0.480264	-0.601768	0.987727
Cl175	Cl	-1.275844	-0.880256	0.247046
Cl176	Cl	-0.775844	-0.380256	0.747046
Cl177	Cl	-0.642336	-0.800623	0.702675
Cl178	Cl	-0.142336	-0.300623	1.202675
