data_functionalizedCrystal
_audit_creation_method	'MofGen! by Chris Wilmer'
_symmetry_space_group_name_H-M	'P1'
_symmetry_Int_Tables_number	1
_symmetry_cell_setting	triclinic
loop_
_symmetry_equiv_pos_as_xyz
  x,y,z
_cell_length_a	12.594517
_cell_length_b	12.594516
_cell_length_c	12.594509
_cell_angle_alpha	89.973801
_cell_angle_beta	90.021327
_cell_angle_gamma	89.984147
loop_
_atom_site_label
_atom_site_type_symbol
_atom_site_fract_x
_atom_site_fract_y
_atom_site_fract_z
Zn1	Zn	1.627267	0.423716	0.601875
Zn2	Zn	1.627158	0.601726	0.423903
Zn3	Zn	1.449271	0.423761	0.423904
Zn4	Zn	1.449253	0.601652	0.601833
O5	O	1.538237	0.512714	0.512879
O6	O	1.776198	0.447341	0.578284
O7	O	1.603522	0.578169	0.274957
O8	O	1.472936	0.274809	0.447530
O9	O	1.776118	0.578124	0.447528
O10	O	1.603709	0.274776	0.578285
O11	O	1.472830	0.447419	0.274958
O12	O	1.300323	0.447347	0.447489
O13	O	1.472905	0.577998	0.750784
O14	O	1.300310	0.578042	0.578213
O15	O	1.603691	0.447269	0.750815
O16	O	1.603505	0.750662	0.447488
O17	O	1.472799	0.750608	0.578212
C18	C	1.261696	0.512692	0.512847
C19	C	1.143391	0.512709	0.512859
C20	C	1.538167	0.789255	0.512868
C21	C	1.538235	0.907560	0.512899
C22	C	1.074114	0.441526	0.441894
C23	C	1.003303	0.538615	0.415718
C24	C	1.003403	0.415668	0.539054
C25	C	1.074138	0.609849	0.486632
C26	C	1.074244	0.486836	0.610013
C27	C	1.003465	0.583991	0.583874
C28	C	1.538308	0.512620	0.790500
C29	C	1.538339	0.512581	0.908805
C30	C	1.815858	0.512736	0.512911
C31	C	1.934163	0.512745	0.512924
C32	C	1.538336	0.235093	0.512912
C33	C	1.538378	0.116787	0.512927
C34	C	1.467137	0.976822	0.583950
C35	C	1.441204	1.047688	0.486827
C36	C	1.564265	1.047494	0.610039
C37	C	1.512250	0.976867	0.415725
C38	C	1.635357	0.976667	0.539002
C39	C	1.609460	1.047500	0.441812
C40	C	1.538227	0.512730	0.236338
C41	C	1.538403	0.512470	0.118033
C42	C	1.467227	0.583644	0.978042
C43	C	1.564347	0.609650	1.048833
C44	C	1.441294	0.486510	1.048813
C45	C	1.635510	0.538638	0.978038
C46	C	1.512391	0.415453	0.978012
C47	C	1.609579	0.441422	1.048772
H48	H	1.105135	0.381389	0.381807
C49	C	1.115928	0.720764	0.456605
H50	H	1.191358	0.720065	0.456729
H51	H	1.091173	0.771378	0.506721
H52	H	1.091049	0.739266	0.387822
H53	H	1.717406	0.945451	0.561104
C54	C	0.961200	0.568208	0.304769
H55	H	0.985381	0.517551	0.254404
H56	H	0.986458	0.636668	0.285694
H57	H	0.885778	0.568636	0.305759
C58	C	0.961809	0.665421	0.664979
H59	H	0.986160	0.734305	0.646220
H60	H	0.987172	0.647617	0.733762
H61	H	0.886384	0.664589	0.664970
C62	C	1.593936	1.089403	0.720998
H63	H	1.543299	1.065189	0.771379
H64	H	1.594413	1.164820	0.720060
H65	H	1.662394	1.064030	0.740017
C66	C	1.386053	0.664947	0.936078
H67	H	1.404690	0.733887	0.960329
H68	H	1.317267	0.647143	0.961351
H69	H	1.386144	0.663983	0.860655
H70	H	1.669647	1.078338	0.381669
C71	C	1.594041	0.720542	1.090868
H72	H	1.543424	0.770993	1.066657
H73	H	1.662514	0.739515	1.065595
H74	H	1.594477	0.719535	1.166290
H75	H	1.717631	0.560736	0.947080
C76	C	1.690944	0.360178	1.090474
H77	H	1.759842	0.378833	1.066109
H78	H	1.673078	0.291429	1.065153
H79	H	1.690123	0.360172	1.165899
H80	H	1.359198	0.464506	1.079902
C81	C	1.116381	0.457203	0.720931
H82	H	1.092207	0.388182	0.739416
H83	H	1.091141	0.507075	0.771547
H84	H	1.191803	0.458042	0.720251
C85	C	0.961432	0.304786	0.568956
H86	H	0.985635	0.254289	0.518441
H87	H	0.886016	0.305747	0.569403
H88	H	0.986777	0.285906	0.637466
H89	H	1.359136	1.078906	0.464772
H90	H	1.490197	0.945972	0.333563
H91	H	1.490382	0.333385	0.946881
C92	C	1.385775	0.934886	0.664999
H93	H	1.316851	0.959208	0.646284
H94	H	1.403538	0.960106	0.733820
H95	H	1.386729	0.859462	0.664874
