data_functionalizedCrystal
_audit_creation_method	'MofGen! by Chris Wilmer'
_symmetry_space_group_name_H-M	'P1'
_symmetry_Int_Tables_number	1
_symmetry_cell_setting	triclinic
loop_
_symmetry_equiv_pos_as_xyz
  x,y,z
_cell_length_a	25.639242
_cell_length_b	25.639240
_cell_length_c	12.759393
_cell_angle_alpha	89.955560
_cell_angle_beta	89.970662
_cell_angle_gamma	90.028283
loop_
_atom_site_label
_atom_site_type_symbol
_atom_site_fract_x
_atom_site_fract_y
_atom_site_fract_z
Zn1	Zn	0.799284	-0.208181	-0.594224
Zn2	Zn	0.799205	-0.295628	-0.418505
Zn3	Zn	0.711849	-0.208202	-0.418527
Zn4	Zn	0.711814	-0.295581	-0.594110
O5	O	0.755538	-0.251898	-0.506341
O6	O	0.872438	-0.219793	-0.570953
O7	O	0.787599	-0.284060	-0.271487
O8	O	0.723495	-0.135034	-0.441890
O9	O	0.872381	-0.284040	-0.441853
O10	O	0.787733	-0.135019	-0.570974
O11	O	0.723419	-0.219828	-0.271503
O12	O	0.638679	-0.219782	-0.441780
O13	O	0.723435	-0.283958	-0.741146
O14	O	0.638654	-0.283978	-0.570780
O15	O	0.787699	-0.219746	-0.741230
O16	O	0.787565	-0.368787	-0.441743
O17	O	0.723359	-0.368752	-0.570759
C18	C	0.619695	-0.251877	-0.506270
C19	C	0.561581	-0.251881	-0.506265
C20	C	0.201214	-0.285381	-0.573448
C21	C	0.146610	-0.285384	-0.573465
O22	O	0.118369	-0.313842	-0.630526
N23	N	0.119299	-0.251912	-0.506410
C24	C	0.146595	-0.218431	-0.439342
O25	O	0.118352	-0.189961	-0.382309
C26	C	0.201199	-0.218426	-0.439331
C27	C	0.228507	-0.251904	-0.506383
C28	C	0.228522	-0.318856	-0.640495
C29	C	0.283122	-0.318853	-0.640477
C30	C	0.310415	-0.285376	-0.573412
C31	C	0.283107	-0.251901	-0.506365
C32	C	0.228494	-0.184942	-0.372269
C33	C	0.283101	-0.184940	-0.372265
C34	C	0.310409	-0.218418	-0.439317
C35	C	0.365000	-0.218421	-0.439281
N36	N	0.392311	-0.251893	-0.506336
C37	C	0.365018	-0.285370	-0.573401
C38	C	0.031925	-0.218445	-0.439370
C39	C	-0.022678	-0.218452	-0.439375
C40	C	-0.022660	-0.285405	-0.573499
C41	C	0.031944	-0.285399	-0.573489
C42	C	0.059235	-0.251917	-0.506425
C43	C	0.479683	-0.285363	-0.573357
C44	C	0.534289	-0.285359	-0.573330
C45	C	0.534266	-0.218404	-0.439210
C46	C	0.479665	-0.218410	-0.439233
C47	C	0.452375	-0.251891	-0.506315
O48	O	0.393276	-0.189977	-0.382252
O49	O	0.393269	-0.313831	-0.630435
C50	C	0.755464	-0.387741	-0.506259
C51	C	0.755480	-0.445855	-0.506259
C52	C	0.789003	-0.806171	-0.573677
C53	C	0.789019	-0.860776	-0.573698
O54	O	0.817433	-0.888973	-0.630934
N55	N	0.755611	-0.888137	-0.506443
C56	C	0.722181	-0.860891	-0.439170
O57	O	0.693766	-0.889178	-0.381967
C58	C	0.722163	-0.806288	-0.439154
C59	C	0.755577	-0.778929	-0.506406
C60	C	0.822414	-0.778813	-0.640924
C61	C	0.822399	-0.724212	-0.640901
C62	C	0.788974	-0.696970	-0.573631
C63	C	0.755563	-0.724329	-0.506383
C64	C	0.688732	-0.779043	-0.371887
C65	C	0.688717	-0.724436	-0.371878
C66	C	0.722131	-0.697078	-0.439130
C67	C	0.722122	-0.642486	-0.439090
N68	N	0.755530	-0.615125	-0.506345
C69	C	0.788956	-0.642367	-0.573615
C70	C	0.722220	-0.975562	-0.439208
C71	C	0.722240	-1.030164	-0.439217
C72	C	0.789077	-1.030045	-0.573747
C73	C	0.789059	-0.975441	-0.573732
C74	C	0.755628	-0.948200	-0.506463
C75	C	0.788922	-0.527702	-0.573561
C76	C	0.788906	-0.473096	-0.573529
C77	C	0.722067	-0.473221	-0.439004
C78	C	0.722085	-0.527821	-0.439031
C79	C	0.755515	-0.555061	-0.506319
O80	O	0.693720	-0.614254	-0.381886
O81	O	0.817361	-0.614073	-0.630819
C82	C	0.891911	-0.251919	-0.506414
C83	C	0.950025	-0.251928	-0.506444
C84	C	0.755572	-0.251845	-0.780375
C85	C	0.755586	-0.251822	-0.897152
C86	C	0.755626	-0.115525	-0.506447
C87	C	0.755664	-0.057411	-0.506492
C88	C	0.722182	-0.218370	-0.952028
C89	C	0.722198	-0.218355	-1.061752
C90	C	0.789027	-0.285244	-1.061714
C91	C	0.789008	-0.285262	-0.951992
C92	C	0.683600	-0.179751	-0.952051
C93	C	0.683616	-0.179735	-1.061775
C94	C	0.755534	-0.251913	-0.233374
C95	C	0.755621	-0.251789	-0.116598
H96	H	-0.044891	-0.312662	-0.628111
H97	H	0.556520	-0.312622	-0.627932
H98	H	0.457470	-0.312625	-0.627984
H99	H	0.645144	-0.194227	-1.095778
C100	C	0.703221	-0.127800	-0.906117
C101	C	0.720054	-0.083266	-0.979803
C102	C	0.739677	-0.031317	-0.933868
C103	C	0.742468	-0.023901	-0.814247
C104	C	0.725634	-0.068436	-0.740553
C105	C	0.706011	-0.120386	-0.786489
H106	H	0.717989	-0.088755	-1.068360
H107	H	0.752139	0.001651	-0.988421
H108	H	0.756994	0.014556	-0.780243
H109	H	0.727699	-0.062947	-0.651996
H110	H	0.693550	-0.153353	-0.731935
C111	C	0.628882	-0.194399	-0.911781
C112	C	0.621518	-0.243001	-0.842340
C113	C	0.566801	-0.257648	-0.802069
C114	C	0.519449	-0.223694	-0.831239
C115	C	0.526812	-0.175089	-0.900683
C116	C	0.581528	-0.160441	-0.940955
H117	H	0.656572	-0.268139	-0.820743
H118	H	0.561351	-0.293629	-0.750661
H119	H	0.478945	-0.234537	-0.801428
H120	H	0.491758	-0.149951	-0.922280
H121	H	0.586978	-0.124460	-0.992362
H122	H	0.816202	-0.312509	-0.907316
C123	C	0.698314	-0.125031	-1.102074
C124	C	0.746921	-0.117714	-1.171498
C125	C	0.761619	-0.063012	-1.211799
C126	C	0.727709	-0.015628	-1.182675
C127	C	0.679099	-0.022943	-1.113248
C128	C	0.664401	-0.077645	-1.072947
H129	H	0.772026	-0.152792	-1.193060
H130	H	0.797604	-0.057597	-1.263194
H131	H	0.738589	0.024866	-1.212508
H132	H	0.653994	0.012135	-1.091685
H133	H	0.628416	-0.083060	-1.021552
H134	H	0.816118	-0.450823	-0.628294
C135	C	0.685337	-0.557922	-0.365046
C136	C	0.689639	-0.550472	-0.245615
C137	C	0.652888	-0.580569	-0.171635
C138	C	0.611836	-0.618116	-0.217084
C139	C	0.607533	-0.625568	-0.336521
C140	C	0.644284	-0.595471	-0.410501
H141	H	0.720029	-0.522675	-0.211965
H142	H	0.656074	-0.575052	-0.083220
H143	H	0.584631	-0.640395	-0.162320
H144	H	0.577142	-0.653364	-0.370171
H145	H	0.641098	-0.600987	-0.498916
C146	C	0.825791	-0.322024	-1.122044
C147	C	0.803117	-0.363055	-1.197428
C148	C	0.839881	-0.399836	-1.257757
C149	C	0.899319	-0.395585	-1.242702
C150	C	0.921997	-0.354552	-1.167314
C151	C	0.885232	-0.317772	-1.106986
H152	H	0.759114	-0.366204	-1.208576
H153	H	0.823094	-0.430211	-1.313563
H154	H	0.926535	-0.422812	-1.287360
H155	H	0.965999	-0.351404	-1.156167
H156	H	0.902020	-0.287396	-1.051179
C157	C	0.061979	-0.322222	-0.647253
C158	C	0.099549	-0.299612	-0.729826
C159	C	0.129581	-0.336435	-0.803596
C160	C	0.122044	-0.395868	-0.794794
C161	C	0.084473	-0.418481	-0.712218
C162	C	0.054441	-0.381658	-0.638448
H163	H	0.105130	-0.255614	-0.736345
H164	H	0.157394	-0.319695	-0.864724
H165	H	0.144276	-0.423127	-0.849403
H166	H	0.078892	-0.462479	-0.705699
H167	H	0.026628	-0.398398	-0.577320
H168	H	0.305351	-0.346113	-0.695080
C169	C	0.449619	-0.181584	-0.365486
C170	C	0.457161	-0.122153	-0.374309
C171	C	0.427117	-0.085320	-0.300576
C172	C	0.389532	-0.107919	-0.218021
C173	C	0.381989	-0.167354	-0.209194
C174	C	0.412032	-0.204186	-0.282927
H175	H	0.484985	-0.105421	-0.435425
H176	H	0.432701	-0.041322	-0.307111
H177	H	0.367291	-0.080653	-0.163439
H178	H	0.354164	-0.184086	-0.148078
H179	H	0.406448	-0.248184	-0.276392
H180	H	0.694854	-0.451032	-0.384230
C181	C	0.825812	-0.945350	-0.647717
C182	C	0.803123	-0.907795	-0.730149
C183	C	0.839876	-0.877707	-0.804139
C184	C	0.899318	-0.885173	-0.795697
C185	C	0.922010	-0.922730	-0.713261
C186	C	0.885257	-0.952818	-0.639271
H187	H	0.759118	-0.902266	-0.736401
H188	H	0.823078	-0.849905	-0.865163
H189	H	0.926525	-0.862900	-0.850469
H190	H	0.966015	-0.928258	-0.707009
H191	H	0.902055	-0.980620	-0.578247
H192	H	0.206306	-0.346117	-0.695114
C193	C	0.061943	-0.181618	-0.365579
C194	C	0.054456	-0.122186	-0.374373
C195	C	0.084470	-0.085359	-0.300582
C196	C	0.121971	-0.107964	-0.217997
C197	C	0.129459	-0.167399	-0.209198
C198	C	0.099445	-0.204225	-0.282989
H199	H	0.026694	-0.105450	-0.435511
H200	H	0.078927	-0.041362	-0.307096
H201	H	0.144189	-0.080703	-0.163372
H202	H	0.157221	-0.184135	-0.148060
H203	H	0.104989	-0.248223	-0.276476
C204	C	0.825843	-1.060019	-0.647754
C205	C	0.821539	-1.052463	-0.767179
C206	C	0.858302	-1.082438	-0.841179
C207	C	0.899370	-1.119970	-0.795754
C208	C	0.903676	-1.127528	-0.676323
C209	C	0.866913	-1.097552	-0.602323
H210	H	0.791136	-1.024678	-0.800811
H211	H	0.855114	-1.076844	-0.929590
H212	H	0.926585	-1.142160	-0.850534
H213	H	0.934079	-1.155312	-0.642691
H214	H	0.870101	-1.103147	-0.513912
H215	H	-0.044907	-0.191196	-0.384764
H216	H	0.206270	-0.157683	-0.317666
H217	H	0.849633	-0.800987	-0.695710
C218	C	0.685488	-1.060255	-0.365230
C219	C	0.708173	-1.097813	-0.282801
C220	C	0.671417	-1.127901	-0.208816
C221	C	0.611975	-1.120430	-0.217260
C222	C	0.589287	-1.082870	-0.299693
C223	C	0.626043	-1.052782	-0.373678
H224	H	0.752178	-1.103345	-0.276547
H225	H	0.688212	-1.155705	-0.147794
H226	H	0.584766	-1.142703	-0.162492
H227	H	0.545282	-1.077338	-0.305947
H228	H	0.609248	-1.024977	-0.434700
H229	H	0.556498	-0.191150	-0.384604
H230	H	0.694998	-0.953385	-0.384421
C231	C	0.651968	-0.809126	-0.297918
C232	C	0.656252	-0.801664	-0.178488
C233	C	0.619482	-0.831744	-0.104518
C234	C	0.578428	-0.869286	-0.149978
C235	C	0.574142	-0.876750	-0.269414
C236	C	0.610912	-0.846670	-0.343384
H237	H	0.686644	-0.773872	-0.144831
H238	H	0.622655	-0.826219	-0.016104
H239	H	0.551209	-0.891553	-0.095221
H240	H	0.543750	-0.904542	-0.303071
H241	H	0.607739	-0.852195	-0.431798
C242	C	0.825697	-0.557660	-0.647572
C243	C	0.866771	-0.595186	-0.602153
C244	C	0.903547	-0.625145	-0.676156
C245	C	0.899249	-0.617576	-0.795579
C246	C	0.858173	-0.580048	-0.841005
C247	C	0.821397	-0.550090	-0.767001
H248	H	0.869954	-0.600790	-0.513743
H249	H	0.933954	-0.652925	-0.642529
H250	H	0.926473	-0.639753	-0.850361
H251	H	0.854990	-0.574444	-0.929414
H252	H	0.790990	-0.522309	-0.800628
H253	H	0.305319	-0.157670	-0.317659
H254	H	0.661491	-0.702259	-0.317101
H255	H	0.849606	-0.701940	-0.695666
