data_functionalizedCrystal
_audit_creation_method	'MofGen! by Chris Wilmer'
_symmetry_space_group_name_H-M	'P1'
_symmetry_Int_Tables_number	1
_symmetry_cell_setting	triclinic
loop_
_symmetry_equiv_pos_as_xyz
  x,y,z
_cell_length_a	15.944551
_cell_length_b	27.731996
_cell_length_c	26.210047
_cell_angle_alpha	90.025731
_cell_angle_beta	90.016388
_cell_angle_gamma	83.060063
loop_
_atom_site_label
_atom_site_type_symbol
_atom_site_fract_x
_atom_site_fract_y
_atom_site_fract_z
O1	O	1.113707	0.062351	0.042383
O2	O	1.613707	0.562351	0.542383
O3	O	0.869054	0.070037	0.042396
O4	O	1.369054	0.570037	0.542396
O5	O	0.999001	-0.004171	0.042378
O6	O	1.499001	0.495829	0.542378
O7	O	0.983759	0.136560	0.042401
O8	O	1.483759	0.636560	0.542401
O9	O	0.998954	-0.004192	-0.042480
O10	O	1.498954	0.495808	0.457520
O11	O	0.869007	0.070016	-0.042462
O12	O	1.369007	0.570016	0.457538
O13	O	1.113660	0.062330	-0.042475
O14	O	1.613660	0.562330	0.457525
Cu15	Cu	0.991329	0.066171	-0.050217
Cu16	Cu	1.491329	0.566171	0.449783
Cu17	Cu	0.991385	0.066196	0.050138
Cu18	Cu	1.491385	0.566196	0.550138
O19	O	0.983712	0.136539	-0.042457
O20	O	1.483712	0.636539	0.457543
C21	C	0.837741	0.069708	-0.000031
C22	C	1.337741	0.569708	0.499969
C23	C	0.744507	0.068751	-0.000027
C24	C	1.244507	0.568751	0.499973
C25	C	0.998665	-0.022191	-0.000053
C26	C	1.498665	0.477809	0.499947
C27	C	0.997722	-0.075851	-0.000058
C28	C	1.497722	0.424149	0.499942
C29	C	0.530298	0.020467	-0.000044
C30	C	1.030298	0.520467	0.499956
C31	C	0.469001	0.042899	0.041799
C32	C	0.969001	0.542899	0.541799
C33	C	0.573805	0.067021	-0.000033
C34	C	1.073805	0.567021	0.499967
C35	C	0.468976	0.042889	-0.041865
C36	C	0.968976	0.542889	0.458135
C37	C	0.408915	0.065345	-0.000041
C38	C	0.908915	0.565345	0.499959
C39	C	0.513735	0.089465	0.041845
C40	C	1.013735	0.589465	0.541845
C41	C	0.513718	0.089449	-0.041856
C42	C	1.013718	0.589449	0.458144
C43	C	0.452437	0.111915	-0.000003
C44	C	0.952437	0.611915	0.499997
C45	C	0.668794	0.067984	-0.000028
C46	C	1.168794	0.567984	0.499972
C47	C	0.313926	0.064385	-0.000043
C48	C	0.813926	0.564385	0.499957
C49	C	0.991814	-0.408581	0.046223
C50	C	1.491814	0.091419	0.546223
C51	C	0.988232	-0.610255	0.046233
C52	C	1.488232	-0.110255	0.546233
O53	O	0.987755	-0.636318	0.085572
O54	O	1.487755	-0.136318	0.585572
N55	N	0.987762	-0.635486	-0.000023
N56	N	1.487762	-0.135486	0.499977
C57	C	0.988181	-0.610294	-0.046284
C58	C	1.488181	-0.110294	0.453716
O59	O	0.987690	-0.636381	-0.085627
O60	O	1.487690	-0.136381	0.414373
C61	C	0.991757	-0.408621	-0.046293
C62	C	1.491757	0.091379	0.453707
C63	C	0.992236	-0.383394	-0.000034
C64	C	1.492236	0.116606	0.499966
C65	C	0.992292	-0.383354	0.092478
C66	C	1.492292	0.116646	0.592478
C67	C	0.993192	-0.332939	0.092476
C68	C	1.493192	0.167061	0.592476
C69	C	0.993614	-0.307751	0.046218
C70	C	1.493614	0.192249	0.546218
C71	C	0.993135	-0.332979	-0.000037
C72	C	1.493135	0.167021	0.499963
C73	C	0.992170	-0.383430	-0.092554
C74	C	1.492170	0.116570	0.407446
C75	C	0.993062	-0.333008	-0.092552
C76	C	1.493062	0.166992	0.407448
C77	C	0.993541	-0.307781	-0.046293
C78	C	1.493541	0.192219	0.453707
C79	C	0.994457	-0.257376	-0.046297
C80	C	1.494457	0.242624	0.453703
N81	N	0.994928	-0.232145	-0.000042
N82	N	1.494928	0.267855	0.499958
C83	C	0.994506	-0.257333	0.046216
C84	C	1.494506	0.242667	0.546216
C85	C	0.986306	-0.716176	-0.046276
C86	C	1.486306	-0.216176	0.453724
C87	C	0.985414	-0.766594	-0.046274
C88	C	1.485414	-0.266594	0.453726
C89	C	0.985463	-0.766551	0.046243
C90	C	1.485463	-0.266551	0.546243
C91	C	0.986362	-0.716133	0.046240
C92	C	1.486362	-0.216133	0.546240
C93	C	0.986776	-0.690945	-0.000021
C94	C	1.486776	-0.190945	0.499979
C95	C	0.996396	-0.151458	0.046207
C96	C	1.496396	0.348542	0.546207
C97	C	0.997300	-0.101039	0.046200
C98	C	1.497300	0.398961	0.546200
C99	C	0.997246	-0.101085	-0.046317
C100	C	1.497246	0.398915	0.453683
C101	C	0.996347	-0.151500	-0.046310
C102	C	1.496347	0.348500	0.453690
C103	C	0.995919	-0.176685	-0.000045
C104	C	1.495919	0.323315	0.499955
O105	O	0.994926	-0.231281	-0.085616
O106	O	1.494926	0.268719	0.414384
O107	O	0.994978	-0.231236	0.085553
O108	O	1.494978	0.268764	0.585553
C109	C	0.990914	-0.458997	0.046226
C110	C	1.490914	0.041003	0.546226
C111	C	0.990436	-0.484224	-0.000029
C112	C	1.490436	0.015776	0.499971
C113	C	0.990858	-0.459036	-0.046286
C114	C	1.490858	0.040964	0.453714
C115	C	0.989544	-0.534642	-0.000027
C116	C	1.489544	-0.034642	0.499973
C117	C	0.989122	-0.559830	0.046231
C118	C	1.489122	-0.059830	0.546231
C119	C	0.989592	-0.534599	0.092487
C120	C	1.489592	-0.034599	0.592487
C121	C	0.990492	-0.484184	0.092484
C122	C	1.490492	0.015816	0.592484
C123	C	0.990387	-0.484266	-0.092542
C124	C	1.490387	0.015734	0.407458
C125	C	0.989488	-0.534682	-0.092536
C126	C	1.489488	-0.034682	0.407464
C127	C	0.989066	-0.559869	-0.046278
C128	C	1.489066	-0.059869	0.453722
C129	C	1.144973	0.062660	-0.000047
C130	C	1.644973	0.562660	0.499953
C131	C	1.238206	0.063616	-0.000048
C132	C	1.738206	0.563616	0.499952
C133	C	0.984049	0.154558	-0.000025
C134	C	1.484049	0.654558	0.499975
C135	C	0.984992	0.208218	-0.000017
C136	C	1.484992	0.708218	0.499983
N137	N	0.991296	0.066154	-0.120801
N138	N	1.491296	0.566154	0.379199
C139	C	0.940821	0.036838	-0.526780
C140	C	1.440821	0.536838	-0.026780
C141	C	0.940784	0.036826	-0.313122
C142	C	1.440784	0.536826	0.186878
O143	O	0.897818	0.011861	-0.285513
O144	O	1.397818	0.511861	0.214487
N145	N	0.991328	0.066161	-0.286385
N146	N	1.491328	0.566161	0.213615
C147	C	1.041888	0.095498	-0.313065
C148	C	1.541888	0.595498	0.186935
O149	O	1.084883	0.120445	-0.285421
O150	O	1.584883	0.620445	0.214579
C151	C	1.041929	0.095507	-0.526723
C152	C	1.541929	0.595507	-0.026723
C153	C	0.991376	0.066174	-0.553457
C154	C	1.491376	0.566174	-0.053457
C155	C	0.890273	0.007507	-0.553515
C156	C	1.390273	0.507507	-0.053515
C157	C	0.890280	0.007512	-0.606926
C158	C	1.390280	0.507512	-0.106926
C159	C	0.940834	0.036849	-0.633603
C160	C	1.440834	0.536849	-0.133603
C161	C	0.991382	0.066180	-0.606869
C162	C	1.491382	0.566180	-0.106869
C163	C	1.092493	0.124842	-0.553403
C164	C	1.592493	0.624842	-0.053403
C165	C	1.092500	0.124841	-0.606820
C166	C	1.592500	0.624841	-0.106820
C167	C	1.041947	0.095508	-0.633555
C168	C	1.541947	0.595508	-0.133555
C169	C	1.041943	0.095521	-0.686957
C170	C	1.541943	0.595521	-0.186957
N171	N	0.991400	0.066187	-0.713694
N172	N	1.491400	0.566187	-0.213694
C173	C	0.940845	0.036850	-0.687017
C174	C	1.440845	0.536850	-0.187017
C175	C	1.041861	0.095492	-0.200892
C176	C	1.541861	0.595492	0.299108
C177	C	1.041850	0.095490	-0.147478
C178	C	1.541850	0.595490	0.352522
C179	C	0.940748	0.036817	-0.147538
C180	C	1.440748	0.536817	0.352462
C181	C	0.940755	0.036822	-0.200953
C182	C	1.440755	0.536822	0.299047
C183	C	0.991318	0.066157	-0.227629
C184	C	1.491318	0.566157	0.272371
C185	C	0.940862	0.036864	-0.799185
C186	C	1.440862	0.536864	-0.299185
C187	C	0.940870	0.036874	-0.852601
C188	C	1.440870	0.536874	-0.352601
C189	C	1.041975	0.095545	-0.852537
C190	C	1.541975	0.595545	-0.352537
C191	C	1.041964	0.095537	-0.799125
C192	C	1.541964	0.595537	-0.299125
C193	C	0.991405	0.066193	-0.772451
C194	C	1.491405	0.566193	-0.272451
O195	O	1.084894	0.120469	-0.714598
O196	O	1.584894	0.620469	-0.214598
O197	O	0.897870	0.011899	-0.714671
O198	O	1.397870	0.511899	-0.214671
C199	C	0.940815	0.036833	-0.473369
C200	C	1.440815	0.536833	0.026631
C201	C	0.991363	0.066164	-0.446634
C202	C	1.491363	0.566164	0.053366
C203	C	1.041918	0.095500	-0.473311
C204	C	1.541918	0.595500	0.026689
C205	C	0.991352	0.066162	-0.393220
C206	C	1.491352	0.566162	0.106780
C207	C	0.940798	0.036826	-0.366543
C208	C	1.440798	0.536826	0.133457
C209	C	0.890255	0.007491	-0.393280
C210	C	1.390255	0.507491	0.106720
C211	C	0.890261	0.007496	-0.446692
C212	C	1.390261	0.507496	0.053308
C213	C	1.092461	0.124835	-0.446574
C214	C	1.592461	0.624835	0.053426
C215	C	1.092450	0.124828	-0.393163
C216	C	1.592450	0.624828	0.106837
C217	C	1.041895	0.095491	-0.366486
C218	C	1.541895	0.595491	0.133514
N219	N	0.991424	0.066210	0.120722
N220	N	1.491424	0.566210	0.620722
H221	H	0.564149	-0.018169	0.000001
H222	H	1.064149	0.481831	0.500001
O223	O	0.445397	0.019343	0.083955
O224	O	0.945397	0.519343	0.583955
C225	C	0.485463	-0.028849	0.083807
C226	C	0.985463	0.471151	0.583807
H227	H	0.503841	-0.040077	0.043090
H228	H	1.003841	0.459923	0.543090
H229	H	0.440358	-0.054064	0.099606
H230	H	0.940358	0.445936	0.599606
H231	H	0.544585	-0.031376	0.108604
H232	H	1.044585	0.468624	0.608604
O233	O	0.445277	0.019313	-0.084014
O234	O	0.945277	0.519313	0.415986
C235	C	0.405069	-0.020978	-0.069001
C236	C	0.905069	0.479022	0.430999
H237	H	0.426045	-0.032432	-0.028761
H238	H	0.926045	0.467568	0.471239
H239	H	0.422991	-0.052408	-0.096483
H240	H	0.922991	0.447592	0.403517
H241	H	0.333659	-0.010674	-0.069620
H242	H	0.833659	0.489326	0.430380
O243	O	0.537385	0.112839	-0.084104
O244	O	1.037385	0.612839	0.415896
C245	C	0.514840	0.088163	-0.128136
C246	C	1.014840	0.588163	0.371864
H247	H	0.508606	0.048757	-0.118118
H248	H	1.008606	0.548757	0.381882
H249	H	0.565736	0.089337	-0.158497
H250	H	1.065736	0.589337	0.341503
H251	H	0.451948	0.106443	-0.143400
H252	H	0.951948	0.606443	0.356600
H253	H	0.849088	-0.016394	-0.371551
H254	H	1.349088	0.483606	0.128449
O255	O	0.989319	-0.559057	0.137437
O256	O	1.489319	-0.059057	0.637437
C257	C	1.062308	-0.552199	0.165591
C258	C	1.562308	-0.052199	0.665591
H259	H	1.113419	-0.542182	0.138530
H260	H	1.613419	-0.042182	0.638530
H261	H	1.086140	-0.587186	0.186575
H262	H	1.586140	-0.087186	0.686575
H263	H	1.046387	-0.521682	0.194432
H264	H	1.546387	-0.021682	0.694432
H265	H	0.993579	-0.312403	0.130144
H266	H	1.493579	0.187597	0.630144
H267	H	1.083038	0.119382	-0.222607
H268	H	1.583038	0.619382	0.277393
H269	H	0.997692	-0.080501	0.083871
H270	H	1.497692	0.419499	0.583871
O271	O	0.997526	-0.076652	-0.091280
O272	O	1.497526	0.423348	0.408720
C273	C	0.924495	-0.083496	-0.119399
C274	C	1.424495	0.416504	0.380601
H275	H	0.899607	-0.118278	-0.106249
H276	H	1.399607	0.381722	0.393751
H277	H	0.940785	-0.086456	-0.161721
H278	H	1.440785	0.413544	0.338279
H279	H	0.874040	-0.051288	-0.112966
H280	H	1.374040	0.448712	0.387034
H281	H	0.533479	0.109150	0.077259
H282	H	1.033479	0.609150	0.577259
H283	H	0.996044	-0.171957	0.083881
H284	H	1.496044	0.328043	0.583881
H285	H	0.899692	0.012969	-0.777473
H286	H	1.399692	0.512969	-0.277473
O287	O	0.991924	-0.407745	0.137463
O288	O	1.491924	0.092255	0.637463
C289	C	0.992514	-0.374656	0.178281
C290	C	1.492514	0.125344	0.678281
H291	H	1.019740	-0.340725	0.164707
H292	H	1.519740	0.159275	0.664707
H293	H	1.033076	-0.392271	0.210633
H294	H	1.533076	0.107729	0.710633
H295	H	0.925207	-0.364216	0.192511
H296	H	1.425207	0.135784	0.692511
H297	H	0.990732	-0.463764	-0.130211
H298	H	1.490732	0.036236	0.369789
H299	H	0.899700	0.012987	-0.874366
H300	H	1.399700	0.512987	-0.374366
O301	O	1.090996	0.123921	-0.121454
O302	O	1.590996	0.623921	0.378546
C303	C	1.148713	0.094467	-0.090568
C304	C	1.648713	0.594467	0.409432
H305	H	1.123053	0.058591	-0.082587
H306	H	1.623053	0.558591	0.417413
H307	H	1.157804	0.113903	-0.052996
H308	H	1.657804	0.613903	0.447004
H309	H	1.211950	0.087090	-0.111143
H310	H	1.711950	0.587090	0.388857
H311	H	0.985120	-0.787068	0.083908
H312	H	1.485120	-0.287068	0.583908
O313	O	1.141638	0.153338	-0.367275
O314	O	1.641638	0.653338	0.132725
C315	C	1.186241	0.179238	-0.402282
C316	C	1.686241	0.679238	0.097718
H317	H	1.191402	0.159231	-0.440367
H318	H	1.691402	0.659231	0.059633
H319	H	1.252251	0.182254	-0.386838
H320	H	1.752251	0.682254	0.113162
H321	H	1.151139	0.217170	-0.407947
H322	H	1.651139	0.717170	0.092053
H323	H	0.418760	0.150591	0.000027
H324	H	0.918760	0.650591	0.500027
O325	O	0.986782	-0.691700	0.091221
O326	O	1.486782	-0.191700	0.591221
C327	C	0.986243	-0.724751	0.132046
C328	C	1.486243	-0.224751	0.632046
H329	H	0.959000	-0.758695	0.118484
H330	H	1.459000	-0.258695	0.618484
H331	H	0.945723	-0.707106	0.164402
H332	H	1.445723	-0.207106	0.664402
H333	H	1.053569	-0.735179	0.146264
H334	H	1.553569	-0.235179	0.646264
O335	O	0.984922	-0.791020	-0.091256
O336	O	1.484922	-0.291020	0.408744
C337	C	0.985505	-0.757972	-0.132081
C338	C	1.485505	-0.257972	0.367919
H339	H	0.959549	-0.720026	-0.118515
H340	H	1.459549	-0.220026	0.381485
H341	H	0.944433	-0.769480	-0.164431
H342	H	1.444433	-0.269480	0.335569
H343	H	1.053004	-0.757687	-0.146309
H344	H	1.553004	-0.257687	0.353691
O345	O	1.141498	0.153367	-0.632789
O346	O	1.641498	0.653367	-0.132789
C347	C	1.089852	0.186346	-0.663669
C348	C	1.589852	0.686346	-0.163669
H349	H	1.027731	0.171285	-0.671697
H350	H	1.527731	0.671285	-0.171697
H351	H	1.123553	0.191747	-0.701217
H352	H	1.623553	0.691747	-0.201217
H353	H	1.076508	0.222675	-0.643063
H354	H	1.576508	0.722675	-0.143063
H355	H	0.986648	-0.695673	-0.083950
H356	H	1.486648	-0.195673	0.416050
O357	O	0.841061	-0.020929	-0.472681
O358	O	1.341061	0.479071	0.027319
C359	C	0.783368	0.008521	-0.503586
C360	C	1.283368	0.508521	-0.003586
H361	H	0.773833	0.046983	-0.487475
H362	H	1.273833	0.546983	0.012525
H363	H	0.720307	-0.006951	-0.504209
H364	H	1.220307	0.493049	-0.004209
H365	H	0.809312	0.009344	-0.544062
H366	H	1.309312	0.509344	-0.044062
O367	O	0.991663	-0.407850	-0.137536
O368	O	1.491663	0.092150	0.362464
C369	C	0.992241	-0.374798	-0.178357
C370	C	1.492241	0.125202	0.321643
H371	H	0.966292	-0.336853	-0.164786
H372	H	1.466292	0.163147	0.335214
H373	H	0.951160	-0.386301	-0.210706
H374	H	1.451160	0.113699	0.289294
H375	H	1.059737	-0.374514	-0.192590
H376	H	1.559737	0.125486	0.307410
H377	H	1.083116	0.119429	-0.777357
H378	H	1.583116	0.619429	-0.277357
H379	H	0.993387	-0.312502	-0.130224
H380	H	1.493387	0.187498	0.369776
O381	O	0.995786	-0.176058	-0.091210
O382	O	1.495786	0.323942	0.408790
C383	C	0.922482	-0.199736	-0.093983
C384	C	1.422482	0.300264	0.406017
H385	H	0.898097	-0.205441	-0.053820
H386	H	1.398097	0.294559	0.446180
H387	H	0.938211	-0.236432	-0.113555
H388	H	1.438211	0.263568	0.386445
H389	H	0.871863	-0.176482	-0.116815
H390	H	1.371863	0.323518	0.383185
O391	O	0.990787	-0.459704	0.137441
O392	O	1.490787	0.040296	0.637441
C393	C	0.917811	-0.466568	0.165573
C394	C	1.417811	0.033432	0.665573
H395	H	0.866700	-0.476601	0.138493
H396	H	1.366700	0.023399	0.638493
H397	H	0.893967	-0.431577	0.186574
H398	H	1.393967	0.068423	0.686574
H399	H	0.933755	-0.497075	0.194399
H400	H	1.433755	0.002925	0.694399
H401	H	0.989105	-0.555218	-0.130208
H402	H	1.489105	-0.055218	0.369792
H403	H	1.083133	0.119431	-0.874267
H404	H	1.583133	0.619431	-0.374267
O405	O	0.841159	-0.021031	-0.632815
O406	O	1.341159	0.478969	-0.132815
C407	C	0.796527	-0.046915	-0.597809
C408	C	1.296527	0.453085	-0.097809
H409	H	0.831330	-0.049720	-0.559728
H410	H	1.331330	0.450280	-0.059728
H411	H	0.791832	-0.084929	-0.613260
H412	H	1.291832	0.415071	-0.113260
H413	H	0.730330	-0.027027	-0.592134
H414	H	1.230330	0.472973	-0.092134
H415	H	0.899590	0.012936	-0.222717
H416	H	1.399590	0.512936	0.277283
H417	H	0.899582	0.012932	-0.125808
H418	H	1.399582	0.512932	0.374192
O419	O	0.841279	-0.021042	-0.527580
O420	O	1.341279	0.478958	-0.027580
C421	C	0.892901	-0.054006	-0.496671
C422	C	1.392901	0.445994	0.003329
H423	H	0.959814	-0.059183	-0.512746
H424	H	1.459814	0.440817	-0.012746
H425	H	0.866527	-0.090423	-0.496094
H426	H	1.366527	0.409577	0.003906
H427	H	0.894106	-0.039070	-0.456182
H428	H	1.394106	0.460930	0.043818
H429	H	1.133660	0.148727	-0.531645
H430	H	1.633660	0.648727	-0.031645
O431	O	1.141450	0.153362	-0.472541
O432	O	1.641450	0.653362	0.027459
C433	C	1.089799	0.186340	-0.503420
C434	C	1.589799	0.686340	-0.003420
H435	H	1.027682	0.171275	-0.511449
H436	H	1.527682	0.671275	-0.011449
H437	H	1.123499	0.191744	-0.540967
H438	H	1.623499	0.691744	-0.040967
H439	H	1.076448	0.222667	-0.482812
H440	H	1.576448	0.722667	0.017188
