data_functionalizedCrystal
_audit_creation_method	'MofGen! by Chris Wilmer'
_symmetry_space_group_name_H-M	'P1'
_symmetry_Int_Tables_number	1
_symmetry_cell_setting	triclinic
loop_
_symmetry_equiv_pos_as_xyz
  x,y,z
_cell_length_a	27.732048
_cell_length_b	15.944493
_cell_length_c	15.021413
_cell_angle_alpha	89.993251
_cell_angle_beta	89.988241
_cell_angle_gamma	96.941151
loop_
_atom_site_label
_atom_site_type_symbol
_atom_site_fract_x
_atom_site_fract_y
_atom_site_fract_z
O1	O	-0.062201	1.113746	-0.074005
O2	O	-0.069916	0.869089	-0.074007
O3	O	0.004307	0.999016	-0.074018
O4	O	-0.136423	0.983819	-0.073994
O5	O	0.004296	0.998995	0.074047
O6	O	-0.069926	0.869068	0.074057
O7	O	-0.062211	1.113725	0.074060
Zn8	Zn	-0.066070	0.991393	0.097567
Zn9	Zn	-0.066056	0.991420	-0.097514
O10	O	-0.136433	0.983798	0.074070
C11	C	-0.069606	0.837788	0.000024
C12	C	-0.068660	0.744551	0.000023
C13	C	-0.112349	0.508220	0.000029
C14	C	-0.088795	0.457960	0.073033
C15	C	-0.066909	0.573853	0.000024
C16	C	-0.088774	0.457985	-0.072947
C17	C	-0.065220	0.408966	0.000022
C18	C	-0.043366	0.524821	0.073088
C19	C	-0.043352	0.524849	-0.072958
C20	C	-0.019764	0.474622	0.000064
C21	C	-0.067883	0.668840	0.000026
C22	C	-0.064242	0.313981	0.000026
C23	C	-0.154436	0.984127	0.000041
C24	C	-0.208095	0.985088	0.000050
C25	C	-0.546613	0.914357	0.000006
C26	C	-0.748287	0.917921	-0.000005
O27	O	-0.779270	0.853242	-0.000044
N28	N	-0.767735	0.994962	-0.000002
C29	C	-0.736761	1.071118	-0.000004
O30	O	-0.757931	1.136728	-0.000011
C31	C	-0.535088	1.067553	0.000001
C32	C	-0.515643	0.990507	0.000008
C33	C	-0.527167	0.837317	0.000012
C34	C	-0.476751	0.836426	0.000019
C35	C	-0.445781	0.912576	0.000021
C36	C	-0.465227	0.989617	0.000015
C37	C	-0.504115	1.143708	-0.000007
C38	C	-0.453694	1.142810	-0.000008
C39	C	-0.434249	1.065764	-0.000001
C40	C	-0.383841	1.064876	0.000024
N41	N	-0.364393	0.987835	0.000022
C42	C	-0.395363	0.911685	0.000020
C43	C	-0.842643	1.072984	-0.000004
C44	C	-0.893062	1.073876	-0.000003
C45	C	-0.904584	0.920678	-0.000006
C46	C	-0.854165	0.919788	-0.000000
C47	C	-0.823195	0.995943	-0.000006
C48	C	-0.289486	0.909821	0.000037
C49	C	-0.239065	0.908938	0.000048
C50	C	-0.227547	1.062135	0.000046
C51	C	-0.277964	1.063019	0.000040
C52	C	-0.308932	0.986855	0.000032
O53	O	-0.352829	1.129520	0.000054
O54	O	-0.374184	0.846084	0.000008
C55	C	-0.597028	0.915247	-0.000001
C56	C	-0.616474	0.992287	-0.000007
C57	C	-0.585504	1.068437	-0.000006
C58	C	-0.666892	0.993179	-0.000007
C59	C	-0.697862	0.917029	-0.000008
C60	C	-0.678414	0.839987	-0.000011
C61	C	-0.627998	0.839097	-0.000003
C62	C	-0.604952	1.145479	-0.000004
C63	C	-0.655368	1.146362	-0.000010
C64	C	-0.686338	1.070212	-0.000012
C65	C	0.022310	0.998686	0.000010
C66	C	0.075968	0.997726	-0.000005
C67	C	-0.062521	1.145026	0.000026
C68	C	-0.063467	1.238262	0.000022
N69	N	-0.066080	0.991381	0.230704
N70	N	-0.066043	0.991440	-0.230652
C71	C	-0.100384	0.931294	0.470392
C72	C	-0.109759	1.007073	0.529730
C73	C	-0.066068	0.991402	0.412311
C74	C	-0.056703	0.915643	0.529716
C75	C	-0.066057	0.991416	0.587735
C76	C	-0.075464	1.067220	0.470342
C77	C	-0.022390	0.975740	0.470323
C78	C	-0.031746	1.051575	0.529633
C79	C	-0.066075	0.991393	0.311254
C80	C	-0.066049	0.991435	0.688791
H81	H	0.019408	0.459669	0.000099
O82	O	-0.934742	0.846781	-0.000054
C83	C	-0.983410	0.864100	-0.000033
H84	H	-0.985333	0.930061	-0.028053
H85	H	-1.006249	0.815538	-0.043032
H86	H	-0.998002	0.860703	0.070998
H87	H	-0.519938	1.206447	-0.000013
O88	O	-0.020529	0.559625	0.146769
C89	C	-0.021718	0.647775	0.145887
H90	H	-0.053216	0.663350	0.102627
H91	H	-0.026790	0.670968	0.216669
H92	H	0.013888	0.680289	0.117654
H93	H	-0.048788	0.851569	0.555798
O94	O	-0.159022	0.526369	0.000236
C95	C	-0.167035	0.574272	0.076548
H96	H	-0.130883	0.607508	0.101619
H97	H	-0.192156	0.623374	0.058997
H98	H	-0.184545	0.530673	0.130734
O99	O	-0.020544	0.559654	-0.146686
C100	C	-0.044625	0.525407	-0.223503
H101	H	-0.083714	0.500287	-0.206002
H102	H	-0.044484	0.576639	-0.276479
H103	H	-0.025149	0.471607	-0.250143
O104	O	-0.674174	1.221286	-0.000055
C105	C	-0.636021	1.288300	-0.000032
H106	H	-0.601768	1.265203	-0.028052
H107	H	-0.646546	1.342134	-0.043029
H108	H	-0.628899	1.311754	0.071001
H109	H	-0.428480	1.204826	-0.000018
O110	O	-0.911867	1.148793	-0.000040
C111	C	-0.873715	1.215807	-0.000019
H112	H	-0.839463	1.192712	-0.028048
H113	H	-0.884242	1.269644	-0.043008
H114	H	-0.866589	1.239256	0.071015
H115	H	0.014531	0.962456	0.444209
O116	O	-0.812513	1.146911	0.000113
C117	C	-0.783021	1.150984	0.076807
H118	H	-0.780469	1.084344	0.102371
H119	H	-0.745128	1.182787	0.059561
H120	H	-0.799618	1.189114	0.130506
H121	H	-0.146691	1.020333	0.555823
O122	O	-0.111770	0.423142	0.146602
C123	C	-0.160542	0.439887	0.146364
H124	H	-0.172074	0.452813	0.075323
H125	H	-0.184721	0.382893	0.173947
H126	H	-0.164268	0.497491	0.189628
O127	O	0.002876	1.112220	0.560628
C128	C	0.002758	1.111126	0.654482
H129	H	-0.013763	1.046268	0.678934
H130	H	0.041620	1.124896	0.680003
H131	H	-0.019675	1.161327	0.680404
H132	H	-0.083424	1.131308	0.444371
H133	H	-0.579741	1.207491	-0.000003
O134	O	-0.296776	1.137934	-0.000006
C135	C	-0.258626	1.204954	0.000022
H136	H	-0.224370	1.181862	-0.027992
H137	H	-0.269152	1.258785	-0.042979
H138	H	-0.251509	1.228410	0.071055
O139	O	-0.111734	0.423271	-0.146553
C140	C	-0.160510	0.439993	-0.146257
H141	H	-0.164028	0.498013	-0.103510
H142	H	-0.172394	0.452225	-0.217252
H143	H	-0.184548	0.383264	-0.117770
H144	H	-0.129428	0.880512	0.444381
O145	O	-0.197389	1.136027	0.000007
C146	C	-0.148721	1.118710	0.000033
H147	H	-0.146789	1.052759	-0.027992
H148	H	-0.125870	1.167287	-0.042958
H149	H	-0.134149	1.122081	0.071067
H150	H	-0.314695	0.847801	0.000031
O151	O	-0.220258	0.834017	0.000012
C152	C	-0.258408	0.766999	0.000028
H153	H	-0.292653	0.790098	-0.028008
H154	H	-0.247866	0.713175	-0.042958
H155	H	-0.265554	0.743531	0.071061
O156	O	-0.457841	0.761606	0.000170
C157	C	-0.429022	0.756487	0.076840
H158	H	-0.440947	0.800212	0.130445
H159	H	-0.433554	0.688724	0.102569
H160	H	-0.389260	0.776386	0.059502
H161	H	-0.838336	0.857050	0.000009
O162	O	-0.557178	0.763261	0.000053
C163	C	-0.529193	0.695084	0.000034
H164	H	-0.491567	0.716917	0.028060
H165	H	-0.547787	0.641762	0.043028
H166	H	-0.525593	0.671442	-0.070998
O167	O	-0.609136	0.764232	-0.000161
C168	C	-0.624967	0.717860	-0.076835
H169	H	-0.635443	0.762936	-0.130432
H170	H	-0.594425	0.682522	-0.102576
H171	H	-0.657832	0.670623	-0.059501
O172	O	-0.708523	0.766036	-0.000172
C173	C	-0.738027	0.762002	-0.076849
H174	H	-0.719550	0.805207	-0.130441
H175	H	-0.743698	0.694272	-0.102595
H176	H	-0.774690	0.783264	-0.059516
