data_functionalizedCrystal
_audit_creation_method	'MofGen! by Chris Wilmer'
_symmetry_space_group_name_H-M	'P1'
_symmetry_Int_Tables_number	1
_symmetry_cell_setting	triclinic
loop_
_symmetry_equiv_pos_as_xyz
  x,y,z
_cell_length_a	18.215407
_cell_length_b	19.077114
_cell_length_c	18.215399
_cell_angle_alpha	92.270210
_cell_angle_beta	90.019833
_cell_angle_gamma	87.671157
loop_
_atom_site_label
_atom_site_type_symbol
_atom_site_fract_x
_atom_site_fract_y
_atom_site_fract_z
Zn1	Zn	1.113281	0.280200	0.427879
Zn2	Zn	1.613281	0.780200	0.927879
Zn3	Zn	1.108237	0.397902	0.309754
Zn4	Zn	1.608237	0.897902	0.809754
Zn5	Zn	0.990213	0.280223	0.304827
Zn6	Zn	1.490213	0.780223	0.804827
Zn7	Zn	0.985228	0.397863	0.432777
Zn8	Zn	1.485228	0.897863	0.932777
O9	O	1.049240	0.339047	0.368810
O10	O	1.549240	0.839047	0.868810
O11	O	1.215596	0.295821	0.412222
O12	O	1.715596	0.795821	0.912222
O13	O	1.092555	0.382318	0.206117
O14	O	1.592555	0.882318	0.706117
O15	O	1.010735	0.181729	0.317039
O16	O	1.510735	0.681729	0.817039
O17	O	1.211890	0.382295	0.325436
O18	O	1.711890	0.882295	0.825436
O19	O	1.101153	0.181712	0.407444
O20	O	1.601153	0.681712	0.907444
O21	O	1.005844	0.295860	0.202498
O22	O	1.505844	0.795860	0.702498
O23	O	0.886567	0.295822	0.321788
O24	O	1.386567	0.795822	0.821788
O25	O	1.002240	0.382229	0.535111
O26	O	1.502240	0.882229	1.035111
O27	O	0.882905	0.382251	0.415793
O28	O	1.382905	0.882251	0.915793
O29	O	1.096320	0.295783	0.531512
O30	O	1.596320	0.795783	1.031512
O31	O	1.087722	0.496388	0.330185
O32	O	1.587722	0.996388	0.830185
O33	O	0.997348	0.496359	0.420570
O34	O	1.497348	0.996359	0.920570
C35	C	0.858034	0.339035	0.368788
C36	C	1.358034	0.839035	0.868788
C37	C	0.776234	0.339047	0.368797
C38	C	1.276234	0.839047	0.868797
C39	C	0.586150	0.384121	0.417689
C40	C	1.086150	0.884121	0.917689
C41	C	0.509291	0.384124	0.417698
C42	C	1.009291	0.884124	0.917698
C43	C	0.513081	0.293986	0.319947
C44	C	1.013081	0.793986	0.819947
C45	C	0.589938	0.293980	0.319942
C46	C	1.089938	0.793980	0.819942
C47	C	0.626471	0.339052	0.368812
C48	C	1.126471	0.839052	0.868812
C49	C	0.472754	0.339060	0.368826
C50	C	0.972754	0.839060	0.868826
C51	C	0.389421	0.339062	0.368836
C52	C	0.889421	0.839062	0.868836
C53	C	0.709810	0.339050	0.368803
C54	C	1.209810	0.839050	0.868803
C55	C	1.041467	0.521911	0.376460
C56	C	1.541467	1.021911	0.876460
C57	C	1.038209	0.600141	0.379757
C58	C	1.538209	1.100141	0.879757
C59	C	1.083768	0.636886	0.334287
C60	C	1.583768	1.136886	0.834287
C61	C	1.080708	0.710391	0.337393
C62	C	1.580708	1.210391	0.837393
C63	C	1.032085	0.747151	0.385965
C64	C	1.532085	1.247151	0.885965
C65	C	0.986525	0.710401	0.431441
C66	C	1.486525	1.210401	0.931441
C67	C	0.989589	0.636897	0.428338
C68	C	1.489589	1.136897	0.928338
C69	C	1.017875	0.966985	0.400290
C70	C	1.517875	1.466985	0.900290
C71	C	1.014813	1.040495	0.403387
C72	C	1.514813	1.540495	0.903387
C73	C	1.108998	1.040479	0.309340
C74	C	1.608998	1.540479	0.809340
C75	C	1.112054	0.966974	0.306239
C76	C	1.612054	1.466974	0.806239
C77	C	1.066497	0.930231	0.351717
C78	C	1.566497	1.430231	0.851717
N79	N	1.028955	0.822285	0.389139
N80	N	1.528955	1.322285	0.889139
N81	N	1.069631	0.855098	0.348546
N82	N	1.569631	1.355098	0.848546
C83	C	1.241192	0.339060	0.368832
C84	C	1.741192	0.839060	0.868832
C85	C	1.322991	0.339065	0.368841
C86	C	1.822991	0.839065	0.868841
C87	C	1.049287	0.338999	0.560761
C88	C	1.549287	0.838999	1.060761
C89	C	1.049306	0.338978	0.642559
C90	C	1.549306	0.838978	1.142559
C91	C	1.057057	1.155469	0.361155
C92	C	1.557057	1.655469	0.861155
C93	C	1.060372	1.077239	0.357917
C94	C	1.560372	1.577239	0.857917
C95	C	1.049237	0.339045	0.177603
C96	C	1.549237	0.839045	0.677603
C97	C	1.049368	0.338867	0.095797
C98	C	1.549368	0.838867	0.595797
C99	C	1.098313	0.293923	0.828878
C100	C	1.598313	0.793923	1.328878
C101	C	1.098322	0.293903	0.905736
C102	C	1.598322	0.793903	1.405736
C103	C	1.000357	0.383924	0.909472
C104	C	1.500357	0.883924	1.409472
C105	C	1.000344	0.383940	0.832616
C106	C	1.500344	0.883940	1.332616
C107	C	1.049326	0.338941	0.792321
C108	C	1.549326	0.838941	1.292321
C109	C	1.049349	0.338904	0.946035
C110	C	1.549349	0.838904	1.446035
C111	C	1.049359	0.338882	1.029368
C112	C	1.549359	0.838882	1.529368
C113	C	1.049315	0.338962	0.708982
C114	C	1.549315	0.838962	1.208982
H115	H	0.615892	0.420820	0.457484
H116	H	1.115892	0.920820	0.957484
C117	C	1.130822	0.750806	0.287367
C118	C	1.630822	1.250806	0.787367
N119	N	1.168569	0.781247	0.249684
N120	N	1.668569	1.281247	0.749684
C121	C	0.961327	1.080929	0.456828
C122	C	1.461327	1.580929	0.956828
N123	N	0.921043	1.111384	0.497079
N124	N	1.421043	1.611384	0.997079
C125	C	0.946451	0.433464	0.792400
C126	C	1.446451	0.933464	1.292400
N127	N	0.905858	0.470761	0.762109
N128	N	1.405858	0.970761	1.262109
H129	H	0.483326	0.257291	0.280158
H130	H	0.983326	0.757291	0.780158
C131	C	1.152188	0.244417	0.784556
C132	C	1.652188	0.744417	1.284556
N133	N	1.192766	0.207125	0.751174
N134	N	1.692766	0.707125	1.251174
H135	H	0.960479	0.420562	0.942290
H136	H	1.460479	0.920562	1.442290
C137	C	0.967797	0.926578	0.450355
C138	C	1.467797	1.426578	0.950355
N139	N	0.930090	0.896140	0.488080
N140	N	1.430090	1.396140	0.988080
C141	C	0.464941	0.433710	0.471460
C142	C	0.964941	0.933710	0.971460
N143	N	0.431537	0.471062	0.511954
N144	N	0.931537	0.971062	1.011954
C145	C	0.634294	0.244399	0.266170
C146	C	1.134294	0.744399	0.766170
N147	N	0.667702	0.207054	0.225672
N148	N	1.167702	0.707054	0.725672
H149	H	1.123358	0.606961	0.294731
H150	H	1.623358	1.106961	0.794731
H151	H	1.151647	0.937045	0.266687
H152	H	1.651647	1.437045	0.766687
C153	C	0.939471	0.596479	0.478360
C154	C	1.439471	1.096479	0.978360
N155	N	0.901722	0.566037	0.516039
N156	N	1.401722	1.066037	1.016039
C157	C	1.159110	1.080902	0.259320
C158	C	1.659110	1.580902	0.759320
N159	N	1.196859	1.111349	0.221644
N160	N	1.696859	1.611349	0.721644
C161	C	0.933036	0.750840	0.484869
C162	C	1.433036	1.250840	0.984869
N163	N	0.892745	0.781297	0.525109
N164	N	1.392745	1.281297	1.025109
H165	H	1.138211	0.257244	0.935498
H166	H	1.638211	0.757244	1.435498
