data_functionalizedCrystal
_audit_creation_method	'MofGen! by Chris Wilmer'
_symmetry_space_group_name_H-M	'P1'
_symmetry_Int_Tables_number	1
_symmetry_cell_setting	triclinic
loop_
_symmetry_equiv_pos_as_xyz
  x,y,z
_cell_length_a	10.654545
_cell_length_b	10.654551
_cell_length_c	9.730223
_cell_angle_alpha	89.998425
_cell_angle_beta	89.997167
_cell_angle_gamma	84.484220
loop_
_atom_site_label
_atom_site_type_symbol
_atom_site_fract_x
_atom_site_fract_y
_atom_site_fract_z
O1	O	1.667843	0.176371	-0.114267
O2	O	1.302364	0.193183	-0.114272
O3	O	1.493506	0.002038	-0.114270
O4	O	1.476701	0.367517	-0.114269
O5	O	1.493493	0.002033	0.114310
O6	O	1.302351	0.193178	0.114308
O7	O	1.667831	0.176366	0.114313
Zn8	Zn	1.485089	0.184771	0.150603
Zn9	Zn	1.485105	0.184778	-0.150561
O10	O	1.476689	0.367511	0.114311
C11	C	1.255560	0.191948	0.000018
C12	C	1.116116	0.188258	0.000015
C13	C	1.050605	0.186518	0.124615
C14	C	0.919585	0.183031	0.124615
C15	C	0.919599	0.183028	-0.124595
C16	C	1.050618	0.186506	-0.124594
C17	C	1.492265	-0.044762	0.000017
C18	C	1.488573	-0.184206	0.000008
C19	C	1.486848	-0.249715	-0.124589
C20	C	1.483367	-0.380735	-0.124583
C21	C	1.483343	-0.380726	0.124628
C22	C	1.486815	-0.249707	0.124620
C23	C	1.488606	-0.184213	-0.249201
C24	C	1.486882	-0.249722	-0.373808
C25	C	1.483402	-0.380743	-0.373802
C26	C	1.481645	-0.446254	-0.249189
C27	C	1.714635	0.177602	0.000021
C28	C	1.854078	0.181292	0.000014
C29	C	1.477929	0.414312	0.000021
C30	C	1.481622	0.553755	0.000022
N31	N	1.485087	0.184766	0.356139
N32	N	1.485117	0.184774	-0.356098
C33	C	1.569754	0.100163	0.428066
C34	C	1.569766	0.100163	0.571949
C35	C	1.400441	0.269381	0.571966
C36	C	1.400424	0.269373	0.428085
H37	H	1.103959	0.187920	-0.226064
H38	H	1.488193	-0.196365	0.226078
Cl39	Cl	1.481139	-0.463084	0.281272
Cl40	Cl	0.837253	0.180796	-0.281238
H41	H	1.103930	0.187944	0.226080
H42	H	0.866252	0.181614	0.226077
Cl43	Cl	1.676206	-0.006202	0.662367
H44	H	1.331472	0.338268	0.369519
Cl45	Cl	1.492987	-0.019503	-0.249218
H46	H	1.331512	0.338268	0.630558
Cl47	Cl	1.489086	-0.167368	-0.530455
H48	H	1.481985	-0.434075	-0.475262
H49	H	1.478793	-0.552937	-0.249194
Cl50	Cl	1.676183	-0.006206	0.337625
