data_functionalizedCrystal
_audit_creation_method	'MofGen! by Chris Wilmer'
_symmetry_space_group_name_H-M	'P1'
_symmetry_Int_Tables_number	1
_symmetry_cell_setting	triclinic
loop_
_symmetry_equiv_pos_as_xyz
  x,y,z
_cell_length_a	17.038272
_cell_length_b	17.038272
_cell_length_c	9.016244
_cell_angle_alpha	89.997742
_cell_angle_beta	89.998173
_cell_angle_gamma	91.111556
loop_
_atom_site_label
_atom_site_type_symbol
_atom_site_fract_x
_atom_site_fract_y
_atom_site_fract_z
O1	O	1.048758	0.170534	-0.123156
O2	O	0.820946	0.167826	-0.123200
O3	O	0.933498	0.055274	-0.123166
O4	O	0.936206	0.283086	-0.123189
O5	O	0.933481	0.055276	0.123514
O6	O	0.820929	0.167827	0.123481
O7	O	1.048741	0.170535	0.123525
Cu8	Cu	0.934833	0.169182	0.146027
Cu9	Cu	0.934854	0.169180	-0.145702
O10	O	0.936189	0.283087	0.123491
C11	C	0.791645	0.165364	0.000135
C12	C	0.704361	0.158016	0.000119
C13	C	0.931027	0.025982	0.000173
C14	C	0.923679	-0.061301	0.000172
C15	C	0.658752	0.225479	0.000113
C16	C	0.576740	0.218570	0.000134
C17	C	0.540339	0.144197	0.000151
C18	C	0.585954	0.076728	0.000161
C19	C	0.667965	0.083638	0.000150
C20	C	0.292951	0.119787	0.000193
C21	C	0.210935	0.112882	0.000199
C22	C	0.201726	0.254725	0.000175
C23	C	0.283739	0.261628	0.000156
C24	C	0.329347	0.194159	0.000174
C25	C	0.456510	0.137133	0.000168
C26	C	0.413174	0.201224	0.000167
C27	C	0.991142	-0.106911	0.000186
C28	C	0.984233	-0.188923	0.000171
C29	C	0.909860	-0.225324	0.000151
C30	C	0.842391	-0.179708	0.000132
C31	C	0.849301	-0.097698	0.000137
C32	C	0.885449	-0.472712	0.000126
C33	C	0.878545	-0.554728	0.000126
C34	C	1.020387	-0.563937	0.000161
C35	C	1.027291	-0.481924	0.000175
C36	C	0.959822	-0.436316	0.000148
C37	C	0.902796	-0.309153	0.000140
C38	C	0.966886	-0.352488	0.000149
C39	C	1.078042	0.172997	0.000187
C40	C	1.165326	0.180346	0.000193
C41	C	0.938660	0.312379	0.000148
C42	C	0.946008	0.399663	0.000141
N43	N	0.934824	0.169183	0.351213
N44	N	0.934868	0.169173	-0.350888
C45	C	0.874408	0.229165	0.586228
C46	C	0.874564	0.229412	0.414337
C47	C	1.017959	0.192532	0.413565
C48	C	1.017635	0.192963	0.585510
C49	C	0.912909	0.085690	0.585761
C50	C	0.911057	0.086116	0.413806
H51	H	0.688384	0.286042	0.000099
Cl52	Cl	0.519406	0.303386	0.000118
H53	H	0.812607	0.214611	0.627611
Cl54	Cl	0.725303	-0.001177	0.000164
H55	H	1.075316	-0.601079	0.000180
Cl56	Cl	0.779416	0.206742	0.349247
Cl57	Cl	0.329494	0.355129	0.000126
Cl58	Cl	0.800630	-0.415386	0.000089
H59	H	0.951809	0.038960	0.370843
Cl60	Cl	1.089426	0.127219	0.350442
Cl61	Cl	0.897052	0.324893	0.350793
H62	H	0.330076	0.064848	0.000209
H63	H	0.888830	0.290649	0.629417
Cl64	Cl	0.816596	0.058950	0.350891
Cl65	Cl	1.047011	0.285769	0.347058
H66	H	0.817978	-0.584363	0.000134
H67	H	0.781835	-0.209353	0.000107
Cl68	Cl	1.060381	-0.306726	0.000165
H69	H	1.064320	0.151282	0.627106
H70	H	0.442816	0.261778	0.000162
H71	H	0.853313	0.064590	0.629199
H72	H	0.164583	0.309653	0.000164
Cl73	Cl	0.809301	-0.354921	0.000108
H74	H	1.036153	0.254013	0.625596
Cl75	Cl	0.980880	0.016662	0.648545
H76	H	1.087853	-0.452293	0.000191
Cl77	Cl	0.165175	0.019377	0.000253
H78	H	0.556310	0.016172	0.000195
H79	H	0.426863	0.076578	0.000223
H80	H	1.051705	-0.077279	0.000211
Cl81	Cl	1.069049	-0.246257	0.000193
H82	H	0.794365	-0.060564	0.000125
