data_functionalizedCrystal
_audit_creation_method	'MofGen! by Chris Wilmer'
_symmetry_space_group_name_H-M	'P1'
_symmetry_Int_Tables_number	1
_symmetry_cell_setting	triclinic
loop_
_symmetry_equiv_pos_as_xyz
  x,y,z
_cell_length_a	10.686220
_cell_length_b	10.686285
_cell_length_c	10.686551
_cell_angle_alpha	99.084519
_cell_angle_beta	89.691918
_cell_angle_gamma	90.345431
loop_
_atom_site_label
_atom_site_type_symbol
_atom_site_fract_x
_atom_site_fract_y
_atom_site_fract_z
Zn1	Zn	1.994012	-0.307898	0.537149
Zn2	Zn	1.993911	-0.536485	0.308653
Zn3	Zn	1.770410	-0.340205	0.340818
Zn4	Zn	1.800161	-0.533926	0.534641
O5	O	1.889623	-0.429629	0.430315
O6	O	2.168662	-0.325771	0.494427
O7	O	1.951770	-0.525040	0.136178
O8	O	1.787663	-0.159182	0.381372
O9	O	2.168588	-0.493713	0.326552
O10	O	1.951942	-0.135446	0.525615
O11	O	1.787565	-0.380834	0.159810
O12	O	1.599693	-0.378352	0.378940
O13	O	1.838368	-0.489351	0.711715
O14	O	1.621551	-0.520678	0.521341
O15	O	1.980790	-0.323289	0.713557
O16	O	1.980618	-0.712883	0.324121
O17	O	1.838270	-0.711003	0.490153
C18	C	1.565334	-0.452744	0.453360
C19	C	1.426605	-0.462661	0.463246
C20	C	1.912697	-0.757764	0.403399
C21	C	1.922686	-0.898130	0.391919
C22	C	2.215179	-0.406424	0.407181
C23	C	2.353912	-0.396535	0.397323
C24	C	1.912909	-0.402431	0.759745
C25	C	1.922832	-0.390841	0.900128
C26	C	1.866495	-0.100207	0.457361
C27	C	1.856639	0.040173	0.468887
C28	C	1.866493	-0.456624	0.102170
C29	C	1.856787	-0.467841	-0.038201
H30	H	1.382704	-0.526872	0.527245
N31	N	1.771610	-0.887565	0.567811
H32	H	1.776290	-0.794172	0.562269
H33	H	1.798950	-0.901677	0.654800
N34	N	1.771835	-0.566919	0.889489
H35	H	1.776550	-0.561435	0.796090
H36	H	1.682919	-0.551740	0.920429
N37	N	2.007696	-0.970413	0.292975
H38	H	2.072969	-1.016714	0.335818
H39	H	2.050264	-0.909231	0.243271
N40	N	2.007800	-0.291761	0.972432
H41	H	2.073074	-0.334494	1.018838
H42	H	1.956703	-0.232408	1.035506
N43	N	1.412044	-0.311495	0.312537
H44	H	1.506230	-0.316225	0.317256
H45	H	1.384371	-0.221298	0.341339
