data_functionalizedCrystal
_audit_creation_method	'MofGen! by Chris Wilmer'
_symmetry_space_group_name_H-M	'P1'
_symmetry_Int_Tables_number	1
_symmetry_cell_setting	triclinic
loop_
_symmetry_equiv_pos_as_xyz
  x,y,z
_cell_length_a	18.101398
_cell_length_b	21.395361
_cell_length_c	21.395356
_cell_angle_alpha	90.030681
_cell_angle_beta	89.971090
_cell_angle_gamma	89.974026
loop_
_atom_site_label
_atom_site_type_symbol
_atom_site_fract_x
_atom_site_fract_y
_atom_site_fract_z
Zn1	Zn	1.132157	0.249534	-0.354337
Zn2	Zn	1.132043	0.354310	-0.249554
Zn3	Zn	1.008306	0.249542	-0.249564
Zn4	Zn	1.008267	0.354269	-0.354285
O5	O	1.070193	0.301913	-0.301935
O6	O	1.235774	0.263446	-0.340455
O7	O	1.115598	0.340433	-0.161878
O8	O	1.024798	0.161863	-0.263489
O9	O	1.235691	0.340425	-0.263472
O10	O	1.115791	0.161857	-0.340465
O11	O	1.024688	0.263460	-0.161885
O12	O	0.904668	0.263420	-0.263438
O13	O	1.024733	0.340354	-0.441970
O14	O	0.904639	0.340362	-0.340376
O15	O	1.115754	0.263406	-0.442008
O16	O	1.115561	0.441982	-0.263421
O17	O	1.024623	0.441952	-0.340366
C18	C	1.070095	0.464701	-0.301900
C19	C	1.070121	0.534342	-0.301906
C20	C	0.877783	0.301888	-0.301902
C21	C	0.795469	0.301892	-0.301903
C22	C	1.070251	0.301875	-0.465358
C23	C	1.070276	0.301858	-0.535000
C24	C	0.496378	0.301931	-0.301956
C25	C	0.527696	0.253279	-0.253785
C26	C	0.613314	0.253410	-0.253579
C27	C	0.644760	0.301911	-0.301930
C28	C	0.613641	0.367912	-0.283884
C29	C	0.527996	0.367642	-0.283549
C30	C	0.527998	0.285157	-0.368286
C31	C	0.613649	0.283687	-0.367925
C32	C	0.728620	0.301904	-0.301916
C33	C	0.412518	0.301943	-0.301968
C34	C	1.263355	0.301939	-0.301968
C35	C	1.345669	0.301951	-0.301982
C36	C	1.070311	0.138490	-0.301984
C37	C	1.070362	0.068849	-0.302005
C38	C	1.117515	0.567051	-0.261882
C39	C	1.117549	0.632486	-0.261896
C40	C	1.070177	0.665211	-0.301928
C41	C	1.022780	0.632495	-0.341960
C42	C	1.022752	0.567060	-0.341949
C43	C	1.003496	0.768920	-0.306832
C44	C	1.003523	0.834353	-0.306839
C45	C	1.070263	0.867031	-0.301965
C46	C	1.136979	0.834268	-0.297071
C47	C	1.136951	0.768834	-0.297060
C48	C	1.070202	0.736163	-0.301944
C49	C	1.117698	0.970692	-0.261953
C50	C	1.117734	1.036129	-0.261972
C51	C	1.022958	1.036136	-0.342032
C52	C	1.022929	0.970701	-0.342017
C53	C	1.070298	0.937983	-0.301974
C54	C	1.022952	0.261774	-0.567707
C55	C	1.022950	0.261762	-0.633142
C56	C	1.070284	0.301828	-0.665868
C57	C	1.117612	0.341920	-0.633153
C58	C	1.117608	0.341935	-0.567719
C59	C	1.137009	0.306759	-0.769559
C60	C	1.137014	0.306740	-0.834992
C61	C	1.070297	0.301786	-0.867689
C62	C	1.003571	0.296839	-0.834945
C63	C	1.003567	0.296853	-0.769510
C64	C	1.070294	0.301817	-0.736821
C65	C	1.022966	0.261687	-0.971349
C66	C	1.022962	0.261680	-1.036785
C67	C	1.117631	0.341835	-1.036795
C68	C	1.117628	0.341845	-0.971360
C69	C	1.070297	0.301768	-0.938640
C70	C	1.070178	0.301907	-0.139148
C71	C	1.070296	0.301747	-0.069507
H72	H	0.507126	0.204188	-0.264973
N73	N	0.640503	0.386064	-0.223709
N74	N	0.682556	0.350506	-0.194011
H75	H	0.701526	0.363322	-0.151511
H76	H	0.949144	0.742320	-0.310804
N77	N	0.974566	1.069564	-0.382916
N78	N	0.927406	1.106126	-0.360835
H79	H	0.893228	1.129738	-0.389711
H80	H	0.984409	0.229142	-0.541071
H81	H	0.506428	0.237867	-0.384693
N82	N	1.165896	0.533622	-0.220986
N83	N	1.213057	0.497053	-0.243053
H84	H	1.247222	0.473439	-0.214168
N85	N	1.165962	0.665896	-0.221002
N86	N	1.208248	0.636676	-0.185252
H87	H	1.242437	0.660270	-0.156368
N88	N	0.935383	0.867825	-0.311830
N89	N	0.916016	0.904379	-0.269269
H90	H	0.867890	0.928018	-0.272794
H91	H	0.984211	0.659143	-0.374555
H92	H	1.191343	0.310787	-0.742943
H93	H	0.507745	0.320593	-0.404178
H94	H	0.634355	0.204468	-0.264892
N95	N	0.639172	0.222761	-0.385007
N96	N	0.677096	0.215574	-0.433321
H97	H	0.695123	0.172545	-0.445385
H98	H	0.984334	0.944068	-0.374606
N99	N	0.974631	0.220720	-1.070195
N100	N	1.000726	0.180792	-1.106728
H101	H	0.966593	0.151861	-1.130324
N102	N	0.500649	0.267012	-0.192484
N103	N	0.463132	0.227387	-0.163603
H104	H	0.444026	0.237086	-0.120309
H105	H	0.984158	0.540429	-0.374542
H106	H	0.633763	0.264499	-0.204429
N107	N	0.640458	0.324938	-0.415351
N108	N	0.683120	0.368635	-0.401220
H109	H	0.702034	0.397787	-0.434710
N110	N	0.974601	0.220812	-0.666551
N111	N	0.932345	0.185035	-0.637330
H112	H	0.898199	0.156114	-0.660923
H113	H	0.949237	0.292826	-0.742852
H114	H	1.156152	0.374543	-0.659803
N115	N	1.166150	1.069530	-0.221078
N116	N	1.161265	1.062266	-0.163259
H117	H	1.195461	1.085855	-0.134376
N118	N	1.165980	0.382772	-1.070206
N119	N	1.161022	0.440587	-1.062874
H120	H	1.195168	0.469503	-1.086473
H121	H	0.949244	0.292800	-0.861565
N122	N	1.205100	0.735377	-0.292061
N123	N	1.264688	0.764554	-0.287707
H124	H	1.312820	0.740926	-0.284178
H125	H	1.191326	0.860873	-0.293102
H126	H	0.984425	0.229054	-0.944707
N127	N	1.166086	0.937276	-0.221049
N128	N	1.208405	0.966492	-0.185318
H129	H	1.242579	0.942894	-0.156429
H130	H	1.156166	0.374485	-0.944729
H131	H	1.191346	0.310765	-0.861648
H132	H	0.507979	0.381868	-0.235058
H133	H	0.507277	0.405118	-0.317104
H134	H	1.156148	0.374576	-0.541089
H135	H	0.634009	0.405133	-0.317871
