data_functionalizedCrystal
_audit_creation_method	'MofGen! by Chris Wilmer'
_symmetry_space_group_name_H-M	'P1'
_symmetry_Int_Tables_number	1
_symmetry_cell_setting	triclinic
loop_
_symmetry_equiv_pos_as_xyz
  x,y,z
_cell_length_a	10.723024
_cell_length_b	13.596369
_cell_length_c	10.723024
_cell_angle_alpha	90.004647
_cell_angle_beta	95.532131
_cell_angle_gamma	89.994478
loop_
_atom_site_label
_atom_site_type_symbol
_atom_site_fract_x
_atom_site_fract_y
_atom_site_fract_z
O1	O	1.657191	-0.081782	-0.175029
O2	O	1.294038	-0.081785	-0.191782
O3	O	1.483991	-0.081780	-0.001829
O4	O	1.467238	-0.081788	-0.364982
O5	O	1.483970	0.081803	-0.001820
O6	O	1.294017	0.081797	-0.191773
O7	O	1.657170	0.081801	-0.175019
Zn8	Zn	1.475590	0.107771	-0.183395
Zn9	Zn	1.475618	-0.107756	-0.183407
O10	O	1.467217	0.081795	-0.364972
C11	C	1.247528	0.000006	-0.190558
C12	C	1.108974	0.000004	-0.186911
N13	N	1.475580	0.254863	-0.183385
C14	C	1.033991	0.000002	-0.293198
C15	C	0.890788	0.000000	-0.289431
C16	C	1.475607	0.656154	-0.183412
C17	C	1.475596	0.544503	-0.183409
C18	C	1.475594	0.455512	-0.183400
C19	C	1.475582	0.343854	-0.183394
C20	C	1.703680	0.000007	-0.176243
C21	C	1.842234	0.000002	-0.179891
C22	C	1.482762	0.000010	0.044675
C23	C	1.479114	0.000007	0.183229
N24	N	1.475626	0.745152	-0.183411
C25	C	1.468447	0.000003	-0.411477
C26	C	1.472094	-0.000000	-0.550031
C27	C	1.585401	0.000006	0.258212
C28	C	1.581634	0.000003	0.401415
H29	H	0.826355	-0.000006	-0.380421
H30	H	1.381099	0.000007	0.385544
H31	H	1.672624	0.000007	0.465848
C32	C	1.354141	-0.000151	0.239150
C33	C	1.345661	-0.084301	0.313110
C34	C	1.230558	-0.084474	0.364653
H35	H	1.287837	-0.000200	0.173668
H36	H	1.348130	0.056862	0.289452
H37	H	1.351660	-0.141300	0.262811
H38	H	1.411939	-0.084270	0.378612
H39	H	1.224547	-0.027460	0.414954
H40	H	1.164263	-0.084521	0.299163
H41	H	1.224794	-0.141564	0.414849
H42	H	1.075814	0.000005	-0.386984
C43	C	1.053464	0.000055	-0.061724
C44	C	1.150393	0.000080	0.035603
C45	C	1.099310	0.000139	0.150945
H46	H	1.003266	-0.056975	-0.055560
H47	H	1.003272	0.057123	-0.055661
H48	H	1.200564	-0.056982	0.029543
H49	H	1.200599	0.057105	0.029480
H50	H	1.049117	0.057207	0.157009
H51	H	1.049112	-0.056891	0.157097
H52	H	1.165067	0.000166	0.216996
H53	H	1.679187	0.000013	0.216390
H54	H	0.906659	-0.000002	-0.088896
