data_functionalizedCrystal
_audit_creation_method	'MofGen! by Chris Wilmer'
_symmetry_space_group_name_H-M	'P1'
_symmetry_Int_Tables_number	1
_symmetry_cell_setting	triclinic
loop_
_symmetry_equiv_pos_as_xyz
  x,y,z
_cell_length_a	10.654545
_cell_length_b	9.130313
_cell_length_c	10.654550
_cell_angle_alpha	90.001126
_cell_angle_beta	84.484005
_cell_angle_gamma	89.999803
loop_
_atom_site_label
_atom_site_type_symbol
_atom_site_fract_x
_atom_site_fract_y
_atom_site_fract_z
O1	O	1.667837	0.121784	0.176366
O2	O	2.167837	0.621784	0.676366
O3	O	1.302358	0.121790	0.193178
O4	O	1.802358	0.621790	0.693178
O5	O	1.493501	0.121778	0.002033
O6	O	1.993501	0.621778	0.502033
O7	O	1.476695	0.121797	0.367512
O8	O	1.976695	0.621797	0.867512
O9	O	1.493498	-0.121821	0.002038
O10	O	1.993498	0.378179	0.502038
O11	O	1.302356	-0.121808	0.193183
O12	O	1.802356	0.378192	0.693183
O13	O	1.667835	-0.121814	0.176371
O14	O	2.167835	0.378186	0.676371
Cu15	Cu	1.485095	-0.144054	0.184778
Cu16	Cu	1.985095	0.355946	0.684778
Cu17	Cu	1.485098	0.144030	0.184772
Cu18	Cu	1.985098	0.644030	0.684772
O19	O	1.476692	-0.121802	0.367517
O20	O	1.976692	0.378198	0.867517
C21	C	1.255559	-0.000008	0.191948
C22	C	1.755559	0.499992	0.691948
C23	C	1.116115	-0.000006	0.188258
C24	C	1.616115	0.499994	0.688258
N25	N	1.485102	-0.346677	0.184782
N26	N	1.985102	0.153323	0.684782
C27	C	1.050610	-0.132793	0.186524
C28	C	1.550610	0.367207	0.686524
C29	C	0.919590	-0.132793	0.183036
C30	C	1.419590	0.367207	0.683036
C31	C	0.919593	0.132792	0.183022
C32	C	1.419593	0.632792	0.683022
C33	C	1.050611	0.132791	0.186501
C34	C	1.550611	0.632791	0.686501
C35	C	1.569762	-0.423334	0.100171
C36	C	2.069762	0.076666	0.600171
C37	C	1.569759	-0.576671	0.100156
C38	C	2.069759	-0.076671	0.600156
C39	C	1.400432	-0.576679	0.269373
C40	C	1.900432	-0.076679	0.769373
C41	C	1.400430	-0.423345	0.269381
C42	C	1.900430	0.076655	0.769381
C43	C	1.654435	-0.346665	0.015572
C44	C	2.154435	0.153335	0.515572
C45	C	1.739102	-0.423323	-0.069044
C46	C	2.239102	0.076677	0.430956
C47	C	1.739099	-0.576660	-0.069059
C48	C	2.239099	-0.076660	0.430941
C49	C	1.654428	-0.653339	0.015542
C50	C	2.154428	-0.153339	0.515542
C51	C	1.714634	-0.000013	0.177602
C52	C	2.214634	0.499987	0.677602
C53	C	1.854078	-0.000005	0.181292
C54	C	2.354078	0.499995	0.681292
C55	C	1.492266	-0.000021	-0.044762
C56	C	1.992266	0.499979	0.455238
C57	C	1.488574	-0.000018	-0.184206
C58	C	1.988574	0.499982	0.315794
N59	N	1.485101	0.346653	0.184758
N60	N	1.985101	0.846653	0.684758
C61	C	1.601115	-0.000020	-0.263693
C62	C	2.101115	0.499980	0.236307
C63	C	1.597639	-0.000002	-0.394714
C64	C	2.097639	0.499998	0.105286
C65	C	1.369069	0.000013	-0.366747
C66	C	1.869069	0.500013	0.133253
C67	C	1.372547	0.000005	-0.235729
C68	C	1.872547	0.500005	0.264271
C69	C	1.477927	-0.000000	0.414312
C70	C	1.977927	0.500000	0.914312
C71	C	1.481619	0.000007	0.553755
C72	C	1.981619	0.500007	1.053755
H73	H	1.103939	-0.240924	0.187955
H74	H	1.603939	0.259076	0.687955
H75	H	0.866244	0.240910	0.181593
H76	H	1.366244	0.740910	0.681593
H77	H	1.274604	0.000029	-0.408713
H78	H	1.774604	0.500029	0.091287
Cl79	Cl	1.654448	-0.153900	0.015591
Cl80	Cl	2.154448	0.346100	0.515591
H81	H	0.866261	-0.240921	0.181625
H82	H	1.366261	0.259079	0.681625
H83	H	1.689282	0.000000	-0.459428
H84	H	2.189282	0.500000	0.040572
H85	H	1.280896	0.000011	-0.171006
H86	H	1.780896	0.500011	0.328994
H87	H	1.103948	0.240928	0.187910
H88	H	1.603948	0.740928	0.687910
H89	H	1.808030	-0.639073	-0.137965
H90	H	2.308030	-0.139073	0.362035
H91	H	1.331491	-0.360930	0.338277
H92	H	1.831491	0.139070	0.838277
Cl93	Cl	1.845529	-0.326931	-0.175404
Cl94	Cl	2.345529	0.173069	0.324596
H95	H	1.654424	-0.778196	0.015514
H96	H	2.154424	-0.278196	0.515514
Cl97	Cl	1.294000	-0.673076	0.375725
Cl98	Cl	1.794000	-0.173076	0.875725
H99	H	1.695592	-0.000036	-0.221748
H100	H	2.195592	0.499964	0.278252
