data_functionalizedCrystal
_audit_creation_method	'MofGen! by Chris Wilmer'
_symmetry_space_group_name_H-M	'P1'
_symmetry_Int_Tables_number	1
_symmetry_cell_setting	triclinic
loop_
_symmetry_equiv_pos_as_xyz
  x,y,z
_cell_length_a	14.044220
_cell_length_b	14.044220
_cell_length_c	11.892095
_cell_angle_alpha	94.243827
_cell_angle_beta	85.750402
_cell_angle_gamma	93.188878
loop_
_atom_site_label
_atom_site_type_symbol
_atom_site_fract_x
_atom_site_fract_y
_atom_site_fract_z
O1	O	1.282749	0.224587	-0.093887
O2	O	1.006079	0.216280	-0.093915
O3	O	1.140261	0.082098	-0.093890
O4	O	1.148568	0.358769	-0.093912
O5	O	1.129072	0.093267	0.094115
O6	O	0.994890	0.227449	0.094090
O7	O	1.271560	0.235756	0.094118
Zn8	Zn	1.131448	0.233376	0.123954
Zn9	Zn	1.146191	0.218660	-0.123751
O10	O	1.137378	0.369938	0.094094
C11	C	0.964863	0.218228	0.000084
C12	C	0.858721	0.207383	0.000073
C13	C	1.131031	0.052061	0.000112
C14	C	1.120186	-0.054082	0.000113
C15	C	0.664382	0.187558	0.000097
C16	C	0.613252	0.264473	0.000096
C17	C	0.505115	0.253442	0.000109
C18	C	0.772529	0.198588	0.000084
C19	C	1.100361	-0.248421	0.000094
C20	C	1.177275	-0.299550	0.000099
C21	C	1.166244	-0.407687	0.000089
C22	C	1.111390	-0.140274	0.000105
C23	C	1.312776	0.233807	0.000117
C24	C	1.418919	0.244652	0.000120
C25	C	1.146609	0.399975	0.000088
C26	C	1.157454	0.506117	0.000081
N27	N	1.121394	0.243419	0.293006
N28	N	1.156252	0.208610	-0.292803
C29	C	1.226211	0.138672	0.529674
C30	C	1.219191	0.145699	0.648014
C31	C	1.100328	0.264496	0.648030
C32	C	1.107349	0.257468	0.529690
C33	C	1.170293	0.194555	0.470516
C34	C	1.177318	0.187533	0.352173
C35	C	1.058451	0.306324	0.352191
C36	C	1.051431	0.313352	0.470532
H37	H	0.650692	0.338605	0.000085
C38	C	0.613805	0.087414	0.000102
N39	N	0.575700	0.011985	0.000101
C40	C	1.277425	-0.248972	0.000125
N41	N	1.352855	-0.210872	0.000151
H42	H	1.228573	0.136309	0.303994
H43	H	1.026234	-0.285858	0.000084
H44	H	1.277470	0.087452	0.481493
C45	C	1.280702	0.084219	0.713084
N46	N	1.327033	0.037908	0.762095
H47	H	1.049074	0.315711	0.696225
C48	C	0.982188	0.382545	0.535636
N49	N	0.930033	0.434663	0.584672
C50	C	0.996937	0.367800	0.287107
N51	N	0.950608	0.414104	0.238085
