data_functionalizedCrystal
_audit_creation_method	'MofGen! by Chris Wilmer'
_symmetry_space_group_name_H-M	'P1'
_symmetry_Int_Tables_number	1
_symmetry_cell_setting	triclinic
loop_
_symmetry_equiv_pos_as_xyz
  x,y,z
_cell_length_a	14.908993
_cell_length_b	19.077068
_cell_length_c	19.077569
_cell_angle_alpha	89.935763
_cell_angle_beta	91.113091
_cell_angle_gamma	84.510225
loop_
_atom_site_label
_atom_site_type_symbol
_atom_site_fract_x
_atom_site_fract_y
_atom_site_fract_z
Zn1	Zn	1.386330	0.203937	-0.343809
Zn2	Zn	1.886330	0.703937	0.156191
Zn3	Zn	1.374117	0.326694	-0.231585
Zn4	Zn	1.874117	0.826694	0.268415
Zn5	Zn	1.229209	0.215461	-0.233652
Zn6	Zn	1.729209	0.715461	0.266348
Zn7	Zn	1.229639	0.328178	-0.355799
Zn8	Zn	1.729639	0.828178	0.144201
O9	O	1.304824	0.268568	-0.291211
O10	O	1.804824	0.768568	0.208789
O11	O	1.510931	0.214777	-0.323040
O12	O	2.010931	0.714777	0.176960
O13	O	1.349604	0.316141	-0.133774
O14	O	1.849604	0.816141	0.366226
O15	O	1.254983	0.115386	-0.244111
O16	O	1.754983	0.615386	0.255889
O17	O	1.501958	0.304966	-0.240589
O18	O	2.001958	0.804966	0.259411
O19	O	1.370419	0.106919	-0.325044
O20	O	1.870419	0.606919	0.174956
O21	O	1.243140	0.234419	-0.135292
O22	O	1.743140	0.734419	0.364708
O23	O	1.103046	0.235857	-0.255737
O24	O	1.603046	0.735857	0.244263
O25	O	1.255716	0.307495	-0.452294
O26	O	1.755716	0.807495	0.047706
O27	O	1.103362	0.318669	-0.345478
O28	O	1.603362	0.818669	0.154522
O29	O	1.370836	0.216215	-0.443485
O30	O	1.870836	0.716215	0.056515
O31	O	1.350020	0.425438	-0.252215
O32	O	1.850020	0.925438	0.247785
O33	O	1.243873	0.426528	-0.343474
O34	O	1.743873	0.926528	0.156526
C35	C	1.070476	0.278675	-0.302134
C36	C	1.570476	0.778675	0.197866
C37	C	0.970221	0.283016	-0.306824
C38	C	1.470221	0.783016	0.193176
C39	C	0.781464	0.204799	-0.222309
C40	C	1.281464	0.704799	0.277691
C41	C	0.687265	0.208875	-0.226713
C42	C	1.187265	0.708875	0.273287
C43	C	0.687623	0.295247	-0.320033
C44	C	1.187623	0.795247	0.179967
C45	C	0.781822	0.291171	-0.315628
C46	C	1.281822	0.791171	0.184372
C47	C	0.828739	0.245945	-0.266766
C48	C	1.328739	0.745945	0.233234
C49	C	0.922940	0.241865	-0.262365
C50	C	1.422940	0.741865	0.237635
C51	C	0.923295	0.328241	-0.355681
C52	C	1.423295	0.828241	0.144319
C53	C	0.829097	0.332317	-0.360085
C54	C	1.329097	0.832317	0.139915
C55	C	1.295693	0.451533	-0.298936
C56	C	1.795693	0.951533	0.201064
C57	C	1.291871	0.529802	-0.302260
C58	C	1.791871	1.029802	0.197740
C59	C	1.314686	0.260735	-0.474033
C60	C	1.814686	0.760735	0.025967
C61	C	1.318889	0.257397	-0.551940
C62	C	1.818889	0.757397	-0.051940
C63	C	1.540087	0.258421	-0.280247
C64	C	2.040087	0.758421	0.219753
C65	C	1.640342	0.254097	-0.275574
C66	C	2.140342	0.754097	0.224426
C67	C	1.314015	0.084886	-0.283471
C68	C	1.814015	0.584886	0.216529
C69	C	1.317932	0.006612	-0.280172
C70	C	1.817932	0.506612	0.219828
C71	C	1.345388	0.565978	-0.256343
C72	C	1.845388	1.065978	0.243657
C73	C	1.341798	0.639520	-0.259473
C74	C	1.841798	1.139520	0.240527
C75	C	1.284687	0.676884	-0.308518
C76	C	1.784687	1.176884	0.191482
C77	C	1.231168	0.640702	-0.354440
C78	C	1.731168	1.140702	0.145560
C79	C	1.234763	0.567161	-0.351312
C80	C	1.734763	1.067161	0.148688
C81	C	1.268009	0.896890	-0.322966
C82	C	1.768009	1.396890	0.177034
C83	C	1.264416	0.970435	-0.326089
C84	C	1.764416	1.470435	0.173911
C85	C	1.375047	0.969248	-0.231123
C86	C	1.875047	1.469248	0.268877
C87	C	1.378633	0.895707	-0.227997
C88	C	1.878633	1.395707	0.272003
C89	C	1.325118	0.859531	-0.273921
C90	C	1.825118	1.359531	0.226079
N91	N	1.281014	0.752055	-0.311717
N92	N	1.781014	1.252055	0.188283
N93	N	1.328796	0.784361	-0.270725
N94	N	1.828796	1.284361	0.229275
C95	C	1.260928	0.303350	-0.593129
C96	C	1.760928	0.803350	-0.093129
C97	C	1.264884	0.300213	-0.666331
C98	C	1.764884	0.800213	-0.166331
C99	C	1.326798	0.251120	-0.698343
C100	C	1.826798	0.751120	-0.198343
C101	C	1.384766	0.205165	-0.657149
C102	C	1.884766	0.705165	-0.157149
C103	C	1.380813	0.208306	-0.583949
C104	C	1.880813	0.708306	-0.083949
C105	C	1.345051	0.236635	-0.916778
C106	C	1.845051	0.736635	-0.416778
C107	C	1.348997	0.233496	-0.989984
C108	C	1.848997	0.733496	-0.489984
C109	C	1.229117	0.328545	-0.999161
C110	C	1.729117	0.828545	-0.499161
C111	C	1.225166	0.331678	-0.925958
C112	C	1.725166	0.831678	-0.425958
C113	C	1.283136	0.285726	-0.884771
C114	C	1.783136	0.785726	-0.384771
N115	N	1.330842	0.247911	-0.773167
N116	N	1.830842	0.747911	-0.273167
N117	N	1.279096	0.288939	-0.809948
N118	N	1.779096	0.788939	-0.309948
C119	C	1.295054	0.276317	-0.109096
C120	C	1.795054	0.776317	0.390904
C121	C	1.291036	0.279449	-0.031173
C122	C	1.791036	0.779449	0.468827
H123	H	0.961138	0.205035	-0.222583
H124	H	1.461138	0.705035	0.277417
H125	H	1.174763	0.371666	-0.899899
H126	H	1.674763	0.871666	-0.399899
F127	F	0.973617	0.372023	-0.403008
F128	F	1.473617	0.872023	0.096992
F129	F	1.432002	1.007754	-0.182254
F130	F	1.932002	1.507754	0.317746
F131	F	1.406168	0.526220	-0.204138
F132	F	1.906168	1.026220	0.295862
F133	F	1.398761	0.678018	-0.210604
F134	F	1.898761	1.178018	0.289396
F135	F	1.439429	0.855946	-0.175804
F136	F	1.939429	1.355946	0.324196
H137	H	0.649407	0.332075	-0.359808
H138	H	1.149407	0.832075	0.140192
F139	F	0.636955	0.165083	-0.179395
F140	F	1.136955	0.665083	0.320605
H141	H	1.181921	0.365957	-1.032703
H142	H	1.681921	0.865957	-0.532703
F143	F	1.203618	1.010200	-0.378285
F144	F	1.703618	1.510200	0.121715
H145	H	0.819665	0.167965	-0.182531
H146	H	1.319665	0.667965	0.317469
F147	F	1.442506	0.159399	-0.540113
F148	F	1.942506	0.659399	-0.040113
H149	H	1.210500	0.343319	-0.567070
H150	H	1.710500	0.843319	-0.067070
F151	F	0.779154	0.380455	-0.412078
F152	F	1.279154	0.880455	0.087922
H153	H	1.224433	0.867441	-0.360359
H154	H	1.724433	1.367441	0.139641
F155	F	1.170391	0.680469	-0.406641
F156	F	1.670391	1.180469	0.093359
H157	H	1.392255	0.199217	-0.883252
H158	H	1.892255	0.699217	-0.383252
F159	F	1.177806	0.528660	-0.400185
F160	F	1.677806	1.028660	0.099815
F161	F	1.203200	0.349127	-0.710164
F162	F	1.703200	0.849127	-0.210164
F163	F	1.414868	0.181219	-1.024053
F164	F	1.914868	0.681219	-0.524053
H165	H	1.435181	0.165196	-0.683220
H166	H	1.935181	0.665196	-0.183220
