data_functionalizedCrystal
_audit_creation_method	'MofGen! by Chris Wilmer'
_symmetry_space_group_name_H-M	'P1'
_symmetry_Int_Tables_number	1
_symmetry_cell_setting	triclinic
loop_
_symmetry_equiv_pos_as_xyz
  x,y,z
_cell_length_a	16.959455
_cell_length_b	16.959447
_cell_length_c	12.827892
_cell_angle_alpha	90.026960
_cell_angle_beta	89.985180
_cell_angle_gamma	89.982678
loop_
_atom_site_label
_atom_site_type_symbol
_atom_site_fract_x
_atom_site_fract_y
_atom_site_fract_z
Zn1	Zn	1.208430	-0.446936	0.416028
Zn2	Zn	1.208357	-0.314765	0.590796
Zn3	Zn	1.076252	-0.314772	0.416068
Zn4	Zn	1.076234	-0.446903	0.590725
O5	O	1.142318	-0.380844	0.503404
O6	O	1.319031	-0.429414	0.439224
O7	O	1.190811	-0.204155	0.567665
O8	O	1.093824	-0.332321	0.269827
O9	O	1.318978	-0.332308	0.567625
O10	O	1.190934	-0.429421	0.269797
O11	O	1.093754	-0.204160	0.439293
O12	O	0.965639	-0.332289	0.439224
O13	O	1.093793	-0.557518	0.567505
O14	O	0.965625	-0.429365	0.567544
O15	O	1.190917	-0.557542	0.439155
O16	O	1.190793	-0.332277	0.737023
O17	O	1.093722	-0.429358	0.736971
C18	C	0.936952	-0.380824	0.503382
C19	C	0.849095	-0.380835	0.503397
C20	C	0.807792	-0.330205	0.570155
C21	C	0.807846	-0.431471	0.436648
C22	C	0.725300	-0.431481	0.436656
C23	C	0.683996	-0.380851	0.503413
C24	C	0.725238	-0.330211	0.570163
C25	C	0.684051	-0.482114	0.369900
C26	C	0.601500	-0.482125	0.369905
C27	C	0.560195	-0.431498	0.436669
C28	C	0.601443	-0.380857	0.503422
C29	C	0.560139	-0.330227	0.570179
C30	C	0.601385	-0.279589	0.636938
C31	C	0.683933	-0.279584	0.636927
C32	C	0.477647	-0.431503	0.436680
C33	C	0.477585	-0.330233	0.570187
C34	C	1.142361	-0.587012	0.503317
C35	C	1.142379	-0.674869	0.503280
C36	C	1.091915	-1.046354	0.436333
C37	C	1.192981	-1.046336	0.570008
C38	C	1.192968	-0.963790	0.570032
C39	C	1.142426	-0.922522	0.503207
C40	C	1.091898	-0.963800	0.436357
C41	C	1.243489	-0.922505	0.636888
C42	C	1.243477	-0.839954	0.636916
C43	C	1.192938	-0.798685	0.570085
C44	C	1.142409	-0.839968	0.503232
C45	C	1.091868	-0.798701	0.436406
C46	C	1.041342	-0.839982	0.369547
C47	C	1.041360	-0.922531	0.369526
C48	C	1.192920	-0.716137	0.570106
C49	C	1.091851	-0.716147	0.436431
C50	C	1.348487	-0.380864	0.503428
C51	C	1.436343	-0.380872	0.503438
C52	C	1.142269	-0.380830	0.774914
C53	C	1.142320	-0.380850	0.891067
C54	C	1.142322	-0.175478	0.503415
C55	C	1.142457	-0.087621	0.503158
C56	C	1.142390	-0.380875	0.230834
C57	C	1.142420	-0.380889	0.114681
C58	C	1.190411	-0.332865	0.942843
C59	C	1.190465	-0.332885	1.062894
H60	H	0.567744	-0.238363	0.691288
H61	H	1.101191	-0.421950	0.935617
O62	O	1.037339	-0.671643	0.364346
H63	H	1.045816	-0.607306	0.375588
H64	H	0.717687	-0.523331	0.315546
O65	O	0.433036	-0.275619	0.642185
H66	H	0.475587	-0.240405	0.688594
H67	H	1.231546	-0.291770	0.898296
H68	H	0.444068	-0.472725	0.382318
O69	O	0.557015	-0.536741	0.297911
H70	H	0.599605	-0.571948	0.251494
H71	H	0.841378	-0.288979	0.624511
O72	O	0.986832	-0.795471	0.297467
H73	H	0.995315	-0.731135	0.308719
H74	H	0.717523	-0.238356	0.691276
H75	H	1.231635	-0.291801	1.107420
H76	H	0.841480	-0.472688	0.382292
H77	H	1.000224	-0.956150	0.315094
H78	H	1.050781	-1.079969	0.381895
O79	O	1.087876	-0.435305	1.055708
H80	H	1.025844	-0.421701	1.076673
O81	O	1.247493	-1.090839	0.642082
H82	H	1.239018	-1.155176	0.630831
O83	O	1.297999	-0.967011	0.708962
H84	H	1.289528	-1.031347	0.697702
H85	H	1.284617	-0.806350	0.691358
H86	H	1.234063	-0.682529	0.624534
