data_functionalizedCrystal
_audit_creation_method	'MofGen! by Chris Wilmer'
_symmetry_space_group_name_H-M	'P1'
_symmetry_Int_Tables_number	1
_symmetry_cell_setting	triclinic
loop_
_symmetry_equiv_pos_as_xyz
  x,y,z
_cell_length_a	25.639239
_cell_length_b	15.298073
_cell_length_c	15.296720
_cell_angle_alpha	88.353317
_cell_angle_beta	80.361144
_cell_angle_gamma	80.304176
loop_
_atom_site_label
_atom_site_type_symbol
_atom_site_fract_x
_atom_site_fract_y
_atom_site_fract_z
Zn1	Zn	-0.155569	-1.253300	0.727375
Zn2	Zn	-0.225791	-1.278530	0.580894
Zn3	Zn	-0.150486	-1.132183	0.555539
Zn4	Zn	-0.255099	-1.106746	0.701906
O5	O	-0.196736	-1.192690	0.641428
O6	O	-0.154746	-1.379226	0.729214
O7	O	-0.201409	-1.280320	0.454972
O8	O	-0.077991	-1.148336	0.578381
O9	O	-0.206338	-1.397763	0.621595
O10	O	-0.081726	-1.237320	0.704628
O11	O	-0.146083	-1.172800	0.436344
O12	O	-0.174501	-1.006229	0.553685
O13	O	-0.256289	-1.104983	0.827843
O14	O	-0.251360	-0.987541	0.661220
O15	O	-0.183165	-1.212655	0.846555
O16	O	-0.302848	-1.255655	0.596898
O17	O	-0.324381	-1.129447	0.685806
C18	C	-0.215560	-0.965101	0.601938
C19	C	-0.223628	-0.867734	0.585065
C20	C	-0.139177	-0.554611	0.761984
C21	C	-0.131598	-0.646091	0.777842
C22	C	-0.154605	-0.701506	0.729649
C23	C	-0.185191	-0.665432	0.665595
C24	C	-0.192773	-0.573942	0.649740
C25	C	-0.208202	-0.720838	0.617405
C26	C	-0.238788	-0.684764	0.553351
C27	C	-0.246369	-0.593282	0.537498
C28	C	-0.223362	-0.537867	0.585692
C29	C	-0.200620	-0.812328	0.633260
C30	C	-0.254217	-0.831659	0.521016
C31	C	-0.261795	-0.740179	0.505158
C32	C	-0.332587	-1.192549	0.641363
C33	C	-0.390701	-1.192564	0.641378
C34	C	-0.739831	-1.258536	0.595255
C35	C	-0.794434	-1.258568	0.595273
O36	O	-0.813127	-1.314514	0.555987
N37	N	-0.832970	-1.192834	0.641513
C38	C	-0.816901	-1.127068	0.687746
O39	O	-0.854693	-1.071159	0.727080
C40	C	-0.762299	-1.127041	0.687733
C41	C	-0.723765	-1.192774	0.641483
C42	C	-0.701297	-1.324265	0.549009
C43	C	-0.646698	-1.324232	0.548990
C44	C	-0.630633	-1.258470	0.595218
C45	C	-0.669166	-1.192741	0.641464
C46	C	-0.746231	-1.061280	0.733971
C47	C	-0.691625	-1.061258	0.733955
C48	C	-0.653091	-1.126992	0.687704
C49	C	-0.598501	-1.126946	0.687672
N50	N	-0.559965	-1.192680	0.641432
C51	C	-0.576031	-1.258442	0.595205
C52	C	-0.931568	-1.127132	0.687771
C53	C	-0.986168	-1.127155	0.687780
C54	C	-0.963697	-1.258656	0.595307
C55	C	-0.909096	-1.258628	0.595294
C56	C	-0.893032	-1.192866	0.641531
C57	C	-0.461369	-1.258367	0.595168
C58	C	-0.406766	-1.258326	0.595150
C59	C	-0.429242	-1.126828	0.687626
C60	C	-0.483840	-1.126866	0.687640
C61	C	-0.499902	-1.192643	0.641410
O62	O	-0.579768	-1.071030	0.726941
O63	O	-0.538234	-1.314348	0.555887
C64	C	-0.060356	-1.192851	0.641518
C65	C	-0.002239	-1.192920	0.641556
C66	C	-0.223563	-1.153167	0.869865
C67	C	-0.234995	-1.136325	0.967211
C68	C	-0.177834	-0.421168	0.681065
C69	C	-0.169765	-0.518536	0.697936
C70	C	-0.169972	-1.232109	0.413889
C71	C	-0.158379	-1.249120	0.316573
C72	C	-0.114936	-1.313095	1.280585
C73	C	-0.104195	-1.328924	1.189124
C74	C	-0.136894	-1.280776	1.133642
C75	C	-0.180336	-1.216795	1.169629
C76	C	-0.191080	-1.200969	1.261099
C77	C	-0.213038	-1.168650	1.114156
C78	C	-0.256480	-1.104670	1.150142
C79	C	-0.267222	-1.088846	1.241604
C80	C	-0.234523	-1.136995	1.297087
C81	C	-0.202294	-1.184476	1.022685
C82	C	-0.278438	-1.072351	1.003199
C83	C	-0.289179	-1.056521	1.094660
H84	H	-0.375392	-1.311855	0.557484
H85	H	-0.515217	-1.073343	0.725305
H86	H	-0.068826	-1.381019	1.159831
Cl87	Cl	-0.319550	-1.011822	0.933457
H88	H	-0.175715	-0.841690	0.685413
Cl89	Cl	-0.321842	-1.008428	1.286845
H90	H	-0.088320	-1.352295	1.325767
Cl91	Cl	-0.598263	-1.406884	0.490859
H92	H	-0.877723	-1.312155	0.557633
Cl93	Cl	-0.983905	-1.341328	0.537190
H94	H	-0.148431	-0.775993	0.742562
Cl95	Cl	-0.300245	-0.694818	0.424636
H96	H	-0.128147	-1.293668	1.059171
H97	H	-0.243265	-1.124110	1.371562
Cl98	Cl	-0.283143	-0.901317	0.460430
H99	H	-0.416153	-1.073283	0.725261
Cl100	Cl	-0.481552	-1.341058	0.537047
H101	H	-0.714371	-1.377821	0.511366
H102	H	-0.120452	-0.509483	0.801221
Cl103	Cl	-0.093151	-0.691434	0.858367
Cl104	Cl	-0.232886	-0.422858	0.565756
H105	H	-0.324549	-1.004428	1.123973
Cl106	Cl	-0.284818	-0.547935	0.456971
H107	H	-1.017539	-1.073621	0.725432
H108	H	-0.918493	-1.073574	0.725419
Cl109	Cl	-0.794662	-0.978646	0.792131
Cl110	Cl	-0.671434	-0.978581	0.792086
H111	H	-0.166923	-1.236569	0.993394
