data_functionalizedCrystal
_audit_creation_method	'MofGen! by Chris Wilmer'
_symmetry_space_group_name_H-M	'P1'
_symmetry_Int_Tables_number	1
_symmetry_cell_setting	triclinic
loop_
_symmetry_equiv_pos_as_xyz
  x,y,z
_cell_length_a	10.540539
_cell_length_b	10.908878
_cell_length_c	9.482900
_cell_angle_alpha	97.015199
_cell_angle_beta	80.617679
_cell_angle_gamma	72.305141
loop_
_atom_site_label
_atom_site_type_symbol
_atom_site_fract_x
_atom_site_fract_y
_atom_site_fract_z
O1	O	1.670106	0.160742	-0.120824
O2	O	1.296952	0.177757	-0.120842
O3	O	1.532994	-0.017228	-0.120825
O4	O	1.434064	0.355726	-0.120841
O5	O	1.485015	0.022538	0.120964
O6	O	1.248972	0.217523	0.120947
O7	O	1.622127	0.200508	0.120965
Cu8	Cu	1.431169	0.212646	0.143034
Cu9	Cu	1.487910	0.165618	-0.142910
O10	O	1.386085	0.395493	0.120949
C11	C	1.518251	-0.045102	0.000068
C12	C	1.545786	-0.187402	0.000065
C13	C	1.225940	0.196363	0.000051
C14	C	1.085834	0.192544	0.000044
C15	C	1.445319	-0.237334	0.000057
C16	C	1.473776	-0.384409	0.000053
C17	C	0.934492	0.046330	0.000615
C18	C	1.080370	0.050109	0.000055
C19	C	1.036474	0.238382	-0.138027
C20	C	0.891020	0.233505	-0.138127
C21	C	0.835332	0.281624	0.136832
C22	C	0.981666	0.283234	0.138642
C23	C	1.693139	0.181901	0.000070
C24	C	1.833247	0.185719	0.000067
C25	C	1.400829	0.423366	0.000052
C26	C	1.373295	0.565665	0.000046
N27	N	1.391269	0.245723	0.344151
N28	N	1.527822	0.132532	-0.344027
C29	C	1.476134	0.175368	0.416356
C30	C	1.442944	0.202898	0.583771
H31	H	1.338238	-0.171197	0.000061
H32	H	1.345707	0.283513	0.645889
H33	H	0.936155	-0.025896	-0.097848
H34	H	0.981385	0.388450	0.146974
H35	H	1.573358	0.094747	0.354235
H36	H	1.109931	0.173867	-0.240778
H37	H	0.765279	0.384658	0.137760
H38	H	1.625052	0.051907	0.593855
H39	H	1.266205	-0.368202	0.000055
H40	H	1.652865	-0.253537	0.000074
H41	H	1.580862	-0.450539	0.000063
H42	H	1.115213	0.012452	0.099030
H43	H	1.294039	0.326333	0.406274
H44	H	1.013379	0.249957	0.240786
H45	H	0.898642	0.006345	0.099633
H46	H	1.153742	-0.020512	-0.099088
H47	H	0.894438	0.165869	-0.241333
H48	H	0.821751	0.334912	-0.144398
H49	H	1.036827	0.342139	-0.143168
H50	H	0.793162	0.252740	0.241489
