data_functionalizedCrystal
_audit_creation_method	'MofGen! by Chris Wilmer'
_symmetry_space_group_name_H-M	'P1'
_symmetry_Int_Tables_number	1
_symmetry_cell_setting	triclinic
loop_
_symmetry_equiv_pos_as_xyz
  x,y,z
_cell_length_a	19.288840
_cell_length_b	9.065215
_cell_length_c	17.766277
_cell_angle_alpha	89.994759
_cell_angle_beta	89.983087
_cell_angle_gamma	84.070357
loop_
_atom_site_label
_atom_site_type_symbol
_atom_site_fract_x
_atom_site_fract_y
_atom_site_fract_z
O1	O	0.922791	0.183855	-0.062719
O2	O	0.720721	0.208719	-0.062692
O3	O	0.825934	-0.018502	-0.062703
O4	O	0.817578	0.411077	-0.062708
O5	O	0.825914	-0.018513	0.062486
O6	O	0.720701	0.208709	0.062496
O7	O	0.922772	0.183844	0.062470
Cu8	Cu	0.821735	0.196275	0.073914
Cu9	Cu	0.821758	0.196288	-0.074136
O10	O	0.817559	0.411066	0.062480
C11	C	0.694828	0.207920	-0.000095
C12	C	0.617705	0.205537	-0.000085
C13	C	0.581503	0.204398	-0.068327
C14	C	0.509039	0.202142	-0.068336
C15	C	0.472781	0.200996	-0.000099
C16	C	0.508991	0.202144	0.068152
C17	C	0.581453	0.204414	0.068159
C18	C	0.362747	0.110986	0.052170
C19	C	0.290286	0.108707	0.052160
C20	C	0.249283	0.194000	-0.000119
C21	C	0.280750	0.281554	-0.052400
C22	C	0.353212	0.283824	-0.052393
C23	C	0.394208	0.198535	-0.000099
C24	C	0.134507	0.190417	-0.068376
C25	C	0.062041	0.188171	-0.068382
C26	C	0.061995	0.188157	0.068108
C27	C	0.134459	0.190418	0.068112
C28	C	0.170711	0.191541	-0.000131
C29	C	0.825122	-0.073466	-0.000109
C30	C	0.822722	-0.237225	-0.000111
C31	C	0.948664	0.184644	-0.000129
C32	C	1.025787	0.187027	-0.000144
C33	C	0.818371	0.466030	-0.000115
C34	C	0.820771	0.629789	-0.000118
N35	N	0.821724	0.196265	0.178044
C36	C	0.868327	0.095701	0.217426
C37	C	0.868331	0.095694	0.296228
C38	C	0.821737	0.196278	0.335645
C39	C	0.775125	0.296850	0.296253
C40	C	0.775118	0.296844	0.217453
C41	C	0.813481	0.330696	0.460482
C42	C	0.813493	0.330704	0.539280
C43	C	0.821755	0.196297	0.578691
C44	C	0.830020	0.061875	0.539293
C45	C	0.830013	0.061869	0.460493
C46	C	0.821739	0.196295	0.421090
C47	C	0.868365	0.095717	0.703519
C48	C	0.868364	0.095708	0.782322
C49	C	0.775161	0.296877	0.782346
C50	C	0.775159	0.296872	0.703544
C51	C	0.821765	0.196294	0.664135
N52	N	0.821769	0.196291	0.821733
H53	H	0.396126	0.041526	0.094746
O54	O	0.918584	-0.012799	0.174924
H55	H	0.972846	0.005688	0.190028
O56	O	0.724894	0.405340	0.661059
H57	H	0.754574	0.476866	0.625133
H58	H	0.806767	0.440157	0.571352
H59	H	0.737167	0.378737	0.185387
H60	H	0.906282	0.013799	0.328299
O61	O	0.173605	0.191635	-0.141982
H62	H	0.212178	0.092126	-0.145246
O63	O	0.620605	0.205629	-0.141929
H64	H	0.583251	0.204472	-0.189384
O65	O	0.838948	-0.083115	0.581780
H66	H	0.796075	-0.150368	0.566670
O67	O	0.838914	-0.083099	0.417995
H68	H	0.844655	-0.176567	0.458632
O69	O	0.469979	0.200908	-0.141942
H70	H	0.442533	0.099348	-0.145195
O71	O	0.918614	-0.012814	0.661021
H72	H	0.888911	-0.084337	0.625143
H73	H	0.806741	0.440153	0.428400
O74	O	0.918638	-0.012747	0.824805
H75	H	0.951050	-0.082666	0.784160
H76	H	0.737221	0.378768	0.814438
H77	H	0.378829	0.355117	-0.094961
H78	H	0.737187	0.378744	0.328350
H79	H	0.479465	0.201214	0.123711
O80	O	0.236544	0.373593	-0.108787
H81	H	0.207566	0.299722	-0.144094
O82	O	0.023003	0.186899	-0.141997
H83	H	0.031361	0.287837	-0.174740
O84	O	0.022884	0.187199	0.141710
H85	H	-0.033591	0.185523	0.130242
O86	O	0.620505	0.205662	0.141766
H87	H	0.583122	0.204492	0.189216
H88	H	0.163935	0.191336	0.123683
O89	O	0.256349	0.014271	0.108542
H90	H	0.219279	0.086112	0.143827
