data_functionalizedCrystal
_audit_creation_method	'MofGen! by Chris Wilmer'
_symmetry_space_group_name_H-M	'P1'
_symmetry_Int_Tables_number	1
_symmetry_cell_setting	triclinic
loop_
_symmetry_equiv_pos_as_xyz
  x,y,z
_cell_length_a	17.699083
_cell_length_b	17.699083
_cell_length_c	16.776229
_cell_angle_alpha	90.007545
_cell_angle_beta	89.994534
_cell_angle_gamma	96.716985
loop_
_atom_site_label
_atom_site_type_symbol
_atom_site_fract_x
_atom_site_fract_y
_atom_site_fract_z
O1	O	1.004078	-0.095713	-0.066258
O2	O	1.504078	0.404287	0.433742
O3	O	0.783700	-0.108165	-0.066267
O4	O	1.283700	0.391835	0.433733
O5	O	0.900116	0.008250	-0.066256
O6	O	1.400116	0.508250	0.433744
O7	O	0.887663	-0.212128	-0.066270
O8	O	1.387663	0.287872	0.433730
O9	O	0.900100	0.008257	0.066321
O10	O	1.400100	0.508257	0.566321
O11	O	0.783685	-0.108158	0.066309
O12	O	1.283685	0.391842	0.566309
O13	O	1.004063	-0.095706	0.066318
O14	O	1.504063	0.404294	0.566318
Zn15	Zn	0.893871	-0.101931	0.087363
Zn16	Zn	1.393871	0.398069	0.587363
Zn17	Zn	0.893892	-0.101940	-0.087312
Zn18	Zn	1.393892	0.398060	0.412688
O19	O	0.887648	-0.212121	0.066306
O20	O	1.387648	0.287879	0.566306
C21	C	0.899662	0.036451	0.000033
C22	C	1.399662	0.536451	0.500033
C23	C	0.898323	0.120469	0.000033
C24	C	1.398323	0.620469	0.500033
C25	C	0.755495	-0.107716	0.000020
C26	C	1.255495	0.392284	0.500020
C27	C	0.671477	-0.106377	0.000017
C28	C	1.171477	0.393623	0.500017
C29	C	1.032268	-0.096156	0.000029
C30	C	1.532268	0.403844	0.500029
C31	C	1.116286	-0.097494	0.000027
C32	C	1.616286	0.402506	0.500027
C33	C	1.164907	-0.029161	0.000029
C34	C	1.664907	0.470839	0.500029
C35	C	1.243850	-0.030423	0.000031
C36	C	1.743850	0.469577	0.500031
C37	C	1.274171	-0.100020	0.000026
C38	C	1.774171	0.399980	0.500026
C39	C	1.225544	-0.168358	0.000027
C40	C	1.725544	0.331642	0.500027
C41	C	1.146602	-0.167095	0.000030
C42	C	1.646602	0.332905	0.500030
C43	C	1.543907	-0.173453	0.000015
C44	C	2.043907	0.326547	0.500015
C45	C	1.622855	-0.174711	0.000010
C46	C	2.122855	0.325289	0.500010
C47	C	1.641155	-0.036781	0.000016
C48	C	2.141155	0.463219	0.500016
C49	C	1.562213	-0.035518	0.000019
C50	C	2.062213	0.464482	0.500019
C51	C	1.513593	-0.103857	0.000024
C52	C	2.013593	0.396143	0.500024
C53	C	1.427994	-0.102487	0.000023
C54	C	1.927994	0.397513	0.500023
C55	C	1.359769	-0.101390	0.000022
C56	C	1.859769	0.398610	0.500022
C57	C	0.888102	-0.240322	0.000016
C58	C	1.388102	0.259678	0.500016
C59	C	0.889440	-0.324340	0.000011
C60	C	1.389440	0.175660	0.500011
N61	N	0.893863	-0.101924	0.206574
N62	N	1.393863	0.398076	0.706574
C63	C	0.966656	0.169090	0.000037
C64	C	1.466656	0.669090	0.500037
C65	C	0.965394	0.248033	0.000030
C66	C	1.465394	0.748033	0.500030
C67	C	0.895798	0.278354	0.000025
C68	C	1.395798	0.778354	0.500025
C69	C	0.827459	0.229727	0.000018
C70	C	1.327459	0.729727	0.500018
C71	C	0.828722	0.150785	0.000020
C72	C	1.328722	0.650785	0.500020
C73	C	0.822364	0.548090	0.000012
C74	C	1.322364	1.048090	0.500012
C75	C	0.821106	0.627038	0.000013
C76	C	1.321106	1.127038	0.500013
C77	C	0.959036	0.645338	0.000022
C78	C	1.459036	1.145338	0.500022
C79	C	0.960299	0.566396	0.000023
C80	C	1.460299	1.066396	0.500023
C81	C	0.891961	0.517776	0.000013
C82	C	1.391961	1.017776	0.500013
C83	C	0.893330	0.432177	0.000019
C84	C	1.393330	0.932177	0.500019
C85	C	0.894427	0.363951	0.000024
C86	C	1.394427	0.863951	0.500024
N87	N	0.893906	-0.101941	-0.206523
N88	N	1.393906	0.398059	0.293477
C89	C	0.945428	-0.050396	0.248297
C90	C	1.445428	0.449604	0.748297
C91	C	0.945432	-0.050396	0.331749
C92	C	1.445432	0.449604	0.831749
C93	C	0.893875	-0.101927	0.373477
C94	C	1.393875	0.398073	0.873477
C95	C	0.842305	-0.153457	0.331749
C96	C	1.342305	0.346543	0.831749
C97	C	0.842297	-0.153454	0.248298
C98	C	1.342297	0.346546	0.748298
C99	C	0.842332	-0.153472	0.668296
C100	C	1.342332	0.346528	1.168296
C101	C	0.842345	-0.153473	0.751753
C102	C	1.342345	0.346527	1.251753
C103	C	0.945466	-0.050414	0.751747
C104	C	1.445466	0.449586	1.251747
C105	C	0.945459	-0.050411	0.668296
C106	C	1.445459	0.449589	1.168296
C107	C	0.893887	-0.101938	0.626575
C108	C	1.393887	0.398062	1.126575
C109	C	0.893882	-0.101937	0.536087
C110	C	1.393882	0.398063	1.036087
C111	C	0.893882	-0.101932	0.463964
C112	C	1.393882	0.398068	0.963964
H113	H	1.140226	0.027513	0.000028
H114	H	1.640226	0.527513	0.500028
H115	H	0.987457	-0.008456	0.785725
H116	H	1.487457	0.491544	1.285725
F117	F	0.755992	0.099039	0.000013
F118	F	1.255992	0.599039	0.500013
F119	F	0.787467	-0.208322	0.796162
F120	F	1.287467	0.291678	1.296162
F121	F	1.000311	0.004446	0.376153
F122	F	1.500311	0.504446	0.876153
F123	F	0.753389	0.261998	0.000004
F124	F	1.253389	0.761998	0.500004
H125	H	0.800342	-0.195428	0.634334
H126	H	1.300342	0.304572	1.134334
F127	F	1.040732	0.136828	0.000050
F128	F	1.540732	0.636828	0.500050
F129	F	1.000335	0.004433	0.623889
F130	F	1.500335	0.504433	1.123889
F131	F	0.747028	0.659305	0.000006
F132	F	1.247028	1.159305	0.500006
H133	H	1.647538	-0.231388	0.000009
H134	H	2.147538	0.268612	0.500009
H135	H	0.800322	-0.195412	0.365729
H136	H	1.300322	0.304588	0.865729
H137	H	0.800308	-0.195412	0.214329
H138	H	1.300308	0.304588	0.714329
F139	F	1.031768	0.697089	0.000030
F140	F	1.531768	1.197089	0.500030
F141	F	1.295593	0.042307	0.000037
F142	F	1.795593	0.542307	0.500037
H143	H	0.987414	-0.008437	0.214327
H144	H	1.487414	0.491563	0.714327
H145	H	1.021038	0.287618	0.000035
H146	H	1.521038	0.787618	0.500035
H147	H	1.537531	0.021154	0.000019
H148	H	2.037531	0.521154	0.500019
F149	F	1.692907	0.035951	0.000016
F150	F	2.192907	0.535951	0.500016
H151	H	0.766718	0.508512	0.000003
H152	H	1.266718	1.008512	0.500003
H153	H	1.504329	-0.229099	0.000015
H154	H	2.004329	0.270901	0.500015
H155	H	1.250237	-0.225025	0.000028
H156	H	1.750237	0.274975	0.500028
F157	F	1.094856	-0.239825	0.000033
F158	F	1.594856	0.260175	0.500033
H159	H	1.016971	0.541714	0.000031
H160	H	1.516971	1.041714	0.500031
