data_functionalizedCrystal
_audit_creation_method	'MofGen! by Chris Wilmer'
_symmetry_space_group_name_H-M	'P1'
_symmetry_Int_Tables_number	1
_symmetry_cell_setting	triclinic
loop_
_symmetry_equiv_pos_as_xyz
  x,y,z
_cell_length_a	12.759401
_cell_length_b	12.759400
_cell_length_c	12.759393
_cell_angle_alpha	89.968385
_cell_angle_beta	89.980163
_cell_angle_gamma	90.016209
loop_
_atom_site_label
_atom_site_type_symbol
_atom_site_fract_x
_atom_site_fract_y
_atom_site_fract_z
Zn1	Zn	1.606255	-0.418161	-0.594020
Zn2	Zn	1.606150	-0.593880	-0.418340
Zn3	Zn	1.430557	-0.418220	-0.418355
Zn4	Zn	1.430546	-0.593803	-0.593978
O5	O	1.518377	-0.506016	-0.506173
O6	O	1.753262	-0.441478	-0.570727
O7	O	1.582818	-0.570635	-0.271321
O8	O	1.453913	-0.271191	-0.441682
O9	O	1.753185	-0.570578	-0.441656
O10	O	1.582997	-0.271148	-0.570742
O11	O	1.453811	-0.441579	-0.271332
O12	O	1.283535	-0.441505	-0.441640
O13	O	1.453893	-0.570447	-0.741004
O14	O	1.283526	-0.570504	-0.570669
O15	O	1.582986	-0.441403	-0.741036
O16	O	1.582806	-0.740891	-0.441615
O17	O	1.453791	-0.740834	-0.570655
C18	C	1.245410	-0.506003	-0.506152
C19	C	1.128633	-0.506023	-0.506168
C20	C	1.073794	-0.573296	-0.573248
C21	C	0.964070	-0.573300	-0.573269
C22	C	0.964033	-0.438756	-0.439122
C23	C	1.073755	-0.438747	-0.439107
C24	C	1.518315	-0.778984	-0.506151
C25	C	1.518384	-0.895760	-0.506177
C26	C	1.585637	-0.950617	-0.439060
C27	C	1.585701	-1.060341	-0.439093
C28	C	1.451251	-1.060342	-0.573362
C29	C	1.451193	-0.950620	-0.573334
C30	C	1.652828	-0.895757	-0.371904
C31	C	1.720086	-0.950613	-0.304781
C32	C	1.720150	-1.060338	-0.304813
C33	C	1.652957	-1.115205	-0.371969
C34	C	1.792410	-0.506030	-0.506195
C35	C	1.909187	-0.506036	-0.506204
C36	C	1.518450	-0.505910	-0.780207
C37	C	1.518482	-0.505865	-0.896984
C38	C	1.518468	-0.231983	-0.506218
C39	C	1.518507	-0.115206	-0.506238
C40	C	1.451332	-0.438653	-0.951851
C41	C	1.451356	-0.438620	-1.061575
C42	C	1.585689	-0.573015	-1.061555
C43	C	1.585659	-0.573052	-0.951833
C44	C	1.518364	-0.506046	-0.233206
C45	C	1.518537	-0.505796	-0.116430
H46	H	1.118472	-0.628073	-0.627857
Br47	Br	1.676855	-0.664192	-1.136000
Br48	Br	1.360066	-1.134804	-0.664494
H49	H	0.919425	-0.628078	-0.627893
Br50	Br	0.889550	-0.347458	-0.348113
Br51	Br	1.360202	-0.347418	-1.136034
Br52	Br	1.148187	-0.347432	-0.348074
Br53	Br	1.652566	-1.264116	-0.371530
H54	H	1.652780	-0.806414	-0.371867
Br55	Br	1.359925	-0.876165	-0.664427
H56	H	1.774798	-0.905935	-0.250111
Br57	Br	1.360161	-0.347473	-0.877415
Br58	Br	1.811438	-1.134784	-0.213732
Br59	Br	1.676790	-0.664282	-0.877363
