data_functionalizedCrystal
_audit_creation_method	'MofGen! by Chris Wilmer'
_symmetry_space_group_name_H-M	'P1'
_symmetry_Int_Tables_number	1
_symmetry_cell_setting	triclinic
loop_
_symmetry_equiv_pos_as_xyz
  x,y,z
_cell_length_a	11.169416
_cell_length_b	12.759401
_cell_length_c	12.759393
_cell_angle_alpha	90.018567
_cell_angle_beta	90.028644
_cell_angle_gamma	90.009384
loop_
_atom_site_label
_atom_site_type_symbol
_atom_site_fract_x
_atom_site_fract_y
_atom_site_fract_z
Zn1	Zn	-0.477767	1.606287	0.594005
Zn2	Zn	-0.678500	1.606195	0.418334
Zn3	Zn	-0.477826	1.430589	0.418344
Zn4	Zn	-0.678403	1.430591	0.593975
O5	O	-0.578124	1.518416	0.506164
O6	O	-0.504410	1.753296	0.570710
O7	O	-0.651945	1.582861	0.271314
O8	O	-0.309868	1.453934	0.441662
O9	O	-0.651888	1.753228	0.441645
O10	O	-0.309825	1.583018	0.570720
O11	O	-0.504511	1.453844	0.271321
O12	O	-0.504417	1.283568	0.441633
O13	O	-0.651724	1.453937	0.741000
O14	O	-0.651781	1.283570	0.570669
O15	O	-0.504317	1.583020	0.741022
O16	O	-0.846437	1.582863	0.441616
O17	O	-0.846366	1.453848	0.570659
C18	C	-0.889949	1.518374	0.506156
C19	C	-1.023349	1.518452	0.506188
C20	C	-0.578096	1.245448	0.506150
C21	C	-0.578113	1.128672	0.506168
C22	C	-0.501466	1.073838	0.573476
C23	C	-0.501489	0.964114	0.573483
C24	C	-0.654816	0.964067	0.438871
C25	C	-0.654786	1.073789	0.438859
C26	C	-0.412948	1.073864	0.651197
C27	C	-0.412971	0.964140	0.651204
C28	C	-0.265082	1.518486	0.506195
C29	C	-0.131682	1.518516	0.506209
C30	C	-0.578003	1.518489	0.780198
C31	C	-0.577951	1.518521	0.896974
C32	C	-0.578153	1.792449	0.506180
C33	C	-0.578166	1.909226	0.506186
C34	C	-0.578158	1.518403	0.233197
C35	C	-0.577872	1.518575	0.116421
C36	C	-0.501189	1.585743	0.951850
C37	C	-0.501146	1.585768	1.061574
C38	C	-0.654637	1.451345	1.061538
C39	C	-0.654673	1.451315	0.951816
C40	C	-0.412576	1.663355	0.951871
C41	C	-0.412533	1.663380	1.061595
H42	H	-0.717187	1.118430	0.384041
H43	H	-0.437983	0.934397	0.732541
O44	O	-0.729258	0.910589	0.373594
C45	C	-0.797202	0.741536	0.313901
C46	C	-0.712852	0.801965	0.387898
H47	H	-0.783948	0.653703	0.325425
H48	H	-0.894024	0.763042	0.332208
H49	H	-0.776019	0.763139	0.229226
H50	H	-0.733927	0.780395	0.472597
H51	H	-0.616054	0.780454	0.369501
H52	H	-0.446341	1.107932	0.728437
H53	H	-0.717176	1.396572	0.907141
H54	H	-0.324635	0.930093	0.622200
H55	H	-0.319957	1.103625	0.629539
H56	H	-0.717099	1.396626	1.106203
O57	O	-0.301643	1.637310	0.916534
C58	C	-0.099439	1.590022	0.962387
C59	C	-0.225015	1.619482	1.002548
H60	H	-0.037444	1.575621	1.031908
H61	H	-0.105434	1.515873	0.912784
H62	H	-0.062453	1.656844	0.912723
H63	H	-0.262074	1.552728	1.052254
H64	H	-0.218944	1.693663	1.052093
O65	O	-0.452294	1.755625	0.911432
C66	C	-0.527060	1.928989	0.947841
C67	C	-0.482075	1.824558	0.993779
H68	H	-0.551174	1.984741	1.014397
H69	H	-0.453751	1.965565	0.897608
H70	H	-0.609646	1.913938	0.897498
H71	H	-0.399511	1.839518	1.044169
H72	H	-0.555457	1.788013	1.043953
H73	H	-0.324218	1.634261	1.095639
H74	H	-0.437429	1.744752	1.091375
