data_functionalizedCrystal
_audit_creation_method	'MofGen! by Chris Wilmer'
_symmetry_space_group_name_H-M	'P1'
_symmetry_Int_Tables_number	1
_symmetry_cell_setting	triclinic
loop_
_symmetry_equiv_pos_as_xyz
  x,y,z
_cell_length_a	14.519731
_cell_length_b	11.792241
_cell_length_c	10.868271
_cell_angle_alpha	89.999850
_cell_angle_beta	89.995592
_cell_angle_gamma	83.941134
loop_
_atom_site_label
_atom_site_type_symbol
_atom_site_fract_x
_atom_site_fract_y
_atom_site_fract_z
O1	O	1.224400	0.148896	-0.102311
O2	O	0.955990	0.166392	-0.102311
O3	O	1.096709	-0.007562	-0.102318
O4	O	1.083681	0.322850	-0.102304
O5	O	1.096697	-0.007569	0.102326
O6	O	0.955978	0.166385	0.102333
O7	O	1.224388	0.148889	0.102334
Zn8	Zn	1.090181	0.157636	0.134825
Zn9	Zn	1.090197	0.157645	-0.134803
O10	O	1.083670	0.322843	0.102341
C11	C	1.095884	-0.049852	-0.000001
C12	C	1.093435	-0.175852	-0.000014
C13	C	0.921622	0.165569	0.000011
C14	C	0.819232	0.163112	0.000010
C15	C	0.736081	0.161116	0.000005
C16	C	0.631763	0.158622	0.000004
C17	C	0.548617	0.156642	0.000005
C18	C	0.444292	0.154149	0.000002
C19	C	1.258757	0.149713	0.000009
C20	C	1.361146	0.152169	0.000002
C21	C	1.084494	0.365133	0.000020
C22	C	1.086943	0.491133	0.000026
N23	N	1.090178	0.157629	0.318839
C24	C	1.091447	0.721821	-0.000005
C25	C	1.088944	0.593450	0.000012
N26	N	1.090208	0.157643	-0.318817
C27	C	1.090192	0.157643	0.569845
C28	C	1.090181	0.157639	0.430168
