data_functionalizedCrystal
_audit_creation_method	'MofGen! by Chris Wilmer'
_symmetry_space_group_name_H-M	'P1'
_symmetry_Int_Tables_number	1
_symmetry_cell_setting	triclinic
loop_
_symmetry_equiv_pos_as_xyz
  x,y,z
_cell_length_a	18.050590
_cell_length_b	21.295418
_cell_length_c	18.050582
_cell_angle_alpha	90.022598
_cell_angle_beta	89.999233
_cell_angle_gamma	90.017553
loop_
_atom_site_label
_atom_site_type_symbol
_atom_site_fract_x
_atom_site_fract_y
_atom_site_fract_z
Zn1	Zn	1.135292	-0.250831	0.419601
Zn2	Zn	1.135202	-0.356092	0.295411
Zn3	Zn	1.011111	-0.250821	0.295460
Zn4	Zn	1.011058	-0.356047	0.419594
O5	O	1.073166	-0.303448	0.357517
O6	O	1.239204	-0.264818	0.403110
O7	O	1.118725	-0.342143	0.191493
O8	O	1.027643	-0.162733	0.311951
O9	O	1.239138	-0.342153	0.311868
O10	O	1.118878	-0.162741	0.403157
O11	O	1.027556	-0.264801	0.191529
O12	O	0.907179	-0.264756	0.311943
O13	O	1.027554	-0.342075	0.523520
O14	O	0.907141	-0.342065	0.403144
O15	O	1.118827	-0.264773	0.523525
O16	O	1.118675	-0.444176	0.311861
O17	O	1.027467	-0.444142	0.403098
C18	C	0.880214	-0.303405	0.357549
C19	C	0.797668	-0.303402	0.357580
C20	C	1.073075	-0.466999	0.357489
C21	C	1.073105	-0.536968	0.357503
C22	C	0.598218	-0.345562	0.407057
C23	C	0.548825	-0.288165	0.425332
C24	C	0.646537	-0.303437	0.357544
C25	C	0.548849	-0.360867	0.339268
C26	C	0.500552	-0.303476	0.357510
C27	C	0.598232	-0.246009	0.375854
C28	C	0.598260	-0.318749	0.289758
C29	C	0.548889	-0.261313	0.308007
C30	C	0.730636	-0.303415	0.357565
C31	C	0.416456	-0.303491	0.357489
C32	C	1.120764	-1.036376	0.405103
C33	C	1.120743	-0.970634	0.405091
C34	C	1.073267	-0.937807	0.357563
C35	C	1.025823	-0.970728	0.310029
C36	C	1.025851	-1.036470	0.310037
N37	N	1.008219	-0.834627	0.351811
N38	N	1.008194	-0.772175	0.351808
C39	C	1.073180	-0.739732	0.357535
N40	N	1.138192	-0.772100	0.363280
N41	N	1.138216	-0.834557	0.363287
C42	C	1.073231	-0.866522	0.357549
C43	C	1.120601	-0.635533	0.405049
C44	C	1.120580	-0.569790	0.405032
C45	C	1.025654	-0.569886	0.309974
C46	C	1.025681	-0.635628	0.309987
C47	C	1.073153	-0.668448	0.357529
C48	C	1.266871	-0.303491	0.357485
C49	C	1.349417	-0.303510	0.357471
C50	C	1.073195	-0.303420	0.551222
C51	C	1.073207	-0.303408	0.633768
C52	C	1.073276	-0.139258	0.357560
C53	C	1.073324	-0.069289	0.357579
C54	C	1.073179	-0.303430	0.164564
C55	C	1.073311	-0.303265	0.082019
C56	C	1.023611	-0.345387	0.833216
C57	C	1.091366	-0.360785	0.882589
C58	C	1.073244	-0.303360	0.784899
C59	C	1.005526	-0.287944	0.882608
C60	C	1.073273	-0.303315	0.930884
C61	C	1.141035	-0.318788	0.833184
C62	C	1.055149	-0.245921	0.833199
C63	C	1.122951	-0.261297	0.882549
C64	C	1.073226	-0.303388	0.700800
C65	C	1.073299	-0.303287	1.014980
H66	H	0.619879	-0.381124	0.448976
H67	H	1.159216	-0.542991	0.443730
Cl68	Cl	0.515357	-0.435825	0.315422
H69	H	1.159426	-1.063094	0.443809
Cl70	Cl	1.180287	-0.676796	0.464806
Cl71	Cl	0.631577	-0.171027	0.399800
H72	H	0.987169	-0.943998	0.271330
Cl73	Cl	1.180387	-0.929248	0.464841
Cl74	Cl	0.515298	-0.268187	0.513814
H75	H	0.527366	-0.225664	0.266121
H76	H	1.198332	-0.331863	0.811566
Cl77	Cl	0.965976	-0.528624	0.250217
H78	H	0.981677	-0.380974	0.811555
Cl79	Cl	0.966205	-1.077849	0.250288
Cl80	Cl	0.917091	-0.267841	0.916126
Cl81	Cl	0.966033	-0.677007	0.250243
H82	H	1.106688	-0.409341	0.904283
H83	H	0.619990	-0.331705	0.232464
Cl84	Cl	1.187845	-0.206396	0.915788
H85	H	1.039806	-0.197379	0.811487
