data_functionalizedCrystal
_audit_creation_method	'MofGen! by Chris Wilmer'
_symmetry_space_group_name_H-M	'P1'
_symmetry_Int_Tables_number	1
_symmetry_cell_setting	triclinic
loop_
_symmetry_equiv_pos_as_xyz
  x,y,z
_cell_length_a	10.489741
_cell_length_b	16.992694
_cell_length_c	15.455313
_cell_angle_alpha	92.857794
_cell_angle_beta	92.692689
_cell_angle_gamma	92.396301
loop_
_atom_site_label
_atom_site_type_symbol
_atom_site_fract_x
_atom_site_fract_y
_atom_site_fract_z
O1	O	0.265388	-1.045321	-0.072021
O2	O	0.262418	-0.817021	-0.072047
O3	O	0.078758	-0.936366	-0.072028
O4	O	0.449049	-0.925976	-0.072040
O5	O	0.089214	-0.929541	0.072233
O6	O	0.272874	-0.810196	0.072214
O7	O	0.275845	-1.038496	0.072240
Cu8	Cu	0.275314	-0.923723	0.085399
Cu9	Cu	0.262948	-0.931794	-0.085206
O10	O	0.459505	-0.919151	0.072221
C11	C	0.263826	-0.784374	0.000081
C12	C	0.252430	-0.697266	0.000071
C13	C	0.036386	-0.932168	0.000102
C14	C	-0.105448	-0.929821	0.000100
C15	C	0.274436	-1.071143	0.000111
C16	C	0.285832	-1.158251	0.000115
C17	C	-0.180195	-0.853885	0.000085
C18	C	-0.264041	-0.886392	0.071217
C19	C	-0.274324	-0.893138	-0.071013
C20	C	-0.187422	-0.962356	0.071291
C21	C	-0.197700	-0.969095	-0.071003
C22	C	-0.281512	-1.001656	0.000146
C23	C	0.501877	-0.923349	0.000090
C24	C	0.643710	-0.925697	0.000086
N25	N	0.284011	-0.918052	0.205394
C26	C	0.362380	-0.647647	0.000068
C27	C	0.351666	-0.565799	0.000081
C28	C	0.231001	-0.533573	0.000089
C29	C	0.121044	-0.583198	0.000095
C30	C	0.131759	-0.665044	0.000089
C31	C	0.186590	-0.289723	0.000114
C32	C	0.175882	-0.207871	0.000117
C33	C	0.406505	-0.190477	0.000105
C34	C	0.417210	-0.272325	0.000094
C35	C	0.307253	-0.321944	0.000104
N36	N	0.220047	-0.449911	0.000099
N37	N	0.318209	-0.405603	0.000100
N38	N	0.254242	-0.937472	-0.205201
C39	C	0.206019	-0.968772	0.250796
C40	C	0.212608	-0.964490	0.341603
C41	C	0.297199	-0.909492	0.387007
C42	C	0.375195	-0.858766	0.341598
C43	C	0.368597	-0.863045	0.250793
C44	C	0.325640	-0.891025	0.658585
C45	C	0.332234	-0.886752	0.749397
C46	C	0.169646	-0.992475	0.749396
C47	C	0.163062	-0.996751	0.658589
C48	C	0.241053	-0.946023	0.613188
N49	N	0.303939	-0.905116	0.479826
N50	N	0.234305	-0.950396	0.520370
H51	H	-0.135971	-0.791448	0.000150
H52	H	-0.312443	-0.863844	-0.131155
H53	H	0.460638	-0.673878	0.000060
O54	O	0.513337	-0.142317	-0.000051
C55	C	0.580705	-0.160561	-0.074758
H56	H	0.512397	-0.190612	-0.126979
H57	H	0.624148	-0.103973	-0.099833
H58	H	0.660046	-0.201850	-0.057871
H59	H	0.149100	-1.005790	0.378569
H60	H	-0.168221	-1.004043	-0.131136
H61	H	0.441198	-0.525401	0.000077
O62	O	0.534393	-0.303660	-0.000089
C63	C	0.542037	-0.354008	-0.074809
H64	H	0.469549	-0.336743	-0.127003
H65	H	0.642306	-0.348407	-0.099919
H66	H	0.520438	-0.417584	-0.057928
H67	H	0.077618	-0.181636	0.000124
O68	O	-0.299114	-0.844548	0.142888
C69	C	-0.247203	-0.766677	0.142641
H70	H	-0.226351	-0.751899	0.073421
H71	H	-0.318479	-0.724087	0.169504
H72	H	-0.154807	-0.761076	0.184796
H73	H	0.097055	-0.330113	0.000123
O74	O	0.024907	-0.713223	-0.000067
C75	C	-0.053293	-0.702027	-0.074766
H76	H	0.007442	-0.676900	-0.126988
H77	H	-0.100367	-0.760982	-0.099846
H78	H	-0.130189	-0.659148	-0.057868
O79	O	0.003811	-0.551928	0.000255
C80	C	-0.058318	-0.573711	0.074959
H81	H	0.015881	-0.588653	0.127179
H82	H	-0.115855	-0.522649	0.100039
H83	H	-0.125218	-0.627441	0.058068
O84	O	-0.141975	-0.997335	0.143027
C85	C	-0.076274	-1.064756	0.117655
H86	H	-0.043077	-1.058786	0.049012
H87	H	0.010146	-1.070588	0.164065
H88	H	-0.142761	-1.119411	0.119373
H89	H	0.137142	-1.013560	0.213834
H90	H	0.094182	-1.041535	0.621623
H91	H	0.401123	-0.841963	0.786361
O92	O	0.093693	-1.041710	0.793405
C93	C	-0.035564	-1.029271	0.771245
H94	H	-0.043298	-1.002141	0.705317
H95	H	-0.092584	-1.088031	0.768140
H96	H	-0.075329	-0.987585	0.822359
H97	H	0.389146	-0.849721	0.621627
H98	H	0.444065	-0.813982	0.378571
O99	O	0.444420	-0.813890	0.206591
C100	C	0.523684	-0.858819	0.154065
H101	H	0.478183	-0.920564	0.140458
H102	H	0.535862	-0.829195	0.090213
H103	H	0.621098	-0.863028	0.189048
O104	O	-0.333928	-1.076207	0.000352
C105	C	-0.289315	-1.112390	0.075437
H106	H	-0.256838	-1.065067	0.127612
H107	H	-0.369526	-1.151215	0.100266
H108	H	-0.205507	-1.150147	0.059151
