data_functionalizedCrystal
_audit_creation_method	'MofGen! by Chris Wilmer'
_symmetry_space_group_name_H-M	'P1'
_symmetry_Int_Tables_number	1
_symmetry_cell_setting	triclinic
loop_
_symmetry_equiv_pos_as_xyz
  x,y,z
_cell_length_a	14.853569
_cell_length_b	14.853567
_cell_length_c	7.681481
_cell_angle_alpha	84.253558
_cell_angle_beta	95.733588
_cell_angle_gamma	83.635248
loop_
_atom_site_label
_atom_site_type_symbol
_atom_site_fract_x
_atom_site_fract_y
_atom_site_fract_z
O1	O	1.187856	0.126230	-0.146333
O2	O	0.925395	0.140251	-0.146353
O3	O	1.063636	0.002011	-0.146348
O4	O	1.049615	0.264470	-0.146338
O5	O	1.080651	-0.015043	0.146511
O6	O	0.942411	0.123197	0.146506
O7	O	1.204871	0.109176	0.146525
Zn8	Zn	1.076342	0.113479	0.193013
Zn9	Zn	1.053924	0.135948	-0.192841
O10	O	1.066630	0.247416	0.146520
C11	C	0.900314	0.131089	0.000074
C12	C	0.800230	0.129185	0.000066
C13	C	0.763853	0.046175	0.000056
C14	C	0.742565	0.210406	0.000082
C15	C	0.648531	0.208619	0.000084
C16	C	0.612154	0.125609	0.000075
C17	C	0.669811	0.044385	0.000064
C18	C	0.590868	0.289840	0.000113
C19	C	0.496828	0.288057	0.000117
C20	C	0.460449	0.205046	0.000095
C21	C	0.518112	0.123819	0.000082
C22	C	0.481735	0.040809	0.000073
C23	C	0.539395	-0.040418	0.000047
C24	C	0.633431	-0.038626	0.000042
C25	C	0.366413	0.203254	0.000101
C26	C	0.387692	0.039019	0.000080
C27	C	1.071508	-0.040104	0.000076
C28	C	1.069603	-0.140187	0.000061
C29	C	0.979439	-0.552723	0.000088
C30	C	1.143673	-0.574004	0.000100
C31	C	1.145462	-0.479969	0.000089
C32	C	1.064239	-0.422307	0.000081
C33	C	0.981227	-0.458680	0.000083
C34	C	1.228474	-0.443591	0.000106
C35	C	1.230267	-0.349551	0.000097
C36	C	1.149042	-0.291887	0.000076
C37	C	1.066027	-0.328264	0.000076
C38	C	0.984803	-0.270602	0.000068
C39	C	0.901786	-0.306978	0.000055
C40	C	0.900002	-0.401015	0.000062
C41	C	1.150826	-0.197849	0.000069
C42	C	0.986591	-0.176559	0.000063
C43	C	1.229952	0.118339	0.000095
C44	C	1.330036	0.120243	0.000091
C45	C	1.058758	0.289532	0.000092
C46	C	1.060662	0.389615	0.000096
N47	N	1.091649	0.098144	0.456348
N48	N	1.038625	0.151276	-0.456175
H49	H	0.358082	-0.028578	0.000063
C50	C	0.404688	-0.116071	0.000052
C51	C	0.499403	-0.131662	0.000034
H52	H	0.379997	-0.172400	0.000033
H53	H	0.390857	-0.088582	0.102184
H54	H	0.378976	-0.076668	-0.102069
H55	H	0.525116	-0.171059	0.102162
H56	H	0.513241	-0.159165	-0.102109
C57	C	0.903765	-0.687419	0.000086
C58	C	0.888189	-0.592702	0.000082
H59	H	0.847430	-0.712099	0.000095
H60	H	0.931271	-0.701251	-0.102033
H61	H	0.943147	-0.713142	0.102221
H62	H	0.848812	-0.566978	-0.102059
H63	H	0.860670	-0.578861	0.102212
H64	H	0.772190	0.277988	0.000102
H65	H	1.145785	0.043916	0.531555
C66	C	1.392428	-0.380042	0.000097
C67	C	1.321516	-0.309571	0.000091
H68	H	1.448760	-0.355356	0.000078
H69	H	1.394251	-0.422216	0.102225
H70	H	1.382372	-0.410338	-0.102029
H71	H	1.331569	-0.279279	0.102223
H72	H	1.319695	-0.267381	-0.102048
H73	H	0.984499	0.205507	0.468626
C74	C	1.306190	-0.585595	0.000106
C75	C	1.232951	-0.637382	0.000110
H76	H	1.361308	-0.624727	0.000120
H77	H	1.297536	-0.542534	-0.102018
H78	H	1.309402	-0.554415	0.102235
H79	H	1.229734	-0.668557	-0.102026
H80	H	1.241606	-0.680459	0.102245
H81	H	0.680387	-0.104756	0.000025
H82	H	0.835655	-0.260018	0.000060
H83	H	1.294602	-0.490546	0.000129
C84	C	0.917452	-0.024015	0.000030
C85	C	0.827229	-0.043108	0.000037
H86	H	0.956576	-0.079137	0.000030
H87	H	0.922547	0.015959	-0.102088
H88	H	0.934423	0.004068	0.102165
H89	H	0.810255	-0.071186	-0.102106
H90	H	0.822129	-0.083098	0.102165
H91	H	0.620495	0.357422	0.000132
C92	C	0.212811	0.273430	0.000139
C93	C	0.303033	0.292528	0.000137
H94	H	0.173686	0.328548	0.000171
H95	H	0.195840	0.245359	-0.101993
H96	H	0.207720	0.233440	0.102260
H97	H	0.308126	0.332512	-0.101992
H98	H	0.320009	0.320612	0.102279
C99	C	0.824069	-0.164970	0.000048
C100	C	0.897306	-0.113180	0.000055
H101	H	0.768950	-0.125841	0.000054
H102	H	0.820856	-0.196141	-0.102074
H103	H	0.832727	-0.208041	0.102179
H104	H	0.888651	-0.070113	-0.102083
H105	H	0.900518	-0.081994	0.102188
H106	H	0.449888	0.354197	0.000135
H107	H	0.832413	-0.430641	0.000053
H108	H	1.218419	-0.168237	0.000091
