data_functionalizedCrystal
_audit_creation_method	'MofGen! by Chris Wilmer'
_symmetry_space_group_name_H-M	'P1'
_symmetry_Int_Tables_number	1
_symmetry_cell_setting	triclinic
loop_
_symmetry_equiv_pos_as_xyz
  x,y,z
_cell_length_a	13.897449
_cell_length_b	11.169416
_cell_length_c	11.169409
_cell_angle_alpha	89.969126
_cell_angle_beta	89.977985
_cell_angle_gamma	90.011620
loop_
_atom_site_label
_atom_site_type_symbol
_atom_site_fract_x
_atom_site_fract_y
_atom_site_fract_z
Zn1	Zn	1.474764	-0.477669	-0.678625
Zn2	Zn	1.974764	0.022331	-0.178625
Zn3	Zn	1.474675	-0.678409	-0.477947
Zn4	Zn	1.974675	-0.178409	0.022053
Zn5	Zn	1.313450	-0.477743	-0.477952
Zn6	Zn	1.813450	0.022257	0.022048
Zn7	Zn	1.313456	-0.678313	-0.678584
Zn8	Zn	1.813456	-0.178313	-0.178584
O9	O	1.394086	-0.578034	-0.578277
O10	O	1.894086	-0.078034	-0.078277
O11	O	1.609734	-0.504307	-0.652020
O12	O	2.109734	-0.004307	-0.152020
O13	O	1.453249	-0.651862	-0.309998
O14	O	1.953249	-0.151862	0.190002
O15	O	1.334883	-0.309784	-0.504591
O16	O	1.834883	0.190216	-0.004591
O17	O	1.609669	-0.651790	-0.504583
O18	O	2.109669	-0.151790	-0.004583
O19	O	1.453400	-0.309729	-0.652024
O20	O	1.953400	0.190271	-0.152024
O21	O	1.334797	-0.504434	-0.310001
O22	O	1.834797	-0.004434	0.189999
O23	O	1.178469	-0.504340	-0.504551
O24	O	1.678469	-0.004340	-0.004551
O25	O	1.334893	-0.651626	-0.846540
O26	O	1.834893	-0.151626	-0.346540
O27	O	1.178473	-0.651698	-0.651955
O28	O	1.678473	-0.151698	-0.151955
O29	O	1.453406	-0.504213	-0.846570
O30	O	1.953406	-0.004213	-0.346570
O31	O	1.453254	-0.846346	-0.504543
O32	O	1.953254	-0.346346	-0.004543
O33	O	1.334807	-0.846276	-0.651950
O34	O	1.834807	-0.346276	-0.151950
C35	C	1.394048	-0.889858	-0.578268
C36	C	1.894048	-0.389858	-0.078268
C37	C	1.394120	-1.023258	-0.578304
C38	C	1.894120	-0.523258	-0.078304
C39	C	1.143472	-0.578018	-0.578250
C40	C	1.643472	-0.078018	-0.078250
C41	C	1.036258	-0.578040	-0.578267
C42	C	1.536258	-0.078040	-0.078267
C43	C	0.839963	-0.578044	-0.578298
C44	C	1.339963	-0.078044	-0.078298
C45	C	0.949195	-0.578038	-0.578277
C46	C	1.449195	-0.078038	-0.078277
C47	C	1.645679	-0.578051	-0.578305
C48	C	2.145679	-0.078051	-0.078305
C49	C	1.752893	-0.578058	-0.578317
C50	C	2.252893	-0.078058	-0.078317
C51	C	1.394160	-0.577900	-0.891320
C52	C	1.894160	-0.077900	-0.391320
C53	C	1.394192	-0.577844	-1.024720
C54	C	1.894192	-0.077844	-0.524720
C55	C	1.394151	-0.264991	-0.578313
C56	C	1.894151	0.235009	-0.078313
C57	C	1.394178	-0.131591	-0.578328
C58	C	1.894178	0.368409	-0.078328
C59	C	1.394068	-0.578080	-0.266452
C60	C	1.894068	-0.078080	0.233548
C61	C	1.394223	-0.577799	-0.133053
C62	C	1.894223	-0.077799	0.366947
