data_functionalizedCrystal
_audit_creation_method	'MofGen! by Chris Wilmer'
_symmetry_space_group_name_H-M	'P1'
_symmetry_Int_Tables_number	1
_symmetry_cell_setting	triclinic
loop_
_symmetry_equiv_pos_as_xyz
  x,y,z
_cell_length_a	17.699083
_cell_length_b	9.130313
_cell_length_c	10.654550
_cell_angle_alpha	89.995631
_cell_angle_beta	83.883973
_cell_angle_gamma	90.002506
loop_
_atom_site_label
_atom_site_type_symbol
_atom_site_fract_x
_atom_site_fract_y
_atom_site_fract_z
O1	O	1.005084	-0.121593	0.158806
O2	O	0.784837	-0.121641	0.179467
O3	O	0.900025	-0.121607	-0.013692
O4	O	0.889897	-0.121628	0.351964
O5	O	0.900017	0.121992	-0.013697
O6	O	0.784829	0.121957	0.179461
O7	O	1.005076	0.122005	0.158800
Cu8	Cu	0.894952	0.144224	0.169130
Cu9	Cu	0.894962	-0.143860	0.169137
O10	O	0.889889	0.121971	0.351959
C11	C	0.756632	0.000152	0.178724
C12	C	0.672599	0.000134	0.176503
N13	N	0.894951	0.346847	0.169125
N14	N	0.894969	-0.346483	0.169132
C15	C	0.624699	0.000128	0.289883
C16	C	0.545743	0.000147	0.287788
C17	C	0.514688	0.000162	0.172313
C18	C	0.562594	0.000172	0.058924
C19	C	0.641549	0.000163	0.061020
C20	C	0.244177	0.000209	0.050470
C21	C	0.165216	0.000213	0.048383
C22	C	0.148371	0.000192	0.277239
C23	C	0.227326	0.000184	0.279334
C24	C	0.275225	0.000202	0.165946
C25	C	0.360839	0.000184	0.168219
C26	C	0.429076	0.000169	0.170039
C27	C	1.033282	0.000209	0.159543
C28	C	1.117314	0.000217	0.161764
C29	C	0.899277	0.000191	-0.060479
C30	C	0.897052	0.000189	-0.199884
C31	C	0.945973	0.423514	0.083630
C32	C	0.945981	0.576850	0.083630
C33	C	0.843941	0.576840	0.254631
C34	C	0.843930	0.423506	0.254624
C35	C	0.964873	0.000203	-0.280556
C36	C	0.962778	0.000185	-0.411541
C37	C	0.825036	0.000144	-0.381166
C38	C	0.827132	0.000152	-0.250185
C39	C	0.890637	0.000169	0.398746
C40	C	0.892861	0.000163	0.538151
H41	H	0.649978	0.000115	0.383916
O42	O	0.995618	0.651097	0.000535
C43	C	1.040631	0.550549	-0.074947
H44	H	1.041746	0.441241	-0.023461
H45	H	1.100973	0.594846	-0.094226
H46	H	1.015573	0.534255	-0.168190
H47	H	0.802378	0.361079	0.324245
O48	O	0.532393	-0.000073	-0.053218
C49	C	0.487206	-0.126213	-0.061261
H50	H	0.506216	-0.214400	0.004307
H51	H	0.493759	-0.168554	-0.162492
H52	H	0.425105	-0.097689	-0.032105
H53	H	0.283168	0.000225	-0.041858
O54	O	0.757183	0.000187	-0.430241
C55	C	0.769874	0.000151	-0.563148
H56	H	0.828774	0.046283	-0.594093
H57	H	0.725092	0.070864	-0.603234
H58	H	0.766019	-0.116717	-0.599590
O59	O	0.101731	0.000254	0.387272
C60	C	0.025383	0.000233	0.360671
H61	H	0.021840	0.046367	0.262044
H62	H	-0.009998	0.070951	0.432960
H63	H	0.002571	-0.116631	0.365498
H64	H	0.802402	0.639271	0.324245
H65	H	1.021807	0.000230	-0.239606
O66	O	0.761175	0.000204	-0.171989
C67	C	0.699012	0.000145	-0.244469
H68	H	0.717702	0.046268	-0.342295
H69	H	0.651448	0.070854	-0.196003
H70	H	0.677620	-0.116729	-0.253719
H71	H	0.506745	0.000140	0.380114
H72	H	1.018004	0.000193	-0.477220
H73	H	0.139935	0.000227	-0.045657
O74	O	0.257367	0.000236	0.391617
C75	C	0.198157	0.000200	0.491243
H76	H	0.144346	0.046324	0.456204
H77	H	0.215081	0.070919	0.571876
H78	H	0.187164	-0.116667	0.526211
H79	H	0.987516	0.361101	0.014009
H80	H	0.680549	0.000167	-0.031306
