data_functionalizedCrystal
_audit_creation_method	'MofGen! by Chris Wilmer'
_symmetry_space_group_name_H-M	'P1'
_symmetry_Int_Tables_number	1
_symmetry_cell_setting	triclinic
loop_
_symmetry_equiv_pos_as_xyz
  x,y,z
_cell_length_a	6.817900
_cell_length_b	11.102244
_cell_length_c	16.305550
_cell_angle_alpha	93.871173
_cell_angle_beta	103.455250
_cell_angle_gamma	108.604870
loop_
_atom_site_label
_atom_site_type_symbol
_atom_site_fract_x
_atom_site_fract_y
_atom_site_fract_z
V1	V	-4.052579	-0.176911	-0.263029
O2	O	-4.012740	0.007398	-0.258024
O3	O	-4.029754	-0.349723	-0.261228
O4	O	-4.003652	-0.174674	-0.377746
O5	O	-4.039022	-0.168863	-0.140700
V6	V	-4.532962	-0.154808	-0.248398
O7	O	-4.320727	-0.225395	-0.295124
O8	O	-4.715011	-0.106324	-0.216303
O9	O	-4.332581	0.018004	-0.250199
O10	O	-4.690198	-0.339117	-0.253403
O11	O	-4.663916	-0.162856	-0.370727
O12	O	-4.358682	-0.157045	-0.133681
C13	C	-3.880993	-0.391836	-0.257078
C14	C	-3.943614	-0.533115	-0.256370
C15	C	-3.930174	-0.581034	-0.178786
C16	C	-3.989025	-0.713783	-0.178131
C17	C	-4.074747	-0.750686	-0.332650
C18	C	-4.015911	-0.617939	-0.333305
C19	C	-3.880675	-0.559729	-0.089575
C20	C	-3.939526	-0.692479	-0.088920
C21	C	-3.847697	-0.168542	-0.405708
C22	C	-3.889147	-0.167856	-0.499489
C23	C	-4.039838	-0.165200	-0.840235
C24	C	-3.802616	-0.157314	-0.799306
C25	C	-3.759607	-0.158553	-0.701811
C26	C	-3.965077	-0.166517	-0.671187
C27	C	-4.150793	-0.292032	-0.721812
C28	C	-4.192551	-0.291322	-0.819361
C29	C	-4.077233	-0.048574	-0.794393
C30	C	-4.029156	-0.047580	-0.696550
C31	C	-3.922838	-0.167266	-0.575649
C32	C	-4.082087	-0.164460	-0.935774
C33	C	-4.144684	0.060110	-0.254347
C34	C	-4.061302	0.201388	-0.255060
C35	C	-4.177980	-0.163182	-0.105715
C36	C	-4.115768	-0.163861	-0.011932
H37	H	-3.619677	-0.068308	-0.666789
H38	H	-3.702061	-0.506802	-0.058765
N39	N	-4.029610	-0.568969	-0.412547
N40	N	-3.977062	-0.450444	-0.413123
H41	H	-3.986732	-0.415856	-0.469090
H42	H	-4.087431	-0.732180	-0.064365
H43	H	-4.169548	-0.379612	-0.849742
H44	H	-4.133617	-0.819765	-0.395288
H45	H	-3.682981	-0.066643	-0.811671
H46	H	-3.986247	-0.520508	-0.058728
N47	N	-3.759407	-0.721153	-0.041671
N48	N	-3.584240	-0.632494	-0.008926
H49	H	-3.457035	-0.652743	0.024443
H50	H	-4.368026	-0.302330	-0.847353
N51	N	-4.344856	-0.305066	-0.698075
N52	N	-4.430756	-0.401291	-0.666597
H53	H	-4.567812	-0.410495	-0.649831
H54	H	-3.894290	0.045258	-0.662173
N55	N	-4.097799	-0.402841	-0.700732
N56	N	-4.216047	-0.485512	-0.668355
H57	H	-4.178613	-0.563770	-0.653469
N58	N	-3.761711	-0.262429	-0.838843
N59	N	-3.906509	-0.343125	-0.897032
H60	H	-3.877628	-0.417366	-0.924957
H61	H	-3.705797	-0.243311	-0.685517
H62	H	-3.971676	0.046528	-0.807762
H63	H	-4.176211	-0.046019	-0.675203
H64	H	-4.249992	-0.053235	-0.821209
