data_functionalizedCrystal
_audit_creation_method	'MofGen! by Chris Wilmer'
_symmetry_space_group_name_H-M	'P1'
_symmetry_Int_Tables_number	1
_symmetry_cell_setting	triclinic
loop_
_symmetry_equiv_pos_as_xyz
  x,y,z
_cell_length_a	17.699077
_cell_length_b	16.992695
_cell_length_c	16.776229
_cell_angle_alpha	89.996425
_cell_angle_beta	89.994802
_cell_angle_gamma	86.974400
loop_
_atom_site_label
_atom_site_type_symbol
_atom_site_fract_x
_atom_site_fract_y
_atom_site_fract_z
O1	O	1.010251	0.099120	-0.066278
O2	O	0.790676	0.112024	-0.066282
O3	O	0.899583	-0.008569	-0.066274
O4	O	0.901344	0.219713	-0.066287
O5	O	0.899570	-0.008570	0.066302
O6	O	0.790663	0.112023	0.066294
O7	O	1.010238	0.099119	0.066298
Zn8	Zn	0.900448	0.105571	0.087345
Zn9	Zn	0.900466	0.105572	-0.087330
O10	O	0.901331	0.219712	0.066290
C11	C	0.762443	0.111562	0.000005
C12	C	0.678339	0.110177	0.000004
C13	C	0.638824	0.109524	0.072272
C14	C	0.559799	0.108211	0.072273
C15	C	0.520291	0.107555	0.000005
C16	C	0.559812	0.108206	-0.072269
C17	C	0.638835	0.109514	-0.072269
C18	C	0.241120	0.102930	-0.072270
C19	C	0.162092	0.101624	-0.072265
C20	C	0.162084	0.101627	0.072272
C21	C	0.241108	0.102935	0.072272
C22	C	0.280622	0.103581	-0.000001
C23	C	0.366309	0.105004	-0.000002
C24	C	0.434605	0.106138	0.000004
C25	C	0.897312	-0.037778	0.000014
C26	C	0.890555	-0.124809	0.000014
C27	C	0.955753	-0.175175	0.000016
C28	C	0.949399	-0.256949	0.000008
C29	C	0.877847	-0.288356	0.000004
C30	C	0.812644	-0.237983	-0.000000
C31	C	0.818999	-0.156211	0.000002
C32	C	0.851511	-0.531903	-0.000007
C33	C	0.845161	-0.613682	-0.000007
C34	C	0.981917	-0.632642	-0.000000
C35	C	0.988265	-0.550867	0.000007
C36	C	0.923062	-0.500502	-0.000002
N37	N	0.871351	-0.371942	-0.000001
N38	N	0.929559	-0.416917	-0.000002
C39	C	1.038471	0.099581	0.000009
C40	C	1.122575	0.100966	0.000005
C41	C	0.903602	0.248921	-0.000000
C42	C	0.910359	0.335952	-0.000005
N43	N	0.900442	0.105570	0.206557
N44	N	0.900478	0.105566	-0.206541
C45	C	0.949214	0.153062	0.248268
C46	C	0.949222	0.153059	0.331721
C47	C	0.900454	0.105568	0.373460
C48	C	0.851680	0.058071	0.331742
C49	C	0.851676	0.058070	0.248291
C50	C	0.851695	0.058072	0.668289
C51	C	0.851701	0.058078	0.751746
C52	C	0.949242	0.153061	0.751718
C53	C	0.949238	0.153060	0.668268
C54	C	0.900467	0.105560	0.626557
C55	C	0.900459	0.105563	0.536069
C56	C	0.900457	0.105569	0.463946
H57	H	0.273284	0.103453	-0.131120
H58	H	1.046530	-0.525303	0.000010
H59	H	0.670985	0.110065	0.131122
H60	H	0.988939	0.191731	0.365679
H61	H	0.129903	0.101097	0.131121
F62	F	1.051305	-0.686250	0.000008
F63	F	0.799794	0.007528	0.796166
H64	H	0.129926	0.101090	-0.131118
H65	H	0.811976	0.019399	0.365732
H66	H	0.527639	0.107667	-0.131111
F67	F	0.799767	0.007542	0.623909
H68	H	0.671008	0.110047	-0.131117
F69	F	0.799772	0.007516	0.203899
H70	H	0.786892	-0.639250	0.000003
F71	F	1.001150	0.203613	0.796116
H72	H	1.002490	-0.297955	0.000011
H73	H	0.273271	0.103472	0.131120
H74	H	0.798418	-0.490905	-0.000014
F75	F	1.001119	0.203612	0.203854
F76	F	0.517747	0.107527	0.149191
H77	H	1.014018	-0.149611	0.000024
F78	F	0.736493	-0.271411	-0.000014
F79	F	1.001135	0.203616	0.623851
H80	H	0.765908	-0.115203	-0.000000
