data_functionalizedCrystal
_audit_creation_method	'MofGen! by Chris Wilmer'
_symmetry_space_group_name_H-M	'P1'
_symmetry_Int_Tables_number	1
_symmetry_cell_setting	triclinic
loop_
_symmetry_equiv_pos_as_xyz
  x,y,z
_cell_length_a	9.065215
_cell_length_b	13.596369
_cell_length_c	9.065218
_cell_angle_alpha	90.004126
_cell_angle_beta	94.984675
_cell_angle_gamma	89.995444
loop_
_atom_site_label
_atom_site_type_symbol
_atom_site_fract_x
_atom_site_fract_y
_atom_site_fract_z
O1	O	-1.960405	0.081771	0.216340
O2	O	-1.460405	0.581771	0.716340
O3	O	-1.531120	0.081776	0.234091
O4	O	-1.031120	0.581776	0.734091
O5	O	-1.754636	0.081771	0.010573
O6	O	-1.254636	0.581771	0.510573
O7	O	-1.736889	0.081775	0.439858
O8	O	-1.236889	0.581775	0.939858
O9	O	-1.754613	-0.081812	0.010561
O10	O	-1.254613	0.418188	0.510561
O11	O	-1.531097	-0.081807	0.234079
O12	O	-1.031097	0.418193	0.734079
O13	O	-1.960383	-0.081812	0.216328
O14	O	-1.460383	0.418188	0.716328
Zn15	Zn	-1.745736	-0.107782	0.225201
Zn16	Zn	-1.245736	0.392218	0.725201
Zn17	Zn	-1.745766	0.107746	0.225217
Zn18	Zn	-1.245766	0.607746	0.725217
O19	O	-1.736867	-0.081807	0.439846
O20	O	-1.236867	0.418193	0.939846
C21	C	-1.476122	-0.000015	0.232380
C22	C	-0.976122	0.499985	0.732380
C23	C	-1.312279	-0.000013	0.227282
C24	C	-0.812279	0.499987	0.727282
N25	N	-1.745727	-0.254874	0.225189
N26	N	-1.245727	0.245126	0.725189
C27	C	-1.745764	-0.656165	0.225219
C28	C	-1.245764	-0.156165	0.725219
C29	C	-1.745750	-0.544513	0.225216
C30	C	-1.245750	-0.044513	0.725216
C31	C	-1.745746	-0.455523	0.225205
C32	C	-1.245746	0.044477	0.725205
C33	C	-1.745730	-0.343864	0.225200
C34	C	-1.245730	0.156136	0.725200
C35	C	-1.015381	-0.000019	0.218039
C36	C	-0.515381	0.499981	0.718039
C37	C	-1.179224	-0.000012	0.223136
C38	C	-0.679224	0.499988	0.723136
C39	C	-1.752919	-0.000019	-0.044420
C40	C	-1.252919	0.499981	0.455580
C41	C	-1.747819	-0.000014	-0.208263
C42	C	-1.247819	0.499986	0.291737
N43	N	-1.745787	0.254838	0.225218
N44	N	-1.245787	0.754838	0.725218
C45	C	-1.738584	-0.000015	0.494838
C46	C	-1.238584	0.499985	0.994838
C47	C	-1.743683	-0.000014	0.658681
C48	C	-1.243683	0.499986	1.158681
