data_functionalizedCrystal
_audit_creation_method	'MofGen! by Chris Wilmer'
_symmetry_space_group_name_H-M	'P1'
_symmetry_Int_Tables_number	1
_symmetry_cell_setting	triclinic
loop_
_symmetry_equiv_pos_as_xyz
  x,y,z
_cell_length_a	16.109302
_cell_length_b	9.482900
_cell_length_c	16.109301
_cell_angle_alpha	99.330319
_cell_angle_beta	96.538369
_cell_angle_gamma	99.288686
loop_
_atom_site_label
_atom_site_type_symbol
_atom_site_fract_x
_atom_site_fract_y
_atom_site_fract_z
O1	O	1.116101	0.120965	-0.093841
O2	O	1.449434	0.454298	0.239492
O3	O	1.782767	0.787632	0.572825
O4	O	0.874038	0.120954	-0.107141
O5	O	1.207371	0.454288	0.226192
O6	O	1.540704	0.787621	0.559526
O7	O	1.001717	0.120945	0.020538
O8	O	1.335051	0.454279	0.353872
O9	O	1.668384	0.787612	0.687205
O10	O	0.988421	0.120974	-0.221521
O11	O	1.321754	0.454308	0.111813
O12	O	1.655088	0.787641	0.445146
O13	O	0.975783	-0.120845	-0.005500
O14	O	1.309116	0.212488	0.327833
O15	O	1.642449	0.545821	0.661166
O16	O	0.848103	-0.120836	-0.133180
O17	O	1.181436	0.212497	0.200154
O18	O	1.514770	0.545830	0.533487
O19	O	1.090166	-0.120826	-0.119880
O20	O	1.423499	0.212508	0.213453
O21	O	1.756833	0.545841	0.546787
Cu22	Cu	0.966767	-0.142908	-0.128907
Cu23	Cu	1.300100	0.190425	0.204426
Cu24	Cu	1.633433	0.523758	0.537759
Cu25	Cu	0.997437	0.143037	-0.098114
Cu26	Cu	1.330771	0.476370	0.235220
Cu27	Cu	1.664104	0.809704	0.568553
O28	O	0.962487	-0.120816	-0.247559
O29	O	1.295820	0.212517	0.085774
O30	O	1.629153	0.545850	0.419107
C31	C	0.830095	0.000057	-0.119622
C32	C	1.163429	0.333391	0.213712
C33	C	1.496762	0.666724	0.547045
C34	C	0.737800	0.000053	-0.118007
C35	C	1.071133	0.333386	0.215326
C36	C	1.404466	0.666719	0.548660
C37	C	0.511323	-0.131733	-0.128464
C38	C	0.844657	0.201600	0.204869
C39	C	1.177990	0.534933	0.538203
C40	C	0.424604	-0.131728	-0.126937
C41	C	0.757937	0.201605	0.206397
C42	C	1.091270	0.534938	0.539730
C43	C	0.452890	0.131885	-0.098552
C44	C	0.786223	0.465218	0.234781
C45	C	1.119556	0.798552	0.568114
C46	C	0.539608	0.131879	-0.100074
C47	C	0.872941	0.465212	0.233260
C48	C	1.206275	0.798545	0.566593
C49	C	0.568822	0.000065	-0.115034
C50	C	0.902155	0.333398	0.218299
C51	C	1.235488	0.666732	0.551633
C52	C	0.395384	0.000076	-0.111985
C53	C	0.728717	0.333410	0.221348
C54	C	1.062050	0.666743	0.554681
C55	C	0.301359	0.000083	-0.110329
C56	C	0.634692	0.333416	0.223004
C57	C	0.968025	0.666749	0.556337
C58	C	0.662853	0.000058	-0.116689
C59	C	0.996186	0.333392	0.216645
C60	C	1.329520	0.666725	0.549978
N61	N	0.945200	-0.344027	-0.150565
N62	N	1.278534	-0.010694	0.182768
N63	N	1.611867	0.322640	0.516101
C64	C	0.991070	-0.416229	-0.104497
C65	C	1.324404	-0.082896	0.228836
C66	C	1.657737	0.250437	0.562169
C67	C	0.973133	-0.583646	-0.122524
C68	C	1.306467	-0.250312	0.210810
C69	C	1.639800	0.083021	0.544143
C70	C	1.134109	0.000075	-0.107399
C71	C	1.467442	0.333408	0.225935
C72	C	1.800776	0.666741	0.559268
C73	C	1.226406	0.000089	-0.109013
C74	C	1.559739	0.333422	0.224321
C75	C	1.893072	0.666755	0.557654
C76	C	0.988211	0.000049	0.038494
C77	C	1.321545	0.333382	0.371827
C78	C	1.654878	0.666716	0.705160
C79	C	0.986596	0.000047	0.130789
C80	C	1.319929	0.333380	0.464122
C81	C	1.653263	0.666714	0.797455
N82	N	1.019010	0.344156	-0.076449
N83	N	1.352343	0.677489	0.256884
N84	N	1.685677	1.010822	0.590218
C85	C	0.975993	0.000083	-0.265514
C86	C	1.309326	0.333416	0.067819
C87	C	1.642660	0.666750	0.401152
C88	C	0.977609	0.000095	-0.357808
C89	C	1.310943	0.333428	-0.024475
C90	C	1.644276	0.666761	0.308858
C91	C	1.058606	0.000073	0.353064
C92	C	1.391940	0.333407	0.686397
C93	C	1.725273	0.666740	1.019731
C94	C	1.057084	0.000085	0.439786
C95	C	1.390417	0.333418	0.773119
C96	C	1.723750	0.666752	1.106452
C97	C	0.905594	0.000073	0.419910
C98	C	1.238927	0.333406	0.753244
C99	C	1.572260	0.666739	1.086577
C100	C	0.907118	0.000071	0.333191
C101	C	1.240452	0.333405	0.666525
C102	C	1.573785	0.666738	0.999858
C103	C	0.983626	0.000064	0.299770
C104	C	1.316960	0.333397	0.633103
C105	C	1.650293	0.666731	0.966437
C106	C	0.980579	0.000077	0.473210
C107	C	1.313912	0.333411	0.806544
C108	C	1.647246	0.666744	1.139877
C109	C	0.978927	0.000090	0.567238
C110	C	1.312261	0.333424	0.900571
C111	C	1.645594	0.666757	1.233905
C112	C	0.985279	0.000054	0.205737
C113	C	1.318612	0.333387	0.539070
C114	C	1.651945	0.666721	0.872404
H115	H	0.586427	0.239211	-0.089135
H116	H	0.919760	0.572545	0.244199
H117	H	1.253094	0.905878	0.577532
F118	F	1.087841	-0.574655	-0.007587
F119	F	1.421175	-0.241322	0.325746
F120	F	1.754508	0.092011	0.659079
H121	H	0.535105	-0.239064	-0.140646
H122	H	0.868439	0.094269	0.192688
H123	H	1.201772	0.427602	0.526021
H124	H	1.120904	0.000071	0.325856
H125	H	1.454238	0.333404	0.659189
H126	H	1.787571	0.666737	0.992522
H127	H	0.429093	0.239203	-0.086373
H128	H	0.762426	0.572536	0.246961
H129	H	1.095759	0.905869	0.580294
H130	H	0.892647	-0.406153	-0.203348
H131	H	1.225980	-0.072820	0.129985
H132	H	1.559314	0.260513	0.463318
H133	H	0.843303	0.000076	0.447133
H134	H	1.176636	0.333409	0.780466
H135	H	1.509970	0.666742	1.113799
F136	F	1.136888	0.000098	0.496502
F137	F	1.470222	0.333431	0.829835
F138	F	1.803555	0.666765	1.163169
H139	H	0.846057	0.000068	0.289797
H140	H	1.179391	0.333401	0.623131
H141	H	1.512724	0.666735	0.956464
F142	F	0.904437	-0.664838	-0.191520
F143	F	1.237770	-0.331504	0.141814
F144	F	1.571104	0.001829	0.475147
F145	F	1.059611	-0.335032	-0.035354
F146	F	1.392944	-0.001699	0.297979
F147	F	1.726278	0.331635	0.631312
F148	F	0.363412	-0.272007	-0.141231
F149	F	0.696746	0.061327	0.192102
F150	F	1.030079	0.394660	0.525435
