data_functionalizedCrystal
_audit_creation_method	'MofGen! by Chris Wilmer'
_symmetry_space_group_name_H-M	'P1'
_symmetry_Int_Tables_number	1
_symmetry_cell_setting	triclinic
loop_
_symmetry_equiv_pos_as_xyz
  x,y,z
_cell_length_a	16.625546
_cell_length_b	12.759401
_cell_length_c	12.759393
_cell_angle_alpha	89.981433
_cell_angle_beta	89.963806
_cell_angle_gamma	90.021512
loop_
_atom_site_label
_atom_site_type_symbol
_atom_site_fract_x
_atom_site_fract_y
_atom_site_fract_z
Zn1	Zn	-0.320975	1.606199	-0.593950
Zn2	Zn	-0.455831	1.606069	-0.418255
Zn3	Zn	-0.321014	1.430501	-0.418289
Zn4	Zn	-0.455767	1.430465	-0.593897
O5	O	-0.388397	1.518308	-0.506098
O6	O	-0.338874	1.753202	-0.570651
O7	O	-0.437991	1.582740	-0.271239
O8	O	-0.208177	1.453876	-0.441627
O9	O	-0.437953	1.753107	-0.441570
O10	O	-0.208147	1.582961	-0.570684
O11	O	-0.338942	1.453751	-0.271263
O12	O	-0.338879	1.283475	-0.441575
O13	O	-0.437843	1.453816	-0.740925
O14	O	-0.437881	1.283449	-0.570594
O15	O	-0.338811	1.582927	-0.740964
O16	O	-0.568655	1.582706	-0.441519
O17	O	-0.568608	1.453691	-0.570561
C18	C	-0.388378	1.245341	-0.506083
C19	C	-0.388389	1.128564	-0.506102
C20	C	-0.336896	1.073745	-0.573419
C21	C	-0.336912	0.964021	-0.573425
C22	C	-0.439920	0.963945	-0.438795
C23	C	-0.439900	1.073668	-0.438784
C24	C	-0.277428	1.073788	-0.651150
C25	C	-0.277443	0.964064	-0.651156
C26	C	-0.597888	1.518209	-0.506054
C27	C	-0.687509	1.518263	-0.506070
C28	C	-1.015684	1.518446	-0.506179
C29	C	-0.924376	1.518392	-0.506152
C30	C	-0.851599	1.518353	-0.506124
C31	C	-0.760285	1.518301	-0.506098
C32	C	-0.178088	1.518437	-0.506165
C33	C	-0.088467	1.518492	-0.506193
C34	C	-0.388416	1.792342	-0.506113
C35	C	-0.388425	1.909118	-0.506119
C36	C	-0.388315	1.518382	-0.780131
C37	C	-0.388281	1.518413	-0.896908
C38	C	-0.336710	1.585650	-0.951792
C39	C	-0.336681	1.585675	-1.061516
C40	C	-0.439800	1.451223	-1.061462
C41	C	-0.439824	1.451194	-0.951740
C42	C	-0.277178	1.663279	-0.951823
C43	C	-0.277149	1.663304	-1.061548
C44	C	-0.388420	1.518296	-0.233130
C45	C	-0.388227	1.518468	-0.116354
H46	H	-0.481815	1.396439	-0.907058
H47	H	-0.481823	1.118297	-0.383958
H48	H	-0.214734	1.641521	-0.922074
H49	H	-0.481763	1.396493	-1.106120
H50	H	-0.299565	1.740546	-0.917785
H51	H	-0.217817	1.634200	-1.095602
O52	O	-0.202939	1.109499	-0.625382
C53	C	-0.203066	1.220001	-0.625397
H54	H	-0.254044	1.249664	-0.677219
H55	H	-0.212094	1.249756	-0.541977
C56	C	-0.059534	1.224011	-0.604449
C57	C	-0.122142	1.260443	-0.668105
H58	H	-0.009616	1.248959	-0.630788
H59	H	-0.059449	1.149564	-0.604434
H60	H	-0.067068	1.248810	-0.534936
H61	H	-0.114613	1.235633	-0.737612
H62	H	-0.122225	1.334887	-0.668132
O63	O	-0.297246	1.760335	-1.097036
C64	C	-0.374492	1.787096	-1.060078
H65	H	-0.409317	1.712619	-1.040556
H66	H	-0.368647	1.837401	-0.986648
C67	C	-0.376948	1.940453	-1.169247
C68	C	-0.419724	1.848979	-1.145278
H69	H	-0.404849	1.978630	-1.221800
H70	H	-0.324905	1.922427	-1.194144
H71	H	-0.372081	1.982362	-1.108049
H72	H	-0.424582	1.807067	-1.206473
H73	H	-0.471769	1.867000	-1.120393
O74	O	-0.206569	0.923537	-0.616748
C75	C	-0.143606	0.957856	-0.682417
H76	H	-0.169057	0.980403	-0.762239
H77	H	-0.112983	1.028838	-0.645656
C78	C	-0.050554	0.841312	-0.597941
C79	C	-0.081813	0.868996	-0.695983
H80	H	-0.012435	0.786502	-0.606307
H81	H	-0.092972	0.818193	-0.553696
H82	H	-0.025040	0.900471	-0.567318
H83	H	-0.107334	0.809841	-0.726599
H84	H	-0.039397	0.892103	-0.740235
O85	O	-0.490070	0.910732	-0.373462
C86	C	-0.570450	0.937515	-0.396249
H87	H	-0.572145	1.017196	-0.436627
H88	H	-0.597666	0.875777	-0.450204
C89	C	-0.617115	0.844668	-0.244117
C90	C	-0.619198	0.942537	-0.293702
H91	H	-0.647187	0.847761	-0.180863
H92	H	-0.562962	0.826619	-0.228767
H93	H	-0.639794	0.793230	-0.289091
H94	H	-0.596510	0.993970	-0.248734
H95	H	-0.673348	0.960594	-0.309042
O96	O	-0.304057	1.114378	-0.743377
C97	C	-0.253875	1.080172	-0.825647
H98	H	-0.192534	1.057629	-0.792756
H99	H	-0.282202	1.009214	-0.865449
C100	C	-0.318994	1.196801	-0.946575
C101	C	-0.243652	1.169121	-0.906179
H102	H	-0.312690	1.251666	-0.996254
H103	H	-0.352805	1.219844	-0.891150
H104	H	-0.342591	1.137662	-0.979736
H105	H	-0.220060	1.228256	-0.873008
H106	H	-0.209837	1.146090	-0.961601
H107	H	-0.294247	0.934316	-0.732490
