data_functionalizedCrystal
_audit_creation_method	'MofGen! by Chris Wilmer'
_symmetry_space_group_name_H-M	'P1'
_symmetry_Int_Tables_number	1
_symmetry_cell_setting	triclinic
loop_
_symmetry_equiv_pos_as_xyz
  x,y,z
_cell_length_a	16.992694
_cell_length_b	16.992695
_cell_length_c	16.053789
_cell_angle_alpha	87.278479
_cell_angle_beta	87.284206
_cell_angle_gamma	90.668223
loop_
_atom_site_label
_atom_site_type_symbol
_atom_site_fract_x
_atom_site_fract_y
_atom_site_fract_z
O1	O	-1.053992	-0.170057	0.069326
O2	O	-0.825593	-0.168227	0.069350
O3	O	-0.938876	-0.054942	0.069331
O4	O	-0.940708	-0.283343	0.069344
O5	O	-0.932574	-0.048647	-0.069528
O6	O	-0.819290	-0.161932	-0.069509
O7	O	-1.047689	-0.163762	-0.069533
Zn8	Zn	-0.932489	-0.161847	-0.091568
Zn9	Zn	-0.940793	-0.170142	0.091385
O10	O	-0.934406	-0.277047	-0.069515
C11	C	-0.793082	-0.162724	-0.000076
C12	C	-0.705597	-0.155696	-0.000067
N13	N	-0.926828	-0.156187	-0.216428
C14	C	-0.933369	-0.022434	-0.000098
C15	C	-0.926341	0.065050	-0.000097
C16	C	-1.080201	-0.169265	-0.000105
C17	C	-1.167685	-0.176294	-0.000109
C18	C	-0.659607	-0.223514	-0.000064
C19	C	-0.577405	-0.216904	-0.000076
C20	C	-0.541197	-0.142476	-0.000085
C21	C	-0.587193	-0.074653	-0.000091
C22	C	-0.669393	-0.081263	-0.000085
C23	C	-0.295881	-0.115081	-0.000109
C24	C	-0.213676	-0.108476	-0.000112
C25	C	-0.203893	-0.250728	-0.000099
C26	C	-0.286095	-0.257332	-0.000088
C27	C	-0.332084	-0.189508	-0.000098
N28	N	-0.457174	-0.135719	-0.000094
N29	N	-0.416105	-0.196266	-0.000094
C30	C	-0.939913	-0.309555	-0.000084
C31	C	-0.946942	-0.397040	-0.000079
C32	C	-0.994158	0.111042	-0.000105
C33	C	-0.987550	0.193242	-0.000096
C34	C	-0.913123	0.229450	-0.000086
C35	C	-0.845300	0.183452	-0.000075
C36	C	-0.851910	0.101253	-0.000078
C37	C	-0.885729	0.474763	-0.000071
C38	C	-0.879124	0.556969	-0.000071
C39	C	-1.021375	0.566753	-0.000091
C40	C	-1.027977	0.484552	-0.000099
C41	C	-0.960155	0.438561	-0.000083
N42	N	-0.906366	0.313472	-0.000079
N43	N	-0.966913	0.354541	-0.000084
C44	C	-0.975581	-0.204971	-0.260121
C45	C	-0.971631	-0.201007	-0.347528
C46	C	-0.918923	-0.148261	-0.391241
C47	C	-0.870168	-0.099472	-0.347542
C48	C	-0.874122	-0.103433	-0.260136
C49	C	-0.901660	-0.130968	-0.652651
C50	C	-0.897707	-0.127012	-0.740062
C51	C	-0.999172	-0.228547	-0.740043
C52	C	-1.003118	-0.232506	-0.652636
C53	C	-0.954366	-0.183714	-0.608944
N54	N	-0.914882	-0.144210	-0.480584
N55	N	-0.958411	-0.187762	-0.519602
N56	N	-0.946460	-0.175797	0.216245
H57	H	-0.689081	-0.284121	-0.000056
H58	H	-0.818513	0.586447	-0.000076
C59	C	-0.325923	-0.339201	-0.000074
H60	H	-0.381465	-0.333424	-0.000061
H61	H	-0.308254	-0.365154	-0.048493
H62	H	-0.312630	-0.369529	0.048360
C63	C	-0.839709	-0.069007	-0.788144
H64	H	-0.811239	-0.040516	-0.749606
H65	H	-0.803965	-0.097449	-0.822228
H66	H	-0.868145	-0.033268	-0.822255
H67	H	-1.011332	-0.240731	-0.383099
H68	H	-1.042774	0.230685	-0.000105
C69	C	-0.848027	-0.077306	-0.604601
H70	H	-0.816064	-0.045334	-0.643155
H71	H	-0.879554	-0.044659	-0.570505
H72	H	-0.815358	-0.108823	-0.570505
C73	C	-1.061096	-0.290527	-0.604558
H74	H	-1.089571	-0.319011	-0.643099
H75	H	-1.032646	-0.326258	-0.570461
H76	H	-1.096851	-0.262102	-0.570461
H77	H	-1.038864	-0.268270	-0.775625
C78	C	-0.820491	-0.049776	-0.212070
H79	H	-0.830399	-0.059684	-0.153755
H80	H	-0.766899	-0.060346	-0.226397
H81	H	-0.831101	0.003813	-0.226398
C82	C	-1.095973	0.617343	-0.000095
H83	H	-1.081380	0.671483	-0.000085
H84	H	-1.124085	0.608082	-0.048520
H85	H	-1.128472	0.603680	0.048333
H86	H	-1.018497	-0.247926	-0.224537
H87	H	-0.827256	-0.056522	-0.383139
H88	H	-0.784700	0.212939	-0.000061
C89	C	-0.526816	-0.291502	-0.000064
H90	H	-0.472674	-0.276908	-0.000077
H91	H	-0.540467	-0.323999	0.048366
H92	H	-0.536087	-0.319619	-0.048487
C93	C	-0.173848	-0.026601	-0.000124
H94	H	-0.213009	0.012846	-0.000136
H95	H	-0.144178	-0.023261	0.048299
H96	H	-0.139792	-0.018877	-0.048554
C97	C	-0.153308	-0.325329	-0.000092
H98	H	-0.186646	-0.370601	-0.000080
H99	H	-0.118846	-0.323516	-0.048516
H100	H	-0.123232	-0.327901	0.048337
H101	H	-0.796685	0.063808	-0.000071
C102	C	-0.346459	-0.040478	-0.000114
H103	H	-0.313120	0.004793	-0.000112
H104	H	-0.376537	-0.037902	-0.048536
H105	H	-0.380920	-0.042292	0.048316
C106	C	-1.109845	0.444725	-0.000116
H107	H	-1.104068	0.389184	-0.000127
H108	H	-1.140192	0.458005	0.048300
H109	H	-1.135779	0.462409	-0.048552
C110	C	-0.547366	0.007216	-0.000099
H111	H	-0.491824	0.001441	-0.000093
H112	H	-0.560656	0.037553	-0.048523
H113	H	-0.565041	0.033159	0.048330
H114	H	-0.706838	-0.026038	-0.000087
H115	H	-1.054765	0.081568	-0.000119
H116	H	-0.830503	0.437328	-0.000059
