data_functionalizedCrystal
_audit_creation_method	'MofGen! by Chris Wilmer'
_symmetry_space_group_name_H-M	'P1'
_symmetry_Int_Tables_number	1
_symmetry_cell_setting	triclinic
loop_
_symmetry_equiv_pos_as_xyz
  x,y,z
_cell_length_a	19.188931
_cell_length_b	9.130313
_cell_length_c	10.654550
_cell_angle_alpha	90.001643
_cell_angle_beta	96.184977
_cell_angle_gamma	89.996723
loop_
_atom_site_label
_atom_site_type_symbol
_atom_site_fract_x
_atom_site_fract_y
_atom_site_fract_z
O1	O	-0.927170	0.121745	0.156782
O2	O	-0.723997	0.121759	0.177886
O3	O	-0.830255	0.121746	-0.015504
O4	O	-0.820912	0.121758	0.350172
O5	O	-0.830245	-0.121852	-0.015503
O6	O	-0.723987	-0.121840	0.177887
O7	O	-0.927160	-0.121853	0.156783
Cu8	Cu	-0.825572	-0.144089	0.167335
Cu9	Cu	-0.825585	0.143995	0.167333
O10	O	-0.820902	-0.121841	0.350173
C11	C	-0.697976	-0.000039	0.177203
C12	C	-0.620459	-0.000034	0.175151
C13	C	-0.067113	0.132737	0.160504
C14	C	-0.139950	0.132742	0.162424
C15	C	-0.176367	-0.000043	0.163391
C16	C	-0.139944	-0.132844	0.162405
C17	C	-0.067110	-0.132845	0.160472
N18	N	-0.285870	-0.098879	0.237886
N19	N	-0.355060	-0.098868	0.239726
C20	C	-0.395814	-0.000046	0.169213
N21	N	-0.364764	0.098788	0.096808
N22	N	-0.295567	0.098782	0.094974
C23	C	-0.255344	-0.000056	0.165487
C24	C	-0.511207	0.132753	0.172273
C25	C	-0.584046	0.132753	0.174186
C26	C	-0.584038	-0.132837	0.174179
C27	C	-0.511202	-0.132833	0.172254
C28	C	-0.474790	-0.000034	0.171307
C29	C	0.046820	-0.000052	0.157468
C30	C	-0.030698	-0.000046	0.159525
N31	N	-0.825569	-0.346712	0.167335
C32	C	-0.778512	-0.423396	0.252931
C33	C	-0.778525	-0.576733	0.252928
C34	C	-0.872656	-0.576688	0.081724
C35	C	-0.872645	-0.423354	0.081733
C36	C	-0.731436	-0.346754	0.338533
C37	C	-0.684374	-0.423438	0.424135
C38	C	-0.684388	-0.576775	0.424132
C39	C	-0.731463	-0.653427	0.338528
C40	C	-0.829564	-0.000051	-0.062287
C41	C	-0.827512	-0.000046	-0.201687
N42	N	-0.825593	0.346617	0.167323
C43	C	-0.890074	-0.000055	-0.282496
C44	C	-0.888142	-0.000044	-0.413476
C45	C	-0.761078	-0.000023	-0.382825
C46	C	-0.763011	-0.000023	-0.251847
C47	C	-0.954575	-0.000078	-0.232336
C48	C	-1.017143	-0.000088	-0.313146
C49	C	-1.015210	-0.000078	-0.444126
C50	C	-0.950710	-0.000057	-0.494296
C51	C	-0.821593	-0.000040	0.396956
C52	C	-0.823646	-0.000036	0.536356
H53	H	-0.169601	-0.240958	0.163190
H54	H	-0.731475	-0.778285	0.338542
H55	H	-1.066156	-0.000071	-0.509920
C56	C	-0.132645	0.395266	0.162292
C57	C	-0.179986	0.278708	0.163524
H58	H	-0.157361	0.485377	0.162984
H59	H	-0.109214	0.389770	0.088321
H60	H	-0.099259	0.389712	0.234749
H61	H	-0.213369	0.284256	0.091062
H62	H	-0.203428	0.284207	0.237503
C63	C	-0.652172	-0.125228	-0.397023
C64	C	-0.690181	-0.000011	-0.437964
H65	H	-0.608401	-0.125216	-0.431058
H66	H	-0.677954	-0.210164	-0.424792
H67	H	-0.644375	-0.125210	-0.307452
H68	H	-0.697982	-0.000035	-0.527536
H69	H	-0.664393	0.084946	-0.410202
C70	C	-0.673278	0.286847	0.068439
C71	C	-0.624076	0.278720	0.175259
H72	H	-0.697988	0.376967	0.069101
H73	H	-0.705386	0.207773	0.069288
H74	H	-0.649824	0.281336	-0.005518
H75	H	-0.647531	0.284220	0.249217
H76	H	-0.591964	0.357816	0.174422
H77	H	-0.910982	-0.639109	0.012027
C78	C	-0.644419	-0.376236	0.641717
C79	C	-0.632635	-0.339186	0.518233
H80	H	-0.612479	-0.324216	0.699809
H81	H	-0.637690	-0.478519	0.653956
H82	H	-0.691078	-0.351075	0.655133
H83	H	-0.585977	-0.364357	0.504814
H84	H	-0.639358	-0.236881	0.505988
C85	C	-0.982537	0.125188	-0.690258
C86	C	-0.948585	-0.000037	-0.638272
H87	H	-0.981228	0.125189	-0.779141
H88	H	-0.959512	0.210118	-0.654963
H89	H	-1.029903	0.125166	-0.671940
H90	H	-0.901218	-0.000009	-0.656582
H91	H	-0.971609	-0.084989	-0.673579
H92	H	-0.037461	-0.240977	0.159679
H93	H	-0.712067	-0.000018	-0.186050
C94	C	-0.991932	-0.125327	-0.053072
C95	C	-0.956706	-0.000089	-0.088364
H96	H	-0.993250	-0.125330	0.035809
H97	H	-0.968019	-0.210248	-0.077041
H98	H	-1.038421	-0.125322	-0.094035
H99	H	-0.910215	-0.000100	-0.047407
H100	H	-0.980618	0.084854	-0.064381
C101	C	-0.563887	-0.624043	0.498392
C102	C	-0.632661	-0.661071	0.518222
H103	H	-0.531951	-0.676091	0.556474
H104	H	-0.557148	-0.521767	0.510649
H105	H	-0.555917	-0.649186	0.414606
H106	H	-0.640632	-0.635919	0.602005
H107	H	-0.639402	-0.763371	0.505975
H108	H	-0.910964	-0.360917	0.012034
H109	H	-0.613689	-0.240953	0.174962
H110	H	-1.069657	-0.000068	-0.272289
H111	H	-0.037471	0.240872	0.159727
H112	H	-0.481559	0.240886	0.171498
C113	C	-0.518512	-0.395348	0.172459
C114	C	-0.471169	-0.278795	0.171199
H115	H	-0.493795	-0.485461	0.171813
H116	H	-0.551887	-0.389828	0.100001
H117	H	-0.541951	-0.389810	0.246430
H118	H	-0.447732	-0.284327	0.097223
H119	H	-0.437780	-0.284318	0.243664
H120	H	-0.731419	-0.221899	0.338541
