data_functionalizedCrystal
_audit_creation_method	'MofGen! by Chris Wilmer'
_symmetry_space_group_name_H-M	'P1'
_symmetry_Int_Tables_number	1
_symmetry_cell_setting	triclinic
loop_
_symmetry_equiv_pos_as_xyz
  x,y,z
_cell_length_a	18.215407
_cell_length_b	17.639999
_cell_length_c	18.215399
_cell_angle_alpha	101.225562
_cell_angle_beta	89.982632
_cell_angle_gamma	101.196378
loop_
_atom_site_label
_atom_site_type_symbol
_atom_site_fract_x
_atom_site_fract_y
_atom_site_fract_z
Zn1	Zn	1.184349	0.314728	-0.356895
Zn2	Zn	1.517682	0.648061	-0.023562
Zn3	Zn	1.851016	0.981394	0.309772
Zn4	Zn	1.209153	0.446906	-0.208978
Zn5	Zn	1.542486	0.780240	0.124356
Zn6	Zn	1.875819	1.113573	0.457689
Zn7	Zn	1.061285	0.314746	-0.233844
Zn8	Zn	1.394619	0.648080	0.099489
Zn9	Zn	1.727952	0.981413	0.432822
Zn10	Zn	1.086133	0.446855	-0.332018
Zn11	Zn	1.419466	0.780189	0.001316
Zn12	Zn	1.752800	1.113522	0.334649
O13	O	1.135230	0.380809	-0.282934
O14	O	1.468563	0.714142	0.050400
O15	O	1.801897	1.047476	0.383733
O16	O	1.290626	0.332275	-0.337278
O17	O	1.623959	0.665608	-0.003945
O18	O	1.957293	0.998941	0.329388
O19	O	1.189519	0.429404	-0.109287
O20	O	1.522852	0.762738	0.224047
O21	O	1.856186	1.096071	0.557380
O22	O	1.056831	0.204139	-0.270985
O23	O	1.390164	0.537472	0.062348
O24	O	1.723497	0.870805	0.395681
O25	O	1.308849	0.429386	-0.228604
O26	O	1.642183	0.762719	0.104729
O27	O	1.975516	1.096053	0.438063
O28	O	1.147245	0.204125	-0.361390
O29	O	1.480578	0.537458	-0.028057
O30	O	1.813912	0.870791	0.305276
O31	O	1.080882	0.332307	-0.127556
O32	O	1.414215	0.665640	0.205778
O33	O	1.747548	0.998974	0.539111
O34	O	0.961595	0.332258	-0.246862
O35	O	1.294928	0.665591	0.086471
O36	O	1.628261	0.998924	0.419804
O37	O	1.099180	0.429299	-0.438307
O38	O	1.432514	0.762632	-0.104974
O39	O	1.765847	1.095966	0.228359
O40	O	0.979850	0.429317	-0.318990
O41	O	1.313184	0.762651	0.014343
O42	O	1.646517	1.095984	0.347677
O43	O	1.171339	0.332225	-0.456585
O44	O	1.504672	0.665559	-0.123252
O45	O	1.838006	0.998892	0.210082
O46	O	1.213613	0.557505	-0.204481
O47	O	1.546946	0.890838	0.128852
O48	O	1.880280	1.224171	0.462185
O49	O	1.123231	0.557467	-0.294878
O50	O	1.456565	0.890801	0.038455
O51	O	1.789898	1.224134	0.371789
C52	C	0.944019	0.380785	-0.282925
C53	C	1.277353	0.714118	0.050408
C54	C	1.610686	1.047451	0.383741
C55	C	0.862222	0.380793	-0.282936
C56	C	1.195555	0.714127	0.050398
C57	C	1.528889	1.047460	0.383731
C58	C	0.664558	0.330332	-0.339577
C59	C	0.997891	0.663665	-0.006244
C60	C	1.331225	0.996998	0.327090
C61	C	0.587700	0.330338	-0.339578
C62	C	0.921034	0.663672	-0.006245
C63	C	1.254367	0.997005	0.327088
C64	C	0.606658	0.431308	-0.226299
C65	C	0.939992	0.764642	0.107034
C66	C	1.273325	1.097975	0.440368
C67	C	0.683514	0.431297	-0.226295
C68	C	1.016847	0.764630	0.107038
C69	C	1.350180	1.097964	0.440371
C70	C	0.712462	0.380810	-0.282938
C71	C	1.045795	0.714143	0.050395
C72	C	1.379128	1.047477	0.383728
C73	C	0.558749	0.380828	-0.282943
C74	C	0.892082	0.714161	0.050390
C75	C	1.225416	1.047495	0.383723
C76	C	0.475417	0.380836	-0.282944
C77	C	0.808750	0.714169	0.050389
C78	C	1.142083	1.047502	0.383723
C79	C	0.795799	0.380801	-0.282937
C80	C	1.129132	0.714134	0.050396
C81	C	1.462465	1.047468	0.383730
C82	C	1.173830	0.586165	-0.244298
C83	C	1.507163	0.919498	0.089036
C84	C	1.840497	1.252831	0.422369
C85	C	1.190410	0.674017	-0.227794
C86	C	1.523744	1.007350	0.105540
C87	C	1.857077	1.340684	0.438873
C88	C	1.009456	0.962991	-0.408564
C89	C	1.342790	1.296325	-0.075231
C90	C	1.676123	1.629658	0.258102
C91	C	1.025038	1.045542	-0.393033
C92	C	1.358371	1.378875	-0.059699
C93	C	1.691704	1.712209	0.273634
C94	C	1.119211	1.045515	-0.298998
C95	C	1.452544	1.378849	0.034336
C96	C	1.785878	1.712182	0.367669
C97	C	1.103640	0.962963	-0.314524
C98	C	1.436973	1.296297	0.018809
C99	C	1.770307	1.629630	0.352143
C100	C	1.048761	0.921708	-0.369307
C101	C	1.382095	1.255041	-0.035974
C102	C	1.715428	1.588374	0.297359
C103	C	1.142945	0.921680	-0.275267
C104	C	1.476278	1.255013	0.058066
C105	C	1.809612	1.588346	0.391400
C106	C	1.127372	0.839135	-0.290789
C107	C	1.460706	1.172468	0.042544
C108	C	1.794039	1.505801	0.375877
C109	C	1.072495	0.797874	-0.345569
C110	C	1.405828	1.131207	-0.012235
C111	C	1.739161	1.464540	0.321098
C112	C	1.033189	0.839163	-0.384830
C113	C	1.366522	1.172496	-0.051496
C114	C	1.699855	1.505830	0.281837
C115	C	1.197820	0.962937	-0.220480
C116	C	1.531153	1.296270	0.112853
C117	C	1.864486	1.629603	0.446187
C118	C	1.237125	0.921653	-0.181223
C119	C	1.570458	1.254986	0.152110
C120	C	1.903791	1.588320	0.485443
C121	C	1.221556	0.839107	-0.196749
C122	C	1.554889	1.172440	0.136584
C123	C	1.888222	1.505773	0.469918
C124	C	1.166678	0.797845	-0.251528
C125	C	1.500012	1.131179	0.081805
C126	C	1.833345	1.464512	0.415138
C127	C	1.260862	0.797817	-0.157488
C128	C	1.594195	1.131151	0.175845
C129	C	1.927528	1.464484	0.509179
C130	C	1.245289	0.715272	-0.173010
C131	C	1.578622	1.048606	0.160323
C132	C	1.911956	1.381939	0.493656
C133	C	1.151106	0.715300	-0.267051
C134	C	1.484439	1.048634	0.066283
C135	C	1.817772	1.381967	0.399616
C136	C	1.327188	0.380834	-0.282942
C137	C	1.660521	0.714167	0.050391
C138	C	1.993854	1.047501	0.383724
C139	C	1.408988	0.380845	-0.282946
C140	C	1.742322	0.714178	0.050387
C141	C	2.075655	1.047511	0.383721
C142	C	1.135265	0.380754	-0.474897
C143	C	1.468598	0.714088	-0.141564
C144	C	1.801931	1.047421	0.191770
C145	C	1.135279	0.380731	-0.556700
C146	C	1.468613	0.714065	-0.223367
C147	C	1.801946	1.047398	0.109966
C148	C	1.096476	1.174651	-0.321733
C149	C	1.429810	1.507985	0.011600
C150	C	1.763143	1.841318	0.344933
C151	C	1.079903	1.086799	-0.338259
C152	C	1.413236	1.420132	-0.004926
C153	C	1.746569	1.753466	0.328408
C154	C	1.172860	0.330138	-0.754421
C155	C	1.506194	0.663471	-0.421088
C156	C	1.839527	0.996804	-0.087755
C157	C	1.172865	0.330115	-0.831284
C158	C	1.506198	0.663448	-0.497951
C159	C	1.839532	0.996781	-0.164618
C160	C	1.097727	0.431203	-0.812240
C161	C	1.431061	0.764536	-0.478907
C162	C	1.764394	1.097869	-0.145573
C163	C	1.097719	0.431221	-0.735379
C164	C	1.431052	0.764554	-0.402046
C165	C	1.764385	1.097888	-0.068712
C166	C	1.135290	0.380690	-0.706472
C167	C	1.468623	0.714023	-0.373138
C168	C	1.801956	1.047356	-0.039805
C169	C	1.135303	0.380648	-0.860196
C170	C	1.468636	0.713982	-0.526862
C171	C	1.801969	1.047315	-0.193529
C172	C	1.135307	0.380624	-0.943534
C173	C	1.468641	0.713957	-0.610201
C174	C	1.801974	1.047290	-0.276867
C175	C	1.135284	0.380713	-0.623128
C176	C	1.468618	0.714046	-0.289795
C177	C	1.801951	1.047380	0.043538
C178	C	1.135227	0.380806	-0.091728
C179	C	1.468561	0.714139	0.241605
C180	C	1.801894	1.047473	0.574939
C181	C	1.135313	0.380607	-0.009967
C182	C	1.468646	0.713940	0.323366
C183	C	1.801980	1.047273	0.656700
H184	H	0.688124	0.289219	-0.385698
H185	H	1.021457	0.622552	-0.052364
H186	H	1.354791	0.955886	0.280969
H187	H	1.067119	0.472386	-0.696336
H188	H	1.400452	0.805719	-0.363003
H189	H	1.733785	1.139053	-0.029670
H190	H	1.203457	0.288949	-0.870323
H191	H	1.536791	0.622282	-0.536990
H192	H	1.870124	0.955615	-0.203656
H193	H	0.583079	0.472414	-0.180183
H194	H	0.916413	0.805747	0.153151
H195	H	1.249746	1.139081	0.486484
F196	F	1.287116	0.671333	-0.131223
F197	F	1.620450	1.004666	0.202110
F198	F	1.953783	1.337999	0.535443
H199	H	0.722519	0.472403	-0.180169
H200	H	1.055852	0.805737	0.153164
H201	H	1.389186	1.139070	0.486497
F202	F	1.057747	0.484981	-0.843012
F203	F	1.391080	0.818315	-0.509679
F204	F	1.724414	1.151648	-0.176345
F205	F	0.951054	0.919080	-0.466878
F206	F	1.284388	1.252413	-0.133544
F207	F	1.617721	1.585746	0.199789
F208	F	1.092703	0.671389	-0.325364
F209	F	1.426037	1.004722	0.007969
F210	F	1.759370	1.338055	0.341303
H211	H	1.305539	0.831420	-0.112878
H212	H	1.638872	1.164753	0.220455
H213	H	1.972205	1.498087	0.553788
H214	H	0.548699	0.289233	-0.385698
H215	H	0.882033	0.622566	-0.052365
H216	H	1.215366	0.955899	0.280968
H217	H	1.203451	0.288990	-0.730888
H218	H	1.536784	0.622323	-0.397555
H219	H	1.870118	0.955656	-0.064221
F220	F	1.056053	0.710021	-0.362222
F221	F	1.389386	1.043354	-0.028888
F222	F	1.722720	1.376688	0.304445
H223	H	0.988506	0.805571	-0.429445
H224	H	1.321840	1.138904	-0.096112
H225	H	1.655173	1.472238	0.237221
F226	F	0.983193	1.089476	-0.434813
F227	F	1.316526	1.422810	-0.101480
F228	F	1.649859	1.756143	0.231854
F229	F	1.177616	1.089431	-0.240696
F230	F	1.510949	1.422764	0.092637
F231	F	1.844282	1.756098	0.425971
F232	F	1.295529	0.965569	-0.122921
F233	F	1.628863	1.298902	0.210412
F234	F	1.962196	1.632235	0.543745
F235	F	1.214413	1.050789	-0.203981
F236	F	1.547746	1.384123	0.129352
F237	F	1.881079	1.717456	0.462685
