data_functionalizedCrystal
_audit_creation_method	'MofGen! by Chris Wilmer'
_symmetry_space_group_name_H-M	'P1'
_symmetry_Int_Tables_number	1
_symmetry_cell_setting	triclinic
loop_
_symmetry_equiv_pos_as_xyz
  x,y,z
_cell_length_a	6.817900
_cell_length_b	11.102188
_cell_length_c	14.858340
_cell_angle_alpha	93.470661
_cell_angle_beta	104.519754
_cell_angle_gamma	108.603875
loop_
_atom_site_label
_atom_site_type_symbol
_atom_site_fract_x
_atom_site_fract_y
_atom_site_fract_z
V1	V	-4.064496	-0.176649	-0.289960
O2	O	-4.024433	0.007655	-0.284441
O3	O	-4.041585	-0.349464	-0.287977
O4	O	-4.020767	-0.174298	-0.416422
O5	O	-4.045395	-0.168724	-0.155107
V6	V	-4.544215	-0.154561	-0.273831
O7	O	-4.334097	-0.225101	-0.325342
O8	O	-4.724811	-0.106109	-0.238449
O9	O	-4.343919	0.018253	-0.275814
O10	O	-4.701674	-0.338865	-0.279351
O11	O	-4.680713	-0.162487	-0.408685
O12	O	-4.364737	-0.156912	-0.147369
C13	C	-3.892635	-0.391581	-0.283403
C14	C	-3.955221	-0.532861	-0.282625
C15	C	-3.938267	-0.580848	-0.197095
C16	C	-3.997097	-0.713597	-0.196367
C17	C	-4.089824	-0.750363	-0.366707
C18	C	-4.031010	-0.617616	-0.367434
C19	C	-4.139563	-0.877094	-0.096035
C20	C	-4.122573	-0.925083	-0.010500
C21	C	-3.944747	-0.861603	0.067442
C22	C	-3.783859	-0.750135	0.059853
C23	C	-3.800834	-0.702152	-0.025683
C24	C	-3.978705	-0.765631	-0.103623
C25	C	-3.888523	-0.454115	-0.467759
C26	C	-3.905483	-0.406130	-0.553296
C27	C	-4.083300	-0.469608	-0.631246
C28	C	-4.244165	-0.581082	-0.623665
C29	C	-4.227205	-0.629067	-0.538128
C30	C	-4.049387	-0.565580	-0.460179
C31	C	-3.866079	-0.168138	-0.447246
C32	C	-3.911779	-0.167359	-0.550629
C33	C	-3.948890	-0.166725	-0.634588
C34	C	-3.995461	-0.165924	-0.739917
C35	C	-4.032595	-0.165286	-0.823869
C36	C	-4.079171	-0.164487	-0.929205
C37	C	-4.156212	0.060364	-0.280386
C38	C	-4.072865	0.201643	-0.281170
C39	C	-4.182767	-0.163077	-0.116540
C40	C	-4.116305	-0.163849	-0.013156
H41	H	-3.876557	-0.511843	-0.128038
C42	C	-3.925965	-0.913788	0.160281
C43	C	-3.736435	-0.943326	0.185583
C44	C	-3.719091	-0.991420	0.271091
H45	H	-3.921574	-0.850878	0.207733
H46	H	-4.047153	-0.989309	0.153662
H47	H	-3.615277	-0.867815	0.192207
H48	H	-3.740783	-1.006247	0.138154
H49	H	-3.840279	-1.066941	0.264473
H50	H	-3.714708	-0.928503	0.318536
H51	H	-3.590507	-1.011478	0.288265
H52	H	-3.669837	-0.611400	-0.031863
H53	H	-4.284389	-0.928781	-0.159492
H54	H	-3.774473	-0.315369	-0.559467
H55	H	-4.253585	-1.015843	-0.004327
H56	H	-4.358198	-0.719839	-0.531961
C57	C	-4.102159	-0.417546	-0.724136
C58	C	-4.291746	-0.388073	-0.749469
C59	C	-4.309216	-0.340133	-0.835038
H60	H	-3.981069	-0.342030	-0.717612
H61	H	-4.106536	-0.480554	-0.771530
H62	H	-4.287351	-0.325070	-0.702087
H63	H	-4.412871	-0.463569	-0.756013
H64	H	-4.313593	-0.403141	-0.882431
H65	H	-4.188116	-0.264620	-0.828505
H66	H	-4.437859	-0.320140	-0.852241
H67	H	-3.639050	-0.698465	0.123321
H68	H	-4.151534	-0.819386	-0.435755
H69	H	-4.388952	-0.632773	-0.687139
H70	H	-3.743720	-0.402417	-0.404289
