data_functionalizedCrystal
_audit_creation_method	'MofGen! by Chris Wilmer'
_symmetry_space_group_name_H-M	'P1'
_symmetry_Int_Tables_number	1
_symmetry_cell_setting	triclinic
loop_
_symmetry_equiv_pos_as_xyz
  x,y,z
_cell_length_a	6.394989
_cell_length_b	10.654550
_cell_length_c	9.130313
_cell_angle_alpha	90.000276
_cell_angle_beta	90.001550
_cell_angle_gamma	85.491321
loop_
_atom_site_label
_atom_site_type_symbol
_atom_site_fract_x
_atom_site_fract_y
_atom_site_fract_z
O1	O	-0.293442	-1.670947	-0.121679
O2	O	-0.321399	-1.305765	-0.121705
O3	O	-0.003431	-1.493540	-0.121693
O4	O	-0.611409	-1.483173	-0.121692
O5	O	-0.003422	-1.493526	0.121906
O6	O	-0.321389	-1.305752	0.121893
O7	O	-0.293432	-1.670934	0.121919
Cu8	Cu	-0.307410	-1.488342	0.144149
Cu9	Cu	-0.307421	-1.488357	-0.143935
O10	O	-0.611400	-1.483159	0.121907
C11	C	-0.319341	-1.258939	0.000091
C12	C	-0.313200	-1.119430	0.000080
C13	C	-0.295490	-1.717760	0.000120
C14	C	-0.301631	-1.857269	0.000121
N15	N	-0.307401	-1.488340	0.346772
C16	C	0.074425	-1.491483	0.000101
C17	C	0.310750	-1.485219	0.000099
N18	N	-0.307414	-1.488369	-0.346558
C19	C	-0.500414	-1.041927	0.000085
C20	C	-0.494631	-0.910845	0.000110
C21	C	-0.114403	-0.934782	0.000121
C22	C	-0.120188	-1.065861	0.000106
C23	C	-0.166665	-1.571516	0.423429
C24	C	-0.166665	-1.571528	0.576766
C25	C	-0.448157	-1.405184	0.576774
C26	C	-0.448145	-1.405167	0.423440
H27	H	-0.657577	-1.085539	0.000075
C28	C	-0.700572	-0.825593	0.000111
C29	C	-0.858199	-0.833729	-0.126394
C30	C	-1.064150	-0.748478	-0.126390
C31	C	-1.112476	-0.655091	0.000120
C32	C	-0.954846	-0.646951	0.126635
C33	C	-0.748894	-0.732202	0.126630
H34	H	-0.822429	-0.902864	-0.220052
H35	H	-1.180838	-0.754504	-0.220045
H36	H	-1.264934	-0.591982	0.000123
H37	H	-0.990615	-0.577816	0.220293
H38	H	-0.632206	-0.726176	0.220286
C39	C	-0.602986	-1.313706	0.661111
C40	C	-0.603139	-1.313792	0.829772
C41	C	-0.757979	-1.222314	0.914103
C42	C	-0.912666	-1.130750	0.829773
C43	C	-0.912519	-1.130660	0.661102
C44	C	-0.757680	-1.222138	0.576771
H45	H	-0.488625	-1.381576	0.892207
H46	H	-0.758086	-1.222381	1.038965
H47	H	-1.027288	-1.063033	0.892200
H48	H	-1.027034	-1.062876	0.598668
H49	H	-0.757572	-1.222071	0.451910
H50	H	0.042741	-0.891149	0.000150
H51	H	0.032274	-1.128967	0.000106
H52	H	-0.562750	-1.337429	0.361022
H53	H	-0.052060	-1.639239	0.361009
H54	H	-0.052063	-1.639256	0.639176
