data_functionalizedCrystal
_audit_creation_method	'MofGen! by Chris Wilmer'
_symmetry_space_group_name_H-M	'P1'
_symmetry_Int_Tables_number	1
_symmetry_cell_setting	triclinic
loop_
_symmetry_equiv_pos_as_xyz
  x,y,z
_cell_length_a	12.759399
_cell_length_b	16.959455
_cell_length_c	12.759393
_cell_angle_alpha	90.023017
_cell_angle_beta	89.969566
_cell_angle_gamma	89.985169
loop_
_atom_site_label
_atom_site_type_symbol
_atom_site_fract_x
_atom_site_fract_y
_atom_site_fract_z
Zn1	Zn	-0.418254	-1.208462	-0.594079
Zn2	Zn	-0.593970	-1.208376	-0.418399
Zn3	Zn	-0.418301	-1.076274	-0.418408
Zn4	Zn	-0.593888	-1.076264	-0.594030
O5	O	-0.506103	-1.142344	-0.506229
O6	O	-0.441578	-1.319061	-0.570791
O7	O	-0.570721	-1.190821	-0.271379
O8	O	-0.271274	-1.093848	-0.441735
O9	O	-0.570676	-1.318999	-0.441720
O10	O	-0.271239	-1.190967	-0.570800
O11	O	-0.441658	-1.093766	-0.271385
O12	O	-0.441578	-0.965661	-0.441687
O13	O	-0.570535	-1.093832	-0.741058
O14	O	-0.570581	-0.965654	-0.570716
O15	O	-0.441498	-1.190957	-0.741093
O16	O	-0.740980	-1.190812	-0.441673
O17	O	-0.740919	-1.093749	-0.570708
C18	C	-0.506077	-0.936978	-0.506198
C19	C	-0.506090	-0.849121	-0.506210
C20	C	-0.573209	-0.807813	-0.438912
C21	C	-0.438978	-0.807876	-0.573514
C22	C	-0.438985	-0.725330	-0.573525
C23	C	-0.506104	-0.684022	-0.506227
C24	C	-0.573216	-0.725259	-0.438918
C25	C	-0.371867	-0.684087	-0.640825
C26	C	-0.371870	-0.601536	-0.640837
C27	C	-0.438995	-0.560226	-0.573544
C28	C	-0.506110	-0.601468	-0.506233
C29	C	-0.573229	-0.560160	-0.438935
C30	C	-0.640350	-0.601401	-0.371629
C31	C	-0.640340	-0.683949	-0.371625
C32	C	-0.439005	-0.477677	-0.573548
C33	C	-0.573236	-0.477606	-0.438942
C34	C	-0.779071	-1.142292	-0.506207
C35	C	-0.895847	-1.142341	-0.506233
C36	C	-0.950820	-1.091844	-0.438999
C37	C	-1.060544	-1.091900	-0.439026
C38	C	-1.060313	-1.192953	-0.573529
C39	C	-0.950591	-1.192900	-0.573496
C40	C	-1.210631	-1.063777	-0.315131
C41	C	-1.265608	-1.013268	-0.247907
C42	C	-1.230102	-0.936131	-0.231672
C43	C	-1.139621	-0.909487	-0.282678
C44	C	-1.084650	-0.959993	-0.349910
C45	C	-1.120154	-1.037141	-0.366124
C46	C	-0.800502	-1.221014	-0.697393
C47	C	-0.745529	-1.271517	-0.764631
C48	C	-0.781033	-1.348655	-0.780876
C49	C	-0.871517	-1.375295	-0.729890
C50	C	-0.926490	-1.324793	-0.662651
C51	C	-0.890979	-1.247656	-0.646404
C52	C	-0.232070	-1.142418	-0.506274
C53	C	-0.115293	-1.142450	-0.506293
C54	C	-0.506002	-1.142403	-0.780262
C55	C	-0.505959	-1.142428	-0.897039
C56	C	-0.506126	-0.348512	-0.506254
C57	C	-0.506124	-0.436369	-0.506250
C58	C	-0.438759	-1.193005	-0.951921
C59	C	-0.438714	-1.193019	-1.061646
C60	C	-0.573078	-1.091876	-1.061595
C61	C	-0.573117	-1.091859	-0.951873
C62	C	-0.314759	-1.221318	-1.211625
C63	C	-0.247568	-1.271908	-1.266511
C64	C	-0.231463	-1.349033	-1.230923
C65	C	-0.282564	-1.375585	-1.140451
C66	C	-0.349763	-1.325000	-1.085571
C67	C	-0.365848	-1.247864	-1.121157
C68	C	-0.697073	-1.063568	-0.801892
C69	C	-0.764278	-1.012986	-0.747009
C70	C	-0.780394	-0.935859	-0.782595
C71	C	-0.729312	-0.909310	-0.873070
C72	C	-0.662107	-0.959892	-0.927953
C73	C	-0.645989	-1.037018	-0.892360
C74	C	-0.506128	-1.142331	-0.233261
C75	C	-0.505875	-1.142458	-0.116485
H76	H	-0.627861	-0.841395	-0.384116
H77	H	-1.274872	-0.895005	-0.176937
O78	O	-1.363183	-1.042003	-0.192876
H79	H	-1.378625	-1.104136	-0.215436
O80	O	-0.712723	-0.728434	-0.299033
H81	H	-0.759405	-0.685844	-0.252243
O82	O	-0.987063	-0.931265	-0.404914
H83	H	-0.954803	-0.979346	-0.454388
O84	O	-0.679702	-1.146760	-0.763507
H85	H	-0.704535	-1.189074	-0.825052
O86	O	-0.721735	-1.403127	-0.853395
H87	H	-0.773956	-1.422034	-0.918246
H88	H	-1.239541	-1.126591	-0.328333
O89	O	-0.819373	-1.041595	-0.649408
H90	H	-0.869483	-1.092964	-0.669223
H91	H	-1.104898	-1.234115	-0.628294
H92	H	-0.835128	-0.894679	-0.737905
O93	O	-0.299480	-0.557062	-0.713432
H94	H	-0.310754	-0.492720	-0.702130
H95	H	-0.620513	-0.938269	-1.001623
O96	O	-0.712740	-0.556845	-0.299040
H97	H	-0.701463	-0.492516	-0.310358
H98	H	-0.176753	-1.390223	-1.275619
O99	O	-0.366584	-0.852424	-0.646095
H100	H	-0.377857	-0.916754	-0.634784
O101	O	-0.299472	-0.728636	-0.713402
H102	H	-0.310753	-0.792966	-0.702096
O103	O	-0.366323	-1.247546	-0.892782
H104	H	-0.377646	-1.239046	-0.807264
H105	H	-1.000171	-1.346489	-0.621141
H106	H	-0.900473	-1.438087	-0.743184
O107	O	-0.366617	-0.433191	-0.646126
H108	H	-0.384723	-0.449054	-0.728555
H109	H	-1.110726	-0.846671	-0.269463
O110	O	-0.645623	-0.433055	-0.366345
H111	H	-0.728100	-0.448894	-0.384220
O112	O	-0.891770	-1.037327	-0.366440
H113	H	-0.948435	-1.002231	-0.319684
H114	H	-0.671852	-1.249819	-0.806148
H115	H	-0.771569	-1.158208	-0.684147
O116	O	-0.404872	-1.353622	-0.987990
H117	H	-0.382383	-1.415753	-0.972458
O118	O	-0.265210	-1.458778	-1.102075
H119	H	-0.209894	-1.489491	-1.155433
O120	O	-0.192435	-1.243271	-1.364077
H121	H	-0.214900	-1.181133	-1.379593
H122	H	-0.327858	-1.158515	-1.240604
O123	O	-0.645513	-1.037336	-1.120736
H124	H	-0.634203	-1.045847	-1.206254
H125	H	-0.742438	-0.846508	-0.902048
