data_functionalizedCrystal
_audit_creation_method	'MofGen! by Chris Wilmer'
_symmetry_space_group_name_H-M	'P1'
_symmetry_Int_Tables_number	1
_symmetry_cell_setting	triclinic
loop_
_symmetry_equiv_pos_as_xyz
  x,y,z
_cell_length_a	17.038272
_cell_length_b	14.853567
_cell_length_c	13.330367
_cell_angle_alpha	90.000844
_cell_angle_beta	89.998118
_cell_angle_gamma	92.626757
loop_
_atom_site_label
_atom_site_type_symbol
_atom_site_fract_x
_atom_site_fract_y
_atom_site_fract_z
O1	O	1.037627	-0.195788	-0.083284
O2	O	1.537627	0.304212	0.416716
O3	O	0.809993	-0.192680	-0.083314
O4	O	1.309993	0.307320	0.416686
O5	O	0.929891	-0.063462	-0.083301
O6	O	1.429891	0.436538	0.416699
O7	O	0.917730	-0.325006	-0.083297
O8	O	1.417730	0.174994	0.416703
O9	O	0.929873	-0.063457	0.083546
O10	O	1.429873	0.436543	0.583546
O11	O	0.809975	-0.192675	0.083534
O12	O	1.309975	0.307325	0.583534
O13	O	1.037610	-0.195784	0.083563
O14	O	1.537610	0.304216	0.583563
Cu15	Cu	0.923791	-0.194229	0.098783
Cu16	Cu	1.423791	0.305771	0.598783
Cu17	Cu	0.923812	-0.194234	-0.098533
Cu18	Cu	1.423812	0.305766	0.401467
O19	O	0.917712	-0.325002	0.083551
O20	O	1.417712	0.174998	0.583551
C21	C	0.780852	-0.189850	0.000106
C22	C	1.280852	0.310150	0.500106
C23	C	0.694048	-0.181414	0.000094
C24	C	1.194048	0.318586	0.500094
C25	C	0.929331	-0.029829	0.000120
C26	C	1.429331	0.470171	0.500120
C27	C	0.927680	0.070379	0.000111
C28	C	1.427680	0.570379	0.500111
N29	N	0.923782	-0.194225	0.237564
N30	N	1.423782	0.305775	0.737564
C31	C	0.644036	-0.258867	0.000096
C32	C	1.144036	0.241133	0.500096
C33	C	0.562475	-0.250935	0.000110
C34	C	1.062475	0.249065	0.500110
C35	C	0.530928	-0.165549	0.000115
C36	C	1.030928	0.334451	0.500115
C37	C	0.580947	-0.088090	0.000115
C38	C	1.080947	0.411910	0.500115
C39	C	0.662506	-0.096023	0.000109
C40	C	1.162506	0.403977	0.500109
C41	C	0.285133	-0.137524	0.000141
C42	C	0.785133	0.362476	0.500141
C43	C	0.203567	-0.129597	0.000144
C44	C	0.703567	0.370403	0.500144
C45	C	0.185101	-0.292443	0.000141
C46	C	0.685101	0.207557	0.500141
C47	C	0.266663	-0.300368	0.000128
C48	C	0.766663	0.199632	0.500128
C49	C	0.316674	-0.222909	0.000135
C50	C	0.816674	0.277091	0.500135
C51	C	0.447559	-0.157439	0.000125
C52	C	0.947559	0.342561	0.500125
C53	C	0.400041	-0.231019	0.000131
C54	C	0.900041	0.268981	0.500131
C55	C	1.066751	-0.198614	0.000141
C56	C	1.566751	0.301386	0.500141
C57	C	1.153555	-0.207050	0.000147
C58	C	1.653555	0.292950	0.500147
C59	C	0.918272	-0.358634	0.000128
C60	C	1.418272	0.141366	0.500128
C61	C	0.919923	-0.458842	0.000130
C62	C	1.419923	0.041158	0.500130
C63	C	0.849478	0.488797	0.000120
C64	C	1.349478	0.988797	0.500120
C65	C	0.991919	0.499359	0.000138
C66	C	1.491919	0.999359	0.500138
C67	C	0.993472	0.405209	0.000132
C68	C	1.493472	0.905209	0.500132
C69	C	0.923026	0.352848	0.000122
C70	C	1.423026	0.852848	0.500122
C71	C	0.851028	0.394638	0.000117
C72	C	1.351028	0.894638	0.500117
C73	C	1.065468	0.363412	0.000147
C74	C	1.565468	0.863412	0.500147
C75	C	1.067024	0.269255	0.000143
C76	C	1.567024	0.769255	0.500143
C77	C	0.996578	0.216893	0.000125
C78	C	1.496578	0.716893	0.500125
C79	C	0.924577	0.258689	0.000119
C80	C	1.424577	0.758689	0.500119
C81	C	0.854131	0.206328	0.000108
C82	C	1.354131	0.706328	0.500108
C83	C	0.782129	0.248122	0.000095
C84	C	1.282129	0.748122	0.500095
C85	C	0.780582	0.342276	0.000099
C86	C	1.280582	0.842276	0.500099
C87	C	0.998125	0.122739	0.000121
C88	C	1.498125	0.622739	0.500121
C89	C	0.855682	0.112168	0.000106
C90	C	1.355682	0.612168	0.500106
N91	N	0.923827	-0.194231	-0.237315
N92	N	1.423827	0.305769	0.262685
C93	C	0.870719	-0.251428	0.710182
C94	C	1.370719	0.248572	1.210182
C95	C	0.976926	-0.137036	0.710161
C96	C	1.476926	0.362964	1.210161
C97	C	0.976917	-0.137032	0.605142
C98	C	1.476917	0.362968	1.105142
C99	C	0.923809	-0.194228	0.552639
C100	C	1.423809	0.305772	1.052639
C101	C	0.870710	-0.251428	0.605154
C102	C	1.370710	0.248572	1.105154
C103	C	1.030021	-0.079840	0.552620
C104	C	1.530021	0.420160	1.052620
C105	C	1.030014	-0.079835	0.447595
C106	C	1.530014	0.420165	0.947595
C107	C	0.976902	-0.137027	0.395090
C108	C	1.476902	0.362973	0.895090
C109	C	0.923800	-0.194229	0.447611
C110	C	1.423800	0.305771	0.947611
C111	C	0.870692	-0.251425	0.395107
C112	C	1.370692	0.248575	0.895107
C113	C	0.817586	-0.308622	0.447626
C114	C	1.317586	0.191378	0.947626
C115	C	0.817597	-0.308620	0.552648
C116	C	1.317597	0.191380	1.052648
C117	C	0.976890	-0.137029	0.290068
C118	C	1.476890	0.362971	0.790068
C119	C	0.870683	-0.251425	0.290079
C120	C	1.370683	0.248575	0.790079
H121	H	0.669714	-0.328397	0.000092
H122	H	1.169714	0.171603	0.500092
H123	H	1.056748	0.088715	0.000139
H124	H	1.556748	0.588715	0.500139
H125	H	1.020132	-0.090464	0.247312
H126	H	1.520132	0.409536	0.747312
H127	H	0.555255	-0.018567	0.000133
H128	H	1.055255	0.481433	0.500133
N129	N	0.508532	-0.334473	0.000226
N130	N	1.008532	0.165527	0.500226
H131	H	0.540892	-0.389768	0.000253
H132	H	1.040892	0.110232	0.500253
H133	H	0.474243	-0.334793	-0.061585
H134	H	0.974243	0.165207	0.438415
N135	N	1.141448	0.419875	0.000153
N136	N	1.641448	0.919875	0.500153
H137	H	1.172848	0.405802	0.062009
H138	H	1.672848	0.905802	0.562009
H139	H	1.129481	0.485843	0.000108
H140	H	1.629481	0.985843	0.500108
N141	N	0.413524	-0.065350	0.000133
N142	N	0.913524	0.434650	0.500133
H143	H	0.380090	-0.058436	-0.061711
H144	H	0.880090	0.441564	0.438289
H145	H	0.457618	-0.017533	0.000167
H146	H	0.957618	0.482467	0.500167
N147	N	1.087280	-0.018134	0.609249
N148	N	1.587280	0.481866	1.109249
H149	H	1.120916	0.018103	0.560045
H150	H	1.620916	0.518103	1.060045
H151	H	1.121887	-0.055310	0.652832
H152	H	1.621887	0.444690	1.152832
N153	N	1.144678	0.224181	0.000157
N154	N	1.644678	0.724181	0.500157
H155	H	1.189068	0.271639	0.000166
H156	H	1.689068	0.771639	0.500166
H157	H	1.148431	0.185350	-0.061698
H158	H	1.648431	0.685350	0.438302
N159	N	1.087288	-0.018147	0.390953
N160	N	1.587288	0.481853	0.890953
H161	H	1.120933	0.018085	0.440151
H162	H	1.620933	0.518085	0.940151
H163	H	1.057308	0.024031	0.347389
H164	H	1.557308	0.524031	0.847389
N165	N	0.813395	-0.313109	0.233452
N166	N	1.313395	0.186891	0.733452
H167	H	0.779756	-0.349338	0.282661
H168	H	1.279756	0.150662	0.782661
H169	H	0.843362	-0.355289	0.189873
H170	H	1.343362	0.144711	0.689873
N171	N	0.779700	0.055696	0.000086
N172	N	1.279700	0.555696	0.500086
H173	H	0.733856	0.096461	0.000077
H174	H	1.233856	0.596461	0.500077
H175	H	0.777231	0.016401	0.061938
H176	H	1.277231	0.516401	0.561938
N177	N	0.760305	-0.370314	0.390999
N178	N	1.260305	0.129686	0.890999
H179	H	0.790224	-0.412547	0.347423
H180	H	1.290224	0.087453	0.847423
H181	H	0.725665	-0.333115	0.347486
H182	H	1.225665	0.166885	0.847486
N183	N	0.760322	-0.370307	0.609292
N184	N	1.260322	0.129693	1.109292
H185	H	0.768390	-0.361629	0.683789
H186	H	1.268390	0.138371	1.183789
H187	H	0.769418	-0.434968	0.590930
H188	H	1.269418	0.065032	1.090930
H189	H	0.827478	-0.297995	0.752945
H190	H	1.327478	0.202005	1.252945
N191	N	1.067896	0.555828	0.000166
N192	N	1.567896	1.055828	0.500166
H193	H	1.055989	0.621816	0.000172
H194	H	1.555989	1.121816	0.500172
H195	H	1.099278	0.541685	-0.061683
H196	H	1.599278	1.041685	0.438317
N197	N	0.300687	-0.392463	0.000105
N198	N	0.800687	0.107537	0.500105
H199	H	0.256627	-0.440327	0.000104
H200	H	0.756627	0.059673	0.500104
H201	H	0.334131	-0.399311	0.061948
H202	H	0.834131	0.100689	0.561948
H203	H	0.724773	0.205477	0.000094
H204	H	1.224773	0.705477	0.500094
H205	H	0.425730	-0.300540	0.000133
H206	H	0.925730	0.199460	0.500133
N207	N	0.131158	-0.375981	0.000170
N208	N	0.631158	0.124019	0.500170
H209	H	0.163520	-0.431276	0.000173
H210	H	0.663520	0.068724	0.500173
H211	H	0.096907	-0.376252	-0.061673
H212	H	0.596907	0.123748	0.438327
H213	H	1.020169	-0.090473	0.752913
H214	H	1.520169	0.409527	1.252913
N215	N	0.169539	-0.037498	0.000143
N216	N	0.669539	0.462502	0.500143
H217	H	0.213596	0.010369	0.000146
H218	H	0.713596	0.510369	0.500146
H219	H	0.136098	-0.030663	0.061994
H220	H	0.636098	0.469337	0.561994
H221	H	0.790855	0.522830	0.000105
H222	H	1.290855	1.022830	0.500105
N223	N	0.339074	-0.053988	0.000129
N224	N	0.839074	0.446012	0.500129
H225	H	0.373326	-0.053645	0.061977
H226	H	0.873326	0.446355	0.561977
H227	H	0.306662	0.001263	0.000088
H228	H	0.806662	0.501263	0.500088
H229	H	0.703226	-0.032952	0.000107
H230	H	1.203226	0.467048	0.500107
H231	H	0.721962	0.376313	0.000089
H232	H	1.221962	0.876313	0.500089
