data_functionalizedCrystal
_audit_creation_method	'MofGen! by Chris Wilmer'
_symmetry_space_group_name_H-M	'P1'
_symmetry_Int_Tables_number	1
_symmetry_cell_setting	triclinic
loop_
_symmetry_equiv_pos_as_xyz
  x,y,z
_cell_length_a	12.645331
_cell_length_b	13.897448
_cell_length_c	13.897441
_cell_angle_alpha	89.969401
_cell_angle_beta	90.022081
_cell_angle_gamma	89.983329
loop_
_atom_site_label
_atom_site_type_symbol
_atom_site_fract_x
_atom_site_fract_y
_atom_site_fract_z
Zn1	Zn	1.620725	0.384010	0.545416
Zn2	Zn	2.120725	0.884010	1.045416
Zn3	Zn	1.620609	0.545332	0.384117
Zn4	Zn	2.120609	1.045332	0.884117
Zn5	Zn	1.443441	0.384050	0.384130
Zn6	Zn	1.943441	0.884050	0.884130
Zn7	Zn	1.443421	0.545262	0.545366
Zn8	Zn	1.943421	1.045262	1.045366
O9	O	1.532049	0.464664	0.464757
O10	O	2.032049	0.964664	0.964757
O11	O	1.769057	0.405423	0.524035
O12	O	2.269057	0.905423	1.024035
O13	O	1.597067	0.523983	0.249137
O14	O	2.097067	1.023983	0.749137
O15	O	1.467016	0.249063	0.405552
O16	O	1.967016	0.749063	0.905552
O17	O	1.768971	0.523945	0.405529
O18	O	2.268971	1.023945	0.905529
O19	O	1.597265	0.249034	0.524047
O20	O	2.097265	0.749034	1.024047
O21	O	1.466903	0.405490	0.249147
O22	O	1.966903	0.905490	0.749147
O23	O	1.295092	0.405422	0.405503
O24	O	1.795092	0.905422	0.905503
O25	O	1.466981	0.523826	0.680354
O26	O	1.966981	1.023826	1.180354
O27	O	1.295077	0.523864	0.523962
O28	O	1.795077	1.023864	1.023962
O29	O	1.597246	0.405355	0.680391
O30	O	2.097246	0.905355	1.180391
O31	O	1.597047	0.680304	0.405481
O32	O	2.097047	1.180304	0.905481
O33	O	1.466868	0.680253	0.523950
O34	O	1.966868	1.180253	1.023950
C35	C	1.531972	0.715278	0.464729
C36	C	2.031972	1.215278	0.964729
C37	C	1.532036	0.822492	0.464750
C38	C	2.032036	1.322492	0.964750
C39	C	1.256619	0.464641	0.464729
C40	C	1.756619	0.964641	0.964729
C41	C	1.138789	0.464654	0.464740
C42	C	1.638789	0.964654	0.964740
C43	C	1.532124	0.464578	0.716350
C44	C	2.032124	0.964578	1.216350
C45	C	1.532156	0.464542	0.823564
C46	C	2.032156	0.964542	1.323564
C47	C	0.971199	0.389800	0.390629
C48	C	1.471199	0.889800	0.890629
C49	C	1.093759	0.389993	0.390302
C50	C	1.593759	0.889993	0.890302
C51	C	1.094269	0.566268	0.436969
C52	C	1.594269	1.066268	0.936969
C53	C	0.971671	0.565859	0.436463
C54	C	1.471671	1.065859	0.936463
C55	C	0.971639	0.438862	0.566909
C56	C	1.471639	0.938862	1.066909
C57	C	1.094245	0.436592	0.566342
C58	C	1.594245	0.936592	1.066342
C59	C	1.808554	0.464687	0.464786
C60	C	2.308554	0.964687	0.964786
C61	C	1.926384	0.464697	0.464798
C62	C	2.426384	0.964697	0.964798
C63	C	1.532156	0.213071	0.464807
C64	C	2.032156	0.713071	0.964807
C65	C	1.532201	0.105857	0.464827
C66	C	2.032201	0.605857	0.964827
C67	C	1.532147	1.018787	0.464810
C68	C	2.032147	1.518787	0.964810
C69	C	1.532082	0.909554	0.464780
C70	C	2.032082	1.409554	0.964780
C71	C	1.532035	0.464679	0.214143
C72	C	2.032035	0.964679	0.714143
C73	C	1.532209	0.464444	0.106930
C74	C	2.032209	0.964444	0.606930
C75	C	1.532185	0.464477	1.019860
C76	C	2.032185	0.964477	1.519860
C77	C	1.532166	0.464516	0.910627
C78	C	2.032166	0.964516	1.410627
H79	H	0.941735	0.314222	0.407850
H80	H	1.441735	0.814222	0.907850
H81	H	1.124902	0.487165	0.624560
H82	H	1.624902	0.987165	1.124560
O83	O	1.134857	0.595793	0.339145
O84	O	1.634857	1.095793	0.839145
H85	H	1.186724	0.538266	0.310149
H86	H	1.686724	1.038266	0.810149
H87	H	0.942659	0.493415	0.622172
H88	H	1.442659	0.993415	1.122172
O89	O	1.132905	0.642167	0.506277
O90	O	1.632905	1.142167	1.006277
H91	H	1.100325	0.713253	0.485064
H92	H	1.600325	1.213253	0.985064
H93	H	0.940742	0.366059	0.592165
H94	H	1.440742	0.866059	1.092165
O95	O	1.133644	0.290179	0.413328
O96	O	1.633644	0.790179	0.913328
H97	H	1.065366	0.241335	0.424795
H98	H	1.565366	0.741335	0.924795
O99	O	0.930375	0.412175	0.290976
O100	O	1.430375	0.912175	0.790976
H101	H	0.878302	0.476408	0.294043
H102	H	1.378302	0.976408	0.794043
O103	O	1.132558	0.412567	0.290064
O104	O	1.632558	0.912567	0.790064
H105	H	1.063754	0.423404	0.241637
H106	H	1.563754	0.923404	0.741637
O107	O	0.933713	0.594864	0.337583
O108	O	1.433713	1.094864	0.837583
H109	H	1.002923	0.609046	0.290574
H110	H	1.502923	1.109046	0.790574
O111	O	1.132794	0.337546	0.594095
O112	O	1.632794	0.837546	1.094095
H113	H	1.183473	0.308418	0.535779
H114	H	1.683473	0.808418	1.035779
H115	H	0.942026	0.623553	0.488129
H116	H	1.442026	1.123553	0.988129
