data_functionalizedCrystal
_audit_creation_method	'MofGen! by Chris Wilmer'
_symmetry_space_group_name_H-M	'P1'
_symmetry_Int_Tables_number	1
_symmetry_cell_setting	triclinic
loop_
_symmetry_equiv_pos_as_xyz
  x,y,z
_cell_length_a	14.044209
_cell_length_b	14.044220
_cell_length_c	13.101039
_cell_angle_alpha	86.332810
_cell_angle_beta	86.324717
_cell_angle_gamma	86.811585
loop_
_atom_site_label
_atom_site_type_symbol
_atom_site_fract_x
_atom_site_fract_y
_atom_site_fract_z
O1	O	-0.234985	1.272343	0.085226
O2	O	0.265015	1.772343	0.585226
O3	O	-0.226680	0.995672	0.085228
O4	O	0.273320	1.495672	0.585228
O5	O	-0.092496	1.129857	0.085212
O6	O	0.407504	1.629857	0.585212
O7	O	-0.369169	1.138159	0.085242
O8	O	0.130831	1.638159	0.585242
O9	O	-0.082856	1.139488	-0.085218
O10	O	0.417144	1.639488	0.414782
O11	O	-0.217040	1.005303	-0.085203
O12	O	0.282960	1.505303	0.414797
O13	O	-0.225345	1.281975	-0.085205
O14	O	0.274655	1.781975	0.414795
Zn15	Zn	-0.219662	1.145168	-0.112264
Zn16	Zn	0.280338	1.645168	0.387736
Zn17	Zn	-0.232363	1.132479	0.112287
Zn18	Zn	0.267637	1.632479	0.612287
O19	O	-0.359529	1.147790	-0.085189
O20	O	0.140471	1.647790	0.414811
C21	C	-0.052054	1.131037	-0.000005
C22	C	0.447946	1.631037	0.499995
C23	C	0.054089	1.120194	-0.000009
C24	C	0.554089	1.620194	0.499991
C25	C	-0.218224	0.964866	0.000013
C26	C	0.281776	1.464866	0.500013
C27	C	-0.207380	0.858723	0.000013
C28	C	0.292620	1.358723	0.500013
C29	C	-0.233801	1.312781	0.000013
C30	C	0.266199	1.812781	0.500013
C31	C	-0.244646	1.418923	0.000019
C32	C	0.255354	1.918923	0.500019
C33	C	0.248426	1.100368	-0.000000
C34	C	0.748426	1.600368	0.500000
C35	C	0.299556	1.177283	0.000000
C36	C	0.799556	1.677283	0.500000
C37	C	0.407692	1.166252	0.000005
C38	C	0.907692	1.666252	0.500005
C39	C	0.140280	1.111398	-0.000005
C40	C	0.640280	1.611398	0.499995
C41	C	0.600029	1.146612	0.000022
C42	C	1.100029	1.646612	0.500022
C43	C	0.493887	1.157462	0.000009
C44	C	0.993887	1.657462	0.500009
C45	C	-0.264472	1.613260	0.000020
C46	C	0.235528	2.113260	0.500020
C47	C	-0.187558	1.664391	0.000012
C48	C	0.312442	2.164391	0.500012
C49	C	-0.198589	1.772527	0.000012
C50	C	0.301411	2.272527	0.500012
C51	C	-0.253442	1.505115	0.000020
C52	C	0.246558	2.005115	0.500020
N53	N	-0.241024	1.123818	0.265536
N54	N	0.258976	1.623818	0.765536
N55	N	-0.210994	1.153835	-0.265513
N56	N	0.289006	1.653835	0.234487
C57	C	-0.252808	1.112027	0.474580
C58	C	0.247192	1.612027	0.974580
C59	C	-0.199213	1.165623	0.525450
C60	C	0.300787	1.665623	1.025450
C61	C	-0.205770	1.159063	0.641769
C62	C	0.294230	1.659063	1.141769
C63	C	-0.246253	1.118587	0.358250
C64	C	0.253747	1.618587	0.858250
H65	H	0.262113	1.251412	0.000070
H66	H	0.762113	1.751412	0.500070
N67	N	0.298013	1.002177	-0.000017
N68	N	0.798013	1.502177	0.499983
H69	H	0.248827	0.952378	-0.000023
H70	H	0.748827	1.452378	0.499977
H71	H	0.335648	0.990691	0.063162
H72	H	0.835648	1.490691	0.563162
N73	N	-0.320094	1.044710	0.532594
N74	N	0.179906	1.544710	1.032594
H75	H	-0.387759	1.062471	0.514011
H76	H	0.112241	1.562471	1.014011
H77	H	-0.315212	1.049532	0.608650
H78	H	0.184788	1.549532	1.108650
N79	N	-0.362670	1.662835	0.000040
N80	N	0.137330	2.162835	0.500040
H81	H	-0.367100	1.707617	-0.063134
H82	H	0.132900	2.207617	0.436866
H83	H	-0.374173	1.700414	0.063265
H84	H	0.125827	2.200414	0.563265
H85	H	-0.148405	1.216435	0.481641
H86	H	0.351595	1.716435	0.981641
N87	N	-0.089356	1.614811	0.000003
N88	N	0.410644	2.114811	0.500003
H89	H	-0.095290	1.543470	0.000006
H90	H	0.404710	2.043470	0.500006
H91	H	-0.057124	1.630375	0.063183
H92	H	0.442876	2.130375	0.563183
