data_functionalizedCrystal
_audit_creation_method	'MofGen! by Chris Wilmer'
_symmetry_space_group_name_H-M	'P1'
_symmetry_Int_Tables_number	1
_symmetry_cell_setting	triclinic
loop_
_symmetry_equiv_pos_as_xyz
  x,y,z
_cell_length_a	10.654549
_cell_length_b	15.944493
_cell_length_c	9.730223
_cell_angle_alpha	90.001475
_cell_angle_beta	89.997731
_cell_angle_gamma	83.979910
loop_
_atom_site_label
_atom_site_type_symbol
_atom_site_fract_x
_atom_site_fract_y
_atom_site_fract_z
O1	O	1.666276	0.117978	-0.114238
O2	O	2.166276	0.617978	0.385762
O3	O	1.300649	0.129219	-0.114246
O4	O	1.800649	0.629219	0.385754
O5	O	1.493485	0.001378	-0.114254
O6	O	1.993485	0.501378	0.385746
O7	O	1.473440	0.245818	-0.114231
O8	O	1.973440	0.745818	0.385769
O9	O	1.493472	0.001375	0.114326
O10	O	1.993472	0.501375	0.614326
O11	O	1.300636	0.129215	0.114334
O12	O	1.800636	0.629215	0.614334
O13	O	1.666264	0.117974	0.114341
O14	O	2.166264	0.617974	0.614341
Zn15	Zn	1.483448	0.123594	0.150630
Zn16	Zn	1.983448	0.623594	0.650630
Zn17	Zn	1.483464	0.123599	-0.150534
Zn18	Zn	1.983464	0.623599	0.349466
O19	O	1.473428	0.245815	0.114349
O20	O	1.973428	0.745815	0.614349
C21	C	1.253855	0.128391	0.000042
C22	C	1.753855	0.628391	0.500042
C23	C	1.114445	0.125922	0.000038
C24	C	1.614445	0.625922	0.500038
C25	C	0.902964	0.198866	0.000051
C26	C	1.402964	0.698866	0.500051
C27	C	1.033953	0.201193	0.000043
C28	C	1.533953	0.701193	0.500043
C29	C	1.063941	0.048320	0.000028
C30	C	1.563941	0.548320	0.500028
C31	C	0.932953	0.045995	0.000026
C32	C	1.432953	0.545995	0.500026
C33	C	1.492659	-0.029923	0.000030
C34	C	1.992659	0.470077	0.500030
C35	C	1.490203	-0.123186	0.000013
C36	C	1.990203	0.376814	0.500013
C37	C	1.603711	-0.358289	0.000041
C38	C	2.103711	0.141711	0.500041
C39	C	1.542507	-0.409210	-0.112661
C40	C	2.042507	0.090790	0.387339
C41	C	1.485652	-0.293933	0.000030
C42	C	1.985652	0.206067	0.500030
C43	C	1.542467	-0.409189	0.112701
C44	C	2.042467	0.090811	0.612701
C45	C	1.481265	-0.458868	0.000052
C46	C	1.981265	0.041132	0.500052
C47	C	1.424479	-0.343626	-0.112766
C48	C	1.924479	0.156374	0.387234
C49	C	1.424457	-0.343602	0.112697
C50	C	1.924457	0.156398	0.612697
C51	C	1.363166	-0.394490	-0.000033
C52	C	1.863166	0.105510	0.499967
C53	C	1.488183	-0.198919	0.000016
C54	C	1.988183	0.301081	0.500016
C55	C	1.478725	-0.553880	0.000056
C56	C	1.978725	-0.053880	0.500056
C57	C	1.713057	0.118801	0.000050
C58	C	2.213057	0.618801	0.500050
C59	C	1.852468	0.121271	0.000045
C60	C	2.352468	0.621271	0.500045
C61	C	1.474253	0.277116	0.000062
C62	C	1.974253	0.777116	0.500062
C63	C	1.476709	0.370379	0.000070
C64	C	1.976709	0.870379	0.500070
N65	N	1.483446	0.123590	0.356166
N66	N	1.983446	0.623590	0.856166
N67	N	1.483476	0.123596	-0.356071
N68	N	1.983476	0.623596	0.143929
C69	C	1.568863	0.067007	0.428089
C70	C	2.068863	0.567007	0.928089
C71	C	1.568875	0.067007	0.571972
C72	C	2.068875	0.567007	1.071972
C73	C	1.398050	0.180182	0.571996
C74	C	1.898050	0.680182	1.071996
C75	C	1.398033	0.180177	0.428116
C76	C	1.898033	0.680177	0.928116
H77	H	1.129488	-0.012966	0.000017
H78	H	1.629488	0.487034	0.500017
H79	H	1.374655	-0.315093	-0.208149
H80	H	1.874655	0.184907	0.291851
H81	H	0.891840	-0.017197	0.000017
H82	H	1.391840	0.482803	0.500017
H83	H	1.328470	0.226255	0.369553
H84	H	1.828470	0.726255	0.869553
Cl85	Cl	1.206041	-0.419283	-0.000126
Cl86	Cl	1.706041	0.080717	0.499874
Cl87	Cl	1.676258	-0.004131	0.662385
Cl88	Cl	2.176258	0.495869	1.162385
H89	H	0.837435	0.260161	0.000065
H90	H	1.337435	0.760161	0.500065
Cl91	Cl	1.760713	-0.333247	-0.000124
Cl92	Cl	2.260713	0.166753	0.499876
H93	H	1.638410	0.020929	0.369510
H94	H	2.138410	0.520929	0.869510
H95	H	1.374637	-0.314931	0.207981
H96	H	1.874637	0.185069	0.707981
H97	H	1.592370	-0.437865	-0.207942
H98	H	2.092370	0.062135	0.292058
H99	H	1.592344	-0.437833	0.207976
H100	H	2.092344	0.062167	0.707976
H101	H	1.075060	0.264379	0.000047
H102	H	1.575060	0.764379	0.500047
Cl103	Cl	1.290683	0.251320	0.662454
Cl104	Cl	1.790683	0.751320	1.162454
