data_functionalizedCrystal
_audit_creation_method	'MofGen! by Chris Wilmer'
_symmetry_space_group_name_H-M	'P1'
_symmetry_Int_Tables_number	1
_symmetry_cell_setting	triclinic
loop_
_symmetry_equiv_pos_as_xyz
  x,y,z
_cell_length_a	27.731993
_cell_length_b	13.339070
_cell_length_c	12.376457
_cell_angle_alpha	75.601917
_cell_angle_beta	78.815802
_cell_angle_gamma	80.875157
loop_
_atom_site_label
_atom_site_type_symbol
_atom_site_fract_x
_atom_site_fract_y
_atom_site_fract_z
O1	O	0.664080	-0.100418	-0.093687
O2	O	1.164080	0.399582	0.406313
O3	O	0.525810	-0.118724	-0.093755
O4	O	1.025810	0.381276	0.406245
O5	O	0.579076	0.037439	-0.093725
O6	O	1.079076	0.537439	0.406275
O7	O	0.610814	-0.256581	-0.093717
O8	O	1.110814	0.243419	0.406283
O9	O	0.565759	-0.001549	0.094279
O10	O	1.065759	0.498451	0.594279
O11	O	0.512493	-0.157712	0.094250
O12	O	1.012493	0.342288	0.594250
O13	O	0.650763	-0.139406	0.094317
O14	O	1.150763	0.360594	0.594317
Zn15	Zn	0.579513	-0.154749	0.124134
Zn16	Zn	1.079513	0.345251	0.624134
Zn17	Zn	0.597059	-0.103381	-0.123571
Zn18	Zn	1.097059	0.396619	0.376429
O19	O	0.597497	-0.295569	0.094288
O20	O	1.097497	0.204431	0.594288
C21	C	0.501093	-0.137840	0.000239
C22	C	1.001093	0.362160	0.500239
C23	C	0.447282	-0.136703	0.000213
C24	C	0.947282	0.363297	0.500213
C25	C	0.070247	-0.107253	-0.102214
C26	C	0.570247	0.392747	0.397786
C27	C	0.272501	-0.111563	-0.102245
C28	C	0.772501	0.388437	0.397755
O29	O	0.304819	-0.094006	-0.189403
O30	O	0.804819	0.405994	0.310597
N31	N	0.290537	-0.133355	0.000235
N32	N	0.790537	0.366645	0.500235
C33	C	0.258005	-0.154065	0.102729
C34	C	0.758005	0.345935	0.602729
O35	O	0.277986	-0.172688	0.189893
O36	O	0.777986	0.327312	0.689893
C37	C	0.055752	-0.149747	0.102758
C38	C	0.555752	0.350253	0.602758
C39	C	0.037720	-0.127964	0.000272
C40	C	0.537720	0.372036	0.500272
C41	C	0.052215	-0.085471	-0.204692
C42	C	0.552215	0.414529	0.295308
C43	C	0.001654	-0.084399	-0.204683
C44	C	0.501654	0.415601	0.295317
C45	C	-0.030873	-0.105110	-0.102197
C46	C	0.469127	0.394890	0.397803
C47	C	-0.012840	-0.126892	0.000281
C48	C	0.487160	0.373108	0.500281
C49	C	0.023220	-0.170449	0.205251
C50	C	0.523220	0.329551	0.705251
C51	C	-0.027346	-0.169365	0.205249
C52	C	0.472654	0.330635	0.705249
C53	C	-0.045378	-0.147582	0.102763
C54	C	0.454622	0.352418	0.602763
C55	C	-0.095928	-0.146531	0.102776
C56	C	0.404072	0.353469	0.602776
N57	N	-0.113964	-0.124739	0.000296
N58	N	0.386036	0.375261	0.500296
C59	C	-0.081436	-0.104029	-0.102190
C60	C	0.418564	0.395971	0.397810
C61	C	0.364192	-0.156332	0.102706
C62	C	0.864192	0.343668	0.602706
C63	C	0.414755	-0.157413	0.102699
C64	C	0.914755	0.342587	0.602699
C65	C	0.429247	-0.114910	-0.102275
C66	C	0.929247	0.385090	0.397725
C67	C	0.378684	-0.113836	-0.102266
C68	C	0.878684	0.386164	0.397734
C69	C	0.346156	-0.134540	0.000227
C70	C	0.846156	0.365460	0.500227
C71	C	-0.187617	-0.101780	-0.102164
C72	C	0.312383	0.398220	0.397836
C73	C	-0.238182	-0.100715	-0.102146
C74	C	0.261818	0.399285	0.397854
C75	C	-0.252670	-0.143212	0.102827
C76	C	0.247330	0.356788	0.602827
C77	C	-0.202109	-0.144283	0.102810
C78	C	0.297891	0.355717	0.602810
C79	C	-0.169583	-0.123562	0.000305
C80	C	0.330417	0.376438	0.500305
O81	O	-0.128275	-0.164067	0.189888
O82	O	0.371725	0.335933	0.689888
O83	O	-0.101428	-0.085385	-0.189341
O84	O	0.398572	0.414615	0.310659
C85	C	0.120807	-0.108325	-0.102223
C86	C	0.620807	0.391675	0.397777
C87	C	0.138840	-0.130107	0.000255
C88	C	0.638840	0.369893	0.500255
C89	C	0.106312	-0.150818	0.102741
C90	C	0.606312	0.349182	0.602741
C91	C	0.189403	-0.131189	0.000248
C92	C	0.689403	0.368811	0.500248
C93	C	0.221931	-0.110478	-0.102238
C94	C	0.721931	0.389522	0.397762
C95	C	0.203895	-0.088686	-0.204718
C96	C	0.703895	0.411314	0.295282
C97	C	0.153335	-0.087614	-0.204709
C98	C	0.653335	0.412386	0.295291
C99	C	0.124348	-0.172610	0.205220
C100	C	0.624348	0.327390	0.705220
C101	C	0.174909	-0.173681	0.205203
C102	C	0.674909	0.326319	0.705203
C103	C	0.207436	-0.152970	0.102717
C104	C	0.707436	0.347030	0.602717
C105	C	0.567056	0.055549	0.000273
C106	C	1.067056	0.555549	0.500273
C107	C	0.551076	0.167597	0.000261
C108	C	1.051076	0.667597	0.500261
C109	C	0.675480	-0.120289	0.000321
C110	C	1.175480	0.379711	0.500321
C111	C	0.729291	-0.121425	0.000340
C112	C	1.229291	0.378575	0.500340
C113	C	0.609517	-0.313678	0.000287
C114	C	1.109517	0.186322	0.500287
C115	C	0.625497	-0.425725	0.000292
C116	C	1.125497	0.074275	0.500292
N117	N	0.567542	-0.189806	0.293185
N118	N	1.067542	0.310194	0.793185
C119	C	0.675330	0.534371	0.000322
C120	C	1.175330	1.034371	0.500322
C121	C	0.690345	0.429095	0.000340
C122	C	1.190345	0.929095	0.500340
C123	C	0.655529	0.363716	0.000319
C124	C	1.155529	0.863716	0.500319
C125	C	0.605696	0.403622	0.000282
C126	C	1.105696	0.903622	0.500282
C127	C	0.590678	0.508906	0.000273
C128	C	1.090678	1.008906	0.500273
C129	C	0.570877	0.338251	0.000271
C130	C	1.070877	0.838251	0.500271
C131	C	0.521044	0.378157	0.000234
C132	C	1.021044	0.878157	0.500234
C133	C	0.506029	0.483431	0.000224
C134	C	1.006029	0.983431	0.500224
C135	C	0.540845	0.548810	0.000244
C136	C	1.040845	1.048810	0.500244
C137	C	0.585895	0.232967	0.000280
C138	C	1.085895	0.732967	0.500280
C139	C	0.501243	0.207502	0.000231
C140	C	1.001243	0.707502	0.500231
C141	C	0.486228	0.312777	0.000213
C142	C	0.986228	0.812777	0.500213
N143	N	0.609033	-0.068316	-0.292623
N144	N	1.109033	0.431684	0.207377
C145	C	0.636819	0.013082	0.648208
C146	C	1.136819	0.513082	1.148208
C147	C	0.645194	0.037618	0.529873
C148	C	1.145194	0.537618	1.029873
C149	C	0.625782	-0.019235	0.470695
C150	C	1.125782	0.480765	0.970695
C151	C	0.597993	-0.100630	0.529865
C152	C	1.097993	0.399370	1.029865
C153	C	0.589619	-0.125174	0.648211
C154	C	1.089619	0.374826	1.148211
C155	C	0.578583	-0.157492	0.470698
C156	C	1.078583	0.342508	0.970698
C157	C	0.550793	-0.238886	0.529867
C158	C	1.050793	0.261114	1.029867
C159	C	0.542421	-0.263426	0.648203
C160	C	1.042421	0.236574	1.148203
C161	C	0.561833	-0.206572	0.707380
C162	C	1.061833	0.293428	1.207380
C163	C	0.586956	-0.132947	0.352351
C164	C	1.086956	0.367053	0.852351
C165	C	0.539757	-0.271204	0.352354
C166	C	1.039757	0.228796	0.852354
C167	C	0.531381	-0.295740	0.470690
C168	C	1.031381	0.204260	0.970690
H169	H	0.429433	-0.175167	0.186153
H170	H	0.929433	0.324833	0.686153
C171	C	0.500812	-0.385272	0.535791
C172	C	1.000812	0.114728	1.035791
N173	N	0.477786	-0.452705	0.584827
N174	N	0.977786	0.047295	1.084827
H175	H	0.632603	0.000746	0.374341
H176	H	1.132603	0.500746	0.874341
H177	H	0.364006	-0.096099	-0.185720
H178	H	0.864006	0.403901	0.314280
C179	C	0.462943	0.135589	0.000206
C180	C	0.962943	0.635589	0.500206
N181	N	0.434097	0.081418	0.000188
N182	N	0.934097	0.581418	0.500188
C183	C	0.451210	0.527322	0.000194
C184	C	0.951210	1.027322	0.500194
N185	N	0.409920	0.560378	0.000171
N186	N	0.909920	1.060378	0.500171
C187	C	0.518400	-0.333746	0.287264
C188	C	1.018400	0.166254	0.787264
N189	N	0.502316	-0.380849	0.238230
N190	N	1.002316	0.119151	0.738230
H191	H	0.445652	0.345284	0.000184
H192	H	0.945652	0.845284	0.500184
C193	C	0.675759	0.127155	0.464796
C194	C	1.175759	0.627155	0.964796
N195	N	0.698780	0.194600	0.415779
N196	N	1.198780	0.694600	0.915779
H197	H	0.609582	-0.066676	0.304187
H198	H	1.109582	0.433324	0.804187
C199	C	0.658170	0.075609	0.713311
C200	C	1.158170	0.575609	1.213311
N201	N	0.674253	0.122710	0.762349
N202	N	1.174253	0.622710	1.262349
H203	H	0.555012	-0.226546	0.803739
H204	H	1.055012	0.273454	1.303739
H205	H	0.667758	0.277996	0.000334
H206	H	1.167758	0.777996	0.500334
C207	C	0.328418	-0.179131	0.215464
C208	C	0.828418	0.320869	0.715464
N209	N	0.301476	-0.196314	0.300395
N210	N	0.801476	0.303686	0.800395
C211	C	-0.288460	-0.165989	0.215556
C212	C	0.211540	0.334011	0.715556
N213	N	-0.315419	-0.183137	0.300465
N214	N	0.184581	0.316863	0.800465
H215	H	0.730920	0.396611	0.000372
H216	H	1.230920	0.896611	0.500372
C217	C	0.511854	-0.352967	0.713285
C218	C	1.011854	0.147033	1.213285
N219	N	0.488831	-0.420407	0.762304
N220	N	0.988831	0.079593	1.262304
H221	H	0.230388	-0.071829	-0.288166
H222	H	0.730388	0.428171	0.211834
C223	C	0.713621	0.606292	0.000351
C224	C	1.213621	1.106292	0.500351
N225	N	0.742464	0.660464	0.000375
N226	N	1.242464	1.160464	0.500375
C227	C	0.524330	0.664619	0.000237
C228	C	1.024330	1.164619	0.500237
N229	N	0.511892	0.751846	0.000238
N230	N	1.011892	1.251846	0.500238
H231	H	-0.161139	-0.084908	-0.185633
H232	H	0.338861	0.415092	0.314367
C233	C	-0.258013	-0.076743	-0.214893
C234	C	0.241987	0.423257	0.285107
N235	N	-0.272949	-0.058683	-0.299812
N236	N	0.227051	0.441317	0.200188
H237	H	0.078694	-0.068602	-0.288153
H238	H	0.578694	0.431398	0.211847
C239	C	0.465036	-0.092120	-0.215011
C240	C	0.965036	0.407880	0.284989
N241	N	0.491994	-0.074947	-0.299918
N242	N	0.991994	0.425053	0.200082
C243	C	0.043043	-0.194402	0.317996
C244	C	0.543043	0.305598	0.817996
N245	N	0.057971	-0.212441	0.402922
N246	N	0.557971	0.287559	0.902922
C247	C	-0.018175	-0.060414	-0.317427
C248	C	0.481825	0.439586	0.182573
N249	N	-0.033108	-0.042339	-0.402351
N250	N	0.466892	0.457661	0.097649
H251	H	-0.053828	-0.186233	0.288713
H252	H	0.446172	0.313767	0.788713
H253	H	-0.187426	-0.162041	0.186262
H254	H	0.312574	0.337959	0.686262
C255	C	0.133506	-0.063639	-0.317453
C256	C	0.633506	0.436361	0.182547
N257	N	0.118574	-0.045574	-0.402377
N258	N	0.618574	0.454426	0.097623
H259	H	0.189586	-0.191429	0.288666
H260	H	0.689586	0.308571	0.788666
H261	H	0.097868	-0.189470	0.288678
H262	H	0.597868	0.310530	0.788678
H263	H	0.626469	0.200486	0.000311
H264	H	1.126469	0.700486	0.500311
