data_functionalizedCrystal
_audit_creation_method	'MofGen! by Chris Wilmer'
_symmetry_space_group_name_H-M	'P1'
_symmetry_Int_Tables_number	1
_symmetry_cell_setting	triclinic
loop_
_symmetry_equiv_pos_as_xyz
  x,y,z
_cell_length_a	16.109301
_cell_length_b	16.109301
_cell_length_c	14.586319
_cell_angle_alpha	89.994230
_cell_angle_beta	89.998582
_cell_angle_gamma	83.461481
loop_
_atom_site_label
_atom_site_type_symbol
_atom_site_fract_x
_atom_site_fract_y
_atom_site_fract_z
O1	O	-1.103131	-0.106867	0.076185
O2	O	-0.603131	0.393133	0.576185
O3	O	-0.861070	-0.120166	0.076200
O4	O	-0.361070	0.379834	0.576200
O5	O	-0.988750	0.007515	0.076183
O6	O	-0.488750	0.507515	0.576183
O7	O	-0.975451	-0.234547	0.076203
O8	O	-0.475451	0.265453	0.576203
O9	O	-0.988740	0.007518	-0.076298
O10	O	-0.488740	0.507518	0.423702
O11	O	-0.861059	-0.120163	-0.076281
O12	O	-0.361059	0.379837	0.423719
O13	O	-1.103121	-0.106864	-0.076295
O14	O	-0.603121	0.393136	0.423705
Cu15	Cu	-0.982089	-0.113513	-0.090211
Cu16	Cu	-0.482089	0.386487	0.409789
Cu17	Cu	-0.982101	-0.113517	0.090115
Cu18	Cu	-0.482101	0.386483	0.590115
O19	O	-0.975441	-0.234544	-0.076278
O20	O	-0.475441	0.265456	0.423722
C21	C	-0.830090	-0.119626	-0.000038
C22	C	-0.330090	0.380374	0.499962
C23	C	-0.737794	-0.118011	-0.000033
C24	C	-0.237794	0.381989	0.499967
C25	C	-0.988206	0.038491	-0.000058
C26	C	-0.488206	0.538491	0.499942
C27	C	-0.986591	0.130786	-0.000059
C28	C	-0.486591	0.630786	0.499941
N29	N	-0.982087	-0.113510	-0.217042
N30	N	-0.482087	0.386490	0.282958
C31	C	-1.134101	-0.107404	-0.000055
C32	C	-0.634101	0.392596	0.499945
C33	C	-1.226397	-0.109019	-0.000054
C34	C	-0.726397	0.390981	0.499946
C35	C	-0.515522	-0.190018	-0.000038
C36	C	-0.015522	0.309982	0.499962
C37	C	-0.428801	-0.188494	-0.000044
C38	C	0.071199	0.311506	0.499956
C39	C	-0.448676	-0.037006	-0.000052
C40	C	0.051324	0.462994	0.499948
C41	C	-0.535394	-0.038530	-0.000053
C42	C	-0.035394	0.461470	0.499947
C43	C	-0.568815	-0.115039	-0.000041
C44	C	-0.068815	0.384961	0.499959
C45	C	-0.395376	-0.111990	-0.000046
C46	C	0.104624	0.388010	0.499954
C47	C	-0.301350	-0.110337	-0.000053
C48	C	0.198650	0.389663	0.499947
C49	C	-0.662847	-0.116693	-0.000036
C50	C	-0.162847	0.383307	0.499964
C51	C	-0.975984	-0.265521	-0.000035
C52	C	-0.475984	0.234479	0.499965
C53	C	-0.977600	-0.357816	-0.000028
C54	C	-0.477600	0.142184	0.499972
C55	C	-1.058599	0.353059	-0.000049
C56	C	-0.558599	0.853059	0.499951
C57	C	-1.057075	0.439779	-0.000041
C58	C	-0.557075	0.939779	0.499959
C59	C	-0.905586	0.419905	-0.000036
C60	C	-0.405586	0.919905	0.499964
C61	C	-0.907111	0.333186	-0.000037
C62	C	-0.407111	0.833186	0.499963
C63	C	-0.983620	0.299766	-0.000048
C64	C	-0.483620	0.799766	0.499952
C65	C	-0.980571	0.473205	-0.000039
C66	C	-0.480571	0.973205	0.499961
C67	C	-0.978918	0.567231	-0.000031
C68	C	-0.478918	1.067231	0.499969
C69	C	-0.985273	0.205734	-0.000055
C70	C	-0.485273	0.705734	0.499945
C71	C	-1.038646	-0.056991	-0.548044
C72	C	-0.538646	0.443009	-0.048044
C73	C	-1.038644	-0.056992	-0.452063
C74	C	-0.538644	0.443008	0.047937
C75	C	-0.925549	-0.170038	-0.452058
C76	C	-0.425549	0.329962	0.047942
C77	C	-0.925555	-0.170040	-0.548038
C78	C	-0.425555	0.329960	-0.048038
C79	C	-0.982103	-0.113513	-0.596028
C80	C	-0.482103	0.386487	-0.096028
C81	C	-0.982094	-0.113510	-0.404067
C82	C	-0.482094	0.386490	0.095933
C83	C	-0.982092	-0.113511	-0.300000
C84	C	-0.482092	0.386489	0.200000
C85	C	-0.982107	-0.113513	-0.700102
C86	C	-0.482107	0.386487	-0.200102
N87	N	-0.982110	-0.113513	0.216947
N88	N	-0.482110	0.386487	0.716947
H89	H	-0.542730	-0.252317	-0.000035
H90	H	-0.042730	0.247683	0.499965
Br91	Br	-1.158837	0.512103	-0.000037
Br92	Br	-0.658837	1.012103	0.499963
Br93	Br	-0.848820	-0.246760	-0.613167
Br94	Br	-0.348820	0.253240	-0.113167
Br95	Br	-1.162431	0.307705	-0.000065
Br96	Br	-0.662431	0.807705	0.499935
H97	H	-0.385413	-0.249550	-0.000043
H98	H	0.114587	0.250450	0.499957
H99	H	-0.578788	0.022530	-0.000058
H100	H	-0.078788	0.522530	0.499942
Br101	Br	-0.403314	0.066823	-0.000065
Br102	Br	0.096686	0.566823	0.499935
Br103	Br	-0.801758	0.465267	-0.000017
Br104	Br	-0.301758	0.965267	0.499983
H105	H	-0.846050	0.289792	-0.000033
H106	H	-0.346050	0.789792	0.499967
H107	H	-1.084691	-0.010964	-0.587116
H108	H	-0.584691	0.489036	-0.087116
Br109	Br	-1.115387	0.019715	-0.386943
Br110	Br	-0.615387	0.519715	0.113057
H111	H	-0.879508	-0.216060	-0.412975
H112	H	-0.379508	0.283940	0.087025
