data_functionalizedCrystal
_audit_creation_method	'MofGen! by Chris Wilmer'
_symmetry_space_group_name_H-M	'P1'
_symmetry_Int_Tables_number	1
_symmetry_cell_setting	triclinic
loop_
_symmetry_equiv_pos_as_xyz
  x,y,z
_cell_length_a	14.044220
_cell_length_b	12.837943
_cell_length_c	11.295483
_cell_angle_alpha	94.538773
_cell_angle_beta	94.468632
_cell_angle_gamma	85.991091
loop_
_atom_site_label
_atom_site_type_symbol
_atom_site_fract_x
_atom_site_fract_y
_atom_site_fract_z
O1	O	0.242691	-1.404877	-0.099010
O2	O	0.230415	-1.101936	-0.099017
O3	O	0.098158	-1.248859	-0.099002
O4	O	0.374947	-1.257954	-0.099025
O5	O	0.109755	-1.235952	0.099047
O6	O	0.242012	-1.089030	0.099032
O7	O	0.254287	-1.391970	0.099039
Cu8	Cu	0.249208	-1.239322	0.117119
Cu9	Cu	0.235494	-1.254585	-0.117097
O10	O	0.386544	-1.245048	0.099024
C11	C	0.232067	-1.056479	0.000007
C12	C	0.219699	-0.940259	0.000005
N13	N	0.258854	-1.228594	0.281854
C14	C	0.068282	-1.238424	0.000023
C15	C	-0.038016	-1.226550	0.000024
C16	C	-0.232639	-1.204843	0.000007
C17	C	-0.282665	-1.289060	0.000005
C18	C	-0.390961	-1.276982	-0.000005
C19	C	-0.124334	-1.216919	0.000016
C20	C	0.416420	-1.255482	-0.000004
C21	C	0.522717	-1.267357	-0.000013
C22	C	0.252635	-1.437428	0.000012
C23	C	0.265002	-1.553649	0.000007
C24	C	0.368378	-0.713048	0.000009
C25	C	0.356763	-0.603848	0.000008
C26	C	0.184853	-0.612656	0.000010
C27	C	0.196469	-0.721856	0.000011
C28	C	0.288234	-0.772048	0.000009
C29	C	0.299849	-0.881251	0.000002
C30	C	0.127940	-0.890056	0.000012
C31	C	0.116324	-0.780856	0.000011
N32	N	0.225841	-1.265320	-0.281832
C33	C	0.156351	-1.342540	0.531156
C34	C	0.163648	-1.334441	0.655818
C35	C	0.280740	-1.204292	0.655845
C36	C	0.273443	-1.212391	0.531182
C37	C	0.211247	-1.281518	0.468842
C38	C	0.203956	-1.289622	0.344177
C39	C	0.321042	-1.159469	0.344206
C40	C	0.328339	-1.151370	0.468869
H41	H	-0.244167	-1.370237	-0.000073
Cl42	Cl	-0.292082	-1.079527	-0.000002
H43	H	0.118944	-1.384129	0.706551
H44	H	0.374569	-0.922115	0.000002
Cl45	Cl	0.358913	-1.117383	0.734228
H46	H	0.378975	-1.095084	0.519641
Cl47	Cl	0.000968	-0.717748	0.000016
Cl48	Cl	0.457520	-0.529679	0.000012
Cl49	Cl	0.483736	-0.776152	-0.000010
Cl50	Cl	0.069501	-0.549539	0.000028
H51	H	0.365746	-1.109784	0.293456
Cl52	Cl	0.125770	-1.376526	0.265808
Cl53	Cl	0.027181	-0.964236	-0.000007
H54	H	0.105716	-1.398833	0.480397
