data_functionalizedCrystal
_audit_creation_method	'MofGen! by Chris Wilmer'
_symmetry_space_group_name_H-M	'P1'
_symmetry_Int_Tables_number	1
_symmetry_cell_setting	triclinic
loop_
_symmetry_equiv_pos_as_xyz
  x,y,z
_cell_length_a	14.853567
_cell_length_b	10.723024
_cell_length_c	9.198806
_cell_angle_alpha	90.001672
_cell_angle_beta	90.001310
_cell_angle_gamma	84.051400
loop_
_atom_site_label
_atom_site_type_symbol
_atom_site_fract_x
_atom_site_fract_y
_atom_site_fract_z
O1	O	-1.197225	-0.162913	-0.120788
O2	O	-0.934868	-0.182320	-0.120813
O3	O	-1.072098	0.009021	-0.120795
O4	O	-1.059995	-0.354254	-0.120807
O5	O	-1.072086	0.009020	0.120990
O6	O	-0.934856	-0.182321	0.120972
O7	O	-1.197213	-0.162914	0.120997
Cu8	Cu	-1.066033	-0.172618	0.143061
Cu9	Cu	-1.066047	-0.172617	-0.142877
O10	O	-1.059983	-0.354255	0.120979
C11	C	-1.071211	0.055511	0.000096
C12	C	-1.068576	0.194039	0.000091
C13	C	-0.901269	-0.181441	0.000077
C14	C	-0.801171	-0.178806	0.000067
C15	C	-1.230812	-0.163793	0.000104
C16	C	-1.330910	-0.166428	0.000104
C17	C	-0.387978	-0.054006	0.000104
C18	C	-0.367897	-0.281324	0.000095
C19	C	-0.461944	-0.283802	0.000090
C20	C	-0.519013	-0.171380	0.000090
C21	C	-0.482034	-0.056481	0.000095
C22	C	-0.498930	-0.398699	0.000071
C23	C	-0.592982	-0.401181	0.000064
C24	C	-0.650052	-0.288758	0.000075
C25	C	-0.613068	-0.173854	0.000081
C26	C	-0.670137	-0.061433	0.000081
C27	C	-0.633155	0.053473	0.000098
C28	C	-0.539104	0.055942	0.000105
C29	C	-0.744103	-0.291228	0.000067
C30	C	-0.764192	-0.063907	0.000072
C31	C	-1.060870	-0.400745	0.000085
C32	C	-1.063505	-0.539273	0.000080
N33	N	-1.066030	-0.172618	0.344175
C34	C	-1.145363	0.269798	0.000096
C35	C	-1.142641	0.412974	0.000090
C36	C	-1.123790	-0.092107	0.583784
C37	C	-1.123779	-0.092107	0.416372
N38	N	-1.066051	-0.172617	0.656009
H39	H	-0.810652	0.027642	0.000077
H40	H	-0.623084	-0.494744	0.000051
H41	H	-0.997766	0.395637	0.000086
H42	H	-1.000821	0.235175	0.000075
H43	H	-0.774209	-0.384782	0.000056
Br44	Br	-1.258299	0.201249	0.000091
H45	H	-1.173208	-0.023175	0.354262
H46	H	-0.357863	0.039547	0.000123
Br47	Br	-1.252212	0.521466	0.000115
Br48	Br	-0.488908	0.211871	0.000123
Br49	Br	-1.206207	0.022775	0.687278
H50	H	-1.016592	-0.241544	0.406276
H51	H	-0.452459	-0.490226	0.000056
H52	H	-1.016614	-0.241549	0.593904
H53	H	-0.679632	0.145006	0.000088
H54	H	-0.321427	-0.372852	0.000083
