data_functionalizedCrystal
_audit_creation_method	'MofGen! by Chris Wilmer'
_symmetry_space_group_name_H-M	'P1'
_symmetry_Int_Tables_number	1
_symmetry_cell_setting	triclinic
loop_
_symmetry_equiv_pos_as_xyz
  x,y,z
_cell_length_a	18.215407
_cell_length_b	18.215405
_cell_length_c	18.215399
_cell_angle_alpha	89.969449
_cell_angle_beta	89.982223
_cell_angle_gamma	90.020505
loop_
_atom_site_label
_atom_site_type_symbol
_atom_site_fract_x
_atom_site_fract_y
_atom_site_fract_z
Zn1	Zn	-1.125072	0.293078	0.416062
Zn2	Zn	-1.124980	0.416149	0.292990
Zn3	Zn	-1.002004	0.293092	0.293014
Zn4	Zn	-1.001970	0.416098	0.416020
O5	O	-1.063507	0.354604	0.354521
O6	O	-1.228044	0.309419	0.399744
O7	O	-1.108643	0.399852	0.190009
O8	O	-1.018382	0.190105	0.309364
O9	O	-1.227977	0.399839	0.309324
O10	O	-1.108799	0.190095	0.399767
O11	O	-1.018293	0.309443	0.190026
O12	O	-0.899016	0.309393	0.309323
O13	O	-1.018324	0.399752	0.519010
O14	O	-0.898991	0.399765	0.399695
O15	O	-1.108766	0.309369	0.519041
O16	O	-1.108610	0.519127	0.309283
O17	O	-1.018235	0.519089	0.399672
C18	C	-0.872300	0.354575	0.354507
C19	C	-0.790502	0.354581	0.354519
C20	C	-0.602342	0.307590	0.401673
C21	C	-0.525483	0.307594	0.401675
C22	C	-0.525424	0.401607	0.307375
C23	C	-0.602281	0.401599	0.307370
C24	C	-0.640738	0.354591	0.354523
C25	C	-0.487022	0.354603	0.354530
C26	C	-0.403688	0.354608	0.354532
C27	C	-0.724077	0.354586	0.354521
C28	C	-1.063429	0.545810	0.354486
C29	C	-1.063463	0.627609	0.354496
C30	C	-1.063552	0.354553	0.546474
C31	C	-1.063571	0.354532	0.628273
C32	C	-0.255460	0.354625	0.354534
C33	C	-0.337259	0.354614	0.354535
C34	C	-1.063605	0.162651	0.354573
C35	C	-1.063647	0.080852	0.354595
C36	C	-1.110632	0.815798	0.307517
C37	C	-1.110665	0.892657	0.307534
C38	C	-1.016476	0.892658	0.401579
C39	C	-1.016447	0.815800	0.401565
C40	C	-1.063524	0.777373	0.354529
C41	C	-1.063586	0.931089	0.354562
C42	C	-1.063621	1.014422	0.354581
C43	C	-1.063490	0.694034	0.354510
C44	C	-1.063504	0.354602	0.163315
C45	C	-1.063628	0.354416	0.081517
C46	C	-1.110681	0.307426	0.816485
C47	C	-1.110690	0.307404	0.893344
C48	C	-1.016513	0.401524	0.893300
C49	C	-1.016501	0.401541	0.816443
C50	C	-1.063589	0.354493	0.778037
C51	C	-1.063610	0.354454	0.931753
C52	C	-1.063619	0.354432	1.015087
C53	C	-1.063579	0.354515	0.694698
H54	H	-0.633651	0.269311	0.440066
H55	H	-0.494224	0.269320	0.440069
Br56	Br	-0.473228	0.465401	0.243386
Br57	Br	-1.174608	0.243530	0.945521
Br58	Br	-0.952517	0.763646	0.465379
Br59	Br	-0.654396	0.465381	0.243366
Br60	Br	-0.952579	0.465417	0.764258
H61	H	-0.978146	0.923955	0.439873
Br62	Br	-0.952613	0.465374	0.945426
Br63	Br	-1.174584	0.243574	0.764365
H64	H	-1.148966	0.784512	0.269218
H65	H	-1.149026	0.923940	0.269253
