data_functionalizedCrystal
_audit_creation_method	'MofGen! by Chris Wilmer'
_symmetry_space_group_name_H-M	'P1'
_symmetry_Int_Tables_number	1
_symmetry_cell_setting	triclinic
loop_
_symmetry_equiv_pos_as_xyz
  x,y,z
_cell_length_a	12.594517
_cell_length_b	12.594516
_cell_length_c	12.594509
_cell_angle_alpha	89.975348
_cell_angle_beta	89.978379
_cell_angle_gamma	90.015853
loop_
_atom_site_label
_atom_site_type_symbol
_atom_site_fract_x
_atom_site_fract_y
_atom_site_fract_z
Zn1	Zn	1.627270	-0.423732	-0.601875
Zn2	Zn	1.627160	-0.601737	-0.423903
Zn3	Zn	1.449273	-0.423773	-0.423904
Zn4	Zn	1.449256	-0.601668	-0.601833
O5	O	1.538240	-0.512728	-0.512879
O6	O	1.776201	-0.447357	-0.578284
O7	O	1.603524	-0.578176	-0.274957
O8	O	1.472938	-0.274821	-0.447530
O9	O	1.776120	-0.578136	-0.447528
O10	O	1.603711	-0.274792	-0.578285
O11	O	1.472831	-0.447426	-0.274958
O12	O	1.300325	-0.447359	-0.447489
O13	O	1.472909	-0.578019	-0.750784
O14	O	1.300313	-0.578058	-0.578213
O15	O	1.603695	-0.447290	-0.750815
O16	O	1.603508	-0.750674	-0.447488
O17	O	1.472802	-0.750623	-0.578212
C18	C	1.538170	-0.789269	-0.512868
C19	C	1.538238	-0.907574	-0.512899
C20	C	1.261699	-0.512706	-0.512847
C21	C	1.143393	-0.512723	-0.512859
C22	C	1.467140	-0.976838	-0.583950
C23	C	1.441206	-1.047701	-0.486827
C24	C	1.564268	-1.047510	-0.610039
C25	C	1.512252	-0.976878	-0.415725
C26	C	1.635360	-0.976682	-0.539002
C27	C	1.609463	-1.047512	-0.441812
C28	C	1.074116	-0.441538	-0.441894
C29	C	1.003305	-0.538626	-0.415718
C30	C	1.003406	-0.415682	-0.539054
C31	C	1.074140	-0.609862	-0.486632
C32	C	1.074247	-0.486852	-0.610013
C33	C	1.003468	-0.584007	-0.583874
C34	C	1.815861	-0.512750	-0.512911
C35	C	1.934166	-0.512759	-0.512924
C36	C	1.538312	-0.512642	-0.790500
C37	C	1.538343	-0.512605	-0.908805
C38	C	1.538339	-0.235107	-0.512912
C39	C	1.538381	-0.116801	-0.512927
C40	C	1.467254	-0.583620	-1.048805
C41	C	1.441231	-0.486555	-0.978000
C42	C	1.564318	-0.609660	-0.978039
C43	C	1.512331	-0.415355	-1.048786
C44	C	1.635464	-0.538527	-1.048831
C45	C	1.609478	-0.441395	-0.978058
C46	C	1.538229	-0.512736	-0.236338
C47	C	1.538404	-0.512473	-0.118033
H48	H	1.406908	-0.945805	-0.643949
H49	H	1.105432	-0.464918	-0.692122
H50	H	0.972279	-0.333612	-0.561146
H51	H	1.669649	-1.078349	-0.381669
C52	C	1.482634	-0.935631	-0.306248
C53	C	1.390494	-0.873903	-0.313687
C54	C	1.363166	-0.835898	-0.212860
H55	H	1.538999	-0.893490	-0.279145
H56	H	1.470212	-0.993872	-0.259911
H57	H	1.402921	-0.815670	-0.360007
H58	H	1.334108	-0.916021	-0.340771
H59	H	1.350745	-0.894140	-0.166523
H60	H	1.419538	-0.793762	-0.185766
H61	H	1.300642	-0.794020	-0.217892
H62	H	1.359139	-1.078919	-0.464772
H63	H	0.972146	-0.560531	-0.333584
C64	C	1.744875	-0.568097	-1.090301
C65	C	1.771631	-0.669905	-1.054541
C66	C	1.872406	-0.697198	-1.092736
H67	H	1.795683	-0.518412	-1.065050
H68	H	1.744270	-0.567254	-1.165728
H69	H	1.772244	-0.670740	-0.979130
H70	H	1.720851	-0.719612	-1.079790
H71	H	1.871801	-0.696355	-1.168163
H72	H	1.923205	-0.647507	-1.067482
H73	H	1.890569	-0.766280	-1.068487
H74	H	1.717409	-0.945466	-0.561104
H75	H	1.586228	-1.078536	-0.692178
C76	C	1.593518	-0.719116	-0.936396
C77	C	1.594007	-0.717503	-0.825240
C78	C	1.620877	-0.818319	-0.786847
H79	H	1.662012	-0.738166	-0.961577
H80	H	1.542900	-0.769551	-0.960561
H81	H	1.644623	-0.667085	-0.801086
H82	H	1.525523	-0.698472	-0.800031
H83	H	1.570259	-0.868754	-0.811012
H84	H	1.689370	-0.837361	-0.812035
H85	H	1.621203	-0.817241	-0.711425
C86	C	1.115429	-0.361487	-0.361613
C87	C	1.079497	-0.389095	-0.260070
C88	C	1.117544	-0.315389	-0.186086
H89	H	1.090191	-0.292672	-0.379381
H90	H	1.190857	-0.361592	-0.362528
H91	H	1.004084	-0.388979	-0.259158
H92	H	1.104732	-0.457897	-0.242268
H93	H	1.192973	-0.315494	-0.187000
H94	H	1.092304	-0.246579	-0.203864
H95	H	1.093178	-0.334116	-0.117179
H96	H	1.105082	-0.691967	-0.464413
C97	C	0.962412	-0.664551	-0.663790
C98	C	0.998425	-0.765960	-0.635907
C99	C	0.960610	-0.840187	-0.709488
H100	H	0.987752	-0.646891	-0.732616
H101	H	0.886981	-0.663784	-0.663777
H102	H	1.073839	-0.766724	-0.635932
H103	H	0.973087	-0.783654	-0.567095
H104	H	0.885180	-0.839421	-0.709475
H105	H	0.985954	-0.822517	-0.778309
H106	H	0.985031	-0.909003	-0.690574
C107	C	1.386835	-0.663529	-1.090179
C108	C	1.285326	-0.635815	-1.054309
C109	C	1.211215	-0.709388	-1.092415
H110	H	1.404446	-0.732389	-1.064942
H111	H	1.387798	-0.663360	-1.165608
H112	H	1.284365	-0.635995	-0.978896
H113	H	1.267682	-0.566967	-1.079543
H114	H	1.212178	-0.709219	-1.167843
H115	H	1.228835	-0.778243	-1.067174
H116	H	1.142331	-0.690589	-1.068090
H117	H	1.490294	-0.333197	-1.079732
H118	H	1.669622	-0.381215	-0.947191
C119	C	1.331743	-0.457067	-0.936654
C120	C	1.304105	-0.356089	-0.974059
C121	C	1.203245	-0.328906	-0.936009
H122	H	1.332560	-0.456604	-0.861240
H123	H	1.281249	-0.507585	-0.960905
H124	H	1.354586	-0.305585	-0.949803
H125	H	1.303264	-0.356526	-1.049469
H126	H	1.152751	-0.379424	-0.960260
H127	H	1.204072	-0.328449	-0.860596
H128	H	1.184476	-0.260395	-0.961391
