data_functionalizedCrystal
_audit_creation_method	'MofGen! by Chris Wilmer'
_symmetry_space_group_name_H-M	'P1'
_symmetry_Int_Tables_number	1
_symmetry_cell_setting	triclinic
loop_
_symmetry_equiv_pos_as_xyz
  x,y,z
_cell_length_a	29.839134
_cell_length_b	29.839131
_cell_length_c	18.101389
_cell_angle_alpha	89.971836
_cell_angle_beta	90.031063
_cell_angle_gamma	89.966655
loop_
_atom_site_label
_atom_site_type_symbol
_atom_site_fract_x
_atom_site_fract_y
_atom_site_fract_z
Zn1	Zn	0.686752	0.178987	0.418922
Zn2	Zn	1.186752	0.678987	0.918922
Zn3	Zn	0.686676	0.254104	0.295059
Zn4	Zn	1.186676	0.754104	0.795059
Zn5	Zn	0.611626	0.178979	0.295068
Zn6	Zn	1.111626	0.678979	0.795068
Zn7	Zn	0.611584	0.254082	0.418833
Zn8	Zn	1.111584	0.754082	0.918833
O9	O	0.649160	0.216538	0.356970
O10	O	1.149160	0.716538	0.856970
O11	O	0.749609	0.188965	0.402524
O12	O	1.249609	0.688965	0.902524
O13	O	0.676707	0.244145	0.191427
O14	O	1.176707	0.744145	0.691427
O15	O	0.621641	0.116113	0.311539
O16	O	1.121641	0.616113	0.811539
O17	O	0.749554	0.244152	0.311523
O18	O	1.249554	0.744152	0.811523
O19	O	0.676836	0.116119	0.402533
O20	O	1.176836	0.616119	0.902533
O21	O	0.621568	0.188951	0.191434
O22	O	1.121568	0.688951	0.691434
O23	O	0.548753	0.188929	0.311453
O24	O	1.048753	0.688929	0.811453
O25	O	0.621569	0.244114	0.522478
O26	O	1.121569	0.744114	1.022478
O27	O	0.548722	0.244106	0.402382
O28	O	1.048722	0.744106	0.902382
O29	O	0.676795	0.188943	0.522543
O30	O	1.176795	0.688943	1.022543
O31	O	0.676666	0.316968	0.311437
O32	O	1.176666	0.816968	0.811437
O33	O	0.621496	0.316952	0.402373
O34	O	1.121496	0.816952	0.902373
C35	C	0.532437	0.216515	0.356909
C36	C	1.032437	0.716515	0.856909
C37	C	0.482503	0.216516	0.356901
C38	C	0.982503	0.716516	0.856901
C39	C	0.125919	0.187765	0.309720
C40	C	0.625919	0.687765	0.809720
C41	C	0.313592	0.187752	0.309675
C42	C	0.813592	0.687752	0.809675
O43	O	0.337860	0.163269	0.269492
O44	O	0.837860	0.663269	0.769492
N45	N	0.337057	0.216523	0.356938
N46	N	0.837057	0.716523	0.856938
C47	C	0.313602	0.245297	0.404218
C48	C	0.813602	0.745297	0.904218
O49	O	0.337866	0.269764	0.444423
O50	O	0.837866	0.769764	0.944423
C51	C	0.125929	0.245307	0.404267
C52	C	0.625929	0.745307	0.904267
C53	C	0.102467	0.216537	0.356996
C54	C	0.602467	0.716537	0.856996
C55	C	0.102456	0.158998	0.262454
C56	C	0.602456	0.658998	0.762454
C57	C	0.055541	0.159003	0.262462
C58	C	0.555541	0.659003	0.762462
C59	C	0.032088	0.187775	0.309738
C60	C	0.532088	0.687775	0.809738
C61	C	0.055551	0.216543	0.357004
C62	C	0.555551	0.716543	0.857004
C63	C	0.102474	0.274078	0.451550
C64	C	0.602474	0.774078	0.951550
C65	C	0.055553	0.274077	0.451560
C66	C	0.555553	0.774077	0.951560
C67	C	0.032090	0.245308	0.404289
C68	C	0.532090	0.745308	0.904289
C69	C	-0.014817	0.245320	0.404289
C70	C	0.485183	0.745320	0.904289
N71	N	-0.038282	0.216550	0.357026
N72	N	0.461718	0.716550	0.857026
C73	C	-0.014830	0.187777	0.309751
C74	C	0.485170	0.687777	0.809751
C75	C	0.412132	0.245290	0.404189
C76	C	0.912132	0.745290	0.904189
C77	C	0.459050	0.245288	0.404176
C78	C	0.959050	0.745288	0.904176
C79	C	0.459037	0.187743	0.309634
C80	C	0.959037	0.687743	0.809634
C81	C	0.412119	0.187747	0.309643
C82	C	0.912119	0.687747	0.809643
C83	C	0.388667	0.216519	0.356926
C84	C	0.888667	0.716519	0.856926
C85	C	-0.113355	0.187790	0.309772
C86	C	0.386645	0.687790	0.809772
C87	C	-0.160275	0.187799	0.309783
C88	C	0.339725	0.687799	0.809783
C89	C	-0.160258	0.245343	0.404328
C90	C	0.339742	0.745343	0.904328
C91	C	-0.113343	0.245336	0.404315
C92	C	0.386657	0.745336	0.904315
C93	C	-0.089893	0.216556	0.357035
C94	C	0.410107	0.716556	0.857035
O95	O	-0.039114	0.269787	0.444457
O96	O	0.460886	0.769787	0.944457
O97	O	-0.039103	0.163306	0.269564
O98	O	0.460897	0.663306	0.769564
C99	C	0.172835	0.187760	0.309711
C100	C	0.672835	0.687760	0.809711
C101	C	0.196297	0.216527	0.356978
C102	C	0.696297	0.716527	0.856978
C103	C	0.172845	0.245300	0.404253
C104	C	0.672845	0.745300	0.904253
C105	C	0.243215	0.216525	0.356965
C106	C	0.743215	0.716525	0.856965
C107	C	0.266668	0.187753	0.309690
C108	C	0.766668	0.687753	0.809690
C109	C	0.243203	0.158982	0.262427
C110	C	0.743203	0.658982	0.762427
C111	C	0.196287	0.158987	0.262436
C112	C	0.696287	0.658987	0.762436
C113	C	0.196310	0.274070	0.451516
C114	C	0.696310	0.774070	0.951516
C115	C	0.243226	0.274063	0.451503
C116	C	0.743226	0.774063	0.951503
C117	C	0.266678	0.245291	0.404227
C118	C	0.766678	0.745291	0.904227
C119	C	0.649080	0.333261	0.356911
C120	C	1.149080	0.833261	0.856911
C121	C	0.649087	0.383195	0.356910
C122	C	1.149087	0.883195	0.856910
C123	C	0.677849	0.692807	0.404429
C124	C	1.177849	1.192807	0.904429
C125	C	0.677880	0.880480	0.404478
C126	C	1.177880	1.380480	0.904478
O127	O	0.702289	0.904717	0.444829
O128	O	1.202289	1.404717	0.944829
N129	N	0.649171	0.903980	0.357068
N130	N	1.149171	1.403980	0.857068
C131	C	0.620451	0.880560	0.309646
C132	C	1.120451	1.380560	0.809646
O133	O	0.596030	0.904854	0.269327
O134	O	1.096030	1.404854	0.769327
C135	C	0.620418	0.692887	0.309601
C136	C	1.120418	1.192887	0.809601
C137	C	0.649131	0.669389	0.357009
C138	C	1.149131	1.169389	0.857009
C139	C	0.706559	0.669309	0.451834
C140	C	1.206559	1.169309	0.951834
C141	C	0.706553	0.622393	0.451819
C142	C	1.206553	1.122393	0.951819
C143	C	0.677836	0.598976	0.404398
C144	C	1.177836	1.098976	0.904398
C145	C	0.649125	0.622474	0.356994
C146	C	1.149125	1.122474	0.856994
C147	C	0.591696	0.669468	0.262183
C148	C	1.091696	1.169468	0.762183
C149	C	0.591689	0.622547	0.262178
C150	C	1.091689	1.122547	0.762178
C151	C	0.620403	0.599048	0.309586
C152	C	1.120403	1.099048	0.809586
C153	C	0.620402	0.552141	0.309558
C154	C	1.120402	1.052141	0.809558
N155	N	0.649110	0.528641	0.356968
N156	N	1.149110	1.028641	0.856968
C157	C	0.677827	0.552058	0.404388
C158	C	1.177827	1.052058	0.904388
C159	C	0.620471	0.979090	0.309671
C160	C	1.120471	1.479090	0.809671
C161	C	0.620480	1.026008	0.309681
C162	C	1.120480	1.526008	0.809681
C163	C	0.677908	1.025925	0.404515
C164	C	1.177908	1.525925	0.904515
C165	C	0.677901	0.979006	0.404501
C166	C	1.177901	1.479006	0.904501
C167	C	0.649180	0.955590	0.357081
C168	C	1.149180	1.455590	0.857081
C169	C	0.677812	0.453532	0.404352
C170	C	1.177812	0.953532	0.904352
C171	C	0.677804	0.406612	0.404330
C172	C	1.177804	0.906612	0.904330
C173	C	0.620375	0.406700	0.309499
C174	C	1.120375	0.906700	0.809499
C175	C	0.620384	0.453615	0.309518
C176	C	1.120384	0.953615	0.809518
C177	C	0.649104	0.477030	0.356950
C178	C	1.149104	0.977030	0.856950
O179	O	0.596002	0.527874	0.269234
O180	O	1.096002	1.027874	0.769234
O181	O	0.702237	0.527755	0.444713
O182	O	1.202237	1.027755	0.944713
C183	C	0.677855	0.739722	0.404445
C184	C	1.177855	1.239722	0.904445
C185	C	0.649144	0.763220	0.357040
C186	C	1.149144	1.263220	0.857040
C187	C	0.620427	0.739803	0.309620
C188	C	1.120427	1.239803	0.809620
C189	C	0.649153	0.810138	0.357050
C190	C	1.149153	1.310138	0.857050
C191	C	0.677870	0.833555	0.404470
C192	C	1.177870	1.333555	0.904470
C193	C	0.706578	0.810055	0.451881
C194	C	1.206578	1.310055	0.951881
C195	C	0.706572	0.763139	0.451865
C196	C	1.206572	1.263139	0.951865
C197	C	0.591719	0.763303	0.262210
C198	C	1.091719	1.263303	0.762210
C199	C	0.591728	0.810219	0.262229
C200	C	1.091728	1.310219	0.762229
C201	C	0.620445	0.833636	0.309649
C202	C	1.120445	1.333636	0.809649
C203	C	0.766338	0.216562	0.357032
C204	C	1.266338	0.716562	0.857032
C205	C	0.816272	0.216572	0.357059
C206	C	1.316272	0.716572	0.857059
C207	C	0.649186	0.216527	0.550132
C208	C	1.149186	0.716527	1.050132
C209	C	0.649197	0.216522	0.632447
C210	C	1.149197	0.716522	1.132447
C211	C	0.649228	1.099360	0.357052
C212	C	1.149228	1.599360	0.857052
C213	C	0.649197	1.049425	0.357102
C214	C	1.149197	1.549425	0.857102
C215	C	0.649160	0.216517	0.164560
C216	C	1.149160	0.716517	0.664560
C217	C	0.649236	0.216395	0.082246
C218	C	1.149236	0.716395	0.582246
C219	C	0.649223	0.216438	0.931538
C220	C	1.149223	0.716438	1.431538
C221	C	0.614357	0.251040	0.900172
C222	C	1.114357	0.751040	1.400172
C223	C	0.614451	0.251200	0.814553
C224	C	1.114451	0.751200	1.314553
C225	C	0.649209	0.216479	0.783155
C226	C	1.149209	0.716479	1.283155
C227	C	0.696540	0.229336	0.814266
C228	C	1.196540	0.729336	1.314266
C229	C	0.696346	0.229564	0.899911
C230	C	1.196346	0.729564	1.399911
C231	C	0.637170	0.168902	0.899973
C232	C	1.137170	0.668902	1.399973
C233	C	0.636117	0.169176	0.814322
C234	C	1.136117	0.669176	1.314322
C235	C	0.649205	0.216502	0.699296
C236	C	1.149205	0.716502	1.199296
C237	C	0.649231	0.216416	1.015397
C238	C	1.149231	0.716416	1.515397
H239	H	0.393042	0.268721	0.442694
H240	H	0.893042	0.768721	0.942694
H241	H	0.701195	0.472591	0.442981
H242	H	1.201195	0.972591	0.942981
H243	H	0.701188	0.387482	0.442935
H244	H	1.201188	0.887482	0.942935
H245	H	0.568333	0.744241	0.223596
H246	H	1.068333	1.244241	0.723596
F247	F	0.666892	0.133690	0.786396
F248	F	1.166892	0.633690	1.286396
F249	F	0.484016	0.275914	0.454478
F250	F	0.984016	0.775914	0.954478
H251	H	0.393018	0.164319	0.271154
H252	H	0.893018	0.664319	0.771154
H253	H	0.701282	0.959877	0.443105
H254	H	1.201282	1.459877	0.943105
H255	H	0.729933	0.603264	0.490424
H256	H	1.229933	1.103264	0.990424
F257	F	0.171356	0.304696	0.501836
F258	F	0.671356	0.804696	1.001836
F259	F	0.127435	0.304698	0.501864
F260	F	0.627435	0.804698	1.001864
H261	H	0.601286	0.159481	0.793986
H262	H	1.101286	0.659481	1.293986
H263	H	0.729944	0.688370	0.490454
H264	H	1.229944	1.188370	0.990454
H265	H	0.568347	0.829347	0.223616
H266	H	1.068347	1.329347	0.723616
H267	H	0.706936	0.263717	0.792817
H268	H	1.206936	0.763717	1.292817
H269	H	0.579353	0.243154	0.793516
H270	H	1.079353	0.743154	1.293516
H271	H	-0.179376	0.164371	0.271287
H272	H	0.320624	0.664371	0.771287
H273	H	-0.094268	0.164353	0.271276
H274	H	0.405732	0.664353	0.771276
F275	F	0.708471	1.050855	0.454983
F276	F	1.208471	1.550855	0.954983
F277	F	0.568341	0.240629	0.927065
F278	F	1.068341	0.740629	1.427065
F279	F	0.484005	0.157121	0.259319
F280	F	0.984005	0.657121	0.759319
F281	F	0.589830	0.478624	0.259053
F282	F	1.089830	0.978624	0.759053
F283	F	0.670363	0.135205	0.926490
F284	F	1.170363	0.635205	1.426490
H285	H	-0.179362	0.268770	0.442816
H286	H	0.320638	0.768770	0.942816
F287	F	0.624632	0.296808	0.928339
F288	F	1.124632	0.796808	1.428339
H289	H	0.036461	0.297506	0.490067
H290	H	0.536461	0.797506	0.990067
F291	F	0.709702	0.274983	0.926023
F292	F	1.209702	0.774983	1.426023
H293	H	-0.094238	0.268765	0.442801
H294	H	0.405762	0.768765	0.942801
F295	F	0.731432	0.198033	0.927039
F296	F	1.231432	0.698033	1.427039
F297	F	0.171322	0.128366	0.212125
F298	F	0.671322	0.628366	0.712125
H299	H	0.597103	1.045136	0.271069
H300	H	1.097103	1.545136	0.771069
F301	F	0.624872	0.297250	0.787767
F302	F	1.124872	0.797250	1.287767
F303	F	0.268191	0.304688	0.501815
F304	F	0.768191	0.804688	1.001815
H305	H	0.597082	0.960028	0.271055
H306	H	1.097082	1.460028	0.771055
F307	F	0.561133	0.694466	0.211726
F308	F	1.061133	1.194466	0.711726
H309	H	0.603257	0.157189	0.921556
H310	H	1.103257	0.657189	1.421556
H311	H	0.036442	0.135576	0.223970
H312	H	0.536442	0.635576	0.723970
F313	F	0.731408	0.197431	0.787691
F314	F	1.231408	0.697431	1.287691
H315	H	0.596995	0.387626	0.270888
H316	H	1.096995	0.887626	0.770888
H317	H	0.262306	0.135556	0.223931
H318	H	0.762306	0.635556	0.723931
F319	F	0.127409	0.128370	0.212134
F320	F	0.627409	0.628370	0.712134
F321	F	0.561119	0.597628	0.211707
F322	F	1.061119	1.097628	0.711707
F323	F	0.737133	0.738137	0.502324
F324	F	1.237133	1.238137	1.002324
F325	F	0.737143	0.834986	0.502346
F326	F	1.237143	1.334986	1.002346
