data_functionalizedCrystal
_audit_creation_method	'MofGen! by Chris Wilmer'
_symmetry_space_group_name_H-M	'P1'
_symmetry_Int_Tables_number	1
_symmetry_cell_setting	triclinic
loop_
_symmetry_equiv_pos_as_xyz
  x,y,z
_cell_length_a	14.472310
_cell_length_b	16.109301
_cell_length_c	16.109301
_cell_angle_alpha	96.538519
_cell_angle_beta	90.002494
_cell_angle_gamma	89.989694
loop_
_atom_site_label
_atom_site_type_symbol
_atom_site_fract_x
_atom_site_fract_y
_atom_site_fract_z
O1	O	0.076785	-1.103143	0.106861
O2	O	0.076801	-0.861081	0.120161
O3	O	0.076783	-0.988761	-0.007520
O4	O	0.076803	-0.975462	0.234542
O5	O	-0.076899	-0.988729	-0.007512
O6	O	-0.076881	-0.861048	0.120168
O7	O	-0.076897	-1.103110	0.106869
Cu8	Cu	-0.090921	-0.982076	0.113519
Cu9	Cu	0.090825	-0.982115	0.113510
O10	O	-0.076879	-0.975429	0.234550
C11	C	-0.000039	-0.830090	0.119626
C12	C	-0.000033	-0.737794	0.118011
N13	N	-0.218752	-0.982055	0.113525
C14	C	-0.000058	-0.988206	-0.038491
C15	C	-0.000059	-0.986591	-0.130786
C16	C	-0.592844	-0.982114	0.113507
C17	C	-0.553668	-0.913565	0.181597
C18	C	-0.446580	-0.913723	0.181846
C19	C	-0.407252	-0.982084	0.113516
C20	C	-0.446093	-1.068828	0.132440
C21	C	-0.553215	-1.068443	0.132924
C22	C	-0.553379	-0.964692	0.026291
C23	C	-0.446251	-0.962702	0.026873
C24	C	-0.302364	-0.982072	0.113519
C25	C	-0.697732	-0.982131	0.113506
N26	N	0.218656	-0.982143	0.113498
C27	C	-0.000055	-1.134101	0.107404
C28	C	-0.000055	-1.226397	0.109019
C29	C	-0.000038	-0.515522	0.190018
C30	C	-0.000044	-0.428801	0.188494
C31	C	-0.000053	-0.448676	0.037006
C32	C	-0.000053	-0.535394	0.038530
C33	C	-0.000041	-0.568815	0.115039
C34	C	-0.000047	-0.395376	0.111990
C35	C	-0.000053	-0.301350	0.110337
C36	C	-0.000036	-0.662847	0.116693
C37	C	-0.000049	-1.058599	-0.353059
C38	C	-0.000042	-1.057075	-0.439779
C39	C	-0.000036	-0.905586	-0.419905
C40	C	-0.000037	-0.907111	-0.333186
C41	C	-0.000048	-0.983620	-0.299766
C42	C	-0.000040	-0.980571	-0.473205
C43	C	-0.000031	-0.978918	-0.567231
C44	C	-0.000055	-0.985273	-0.205734
C45	C	-0.000036	-0.975984	0.265521
C46	C	-0.000028	-0.977600	0.357816
H47	H	-0.420321	-0.849244	0.170574
Cl48	Cl	-0.000022	-0.809409	-0.461926
H49	H	-0.000035	-0.542730	0.252317
Cl50	Cl	-0.000028	-0.812844	-0.266184
H51	H	-0.000043	-0.385413	0.249550
H52	H	-0.000058	-0.578788	-0.022530
Cl53	Cl	-0.593456	-0.813684	0.164472
Cl54	Cl	-0.595186	-0.930509	0.280966
H55	H	-0.000057	-1.120897	-0.325851
Cl56	Cl	-0.000041	-1.151339	-0.506773
Cl57	Cl	-0.000062	-0.406655	-0.059172
Cl58	Cl	-0.406765	-1.149466	0.057907
Cl59	Cl	-0.591773	-1.092149	0.231126
Cl60	Cl	-0.406989	-0.930863	0.281781
Cl61	Cl	-0.592491	-1.041869	-0.051941
H62	H	-0.419252	-1.084551	0.195320
Cl63	Cl	-0.593227	-1.149484	0.059185
H64	H	-0.580444	-0.902813	0.008088
H65	H	-0.420866	-0.898892	0.012511
Cl66	Cl	-0.404940	-1.034791	-0.055022
