data_functionalizedCrystal
_audit_creation_method	'MofGen! by Chris Wilmer'
_symmetry_space_group_name_H-M	'P1'
_symmetry_Int_Tables_number	1
_symmetry_cell_setting	triclinic
loop_
_symmetry_equiv_pos_as_xyz
  x,y,z
_cell_length_a	14.519709
_cell_length_b	10.489716
_cell_length_c	12.996460
_cell_angle_alpha	89.997908
_cell_angle_beta	90.000034
_cell_angle_gamma	84.104640
loop_
_atom_site_label
_atom_site_type_symbol
_atom_site_fract_x
_atom_site_fract_y
_atom_site_fract_z
O1	O	1.224769	0.167206	-0.085423
O2	O	1.558103	0.500539	0.247910
O3	O	1.891436	0.833872	0.581243
O4	O	0.956398	0.186896	-0.085454
O5	O	1.289732	0.520229	0.247880
O6	O	1.623065	0.853563	0.581213
O7	O	1.096702	-0.008613	-0.085441
O8	O	1.430036	0.324720	0.247892
O9	O	1.763369	0.658054	0.581225
O10	O	1.084465	0.362714	-0.085435
O11	O	1.417799	0.696048	0.247898
O12	O	1.751132	1.029381	0.581231
O13	O	1.096687	-0.008624	0.085692
O14	O	1.430021	0.324710	0.419026
O15	O	1.763354	0.658043	0.752359
O16	O	0.956384	0.186885	0.085680
O17	O	1.289717	0.520218	0.419013
O18	O	1.623050	0.853552	0.752347
O19	O	1.224754	0.167195	0.085710
O20	O	1.558088	0.500528	0.419044
O21	O	1.891421	0.833861	0.752377
Cu22	Cu	1.090568	0.177039	0.101321
Cu23	Cu	1.423901	0.510372	0.434655
Cu24	Cu	1.757234	0.843706	0.767988
Cu25	Cu	1.090585	0.177052	-0.101064
Cu26	Cu	1.423918	0.510385	0.232269
Cu27	Cu	1.757252	0.843718	0.565602
O28	O	1.084450	0.362704	0.085698
O29	O	1.417784	0.696037	0.419032
O30	O	1.751117	1.029370	0.752365
C31	C	0.922026	0.185973	0.000109
C32	C	1.255360	0.519306	0.333443
C33	C	1.588693	0.852640	0.666776
C34	C	0.819630	0.183223	0.000097
C35	C	1.152963	0.516556	0.333431
C36	C	1.486297	0.849890	0.666764
C37	C	0.444680	0.173100	0.000144
C38	C	0.778013	0.506433	0.333477
C39	C	1.111346	0.839766	0.666811
C40	C	0.549003	0.175911	0.000131
C41	C	0.882336	0.509244	0.333464
C42	C	1.215670	0.842577	0.666797
C43	C	0.632152	0.178161	0.000120
C44	C	0.965485	0.511494	0.333453
C45	C	1.298818	0.844828	0.666786
C46	C	0.736481	0.180973	0.000108
C47	C	1.069815	0.514306	0.333442
C48	C	1.403148	0.847640	0.666775
C49	C	1.095775	-0.056141	0.000122
C50	C	1.429109	0.277192	0.333456
C51	C	1.762442	0.610526	0.666789
C52	C	1.093025	-0.197743	0.000113
C53	C	1.426358	0.135590	0.333446
C54	C	1.759691	0.468923	0.666779
C55	C	1.179063	-0.296314	0.000132
C56	C	1.512397	0.037019	0.333465
C57	C	1.845730	0.370353	0.666798
C58	C	1.133606	-0.373195	-0.084249
C59	C	1.466939	-0.039862	0.249085
C60	C	1.800273	0.293471	0.582418
C61	C	1.133571	-0.373170	0.084476
C62	C	1.466905	-0.039836	0.417809
C63	C	1.800238	0.293497	0.751142
C64	C	1.047603	-0.272759	-0.084338
C65	C	1.380936	0.060574	0.248996
C66	C	1.714270	0.393907	0.582329
C67	C	1.047581	-0.272729	0.084463
C68	C	1.380915	0.060605	0.417796
C69	C	1.714248	0.393938	0.751129
C70	C	1.002060	-0.349560	0.000062
C71	C	1.335394	-0.016227	0.333395
C72	C	1.668727	0.317106	0.666728
C73	C	1.259126	0.168118	0.000145
C74	C	1.592460	0.501451	0.333479
C75	C	1.925793	0.834785	0.666812
C76	C	1.361523	0.170868	0.000151
C77	C	1.694856	0.504201	0.333484
C78	C	2.028189	0.837534	0.666817
C79	C	1.085377	0.410232	0.000132
C80	C	1.418711	0.743565	0.333466
C81	C	1.752044	1.076898	0.666799
C82	C	1.088128	0.551834	0.000135
C83	C	1.421461	0.885167	0.333469
C84	C	1.754795	1.218501	0.666802
N85	N	1.090562	0.177029	0.243668
N86	N	1.423895	0.510362	0.577002
N87	N	1.757229	0.843696	0.910335
N88	N	1.090598	0.177051	-0.243411
N89	N	1.423931	0.510385	0.089922
N90	N	1.757265	0.843718	0.423255
C91	C	1.090584	0.177053	0.663483
C92	C	1.423917	0.510386	0.996816
C93	C	1.757250	0.843720	1.330149
C94	C	1.090575	0.177051	0.546677
C95	C	1.423908	0.510384	0.880011
C96	C	1.757242	0.843717	1.213344
C97	C	1.090573	0.177042	0.453579
C98	C	1.423907	0.510375	0.786912
C99	C	1.757240	0.843709	1.120246
C100	C	1.090564	0.177038	0.336767
C101	C	1.423897	0.510371	0.670100
C102	C	1.757230	0.843704	1.003433
H103	H	1.253902	-0.272417	0.000054
H104	H	1.587236	0.060916	0.333388
H105	H	1.920569	0.394249	0.666721
H106	H	1.169904	-0.417026	0.155811
H107	H	1.503237	-0.083692	0.489144
H108	H	1.836570	0.249641	0.822477
H109	H	1.169932	-0.417064	-0.155579
H110	H	1.503266	-0.083731	0.177754
H111	H	1.836599	0.249602	0.511087
Br112	Br	0.987111	-0.199956	-0.203372
Br113	Br	1.320444	0.133377	0.129961
Br114	Br	1.653778	0.466711	0.463294
Br115	Br	0.877231	-0.388984	-0.000021
Br116	Br	1.210565	-0.055651	0.333312
Br117	Br	1.543898	0.277683	0.666646
H118	H	1.011286	-0.228837	0.155796
H119	H	1.344620	0.104496	0.489129
H120	H	1.677953	0.437830	0.822463
