data_functionalizedCrystal
_audit_creation_method	'MofGen! by Chris Wilmer'
_symmetry_space_group_name_H-M	'P1'
_symmetry_Int_Tables_number	1
_symmetry_cell_setting	triclinic
loop_
_symmetry_equiv_pos_as_xyz
  x,y,z
_cell_length_a	25.427154
_cell_length_b	25.426324
_cell_length_c	25.422586
_cell_angle_alpha	60.006367
_cell_angle_beta	60.012446
_cell_angle_gamma	59.992398
loop_
_atom_site_label
_atom_site_type_symbol
_atom_site_fract_x
_atom_site_fract_y
_atom_site_fract_z
O1	O	0.072968	-0.768436	0.642532
O2	O	0.027520	-0.598284	0.517710
O3	O	0.135268	-0.705940	0.517611
O4	O	-0.034780	-0.660780	0.642632
O5	O	0.171018	-0.670200	0.553260
O6	O	0.063270	-0.562544	0.553360
O7	O	0.108718	-0.732696	0.678182
Zn8	Zn	0.091670	-0.641945	0.621431
Zn9	Zn	0.044568	-0.689034	0.574461
O10	O	0.000970	-0.625039	0.678281
N11	N	0.123818	-0.609812	0.653490
N12	N	0.012426	-0.721173	0.542402
C13	C	0.168482	-0.466269	0.698103
C14	C	0.168494	-0.565177	0.698095
C15	C	0.193243	-0.540453	0.722807
C16	C	0.301113	-0.521853	0.665993
C17	C	0.368545	-0.544324	0.643486
C18	C	0.368579	-0.653434	0.685090
C19	C	0.301149	-0.630961	0.707599
C20	C	0.184722	-0.432539	0.631812
C21	C	0.162210	-0.365100	0.609357
C22	C	0.107225	-0.365129	0.719489
C23	C	0.129737	-0.432567	0.741943
C24	C	0.102194	-0.548896	0.714421
C25	C	0.079702	-0.571372	0.691949
C26	C	0.189805	-0.626409	0.636839
C27	C	0.212300	-0.603934	0.659303
C28	C	0.102289	-0.548918	0.830735
C29	C	0.079866	-0.571415	0.898171
C30	C	0.190015	-0.626466	0.898104
C31	C	0.212437	-0.603971	0.830666
C32	C	0.168573	-0.565195	0.796984
C33	C	0.267418	-0.565170	0.698047
C34	C	-0.130981	-0.765617	0.497386
C35	C	-0.032127	-0.765741	0.497606
C36	C	-0.056804	-0.790430	0.472789
C37	C	-0.075480	-0.898263	0.529507
C38	C	-0.053057	-0.965702	0.552014
C39	C	0.056052	-0.965829	0.510599
C40	C	0.033627	-0.898392	0.488091
C41	C	-0.164787	-0.781859	0.563659
C42	C	-0.232219	-0.759299	0.586018
C43	C	-0.232034	-0.704261	0.475827
C44	C	-0.164602	-0.726821	0.453469
C45	C	-0.048372	-0.699446	0.481299
C46	C	-0.025938	-0.677008	0.503867
C47	C	0.028987	-0.787155	0.559036
C48	C	0.006552	-0.809596	0.536475
C49	C	-0.048188	-0.699454	0.364860
C50	C	-0.025608	-0.677017	0.297425
C51	C	0.029406	-0.787170	0.297492
C52	C	0.006827	-0.809605	0.364929
C53	C	-0.031972	-0.765745	0.398611
C54	C	-0.032140	-0.864611	0.497548
N55	N	0.401319	-0.609788	0.653344
O56	O	0.621664	-0.620517	0.494685
O57	O	0.621901	-0.745740	0.664659
O58	O	0.621803	-0.745452	0.556857
O59	O	0.621762	-0.620805	0.602487
O60	O	0.514676	-0.709815	0.592658
O61	O	0.514774	-0.710104	0.700460
O62	O	0.514537	-0.584881	0.530485
Zn63	Zn	0.497647	-0.641834	0.621157
Zn64	Zn	0.638791	-0.688787	0.573988
O65	O	0.514635	-0.585169	0.638287
N66	N	0.735119	-0.720834	0.541794
N67	N	0.123794	-0.332357	0.653504
O68	O	-0.034774	-0.111885	0.642639
O69	O	0.135202	-0.111860	0.517412
O70	O	0.027364	-0.111888	0.517742
O71	O	0.073064	-0.111857	0.642310
O72	O	0.063120	-0.219026	0.553444
O73	O	0.170958	-0.218998	0.553115
O74	O	0.000983	-0.219022	0.678342
Zn75	Zn	0.091647	-0.236020	0.621397
Zn76	Zn	0.044537	-0.094862	0.574357
O77	O	0.108821	-0.218994	0.678013
N78	N	0.012383	0.001474	0.542251
N79	N	0.124036	-0.609854	0.930891
O80	O	0.113202	-0.768401	1.151342
O81	O	-0.011992	-0.598359	1.151385
O82	O	-0.011700	-0.706176	1.151343
O83	O	0.112910	-0.660584	1.151384
O84	O	0.023980	-0.670446	1.044212
O85	O	0.023689	-0.562630	1.044253
O86	O	0.148882	-0.732671	1.044211
Zn87	Zn	0.091951	-0.641977	1.027223
Zn88	Zn	0.044940	-0.689053	1.168373
O89	O	0.148590	-0.624854	1.044252
N90	N	0.012853	-0.721183	1.264704
C91	C	0.041135	-0.558973	0.518338
C92	C	0.174567	-0.692292	0.518215
C93	C	0.095103	-0.772007	0.677553
C94	C	-0.038330	-0.638687	0.677677
C95	C	0.568366	-0.745166	0.703974
C96	C	0.568246	-0.744810	0.570474
C97	C	0.568069	-0.585454	0.491172
C98	C	0.568192	-0.585812	0.624671
C99	C	0.174449	-0.165294	0.517975
C100	C	0.040949	-0.165460	0.518427
C101	C	-0.038309	-0.165456	0.677735
C102	C	0.095236	-0.165423	0.677328
C103	C	-0.011393	-0.559072	1.097824
C104	C	-0.011024	-0.692583	1.097752
C105	C	0.148283	-0.771958	1.097772
C106	C	0.147922	-0.638440	1.097820
H107	H	0.025889	-0.558152	0.925643
H108	H	0.223406	-0.701920	0.478955
H109	H	0.568264	-0.783967	0.560707
H110	H	-0.087123	-0.165464	0.717049
C111	C	-0.104406	-0.680673	0.785845
C112	C	-0.104262	-0.625702	0.730678
H113	H	-0.145111	-0.672656	0.818563
H114	H	-0.071644	-0.690856	0.800627
H115	H	-0.096570	-0.715785	0.775759
H116	H	-0.112093	-0.590590	0.740763
H117	H	-0.137034	-0.615511	0.715894
C118	C	0.082940	-0.492739	0.410192
C119	C	0.028032	-0.492992	0.465410
H120	H	0.074851	-0.452003	0.377519
H121	H	0.093134	-0.525476	0.395371
H122	H	0.118071	-0.500555	0.420238
H123	H	-0.007097	-0.485180	0.455365
H124	H	0.017830	-0.460245	0.480233
C125	C	0.171056	-0.877749	0.707356
C126	C	0.108204	-0.837990	0.730479
H127	H	0.179141	-0.918485	0.740029
H128	H	0.200791	-0.858409	0.695618
H129	H	0.175856	-0.883324	0.670743
H130	H	0.103405	-0.832412	0.767089
H131	H	0.078460	-0.857335	0.742226
H132	H	-0.050155	-0.702322	1.097697
H133	H	0.567992	-0.546139	0.442358
C134	C	0.034774	-0.110401	0.411600
C135	C	0.027734	-0.165475	0.465601
H136	H	0.026609	-0.110412	0.378993
H137	H	0.077419	-0.110397	0.395845
H138	H	0.005058	-0.073043	0.423341
H139	H	0.057454	-0.202833	0.453861
H140	H	-0.014918	-0.165485	0.481359
H141	H	0.105023	-0.165413	0.716462
H142	H	0.223163	-0.164989	0.478564
H143	H	-0.050697	-0.510236	1.097837
H144	H	0.187590	-0.820792	1.097751
H145	H	0.187070	-0.628684	1.097824
C146	C	0.568097	-0.477679	0.582978
C147	C	0.568179	-0.532950	0.637844
H148	H	0.568094	-0.445048	0.591110
H149	H	0.530717	-0.462820	0.572795
H150	H	0.605432	-0.487686	0.547821
H151	H	0.530841	-0.522944	0.673000
H152	H	0.605563	-0.547811	0.648035
H153	H	0.066565	-0.517338	0.803314
H154	H	0.266414	-0.617231	0.803190
C155	C	0.301147	-0.678608	0.891253
C156	C	0.238233	-0.669077	0.935122
H157	H	0.330915	-0.704918	0.914108
H158	H	0.307593	-0.638185	0.864956
H159	H	0.307603	-0.699195	0.864950
H160	H	0.231776	-0.648486	0.961423
H161	H	0.231785	-0.709508	0.961430
H162	H	0.066522	-0.517340	0.746005
H163	H	0.025716	-0.558101	0.705227
C164	C	0.568476	-0.775300	0.809760
C165	C	0.568456	-0.798240	0.769873
H166	H	0.568535	-0.808068	0.850442
H167	H	0.531099	-0.738715	0.815431
H168	H	0.605815	-0.763568	0.790462
H169	H	0.531114	-0.809967	0.789170
H170	H	0.605836	-0.834836	0.764205
H171	H	0.225479	-0.657972	0.605261
H172	H	0.273715	-0.666239	0.733700
C173	C	0.313021	-0.598912	0.574282
C174	C	0.285176	-0.621805	0.641354
H175	H	0.358011	-0.609944	0.563201
H176	H	0.294043	-0.553418	0.558805
H177	H	0.305903	-0.617859	0.555355
H178	H	0.292290	-0.602855	0.660281
H179	H	0.304161	-0.667308	0.656838
C180	C	0.361847	-0.759031	0.728469
C181	C	0.405662	-0.725754	0.695580
H182	H	0.384741	-0.803678	0.734948
H183	H	0.335520	-0.743213	0.703779
H184	H	0.335570	-0.752780	0.768992
H185	H	0.431936	-0.732002	0.655056
H186	H	0.432000	-0.741578	0.720270
H187	H	0.273654	-0.468282	0.658214
C188	C	0.361737	-0.434216	0.604615
C189	C	0.405585	-0.496710	0.608248
H190	H	0.384607	-0.404820	0.582856
H191	H	0.335463	-0.432499	0.646861
H192	H	0.335411	-0.422942	0.581653
H193	H	0.431908	-0.507986	0.631214
H194	H	0.431870	-0.498428	0.565995
H195	H	0.216267	-0.459978	0.596113
C196	C	0.001456	-0.910365	0.621428
C197	C	0.024409	-0.882465	0.554368
H198	H	0.012485	-0.955350	0.632465
H199	H	-0.044036	-0.891380	0.636861
H200	H	0.020361	-0.903296	0.640437
H201	H	0.005500	-0.889530	0.535360
H202	H	0.069910	-0.901457	0.538929
H203	H	0.175430	-0.337636	0.555374
H204	H	0.075686	-0.337687	0.755188
H205	H	-0.038823	-0.623033	0.269953
C206	C	0.073128	-0.425825	0.848554
C207	C	0.111890	-0.469649	0.814817
H208	H	0.062113	-0.448719	0.893542
H209	H	0.034985	-0.399528	0.837521
H210	H	0.096003	-0.399516	0.837486
H211	H	0.089013	-0.495956	0.825881
H212	H	0.150039	-0.495958	0.825855
H213	H	-0.039168	-0.623025	0.490592
H214	H	-0.079784	-0.663733	0.392281
H215	H	0.020039	-0.863588	0.392405
C216	C	0.081505	-0.898306	0.304342
C217	C	0.072044	-0.835383	0.260473
H218	H	0.107833	-0.928071	0.281487
H219	H	0.041067	-0.904724	0.330573
H220	H	0.102043	-0.904801	0.330712
H221	H	0.051502	-0.828887	0.234107
H222	H	0.112489	-0.828963	0.234232
H223	H	0.060486	-0.822870	0.590677
C224	C	0.143731	-0.905295	0.449422
C225	C	0.081271	-0.861400	0.452962
H226	H	0.173142	-0.882456	0.427737
H227	H	0.155035	-0.931600	0.426434
H228	H	0.145376	-0.931589	0.491698
H229	H	0.079624	-0.835108	0.410686
H230	H	0.069964	-0.835083	0.475950
H231	H	-0.079862	-0.663733	0.449648
H232	H	-0.088349	-0.993100	0.578027
C233	C	0.137458	-1.041733	0.559988
C234	C	0.128346	-1.002964	0.500210
H235	H	0.182089	-1.064654	0.553571
H236	H	0.114859	-1.071425	0.582236
H237	H	0.121613	-1.015409	0.584693
H238	H	0.144187	-1.029289	0.475507
H239	H	0.150953	-0.973269	0.477952
H240	H	-0.137414	-0.813456	0.599420
C241	C	-0.181070	-0.904918	0.572669
C242	C	-0.147769	-0.861134	0.539876
H243	H	-0.225697	-0.881994	0.579059
H244	H	-0.174901	-0.931205	0.613225
H245	H	-0.165202	-0.931243	0.547958
H246	H	-0.163633	-0.834813	0.564590
H247	H	-0.153942	-0.834836	0.499313
H248	H	-0.259745	-0.772522	0.639985
H249	H	-0.259410	-0.672678	0.440065
H250	H	-0.137077	-0.713589	0.399501
