data_functionalizedCrystal
_audit_creation_method	'MofGen! by Chris Wilmer'
_symmetry_space_group_name_H-M	'P1'
_symmetry_Int_Tables_number	1
_symmetry_cell_setting	triclinic
loop_
_symmetry_equiv_pos_as_xyz
  x,y,z
_cell_length_a	10.685904
_cell_length_b	10.685594
_cell_length_c	18.215399
_cell_angle_alpha	85.650869
_cell_angle_beta	94.394219
_cell_angle_gamma	99.063657
loop_
_atom_site_label
_atom_site_type_symbol
_atom_site_fract_x
_atom_site_fract_y
_atom_site_fract_z
Zn1	Zn	1.901912	-0.356640	0.517221
Zn2	Zn	1.885526	-0.568918	0.402922
Zn3	Zn	1.689640	-0.372945	0.385395
Zn4	Zn	1.673362	-0.585103	0.517173
O5	O	1.787610	-0.470902	0.455678
O6	O	2.077366	-0.371202	0.509414
O7	O	1.859496	-0.542972	0.297613
O8	O	1.731468	-0.193154	0.395568
O9	O	2.065328	-0.527162	0.425439
O10	O	1.887423	-0.181175	0.492419
O11	O	1.715580	-0.398991	0.284736
O12	O	1.509853	-0.414686	0.395521
O13	O	1.703725	-0.554747	0.620163
O14	O	1.497893	-0.570557	0.492337
O15	O	1.871639	-0.386896	0.620199
O16	O	1.843712	-0.748693	0.425392
O17	O	1.687836	-0.760584	0.509332
C18	C	1.457816	-0.496148	0.442022
C19	C	1.316726	-0.506979	0.436199
C20	C	1.762264	-0.800693	0.469276
C21	C	1.751537	-0.941770	0.475123
C22	C	2.118692	-0.445557	0.469387
C23	C	2.259779	-0.434757	0.475229
C24	C	1.787694	-0.470808	0.647630
C25	C	1.787730	-0.470768	0.729429
C26	C	1.813089	-0.139820	0.442044
C27	C	1.823947	0.001268	0.436234
C28	C	1.787606	-0.470897	0.264471
C29	C	1.787844	-0.470561	0.182668
C30	C	1.875198	-0.383290	0.917641
C31	C	1.875216	-0.383252	0.994499
C32	C	1.700366	-0.558043	0.994451
C33	C	1.700344	-0.558075	0.917594
C34	C	1.787766	-0.470699	0.879191
C35	C	1.787807	-0.470630	1.032906
C36	C	1.787826	-0.470589	1.116239
C37	C	1.787746	-0.470738	0.795853
H38	H	1.894153	-0.939572	0.398469
Br39	Br	1.634532	-1.040375	0.538083
Br40	Br	1.993840	-0.264708	0.865525
H41	H	1.629192	-0.629184	1.025728
Br42	Br	1.358423	-0.317873	0.538345
Br43	Br	1.993887	-0.264628	1.046678
H44	H	1.257543	-0.577091	0.398329
Br45	Br	1.581667	-0.676700	0.865406
