data_functionalizedCrystal
_audit_creation_method	'MofGen! by Chris Wilmer'
_symmetry_space_group_name_H-M	'P1'
_symmetry_Int_Tables_number	1
_symmetry_cell_setting	triclinic
loop_
_symmetry_equiv_pos_as_xyz
  x,y,z
_cell_length_a	19.188933
_cell_length_b	18.266242
_cell_length_c	10.723024
_cell_angle_alpha	89.996087
_cell_angle_beta	96.193281
_cell_angle_gamma	90.007525
loop_
_atom_site_label
_atom_site_type_symbol
_atom_site_fract_x
_atom_site_fract_y
_atom_site_fract_z
O1	O	0.927161	0.060855	-0.155792
O2	O	0.723986	0.060861	-0.176761
O3	O	0.830260	0.060855	0.015397
O4	O	0.820887	0.060861	-0.347950
O5	O	0.830242	-0.060907	0.015402
O6	O	0.723968	-0.060901	-0.176755
O7	O	0.927143	-0.060907	-0.155787
Zn8	Zn	0.825552	-0.080236	-0.166270
Zn9	Zn	0.825576	0.080190	-0.166277
O10	O	0.820869	-0.060901	-0.347945
C11	C	0.697961	-0.000019	-0.176079
C12	C	0.620444	-0.000016	-0.174039
N13	N	0.825541	-0.189723	-0.166265
C14	C	0.067104	0.066348	-0.159485
C15	C	0.139940	0.066351	-0.161394
C16	C	0.176354	-0.000021	-0.162352
C17	C	0.139926	-0.066401	-0.161368
C18	C	0.067092	-0.066402	-0.159446
N19	N	0.285847	-0.049424	-0.236370
N20	N	0.355037	-0.049419	-0.238198
C21	C	0.395800	-0.000022	-0.168138
N22	N	0.364759	0.049379	-0.096197
N23	N	0.295562	0.049376	-0.094374
C24	C	0.255330	-0.000028	-0.164434
C25	C	0.511197	0.066356	-0.171183
C26	C	0.584035	0.066357	-0.173084
C27	C	0.584019	-0.066398	-0.173070
C28	C	0.511183	-0.066396	-0.171156
C29	C	0.474776	-0.000017	-0.170219
C30	C	0.868241	-0.228026	-0.241764
C31	C	0.868252	-0.304671	-0.241761
C32	C	0.825551	-0.343010	-0.166272
C33	C	0.782849	-0.304698	-0.090758
C34	C	0.782843	-0.228055	-0.090754
N35	N	0.764383	-0.463361	-0.163198
N36	N	0.764390	-0.536169	-0.163208
C37	C	0.825565	-0.573933	-0.166277
N38	N	0.886734	-0.536138	-0.169359
N39	N	0.886726	-0.463323	-0.169355
C40	C	0.825552	-0.426117	-0.166267
C41	C	0.868281	-0.695343	-0.241776
C42	C	0.868294	-0.771989	-0.241764
C43	C	0.782884	-0.772014	-0.090768
C44	C	0.782877	-0.695369	-0.090773
C45	C	0.825575	-0.657038	-0.166284
C46	C	0.953167	-0.000025	-0.156469
C47	C	1.030685	-0.000023	-0.158509
C48	C	0.829569	-0.000025	0.061885
C49	C	0.827528	-0.000022	0.200397
N50	N	0.825593	0.189677	-0.166273
C51	C	0.821560	-0.000019	-0.394433
C52	C	0.823601	-0.000017	-0.532945
C53	C	0.886993	-0.000023	0.276613
C54	C	0.884885	-0.000020	0.419773
H55	H	0.169598	0.120400	-0.162196
H56	H	0.481530	-0.120443	-0.170366
C57	C	0.179977	-0.139412	-0.162423
C58	C	0.260092	-0.139415	-0.164546
C59	C	0.300142	-0.212428	-0.165594
C60	C	0.260078	-0.285439	-0.164521
C61	C	0.179959	-0.285439	-0.162399
C62	C	0.139909	-0.212426	-0.161350
H63	H	0.289754	-0.085365	-0.165340
H64	H	0.359451	-0.212428	-0.167165
H65	H	0.289725	-0.339488	-0.165297
H66	H	0.150297	-0.339489	-0.161604
H67	H	0.080599	-0.212426	-0.159779
C68	C	0.915212	-0.346816	-0.324837
C69	C	0.915208	-0.431121	-0.324854
C70	C	0.962162	-0.473264	-0.407940
C71	C	1.009120	-0.431102	-0.491009
C72	C	1.009125	-0.346792	-0.490995
C73	C	0.962171	-0.304649	-0.407909
H74	H	0.880445	-0.462336	-0.263359
H75	H	0.962157	-0.535675	-0.407950
H76	H	1.043878	-0.462298	-0.552514
H77	H	1.043888	-0.315577	-0.552490
H78	H	0.962176	-0.242238	-0.407900
C79	C	0.735874	-0.346869	-0.007726
C80	C	0.768968	-0.399564	0.094055
C81	C	0.721993	-0.441735	0.177093
C82	C	0.641925	-0.431210	0.158350
C83	C	0.608827	-0.378511	0.056565
C84	C	0.655802	-0.336341	-0.026473
H85	H	0.828242	-0.407358	0.107933
H86	H	0.746495	-0.480746	0.252441
H87	H	0.607152	-0.462427	0.219820
H88	H	0.549552	-0.370718	0.042687
H89	H	0.631300	-0.297330	-0.101820
C90	C	0.471143	0.139369	-0.170130
C91	C	0.488569	0.194123	-0.062064
C92	C	0.448517	0.267135	-0.061008
C93	C	0.391038	0.285393	-0.168017
C94	C	0.373609	0.230637	-0.276091
C95	C	0.413661	0.157625	-0.277147
H96	H	0.531121	0.180609	0.017158
H97	H	0.461419	0.307669	0.018996
H98	H	0.361389	0.339441	-0.167235
H99	H	0.331057	0.244152	-0.355313
H100	H	0.400758	0.117092	-0.357151
C101	C	0.915271	-0.814121	-0.324818
C102	C	0.995337	-0.803555	-0.306085
C103	C	1.042317	-0.845685	-0.389140
C104	C	1.009231	-0.898381	-0.490928
C105	C	0.929161	-0.908950	-0.509666
C106	C	0.882181	-0.866819	-0.426610
H107	H	1.019833	-0.764544	-0.230731
H108	H	1.101590	-0.837862	-0.375269
H109	H	1.044008	-0.929569	-0.552411
H110	H	0.904665	-0.947961	-0.585019
H111	H	0.822908	-0.874643	-0.440481
C112	C	0.735866	-0.185916	-0.007708
C113	C	0.688896	-0.228081	0.075335
C114	C	0.641916	-0.185942	0.158378
C115	C	0.641906	-0.101637	0.158378
C116	C	0.688878	-0.059467	0.075331
C117	C	0.735858	-0.101607	-0.007712
H118	H	0.688902	-0.290493	0.075338
H119	H	0.607145	-0.217159	0.219854
H120	H	0.607129	-0.070443	0.219851
H121	H	0.688872	0.002945	0.075328
H122	H	0.770629	-0.070390	-0.069188
C123	C	0.915254	-0.653170	-0.324817
C124	C	0.995323	-0.663686	-0.306062
C125	C	1.042297	-0.621516	-0.389101
C126	C	1.009202	-0.568829	-0.490894
C127	C	0.929128	-0.558310	-0.509653
C128	C	0.882155	-0.600481	-0.426615
H129	H	1.019826	-0.702691	-0.230705
H130	H	1.101572	-0.629302	-0.375213
H131	H	1.043975	-0.537611	-0.552364
H132	H	0.904626	-0.519306	-0.585011
H133	H	0.822879	-0.592694	-0.440503
C134	C	0.756638	-0.000019	0.255410
C135	C	0.737902	-0.063244	0.340760
C136	C	0.667010	-0.063240	0.395770
C137	C	0.614855	-0.000011	0.365429
C138	C	0.633590	0.063219	0.280074
C139	C	0.704482	0.063215	0.225065
H140	H	0.776512	-0.110054	0.363224
H141	H	0.653141	-0.110048	0.458955
H142	H	0.562376	-0.000008	0.406150
H143	H	0.594980	0.110029	0.257610
H144	H	0.718351	0.110023	0.161880
C145	C	0.915212	-0.185865	-0.324818
C146	C	0.995280	-0.196392	-0.306081
C147	C	1.042252	-0.154230	-0.389134
C148	C	1.009156	-0.101543	-0.490926
C149	C	0.929084	-0.091014	-0.509668
C150	C	0.882112	-0.133176	-0.426614
H151	H	1.019783	-0.235396	-0.230724
H152	H	1.101527	-0.162025	-0.375260
H153	H	1.043928	-0.070332	-0.552408
H154	H	0.904581	-0.052010	-0.585024
H155	H	0.822837	-0.125381	-0.440489
H156	H	0.037466	0.120399	-0.158717
H157	H	0.037440	-0.120451	-0.158656
C158	C	0.624097	0.139372	-0.174155
C159	C	0.621492	0.194137	-0.065582
C160	C	0.661554	0.267154	-0.066653
C161	C	0.704221	0.285405	-0.176298
C162	C	0.706828	0.230639	-0.284880
C163	C	0.666766	0.157622	-0.283809
H164	H	0.589905	0.180627	0.015591
H165	H	0.659623	0.307695	0.013727
H166	H	0.733877	0.339457	-0.177092
H167	H	0.738415	0.244148	-0.366053
H168	H	0.668697	0.117080	-0.364188
H169	H	0.939464	-0.000029	0.235880
H170	H	0.748117	-0.803229	-0.029302
H171	H	0.772691	-0.000021	0.401574
H172	H	0.613666	-0.120439	-0.173845
H173	H	0.748104	-0.664183	-0.029299
H174	H	0.935792	-0.000025	0.485261
