data_functionalizedCrystal
_audit_creation_method	'MofGen! by Chris Wilmer'
_symmetry_space_group_name_H-M	'P1'
_symmetry_Int_Tables_number	1
_symmetry_cell_setting	triclinic
loop_
_symmetry_equiv_pos_as_xyz
  x,y,z
_cell_length_a	11.169417
_cell_length_b	16.625546
_cell_length_c	16.625539
_cell_angle_alpha	89.969603
_cell_angle_beta	89.982760
_cell_angle_gamma	90.023347
loop_
_atom_site_label
_atom_site_type_symbol
_atom_site_fract_x
_atom_site_fract_y
_atom_site_fract_z
Zn1	Zn	1.834831	-0.320981	-0.455826
Zn2	Zn	2.168164	0.012352	-0.122493
Zn3	Zn	2.501497	0.345685	0.210841
Zn4	Zn	1.834686	-0.455824	-0.320988
Zn5	Zn	2.168020	-0.122491	0.012345
Zn6	Zn	2.501353	0.210842	0.345678
Zn7	Zn	1.634125	-0.321012	-0.321014
Zn8	Zn	1.967459	0.012322	0.012319
Zn9	Zn	2.300792	0.345655	0.345652
Zn10	Zn	1.634081	-0.455778	-0.455786
Zn11	Zn	1.967415	-0.122444	-0.122453
Zn12	Zn	2.300748	0.210889	0.210881
O13	O	1.734431	-0.388399	-0.388404
O14	O	2.067764	-0.055065	-0.055070
O15	O	2.401098	0.278268	0.278263
O16	O	2.002761	-0.338875	-0.437945
O17	O	2.336094	-0.005542	-0.104612
O18	O	2.669428	0.327791	0.228721
O19	O	1.808040	-0.437973	-0.208159
O20	O	2.141373	-0.104640	0.125174
O21	O	2.474706	0.228693	0.458507
O22	O	1.660828	-0.208175	-0.338925
O23	O	1.994161	0.125158	-0.005592
O24	O	2.327495	0.458492	0.327742
O25	O	2.002655	-0.437944	-0.338881
O26	O	2.335989	-0.104611	-0.005547
O27	O	2.669322	0.228723	0.327786
O28	O	1.808285	-0.208153	-0.437971
O29	O	2.141619	0.125180	-0.104637
O30	O	2.474952	0.458514	0.228696
O31	O	1.660688	-0.338927	-0.208178
O32	O	1.994022	-0.005594	0.125155
O33	O	2.327355	0.327740	0.458488
O34	O	1.466170	-0.338882	-0.338886
O35	O	1.799503	-0.005548	-0.005553
O36	O	2.132837	0.327785	0.327780
O37	O	1.660753	-0.437864	-0.568624
O38	O	1.994086	-0.104531	-0.235290
O39	O	2.327420	0.228802	0.098043
O40	O	1.466138	-0.437894	-0.437902
O41	O	1.799471	-0.104560	-0.104569
O42	O	2.132804	0.228773	0.228764
O43	O	1.808243	-0.338830	-0.568653
O44	O	2.141576	-0.005497	-0.235320
O45	O	2.474909	0.327837	0.098013
O46	O	1.807997	-0.568651	-0.338842
O47	O	2.141330	-0.235317	-0.005509
O48	O	2.474664	0.098016	0.327825
O49	O	1.660613	-0.568616	-0.437877
O50	O	1.993947	-0.235283	-0.104544
O51	O	2.327280	0.098050	0.228789
C52	C	1.422606	-0.388387	-0.388393
C53	C	1.755940	-0.055053	-0.055060
C54	C	2.089273	0.278280	0.278273
C55	C	1.289206	-0.388401	-0.388408
C56	C	1.622540	-0.055067	-0.055075
C57	C	1.955873	0.278266	0.278259
C58	C	1.734317	-0.597890	-0.388370
C59	C	2.067651	-0.264556	-0.055037
C60	C	2.400984	0.068777	0.278297
C61	C	1.734379	-0.687511	-0.388382
C62	C	2.067712	-0.354177	-0.055049
C63	C	2.401045	-0.020844	0.278284
C64	C	1.734588	-1.015686	-0.388466
C65	C	2.067921	-0.682353	-0.055133
C66	C	2.401255	-0.349020	0.278200
C67	C	1.734526	-0.924378	-0.388445
C68	C	2.067859	-0.591045	-0.055112
C69	C	2.401193	-0.257711	0.278221
C70	C	1.734482	-0.851601	-0.388424
C71	C	2.067816	-0.518268	-0.055091
C72	C	2.401149	-0.184935	0.278243
C73	C	1.734422	-0.760287	-0.388404
C74	C	2.067755	-0.426954	-0.055070
C75	C	2.401089	-0.093620	0.278263
C76	C	2.047473	-0.388412	-0.388415
C77	C	2.380807	-0.055078	-0.055081
C78	C	2.714140	0.278255	0.278252
C79	C	2.180873	-0.388417	-0.388419
C80	C	2.514207	-0.055084	-0.055086
C81	C	2.847540	0.278250	0.278247
C82	C	1.734509	-0.388339	-0.598713
C83	C	2.067842	-0.055005	-0.265379
C84	C	2.401176	0.278328	0.067954
C85	C	1.734542	-0.388313	-0.688334
C86	C	2.067876	-0.054980	-0.355001
C87	C	2.401209	0.278354	-0.021667
C88	C	1.734578	-0.178090	-0.388455
C89	C	2.067911	0.155244	-0.055122
C90	C	2.401244	0.488577	0.278211
C91	C	1.734640	-0.088469	-0.388477
C92	C	2.067974	0.244865	-0.055144
C93	C	2.401307	0.578198	0.278189
C94	C	1.734598	-0.388223	-1.016510
C95	C	2.067931	-0.054889	-0.683176
C96	C	2.401264	0.278444	-0.349843
C97	C	1.734579	-0.388250	-0.925201
C98	C	2.067912	-0.054917	-0.591868
C99	C	2.401246	0.278416	-0.258535
C100	C	1.734571	-0.388269	-0.852425
C101	C	2.067904	-0.054935	-0.519091
C102	C	2.401237	0.278398	-0.185758
C103	C	1.734551	-0.388295	-0.761110
C104	C	2.067884	-0.054962	-0.427777
C105	C	2.401217	0.278372	-0.094444
C106	C	1.734422	-0.388400	-0.178913
C107	C	2.067756	-0.055067	0.154420
C108	C	2.401089	0.278266	0.487754
C109	C	1.734622	-0.388199	-0.089292
C110	C	2.067955	-0.054866	0.244041
C111	C	2.401288	0.278468	0.577374
