data_functionalizedCrystal
_audit_creation_method	'MofGen! by Chris Wilmer'
_symmetry_space_group_name_H-M	'P1'
_symmetry_Int_Tables_number	1
_symmetry_cell_setting	triclinic
loop_
_symmetry_equiv_pos_as_xyz
  x,y,z
_cell_length_a	13.032831
_cell_length_b	12.759400
_cell_length_c	13.034356
_cell_angle_alpha	82.790458
_cell_angle_beta	74.815040
_cell_angle_gamma	82.819639
loop_
_atom_site_label
_atom_site_type_symbol
_atom_site_fract_x
_atom_site_fract_y
_atom_site_fract_z
Zn1	Zn	1.700222	-0.532622	-0.806466
Zn2	Zn	1.677548	-0.728121	-0.628845
Zn3	Zn	1.500027	-0.532631	-0.606349
Zn4	Zn	1.522575	-0.688428	-0.783896
O5	O	1.600093	-0.620451	-0.706389
O6	O	1.845853	-0.575164	-0.801765
O7	O	1.635073	-0.718804	-0.477222
O8	O	1.526636	-0.385612	-0.632926
O9	O	1.829194	-0.718796	-0.671268
O10	O	1.673718	-0.385605	-0.779951
O11	O	1.504649	-0.575179	-0.460694
O12	O	1.354379	-0.536690	-0.611041
O13	O	1.565067	-0.651144	-0.935530
O14	O	1.370945	-0.651153	-0.741484
O15	O	1.695583	-0.536675	-0.952112
O16	O	1.656938	-0.869874	-0.649383
O17	O	1.543080	-0.840711	-0.763298
C18	C	1.324122	-0.589616	-0.671373
C19	C	1.206063	-0.576447	-0.656418
C20	C	1.161641	-0.627324	-0.714194
C21	C	1.039622	-0.613714	-0.698739
C22	C	1.600027	-0.893413	-0.706359
C23	C	1.600101	-1.010195	-0.706394
C24	C	1.659471	-1.080207	-0.647163
C25	C	1.659540	-1.189935	-0.647204
C26	C	1.540860	-1.159627	-0.765709
C27	C	1.540797	-1.049902	-0.765673
C28	C	1.718774	-1.040500	-0.587884
C29	C	1.778149	-1.110514	-0.528647
C30	C	1.778218	-1.220241	-0.528688
C31	C	1.718913	-1.259955	-0.587966
C32	C	1.877142	-0.651406	-0.741543
C33	C	1.995203	-0.664598	-0.756524
C34	C	1.635369	-0.589481	-0.983439
C35	C	1.650402	-0.576283	-1.101501
C36	C	1.600191	-0.346422	-0.706446
C37	C	1.600233	-0.229648	-0.706471
C38	C	1.608061	-0.613403	-1.267955
C39	C	1.592521	-0.627043	-1.145932
C40	C	1.565015	-0.651231	-0.430425
C41	C	1.550188	-0.664155	-0.312390
H42	H	1.047502	-0.718227	-0.817441
H43	H	1.826572	-1.277244	-0.480463
H44	H	1.492454	-0.992896	-0.813906
H45	H	1.669116	-0.559858	-1.320251
H46	H	1.153761	-0.522810	-0.595515
C47	C	1.842426	-1.067193	-0.464320
C48	C	1.829638	-0.956115	-0.476936
C49	C	1.888825	-0.916175	-0.417682
H50	H	1.915814	-1.091218	-0.488919
H51	H	1.817845	-1.091412	-0.390957
H52	H	1.854224	-0.931906	-0.550283
H53	H	1.756263	-0.932061	-0.452330
H54	H	1.864244	-0.940394	-0.344319
H55	H	1.962209	-0.940207	-0.442287
H56	H	1.880148	-0.840805	-0.426226
C57	C	1.511254	-0.698641	-1.076285
C58	C	1.537770	-0.802191	-1.106089
C59	C	1.462945	-0.868179	-1.041944
H60	H	1.442136	-0.673426	-1.085303
H61	H	1.511643	-0.698392	-1.003530
H62	H	1.537370	-0.802437	-1.178826
H63	H	1.606874	-0.827438	-1.097067
H64	H	1.463333	-0.867930	-0.969189
H65	H	1.393832	-0.842954	-1.050967
H66	H	1.480930	-0.938447	-1.062150
C67	C	0.969829	-0.542387	-0.617368
C68	C	0.897468	-0.602352	-0.541159
C69	C	0.833169	-0.536691	-0.466173
H70	H	0.931645	-0.487308	-0.652491
H71	H	1.013486	-0.512262	-0.583057
H72	H	0.853816	-0.632461	-0.575466
H73	H	0.935622	-0.657429	-0.506010
H74	H	0.876827	-0.506565	-0.431862
H75	H	0.794994	-0.481615	-0.501305
H76	H	0.784072	-0.577369	-0.414451
C77	C	1.731715	-0.504870	-1.171390
C78	C	1.730934	-0.505501	-1.278521
C79	C	1.805809	-0.439714	-1.342931
H80	H	1.800847	-0.530146	-1.162450
H81	H	1.713888	-0.434527	-1.151359
H82	H	1.748767	-0.575829	-1.298546
H83	H	1.661820	-0.480215	-1.287494
H84	H	1.787983	-0.369371	-1.322900
H85	H	1.874936	-0.464996	-1.333982
H86	H	1.805283	-0.440125	-1.415625
C87	C	1.468925	-0.735750	-1.242740
C88	C	1.495441	-0.839300	-1.272544
C89	C	1.420616	-0.905288	-1.208398
H90	H	1.399808	-0.710534	-1.251758
H91	H	1.469314	-0.735500	-1.169985
H92	H	1.495041	-0.839545	-1.345281
H93	H	1.564546	-0.864547	-1.263522
H94	H	1.421005	-0.905038	-1.135644
H95	H	1.351503	-0.880063	-1.217421
H96	H	1.438602	-0.975555	-1.228605
H97	H	1.213945	-0.680952	-0.775105
C98	C	1.719219	-1.379114	-0.588052
C99	C	1.823810	-1.423576	-0.628049
C100	C	1.824133	-1.533340	-0.628128
H101	H	1.675475	-1.392881	-0.631839
H102	H	1.692249	-1.409649	-0.517174
H103	H	1.850767	-1.393051	-0.698915
H104	H	1.867573	-1.409839	-0.584274
H105	H	1.797162	-1.563875	-0.557251
H106	H	1.780384	-1.547097	-0.671915
H107	H	1.895097	-1.563523	-0.655256
C108	C	1.476494	-1.202950	-0.829945
C109	C	1.489233	-1.314029	-0.817275
C110	C	1.429939	-1.353972	-0.876419
H111	H	1.500996	-1.178794	-0.903320
H112	H	1.403117	-1.178866	-0.805268
H113	H	1.562593	-1.338103	-0.841957
H114	H	1.464724	-1.338214	-0.743913
H115	H	1.356563	-1.329888	-0.851743
H116	H	1.454446	-1.329808	-0.949791
H117	H	1.438566	-1.429342	-0.867823
H118	H	1.718721	-0.951156	-0.587840
