data_functionalizedCrystal
_audit_creation_method	'MofGen! by Chris Wilmer'
_symmetry_space_group_name_H-M	'P1'
_symmetry_Int_Tables_number	1
_symmetry_cell_setting	triclinic
loop_
_symmetry_equiv_pos_as_xyz
  x,y,z
_cell_length_a	14.044191
_cell_length_b	8.140239
_cell_length_c	9.065218
_cell_angle_alpha	89.998314
_cell_angle_beta	89.103831
_cell_angle_gamma	89.999659
loop_
_atom_site_label
_atom_site_type_symbol
_atom_site_fract_x
_atom_site_fract_y
_atom_site_fract_z
O1	O	1.260764	-0.136521	0.356124
O2	O	1.594097	0.196812	0.689457
O3	O	1.927430	0.530146	1.022790
O4	O	0.984684	-0.136542	0.343264
O5	O	1.318017	0.196791	0.676597
O6	O	1.651350	0.530124	1.009930
O7	O	1.128430	-0.136528	0.135684
O8	O	1.461763	0.196805	0.469017
O9	O	1.795097	0.530139	0.802351
O10	O	1.117017	-0.136536	0.563704
O11	O	1.450350	0.196798	0.897037
O12	O	1.783684	0.530131	1.230370
O13	O	1.128422	0.136699	0.135680
O14	O	1.461755	0.470032	0.469014
O15	O	1.795089	0.803366	0.802347
O16	O	0.984676	0.136685	0.343260
O17	O	1.318009	0.470018	0.676593
O18	O	1.651342	0.803351	1.009927
O19	O	1.260756	0.136706	0.356120
O20	O	1.594089	0.470039	0.689453
O21	O	1.927422	0.803373	1.022787
Zn22	Zn	1.122714	0.180076	0.349690
Zn23	Zn	1.456048	0.513409	0.683023
Zn24	Zn	1.789381	0.846743	1.016356
Zn25	Zn	1.122725	-0.179912	0.349694
Zn26	Zn	1.456058	0.153421	0.683028
Zn27	Zn	1.789391	0.486754	1.016361
O28	O	1.117009	0.136692	0.563700
O29	O	1.450342	0.470025	0.897033
O30	O	1.783676	0.803358	1.230367
C31	C	0.949317	0.000068	0.337636
C32	C	1.282650	0.333402	0.670969
C33	C	1.615983	0.666735	1.004303
C34	C	0.843947	0.000060	0.320855
C35	C	1.177280	0.333393	0.654188
C36	C	1.510613	0.666727	0.987522
C37	C	0.594419	0.000075	0.409191
C38	C	0.927752	0.333408	0.742524
C39	C	1.261085	0.666742	1.075858
C40	C	0.651026	0.000074	0.290199
C41	C	0.984359	0.333408	0.623533
C42	C	1.317693	0.666741	0.956866
C43	C	0.758377	0.000066	0.307260
C44	C	1.091710	0.333400	0.640594
C45	C	1.425044	0.666733	0.973927
C46	C	0.487058	0.000083	0.392132
C47	C	0.820391	0.333416	0.725466
C48	C	1.153724	0.666749	1.058799
C49	C	1.127329	0.000083	0.080574
C50	C	1.460663	0.333416	0.413907
C51	C	1.793996	0.666750	0.747241
C52	C	1.124050	0.000075	-0.083633
C53	C	1.457383	0.333408	0.249701
C54	C	1.790716	0.666741	0.583034
C55	C	1.296122	0.000092	0.361748
C56	C	1.629456	0.333425	0.695081
C57	C	1.962789	0.666758	1.028414
C58	C	1.401492	0.000089	0.378529
C59	C	1.734826	0.333422	0.711862
C60	C	2.068159	0.666756	1.045196
N61	N	1.122714	0.425759	0.349686
N62	N	1.456047	0.759092	0.683020
N63	N	1.789381	1.092425	1.016353
N64	N	1.122733	-0.425595	0.349687
N65	N	1.456066	-0.092262	0.683020
N66	N	1.789399	0.241072	1.016353
C67	C	1.118110	0.000077	0.618810
C68	C	1.451443	0.333410	0.952143
C69	C	1.784777	0.666744	1.285477
C70	C	1.121390	0.000074	0.783016
C71	C	1.454723	0.333408	1.116350
C72	C	1.788056	0.666741	1.449683
H73	H	0.618866	-0.000039	0.175514
H74	H	0.952199	0.333294	0.508847
H75	H	1.285533	0.666627	0.842181
H76	H	0.626577	0.000068	0.523867
H77	H	0.959910	0.333401	0.857201
H78	H	1.293243	0.666735	1.190534
