data_functionalizedCrystal
_audit_creation_method	'MofGen! by Chris Wilmer'
_symmetry_space_group_name_H-M	'P1'
_symmetry_Int_Tables_number	1
_symmetry_cell_setting	triclinic
loop_
_symmetry_equiv_pos_as_xyz
  x,y,z
_cell_length_a	12.827893
_cell_length_b	14.908520
_cell_length_c	12.827885
_cell_angle_alpha	93.263527
_cell_angle_beta	89.980538
_cell_angle_gamma	93.320575
loop_
_atom_site_label
_atom_site_type_symbol
_atom_site_fract_x
_atom_site_fract_y
_atom_site_fract_z
Zn1	Zn	1.573617	-0.359115	-0.614817
Zn2	Zn	2.073617	0.140885	-0.114817
Zn3	Zn	1.563403	-0.509998	-0.450147
Zn4	Zn	2.063403	-0.009998	0.049853
Zn5	Zn	1.398854	-0.359159	-0.440093
Zn6	Zn	1.898854	0.140841	0.059907
Zn7	Zn	1.388741	-0.509931	-0.624843
Zn8	Zn	1.888741	-0.009931	-0.124843
O9	O	1.481154	-0.434551	-0.532475
O10	O	1.981154	0.065449	-0.032475
O11	O	1.718497	-0.379139	-0.592984
O12	O	2.218497	0.120861	-0.092984
O13	O	1.541534	-0.490036	-0.302580
O14	O	2.041534	0.009964	0.197420
O15	O	1.430544	-0.232908	-0.454867
O16	O	1.930544	0.267092	0.045133
O17	O	1.710994	-0.489993	-0.472002
O18	O	2.210994	0.010007	0.027998
O19	O	1.558941	-0.232876	-0.583236
O20	O	2.058941	0.267124	-0.083236
O21	O	1.420640	-0.379214	-0.295194
O22	O	1.920640	0.120786	0.204806
O23	O	1.251278	-0.379149	-0.464589
O24	O	1.751278	0.120851	0.035411
O25	O	1.413307	-0.489879	-0.769746
O26	O	1.913307	0.010121	-0.269746
O27	O	1.243847	-0.489921	-0.600323
O28	O	1.743847	0.010079	-0.100323
O29	O	1.549134	-0.379074	-0.762380
O30	O	2.049134	0.120926	-0.262380
O31	O	1.531727	-0.636234	-0.481724
O32	O	2.031727	-0.136234	0.018276
O33	O	1.403403	-0.636184	-0.610072
O34	O	1.903403	-0.136184	-0.110072
C35	C	1.209645	-0.434533	-0.532454
C36	C	1.709645	0.065467	-0.032454
C37	C	1.093491	-0.434548	-0.532471
C38	C	1.593491	0.065452	-0.032471
C39	C	1.038051	-0.489447	-0.599545
C40	C	1.538051	0.010553	-0.099545
C41	C	0.918000	-0.489463	-0.599564
C42	C	1.418000	0.010537	-0.099564
C43	C	1.465388	-0.668943	-0.548100
C44	C	1.965388	-0.168943	-0.048100
C45	C	1.458739	-0.769217	-0.554820
C46	C	1.958739	-0.269217	-0.054820
C47	C	1.580005	-0.957632	-0.433905
C48	C	2.080005	-0.457632	0.066095
C49	C	1.573761	-1.051849	-0.440215
C50	C	2.073761	-0.551849	0.059785
C51	C	1.440013	-1.051867	-0.573755
C52	C	1.940013	-0.551867	-0.073755
C53	C	1.446257	-0.957651	-0.567444
C54	C	1.946257	-0.457651	-0.067444
C55	C	1.516254	-0.910537	-0.497516
C56	C	2.016254	-0.410537	0.002484
C57	C	1.522492	-0.816319	-0.491201
C58	C	2.022492	-0.316319	0.008799
C59	C	1.388750	-0.816339	-0.624745
C60	C	1.888750	-0.316339	-0.124745
C61	C	1.382506	-0.910555	-0.631056
C62	C	1.882506	-0.410555	-0.131056
C63	C	1.753723	-0.434569	-0.532497
C64	C	2.253723	0.065431	-0.032497
C65	C	1.869875	-0.434576	-0.532506
C66	C	2.369875	0.065424	-0.032506
C67	C	1.481232	-0.434464	-0.805039
C68	C	1.981232	0.065536	-0.305039
C69	C	1.481265	-0.434427	-0.921190
C70	C	1.981265	0.065573	-0.421190
C71	C	1.497010	-0.199243	-0.516811
C72	C	1.997010	0.300757	-0.016811
C73	C	1.503767	-0.098969	-0.510137
C74	C	2.003767	0.401031	-0.010137
C75	C	1.421464	-0.379578	-0.969319
C76	C	1.921464	0.120422	-0.469319
C77	C	1.421497	-0.379539	-1.089367
C78	C	1.921497	0.120461	-0.589367
C79	C	1.481141	-0.434572	-0.260966
C80	C	1.981141	0.065428	0.239034
C81	C	1.481327	-0.434355	-0.144799
C82	C	1.981327	0.065645	0.355201
H83	H	0.917531	-0.387576	-0.475075
H84	H	1.417531	0.112424	0.024925
H85	H	1.052078	-0.387555	-0.475065
H86	H	1.552078	0.112445	0.024935
H87	H	1.325519	-0.948929	-0.687992
H88	H	1.825519	-0.448929	-0.187992
N89	N	1.597984	-0.765499	-0.415782
N90	N	2.097984	-0.265499	0.084218
H91	H	1.637425	-0.809634	-0.376446
H92	H	2.137425	-0.309634	0.123554
H93	H	1.648911	-0.726345	-0.455747
H94	H	2.148911	-0.226345	0.044253
H95	H	1.636993	-0.919271	-0.376960
H96	H	2.136993	-0.419271	0.123040
N97	N	1.642523	-1.102647	-0.371610
N98	N	2.142523	-0.602647	0.128390
H99	H	1.687811	-1.058500	-0.326357
H100	H	2.187811	-0.558500	0.173643
H101	H	1.597421	-1.141800	-0.325830
H102	H	2.097421	-0.641800	0.174170
H103	H	1.532532	-0.481312	-1.103402
H104	H	2.032532	0.018688	-0.603402
H105	H	1.383032	-1.090244	-0.630693
H106	H	1.883032	-0.590244	-0.130693
H107	H	1.370238	-0.332653	-0.921649
H108	H	1.870238	0.167347	-0.421649
H109	H	1.336836	-0.777983	-0.676539
H110	H	1.836836	-0.277983	-0.176539
N111	N	1.353667	-0.317340	-1.144199
N112	N	1.853667	0.182660	-0.644199
H113	H	1.398996	-0.275556	-1.186712
H114	H	1.898996	0.224444	-0.686712
H115	H	1.302834	-0.354093	-1.191864
H116	H	1.802834	0.145907	-0.691864
N117	N	1.092894	-0.551695	-0.675595
N118	N	1.592894	-0.051695	-0.175595
H119	H	1.170881	-0.542861	-0.664799
H120	H	1.670881	-0.042861	-0.164799
H121	H	1.069536	-0.616124	-0.663516
H122	H	1.569536	-0.116124	-0.163516
N123	N	0.854877	-0.551732	-0.675627
N124	N	1.354877	-0.051732	-0.175627
H125	H	0.778064	-0.542919	-0.664857
H126	H	1.278064	-0.042919	-0.164857
H127	H	0.874871	-0.537780	-0.749373
H128	H	1.374871	-0.037780	-0.249373
H129	H	1.532486	-0.481357	-0.968860
H130	H	2.032486	0.018643	-0.468860
