data_functionalizedCrystal
_audit_creation_method	'MofGen! by Chris Wilmer'
_symmetry_space_group_name_H-M	'P1'
_symmetry_Int_Tables_number	1
_symmetry_cell_setting	triclinic
loop_
_symmetry_equiv_pos_as_xyz
  x,y,z
_cell_length_a	14.519709
_cell_length_b	12.837943
_cell_length_c	11.295483
_cell_angle_alpha	94.538773
_cell_angle_beta	94.101713
_cell_angle_gamma	90.745458
loop_
_atom_site_label
_atom_site_type_symbol
_atom_site_fract_x
_atom_site_fract_y
_atom_site_fract_z
O1	O	0.234188	-1.382869	-0.099009
O2	O	0.734188	-0.882869	0.400991
O3	O	0.222343	-1.081042	-0.099016
O4	O	0.722343	-0.581042	0.400984
O5	O	0.094719	-1.239958	-0.099002
O6	O	0.594719	-0.739958	0.400998
O7	O	0.361812	-1.223954	-0.099023
O8	O	0.861812	-0.723954	0.400977
O9	O	0.105910	-1.226000	0.099048
O10	O	0.605910	-0.726000	0.599048
O11	O	0.233533	-1.067084	0.099034
O12	O	0.733533	-0.567084	0.599034
O13	O	0.245379	-1.368911	0.099040
O14	O	0.745379	-0.868911	0.599040
Cu15	Cu	0.240478	-1.216723	0.117121
Cu16	Cu	0.740478	-0.716723	0.617121
Cu17	Cu	0.227244	-1.233230	-0.117096
Cu18	Cu	0.727244	-0.733230	0.382904
O19	O	0.373002	-1.209996	0.099026
O20	O	0.873002	-0.709996	0.599026
C21	C	0.065890	-1.232233	0.000023
C22	C	0.565890	-0.732233	0.500023
C23	C	-0.036684	-1.229997	0.000024
C24	C	0.463316	-0.729997	0.500024
C25	C	0.223937	-1.035435	0.000008
C26	C	0.723937	-0.535435	0.500008
C27	C	0.212002	-0.920336	0.000006
C28	C	0.712002	-0.420336	0.500006
C29	C	0.243785	-1.414518	0.000014
C30	C	0.743785	-0.914518	0.500014
C31	C	0.255719	-1.529618	0.000008
C32	C	0.755719	-1.029618	0.500008
C33	C	-0.412293	-1.221771	-0.000007
C34	C	0.087707	-0.721771	0.499993
C35	C	-0.307787	-1.224055	0.000002
C36	C	0.192213	-0.724055	0.500002
C37	C	-0.224492	-1.225884	0.000010
C38	C	0.275508	-0.725884	0.500010
C39	C	-0.119979	-1.228169	0.000016
C40	C	0.380021	-0.728169	0.500016
C41	C	0.401831	-1.217721	-0.000001
C42	C	0.901831	-0.717721	0.499999
C43	C	0.504405	-1.219957	-0.000010
C44	C	1.004405	-0.719957	0.499990
N45	N	0.249786	-1.205121	0.281856
N46	N	0.749786	-0.705121	0.781856
C47	C	0.355473	-0.679643	0.000011
C48	C	0.855473	-0.179643	0.500011
C49	C	0.344264	-0.571497	0.000010
C50	C	0.844264	-0.071497	0.500010
C51	C	0.178377	-0.595894	0.000011
C52	C	0.678377	-0.095894	0.500011
C53	C	0.189586	-0.704041	0.000012
C54	C	0.689586	-0.204041	0.500012
C55	C	0.278137	-0.745911	0.000011
C56	C	0.778137	-0.245911	0.500011
C57	C	0.289344	-0.854060	0.000003
C58	C	0.789344	-0.354060	0.500003
C59	C	0.123458	-0.878455	0.000013
C60	C	0.623458	-0.378455	0.500013
C61	C	0.112249	-0.770308	0.000011
C62	C	0.612249	-0.270308	0.500011
N63	N	0.217929	-1.244841	-0.281831
N64	N	0.717929	-0.744841	0.218169
C65	C	0.150873	-1.328362	0.531156
C66	C	0.650873	-0.828362	1.031156
C67	C	0.157915	-1.319601	0.655819
C68	C	0.657915	-0.819601	1.155819
C69	C	0.270905	-1.178834	0.655847
C70	C	0.770905	-0.678834	1.155847
C71	C	0.263863	-1.187595	0.531184
C72	C	0.763863	-0.687595	1.031184
C73	C	0.203847	-1.262362	0.468843
C74	C	0.703847	-0.762362	0.968843
C75	C	0.196811	-1.271127	0.344178
C76	C	0.696811	-0.771127	0.844178
C77	C	0.309795	-1.130356	0.344208
C78	C	0.809795	-0.630356	0.844208
C79	C	0.316837	-1.121596	0.468871
C80	C	0.816837	-0.621596	0.968871
H81	H	0.361447	-0.888149	0.000004
H82	H	0.861447	-0.388149	0.500004
H83	H	0.319762	-1.117954	0.706621
H84	H	0.819762	-0.617954	1.206621
H85	H	0.427575	-0.713735	0.000008
H86	H	0.927575	-0.213735	0.500008
H87	H	0.365699	-1.060719	0.519643
H88	H	0.865699	-0.560719	1.019643
H89	H	0.106288	-0.561777	0.000111
H90	H	0.606288	-0.061777	0.500111
H91	H	0.407240	-0.517545	0.000014
H92	H	0.907240	-0.017545	0.500014
H93	H	0.040154	-0.736201	0.000026
H94	H	0.540154	-0.236201	0.500026
H95	H	0.352933	-1.076618	0.293458
H96	H	0.852933	-0.576618	0.793458
O97	O	0.048428	-0.942973	0.000061
O98	O	0.548428	-0.442973	0.500061
C99	C	0.077303	-1.047409	0.000022
C100	C	0.577303	-0.547409	0.500022
H101	H	0.152231	-1.049058	0.037524
H102	H	0.652231	-0.549058	0.537524
H103	H	0.031834	-1.092255	0.057512
H104	H	0.531834	-0.592255	0.557512
H105	H	0.071194	-1.085364	-0.094996
H106	H	0.571194	-0.585364	0.405004
O107	O	0.138362	-1.343642	0.283697
O108	O	0.638362	-0.843642	0.783697
C109	C	0.047304	-1.324457	0.314230
C110	C	0.547304	-0.824457	0.814230
H111	H	0.041484	-1.239033	0.348501
H112	H	0.541484	-0.739033	0.848501
H113	H	-0.002590	-1.342061	0.232272
H114	H	0.497410	-0.842061	0.732272
H115	H	0.029385	-1.376763	0.386606
H116	H	0.529385	-0.876763	0.886606
H117	H	0.114777	-1.373343	0.706551
H118	H	0.614777	-0.873343	1.206551
O119	O	0.092506	-1.401016	0.470776
O120	O	0.592506	-0.901016	0.970776
C121	C	0.047281	-1.457416	0.552509
C122	C	0.547281	-0.957416	1.052509
H123	H	0.047498	-1.408665	0.641385
H124	H	0.547498	-0.908665	1.141385
H125	H	-0.027017	-1.475634	0.516488
H126	H	0.472983	-0.975634	1.016488
H127	H	0.084789	-1.533553	0.565747
H128	H	0.584789	-1.033553	1.065747
