data_functionalizedCrystal
_audit_creation_method	'MofGen! by Chris Wilmer'
_symmetry_space_group_name_H-M	'P1'
_symmetry_Int_Tables_number	1
_symmetry_cell_setting	triclinic
loop_
_symmetry_equiv_pos_as_xyz
  x,y,z
_cell_length_a	19.288864
_cell_length_b	14.472310
_cell_length_c	19.288865
_cell_angle_alpha	89.993676
_cell_angle_beta	96.863755
_cell_angle_gamma	90.026857
loop_
_atom_site_label
_atom_site_type_symbol
_atom_site_fract_x
_atom_site_fract_y
_atom_site_fract_z
O1	O	0.921357	0.077148	-0.086643
O2	O	0.719097	0.077086	-0.098332
O3	O	0.826072	0.077100	0.008643
O4	O	0.814383	0.077133	-0.193618
O5	O	0.826044	-0.076582	0.008637
O6	O	0.719069	-0.076596	-0.098338
O7	O	0.921330	-0.076534	-0.086649
Cu8	Cu	0.820197	-0.090598	-0.092494
Cu9	Cu	0.820230	0.091149	-0.092487
O10	O	0.814355	-0.076549	-0.193624
C11	C	0.693207	0.000237	-0.097959
C12	C	0.616103	0.000212	-0.096830
N13	N	0.820179	-0.218428	-0.092499
C14	C	0.571407	0.000237	-0.159598
C15	C	0.498960	0.000247	-0.158537
C16	C	0.471212	0.000251	-0.094705
C17	C	0.515918	0.000221	-0.031929
C18	C	0.588364	0.000202	-0.032991
C19	C	0.362960	0.054116	-0.044523
C20	C	0.290515	0.054141	-0.043464
C21	C	0.247767	0.000306	-0.091425
C22	C	0.277470	-0.053541	-0.140458
C23	C	0.349915	-0.053560	-0.141521
C24	C	0.392658	0.000271	-0.093546
C25	C	0.124514	0.000341	-0.153047
C26	C	0.052066	0.000345	-0.151984
C27	C	0.069026	0.000328	-0.025374
C28	C	0.141473	0.000315	-0.026439
C29	C	0.169212	0.000325	-0.090278
C30	C	0.820229	-0.592520	-0.092484
C31	C	0.762798	-0.553362	-0.149533
C32	C	0.762929	-0.446273	-0.149740
C33	C	0.820204	-0.406929	-0.092491
C34	C	0.892628	-0.445740	-0.108094
C35	C	0.892305	-0.552862	-0.108499
C36	C	0.805882	-0.553067	-0.019661
C37	C	0.804218	-0.445940	-0.020152
C38	C	0.820194	-0.302040	-0.092494
C39	C	0.820243	-0.697408	-0.092483
C40	C	0.947220	0.000317	-0.087022
C41	C	1.024324	0.000347	-0.088151
C42	C	0.825682	0.000257	0.034516
C43	C	0.824553	0.000248	0.111620
N44	N	0.820253	0.218980	-0.092476
C45	C	0.814745	0.000297	-0.219497
C46	C	0.815874	0.000312	-0.296601
C47	C	0.887321	0.000263	0.156316
C48	C	0.886260	0.000277	0.228763
C49	C	0.822428	0.000258	0.256511
C50	C	0.759652	0.000249	0.211805
C51	C	0.760714	0.000244	0.139359
C52	C	0.772239	-0.053589	0.364796
C53	C	0.771179	-0.053589	0.437241
C54	C	0.819148	0.000278	0.479956
C55	C	0.868189	0.054134	0.450221
C56	C	0.869252	0.054129	0.377775
C57	C	0.821269	0.000264	0.335065
C58	C	0.880770	0.000309	0.603209
C59	C	0.879707	0.000329	0.675657
C60	C	0.753097	0.000292	0.658697
C61	C	0.754162	0.000281	0.586250
C62	C	0.818001	0.000285	0.558511
H63	H	0.593987	0.000248	-0.211580
C64	C	0.923187	0.113367	0.345063
H65	H	0.916951	0.105641	0.295801
H66	H	0.916923	0.176547	0.356110
H67	H	0.968967	0.094445	0.363092
H68	H	0.936364	-0.578761	-0.068574
C69	C	0.449785	0.000289	-0.227584
H70	H	0.476682	0.000300	-0.265755
H71	H	0.421138	-0.053290	-0.229811
H72	H	0.421206	0.053901	-0.229787
H73	H	0.731244	-0.097437	0.461445
C74	C	0.719472	-0.112847	0.317812
H75	H	0.727123	-0.105132	0.270407
H76	H	0.725392	-0.176024	0.330510
H77	H	0.673343	-0.093927	0.323526
C78	C	0.689438	0.000224	0.242324
H79	H	0.697795	0.000220	0.291872
H80	H	0.663611	0.053808	0.226964
H81	H	0.663594	-0.053383	0.226971
H82	H	0.709599	0.000231	0.102967
H83	H	0.937375	0.000293	0.265162
H84	H	0.397761	0.097959	-0.005466
C85	C	0.382591	-0.112791	-0.195446
H86	H	0.431858	-0.105085	-0.189210
H87	H	0.371505	-0.175970	-0.189171
H88	H	0.364575	-0.093847	-0.241230
H89	H	0.771808	-0.580258	-0.203274
H90	H	0.177866	0.000300	0.024674
C91	C	0.910178	-0.409475	-0.179009
H92	H	0.954105	-0.433344	-0.187983
H93	H	0.875100	-0.428808	-0.214862
H94	H	0.912165	-0.343894	-0.177927
H95	H	0.754229	-0.580153	-0.004602
H96	H	0.242665	-0.097378	-0.179513
H97	H	0.936376	-0.420250	-0.067638
H98	H	0.015674	0.000360	-0.203099
H99	H	0.046435	0.000389	0.026600
H100	H	0.147101	0.000336	-0.205028
H101	H	0.266337	0.097990	-0.003541
C102	C	0.732248	-0.411682	-0.004147
H103	H	0.712023	-0.373758	-0.041387
H104	H	0.702718	-0.463194	0.000878
H105	H	0.737606	-0.376941	0.037940
C106	C	0.862453	-0.587279	0.037692
H107	H	0.853507	-0.563208	0.081572
H108	H	0.861777	-0.652874	0.039272
H109	H	0.906980	-0.566848	0.027615
H110	H	0.907250	0.097998	0.484999
C111	C	0.485399	0.000231	0.038285
H112	H	0.435851	0.000256	0.029928
H113	H	0.500726	-0.053368	0.064121
H114	H	0.500785	0.053824	0.064120
H115	H	0.930822	0.000346	0.712049
C116	C	0.637532	0.000185	0.036057
H117	H	0.610633	0.000194	0.074226
H118	H	0.666123	-0.053410	0.038273
H119	H	0.666167	0.053781	0.038272
H120	H	0.772067	-0.420626	-0.203785
H121	H	0.709088	-0.420036	-0.140477
H122	H	0.708781	-0.579168	-0.140426
C123	C	0.909422	-0.586588	-0.180236
H124	H	0.916503	-0.534822	-0.208858
H125	H	0.950609	-0.623114	-0.174255
H126	H	0.871700	-0.622622	-0.201861
H127	H	0.843349	-0.419161	0.024272
H128	H	0.939303	0.000269	0.133736
H129	H	0.932751	0.000317	0.580622
C130	C	0.682883	0.000274	0.689210
H131	H	0.691238	0.000275	0.738758
H132	H	0.657056	0.053857	0.673846
H133	H	0.657038	-0.053334	0.673861
C134	C	0.685116	0.000249	0.537082
H135	H	0.646947	0.000232	0.563981
H136	H	0.682906	0.053836	0.508460
H137	H	0.682893	-0.053355	0.508478
