data_functionalizedCrystal
_audit_creation_method	'MofGen! by Chris Wilmer'
_symmetry_space_group_name_H-M	'P1'
_symmetry_Int_Tables_number	1
_symmetry_cell_setting	triclinic
loop_
_symmetry_equiv_pos_as_xyz
  x,y,z
_cell_length_a	18.215407
_cell_length_b	14.908520
_cell_length_c	18.215399
_cell_angle_alpha	86.730636
_cell_angle_beta	90.019833
_cell_angle_gamma	93.321174
loop_
_atom_site_label
_atom_site_type_symbol
_atom_site_fract_x
_atom_site_fract_y
_atom_site_fract_z
Zn1	Zn	1.108178	-0.359158	0.433017
Zn2	Zn	1.358178	-0.109158	0.683017
Zn3	Zn	1.608178	0.140842	0.933017
Zn4	Zn	1.858178	0.390842	1.183017
Zn5	Zn	1.100989	-0.510027	0.317051
Zn6	Zn	1.350989	-0.260027	0.567051
Zn7	Zn	1.600989	-0.010027	0.817051
Zn8	Zn	1.850989	0.239973	1.067051
Zn9	Zn	0.985109	-0.359188	0.309966
Zn10	Zn	1.235109	-0.109188	0.559966
Zn11	Zn	1.485109	0.140812	0.809966
Zn12	Zn	1.735109	0.390812	1.059966
Zn13	Zn	0.977982	-0.509977	0.440073
Zn14	Zn	1.227982	-0.259977	0.690073
Zn15	Zn	1.477982	-0.009977	0.940073
Zn16	Zn	1.727982	0.240023	1.190073
O17	O	1.043064	-0.434588	0.375027
O18	O	1.293064	-0.184588	0.625027
O19	O	1.543064	0.065412	0.875027
O20	O	1.793064	0.315412	1.125027
O21	O	1.210208	-0.379180	0.417646
O22	O	1.460208	-0.129180	0.667646
O23	O	1.710208	0.120820	0.917646
O24	O	1.960208	0.370820	1.167646
O25	O	1.085592	-0.490052	0.213128
O26	O	1.335592	-0.240052	0.463128
O27	O	1.585592	0.009948	0.713128
O28	O	1.835592	0.259948	0.963128
O29	O	1.007425	-0.232939	0.320371
O30	O	1.257425	0.017061	0.570371
O31	O	1.507425	0.267061	0.820371
O32	O	1.757425	0.517061	1.070371
O33	O	1.204927	-0.490023	0.332446
O34	O	1.454927	-0.240023	0.582446
O35	O	1.704927	0.009977	0.832446
O36	O	1.954927	0.259977	1.082446
O37	O	1.097843	-0.232917	0.410776
O38	O	1.347843	0.017083	0.660776
O39	O	1.597843	0.267083	0.910776
O40	O	1.847843	0.517083	1.160776
O41	O	1.000455	-0.379230	0.207923
O42	O	1.250455	-0.129230	0.457923
O43	O	1.500455	0.120770	0.707923
O44	O	1.750455	0.370770	0.957923
O45	O	0.881180	-0.379182	0.327213
O46	O	1.131180	-0.129182	0.577213
O47	O	1.381180	0.120818	0.827213
O48	O	1.631180	0.370818	1.077213
O49	O	0.995278	-0.489937	0.542120
O50	O	1.245278	-0.239937	0.792120
O51	O	1.495278	0.010063	1.042120
O52	O	1.745278	0.260063	1.292120
O53	O	0.875943	-0.489966	0.422802
O54	O	1.125943	-0.239966	0.672802
O55	O	1.375943	0.010034	0.922802
O56	O	1.625943	0.260034	1.172802
O57	O	1.090932	-0.379131	0.536936
O58	O	1.340932	-0.129131	0.786936
O59	O	1.590932	0.120869	1.036936
O60	O	1.840932	0.370869	1.286936
O61	O	1.078681	-0.636266	0.339288
O62	O	1.328681	-0.386266	0.589288
O63	O	1.578681	-0.136266	0.839288
O64	O	1.828681	0.113734	1.089288
O65	O	0.988308	-0.636229	0.429672
O66	O	1.238308	-0.386229	0.679672
O67	O	1.488308	-0.136229	0.929672
O68	O	1.738308	0.113771	1.179672
C69	C	0.851859	-0.434572	0.375005
C70	C	1.101859	-0.184572	0.625005
C71	C	1.351859	0.065428	0.875005
C72	C	1.601859	0.315428	1.125005
C73	C	0.770059	-0.434587	0.375014
C74	C	1.020059	-0.184587	0.625014
C75	C	1.270059	0.065413	0.875014
C76	C	1.520059	0.315413	1.125014
C77	C	1.031961	-0.668981	0.386030
C78	C	1.281961	-0.418981	0.636030
C79	C	1.531961	-0.168981	0.886030
C80	C	1.781961	0.081019	1.136030
C81	C	1.027278	-0.769256	0.390762
C82	C	1.277278	-0.519256	0.640762
C83	C	1.527278	-0.269256	0.890762
C84	C	1.777278	-0.019256	1.140762
C85	C	0.579154	-0.492363	0.424733
C86	C	0.829154	-0.242363	0.674733
C87	C	1.079154	0.007637	0.924733
C88	C	1.329154	0.257637	1.174733
C89	C	0.502295	-0.492366	0.424742
C90	C	0.752295	-0.242366	0.674742
C91	C	1.002295	0.007634	0.924742
C92	C	1.252295	0.257634	1.174742
C93	C	0.507726	-0.376828	0.325338
C94	C	0.757726	-0.126828	0.575338
C95	C	1.007726	0.123172	0.825338
C96	C	1.257726	0.373172	1.075338
C97	C	0.584584	-0.376822	0.325333
C98	C	0.834584	-0.126822	0.575333
C99	C	1.084584	0.123178	0.825333
C100	C	1.334584	0.373178	1.075333
C101	C	0.620295	-0.434594	0.375029
C102	C	0.870295	-0.184594	0.625029
C103	C	1.120295	0.065406	0.875029
C104	C	1.370295	0.315406	1.125029
C105	C	0.466579	-0.434604	0.375044
C106	C	0.716579	-0.184604	0.625044
C107	C	0.966579	0.065396	0.875044
C108	C	1.216579	0.315396	1.125044
C109	C	0.383245	-0.434606	0.375053
C110	C	0.633245	-0.184606	0.625053
C111	C	0.883245	0.065394	0.875053
C112	C	1.133245	0.315394	1.125053
C113	C	0.703635	-0.434591	0.375021
C114	C	0.953635	-0.184591	0.625021
C115	C	1.203635	0.065409	0.875021
C116	C	1.453635	0.315409	1.125021
C117	C	1.112681	-0.957660	0.305613
C118	C	1.362681	-0.707660	0.555613
C119	C	1.612681	-0.457660	0.805613
C120	C	1.862681	-0.207660	1.055613
C121	C	1.108284	-1.051877	0.310057
C122	C	1.358284	-0.801877	0.560057
C123	C	1.608284	-0.551877	0.810057
C124	C	1.858284	-0.301877	1.060057
C125	C	1.014091	-1.051908	0.404097
C126	C	1.264091	-0.801908	0.654097
C127	C	1.514091	-0.551908	0.904097
C128	C	1.764091	-0.301908	1.154097
C129	C	1.018488	-0.957691	0.399653
C130	C	1.268488	-0.707691	0.649653
C131	C	1.518488	-0.457691	0.899653
C132	C	1.768488	-0.207691	1.149653
C133	C	1.067784	-0.910570	0.350409
C134	C	1.317784	-0.660570	0.600409
C135	C	1.567784	-0.410570	0.850409
C136	C	1.817784	-0.160570	1.100409
C137	C	1.072177	-0.816352	0.345962
C138	C	1.322177	-0.566352	0.595962
C139	C	1.572177	-0.316352	0.845962
C140	C	1.822177	-0.066352	1.095962
C141	C	0.977988	-0.816385	0.440005
C142	C	1.227988	-0.566385	0.690005
C143	C	1.477988	-0.316385	0.940005
C144	C	1.727988	-0.066385	1.190005
C145	C	0.973591	-0.910602	0.444449
C146	C	1.223591	-0.660602	0.694449
C147	C	1.473591	-0.410602	0.944449
C148	C	1.723591	-0.160602	1.194449
C149	C	1.235017	-0.434604	0.375049
C150	C	1.485017	-0.184604	0.625049
C151	C	1.735017	0.065396	0.875049
C152	C	1.985017	0.315396	1.125049
C153	C	1.316815	-0.434611	0.375059
C154	C	1.566815	-0.184611	0.625059
C155	C	1.816815	0.065389	0.875059
C156	C	2.066815	0.315389	1.125059
C157	C	1.043112	-0.434526	0.566977
C158	C	1.293112	-0.184526	0.816977
C159	C	1.543112	0.065474	1.066977
C160	C	1.793112	0.315474	1.316977
C161	C	1.043133	-0.434499	0.648775
C162	C	1.293133	-0.184499	0.898775
C163	C	1.543133	0.065501	1.148775
C164	C	1.793133	0.315501	1.398775
C165	C	1.054231	-0.199279	0.363996
C166	C	1.304231	0.050721	0.613996
C167	C	1.554231	0.300721	0.863996
C168	C	1.804231	0.550721	1.113996
C169	C	1.058990	-0.099004	0.359296
C170	C	1.308990	0.150996	0.609296
C171	C	1.558990	0.400996	0.859296
C172	C	1.808990	0.650996	1.109296
C173	C	1.043062	-0.434585	0.183820
C174	C	1.293062	-0.184585	0.433820
C175	C	1.543062	0.065415	0.683820
C176	C	1.793062	0.315415	0.933820
C177	C	1.043196	-0.434357	0.102011
C178	C	1.293196	-0.184357	0.352011
C179	C	1.543196	0.065643	0.602011
C180	C	1.793196	0.315643	0.852011
C181	C	1.092959	-0.376748	0.834268
C182	C	1.342959	-0.126748	1.084268
C183	C	1.592959	0.123252	1.334268
C184	C	1.842959	0.373252	1.584268
C185	C	1.092969	-0.376722	0.911126
C186	C	1.342969	-0.126722	1.161126
C187	C	1.592969	0.123278	1.411126
C188	C	1.842969	0.373278	1.661126
C189	C	0.993364	-0.492110	0.916513
C190	C	1.243364	-0.242110	1.166513
C191	C	1.493364	0.007890	1.416513
C192	C	1.743364	0.257890	1.666513
C193	C	0.993351	-0.492131	0.839656
C194	C	1.243351	-0.242131	1.089656
C195	C	1.493351	0.007869	1.339656
C196	C	1.743351	0.257869	1.589656
C197	C	1.043153	-0.434452	0.798536
C198	C	1.293153	-0.184452	1.048536
C199	C	1.543153	0.065548	1.298536
C200	C	1.793153	0.315548	1.548536
C201	C	1.043176	-0.434404	0.952250
C202	C	1.293176	-0.184404	1.202250
C203	C	1.543176	0.065596	1.452250
C204	C	1.793176	0.315596	1.702250
C205	C	1.043186	-0.434376	1.035582
C206	C	1.293186	-0.184376	1.285582
C207	C	1.543186	0.065624	1.535582
C208	C	1.793186	0.315624	1.785582
C209	C	1.043142	-0.434478	0.715198
C210	C	1.293142	-0.184478	0.965198
C211	C	1.543142	0.065522	1.215198
C212	C	1.793142	0.315522	1.465198
H213	H	0.608228	-0.539403	0.465200
H214	H	0.858228	-0.289403	0.715200
H215	H	1.108228	-0.039403	0.965200
H216	H	1.358228	0.210597	1.215200
Br217	Br	1.169222	-1.115782	0.249264
Br218	Br	1.419222	-0.865782	0.499264
Br219	Br	1.669222	-0.615782	0.749264
Br220	Br	1.919222	-0.365782	0.999264
H221	H	0.941427	-0.778034	0.476478
H222	H	1.191427	-0.528034	0.726478
H223	H	1.441427	-0.278034	0.976478
H224	H	1.691427	-0.028034	1.226478
H225	H	0.468801	-0.539406	0.465216
H226	H	0.718801	-0.289406	0.715216
H227	H	0.968801	-0.039406	0.965216
H228	H	1.218801	0.210594	1.215216
H229	H	0.618083	-0.329773	0.284858
H230	H	0.868083	-0.079773	0.534858
H231	H	1.118083	0.170227	0.784858
H232	H	1.368083	0.420227	1.034858
H233	H	1.112315	-0.777987	0.305863
H234	H	1.362315	-0.527987	0.555863
H235	H	1.612315	-0.277987	0.805863
H236	H	1.862315	-0.027987	1.055863
H237	H	1.133509	-0.329780	0.800790
H238	H	1.383509	-0.079780	1.050790
H239	H	1.633509	0.170220	1.300790
H240	H	1.883509	0.420220	1.550790
H241	H	1.133525	-0.329733	0.940215
H242	H	1.383525	-0.079733	1.190215
H243	H	1.633525	0.170267	1.440215
H244	H	1.883525	0.420267	1.690215
Br245	Br	0.459256	-0.298427	0.257896
Br246	Br	0.709256	-0.048427	0.507896
Br247	Br	0.959256	0.201573	0.757896
Br248	Br	1.209256	0.451573	1.007896
H249	H	0.952819	-0.539073	0.950002
H250	H	1.202819	-0.289073	1.200002
H251	H	1.452819	-0.039073	1.450002
H252	H	1.702819	0.210927	1.700002
Br253	Br	1.179567	-0.893705	0.238770
Br254	Br	1.429567	-0.643705	0.488770
Br255	Br	1.679567	-0.393705	0.738770
Br256	Br	1.929567	-0.143705	0.988770
Br257	Br	0.925746	-0.570441	0.791158
Br258	Br	1.175746	-0.320441	1.041158
Br259	Br	1.425746	-0.070441	1.291158
Br260	Br	1.675746	0.179559	1.541158
Br261	Br	0.947207	-1.115873	0.470935
Br262	Br	1.197207	-0.865873	0.720935
Br263	Br	1.447207	-0.615873	0.970935
Br264	Br	1.697207	-0.365873	1.220935
Br265	Br	0.906696	-0.974560	0.511281
Br266	Br	1.156696	-0.724560	0.761281
Br267	Br	1.406696	-0.474560	1.011281
Br268	Br	1.656696	-0.224560	1.261281
