data_functionalizedCrystal
_audit_creation_method	'MofGen! by Chris Wilmer'
_symmetry_space_group_name_H-M	'P1'
_symmetry_Int_Tables_number	1
_symmetry_cell_setting	triclinic
loop_
_symmetry_equiv_pos_as_xyz
  x,y,z
_cell_length_a	19.077236
_cell_length_b	13.897448
_cell_length_c	13.897441
_cell_angle_alpha	90.030599
_cell_angle_beta	92.323336
_cell_angle_gamma	92.310527
loop_
_atom_site_label
_atom_site_type_symbol
_atom_site_fract_x
_atom_site_fract_y
_atom_site_fract_z
Zn1	Zn	1.076057	-0.324857	0.604760
Zn2	Zn	1.075980	-0.486183	0.443457
Zn3	Zn	0.958352	-0.331367	0.436983
Zn4	Zn	0.958339	-0.492580	0.598218
O5	O	1.017182	-0.408747	0.520854
O6	O	1.174540	-0.340856	0.588810
O7	O	1.060350	-0.465694	0.307615
O8	O	0.974004	-0.195520	0.459267
O9	O	1.174483	-0.459381	0.470301
O10	O	1.060481	-0.190737	0.582532
O11	O	0.973929	-0.351951	0.302859
O12	O	0.859858	-0.358154	0.452924
O13	O	0.973981	-0.470284	0.734069
O14	O	0.859848	-0.476597	0.571383
O15	O	1.060468	-0.347059	0.738875
O16	O	1.060337	-0.622015	0.463958
O17	O	0.973906	-0.626715	0.577660
C18	C	0.834314	-0.418777	0.510741
C19	C	0.756083	-0.423091	0.506438
C20	C	0.719360	-0.363505	0.566211
C21	C	0.645853	-0.367554	0.562159
C22	C	0.609070	-0.431194	0.498338
C23	C	0.645799	-0.490781	0.438558
C24	C	0.719304	-0.486727	0.442606
C25	C	0.389229	-0.449922	0.479602
C26	C	0.315719	-0.453973	0.475560
C27	C	0.315778	-0.330744	0.599161
C28	C	0.389285	-0.326700	0.603207
C29	C	0.426007	-0.386284	0.543423
N30	N	0.533935	-0.435336	0.494197
N31	N	0.501141	-0.382136	0.547560
C32	C	1.017131	-0.659364	0.520824
C33	C	1.017173	-0.766576	0.520846
C34	C	1.017247	-0.962867	0.520911
C35	C	1.017204	-0.853637	0.520878
C36	C	1.200764	-0.398679	0.531007
C37	C	1.278995	-0.394388	0.535334
C38	C	1.017253	-0.157150	0.520907
C39	C	1.017283	-0.049934	0.520930
C40	C	1.017232	-0.408659	0.772450
C41	C	1.017253	-0.408621	0.879665
C42	C	1.017173	-0.408763	0.270239
C43	C	1.017288	-0.408521	0.163032
C44	C	1.017272	-0.408555	1.075962
C45	C	1.017260	-0.408595	0.966728
H46	H	0.749303	-0.311686	0.618184
H47	H	0.615956	-0.319035	0.610835
H48	H	0.419228	-0.274881	0.655180
Cl49	Cl	0.269609	-0.255841	0.674310
H50	H	0.615845	-0.542593	0.386589
Cl51	Cl	0.269479	-0.534006	0.395344
H52	H	0.419119	-0.498440	0.430923
Cl53	Cl	0.765471	-0.561638	0.367460
