data_functionalizedCrystal
_audit_creation_method	'MofGen! by Chris Wilmer'
_symmetry_space_group_name_H-M	'P1'
_symmetry_Int_Tables_number	1
_symmetry_cell_setting	triclinic
loop_
_symmetry_equiv_pos_as_xyz
  x,y,z
_cell_length_a	23.532407
_cell_length_b	14.853567
_cell_length_c	22.610064
_cell_angle_alpha	90.012313
_cell_angle_beta	89.990850
_cell_angle_gamma	96.758196
loop_
_atom_site_label
_atom_site_type_symbol
_atom_site_fract_x
_atom_site_fract_y
_atom_site_fract_z
O1	O	0.074352	-1.195566	-0.049150
O2	O	0.574352	-0.695566	0.450850
O3	O	0.083209	-0.933009	-0.049161
O4	O	0.583209	-0.433009	0.450839
O5	O	-0.004117	-1.072205	-0.049144
O6	O	0.495883	-0.572205	0.450856
O7	O	0.161678	-1.056370	-0.049167
O8	O	0.661678	-0.556370	0.450833
O9	O	-0.004117	-1.072164	0.049225
O10	O	0.495883	-0.572164	0.549225
O11	O	0.083209	-0.932969	0.049208
O12	O	0.583209	-0.432969	0.549208
O13	O	0.074352	-1.195525	0.049219
O14	O	0.574352	-0.695525	0.549219
Zn15	Zn	0.078780	-1.064241	0.064832
Zn16	Zn	0.578780	-0.564241	0.564832
Zn17	Zn	0.078780	-1.064294	-0.064774
Zn18	Zn	0.578780	-0.564294	0.435226
O19	O	0.161677	-1.056330	0.049203
O20	O	0.661677	-0.556330	0.549203
C21	C	-0.025335	-1.071782	0.000042
C22	C	0.474665	-0.571782	0.500042
C23	C	-0.088557	-1.070569	0.000046
C24	C	0.411443	-0.570569	0.500046
C25	C	0.082808	-0.899405	0.000022
C26	C	0.582808	-0.399405	0.500022
C27	C	0.081605	-0.799334	0.000019
C28	C	0.581605	-0.299334	0.500019
C29	C	0.074753	-1.229130	0.000034
C30	C	0.574753	-0.729130	0.500034
C31	C	0.075956	-1.329200	0.000034
C32	C	0.575956	-0.829200	0.500034
C33	C	-0.487334	-1.145338	0.000017
C34	C	0.012666	-0.645338	0.500017
C35	C	-0.546739	-1.144212	0.000012
C36	C	-0.046739	-0.644212	0.500012
O37	O	-0.583181	-1.213524	-0.000007
O38	O	-0.083181	-0.713524	0.499993
N39	N	-0.569726	-1.061460	0.000009
N40	N	-0.069726	-0.561460	0.500009
C41	C	-0.533305	-0.979829	0.000005
C42	C	-0.033305	-0.479829	0.500005
O43	O	-0.558312	-0.909339	0.000001
O44	O	-0.058312	-0.409339	0.500001
C45	C	-0.473901	-0.980957	0.000005
C46	C	0.026099	-0.480957	0.500005
C47	C	-0.450917	-1.063714	0.000014
C48	C	0.049083	-0.563714	0.500014
C49	C	-0.464349	-1.228089	0.000025
C50	C	0.035651	-0.728089	0.500025
C51	C	-0.404948	-1.229214	0.000031
C52	C	0.095052	-0.729214	0.500031
C53	C	-0.368531	-1.147590	0.000028
C54	C	0.131469	-0.647590	0.500028
C55	C	-0.391516	-1.064839	0.000020
C56	C	0.108484	-0.564839	0.500020
C57	C	-0.437481	-0.899327	-0.000003
C58	C	0.062519	-0.399327	0.499997
C59	C	-0.378073	-0.900461	-0.000004
C60	C	0.121927	-0.400461	0.499996
C61	C	-0.355089	-0.983218	0.000005
C62	C	0.144911	-0.483218	0.500005
C63	C	-0.295698	-0.984341	0.000023
C64	C	0.204302	-0.484341	0.500023
N65	N	-0.272711	-1.067092	0.000026
N66	N	0.227289	-0.567092	0.500026
C67	C	-0.309128	-1.148717	0.000029
C68	C	0.190872	-0.648717	0.500029
C69	C	-0.658058	-0.977469	0.000003
C70	C	-0.158058	-0.477469	0.500003
C71	C	-0.717461	-0.976340	0.000007
C72	C	-0.217461	-0.476340	0.500007
C73	C	-0.730890	-1.140723	0.000014
C74	C	-0.230890	-0.640723	0.500014
C75	C	-0.671486	-1.141851	0.000014
C76	C	-0.171486	-0.641851	0.500014
C77	C	-0.635070	-1.060220	0.000006
C78	C	-0.135070	-0.560220	0.500006
C79	C	-0.184380	-1.151075	0.000041
C80	C	0.315620	-0.651075	0.500041
C81	C	-0.124974	-1.152194	0.000049
C82	C	0.375026	-0.652194	0.500049
C83	C	-0.111549	-0.987811	0.000039
C84	C	0.388451	-0.487811	0.500039
C85	C	-0.170951	-0.986692	0.000034
C86	C	0.329049	-0.486692	0.500034
C87	C	-0.207365	-1.068331	0.000033
C88	C	0.292635	-0.568331	0.500033
O89	O	-0.259221	-0.915065	0.000039
O90	O	0.240779	-0.415065	0.500039
O91	O	-0.284112	-1.219196	0.000024
O92	O	0.215888	-0.719196	0.500024
C93	C	0.182895	-1.056753	0.000015
C94	C	0.682895	-0.556753	0.500015
C95	C	0.246118	-1.057966	0.000007
C96	C	0.746118	-0.557966	0.500007
N97	N	0.078780	-1.064211	0.153284
N98	N	0.578780	-0.564211	0.653284
C99	C	0.024648	-0.387423	0.000040
C100	C	0.524648	0.112577	0.500040
C101	C	0.128393	-0.365008	0.000025
C102	C	0.628393	0.134992	0.500025
C103	C	0.129524	-0.459029	0.000023
C104	C	0.629524	0.040971	0.500023
C105	C	0.078216	-0.517252	0.000028
C106	C	0.578216	-0.017252	0.500028
C107	C	0.025777	-0.481454	0.000036
C108	C	0.525777	0.018546	0.500036
C109	C	0.181961	-0.494835	0.000010
C110	C	0.681961	0.005165	0.500010
C111	C	0.183094	-0.588861	0.000007
C112	C	0.683094	-0.088861	0.500007
C113	C	0.131786	-0.647086	0.000017
C114	C	0.631786	-0.147086	0.500017
C115	C	0.079345	-0.611283	0.000025
C116	C	0.579345	-0.111283	0.500025
C117	C	0.028037	-0.669506	0.000030
C118	C	0.528037	-0.169506	0.500030
C119	C	-0.024404	-0.633704	0.000042
C120	C	0.475596	-0.133704	0.500042
C121	C	-0.025531	-0.539679	0.000045
C122	C	0.474469	-0.039679	0.500045
C123	C	0.132913	-0.741111	0.000013
C124	C	0.632913	-0.241111	0.500013
C125	C	0.029166	-0.763536	0.000026
C126	C	0.529166	-0.263536	0.500026
N127	N	0.078776	-1.064331	-0.153226
N128	N	0.578776	-0.564331	0.346774
C129	C	0.113378	-1.118661	0.561923
C130	C	0.613378	-0.618661	1.061923
C131	C	0.113377	-1.118672	0.623843
C132	C	0.613377	-0.618672	1.123843
O133	O	0.142790	-1.164931	0.655860
O134	O	0.642790	-0.664931	1.155860
N135	N	0.078774	-1.064311	0.654822
N136	N	0.578774	-0.564311	1.154822
C137	C	0.044166	-1.009943	0.623877
C138	C	0.544166	-0.509943	1.123877
O139	O	0.014733	-0.963707	0.655912
O140	O	0.514733	-0.463707	1.155912
C141	C	0.044165	-1.009937	0.561958
C142	C	0.544165	-0.509937	1.061958
C143	C	0.078774	-1.064294	0.530983
C144	C	0.578774	-0.564294	1.030983
C145	C	0.147984	-1.173014	0.530948
C146	C	0.647984	-0.673014	1.030948
C147	C	0.147986	-1.173001	0.469033
C148	C	0.647986	-0.673001	0.969033
C149	C	0.113382	-1.118635	0.438092
C150	C	0.613382	-0.618635	0.938092
C151	C	0.078776	-1.064281	0.469067
C152	C	0.578776	-0.564281	0.969067
C153	C	0.009554	-0.955574	0.531014
C154	C	0.509554	-0.455574	1.031014
C155	C	0.009555	-0.955574	0.469091
C156	C	0.509555	-0.455574	0.969091
C157	C	0.044165	-1.009931	0.438116
C158	C	0.544165	-0.509931	0.938116
C159	C	0.044174	-1.009902	0.376211
C160	C	0.544174	-0.509902	0.876211
N161	N	0.078777	-1.064263	0.345233
N162	N	0.578777	-0.564263	0.845233
C163	C	0.113381	-1.118629	0.376173
C164	C	0.613381	-0.618629	0.876173
C165	C	0.044170	-1.009961	0.753910
C166	C	0.544170	-0.509961	1.253910
C167	C	0.044174	-1.009961	0.815828
C168	C	0.544174	-0.509961	1.315828
C169	C	0.113385	-1.118691	0.815790
C170	C	0.613385	-0.618691	1.315790
C171	C	0.113383	-1.118686	0.753871
C172	C	0.613383	-0.618686	1.253871
C173	C	0.078773	-1.064321	0.722932
C174	C	0.578773	-0.564321	1.222932
C175	C	0.113383	-1.118597	0.246146
C176	C	0.613383	-0.618597	0.746146
C177	C	0.113384	-1.118577	0.184225
C178	C	0.613384	-0.618577	0.684225
C179	C	0.044172	-1.009851	0.184268
C180	C	0.544172	-0.509851	0.684268
C181	C	0.044173	-1.009867	0.246184
C182	C	0.544173	-0.509867	0.746184
C183	C	0.078780	-1.064248	0.277121
C184	C	0.578780	-0.564248	0.777121
O185	O	0.014774	-0.963669	0.344155
O186	O	0.514774	-0.463669	0.844155
O187	O	0.142803	-1.164866	0.344131
O188	O	0.642803	-0.664866	0.844131
H189	H	-0.106264	-1.219587	0.000058
H190	H	0.393736	-0.719587	0.500058
H191	H	0.175610	-0.770257	0.000004
H192	H	0.675610	-0.270257	0.500004
Br193	Br	-0.328654	-0.789670	-0.000017
Br194	Br	0.171346	-0.289670	0.499983
H195	H	0.170165	-0.317597	0.000016
H196	H	0.670165	0.182403	0.500016
H197	H	-0.081888	-0.921355	0.000039
H198	H	0.418112	-0.421355	0.500039
H199	H	-0.214023	-1.217554	0.000038
H200	H	0.285977	-0.717554	0.500038
Br201	Br	-0.780325	-1.251501	0.000015
Br202	Br	-0.280325	-0.751501	0.500015
H203	H	-0.456183	-0.831937	-0.000014
H204	H	0.043817	-0.331937	0.499986
Br205	Br	-0.202144	-0.874378	0.000036
Br206	Br	0.297856	-0.374378	0.500036
Br207	Br	0.160363	-1.192343	0.142191
Br208	Br	0.660363	-0.692343	0.642191
Br209	Br	-0.373765	-1.341534	0.000026
Br210	Br	0.126235	-0.841534	0.500026
H211	H	-0.018630	-0.911312	0.556223
H212	H	0.481370	-0.411312	1.056223
Br213	Br	-0.002787	-0.936068	0.142265
Br214	Br	0.497213	-0.436068	0.642265
Br215	Br	-0.513762	-1.338881	0.000028
Br216	Br	-0.013762	-0.838881	0.500028
H217	H	-0.652777	-1.209239	0.000021
H218	H	-0.152777	-0.709239	0.500021
Br219	Br	-0.046519	-0.338839	0.000062
Br220	Br	0.453481	0.161161	0.500062
Br221	Br	-0.748645	-0.864023	0.000009
Br222	Br	-0.248645	-0.364023	0.500009
Br223	Br	-0.094034	-0.712731	0.000043
Br224	Br	0.405966	-0.212731	0.500043
Br225	Br	0.160346	-1.192478	0.857793
Br226	Br	0.660346	-0.692478	1.357793
H227	H	-0.018629	-0.911303	0.443903
H228	H	0.481371	-0.411303	0.943903
Br229	Br	-0.608641	-0.866674	-0.000002
Br230	Br	-0.108641	-0.366674	0.499998
Br231	Br	-0.002790	-0.936085	0.288223
Br232	Br	0.497210	-0.436085	0.788223
H233	H	-0.012615	-0.810936	0.000033
H234	H	0.487385	-0.310936	0.500033
Br235	Br	-0.096695	-0.491085	0.000060
Br236	Br	0.403305	0.008915	0.500060
H237	H	0.223733	-0.447423	-0.000001
H238	H	0.723733	0.052577	0.499999
H239	H	0.225795	-0.618003	-0.000003
H240	H	0.725795	-0.118003	0.499997
H241	H	0.141563	-1.162880	0.271328
H242	H	0.641563	-0.662880	0.771328
H243	H	0.176167	-1.217268	0.443818
H244	H	0.676167	-0.717268	0.943818
Br245	Br	0.160353	-1.192461	0.711840
Br246	Br	0.660353	-0.692461	1.211840
H247	H	0.176163	-1.217290	0.556133
H248	H	0.676163	-0.717290	1.056133
H249	H	0.015999	-0.965687	0.841043
H250	H	0.515999	-0.465687	1.341043
H251	H	0.015989	-0.965682	0.728723
H252	H	0.515989	-0.465682	1.228723
