data_functionalizedCrystal
_audit_creation_method	'MofGen! by Chris Wilmer'
_symmetry_space_group_name_H-M	'P1'
_symmetry_Int_Tables_number	1
_symmetry_cell_setting	triclinic
loop_
_symmetry_equiv_pos_as_xyz
  x,y,z
_cell_length_a	12.784890
_cell_length_b	14.472310
_cell_length_c	12.811487
_cell_angle_alpha	84.568516
_cell_angle_beta	78.601231
_cell_angle_gamma	90.011636
loop_
_atom_site_label
_atom_site_type_symbol
_atom_site_fract_x
_atom_site_fract_y
_atom_site_fract_z
O1	O	1.410361	0.076263	0.006555
O2	O	1.101104	0.072505	0.051489
O3	O	1.263514	0.087243	-0.124479
O4	O	1.247952	0.061526	0.182523
O5	O	1.263472	-0.066440	-0.124466
O6	O	1.101062	-0.081178	0.051502
O7	O	1.410319	-0.077420	0.006568
Cu8	Cu	1.255687	-0.093331	0.029036
Cu9	Cu	1.255737	0.088417	0.029021
O10	O	1.247910	-0.092157	0.182536
C11	C	1.061497	-0.004580	0.054418
C12	C	0.943541	-0.005306	0.063113
C13	C	0.765046	-0.014433	0.172091
C14	C	0.875875	-0.013750	0.163928
C15	C	0.900371	0.002457	-0.029545
C16	C	0.789542	0.001774	-0.021382
C17	C	0.721883	-0.006673	0.079440
C18	C	0.611052	-0.007364	0.087602
C19	C	0.635550	0.008850	-0.105870
C20	C	0.746379	0.009534	-0.114033
N21	N	1.255660	-0.221163	0.029046
C22	C	1.255735	-0.595252	0.029017
C23	C	1.168539	-0.563949	0.122911
C24	C	1.168742	-0.456886	0.123206
C25	C	1.255697	-0.409662	0.029031
C26	C	1.366661	-0.449657	0.042823
C27	C	1.366172	-0.556833	0.043479
C28	C	1.232955	-0.546731	-0.079014
C29	C	1.230416	-0.439684	-0.078049
C30	C	1.255682	-0.304774	0.029037
C31	C	1.255757	-0.700140	0.029013
C32	C	1.449927	-0.000332	0.003639
C33	C	1.567883	0.000399	-0.005056
C34	C	1.262621	0.013672	-0.163497
C35	C	1.260010	0.023419	-0.279775
N36	N	1.255772	0.216249	0.029002
C37	C	1.255078	-0.125829	-0.498278
C38	C	1.252625	-0.116675	-0.607532
C39	C	1.252659	0.050878	-0.607542
C40	C	1.255112	0.041725	-0.498287
C41	C	1.256319	-0.046632	-0.443659
C42	C	1.258765	-0.055784	-0.334401
C43	C	1.258807	0.111768	-0.334414
C44	C	1.256354	0.120922	-0.443668
C45	C	1.248803	-0.018585	0.221554
C46	C	1.251414	-0.028325	0.337833
H47	H	0.801482	0.016414	-0.196119
O48	O	1.392667	-0.598630	0.147427
H49	H	1.325519	-0.644415	0.191472
O50	O	1.255040	0.216214	-0.502595
H51	H	1.256317	0.269747	-0.446257
O52	O	1.260150	0.197198	-0.275508
H53	H	1.262064	0.175993	-0.190359
H54	H	0.955478	0.009342	-0.111629
H55	H	1.256034	-0.197772	-0.453793
H56	H	1.148787	-0.413404	-0.088751
H57	H	1.153771	-0.572476	-0.094788
H58	H	1.259733	-0.127729	-0.289921
O59	O	1.393772	-0.422717	0.145508
H60	H	1.472400	-0.451395	0.154362
H61	H	0.555965	-0.014247	0.169696
H62	H	1.289763	-0.406850	-0.150411
H63	H	1.296537	-0.566215	-0.148768
H64	H	0.709957	-0.021322	0.254184
H65	H	1.251614	-0.181166	-0.651999
O66	O	1.188084	-0.431845	0.229674
H67	H	1.119249	-0.392609	0.269214
O68	O	1.251355	0.146171	-0.666468
H69	H	1.249437	0.139226	-0.751614
H70	H	0.911013	-0.020070	0.239374
H71	H	0.600396	0.015242	-0.181314
O72	O	1.059504	-0.421352	0.114318
H73	H	0.999526	-0.452863	0.183258
O74	O	1.058946	-0.597400	0.114372
H75	H	1.065448	-0.636699	0.043120
O76	O	1.187600	-0.608455	0.228805
H77	H	1.267674	-0.586978	0.240045
H78	H	1.433109	-0.577192	-0.022755
O79	O	1.454701	-0.408476	-0.045908
H80	H	1.420219	-0.358944	-0.100907
