data_functionalizedCrystal
_audit_creation_method	'MofGen! by Chris Wilmer'
_symmetry_space_group_name_H-M	'P1'
_symmetry_Int_Tables_number	1
_symmetry_cell_setting	triclinic
loop_
_symmetry_equiv_pos_as_xyz
  x,y,z
_cell_length_a	13.635800
_cell_length_b	13.212919
_cell_length_c	11.168121
_cell_angle_alpha	92.112358
_cell_angle_beta	71.491504
_cell_angle_gamma	106.298290
loop_
_atom_site_label
_atom_site_type_symbol
_atom_site_fract_x
_atom_site_fract_y
_atom_site_fract_z
V1	V	-2.031432	-0.325533	0.137537
O2	O	-2.011672	-0.319327	-0.044854
O3	O	-2.019736	-0.323315	0.309496
O4	O	-2.009324	-0.467506	0.118640
O5	O	-2.022156	-0.174139	0.147322
V6	V	-2.271354	-0.307424	0.117704
O7	O	-2.166095	-0.365257	0.181043
O8	O	-2.361790	-0.267701	0.074198
O9	O	-2.171447	-0.309642	-0.054255
O10	O	-2.349812	-0.313630	0.300095
O11	O	-2.339329	-0.458818	0.107919
O12	O	-2.181859	-0.165452	0.136601
V13	V	-1.531432	-0.325533	0.137537
O14	O	-1.511672	-0.319327	-0.044854
O15	O	-1.519736	-0.323315	0.309496
O16	O	-1.509324	-0.467506	0.118640
O17	O	-1.522156	-0.174139	0.147322
V18	V	-1.771354	-0.307424	0.117704
O19	O	-1.666095	-0.365257	0.181043
O20	O	-1.861790	-0.267701	0.074198
O21	O	-1.671447	-0.309642	-0.054255
O22	O	-1.849812	-0.313630	0.300095
O23	O	-1.839329	-0.458818	0.107919
O24	O	-1.681859	-0.165452	0.136601
C25	C	-1.931929	-0.502110	0.108483
C26	C	-1.954578	-0.618173	0.094171
C27	C	-2.054792	-0.866109	0.295166
C28	C	-2.076074	-0.975162	0.281724
C29	C	-2.018433	-0.945333	0.053847
C30	C	-1.997151	-0.836281	0.067289
C31	C	-2.015330	-0.796673	0.187952
C32	C	-1.994040	-0.687618	0.201392
C33	C	-1.936407	-0.657792	-0.026483
C34	C	-1.957689	-0.766844	-0.039925
C35	C	-1.945210	-0.318182	0.351940
C36	C	-1.976305	-0.317315	0.492410
C37	C	-2.077644	-0.314772	-0.096692
C38	C	-2.036169	-0.315646	-0.237162
C39	C	-2.090926	-0.130842	0.146762
C40	C	-2.057895	-0.014778	0.161069
C41	C	-1.445210	-0.318182	0.351940
C42	C	-1.476305	-0.317315	0.492410
C43	C	-1.431929	-0.502110	0.108483
C44	C	-1.454578	-0.618173	0.094171
C45	C	-2.077230	-0.321880	0.560581
C46	C	-2.109369	-0.320985	0.705765
C47	C	-1.577644	-0.314772	-0.096692
C48	C	-1.536169	-0.315646	-0.237162
C49	C	-1.590926	-0.130842	0.146762
C50	C	-1.557895	-0.014778	0.161069
C51	C	-1.556825	-0.678000	0.093138
C52	C	-1.578117	-0.787052	0.079673
C53	C	-1.497161	-0.836277	0.067251
C54	C	-1.394904	-0.776442	0.068281
C55	C	-1.373612	-0.667390	0.081736
C56	C	-1.456620	0.034420	0.173473
C57	C	-1.425565	0.143476	0.186900
C58	C	-1.495791	0.203331	0.187932
C59	C	-1.597074	0.154126	0.175522
C60	C	-1.628124	0.045073	0.162086
C61	C	-1.577230	-0.321880	0.560581
C62	C	-1.609369	-0.320985	0.705765
H63	H	-2.069582	-0.833860	0.393414
O64	O	-1.635581	-0.630355	0.105129
C65	C	-1.730392	-0.706565	0.101353
H66	H	-1.708691	-0.777558	0.050527
H67	H	-1.786190	-0.732931	0.201943
C68	C	-1.814551	-0.571101	0.092431
C69	C	-1.787897	-0.658292	0.029996
H70	H	-1.850027	-0.541324	0.048420
H71	H	-1.750678	-0.519756	0.094980
H72	H	-1.861045	-0.593085	0.176252
H73	H	-1.741393	-0.636304	-0.053818
H74	H	-1.851764	-0.709632	0.027431
O75	O	-2.000960	-0.983787	-0.063365
C76	C	-2.065249	-0.953093	-0.123987
H77	H	-2.137074	-0.935348	-0.049840
H78	H	-2.015246	-0.879365	-0.188472
C79	C	-2.017779	-1.064925	-0.294326
C80	C	-2.106001	-1.043139	-0.203257
H81	H	-2.042914	-1.120466	-0.343229
H82	H	-1.974463	-1.085602	-0.253487
H83	H	-1.976119	-1.003478	-0.348051
H84	H	-2.147652	-1.104581	-0.149525
H85	H	-2.149325	-1.022474	-0.244089
H86	H	-1.710595	0.005024	0.151994
H87	H	-1.904262	-0.601243	-0.113785
O88	O	-1.388501	-0.023782	0.172680
C89	C	-1.437930	-0.101368	0.273476
H90	H	-1.502832	-0.075398	0.349968
H91	H	-1.476212	-0.179388	0.237291
C92	C	-1.272826	-0.147702	0.235183
C93	C	-1.352533	-0.115801	0.329137
H94	H	-1.220150	-0.156609	0.269515
H95	H	-1.239525	-0.095434	0.167272
H96	H	-1.304741	-0.212715	0.205037
H97	H	-1.320620	-0.050782	0.359270
H98	H	-1.385827	-0.168058	0.397055
H99	H	-1.949707	-0.311734	0.704242
O100	O	-1.901473	-0.311716	0.550843
C101	C	-1.816761	-0.217886	0.508395
H102	H	-1.814208	-0.189667	0.411923
H103	H	-1.830687	-0.154544	0.578738
C104	C	-1.712000	-0.273733	0.615811
C105	C	-1.708859	-0.239079	0.497317
H106	H	-1.645440	-0.286803	0.608983
H107	H	-1.769073	-0.336947	0.644414
H108	H	-1.723609	-0.220943	0.674418
H109	H	-1.697264	-0.291875	0.438717
H110	H	-1.651781	-0.175875	0.468704
O111	O	-1.677381	-0.845179	0.078459
C112	C	-1.667822	-0.894419	-0.037216
H113	H	-1.590292	-0.848641	-0.112064
H114	H	-1.665546	-0.978851	-0.024476
C115	C	-1.860411	-0.952214	0.012257
C116	C	-1.765191	-0.895984	-0.079677
H117	H	-1.920475	-0.953185	-0.013934
H118	H	-1.866852	-0.919044	0.090191
H119	H	-1.858500	-1.022569	0.022865
H120	H	-1.767098	-0.825628	-0.090272
H121	H	-1.758753	-0.929142	-0.157614
O122	O	-1.940198	-0.805288	-0.157144
C123	C	-2.004476	-0.774592	-0.217781
H124	H	-2.076315	-0.756863	-0.143644
H125	H	-1.954472	-0.700855	-0.282248
C126	C	-1.956959	-0.886396	-0.388137
C127	C	-2.045199	-0.864629	-0.297080
H128	H	-1.982076	-0.941931	-0.437057
H129	H	-1.913651	-0.907073	-0.347288
H130	H	-1.915297	-0.824940	-0.441847
H131	H	-2.086852	-0.926079	-0.243363
H132	H	-2.088515	-0.843963	-0.337922
H133	H	-1.514513	-0.925074	0.056296
O134	O	-2.151846	-0.327145	0.501918
C135	C	-2.118487	-0.237094	0.419123
H136	H	-2.060100	-0.170401	0.450952
H137	H	-2.076570	-0.256845	0.319090
C138	C	-2.289255	-0.284051	0.381721
C139	C	-2.217550	-0.202135	0.420820
H140	H	-2.350361	-0.262489	0.382762
H141	H	-2.311729	-0.344723	0.437498
H142	H	-2.254312	-0.300503	0.298364
H143	H	-2.252490	-0.185694	0.504181
H144	H	-2.195084	-0.141460	0.365057
O145	O	-1.327281	0.191321	0.199201
C146	C	-1.340857	0.239858	0.315603
H147	H	-1.422845	0.256142	0.348698
H148	H	-1.336233	0.185236	0.389049
C149	C	-1.150481	0.324669	0.258185
C150	C	-1.251177	0.344677	0.298828
H151	H	-1.095160	0.389324	0.247841
H152	H	-1.141333	0.291966	0.179765
H153	H	-1.146643	0.279148	0.319397
H154	H	-1.255018	0.390186	0.237610
H155	H	-1.260323	0.377390	0.377238
H156	H	-1.654244	0.202877	0.176361
H157	H	-1.639842	-0.326458	0.511462
O158	O	-2.212449	-0.325496	0.775790
C159	C	-2.212915	-0.234474	0.845697
H160	H	-2.130421	-0.199544	0.858025
H161	H	-2.231635	-0.173751	0.793045
C162	C	-2.400895	-0.307161	0.961391
C163	C	-2.299577	-0.264264	0.976541
H164	H	-2.454355	-0.325534	1.042099
H165	H	-2.400583	-0.368483	0.914290
H166	H	-2.416480	-0.256551	0.917510
H167	H	-2.283988	-0.314878	1.020407
H168	H	-2.299888	-0.202951	1.023653
O169	O	-1.274270	-0.609195	0.082594
C170	C	-1.229061	-0.531567	-0.018157
H171	H	-1.268259	-0.557507	-0.094699
H172	H	-1.243761	-0.453567	0.018063
C173	C	-1.058723	-0.485237	0.020267
C174	C	-1.106861	-0.517101	-0.073748
H175	H	-0.983344	-0.476308	-0.014021
H176	H	-1.089182	-0.537533	0.088148
H177	H	-1.070984	-0.420240	0.050442
H178	H	-1.094611	-0.582102	-0.103910
H179	H	-1.076397	-0.464815	-0.141636
O180	O	-1.712449	-0.325496	0.775790
C181	C	-1.712915	-0.234474	0.845697
H182	H	-1.630421	-0.199544	0.858025
H183	H	-1.731635	-0.173751	0.793045
C184	C	-1.900895	-0.307161	0.961391
C185	C	-1.799577	-0.264264	0.976541
H186	H	-1.954355	-0.325534	1.042099
H187	H	-1.900583	-0.368483	0.914290
H188	H	-1.916480	-0.256551	0.917510
H189	H	-1.783988	-0.314878	1.020407
H190	H	-1.799888	-0.202951	1.023653
H191	H	-1.328997	-0.816537	0.058166
H192	H	-1.470500	0.292126	0.198889
H193	H	-1.413695	-0.312749	0.541530
O194	O	-2.011499	-0.649200	0.318623
C195	C	-1.947111	-0.679850	0.379130
H196	H	-1.925454	-0.753157	0.335206
H197	H	-1.870140	-0.612904	0.366961
C198	C	-2.036606	-0.614703	0.574947
C199	C	-2.010014	-0.704745	0.521005
H200	H	-2.075404	-0.630054	0.662463
H201	H	-2.079983	-0.594049	0.534181
H202	H	-1.972457	-0.558923	0.564793
H203	H	-2.074163	-0.760518	0.531145
H204	H	-1.966649	-0.725408	0.561776
H205	H	-2.108206	-1.031694	0.369029
H206	H	-1.449707	-0.311734	0.704242
