data_functionalizedCrystal
_audit_creation_method	'MofGen! by Chris Wilmer'
_symmetry_space_group_name_H-M	'P1'
_symmetry_Int_Tables_number	1
_symmetry_cell_setting	triclinic
loop_
_symmetry_equiv_pos_as_xyz
  x,y,z
_cell_length_a	15.297327
_cell_length_b	12.759395
_cell_length_c	12.759387
_cell_angle_alpha	90.018815
_cell_angle_beta	80.358863
_cell_angle_gamma	99.708038
loop_
_atom_site_label
_atom_site_type_symbol
_atom_site_fract_x
_atom_site_fract_y
_atom_site_fract_z
Zn1	Zn	-0.359066	1.533801	0.666311
Zn2	Zn	0.140934	2.033801	1.166311
Zn3	Zn	-0.509955	1.503252	0.521016
Zn4	Zn	-0.009955	2.003252	1.021016
Zn5	Zn	-0.359118	1.358094	0.490658
Zn6	Zn	0.140882	1.858094	0.990658
Zn7	Zn	-0.509888	1.327660	0.696642
Zn8	Zn	-0.009888	1.827660	1.196642
O9	O	-0.434506	1.430702	0.593657
O10	O	0.065494	1.930702	1.093657
O11	O	-0.379088	1.676769	0.647049
O12	O	0.120912	2.176769	1.147049
O13	O	-0.489996	1.483948	0.369978
O14	O	0.010004	1.983948	0.869978
O15	O	-0.232866	1.406924	0.488561
O16	O	0.267134	1.906924	0.988561
O17	O	-0.489945	1.654324	0.540301
O18	O	0.010055	2.154324	1.040301
O19	O	-0.232827	1.536015	0.617612
O20	O	0.267173	2.036015	1.117612
O21	O	-0.379177	1.377301	0.347674
O22	O	0.120823	1.877301	0.847674
O23	O	-0.379111	1.207037	0.517971
O24	O	0.120889	1.707037	1.017971
O25	O	-0.489831	1.355054	0.839630
O26	O	0.010169	1.855054	1.339630
O27	O	-0.489881	1.184678	0.669306
O28	O	0.010119	1.684678	1.169306
O29	O	-0.379022	1.506505	0.817346
O30	O	0.120978	2.006505	1.317346
O31	O	-0.636191	1.454438	0.569712
O32	O	-0.136191	1.954438	1.069712
O33	O	-0.636142	1.325431	0.698743
O34	O	-0.136142	1.825431	1.198743
C35	C	-0.434495	1.157737	0.593637
C36	C	0.065505	1.657737	1.093637
C37	C	-0.434512	1.040957	0.593657
C38	C	0.065488	1.540957	1.093657
C39	C	-0.550044	1.017674	0.751063
C40	C	-0.050044	1.517674	1.251063
C41	C	-0.607816	0.951171	0.829770
C42	C	-0.107816	1.451171	1.329770
C43	C	-0.607827	0.841447	0.829785
C44	C	-0.107827	1.341447	1.329785
C45	C	-0.550057	0.798226	0.751086
C46	C	-0.050057	1.298226	1.251086
C47	C	-0.492285	0.864729	0.672379
C48	C	0.007715	1.364729	1.172379
C49	C	-0.492282	0.974454	0.672371
C50	C	0.007718	1.474454	1.172371
C51	C	-0.376750	0.888012	0.514980
C52	C	0.123250	1.388012	1.014980
C53	C	-0.376743	0.997735	0.514958
C54	C	0.123257	1.497735	1.014958
C55	C	-0.318980	0.844791	0.436281
C56	C	0.181020	1.344791	0.936281
C57	C	-0.261211	0.911294	0.357568
C58	C	0.238789	1.411294	0.857568
C59	C	-0.261203	1.021023	0.357555
C60	C	0.238797	1.521023	0.857555
C61	C	-0.318970	1.064239	0.436251
C62	C	0.181030	1.564239	0.936251
C63	C	-0.668900	1.383345	0.640836
C64	C	-0.168900	1.883345	1.140836
C65	C	-0.769175	1.363182	0.661055
C66	C	-0.269175	1.863182	1.161055
C67	C	-1.051810	1.575245	0.449510
C68	C	-0.551810	2.075245	0.949510
C69	C	-0.957597	1.594189	0.430508
C70	C	-0.457597	2.094189	0.930508
C71	C	-0.910487	1.536439	0.488143
C72	C	-0.410487	2.036439	0.988143
C73	C	-0.957599	1.459742	0.564783
C74	C	-0.457599	1.959742	1.064783
C75	C	-1.051822	1.440790	0.583781
C76	C	-0.551822	1.940790	1.083781
C77	C	-0.910498	1.401984	0.622414
C78	C	-0.410498	1.901984	1.122414
C79	C	-0.957610	1.325287	0.699054
C80	C	-0.457610	1.825287	1.199054
C81	C	-1.051823	1.306339	0.718049
C82	C	-0.551823	1.806339	1.218049
C83	C	-1.098934	1.364089	0.660414
C84	C	-0.598934	1.864089	1.160414
C85	C	-0.816276	1.420936	0.603417
C86	C	-0.316276	1.920936	1.103417
C87	C	-0.816287	1.286481	0.737687
C88	C	-0.316287	1.786481	1.237687
C89	C	-0.910500	1.267537	0.756689
C90	C	-0.410500	1.767537	1.256689
C91	C	-0.199197	1.478272	0.546316
C92	C	0.300803	1.978272	1.046316
C93	C	-0.098922	1.498544	0.526143
C94	C	0.401078	1.998544	1.026143
C95	C	-0.434413	1.430792	0.867672
C96	C	0.065587	1.930792	1.367672
C97	C	-0.434374	1.430830	0.984440
C98	C	0.065626	1.930830	1.484440
C99	C	-0.434518	1.704733	0.593678
C100	C	0.065482	2.204733	1.093678
C101	C	-0.434523	1.821509	0.593687
C102	C	0.065477	2.321509	1.093687
C103	C	-0.434534	1.430686	0.320695
C104	C	0.065466	1.930686	0.820695
C105	C	-0.434320	1.430902	0.203876
C106	C	0.065680	1.930902	0.703876
C107	C	-0.318970	1.319790	0.961233
C108	C	0.181030	1.819790	1.461233
C109	C	-0.261250	1.264292	1.004486
C110	C	0.238750	1.764292	1.504486
C111	C	-0.261217	1.264330	1.114201
C112	C	0.238783	1.764330	1.614201
C113	C	-0.318913	1.319869	1.180667
C114	C	0.181087	1.819869	1.680667
C115	C	-0.376632	1.375367	1.137414
C116	C	0.123368	1.875367	1.637414
C117	C	-0.376657	1.375325	1.027695
C118	C	0.123343	1.875325	1.527695
C119	C	-0.492039	1.486400	1.160622
C120	C	0.007961	1.986400	1.660622
C121	C	-0.492069	1.486370	1.050906
C122	C	0.007931	1.986370	1.550906
C123	C	-0.549735	1.541939	1.227088
C124	C	-0.049735	2.041939	1.727088
C125	C	-0.607452	1.597444	1.183834
C126	C	-0.107452	2.097444	1.683834
C127	C	-0.607481	1.597405	1.074112
C128	C	-0.107481	2.097405	1.574112
C129	C	-0.549789	1.541867	1.007653
C130	C	-0.049789	2.041867	1.507653
H131	H	-0.318990	0.755448	0.436303
H132	H	0.181010	1.255448	0.936303
Cl133	Cl	-0.549818	1.541817	0.869722
Cl134	Cl	-0.049818	2.041817	1.369722
Cl135	Cl	-0.550060	0.660289	0.751120
Cl136	Cl	-0.050060	1.160289	1.251120
H137	H	-0.214175	0.876094	0.293502
H138	H	0.285825	1.376094	0.793502
H139	H	-0.777931	1.239454	0.784617
H140	H	-0.277931	1.739454	1.284617
H141	H	-0.833774	1.551867	0.472666
H142	H	-0.333774	2.051867	0.972666
Cl143	Cl	-0.318969	1.202176	0.436238
Cl144	Cl	0.181031	1.702176	0.936238
H145	H	-0.777926	1.483383	0.541016
H146	H	-0.277926	1.983383	1.041016
Cl147	Cl	-0.318886	1.319893	1.318599
Cl148	Cl	0.181114	1.819893	1.818599
Cl149	Cl	-0.549703	1.541975	1.365018
Cl150	Cl	-0.049703	2.041975	1.865018
Cl151	Cl	-0.680451	0.757841	0.928737
Cl152	Cl	-0.180451	1.257841	1.428737
Cl153	Cl	-0.969738	1.171120	0.853032
Cl154	Cl	-0.469738	1.671120	1.353032
Cl155	Cl	-1.111048	1.209914	0.814392
Cl156	Cl	-0.611048	1.709914	1.314392
Cl157	Cl	-0.898377	1.690615	0.334176
Cl158	Cl	-0.398377	2.190615	0.834176
H159	H	-0.318983	1.319763	0.871894
H160	H	0.181017	1.819763	1.371894
H161	H	-0.214151	1.075167	0.293468
H162	H	0.285849	1.575167	0.793468
H163	H	-1.090176	1.622250	0.402585
H164	H	-0.590176	2.122250	0.902585
H165	H	-1.175650	1.348671	0.675883
H166	H	-0.675650	1.848671	1.175883
H167	H	-0.214277	1.219070	0.950358
H168	H	0.285723	1.719070	1.450358
H169	H	-0.214218	1.219137	1.149417
H170	H	0.285782	1.719137	1.649417
H171	H	-0.654426	1.642655	1.237959
H172	H	-0.154426	2.142655	1.737959
Cl173	Cl	-0.680053	1.667170	1.019747
Cl174	Cl	-0.180053	2.167170	1.519747
H175	H	-0.654850	0.986374	0.893846
H176	H	-0.154850	1.486374	1.393846
Cl177	Cl	-0.550047	1.155610	0.751038
Cl178	Cl	-0.050047	1.655610	1.251038
