data_functionalizedCrystal
_audit_creation_method	'MofGen! by Chris Wilmer'
_symmetry_space_group_name_H-M	'P1'
_symmetry_Int_Tables_number	1
_symmetry_cell_setting	triclinic
loop_
_symmetry_equiv_pos_as_xyz
  x,y,z
_cell_length_a	19.805407
_cell_length_b	18.050590
_cell_length_c	19.805398
_cell_angle_alpha	89.971550
_cell_angle_beta	89.986879
_cell_angle_gamma	90.018553
loop_
_atom_site_label
_atom_site_type_symbol
_atom_site_fract_x
_atom_site_fract_y
_atom_site_fract_z
Zn1	Zn	1.034730	-0.295669	-0.382720
Zn2	Zn	1.284730	-0.045669	-0.132720
Zn3	Zn	1.534730	0.204331	0.117280
Zn4	Zn	1.784730	0.454331	0.367280
Zn5	Zn	1.034673	-0.419864	-0.269532
Zn6	Zn	1.284673	-0.169864	-0.019532
Zn7	Zn	1.534673	0.080136	0.230468
Zn8	Zn	1.784673	0.330136	0.480468
Zn9	Zn	0.921557	-0.295692	-0.269545
Zn10	Zn	1.171557	-0.045692	-0.019545
Zn11	Zn	1.421557	0.204308	0.230455
Zn12	Zn	1.671557	0.454308	0.480455
Zn13	Zn	0.921523	-0.419822	-0.382679
Zn14	Zn	1.171523	-0.169822	-0.132679
Zn15	Zn	1.421523	0.080178	0.117321
Zn16	Zn	1.671523	0.330178	0.367321
O17	O	0.978121	-0.357762	-0.326119
O18	O	1.228121	-0.107762	-0.076119
O19	O	1.478121	0.142238	0.173881
O20	O	1.728121	0.392238	0.423881
O21	O	1.129439	-0.312152	-0.367718
O22	O	1.379439	-0.062152	-0.117718
O23	O	1.629439	0.187848	0.132282
O24	O	1.879439	0.437848	0.382282
O25	O	1.019658	-0.403419	-0.174817
O26	O	1.269658	-0.153419	0.075183
O27	O	1.519658	0.096581	0.325183
O28	O	1.769658	0.346581	0.575183
O29	O	0.936607	-0.191764	-0.284580
O30	O	1.186607	0.058236	-0.034580
O31	O	1.436607	0.308236	0.215420
O32	O	1.686607	0.558236	0.465420
O33	O	1.129397	-0.403397	-0.284559
O34	O	1.379397	-0.153397	-0.034559
O35	O	1.629397	0.096603	0.215441
O36	O	1.879397	0.346603	0.465441
O37	O	1.019755	-0.191748	-0.367730
O38	O	1.269755	0.058252	-0.117730
O39	O	1.519755	0.308252	0.132270
O40	O	1.769755	0.558252	0.382270
O41	O	0.936552	-0.312190	-0.174827
O42	O	1.186552	-0.062190	0.075173
O43	O	1.436552	0.187810	0.325173
O44	O	1.686552	0.437810	0.575173
O45	O	0.826836	-0.312150	-0.284540
O46	O	1.076836	-0.062150	-0.034540
O47	O	1.326836	0.187850	0.215460
O48	O	1.576836	0.437850	0.465460
O49	O	0.936550	-0.403326	-0.477401
O50	O	1.186550	-0.153326	-0.227401
O51	O	1.436550	0.096674	0.022599
O52	O	1.686550	0.346674	0.272599
O53	O	0.826811	-0.403348	-0.367660
O54	O	1.076811	-0.153348	-0.117660
O55	O	1.326811	0.096652	0.132340
O56	O	1.576811	0.346652	0.382340
O57	O	1.019722	-0.312111	-0.477432
O58	O	1.269722	-0.062111	-0.227432
O59	O	1.519722	0.187889	0.022568
O60	O	1.769722	0.437889	0.272568
O61	O	1.019625	-0.523783	-0.284519
O62	O	1.269625	-0.273783	-0.034519
O63	O	1.519625	-0.023783	0.215481
O64	O	1.769625	0.226217	0.465481
O65	O	0.936495	-0.523752	-0.367648
O66	O	1.186495	-0.273752	-0.117648
O67	O	1.436495	-0.023752	0.132352
O68	O	1.686495	0.226248	0.382352
C69	C	0.802265	-0.357747	-0.326097
C70	C	1.052265	-0.107747	-0.076097
C71	C	1.302265	0.142253	0.173903
C72	C	1.552265	0.392253	0.423903
C73	C	0.727033	-0.357759	-0.326104
C74	C	0.977033	-0.107759	-0.076104
C75	C	1.227033	0.142241	0.173896
C76	C	1.477033	0.392241	0.423896
C77	C	0.691693	-0.405317	-0.369314
C78	C	0.941693	-0.155317	-0.119314
C79	C	1.191693	0.094683	0.130686
C80	C	1.441693	0.344683	0.380686
C81	C	0.621005	-0.405319	-0.369324
C82	C	0.871005	-0.155319	-0.119324
C83	C	1.121005	0.094681	0.130676
C84	C	1.371005	0.344681	0.380676
C85	C	0.585657	-0.357765	-0.326119
C86	C	0.835657	-0.107765	-0.076119
C87	C	1.085657	0.142235	0.173881
C88	C	1.335657	0.392235	0.423881
C89	C	0.621001	-0.310202	-0.282907
C90	C	0.871001	-0.060202	-0.032907
C91	C	1.121001	0.189798	0.217093
C92	C	1.371001	0.439798	0.467093
C93	C	0.691688	-0.310197	-0.282902
C94	C	0.941688	-0.060197	-0.032902
C95	C	1.191688	0.189803	0.217098
C96	C	1.441688	0.439803	0.467098
C97	C	0.335928	-0.310218	-0.282930
C98	C	0.585928	-0.060218	-0.032930
C99	C	0.835928	0.189782	0.217070
C100	C	1.085928	0.439782	0.467070
C101	C	0.265236	-0.310228	-0.282937
C102	C	0.515236	-0.060228	-0.032937
C103	C	0.765236	0.189772	0.217063
C104	C	1.015236	0.439772	0.467063
C105	C	0.265244	-0.405340	-0.369352
C106	C	0.515244	-0.155340	-0.119352
C107	C	0.765244	0.094660	0.130648
C108	C	1.015244	0.344660	0.380648
C109	C	0.335932	-0.405335	-0.369346
C110	C	0.585932	-0.155335	-0.119346
C111	C	0.835932	0.094665	0.130654
C112	C	1.085932	0.344665	0.380654
C113	C	0.371270	-0.357769	-0.326137
C114	C	0.621270	-0.107769	-0.076137
C115	C	0.871270	0.142231	0.173863
C116	C	1.121270	0.392231	0.423863
C117	C	0.447918	-0.357767	-0.326128
C118	C	0.697918	-0.107767	-0.076128
C119	C	0.947918	0.142233	0.173872
C120	C	1.197918	0.392233	0.423872
C121	C	0.509010	-0.357770	-0.326124
C122	C	0.759010	-0.107770	-0.076124
C123	C	1.009010	0.142230	0.173876
C124	C	1.259010	0.392230	0.423876
C125	C	0.978069	-0.550714	-0.326092
C126	C	1.228069	-0.300714	-0.076092
C127	C	1.478069	-0.050714	0.173908
C128	C	1.728069	0.199286	0.423908
C129	C	0.978108	-0.633259	-0.326103
C130	C	1.228108	-0.383259	-0.076103
C131	C	1.478108	-0.133259	0.173897
C132	C	1.728108	0.116741	0.423897
C133	C	1.023409	-0.832700	-0.280961
C134	C	1.273409	-0.582700	-0.030961
C135	C	1.523409	-0.332700	0.219039
C136	C	1.773409	-0.082700	0.469039
C137	C	1.039934	-0.882032	-0.342736
C138	C	1.289934	-0.632032	-0.092736
C139	C	1.539934	-0.382032	0.157264
C140	C	1.789934	-0.132032	0.407264
C141	C	0.978147	-0.784390	-0.326130
C142	C	1.228147	-0.534390	-0.076130
C143	C	1.478147	-0.284390	0.173870
C144	C	1.728147	-0.034390	0.423870
C145	C	0.961690	-0.882139	-0.264383
C146	C	1.211690	-0.632139	-0.014383
C147	C	1.461690	-0.382139	0.235617
C148	C	1.711690	-0.132139	0.485617
C149	C	0.978185	-0.930375	-0.326151
C150	C	1.228185	-0.680375	-0.076151
C151	C	1.478185	-0.430375	0.173849
C152	C	1.728185	-0.180375	0.423849
C153	C	0.994704	-0.832635	-0.387938
C154	C	1.244704	-0.582635	-0.137938
C155	C	1.494704	-0.332635	0.112062
C156	C	1.744704	-0.082635	0.362062
C157	C	0.916431	-0.832737	-0.309543
C158	C	1.166431	-0.582737	-0.059543
C159	C	1.416431	-0.332737	0.190457
C160	C	1.666431	-0.082737	0.440457
C161	C	0.932933	-0.882048	-0.371361
C162	C	1.182933	-0.632048	-0.121361
C163	C	1.432933	-0.382048	0.128639
C164	C	1.682933	-0.132048	0.378639
C165	C	0.978126	-0.700292	-0.326118
C166	C	1.228126	-0.450292	-0.076118
C167	C	1.478126	-0.200292	0.173882
C168	C	1.728126	0.049708	0.423882
C169	C	0.978205	-1.014471	-0.326171
C170	C	1.228205	-0.764471	-0.076171
C171	C	1.478205	-0.514471	0.173829
C172	C	1.728205	-0.264471	0.423829
C173	C	1.154663	-0.357776	-0.326142
C174	C	1.404663	-0.107776	-0.076142
C175	C	1.654663	0.142224	0.173858
C176	C	1.904663	0.392224	0.423858
C177	C	1.229895	-0.357783	-0.326151
C178	C	1.479895	-0.107783	-0.076151
C179	C	1.729895	0.142217	0.173849
C180	C	1.979895	0.392217	0.423849
C181	C	0.978139	-0.357711	-0.502662
C182	C	1.228139	-0.107711	-0.252662
C183	C	1.478139	0.142289	-0.002662
C184	C	1.728139	0.392289	0.247338
C185	C	0.978146	-0.357690	-0.577894
C186	C	1.228146	-0.107690	-0.327894
C187	C	1.478146	0.142310	-0.077894
C188	C	1.728146	0.392310	0.172106
C189	C	0.978191	-0.164056	-0.326161
C190	C	1.228191	0.085944	-0.076161
C191	C	1.478191	0.335944	0.173839
C192	C	1.728191	0.585944	0.423839
C193	C	0.978221	-0.081510	-0.326179
C194	C	1.228221	0.168490	-0.076179
C195	C	1.478221	0.418490	0.173821
C196	C	1.728221	0.668490	0.423821
C197	C	1.021526	-0.405074	-1.039678
C198	C	1.271526	-0.155074	-0.789678
C199	C	1.521526	0.094926	-0.539678
C200	C	1.771526	0.344926	-0.289678
C201	C	1.021507	-0.405095	-0.968990
C202	C	1.271507	-0.155095	-0.718990
C203	C	1.521507	0.094905	-0.468990
C204	C	1.771507	0.344905	-0.218990
C205	C	0.978230	-0.357606	-0.933656
C206	C	1.228230	-0.107606	-0.683656
C207	C	1.478230	0.142394	-0.433656
C208	C	1.728230	0.392394	-0.183656
C209	C	0.934964	-0.310100	-0.969015
C210	C	1.184964	-0.060100	-0.719015
C211	C	1.434964	0.189900	-0.469015
C212	C	1.684964	0.439900	-0.219015
C213	C	0.934980	-0.310084	-1.039702
C214	C	1.184980	-0.060084	-0.789702
C215	C	1.434980	0.189916	-0.539702
C216	C	1.684980	0.439916	-0.289702
C217	C	0.934899	-0.310163	-0.683941
C218	C	1.184899	-0.060163	-0.433941
C219	C	1.434899	0.189837	-0.183941
C220	C	1.684899	0.439837	0.066059
C221	C	0.934888	-0.310181	-0.613249
C222	C	1.184888	-0.060181	-0.363249
C223	C	1.434888	0.189819	-0.113249
C224	C	1.684888	0.439819	0.136751
C225	C	1.021426	-0.405174	-0.613229
C226	C	1.271426	-0.155174	-0.363229
C227	C	1.521426	0.094826	-0.113229
C228	C	1.771426	0.344826	0.136771
C229	C	1.021442	-0.405158	-0.683916
C230	C	1.271442	-0.155158	-0.433916
C231	C	1.521442	0.094842	-0.183916
C232	C	1.771442	0.344842	0.066084
C233	C	0.978174	-0.357655	-0.719269
C234	C	1.228174	-0.107655	-0.469269
C235	C	1.478174	0.142345	-0.219269
C236	C	1.728174	0.392345	0.030731
C237	C	0.978194	-0.357635	-0.795917
C238	C	1.228194	-0.107635	-0.545917
C239	C	1.478194	0.142365	-0.295917
C240	C	1.728194	0.392365	-0.045917
C241	C	0.978213	-0.357622	-0.857009
C242	C	1.228213	-0.107622	-0.607009
C243	C	1.478213	0.142378	-0.357009
C244	C	1.728213	0.392378	-0.107009
C245	C	0.978142	-0.357758	-0.150263
C246	C	1.228142	-0.107758	0.099737
C247	C	1.478142	0.142242	0.349737
C248	C	1.728142	0.392242	0.599737
C249	C	0.978265	-0.357570	-0.075032
C250	C	1.228265	-0.107570	0.174968
C251	C	1.478265	0.142430	0.424968
C252	C	1.728265	0.392430	0.674968
H253	H	0.236464	-0.444067	-0.404537
H254	H	0.486464	-0.194067	-0.154537
H255	H	0.736464	0.055933	0.095463
H256	H	0.986464	0.305933	0.345463
H257	H	0.720468	-0.444044	-0.404494
H258	H	0.970468	-0.194044	-0.154494
H259	H	1.220468	0.055956	0.095506
H260	H	1.470468	0.305956	0.345506
H261	H	1.061698	-0.811031	-0.242803
H262	H	1.311698	-0.561031	0.007197
H263	H	1.561698	-0.311031	0.257197
H264	H	1.811698	-0.061031	0.507197
H265	H	0.894673	-0.903579	-0.409612
H266	H	1.144673	-0.653579	-0.159612
H267	H	1.394673	-0.403579	0.090388
H268	H	1.644673	-0.153579	0.340388
Cl269	Cl	0.220799	-0.250440	-0.228620
Cl270	Cl	0.470799	-0.000440	0.021380
Cl271	Cl	0.720799	0.249560	0.271380
Cl272	Cl	0.970799	0.499560	0.521380
Cl273	Cl	0.380344	-0.250419	-0.228611
Cl274	Cl	0.630344	-0.000419	0.021389
Cl275	Cl	0.880344	0.249581	0.271389
Cl276	Cl	1.130344	0.499581	0.521389
H277	H	0.592235	-0.444046	-0.404509
H278	H	0.842235	-0.194046	-0.154509
H279	H	1.092235	0.055954	0.095491
H280	H	1.342235	0.305954	0.345491
Cl281	Cl	0.835845	-0.799281	-0.287836
Cl282	Cl	1.085845	-0.549281	-0.037836
Cl283	Cl	1.335845	-0.299281	0.212164
Cl284	Cl	1.585845	-0.049281	0.462164
H285	H	1.056771	-0.443742	-1.068442
H286	H	1.306771	-0.193742	-0.818442
H287	H	1.556771	0.056258	-0.568442
H288	H	1.806771	0.306258	-0.318442
H289	H	1.056655	-0.443856	-0.584437
H290	H	1.306655	-0.193856	-0.334437
H291	H	1.556655	0.056144	-0.084437
H292	H	1.806655	0.306144	0.165563
H293	H	0.364708	-0.444061	-0.404525
H294	H	0.614708	-0.194061	-0.154525
H295	H	0.864708	0.055939	0.095475
H296	H	1.114708	0.305939	0.345475
H297	H	0.592215	-0.271479	-0.247732
H298	H	0.842215	-0.021479	0.002268
H299	H	1.092215	0.228521	0.252268
H300	H	1.342215	0.478521	0.502268
Cl301	Cl	0.940174	-0.915711	-0.183750
Cl302	Cl	1.190174	-0.665711	0.066250
Cl303	Cl	1.440174	-0.415711	0.316250
Cl304	Cl	1.690174	-0.165711	0.566250
H305	H	1.056727	-0.443786	-0.940208
H306	H	1.306727	-0.193786	-0.690208
H307	H	1.556727	0.056214	-0.440208
H308	H	1.806727	0.306214	-0.190208
Cl309	Cl	0.880477	-0.250478	-0.568830
Cl310	Cl	1.130477	-0.000478	-0.318830
Cl311	Cl	1.380477	0.249522	-0.068830
Cl312	Cl	1.630477	0.499522	0.181170
Cl313	Cl	0.736115	-0.250405	-0.228580
Cl314	Cl	0.986115	-0.000405	0.021420
Cl315	Cl	1.236115	0.249595	0.271420
Cl316	Cl	1.486115	0.499595	0.521420
Cl317	Cl	0.880474	-0.250478	-0.728375
Cl318	Cl	1.130474	-0.000478	-0.478375
Cl319	Cl	1.380474	0.249522	-0.228375
Cl320	Cl	1.630474	0.499522	0.021625
H321	H	1.056685	-0.443826	-0.712681
H322	H	1.306685	-0.193826	-0.462681
H323	H	1.556685	0.056174	-0.212681
H324	H	1.806685	0.306174	0.037319
H325	H	1.092142	-0.903688	-0.356779
H326	H	1.342142	-0.653688	-0.106779
H327	H	1.592142	-0.403688	0.143221
H328	H	1.842142	-0.153688	0.393221
H329	H	0.899724	-0.271437	-0.940240
H330	H	1.149724	-0.021437	-0.690240
H331	H	1.399724	0.228563	-0.440240
H332	H	1.649724	0.478563	-0.190240
Cl333	Cl	1.016323	-0.799211	-0.468594
Cl334	Cl	1.266323	-0.549211	-0.218594
Cl335	Cl	1.516323	-0.299211	0.031406
Cl336	Cl	1.766323	-0.049211	0.281406
H337	H	0.899753	-0.271400	-1.068486
H338	H	1.149753	-0.021400	-0.818486
H339	H	1.399753	0.228600	-0.568486
H340	H	1.649753	0.478600	-0.318486
