data_functionalizedCrystal
_audit_creation_method	'MofGen! by Chris Wilmer'
_symmetry_space_group_name_H-M	'P1'
_symmetry_Int_Tables_number	1
_symmetry_cell_setting	triclinic
loop_
_symmetry_equiv_pos_as_xyz
  x,y,z
_cell_length_a	6.817900
_cell_length_b	16.255699
_cell_length_c	19.453114
_cell_angle_alpha	95.850056
_cell_angle_beta	101.709288
_cell_angle_gamma	103.489404
loop_
_atom_site_label
_atom_site_type_symbol
_atom_site_fract_x
_atom_site_fract_y
_atom_site_fract_z
V1	V	-4.006858	-0.117972	-0.219234
O2	O	-3.994740	0.004762	-0.214821
O3	O	-3.958520	-0.233046	-0.217965
O4	O	-3.949772	-0.116555	-0.314744
O5	O	-4.003549	-0.112535	-0.117372
V6	V	-4.491603	-0.103244	-0.207022
O7	O	-4.265435	-0.150277	-0.246021
O8	O	-4.683223	-0.070938	-0.180235
O9	O	-4.316734	0.011830	-0.208291
O10	O	-4.621117	-0.225978	-0.211435
O11	O	-4.612309	-0.108681	-0.308884
O12	O	-4.325482	-0.104661	-0.111512
C13	C	-3.803817	-0.261086	-0.214566
C14	C	-3.845525	-0.355163	-0.214165
C15	C	-3.792657	-0.112489	-0.338016
C16	C	-3.827267	-0.112092	-0.416098
C17	C	-3.756521	-0.577971	-0.209573
C18	C	-3.845302	-0.625362	-0.152973
C19	C	-3.921988	-0.527414	-0.213465
C20	C	-3.907546	-0.647653	-0.269359
C21	C	-3.995836	-0.693801	-0.212792
C22	C	-4.010195	-0.573557	-0.156822
C23	C	-4.072438	-0.595852	-0.273260
C24	C	-4.161339	-0.643219	-0.216648
C25	C	-3.879440	-0.431563	-0.213852
C26	C	-4.038396	-0.789650	-0.212400
C27	C	-4.025311	-0.116153	-0.456363
C28	C	-4.057832	-0.115781	-0.529729
C29	C	-3.892305	-0.111363	-0.562829
C30	C	-3.694230	-0.107296	-0.522554
C31	C	-3.661712	-0.107661	-0.449188
N32	N	-3.832586	-0.156056	-0.681707
N33	N	-3.863491	-0.155712	-0.751402
C34	C	-3.990271	-0.110263	-0.783875
N35	N	-4.085014	-0.065183	-0.744023
N36	N	-4.054114	-0.065531	-0.674322
C37	C	-3.927546	-0.110967	-0.642381
C38	C	-4.223589	-0.113919	-0.903692
C39	C	-4.256100	-0.113541	-0.977059
C40	C	-3.892497	-0.105065	-0.969883
C41	C	-3.859987	-0.105435	-0.896517
C42	C	-4.025543	-0.109866	-0.863427
C43	C	-4.134779	0.039866	-0.211688
C44	C	-4.072310	0.133942	-0.212093
C45	C	-4.145939	-0.108729	-0.088236
C46	C	-4.090568	-0.109122	-0.010154
H47	H	-3.584971	-0.549455	-0.206513
C48	C	-3.716189	-0.643479	-0.084269
H49	H	-3.572766	-0.621040	-0.081809
H50	H	-3.751324	-0.617028	-0.044297
H51	H	-3.744793	-0.703552	-0.084323
C52	C	-4.473958	-0.118007	-1.021351
H53	H	-4.567893	-0.120706	-0.991134
H54	H	-4.469076	-0.068434	-1.043606
H55	H	-4.519328	-0.167652	-1.056634
H56	H	-4.167946	-0.582429	-0.324122
H57	H	-3.757717	-0.101461	-0.996832
C58	C	-3.443858	-0.103202	-0.404896
H59	H	-3.349930	-0.100522	-0.435114
H60	H	-3.398475	-0.053566	-0.369610
H61	H	-3.448767	-0.152784	-0.382646
C62	C	-4.393095	-0.681529	-0.220665
H63	H	-4.451979	-0.722998	-0.262320
H64	H	-4.407518	-0.707962	-0.179966
H65	H	-4.462770	-0.637260	-0.222197
C66	C	-4.068199	-0.530120	-0.092503
H67	H	-4.041062	-0.470193	-0.093124
H68	H	-4.211382	-0.552985	-0.094853
H69	H	-3.987890	-0.540371	-0.049845
C70	C	-3.512212	-0.102563	-0.558974
H71	H	-3.389616	-0.100228	-0.524487
H72	H	-3.542662	-0.151893	-0.593928
H73	H	-3.492054	-0.052666	-0.580971
C74	C	-3.849435	-0.691220	-0.333597
H75	H	-3.705939	-0.668737	-0.330991
H76	H	-3.877756	-0.751190	-0.333139
H77	H	-3.928730	-0.680591	-0.376291
H78	H	-4.160122	-0.119758	-0.429425
C79	C	-4.405681	-0.118785	-0.867289
H80	H	-4.528286	-0.121138	-0.901778
H81	H	-4.425695	-0.168711	-0.845333
H82	H	-4.375410	-0.069493	-0.832303
H83	H	-4.219111	-0.119092	-0.562520
H84	H	-3.698724	-0.102137	-0.863734
