data_functionalizedCrystal
_audit_creation_method	'MofGen! by Chris Wilmer'
_symmetry_space_group_name_H-M	'P1'
_symmetry_Int_Tables_number	1
_symmetry_cell_setting	triclinic
loop_
_symmetry_equiv_pos_as_xyz
  x,y,z
_cell_length_a	12.837943
_cell_length_b	23.532407
_cell_length_c	11.295483
_cell_angle_alpha	94.064566
_cell_angle_beta	85.461227
_cell_angle_gamma	88.838809
loop_
_atom_site_label
_atom_site_type_symbol
_atom_site_fract_x
_atom_site_fract_y
_atom_site_fract_z
O1	O	1.380948	0.144513	-0.099028
O2	O	1.079219	0.137204	-0.099034
O3	O	1.239181	0.058450	-0.099009
O4	O	1.220986	0.223267	-0.099053
O5	O	1.225131	0.065355	0.099039
O6	O	1.065169	0.144109	0.099014
O7	O	1.366899	0.151419	0.099020
Cu8	Cu	1.214751	0.148394	0.117101
Cu9	Cu	1.231366	0.140228	-0.117115
O10	O	1.206937	0.230173	0.098995
C11	C	1.033599	0.138187	-0.000010
C12	C	0.918597	0.130823	-0.000012
C13	C	0.676728	0.219356	-0.000018
C14	C	0.568673	0.212439	-0.000018
C15	C	0.594431	0.110073	-0.000004
C16	C	0.702485	0.116990	-0.000004
C17	C	0.743630	0.171633	-0.000013
C18	C	0.851687	0.178549	-0.000021
C19	C	0.877442	0.076184	0.000002
C20	C	0.769387	0.069267	0.000002
C21	C	1.231692	0.040660	0.000018
C22	C	1.230298	-0.022637	0.000027
C23	C	1.316228	-0.416812	-0.000037
C24	C	1.314934	-0.476287	-0.000046
O25	O	1.394590	-0.508463	-0.000088
N26	N	1.219836	-0.504370	-0.000047
C27	C	1.126025	-0.472975	-0.000051
O28	O	1.045018	-0.502323	-0.000053
C29	C	1.127321	-0.413501	-0.000050
C30	C	1.222424	-0.385421	-0.000037
C31	C	1.411324	-0.388732	-0.000025
C32	C	1.412617	-0.329261	-0.000014
C33	C	1.318814	-0.297871	-0.000014
C34	C	1.223717	-0.325951	-0.000026
C35	C	1.033512	-0.382108	-0.000063
C36	C	1.034816	-0.322631	-0.000063
C37	C	1.129920	-0.294551	-0.000050
C38	C	1.131207	-0.235089	-0.000015
N39	N	1.226306	-0.207006	-0.000014
C40	C	1.320109	-0.238397	-0.000013
C41	C	1.123313	-0.597873	-0.000054
C42	C	1.122016	-0.657345	-0.000046
C43	C	1.310925	-0.660653	-0.000043
C44	C	1.312220	-0.601180	-0.000043
C45	C	1.218411	-0.569790	-0.000053
C46	C	1.322817	-0.113504	0.000011
C47	C	1.324101	-0.054028	0.000027
C48	C	1.135193	-0.050725	0.000019
C49	C	1.133908	-0.110196	0.000009
C50	C	1.227729	-0.141584	0.000001
O51	O	1.051593	-0.202877	0.000023
O52	O	1.401104	-0.209042	-0.000026
C53	C	1.412519	0.150435	-0.000006
C54	C	1.527521	0.157799	-0.000013
C55	C	1.214425	0.247962	-0.000035
C56	C	1.215820	0.311259	-0.000052
N57	N	1.203072	0.154138	0.281835
N58	N	1.243053	0.134480	-0.281849
C59	C	1.327124	0.093101	0.531144
C60	C	1.318306	0.097446	0.655806
C61	C	1.176612	0.167170	0.655824
C62	C	1.185431	0.162825	0.531162
C63	C	1.260690	0.125790	0.468826
C64	C	1.269513	0.121448	0.344162
C65	C	1.127815	0.191169	0.344182
C66	C	1.118997	0.195514	0.468844
H67	H	1.399215	-0.139054	0.000000
O68	O	1.031338	-0.140490	0.000009
H69	H	0.992025	-0.131089	-0.080716
O70	O	1.512510	-0.422579	-0.000010
H71	H	1.522193	-0.452563	-0.080732
H72	H	1.490060	-0.306404	-0.000008
H73	H	0.514204	0.251300	-0.000020
O74	O	0.725000	0.010334	0.000016
H75	H	0.789678	-0.021688	0.000027
O76	O	0.721109	0.278290	-0.000035
H77	H	0.807486	0.275081	-0.000042
H78	H	1.330795	0.091294	0.293409
H79	H	1.387305	-0.686223	-0.000047
O80	O	1.095429	0.207100	0.723075
H81	H	1.050700	0.229097	0.658801
O82	O	0.949598	0.024705	0.000015
H83	H	1.031649	0.038693	0.000021
O84	O	1.389971	0.062191	0.723012
H85	H	1.342633	0.034122	0.779819
O86	O	1.426682	-0.023741	0.000023
H87	H	1.491690	-0.055565	0.000003
H88	H	1.389662	-0.578321	-0.000033
O89	O	1.019440	-0.687629	-0.000044
H90	H	0.954437	-0.655804	-0.000049
H91	H	1.073723	0.217788	0.293429
H92	H	1.057719	0.225666	0.519612
H93	H	0.885184	0.223042	-0.000026
O94	O	1.408291	0.053159	0.463897
H95	H	1.453005	0.031156	0.528176
O96	O	0.550045	0.051140	0.000024
H97	H	0.463668	0.054351	0.000025
O98	O	1.022125	-0.564016	-0.000033
H99	H	0.955786	-0.593540	-0.000019
O100	O	0.930936	-0.412386	-0.000081
H101	H	0.865939	-0.380558	-0.000096
H102	H	0.958424	-0.297076	-0.000073
H103	H	1.058821	-0.025156	0.000022
