data_functionalizedCrystal
_audit_creation_method	'MofGen! by Chris Wilmer'
_symmetry_space_group_name_H-M	'P1'
_symmetry_Int_Tables_number	1
_symmetry_cell_setting	triclinic
loop_
_symmetry_equiv_pos_as_xyz
  x,y,z
_cell_length_a	15.297327
_cell_length_b	19.805407
_cell_length_c	19.805399
_cell_angle_alpha	89.980803
_cell_angle_beta	80.350583
_cell_angle_gamma	80.296766
loop_
_atom_site_label
_atom_site_type_symbol
_atom_site_fract_x
_atom_site_fract_y
_atom_site_fract_z
Zn1	Zn	-0.359278	-0.988086	0.429341
Zn2	Zn	0.140722	-0.488086	0.929341
Zn3	Zn	-0.510145	-0.968412	0.335733
Zn4	Zn	-0.010145	-0.468412	0.835733
Zn5	Zn	-0.359293	-0.874899	0.316168
Zn6	Zn	0.140707	-0.374899	0.816168
Zn7	Zn	-0.510087	-0.855283	0.448873
Zn8	Zn	-0.010087	-0.355283	0.948873
O9	O	-0.434701	-0.921670	0.382529
O10	O	0.065299	-0.421670	0.882529
O11	O	-0.379309	-1.080191	0.416938
O12	O	0.120691	-0.580191	0.916938
O13	O	-0.490165	-0.955983	0.238425
O14	O	0.009835	-0.455983	0.738425
O15	O	-0.233044	-0.906357	0.314819
O16	O	0.266956	-0.406357	0.814819
O17	O	-0.490150	-1.065736	0.348164
O18	O	0.009850	-0.565736	0.848164
O19	O	-0.233033	-0.989515	0.397967
O20	O	0.266967	-0.489515	0.897967
O21	O	-0.379334	-0.887279	0.224051
O22	O	0.120666	-0.387279	0.724051
O23	O	-0.379278	-0.777583	0.333758
O24	O	0.120722	-0.277583	0.833758
O25	O	-0.490051	-0.872924	0.540995
O26	O	0.009949	-0.372924	1.040995
O27	O	-0.490066	-0.763171	0.431256
O28	O	0.009934	-0.263171	0.931256
O29	O	-0.379252	-0.970494	0.526645
O30	O	0.120748	-0.470494	1.026645
O31	O	-0.636384	-0.936962	0.367103
O32	O	-0.136384	-0.436962	0.867103
O33	O	-0.636341	-0.853847	0.450227
O34	O	-0.136341	-0.353847	0.950227
C35	C	-0.434668	-0.745818	0.382504
C36	C	0.065332	-0.245818	0.882504
C37	C	-0.434675	-0.670585	0.382512
C38	C	0.065325	-0.170585	0.882512
C39	C	-0.377061	-0.642755	0.418401
C40	C	0.122939	-0.142755	0.918401
C41	C	-0.377064	-0.572066	0.418402
C42	C	0.122936	-0.072066	0.918402
C43	C	-0.434686	-0.529208	0.382518
C44	C	0.065314	-0.029208	0.882518
C45	C	-0.492303	-0.557043	0.346625
C46	C	0.007697	-0.057043	0.846625
C47	C	-0.492295	-0.627731	0.346620
C48	C	0.007705	-0.127731	0.846620
C49	C	-0.492336	-0.271966	0.346643
C50	C	0.007664	0.228034	0.846643
C51	C	-0.492341	-0.201273	0.346653
C52	C	0.007659	0.298727	0.846653
C53	C	-0.377105	-0.216301	0.418425
C54	C	0.122895	0.283699	0.918425
C55	C	-0.377097	-0.286989	0.418420
C56	C	0.122903	0.213011	0.918420
C57	C	-0.434710	-0.314818	0.382524
C58	C	0.065290	0.185182	0.882524
C59	C	-0.434705	-0.391467	0.382522
C60	C	0.065295	0.108533	0.882522
C61	C	-0.434696	-0.452560	0.382524
C62	C	0.065304	0.047440	0.882524
C63	C	-0.669097	-0.891159	0.412922
C64	C	-0.169097	-0.391159	0.912922
C65	C	-0.769373	-0.878169	0.425947
C66	C	-0.269373	-0.378169	0.925947
C67	C	-1.051997	-1.014795	0.289668
C68	C	-0.551997	-0.514795	0.789668
C69	C	-0.957783	-1.027000	0.277427
C70	C	-0.457783	-0.527000	0.777427
C71	C	-0.910676	-0.989794	0.314556
C72	C	-0.410676	-0.489794	0.814556
C73	C	-0.957792	-0.940380	0.363928
C74	C	-0.457792	-0.440380	0.863928
C75	C	-1.052015	-0.928170	0.376167
C76	C	-0.552015	-0.428170	0.876167
C77	C	-0.910694	-0.903168	0.401055
C78	C	-0.410694	-0.403168	0.901055
C79	C	-0.957810	-0.853754	0.450427
C80	C	-0.457810	-0.353754	0.950427
C81	C	-1.052024	-0.841546	0.462664
C82	C	-0.552024	-0.341546	0.962664
C83	C	-1.099131	-0.878753	0.425534
C84	C	-0.599131	-0.378753	0.925534
C85	C	-0.816471	-0.915378	0.388816
C86	C	-0.316471	-0.415378	0.888816
C87	C	-0.816489	-0.828752	0.475315
C88	C	-0.316489	-0.328752	0.975315
C89	C	-0.910703	-0.816547	0.487556
C90	C	-0.410703	-0.316547	0.987556
C91	C	-0.199389	-0.952318	0.352032
C92	C	0.300611	-0.452318	0.852032
C93	C	-0.099113	-0.965379	0.339036
C94	C	0.400887	-0.465379	0.839036
C95	C	-0.434644	-0.921715	0.559064
C96	C	0.065356	-0.421715	1.059064
C97	C	-0.434620	-0.921735	0.634293
C98	C	0.065380	-0.421735	1.134293
C99	C	-0.434728	-0.098209	0.382547
C100	C	0.065272	0.401791	0.882547
C101	C	-0.434722	-0.173442	0.382538
C102	C	0.065278	0.326558	0.882538
C103	C	-0.434692	-0.921672	0.206672
C104	C	0.065308	-0.421672	0.706672
C105	C	-0.434462	-0.921817	0.131410
C106	C	0.065538	-0.421817	0.631410
C107	C	-0.376924	-0.972541	0.662166
C108	C	0.123076	-0.472541	1.162166
C109	C	-0.376898	-0.972551	0.732851
C110	C	0.123102	-0.472551	1.232851
C111	C	-0.434572	-0.921758	0.775663
C112	C	0.065428	-0.421758	1.275663
C113	C	-0.492271	-0.870947	0.747785
C114	C	0.007729	-0.370947	1.247785
C115	C	-0.492292	-0.870934	0.677101
C116	C	0.007708	-0.370934	1.177101
C117	C	-0.492187	-0.870996	1.032848
C118	C	0.007813	-0.370996	1.532848
C119	C	-0.492163	-0.871013	1.103537
C120	C	0.007837	-0.371013	1.603537
C121	C	-0.376792	-0.972613	1.088598
C122	C	0.123208	-0.472613	1.588598
C123	C	-0.376813	-0.972600	1.017914
C124	C	0.123187	-0.472600	1.517914
C125	C	-0.434508	-0.921787	0.990042
C126	C	0.065492	-0.421787	1.490042
C127	C	-0.434535	-0.921776	0.913397
C128	C	0.065465	-0.421776	1.413397
C129	C	-0.434551	-0.921771	0.852307
C130	C	0.065449	-0.421771	1.352307
H131	H	-0.539209	-0.650389	0.317396
H132	H	-0.039209	-0.150389	0.817396
H133	H	-0.949078	-0.776313	0.527755
H134	H	-0.449078	-0.276313	1.027755
H135	H	-0.330141	-0.677646	0.447623
H136	H	0.169859	-0.177646	0.947623
N137	N	-0.554459	-0.510825	0.307923
N138	N	-0.054459	-0.010825	0.807923
H139	H	-0.540360	-0.524941	0.257751
H140	H	-0.040360	-0.024941	0.757751
H141	H	-0.545701	-0.461835	0.313425
H142	H	-0.045701	0.038165	0.813425
H143	H	-0.778135	-0.798454	0.505548
H144	H	-0.278135	-0.298454	1.005548
N145	N	-0.906969	-1.080299	0.224186
N146	N	-0.406969	-0.580299	0.724186
H147	H	-0.867824	-1.116718	0.246640
H148	H	-0.367824	-0.616718	0.746640
H149	H	-0.867982	-1.057815	0.187739
H150	H	-0.367982	-0.557815	0.687739
N151	N	-0.554356	-0.816214	1.149711
N152	N	-0.054356	-0.316214	1.649711
H153	H	-0.545585	-0.823935	1.198718
H154	H	-0.045585	-0.323935	1.698718
H155	H	-0.618799	-0.818341	1.145712
H156	H	-0.118799	-0.318341	1.645712
H157	H	-0.833962	-0.999734	0.304586
H158	H	-0.333962	-0.499734	0.804586
H159	H	-0.778117	-0.955611	0.348617
H160	H	-0.278117	-0.455611	0.848617
H161	H	-0.539228	-0.829588	0.782648
H162	H	-0.039228	-0.329588	1.282648
N163	N	-0.554486	-0.155041	0.307945
N164	N	-0.054486	0.344959	0.807945
H165	H	-0.618965	-0.158959	0.326730
H166	H	-0.118965	0.341041	0.826730
H167	H	-0.540304	-0.169179	0.257780
H168	H	-0.040304	0.330821	0.757780
H169	H	-1.090360	-1.045080	0.259439
H170	H	-0.590360	-0.545080	0.759439
H171	H	-1.175848	-0.868820	0.435500
H172	H	-0.675848	-0.368820	0.935500
N173	N	-0.314918	-0.542062	0.457116
N174	N	0.185082	-0.042062	0.957116
H175	H	-0.351634	-0.507968	0.493201
H176	H	0.148366	-0.007968	0.993201
H177	H	-0.273068	-0.518210	0.424192
H178	H	0.226932	-0.018210	0.924192
N179	N	-1.102845	-0.788240	0.515902
N180	N	-0.602845	-0.288240	1.015902
H181	H	-1.058710	-0.766521	0.537566
H182	H	-0.558710	-0.266521	1.037566
H183	H	-1.141888	-0.810710	0.552322
H184	H	-0.641888	-0.310710	1.052322
H185	H	-0.329961	-1.013905	0.627313
H186	H	0.170039	-0.513905	1.127313
H187	H	-0.539265	-0.829557	0.654407
H188	H	-0.039265	-0.329557	1.154407
N189	N	-0.314953	-0.333214	0.457127
N190	N	0.185047	0.166786	0.957127
H191	H	-0.278453	-0.304857	0.479862
H192	H	0.221547	0.195143	0.979862
H193	H	-0.273152	-0.367969	0.424204
H194	H	0.226848	0.132031	0.924204
H195	H	-0.330190	-0.193634	0.447650
H196	H	0.169810	0.306366	0.947650
N197	N	-0.554470	-0.301977	0.307927
N198	N	-0.054470	0.198023	0.807927
H199	H	-0.590974	-0.264098	0.285199
H200	H	-0.090974	0.235902	0.785199
H201	H	-0.596267	-0.325883	0.340841
H202	H	-0.096267	0.174117	0.840841
H203	H	-0.329852	-1.013963	0.983060
H204	H	0.170148	-0.513963	1.483060
H205	H	-0.329918	-1.013924	0.755542
H206	H	0.170082	-0.513924	1.255542
H207	H	-0.329811	-1.013985	1.111299
H208	H	0.170189	-0.513985	1.611299
H209	H	-0.539179	-0.829629	1.010165
H210	H	-0.039179	-0.329629	1.510165
