data_functionalizedCrystal
_audit_creation_method	'MofGen! by Chris Wilmer'
_symmetry_space_group_name_H-M	'P1'
_symmetry_Int_Tables_number	1
_symmetry_cell_setting	triclinic
loop_
_symmetry_equiv_pos_as_xyz
  x,y,z
_cell_length_a	19.805407
_cell_length_b	13.897448
_cell_length_c	19.805399
_cell_angle_alpha	89.974981
_cell_angle_beta	89.980427
_cell_angle_gamma	90.017692
loop_
_atom_site_label
_atom_site_type_symbol
_atom_site_fract_x
_atom_site_fract_y
_atom_site_fract_z
Zn1	Zn	1.034777	-0.384037	-0.382732
Zn2	Zn	1.534777	0.115963	0.117268
Zn3	Zn	1.034709	-0.545343	-0.269549
Zn4	Zn	1.534709	-0.045343	0.230451
Zn5	Zn	0.921591	-0.384064	-0.269556
Zn6	Zn	1.421591	0.115936	0.230444
Zn7	Zn	0.921572	-0.545292	-0.382695
Zn8	Zn	1.421572	-0.045292	0.117305
O9	O	0.978162	-0.464684	-0.326133
O10	O	1.478162	0.035316	0.173867
O11	O	1.129484	-0.405445	-0.367730
O12	O	1.629484	0.094555	0.132270
O13	O	1.019683	-0.523982	-0.174833
O14	O	1.519683	-0.023982	0.325167
O15	O	0.936642	-0.249079	-0.284588
O16	O	1.436642	0.250921	0.215412
O17	O	1.129434	-0.523956	-0.284575
O18	O	1.629434	-0.023956	0.215425
O19	O	1.019799	-0.249059	-0.367737
O20	O	1.519799	0.250941	0.132263
O21	O	0.936576	-0.405490	-0.174839
O22	O	1.436576	0.094510	0.325161
O23	O	0.826872	-0.405441	-0.284552
O24	O	1.326872	0.094559	0.215448
O25	O	0.936609	-0.523869	-0.477417
O26	O	1.436609	-0.023869	0.022583
O27	O	0.826858	-0.523894	-0.367675
O28	O	1.326858	-0.023894	0.132325
O29	O	1.019780	-0.405395	-0.477443
O30	O	1.519780	0.094605	0.022557
O31	O	1.019664	-0.680318	-0.284539
O32	O	1.519664	-0.180318	0.215461
O33	O	0.936543	-0.680280	-0.367668
O34	O	1.436543	-0.180280	0.132332
C35	C	0.802306	-0.464666	-0.326111
C36	C	1.302306	0.035334	0.173889
C37	C	0.727074	-0.464681	-0.326118
C38	C	1.227074	0.035319	0.173882
C39	C	0.691740	-0.526453	-0.369330
C40	C	1.191740	-0.026453	0.130670
C41	C	0.621052	-0.526454	-0.369339
C42	C	1.121052	-0.026454	0.130661
C43	C	0.585699	-0.464688	-0.326133
C44	C	1.085699	0.035312	0.173867
C45	C	0.621037	-0.402910	-0.282919
C46	C	1.121037	0.097090	0.217081
C47	C	0.691725	-0.402904	-0.282913
C48	C	1.191725	0.097096	0.217087
C49	C	0.335964	-0.402931	-0.282941
C50	C	0.835964	0.097069	0.217059
C51	C	0.265272	-0.402944	-0.282949
C52	C	0.765272	0.097056	0.217051
C53	C	0.265292	-0.526481	-0.369367
C54	C	0.765292	-0.026481	0.130633
C55	C	0.335979	-0.526476	-0.369362
C56	C	0.835979	-0.026476	0.130638
C57	C	0.371311	-0.464694	-0.326151
C58	C	0.871311	0.035306	0.173849
C59	C	0.447960	-0.464692	-0.326142
C60	C	0.947960	0.035308	0.173858
C61	C	0.509051	-0.464695	-0.326138
C62	C	1.009051	0.035305	0.173862
C63	C	0.978113	-0.715298	-0.326113
C64	C	1.478113	-0.215298	0.173887
C65	C	0.978154	-0.822512	-0.326128
C66	C	1.478154	-0.322512	0.173872
C67	C	0.978225	-1.018807	-0.326170
C68	C	1.478225	-0.518807	0.173830
C69	C	0.978183	-0.909575	-0.326149
C70	C	1.478183	-0.409575	0.173851
C71	C	1.154705	-0.464703	-0.326155
C72	C	1.654705	0.035297	0.173845
C73	C	1.229937	-0.464711	-0.326165
C74	C	1.729937	0.035289	0.173835
C75	C	0.978200	-0.464623	-0.502676
C76	C	1.478200	0.035377	-0.002676
C77	C	0.978216	-0.464597	-0.577908
C78	C	1.478216	0.035403	-0.077908
C79	C	0.978230	-0.213091	-0.326167
C80	C	1.478230	0.286909	0.173833
C81	C	0.978259	-0.105877	-0.326182
C82	C	1.478259	0.394123	0.173818
C83	C	1.021524	-0.402905	-0.613267
C84	C	1.521524	0.097095	-0.113267
C85	C	1.021531	-0.402877	-0.683955
C86	C	1.521531	0.097123	-0.183955
C87	C	0.978233	-0.464547	-0.719283
C88	C	1.478233	0.035453	-0.219283
C89	C	0.934920	-0.526242	-0.683919
C90	C	1.434920	-0.026242	-0.183919
C91	C	0.934910	-0.526264	-0.613232
C92	C	1.434910	-0.026264	-0.113232
C93	C	0.934958	-0.526152	-0.968993
C94	C	1.434958	-0.026152	-0.468993
C95	C	0.934973	-0.526127	-1.039685
C96	C	1.434973	-0.026127	-0.539685
C97	C	1.021579	-0.402765	-1.039716
C98	C	1.521579	0.097235	-0.539716
C99	C	1.021570	-0.402787	-0.969029
C100	C	1.521570	0.097213	-0.469029
C101	C	0.978255	-0.464478	-0.933671
C102	C	1.478255	0.035522	-0.433671
C103	C	0.978247	-0.464507	-0.857022
C104	C	1.478247	0.035493	-0.357022
C105	C	0.978244	-0.464524	-0.795931
C106	C	1.478244	0.035476	-0.295931
C107	C	0.978163	-0.464675	-0.150277
C108	C	1.478163	0.035325	0.349723
C109	C	0.978278	-0.464429	-0.075045
C110	C	1.478278	0.035571	0.424955
H111	H	0.592247	-0.352615	-0.247743
H112	H	1.092247	0.147385	0.252257
H113	H	0.236515	-0.576783	-0.404554
H114	H	0.736515	-0.076783	0.095446
H115	H	0.364760	-0.576775	-0.404542
H116	H	0.864760	-0.076775	0.095458
C117	C	0.582184	-0.594403	-0.416870
C118	C	1.082184	-0.094403	0.083130
H119	H	0.535022	-0.585555	-0.410692
H120	H	1.035022	-0.085555	0.089308
H121	H	0.593752	-0.659193	-0.406882
H122	H	1.093752	-0.159193	0.093118
H123	H	0.593793	-0.580367	-0.462365
H124	H	1.093793	-0.080367	0.037635
H125	H	0.899712	-0.576347	-1.068447
H126	H	1.399712	-0.076347	-0.568447
C127	C	0.887273	-0.594124	-0.574334
C128	C	1.387273	-0.094124	-0.074334
H129	H	0.893463	-0.585298	-0.527176
H130	H	1.393463	-0.085298	-0.027176
H131	H	0.897159	-0.658933	-0.585909
H132	H	1.397159	-0.158933	-0.085909
H133	H	0.841800	-0.579988	-0.585913
H134	H	1.341800	-0.079988	-0.085913
C135	C	0.887300	-0.593989	-0.930108
C136	C	1.387300	-0.093989	-0.430108
H137	H	0.861516	-0.630711	-0.961274
H138	H	1.361516	-0.130711	-0.461274
H139	H	0.857819	-0.557074	-0.902543
H140	H	1.357819	-0.057074	-0.402543
H141	H	0.913162	-0.636043	-0.902522
H142	H	1.413162	-0.136043	-0.402522
C143	C	0.226384	-0.334991	-0.235425
C144	C	0.726384	0.165009	0.264575
H145	H	0.257550	-0.298187	-0.209694
H146	H	0.757550	0.201813	0.290306
H147	H	0.198790	-0.371832	-0.205889
H148	H	0.698790	0.128168	0.294111
H149	H	0.198828	-0.293017	-0.261381
H150	H	0.698828	0.206983	0.238619
C151	C	0.374821	-0.334991	-0.235400
C152	C	0.874821	0.165009	0.264600
H153	H	0.343640	-0.298220	-0.209662
H154	H	0.843640	0.201780	0.290338
H155	H	0.402418	-0.293003	-0.261331
H156	H	0.902418	0.206997	0.238669
H157	H	0.402373	-0.371846	-0.205860
H158	H	0.902373	0.128154	0.294140
H159	H	1.056830	-0.352573	-0.940268
H160	H	1.556830	0.147427	-0.440268
C161	C	0.730592	-0.334954	-0.235382
C162	C	1.230592	0.165046	0.264618
H163	H	0.699414	-0.298174	-0.209647
H164	H	1.199414	0.201826	0.290353
H165	H	0.758184	-0.292974	-0.261326
H166	H	1.258184	0.207026	0.238674
H167	H	0.758149	-0.371796	-0.205839
H168	H	1.258149	0.128204	0.294161
H169	H	1.056846	-0.352530	-1.068513
H170	H	1.556846	0.147470	-0.568513
C171	C	1.069150	-0.335063	-0.574412
C172	C	1.569150	0.164937	-0.074412
H173	H	1.094938	-0.298311	-0.605598
H174	H	1.594938	0.201689	-0.105598
H175	H	1.098629	-0.371967	-0.546835
H176	H	1.598629	0.128033	-0.046835
H177	H	1.043258	-0.293038	-0.546841
H178	H	1.543258	0.206962	-0.046841
H179	H	0.899664	-0.576451	-0.712689
H180	H	1.399664	-0.076451	-0.212689
C181	C	0.730623	-0.594395	-0.416858
C182	C	1.230623	-0.094395	0.083142
H183	H	0.699453	-0.631176	-0.442600
H184	H	1.199453	-0.131176	0.057400
H185	H	0.758181	-0.636374	-0.390916
H186	H	1.258181	-0.136374	0.109084
H187	H	0.758215	-0.557541	-0.446395
H188	H	1.258215	-0.057541	0.053605
C189	C	1.069174	-0.335021	-0.722848
C190	C	1.569174	0.164979	-0.222848
H191	H	1.094965	-0.298306	-0.691684
H192	H	1.594965	0.201694	-0.191684
H193	H	1.043301	-0.292977	-0.750424
H194	H	1.543301	0.207023	-0.250424
H195	H	1.098659	-0.371923	-0.750423
H196	H	1.598659	0.128077	-0.250423
