data_functionalizedCrystal
_audit_creation_method	'MofGen! by Chris Wilmer'
_symmetry_space_group_name_H-M	'P1'
_symmetry_Int_Tables_number	1
_symmetry_cell_setting	triclinic
loop_
_symmetry_equiv_pos_as_xyz
  x,y,z
_cell_length_a	19.077105
_cell_length_b	21.295417
_cell_length_c	19.077174
_cell_angle_alpha	92.268346
_cell_angle_beta	85.483752
_cell_angle_gamma	87.726672
loop_
_atom_site_label
_atom_site_type_symbol
_atom_site_fract_x
_atom_site_fract_y
_atom_site_fract_z
Zn1	Zn	1.093669	-0.305856	-0.441813
Zn2	Zn	1.593669	0.194144	0.058187
Zn3	Zn	1.088842	-0.406716	-0.323916
Zn4	Zn	1.588842	0.093284	0.176084
Zn5	Zn	0.971055	-0.297057	-0.319212
Zn6	Zn	1.471055	0.202943	0.180788
Zn7	Zn	0.975736	-0.406675	-0.437034
Zn8	Zn	1.475736	0.093325	0.062966
O9	O	1.032326	-0.354076	-0.380494
O10	O	1.532326	0.145924	0.119506
O11	O	1.191679	-0.322935	-0.430143
O12	O	1.691679	0.177065	0.069857
O13	O	1.069238	-0.388505	-0.224642
O14	O	1.569238	0.111495	0.275358
O15	O	0.987382	-0.210138	-0.335507
O16	O	1.487382	0.289862	0.164493
O17	O	1.188132	-0.397037	-0.343524
O18	O	1.688132	0.102963	0.156476
O19	O	1.077466	-0.216603	-0.425582
O20	O	1.577466	0.283397	0.074418
O21	O	0.982701	-0.307938	-0.221186
O22	O	1.482701	0.192062	0.278814
O23	O	0.873027	-0.307898	-0.330872
O24	O	1.373027	0.192102	0.169128
O25	O	0.995359	-0.396967	-0.536317
O26	O	1.495359	0.103033	-0.036317
O27	O	0.876465	-0.388434	-0.417435
O28	O	1.376465	0.111566	0.082565
O29	O	1.082004	-0.322895	-0.539829
O30	O	1.582004	0.177105	-0.039829
O31	O	1.073777	-0.494797	-0.338889
O32	O	1.573777	0.005203	0.161111
O33	O	0.990679	-0.494767	-0.421997
O34	O	1.490679	0.005233	0.078003
C35	C	0.849167	-0.347207	-0.373125
C36	C	1.349167	0.152793	0.126875
C37	C	0.770812	-0.344285	-0.369989
C38	C	1.270812	0.155715	0.130011
C39	C	0.735806	-0.384900	-0.413514
C40	C	1.235806	0.115100	0.086486
C41	C	0.662183	-0.382146	-0.410571
C42	C	1.162183	0.117854	0.089429
C43	C	0.623567	-0.338778	-0.364100
C44	C	1.123567	0.161222	0.135900
C45	C	0.658578	-0.298158	-0.320573
C46	C	1.158578	0.201842	0.179427
C47	C	0.732200	-0.300910	-0.323520
C48	C	1.232200	0.199090	0.176480
C49	C	0.403188	-0.326043	-0.350464
C50	C	0.903188	0.173957	0.149536
C51	C	0.329561	-0.323295	-0.347519
C52	C	0.829561	0.176705	0.152481
C53	C	0.333172	-0.407283	-0.437519
C54	C	0.833172	0.092717	0.062481
C55	C	0.406795	-0.410033	-0.440459
C56	C	0.906795	0.089967	0.059541
C57	C	0.441799	-0.369411	-0.396935
C58	C	0.941799	0.130589	0.103065
N59	N	0.548312	-0.335963	-0.361089
N60	N	1.048312	0.164037	0.138911
N61	N	0.517052	-0.372223	-0.399949
N62	N	1.017052	0.127777	0.100051
C63	C	1.032232	-0.517623	-0.380451
C64	C	1.532232	-0.017623	0.119549
C65	C	1.032257	-0.587592	-0.380459
C66	C	1.532257	-0.087592	0.119541
C67	C	1.075568	-0.620457	-0.337233
C68	C	1.575568	-0.120457	0.162767
C69	C	1.075602	-0.686201	-0.337250
C70	C	1.575602	-0.186201	0.162750
C71	C	1.032311	-0.719078	-0.380485
C72	C	1.532311	-0.219078	0.119515
C73	C	0.988997	-0.686205	-0.423720
C74	C	1.488997	-0.186205	0.076280
C75	C	0.988970	-0.620462	-0.423707
C76	C	1.488970	-0.120462	0.076293
N77	N	0.970858	-0.820236	-0.383378
N78	N	1.470858	-0.320236	0.116622
N79	N	0.970886	-0.882688	-0.383387
N80	N	1.470886	-0.382688	0.116613
C81	C	1.032392	-0.917157	-0.380529
C82	C	1.532392	-0.417157	0.119471
N83	N	1.093870	-0.886813	-0.377648
N84	N	1.593870	-0.386813	0.122352
N85	N	1.093842	-0.824354	-0.377636
N86	N	1.593842	-0.324354	0.122364
C87	C	1.032337	-0.790365	-0.380505
C88	C	1.532337	-0.290365	0.119495
C89	C	1.075744	-1.021309	-0.337319
C90	C	1.575744	-0.521309	0.162681
C91	C	1.075779	-1.087055	-0.337341
C92	C	1.575779	-0.587055	0.162659
C93	C	0.989168	-1.087057	-0.423807
C94	C	1.489168	-0.587057	0.076193
C95	C	0.989139	-1.021313	-0.423789
C96	C	1.489139	-0.521313	0.076211
C97	C	1.032426	-0.988443	-0.380541
C98	C	1.532426	-0.488443	0.119459
C99	C	1.216199	-0.360972	-0.387892
C100	C	1.716199	0.139028	0.112108
C101	C	1.294555	-0.363911	-0.391044
C102	C	1.794555	0.136089	0.108956
C103	C	1.039742	-0.360908	-0.564367
C104	C	1.539742	0.139092	-0.064367
C105	C	1.042903	-0.363819	-0.642723
C106	C	1.542903	0.136181	-0.142723
C107	C	1.032440	-0.189892	-0.380553
C108	C	1.532440	0.310108	0.119447
C109	C	1.032489	-0.119927	-0.380578
C110	C	1.532489	0.380073	0.119422
C111	C	0.999334	-0.323241	-0.677734
C112	C	1.499334	0.176759	-0.177734
C113	C	1.002301	-0.325982	-0.751358
C114	C	1.502301	0.174018	-0.251358
C115	C	1.048841	-0.369298	-0.789968
C116	C	1.548841	0.130702	-0.289968
C117	C	1.092411	-0.409880	-0.754951
C118	C	1.592411	0.090120	-0.254951
C119	C	1.089440	-0.407142	-0.681329
C120	C	1.589440	0.092858	-0.181329
C121	C	1.062554	-0.381988	-1.010348
C122	C	1.562554	0.118012	-0.510348
C123	C	1.065523	-0.384721	-1.083976
C124	C	1.565523	0.115279	-0.583976
C125	C	0.975412	-0.300823	-1.080377
C126	C	1.475412	0.199177	-0.580377
C127	C	0.972448	-0.298087	-1.006754
C128	C	1.472448	0.201913	-0.506754
C129	C	1.016016	-0.338671	-0.971743
C130	C	1.516016	0.161329	-0.471743
N131	N	1.051876	-0.372099	-0.865223
N132	N	1.551876	0.127901	-0.365223
N133	N	1.012976	-0.335873	-0.896489
N134	N	1.512976	0.164127	-0.396489
C135	C	1.024979	-0.347227	-0.197338
C136	C	1.524979	0.152773	0.302662
C137	C	1.021955	-0.344143	-0.118988
C138	C	1.521955	0.155857	0.381012
H139	H	0.767243	-0.420217	-0.451354
H140	H	1.267243	0.079783	0.048646
O141	O	1.117691	-0.989339	-0.295238
O142	O	1.617691	-0.489339	0.204762
C143	C	1.075739	-0.948159	-0.248062
C144	C	1.575739	-0.448159	0.251938
H145	H	1.020053	-0.965779	-0.241431
H146	H	1.520053	-0.465779	0.258569
H147	H	1.074146	-0.899045	-0.269748
H148	H	1.574146	-0.399045	0.230252
C149	C	1.175681	-0.924078	-0.184340
C150	C	1.675681	-0.424078	0.315660
C151	C	1.107288	-0.945722	-0.176190
C152	C	1.607288	-0.445722	0.323810
H153	H	1.195143	-0.922572	-0.140006
H154	H	1.695143	-0.422572	0.359994
H155	H	1.203946	-0.951820	-0.216124
H156	H	1.703946	-0.451820	0.283876
H157	H	1.174345	-0.883152	-0.202413
H158	H	1.674345	-0.383152	0.297587
H159	H	1.108626	-0.986651	-0.158126
H160	H	1.608626	-0.486651	0.341874
H161	H	1.079023	-0.917987	-0.144401
H162	H	1.579023	-0.417987	0.355599
H163	H	0.934549	-0.262816	-0.975322
H164	H	1.434549	0.237184	-0.475322
O165	O	1.104909	-0.421315	-0.976266
O166	O	1.604909	0.078685	-0.476266
C167	C	1.148758	-0.385601	-0.935538
C168	C	1.648758	0.114399	-0.435538
H169	H	1.123481	-0.336556	-0.923527
H170	H	1.623481	0.163444	-0.423527
H171	H	1.202150	-0.381698	-0.966014
H172	H	1.702150	0.118302	-0.466014
C173	C	1.189721	-0.478351	-0.880856
C174	C	1.689721	0.021649	-0.380856
C175	C	1.158673	-0.418115	-0.866099
C176	C	1.658673	0.081885	-0.366099
H177	H	1.195841	-0.498408	-0.838024
H178	H	1.695841	0.001592	-0.338024
H179	H	1.160182	-0.502413	-0.908297
H180	H	1.660182	-0.002413	-0.408297
H181	H	1.234211	-0.475090	-0.906254
H182	H	1.734211	0.024910	-0.406254
H183	H	1.114180	-0.421377	-0.840709
H184	H	1.614180	0.078623	-0.340709
H185	H	1.188205	-0.394054	-0.838652
H186	H	1.688205	0.105946	-0.338652
O187	O	0.437257	-0.286675	-0.308149
O188	O	0.937257	0.213325	0.191851
C189	C	0.477962	-0.322343	-0.264231
C190	C	0.977962	0.177657	0.235769
H191	H	0.489980	-0.371413	-0.289437
H192	H	0.989980	0.128587	0.210563
H193	H	0.447463	-0.326189	-0.210842
H194	H	0.947463	0.173811	0.289158
C195	C	0.532632	-0.229557	-0.223373
C196	C	1.032632	0.270443	0.276627
C197	C	0.547397	-0.289823	-0.254334
C198	C	1.047397	0.210177	0.245666
H199	H	0.575462	-0.209496	-0.217264
H200	H	1.075462	0.290504	0.282736
H201	H	0.505207	-0.205526	-0.252959
H202	H	1.005207	0.294474	0.247041
H203	H	0.507214	-0.232770	-0.178885
H204	H	1.007214	0.267230	0.321115
H205	H	0.572807	-0.286609	-0.298824
H206	H	1.072807	0.213391	0.201176
H207	H	0.574829	-0.313853	-0.224755
H208	H	1.074829	0.186147	0.275245
O209	O	1.117874	-1.118883	-0.295284
O210	O	1.617874	-0.618883	0.204716
C211	C	1.156084	-1.075770	-0.257125
C212	C	1.656084	-0.575770	0.242875
H213	H	1.127090	-1.027759	-0.253490
H214	H	1.627090	-0.527759	0.246510
H215	H	1.210645	-1.071686	-0.285131
H216	H	1.710645	-0.571686	0.214869
C217	C	1.198895	-1.158017	-0.186986
C218	C	1.698895	-0.658017	0.313014
C219	C	1.163281	-1.099050	-0.182517
C220	C	1.663281	-0.599050	0.317483
H221	H	1.203338	-1.172377	-0.140965
H222	H	1.703338	-0.672377	0.359035
H223	H	1.173155	-1.187063	-0.212696
H224	H	1.673155	-0.687063	0.287304
H225	H	1.244359	-1.154605	-0.210327
H226	H	1.744359	-0.654605	0.289673
H227	H	1.117815	-1.102464	-0.159184
H228	H	1.617815	-0.602464	0.340816
H229	H	1.189014	-1.070004	-0.156801
H230	H	1.689014	-0.570004	0.343199
H231	H	0.760700	-0.267833	-0.288081
H232	H	1.260700	0.232167	0.211919
O233	O	1.131661	-0.446621	-0.647279
O234	O	1.631661	0.053379	-0.147279
C235	C	1.089775	-0.484175	-0.603051
C236	C	1.589775	0.015825	-0.103051
H237	H	1.035146	-0.486804	-0.623007
H238	H	1.535146	0.013196	-0.123007
H239	H	1.085106	-0.462546	-0.547165
H240	H	1.585106	0.037454	-0.047165
C241	C	1.191216	-0.547634	-0.578767
C242	C	1.691216	-0.047634	-0.078767
C243	C	1.124122	-0.550867	-0.603280
C244	C	1.624122	-0.050867	-0.103280
H245	H	1.212404	-0.588772	-0.578905
H246	H	1.712404	-0.088772	-0.078905
H247	H	1.219437	-0.522332	-0.608562
H248	H	1.719437	-0.022332	-0.108562
H249	H	1.187317	-0.529607	-0.532197
H250	H	1.687317	-0.029607	-0.032197
H251	H	1.128023	-0.568886	-0.649852
H252	H	1.628023	-0.068886	-0.149852
H253	H	1.095903	-0.576174	-0.573493
H254	H	1.595903	-0.076174	-0.073493
O255	O	0.947137	-1.119081	-0.465744
O256	O	1.447137	-0.619081	0.034256
C257	C	0.956464	-1.184157	-0.456505
C258	C	1.456464	-0.684157	0.043495
H259	H	0.977403	-1.191987	-0.403051
H260	H	1.477403	-0.691987	0.096949
H261	H	0.995670	-1.205721	-0.499862
H262	H	1.495670	-0.705721	0.000138
C263	C	0.859688	-1.205917	-0.525703
C264	C	1.359688	-0.705917	-0.025703
C265	C	0.885400	-1.215534	-0.460048
C266	C	1.385400	-0.715534	0.039952
H267	H	0.815854	-1.225274	-0.527891
H268	H	1.315854	-0.725274	-0.027891
H269	H	0.853405	-1.162075	-0.531930
H270	H	1.353405	-0.662075	-0.031930
H271	H	0.892366	-1.223888	-0.561826
H272	H	1.392366	-0.723888	-0.061826
H273	H	0.852727	-1.197557	-0.423926
H274	H	1.352727	-0.697557	0.076074
H275	H	0.891676	-1.259375	-0.453814
H276	H	1.391676	-0.759375	0.046186
O277	O	0.946993	-0.989480	-0.465792
O278	O	1.446993	-0.489480	0.034208
C279	C	0.908802	-1.032593	-0.503970
C280	C	1.408802	-0.532593	-0.003970
H281	H	0.905241	-1.078308	-0.475007
H282	H	1.405241	-0.578308	0.024993
H283	H	0.936735	-1.042495	-0.558571
H284	H	1.436735	-0.542495	-0.058571
C285	C	0.838534	-0.948410	-0.546614
C286	C	1.338534	-0.448410	-0.046614
C287	C	0.834156	-1.004556	-0.511038
C288	C	1.334156	-0.504556	-0.011038
H289	H	0.792490	-0.931115	-0.550977
H290	H	1.292490	-0.431115	-0.050977
H291	H	0.864265	-0.919363	-0.520895
H292	H	1.364265	-0.419363	-0.020895
H293	H	0.861814	-0.956669	-0.592111
H294	H	1.361814	-0.456669	-0.092111
H295	H	0.810884	-0.996294	-0.465540
H296	H	1.310884	-0.496294	0.034460
H297	H	0.808419	-1.033601	-0.536750
H298	H	1.308419	-0.533601	-0.036750
O299	O	0.959954	-0.286498	-0.785258
O300	O	1.459954	0.213502	-0.285258
C301	C	0.918232	-0.247687	-0.735393
C302	C	1.418232	0.252313	-0.235393
H303	H	0.944993	-0.244641	-0.684075
H304	H	1.444993	0.255359	-0.184075
H305	H	0.864358	-0.268434	-0.725398
H306	H	1.364358	0.231566	-0.225398
C307	C	0.876415	-0.185121	-0.826773
C308	C	1.376415	0.314879	-0.326773
C309	C	0.909286	-0.181375	-0.763746
C310	C	1.409286	0.318625	-0.263746
H311	H	0.870894	-0.144217	-0.844263
H312	H	1.370894	0.355783	-0.344263
H313	H	0.904522	-0.211270	-0.860369
H314	H	1.404522	0.288730	-0.360369
H315	H	0.831524	-0.202413	-0.818436
H316	H	1.331524	0.297587	-0.318436
H317	H	0.954181	-0.164091	-0.772086
H318	H	1.454181	0.335909	-0.272086
H319	H	0.881187	-0.155221	-0.730151
H320	H	1.381187	0.344779	-0.230151
H321	H	0.438231	-0.445349	-0.478299
H322	H	0.938231	0.054651	0.021701
O323	O	0.933061	-0.261342	-1.114277
O324	O	1.433061	0.238658	-0.614277
C325	C	0.891333	-0.222537	-1.064410
C326	C	1.391333	0.277463	-0.564410
H327	H	0.918094	-0.219488	-1.013093
H328	H	1.418094	0.280512	-0.513093
H329	H	0.837463	-0.243291	-1.054416
H330	H	1.337463	0.256709	-0.554416
C331	C	0.849506	-0.159975	-1.155789
C332	C	1.349506	0.340025	-0.655789
C333	C	0.882376	-0.156226	-1.092762
C334	C	1.382376	0.343774	-0.592762
H335	H	0.843977	-0.119072	-1.173278
H336	H	1.343977	0.380928	-0.673278
H337	H	0.877616	-0.186120	-1.189386
H338	H	1.377616	0.313880	-0.689386
H339	H	0.804617	-0.177273	-1.147452
H340	H	1.304617	0.322727	-0.647452
H341	H	0.927267	-0.138935	-1.101101
H342	H	1.427267	0.361065	-0.601101
H343	H	0.854273	-0.130076	-1.059167
H344	H	1.354273	0.369924	-0.559167
O345	O	0.628289	-0.421672	-0.452870
O346	O	1.128289	0.078328	0.047130
C347	C	0.678160	-0.460534	-0.494524
C348	C	1.178160	0.039466	0.005476
H349	H	0.729469	-0.463553	-0.467746
H350	H	1.229469	0.036447	0.032254
H351	H	0.688172	-0.439852	-0.548432
H352	H	1.188172	0.060148	-0.048432
C353	C	0.586782	-0.523137	-0.536265
C354	C	1.086782	-0.023137	-0.036265
C355	C	0.649799	-0.526849	-0.503373
C356	C	1.149799	-0.026849	-0.003373
H357	H	0.569288	-0.564043	-0.541727
H358	H	1.069288	-0.064043	-0.041727
H359	H	0.553183	-0.496954	-0.508204
H360	H	1.053183	0.003046	-0.008204
H361	H	0.595134	-0.505900	-0.581185
H362	H	1.095134	-0.005900	-0.081185
H363	H	0.641445	-0.544079	-0.458450
H364	H	1.141445	-0.044079	0.041550
H365	H	0.683397	-0.553037	-0.531426
H366	H	1.183397	-0.053037	-0.031426
H367	H	1.110874	-0.712965	-0.302050
H368	H	1.610874	-0.212965	0.197950
O369	O	1.110751	-0.426859	-1.121375
O370	O	1.610751	0.073141	-0.621375
C371	C	1.148581	-0.462083	-1.074688
C372	C	1.648581	0.037917	-0.574688
H373	H	1.117588	-0.461231	-1.021046
H374	H	1.617588	0.038769	-0.521046
H375	H	1.201823	-0.440751	-1.069019
H376	H	1.701823	0.059249	-0.569019
C377	C	1.197918	-0.531569	-1.169696
C378	C	1.697918	-0.031569	-0.669696
C379	C	1.159848	-0.530529	-1.103813
C380	C	1.659848	-0.030529	-0.603813
H381	H	1.204871	-0.573790	-1.187662
H382	H	1.704871	-0.073790	-0.687662
H383	H	1.172433	-0.507837	-1.201151
H384	H	1.672433	-0.007837	-0.701151
H385	H	1.242282	-0.513790	-1.164963
H386	H	1.742282	-0.013790	-0.664963
H387	H	1.115482	-0.548300	-1.108549
H388	H	1.615482	-0.048300	-0.608549
H389	H	1.185325	-0.554265	-1.072360
H390	H	1.685325	-0.054265	-0.572360
H391	H	0.961440	-0.287965	-0.646303
H392	H	1.461440	0.212035	-0.146303
H393	H	0.304663	-0.440354	-0.472954
H394	H	0.804663	0.059646	0.027046
H395	H	0.298121	-0.287973	-0.309681
H396	H	0.798121	0.212027	0.190319
O397	O	0.946996	-0.588512	-0.465775
O398	O	1.446996	-0.088512	0.034225
C399	C	0.988915	-0.553611	-0.512929
C400	C	1.488915	-0.053611	-0.012929
H401	H	1.044620	-0.575618	-0.519568
H402	H	1.544620	-0.075618	-0.019568
H403	H	0.990460	-0.503076	-0.491219
H404	H	1.490460	-0.003076	0.008781
C405	C	0.888952	-0.526996	-0.576645
C406	C	1.388952	-0.026996	-0.076645
C407	C	0.957369	-0.554028	-0.584803
C408	C	1.457369	-0.054028	-0.084803
H409	H	0.869492	-0.527250	-0.620979
H410	H	1.369492	-0.027250	-0.120979
H411	H	0.860710	-0.550508	-0.544874
H412	H	1.360710	-0.050508	-0.044874
H413	H	0.890249	-0.484886	-0.558551
H414	H	1.390249	0.015114	-0.058551
H415	H	0.956070	-0.596140	-0.602888
H416	H	1.456070	-0.096140	-0.102888
H417	H	0.985610	-0.530524	-0.616578
H418	H	1.485610	-0.030524	-0.116578
H419	H	0.627131	-0.262845	-0.282738
H420	H	1.127131	0.237155	0.217262
H421	H	0.953751	-0.712977	-0.458924
H422	H	1.453751	-0.212977	0.041076
H423	H	1.110817	-0.593696	-0.302020
H424	H	1.610817	-0.093696	0.197980
H425	H	1.130301	-0.445152	-0.786394
H426	H	1.630301	0.054848	-0.286394
