data_functionalizedCrystal
_audit_creation_method	'MofGen! by Chris Wilmer'
_symmetry_space_group_name_H-M	'P1'
_symmetry_Int_Tables_number	1
_symmetry_cell_setting	triclinic
loop_
_symmetry_equiv_pos_as_xyz
  x,y,z
_cell_length_a	27.440280
_cell_length_b	14.560438
_cell_length_c	14.560438
_cell_angle_alpha	60.005846
_cell_angle_beta	89.993915
_cell_angle_gamma	59.993522
loop_
_atom_site_label
_atom_site_type_symbol
_atom_site_fract_x
_atom_site_fract_y
_atom_site_fract_z
Zr1	Zr	0.469519	1.005105	-0.120410
O2	O	0.391707	1.196705	-0.267024
O3	O	0.493370	0.813516	-0.075484
O4	O	0.493376	1.005101	-0.267059
O5	O	0.391699	1.005119	0.075690
O6	O	0.573578	1.005087	-0.267065
O7	O	0.391701	1.005120	-0.075449
O8	O	0.573567	0.662376	0.075628
O9	O	0.391710	1.347830	-0.267002
O10	O	0.563400	0.892305	-0.056305
O11	O	0.503545	0.892316	0.056493
O12	O	0.503552	1.117883	-0.169061
O13	O	0.443697	1.117893	-0.056263
Zr14	Zr	0.597430	1.005081	0.120632
Zr15	Zr	0.597432	1.005082	-0.120419
Zr16	Zr	0.469517	1.005105	0.120640
Zr17	Zr	0.469525	1.246133	-0.120375
Zr18	Zr	0.597425	0.764054	0.120596
O19	O	0.573579	1.196671	0.075706
O20	O	0.573582	1.196671	-0.267037
O21	O	0.391703	1.196704	0.075718
O22	O	0.675242	0.813482	0.267246
O23	O	0.675246	0.813483	-0.075497
O24	O	0.493367	0.813515	0.267258
O25	O	0.675250	1.005068	-0.075469
O26	O	0.573573	1.005086	0.267281
O27	O	0.493371	1.005100	0.267286
O28	O	0.675248	1.005067	0.075671
O29	O	0.493384	1.347812	-0.267009
O30	O	0.573565	0.662375	0.267231
O31	O	0.675239	0.662357	0.267224
O32	O	0.675241	0.662357	0.075621
O33	O	0.391708	1.347830	-0.075399
O34	O	0.493382	1.347811	-0.075406
O35	O	0.563397	0.892304	0.169283
O36	O	0.623252	0.892294	0.056485
O37	O	0.563404	1.117871	-0.056272
O38	O	0.503549	1.117882	0.056526
C39	C	0.533468	0.703605	0.000067
C40	C	0.533466	0.601282	0.000052
C41	C	0.489287	0.636417	-0.083166
C42	C	0.489296	0.540228	-0.083110
C43	C	0.577667	0.373770	0.083393
C44	C	0.577659	0.469959	0.083331
C45	C	0.438265	0.732519	-0.179293
C46	C	0.438274	0.636330	-0.179236
C47	C	0.373475	1.005123	0.000122
C48	C	0.319173	1.005133	0.000126
C49	C	-0.017524	1.005065	-0.083155
C50	C	-0.068542	1.005056	-0.083156
O51	O	-0.094916	1.005007	-0.153945
N52	N	-0.094061	1.005058	0.000107
C53	C	-0.068555	1.005056	0.083383
O54	O	-0.094945	1.005056	0.154205
C55	C	-0.017536	1.005056	0.083387
C56	C	0.007977	1.005067	0.000112
C57	C	0.007989	1.005074	-0.166422
C58	C	0.059003	1.005086	-0.166423
C59	C	0.084503	1.005088	-0.083155
C60	C	0.058990	1.005079	0.000112
C61	C	0.007971	1.005045	0.166666
C62	C	0.058994	1.005044	0.166664
C63	C	0.084507	1.005055	0.083389
C64	C	0.135505	1.005092	0.083379
N65	N	0.161024	1.005090	0.000116
C66	C	0.135523	1.005088	-0.083151
C67	C	-0.175699	1.005054	0.083368
C68	C	-0.226720	1.005063	0.083360
C69	C	-0.226703	1.005060	-0.083177
C70	C	-0.175683	1.005060	-0.083173
C71	C	-0.150180	1.005052	0.000106
C72	C	0.242655	1.005114	-0.083146
C73	C	0.293672	1.005131	-0.083142
C74	C	0.293652	1.005127	0.083399
C75	C	0.242638	1.005117	0.083391
C76	C	0.217142	1.005106	0.000114
O77	O	0.161913	1.005135	0.154135
O78	O	0.161924	1.005071	-0.153953
C79	C	0.693474	1.005064	0.000100
C80	C	0.747777	1.005054	0.000096
C81	C	0.533478	1.005094	-0.301406
C82	C	0.533479	1.005094	-0.403739
C83	C	0.533481	1.306582	0.000155
C84	C	0.533483	1.408905	0.000170
C85	C	0.577660	1.005092	-0.451826
C86	C	0.577657	1.005086	-0.547975
C87	C	0.489287	1.005091	-0.547944
C88	C	0.489293	1.005088	-0.451792
C89	C	0.628679	1.005094	-0.451847
C90	C	0.628676	1.005089	-0.547996
C91	C	0.533471	1.005093	0.301628
C92	C	0.533470	1.005093	0.403960
C93	C	0.693468	0.703575	0.000056
C94	C	0.747768	0.601243	0.000037
C95	C	0.533465	0.703604	0.301584
C96	C	0.533462	0.601281	0.403901
C97	C	0.693465	0.703575	0.301573
C98	C	0.747764	0.601242	0.403886
C99	C	0.373485	1.306612	-0.301351
C100	C	0.319186	1.408945	-0.403665
C101	C	0.373481	1.306612	0.000166
C102	C	0.319181	1.408944	0.000185
C103	C	0.533484	1.306583	-0.301362
C104	C	0.533487	1.408906	-0.403679
C105	C	0.742025	0.553192	-0.058857
C106	C	0.793041	0.457053	-0.058897
C107	C	0.849799	0.408960	-0.000036
C108	C	0.855541	0.457020	0.058860
C109	C	0.804525	0.553164	0.058893
C110	C	0.804512	0.553180	0.393054
C111	C	0.855537	0.457041	0.489180
C112	C	0.849812	0.408959	0.596136
C113	C	0.793057	0.457031	0.606965
C114	C	0.742034	0.553174	0.510841
C115	C	0.262437	1.457019	-0.392833
C116	C	0.211412	1.553188	-0.488958
C117	C	0.217137	1.601275	-0.595914
C118	C	0.273892	1.553197	-0.606744
C119	C	0.324915	1.457036	-0.510620
C120	C	0.324924	1.457005	0.059069
C121	C	0.273908	1.553170	0.059082
C122	C	0.217150	1.601267	0.000218
C123	C	0.211409	1.553202	-0.058674
C124	C	0.262424	1.457045	-0.058693
C125	C	0.564704	0.553199	0.510845
C126	C	0.564696	0.457061	0.606979
C127	C	0.502203	0.457092	0.489211
C128	C	0.502208	0.553235	0.393080
C129	C	0.600785	0.553177	0.578838
C130	C	0.600777	0.457039	0.674972
H131	H	0.397686	0.792200	-0.162494
Cl132	Cl	0.091052	1.005030	0.271366
H133	H	0.221903	1.005102	-0.150957
H134	H	0.613648	0.266838	0.151196
H135	H	0.278594	1.592288	0.107043
H136	H	0.672254	0.914694	-0.380576
Cl137	Cl	0.396254	1.396603	-0.524257
H138	H	0.476757	0.417962	0.480414
H139	H	0.447189	0.636295	-0.255694
Cl140	Cl	0.564032	0.512811	0.753613
H141	H	0.619765	1.098361	-0.468648
H142	H	0.695815	0.592349	-0.106803
Cl143	Cl	0.674530	0.318062	0.755563
Cl144	Cl	0.926898	0.396540	0.132857
H145	H	0.257764	1.417872	-0.305753
Cl146	Cl	0.569808	0.692145	0.578880
H147	H	0.175615	1.679564	0.000243
Cl148	Cl	0.396270	1.396567	0.133073
Cl149	Cl	0.140071	1.613603	-0.475318
Cl150	Cl	0.140051	1.613675	-0.132664
H151	H	0.394702	0.647153	-0.170924
Cl152	Cl	0.462920	0.613698	0.258636
Cl153	Cl	0.255194	1.396629	-0.132718
H154	H	0.646977	0.517037	0.570101
Cl155	Cl	0.913962	0.288088	0.716968
H156	H	0.442657	0.795494	-0.261425
Cl157	Cl	0.691322	0.861085	-0.522075
H158	H	0.788355	0.417934	-0.106857
Cl159	Cl	0.633207	0.425782	0.187942
Cl160	Cl	0.621888	1.144650	-0.658063
Cl161	Cl	0.091073	1.005087	-0.271108
H162	H	0.314442	1.005143	-0.150958
H163	H	0.809185	0.592314	0.305974
H164	H	-0.154913	1.005068	-0.150982
Cl165	Cl	-0.024061	1.005072	-0.271115
H166	H	-0.247474	1.005056	-0.150976
H167	H	0.788405	0.417868	0.694062
H168	H	-0.247494	1.005075	0.151160
H169	H	0.901744	0.417911	0.480342
H170	H	0.695829	0.592294	0.519676
H171	H	0.809209	0.592274	0.106858
Cl172	Cl	-0.143647	1.005059	0.188064
H173	H	0.175586	1.679574	-0.674175
H174	H	0.278546	1.592362	-0.693839
H175	H	0.891334	0.330673	-0.000071
H176	H	-0.012794	1.005035	0.234476
Cl177	Cl	0.210561	1.005123	0.188073
H178	H	0.314421	1.005134	0.151191
H179	H	0.453312	1.005085	-0.587079
Cl180	Cl	0.433756	1.005065	-0.391326
