data_functionalizedCrystal
_audit_creation_method	'MofGen! by Chris Wilmer'
_symmetry_space_group_name_H-M	'P1'
_symmetry_Int_Tables_number	1
_symmetry_cell_setting	triclinic
loop_
_symmetry_equiv_pos_as_xyz
  x,y,z
_cell_length_a	10.654549
_cell_length_b	19.288857
_cell_length_c	9.730223
_cell_angle_alpha	89.993455
_cell_angle_beta	89.997731
_cell_angle_gamma	83.808943
loop_
_atom_site_label
_atom_site_type_symbol
_atom_site_fract_x
_atom_site_fract_y
_atom_site_fract_z
O1	O	1.665746	0.097554	-0.114266
O2	O	2.165746	0.597554	0.385734
O3	O	1.300068	0.106848	-0.114276
O4	O	1.800068	0.606848	0.385724
O5	O	1.493479	0.001139	-0.114254
O6	O	1.993479	0.501139	0.385746
O7	O	1.472336	0.203262	-0.114288
O8	O	1.972336	0.703262	0.385712
O9	O	1.493466	0.001137	0.114326
O10	O	1.993466	0.501137	0.614326
O11	O	1.300056	0.106845	0.114304
O12	O	1.800056	0.606845	0.614304
O13	O	1.665734	0.097551	0.114314
O14	O	2.165734	0.597551	0.614314
Zn15	Zn	1.482893	0.102198	0.150601
Zn16	Zn	1.982893	0.602198	0.650601
Zn17	Zn	1.482909	0.102201	-0.150563
Zn18	Zn	1.982909	0.602201	0.349437
O19	O	1.472324	0.203260	0.114292
O20	O	1.972324	0.703260	0.614292
C21	C	1.253279	0.106164	0.000013
C22	C	1.753279	0.606164	0.500013
C23	C	1.113879	0.104123	0.000010
C24	C	1.613879	0.604123	0.500010
C25	C	0.902070	0.164439	0.000005
C26	C	1.402070	0.664439	0.500005
C27	C	1.033050	0.166362	-0.000003
C28	C	1.533050	0.666362	0.499997
C29	C	1.063724	0.039955	0.000017
C30	C	1.563724	0.539955	0.500017
C31	C	0.932747	0.038032	0.000016
C32	C	1.432747	0.538032	0.500016
C33	C	1.492794	-0.024743	0.000037
C34	C	1.992794	0.475257	0.500037
C35	C	1.490756	-0.101860	0.000041
C36	C	1.990756	0.398140	0.500041
C37	C	1.489812	-0.138075	-0.124558
C38	C	1.989812	0.361925	0.375442
C39	C	1.487880	-0.210534	-0.124568
C40	C	1.987880	0.289466	0.375432
C41	C	1.486917	-0.246776	0.000028
C42	C	1.986917	0.253224	0.500028
C43	C	1.487855	-0.210552	0.124643
C44	C	1.987855	0.289448	0.624643
C45	C	1.489774	-0.138094	0.124650
C46	C	1.989774	0.361906	0.624650
C47	C	1.557425	-0.366547	0.095478
C48	C	2.057425	0.133453	0.595478
C49	C	1.555514	-0.439005	0.095466
C50	C	2.055514	0.060995	0.595466
C51	C	1.480991	-0.470261	0.000012
C52	C	1.980991	0.029739	0.500012
C53	C	1.408397	-0.429052	-0.095453
C54	C	1.908397	0.070948	0.404547
C55	C	1.410317	-0.356594	-0.095446
C56	C	1.910317	0.143406	0.404554
C57	C	1.484835	-0.325345	0.000034
C58	C	1.984835	0.174655	0.500034
C59	C	1.477950	-0.585044	-0.124607
C60	C	1.977950	-0.085044	0.375393
C61	C	1.476010	-0.657504	-0.124612
C62	C	1.976010	-0.157504	0.375388
C63	C	1.475998	-0.657521	0.124603
C64	C	1.975998	-0.157521	0.624603
C65	C	1.477925	-0.585062	0.124605
C66	C	1.977925	-0.085062	0.624605
C67	C	1.478907	-0.548828	-0.000004
C68	C	1.978907	-0.048828	0.499996
C69	C	1.712523	0.098235	0.000023
C70	C	2.212523	0.598235	0.500023
C71	C	1.851923	0.100276	0.000017
C72	C	2.351923	0.600276	0.500017
C73	C	1.473008	0.229142	-0.000002
C74	C	1.973008	0.729142	0.499998
C75	C	1.475046	0.306259	-0.000015
C76	C	1.975046	0.806259	0.499985
N77	N	1.482891	0.102195	0.356138
N78	N	1.982891	0.602195	0.856138
N79	N	1.482921	0.102199	-0.356099
N80	N	1.982921	0.602199	0.143901
C81	C	1.568562	0.055407	0.428073
C82	C	2.068562	0.555407	0.928073
C83	C	1.568574	0.055407	0.571956
C84	C	2.068574	0.555407	1.071956
C85	C	1.397241	0.148989	0.571955
C86	C	1.897241	0.648989	1.071955
C87	C	1.397224	0.148985	0.428075
C88	C	1.897224	0.648985	0.928075
H89	H	1.490609	-0.108578	-0.226024
H90	H	1.990609	0.391422	0.273976
H91	H	1.614629	-0.472552	0.173194
H92	H	2.114629	0.027448	0.673194
H93	H	1.327494	0.187086	0.630541
H94	H	1.827494	0.687086	1.130541
O95	O	1.304822	0.199453	0.350471
O96	O	1.804822	0.699453	0.850471
H97	H	1.245269	0.231998	0.424662
H98	H	1.745269	0.731998	0.924662
H99	H	1.475204	-0.687028	0.226052
H100	H	1.975204	-0.187028	0.726052
O101	O	1.486859	-0.249608	-0.258962
O102	O	1.986859	0.250392	0.241038
H103	H	1.572813	-0.241483	-0.318697
H104	H	2.072813	0.258517	0.181303
H105	H	0.836267	0.215122	0.000005
H106	H	1.336267	0.715122	0.500005
O107	O	1.660976	0.004944	0.649550
O108	O	2.160976	0.504944	1.149550
H109	H	1.721829	0.034502	0.715091
H110	H	2.221829	0.534502	1.215091
O111	O	1.087132	0.235569	0.000007
O112	O	1.587132	0.735569	0.500007
H113	H	1.054630	0.265515	-0.093150
H114	H	1.554630	0.765515	0.406850
O115	O	1.150895	-0.027178	0.000044
O116	O	1.650895	0.472822	0.500044
H117	H	1.250398	-0.015063	0.000063
H118	H	1.750398	0.484937	0.500063
H119	H	1.351206	-0.323044	-0.173174
H120	H	1.851206	0.176956	0.326826
H121	H	1.478704	-0.555576	0.226067
H122	H	1.978704	-0.055576	0.726067
H123	H	0.891918	-0.014220	0.000021
H124	H	1.391918	0.485780	0.500021
H125	H	1.347714	-0.454499	-0.173181
H126	H	1.847714	0.045501	0.326819
O127	O	1.478981	-0.545955	-0.258999
O128	O	1.978981	-0.045955	0.241001
H129	H	1.564177	-0.565642	-0.318761
H130	H	2.064177	-0.065642	0.181239
O131	O	1.474943	-0.696567	-0.259007
O132	O	1.974943	-0.196567	0.240993
H133	H	1.475943	-0.659195	-0.345647
H134	H	1.975943	-0.159195	0.154353
O135	O	1.637814	-0.332837	0.198431
O136	O	2.137814	0.167163	0.698431
H137	H	1.687986	-0.373664	0.264793
H138	H	2.187986	0.126336	0.764793
H139	H	1.487067	-0.240065	0.226090
H140	H	1.987067	0.259935	0.726090
O141	O	1.490815	-0.099027	0.259044
O142	O	1.990815	0.400973	0.759044
H143	H	1.489830	-0.136399	0.345686
H144	H	1.989830	0.363601	0.845686
O145	O	1.660924	0.004921	0.350488
O146	O	2.160924	0.504921	0.850488
H147	H	1.646521	0.012775	0.238352
H148	H	2.146521	0.512775	0.738352
