data_functionalizedCrystal
_audit_creation_method	'MofGen! by Chris Wilmer'
_symmetry_space_group_name_H-M	'P1'
_symmetry_Int_Tables_number	1
_symmetry_cell_setting	triclinic
loop_
_symmetry_equiv_pos_as_xyz
  x,y,z
_cell_length_a	14.908783
_cell_length_b	14.908506
_cell_length_c	14.908308
_cell_angle_alpha	83.637915
_cell_angle_beta	90.211273
_cell_angle_gamma	96.790846
loop_
_atom_site_label
_atom_site_type_symbol
_atom_site_fract_x
_atom_site_fract_y
_atom_site_fract_z
Zn1	Zn	1.325984	-0.317645	0.605038
Zn2	Zn	1.825984	0.182355	1.105038
Zn3	Zn	1.325883	-0.460296	0.462406
Zn4	Zn	1.825883	0.039704	0.962406
Zn5	Zn	1.184357	-0.316663	0.445956
Zn6	Zn	1.684357	0.183337	0.945956
Zn7	Zn	1.165851	-0.477687	0.604970
Zn8	Zn	1.665851	0.022313	1.104970
O9	O	1.250519	-0.393073	0.529592
O10	O	1.750519	0.106927	1.029592
O11	O	1.452216	-0.329702	0.593030
O12	O	1.952216	0.170298	1.093030
O13	O	1.314812	-0.433554	0.333984
O14	O	1.814812	0.066446	0.833984
O15	O	1.210931	-0.189704	0.460203
O16	O	1.710931	0.310296	0.960203
O17	O	1.452142	-0.434507	0.488239
O18	O	1.952142	0.065493	0.988239
O19	O	1.314984	-0.190426	0.577079
O20	O	1.814984	0.309574	1.077079
O21	O	1.210834	-0.328027	0.321898
O22	O	1.710834	0.171973	0.821898
O23	O	1.055656	-0.344889	0.460136
O24	O	1.555656	0.155111	0.960136
O25	O	1.179390	-0.464146	0.731218
O26	O	1.679390	0.035854	1.231218
O27	O	1.042060	-0.463193	0.576963
O28	O	1.542060	0.036807	1.076963
O29	O	1.297039	-0.346564	0.731268
O30	O	1.797039	0.153436	1.231268
O31	O	1.296868	-0.589693	0.488173
O32	O	1.796868	-0.089693	0.988173
O33	O	1.179292	-0.602469	0.592914
O34	O	1.679292	-0.102469	1.092914
C35	C	1.016124	-0.405822	0.516758
C36	C	1.516124	0.094178	1.016758
C37	C	0.915846	-0.411300	0.511290
C38	C	1.415846	0.088700	1.011290
C39	C	1.236084	-0.629034	0.542342
C40	C	1.736084	-0.129034	1.042342
C41	C	1.229989	-0.729976	0.547831
C42	C	1.729989	-0.229976	1.047831
C43	C	1.160143	-0.878933	0.610044
C44	C	1.660143	-0.378933	1.110044
C45	C	1.165867	-0.784090	0.604893
C46	C	1.665867	-0.284090	1.104893
C47	C	1.288394	-0.770712	0.495919
C48	C	1.788394	-0.270712	0.995919
C49	C	1.282670	-0.865556	0.501071
C50	C	1.782670	-0.365556	1.001071
C51	C	1.218541	-0.919664	0.558134
C52	C	1.718541	-0.419664	1.058134
C53	C	1.212814	-1.014509	0.563280
C54	C	1.712814	-0.514509	1.063280
C55	C	1.335345	-1.001130	0.454312
C56	C	1.835345	-0.501130	0.954312
C57	C	1.341069	-0.906286	0.449161
C58	C	1.841069	-0.406286	0.949161
C59	C	0.727468	-0.312629	0.610319
C60	C	1.227468	0.187371	1.110319
C61	C	0.633248	-0.317773	0.605184
C62	C	1.133248	0.182227	1.105184
C63	C	0.633186	-0.426725	0.495881
C64	C	1.133186	0.073275	0.995881
C65	C	0.727405	-0.421582	0.501016
C66	C	1.227405	0.078418	1.001016
C67	C	0.774543	-0.364533	0.558238
C68	C	1.274543	0.135467	1.058238
C69	C	0.868764	-0.359394	0.563377
C70	C	1.368764	0.140606	1.063377
C71	C	0.868700	-0.468342	0.454070
C72	C	1.368700	0.031658	0.954070
C73	C	0.774480	-0.473486	0.448935
C74	C	1.274480	0.026514	0.948935
C75	C	1.485829	-0.380274	0.542477
C76	C	1.985829	0.119726	1.042477
C77	C	1.586104	-0.374820	0.547968
C78	C	2.086104	0.125180	1.047968
C79	C	1.236161	-0.407405	0.764891
C80	C	1.736161	0.092595	1.264891
C81	C	1.230043	-0.413512	0.865162
C82	C	1.730043	0.086488	1.365162
C83	C	1.265033	-0.156191	0.516814
C84	C	1.765033	0.343809	1.016814
C85	C	1.271218	-0.055245	0.511368
C86	C	1.771218	0.444755	1.011368
C87	C	1.264876	-0.378728	0.295208
C88	C	1.764876	0.121272	0.795208
C89	C	1.271185	-0.372355	0.194934
C90	C	1.771185	0.127645	0.694934
C91	C	1.341053	-0.302530	1.053633
C92	C	1.841053	0.197470	1.553633
C93	C	1.335307	-0.308265	1.147846
C94	C	1.835307	0.191735	1.647846
C95	C	1.212802	-0.430713	1.147802
C96	C	1.712802	0.069287	1.647802
C97	C	1.218548	-0.424978	1.053589
C98	C	1.718548	0.075022	1.553589
C99	C	1.282676	-0.360885	1.006508
C100	C	1.782676	0.139115	1.506508
C101	C	1.288426	-0.355155	0.912294
C102	C	1.788426	0.144845	1.412294
C103	C	1.165917	-0.477598	0.912251
C104	C	1.665917	0.022402	1.412251
C105	C	1.160171	-0.483333	1.006464
C106	C	1.660171	0.016667	1.506464
H107	H	1.107928	-0.922989	0.656509
H108	H	1.607928	-0.422989	1.156509
H109	H	0.736088	-0.519930	0.402344
H110	H	1.236088	-0.019930	0.902344
O111	O	1.109044	-0.744671	0.655350
O112	O	1.609044	-0.244671	1.155350
C113	C	1.051236	-0.812769	0.706836
C114	C	1.551236	-0.312769	1.206836
H115	H	1.046314	-0.878309	0.673386
H116	H	1.546314	-0.378309	1.173386
H117	H	0.981214	-0.789880	0.711028
H118	H	1.481214	-0.289880	1.211028
H119	H	1.079432	-0.825185	0.777727
H120	H	1.579432	-0.325185	1.277727
H121	H	1.393273	-0.250347	1.015299
H122	H	1.893273	0.249653	1.515299
H123	H	1.382897	-1.034302	0.412043
H124	H	1.882897	-0.534302	0.912043
H125	H	0.907038	-0.510613	0.411669
H126	H	1.407038	-0.010613	0.911669
O127	O	1.109331	-0.534320	0.866386
O128	O	1.609331	-0.034320	1.366386
C129	C	1.160424	-0.586885	0.817889
C130	C	1.660424	-0.086885	1.317889
H131	H	1.231614	-0.550273	0.805783
H132	H	1.731614	-0.050273	1.305783
H133	H	1.126970	-0.597030	0.750286
H134	H	1.626970	-0.097030	1.250286
H135	H	1.164003	-0.655855	0.858379
H136	H	1.664003	-0.155855	1.358379
O137	O	0.914665	-0.303921	0.618836
O138	O	1.414665	0.196079	1.118836
C139	C	0.975855	-0.239075	0.567361
C140	C	1.475855	0.260925	1.067361
H141	H	0.992180	-0.266069	0.501441
H142	H	1.492180	0.233931	1.001441
H143	H	1.040615	-0.225579	0.607084
H144	H	1.540615	0.274421	1.107084
H145	H	0.944251	-0.173144	0.551933
H146	H	1.444251	0.326856	1.051933
H147	H	1.160599	-1.058562	0.609747
H148	H	1.660599	-0.558562	1.109747
O149	O	1.350624	-0.292773	0.866586
O150	O	1.850624	0.207227	1.366586
C151	C	1.335051	-0.204737	0.883664
C152	C	1.835051	0.295263	1.383664
H153	H	1.261678	-0.205659	0.905369
H154	H	1.761678	0.294341	1.405369
H155	H	1.349346	-0.155670	0.819711
H156	H	1.849346	0.344330	1.319711
H157	H	1.381533	-0.181692	0.939719
H158	H	1.881533	0.318308	1.439719
O159	O	0.773127	-0.257147	0.665925
O160	O	1.273127	0.242853	1.165925
C161	C	0.711369	-0.212461	0.710818
C162	C	1.211369	0.287539	1.210818
H163	H	0.646647	-0.210668	0.670038
H164	H	1.146647	0.289332	1.170038
H165	H	0.742374	-0.140031	0.718183
H166	H	1.242374	0.359969	1.218183
H167	H	0.695147	-0.250549	0.780532
H168	H	1.195147	0.249451	1.280532
O169	O	1.403236	-0.853682	0.393625
O170	O	1.903236	-0.353682	0.893625
C171	C	1.358782	-0.798111	0.329551
C172	C	1.858782	-0.298111	0.829551
H173	H	1.286346	-0.830285	0.321590
H174	H	1.786346	-0.330285	0.821590
H175	H	1.395763	-0.791018	0.261880
H176	H	1.895763	-0.291018	0.761880
H177	H	1.358289	-0.728095	0.353368
H178	H	1.858289	-0.228095	0.853368
O179	O	1.350805	-0.718188	0.440596
O180	O	1.850805	-0.218188	0.940596
C181	C	1.438103	-0.737606	0.466541
C182	C	1.938103	-0.237606	0.966541
H183	H	1.436633	-0.767798	0.540273
H184	H	1.936633	-0.267798	1.040273
H185	H	1.486919	-0.672298	0.457856
H186	H	1.986919	-0.172298	0.957856
H187	H	1.461348	-0.788421	0.422475
H188	H	1.961348	-0.288421	0.922475
O189	O	0.587409	-0.267491	0.655824
O190	O	1.087409	0.232509	1.155824
C191	C	0.526226	-0.325805	0.713855
C192	C	1.026226	0.174195	1.213855
H193	H	0.509849	-0.393409	0.684877
H194	H	1.009849	0.106591	1.184877
H195	H	0.461491	-0.293189	0.720396
H196	H	0.961491	0.206811	1.220396
H197	H	0.557862	-0.337973	0.783216
H198	H	1.057862	0.162027	1.283216
H199	H	0.594791	-0.473161	0.449283
H200	H	1.094791	0.026839	0.949283
O201	O	1.392111	-0.251539	1.193488
O202	O	1.892111	0.248461	1.693488
C203	C	1.449924	-0.193726	1.131724
C204	C	1.949924	0.306274	1.631724
H205	H	1.454866	-0.226667	1.066744
H206	H	1.954866	0.273333	1.566744
H207	H	1.519938	-0.181824	1.162311
H208	H	2.019938	0.318176	1.662311
H209	H	1.421719	-0.125941	1.116173
H210	H	1.921719	0.374059	1.616173
O211	O	1.150579	-0.492929	1.193685
O212	O	1.650579	0.007071	1.693685
C213	C	1.158005	-0.485448	1.286942
C214	C	1.658005	0.014552	1.786942
H215	H	1.228669	-0.452711	1.302015
H216	H	1.728669	0.047289	1.802015
H217	H	1.145517	-0.555980	1.326097
H218	H	1.645517	-0.055980	1.826097
H219	H	1.105835	-0.441605	1.308123
H220	H	1.605835	0.058395	1.808123
H221	H	1.107958	-0.535513	1.044810
H222	H	1.607958	-0.035513	1.544810
