data_functionalizedCrystal
_audit_creation_method	'MofGen! by Chris Wilmer'
_symmetry_space_group_name_H-M	'P1'
_symmetry_Int_Tables_number	1
_symmetry_cell_setting	triclinic
loop_
_symmetry_equiv_pos_as_xyz
  x,y,z
_cell_length_a	19.288840
_cell_length_b	17.038272
_cell_length_c	17.766277
_cell_angle_alpha	89.993732
_cell_angle_beta	89.983415
_cell_angle_gamma	87.118786
loop_
_atom_site_label
_atom_site_type_symbol
_atom_site_fract_x
_atom_site_fract_y
_atom_site_fract_z
O1	O	0.927392	0.097420	-0.062722
O2	O	1.260725	0.430753	0.270612
O3	O	1.594058	0.764087	0.603945
O4	O	0.725944	0.110595	-0.062696
O5	O	1.059277	0.443928	0.270638
O6	O	1.392610	0.777262	0.603971
O7	O	0.825470	-0.009804	-0.062703
O8	O	1.158804	0.323530	0.270631
O9	O	1.492137	0.656863	0.603964
O10	O	0.827865	0.217819	-0.062715
O11	O	1.161198	0.551152	0.270619
O12	O	1.494532	0.884486	0.603952
O13	O	0.825451	-0.009810	0.062486
O14	O	1.158785	0.323523	0.395819
O15	O	1.492118	0.656857	0.729153
O16	O	0.725925	0.110589	0.062493
O17	O	1.059258	0.443922	0.395826
O18	O	1.392591	0.777256	0.729159
O19	O	0.927373	0.097414	0.062467
O20	O	1.260706	0.430747	0.395800
O21	O	1.594039	0.764081	0.729134
Cu22	Cu	0.826647	0.104001	0.073911
Cu23	Cu	1.159980	0.437334	0.407244
Cu24	Cu	1.493314	0.770668	0.740577
Cu25	Cu	0.826669	0.104008	-0.074139
Cu26	Cu	1.160003	0.437341	0.259194
Cu27	Cu	1.493336	0.770675	0.592527
O28	O	0.827846	0.217813	0.062474
O29	O	1.161179	0.551146	0.395807
O30	O	1.494513	0.884480	0.729140
C31	C	0.700031	0.110171	-0.000098
C32	C	1.033365	0.443505	0.333235
C33	C	1.366698	0.776838	0.666569
C34	C	0.622849	0.108909	-0.000088
C35	C	0.956182	0.442242	0.333245
C36	C	1.289515	0.775575	0.666579
C37	C	0.586618	0.108305	-0.068330
C38	C	0.919951	0.441639	0.265003
C39	C	1.253285	0.774972	0.598337
C40	C	0.514097	0.107110	-0.068339
C41	C	0.847431	0.440443	0.264994
C42	C	1.180764	0.773777	0.598327
C43	C	0.477811	0.106502	-0.000102
C44	C	0.811144	0.439836	0.333231
C45	C	1.144477	0.773169	0.666564
C46	C	0.514050	0.107110	0.068149
C47	C	0.847383	0.440444	0.401482
C48	C	1.180717	0.773777	0.734815
C49	C	0.586569	0.108313	0.068156
C50	C	0.919902	0.441647	0.401489
C51	C	1.253236	0.774980	0.734823
C52	C	0.365524	0.058808	0.052169
C53	C	0.698858	0.392142	0.385502
C54	C	1.032191	0.725475	0.718835
C55	C	0.293007	0.057601	0.052159
C56	C	0.626340	0.390934	0.385492
C57	C	0.959674	0.724267	0.718825
C58	C	0.254138	0.102795	-0.000122
C59	C	0.587471	0.436129	0.333211
C60	C	0.920804	0.769462	0.666545
C61	C	0.287795	0.149188	-0.052405
C62	C	0.621129	0.482521	0.280928
C63	C	0.954462	0.815855	0.614262
C64	C	0.360314	0.150391	-0.052398
C65	C	0.693648	0.483724	0.280936
C66	C	1.026981	0.817058	0.614269
C67	C	0.399176	0.105198	-0.000103
C68	C	0.732509	0.438532	0.333231
C69	C	1.065843	0.771865	0.666564
C70	C	0.139272	0.100897	-0.068379
C71	C	0.472605	0.434230	0.264955
C72	C	0.805938	0.767564	0.598288
C73	C	0.066749	0.099707	-0.068385
C74	C	0.400082	0.433040	0.264948
C75	C	0.733416	0.766373	0.598282
C76	C	0.066704	0.099699	0.068105
C77	C	0.400037	0.433032	0.401438
C78	C	0.733370	0.766366	0.734772
C79	C	0.139224	0.100897	0.068109
C80	C	0.472558	0.434231	0.401443
C81	C	0.805891	0.767564	0.734776
C82	C	0.175504	0.101493	-0.000135
C83	C	0.508837	0.434826	0.333199
C84	C	0.842171	0.768159	0.666532
C85	C	0.823283	-0.038928	-0.000108
C86	C	1.156616	0.294405	0.333225
C87	C	1.489950	0.627739	0.666559
C88	C	0.816785	-0.125699	-0.000107
C89	C	1.150119	0.207634	0.333226
C90	C	1.483452	0.540968	0.666559
C91	C	0.876442	-0.176012	-0.000114
C92	C	1.209775	0.157322	0.333219
C93	C	1.543108	0.490655	0.666552
C94	C	0.870332	-0.257542	-0.000121
C95	C	1.203666	0.075791	0.333213
C96	C	1.536999	0.409125	0.666546
C97	C	0.804566	-0.288758	-0.000115
C98	C	1.137899	0.044575	0.333219
C99	C	1.471233	0.377909	0.666552
C100	C	0.744905	-0.238439	-0.000110
C101	C	1.078238	0.094895	0.333223
C102	C	1.411572	0.428228	0.666556
C103	C	0.751015	-0.156910	-0.000109
C104	C	1.084348	0.176423	0.333224
C105	C	1.417682	0.509756	0.666557
C106	C	0.782980	-0.534444	-0.000122
C107	C	1.116314	-0.201111	0.333211
C108	C	1.449647	0.132223	0.666544
C109	C	0.776875	-0.615979	-0.000121
C110	C	1.110208	-0.282646	0.333212
C111	C	1.443541	0.050688	0.666546
C112	C	0.902303	-0.635077	-0.000133
C113	C	1.235636	-0.301743	0.333200
C114	C	1.568969	0.031590	0.666534
C115	C	0.908407	-0.553546	-0.000127
C116	C	1.241740	-0.220212	0.333206
C117	C	1.575073	0.113121	0.666539
C118	C	0.848746	-0.503234	-0.000127
C119	C	1.182079	-0.169900	0.333207
C120	C	1.515413	0.163433	0.666540
C121	C	0.798320	-0.372095	-0.000119
C122	C	1.131653	-0.038761	0.333214
C123	C	1.464986	0.294572	0.666548
C124	C	0.854993	-0.419899	-0.000128
C125	C	1.188326	-0.086565	0.333205
C126	C	1.521660	0.246768	0.666539
C127	C	0.953285	0.097838	-0.000132
C128	C	1.286618	0.431171	0.333201
C129	C	1.619952	0.764504	0.666534
C130	C	1.030468	0.099101	-0.000147
C131	C	1.363801	0.432434	0.333186
C132	C	1.697134	0.765767	0.666519
C133	C	0.830033	0.246937	-0.000122
C134	C	1.163367	0.580270	0.333211
C135	C	1.496700	0.913604	0.666544
C136	C	0.836531	0.333708	-0.000128
C137	C	1.169864	0.667042	0.333205
C138	C	1.503198	1.000375	0.666539
N139	N	0.826636	0.103995	0.178041
N140	N	1.159969	0.437329	0.511374
N141	N	1.493303	0.770662	0.844708
N142	N	0.826685	0.104007	-0.178270
N143	N	1.160019	0.437341	0.155064
N144	N	1.493352	0.770674	0.488397
C145	C	0.870723	0.050709	0.217425
C146	C	1.204057	0.384042	0.550758
C147	C	1.537390	0.717376	0.884091
C148	C	0.870727	0.050705	0.296227
C149	C	1.204060	0.384039	0.629560
C150	C	1.537394	0.717372	0.962893
C151	C	0.826651	0.104002	0.335641
C152	C	1.159984	0.437335	0.668975
C153	C	1.493318	0.770668	1.002308
C154	C	0.782555	0.157292	0.296248
C155	C	1.115888	0.490626	0.629581
C156	C	1.449222	0.823959	0.962915
C157	C	0.782548	0.157289	0.217448
C158	C	1.115881	0.490622	0.550781
C159	C	1.449214	0.823956	0.884114
C160	C	0.821759	0.175226	0.460476
C161	C	1.155092	0.508559	0.793810
C162	C	1.488426	0.841892	1.127143
C163	C	0.821771	0.175230	0.539275
C164	C	1.155105	0.508563	0.872609
C165	C	1.488438	0.841896	1.205942
C166	C	0.826670	0.104011	0.578688
C167	C	1.160003	0.437344	0.912021
C168	C	1.493337	0.770678	1.245354
C169	C	0.831571	0.032785	0.539292
C170	C	1.164905	0.366118	0.872625
C171	C	1.498238	0.699452	1.205959
C172	C	0.831564	0.032782	0.460492
C173	C	1.164897	0.366115	0.793825
C174	C	1.498230	0.699448	1.127158
C175	C	0.826654	0.104011	0.421087
C176	C	1.159987	0.437344	0.754420
C177	C	1.493321	0.770677	1.087754
C178	C	0.870764	0.050716	0.703518
C179	C	1.204097	0.384049	1.036851
C180	C	1.537431	0.717383	1.370184
C181	C	0.870763	0.050711	0.782321
C182	C	1.204096	0.384045	1.115654
C183	C	1.537429	0.717378	1.448988
C184	C	0.782595	0.157305	0.782341
C185	C	1.115928	0.490639	1.115674
C186	C	1.449261	0.823972	1.449007
C187	C	0.782592	0.157303	0.703539
C188	C	1.115925	0.490636	1.036872
C189	C	1.449259	0.823970	1.370206
C190	C	0.826680	0.104009	0.664132
C191	C	1.160014	0.437343	0.997466
C192	C	1.493347	0.770676	1.330799
H193	H	0.616067	0.108805	0.123729
H194	H	0.949401	0.442139	0.457062
H195	H	1.282734	0.775472	0.790395
H196	H	0.265609	0.019821	0.094727
H197	H	0.598942	0.353154	0.428060
H198	H	0.932275	0.686488	0.761394
H199	H	0.397166	0.022003	0.094745
H200	H	0.730499	0.355337	0.428079
H201	H	1.063833	0.688670	0.761412
Cl202	Cl	0.815615	0.264770	0.588793
Cl203	Cl	1.148948	0.598103	0.922127
Cl204	Cl	1.482282	0.931436	1.255460
H205	H	0.723317	-0.641391	-0.000104
H206	H	1.056650	-0.308058	0.333229
H207	H	1.389984	0.025275	0.666563
H208	H	0.744772	-0.397520	-0.000112
H209	H	1.078105	-0.064187	0.333221
H210	H	1.411439	0.269147	0.666554
Cl211	Cl	0.021093	0.098943	0.153890
Cl212	Cl	0.354426	0.432277	0.487223
Cl213	Cl	0.687759	0.765610	0.820556
Cl214	Cl	0.184774	0.101651	0.153905
Cl215	Cl	0.518108	0.434984	0.487238
Cl216	Cl	0.851441	0.768318	0.820571
Cl217	Cl	0.238939	0.206012	-0.118131
Cl218	Cl	0.572273	0.539345	0.215202
Cl219	Cl	0.905606	0.872679	0.548536
Cl220	Cl	0.184883	0.101653	-0.154169
Cl221	Cl	0.518217	0.434986	0.179164
Cl222	Cl	0.851550	0.768320	0.512498
H223	H	0.484501	0.106617	0.123708
H224	H	0.817834	0.439951	0.457041
H225	H	1.151167	0.773284	0.790374
Cl226	Cl	0.727179	0.224301	0.831885
Cl227	Cl	1.060512	0.557634	1.165219
Cl228	Cl	1.393846	0.890967	1.498552
H229	H	0.929996	-0.150603	-0.000115
H230	H	1.263329	0.182731	0.333219
H231	H	1.596662	0.516064	0.666552
H232	H	0.906661	0.007319	0.671431
H233	H	1.239995	0.340652	1.004765
H234	H	1.573328	0.673985	1.338098
Cl235	Cl	0.945333	-0.320790	-0.000127
Cl236	Cl	1.278666	0.012544	0.333206
Cl237	Cl	1.612000	0.345877	0.666540
Cl238	Cl	0.727169	0.224299	0.654023
Cl239	Cl	1.060503	0.557633	0.987356
Cl240	Cl	1.393836	0.890966	1.320690
H241	H	0.961961	-0.528136	-0.000132
H242	H	1.295294	-0.194803	0.333201
H243	H	1.628627	0.138530	0.666535
Cl244	Cl	0.937668	-0.380654	-0.000139
Cl245	Cl	1.271001	-0.047321	0.333194
Cl246	Cl	1.604334	0.286013	0.666527
Cl247	Cl	0.977300	-0.698330	-0.000136
Cl248	Cl	1.310633	-0.364996	0.333197
Cl249	Cl	1.643966	-0.031663	0.666531
Cl250	Cl	0.632223	0.109057	-0.154122
Cl251	Cl	0.965556	0.442391	0.179211
Cl252	Cl	1.298890	0.775724	0.512544
H253	H	0.734400	-0.493489	-0.000122
H254	H	1.067733	-0.160156	0.333212
H255	H	1.401066	0.173177	0.666545
H256	H	0.691357	-0.263861	-0.000110
H257	H	1.024690	0.069472	0.333223
H258	H	1.358023	0.402806	0.666557
H259	H	0.746667	0.200686	0.328344
H260	H	1.080000	0.534019	0.661677
H261	H	1.413333	0.867352	0.995010
Cl262	Cl	0.926187	-0.016287	0.831835
Cl263	Cl	1.259520	0.317046	1.165169
Cl264	Cl	1.592854	0.650379	1.498502
H265	H	0.746646	0.200682	0.185381
H266	H	1.079979	0.534015	0.518714
H267	H	1.413312	0.867349	0.852047
Cl268	Cl	0.676015	-0.093659	-0.000103
Cl269	Cl	1.009348	0.239674	0.333230
Cl270	Cl	1.342682	0.573008	0.666563
Cl271	Cl	0.926144	-0.016291	0.167885
Cl272	Cl	1.259477	0.317042	0.501219
Cl273	Cl	1.592810	0.650375	0.834552
H274	H	0.906629	0.007311	0.328299
H275	H	1.239963	0.340645	0.661632
H276	H	1.573296	0.673978	0.994966
H277	H	0.037251	0.099220	-0.123958
H278	H	0.370584	0.432554	0.209375
H279	H	0.703918	0.765887	0.542708
Cl280	Cl	0.837717	-0.056755	0.410968
Cl281	Cl	1.171050	0.276578	0.744301
Cl282	Cl	1.504383	0.609912	1.077635
H283	H	0.835560	-0.025208	0.571380
H284	H	1.168893	0.308125	0.904713
H285	H	1.502227	0.641458	1.238047
H286	H	0.484592	0.106620	-0.123912
H287	H	0.817926	0.439953	0.209421
H288	H	1.151259	0.773287	0.542755
Cl289	Cl	0.402625	0.208714	-0.118118
Cl290	Cl	0.735958	0.542047	0.215215
Cl291	Cl	1.069291	0.875381	0.548548
H292	H	0.817758	0.233224	0.428393
H293	H	1.151091	0.566558	0.761726
H294	H	1.484424	0.899891	1.095060
