data_functionalizedCrystal
_audit_creation_method	'MofGen! by Chris Wilmer'
_symmetry_space_group_name_H-M	'P1'
_symmetry_Int_Tables_number	1
_symmetry_cell_setting	triclinic
loop_
_symmetry_equiv_pos_as_xyz
  x,y,z
_cell_length_a	9.065218
_cell_length_b	15.021413
_cell_length_c	9.065215
_cell_angle_alpha	90.007501
_cell_angle_beta	94.984675
_cell_angle_gamma	90.007503
loop_
_atom_site_label
_atom_site_type_symbol
_atom_site_fract_x
_atom_site_fract_y
_atom_site_fract_z
O1	O	1.960407	0.074027	-0.216338
O2	O	2.460407	0.574027	0.283662
O3	O	1.531122	0.074027	-0.234084
O4	O	2.031122	0.574027	0.265916
O5	O	1.754640	0.074029	-0.010568
O6	O	2.254640	0.574029	0.489432
O7	O	1.736890	0.074025	-0.439853
O8	O	2.236890	0.574025	0.060147
O9	O	1.754605	-0.074035	-0.010600
O10	O	2.254605	0.425965	0.489400
O11	O	1.531087	-0.074037	-0.234116
O12	O	2.031087	0.425963	0.265884
O13	O	1.960372	-0.074037	-0.216369
O14	O	2.460372	0.425963	0.283631
Zn15	Zn	1.745724	-0.097546	-0.225248
Zn16	Zn	2.245724	0.402454	0.274752
Zn17	Zn	1.745771	0.097535	-0.225206
Zn18	Zn	2.245771	0.597535	0.274794
O19	O	1.736854	-0.074039	-0.439885
O20	O	2.236854	0.425961	0.060115
C21	C	1.476118	-0.000005	-0.232394
C22	C	1.976118	0.499995	0.267606
C23	C	1.312275	-0.000004	-0.227295
C24	C	1.812275	0.499996	0.272705
N25	N	1.745702	-0.230683	-0.225276
N26	N	2.245702	0.269317	0.274724
C27	C	1.642331	-0.470367	-0.328580
C28	C	2.142331	0.029633	0.171420
C29	C	1.776045	-0.529702	-0.359000
C30	C	2.276045	-0.029702	0.141000
C31	C	1.745740	-0.412290	-0.225239
C32	C	2.245740	0.087710	0.274761
C33	C	1.612062	-0.529697	-0.194852
C34	C	2.112062	-0.029697	0.305148
C35	C	1.745764	-0.587714	-0.225207
C36	C	2.245764	-0.087714	0.274793
C37	C	1.879522	-0.470319	-0.255727
C38	C	2.379522	0.029681	0.244273
C39	C	1.715450	-0.470308	-0.091520
C40	C	2.215450	0.029692	0.408480
C41	C	1.849260	-0.529616	-0.121885
C42	C	2.349260	-0.029616	0.378115
C43	C	1.745724	-0.311233	-0.225261
C44	C	2.245724	0.188767	0.274739
C45	C	1.745795	-0.688769	-0.225184
C46	C	2.245795	-0.188769	0.274816
C47	C	2.015376	-0.000004	-0.218059
C48	C	2.515376	0.499996	0.281941
C49	C	2.179219	0.000002	-0.223159
C50	C	2.679219	0.500002	0.276841
C51	C	1.752917	-0.000001	0.044403
C52	C	2.252917	0.499999	0.544403
C53	C	1.747819	0.000006	0.208246
C54	C	2.247819	0.500006	0.708246
N55	N	1.745803	0.230673	-0.225166
N56	N	2.245803	0.730673	0.274834
C57	C	1.738577	-0.000001	0.505144
C58	C	2.238577	0.499999	1.005144
C59	C	1.743674	0.000018	0.341301
C60	C	2.243674	0.500018	0.841301
H61	H	1.554972	-0.444352	-0.416045
H62	H	2.054972	0.055648	0.083955
H63	H	1.992607	-0.444346	-0.281550
H64	H	2.492607	0.055654	0.218450
H65	H	1.801686	-0.555790	-0.472070
H66	H	2.301686	-0.055790	0.027930
H67	H	1.936816	-0.555468	-0.034475
H68	H	2.436816	-0.055468	0.465525
N69	N	1.681424	-0.435718	0.058202
N70	N	2.181424	0.064282	0.558202
H71	H	1.682633	-0.368487	0.057344
H72	H	2.182633	0.131513	0.557344
H73	H	1.758497	-0.458272	0.136443
H74	H	2.258497	0.041728	0.636443
N75	N	1.462313	-0.564245	-0.160796
N76	N	1.962313	-0.064245	0.339204
H77	H	1.463707	-0.631475	-0.160084
H78	H	1.963707	-0.131475	0.339916
H79	H	1.384355	-0.542631	-0.238960
H80	H	1.884355	-0.042631	0.261040
