data_functionalizedCrystal
_audit_creation_method	'MofGen! by Chris Wilmer'
_symmetry_space_group_name_H-M	'P1'
_symmetry_Int_Tables_number	1
_symmetry_cell_setting	triclinic
loop_
_symmetry_equiv_pos_as_xyz
  x,y,z
_cell_length_a	14.908571
_cell_length_b	18.101395
_cell_length_c	14.908308
_cell_angle_alpha	93.266316
_cell_angle_beta	90.175053
_cell_angle_gamma	86.727274
loop_
_atom_site_label
_atom_site_type_symbol
_atom_site_fract_x
_atom_site_fract_y
_atom_site_fract_z
Zn1	Zn	1.345208	-0.386468	-0.587575
Zn2	Zn	1.353762	-0.503604	-0.437213
Zn3	Zn	1.203527	-0.372244	-0.428573
Zn4	Zn	1.194790	-0.502724	-0.578865
O5	O	1.274322	-0.441260	-0.508057
O6	O	1.472167	-0.408328	-0.574890
O7	O	1.341069	-0.480594	-0.310243
O8	O	1.222397	-0.270503	-0.449694
O9	O	1.478452	-0.494387	-0.464420
O10	O	1.326490	-0.280953	-0.566512
O11	O	1.230692	-0.384085	-0.303895
O12	O	1.076543	-0.383231	-0.441249
O13	O	1.207507	-0.492887	-0.705845
O14	O	1.070124	-0.479094	-0.551667
O15	O	1.318019	-0.407474	-0.712244
O16	O	1.332598	-0.607115	-0.455974
O17	O	1.215801	-0.606469	-0.560045
C18	C	1.040709	-0.429524	-0.494576
C19	C	0.940767	-0.424523	-0.488830
C20	C	1.274203	-0.633663	-0.508023
C21	C	1.274233	-0.715980	-0.508044
C22	C	0.746339	-0.515086	-0.592857
C23	C	0.652434	-0.510389	-0.587462
C24	C	0.659052	-0.410428	-0.472648
C25	C	0.752956	-0.415125	-0.478044
C26	C	0.796596	-0.467457	-0.538149
C27	C	0.890503	-0.472157	-0.543540
C28	C	0.897118	-0.372193	-0.428731
C29	C	0.803213	-0.367496	-0.423336
C30	C	1.274427	-1.015083	-0.508104
C31	C	1.201093	-0.983397	-0.573764
C32	C	1.200777	-0.897753	-0.573527
C33	C	1.274331	-0.866694	-0.508075
C34	C	1.254147	-0.892332	-0.411835
C35	C	1.253677	-0.977973	-0.412227
C36	C	1.368144	-0.989281	-0.537857
C37	C	1.367465	-0.903695	-0.539903
C38	C	1.274278	-0.782831	-0.508053
C39	C	1.274478	-1.098945	-0.508119
C40	C	1.508847	-0.453042	-0.521591
C41	C	1.608787	-0.458063	-0.527358
C42	C	1.260834	-0.451669	-0.742582
C43	C	1.255087	-0.456105	-0.842522
C44	C	1.274464	-0.248107	-0.508111
C45	C	1.274525	-0.165797	-0.508134
C46	C	1.359359	-0.375483	-1.036986
C47	C	1.353962	-0.379648	-1.130890
C48	C	1.238890	-0.468597	-1.124234
C49	C	1.244288	-0.464432	-1.030330
C50	C	1.304525	-0.417874	-0.986710
C51	C	1.309927	-0.413713	-0.892805
C52	C	1.194851	-0.502657	-0.886151
C53	C	1.189453	-0.506822	-0.980054
C54	C	1.287808	-0.430840	-0.274447
C55	C	1.293730	-0.426205	-0.174517
H56	H	0.926033	-0.514769	-0.592479
H57	H	0.781872	-0.557700	-0.641793
N58	N	1.439085	-0.877621	-0.484835
N59	N	1.453468	-0.810157	-0.479239
H60	H	1.504048	-0.791742	-0.440338
N61	N	0.758645	-0.314035	-0.361944
N62	N	0.768819	-0.246505	-0.368649
H63	H	0.737345	-0.208747	-0.325289
N64	N	1.319326	-0.866869	-0.348468
N65	N	1.314074	-0.882032	-0.267965
H66	H	1.360106	-0.864047	-0.223211
H67	H	1.212915	-1.007887	-0.645171
N68	N	1.409962	-0.336349	-1.182261
N69	N	1.375344	-0.289899	-1.232847
H70	H	1.414894	-0.259316	-1.269130
H71	H	0.611518	-0.549172	-0.632012
N72	N	1.177328	-0.516115	-1.168803
N73	N	1.094969	-0.506539	-1.153527
H74	H	1.051480	-0.540087	-1.185011
H75	H	1.305069	-0.998720	-0.361342
H76	H	0.938048	-0.333411	-0.384182
H77	H	1.408412	-0.337578	-1.001471
N78	N	1.127925	-0.554369	-1.024629
N79	N	1.123110	-0.558080	-1.108470
H80	H	1.079655	-0.591661	-1.139951
H81	H	1.186561	-0.866562	-0.386941
N82	N	1.436618	-1.015099	-0.477970
N83	N	1.516463	-1.000421	-0.489974
H84	H	1.564818	-1.018658	-0.447677
N85	N	1.371464	-0.366157	-0.848260
N86	N	1.420416	-0.328311	-0.893166
H87	H	1.463877	-0.294722	-0.861709
N88	N	1.215824	-0.876277	-0.662836
N89	N	1.226632	-0.924585	-0.725777
H90	H	1.237256	-0.909421	-0.788856
H91	H	1.150203	-0.537177	-0.845206
H92	H	1.185333	-0.993611	-0.387659
H93	H	1.387612	-1.015032	-0.607127
N94	N	1.114339	-1.005186	-0.548781
N95	N	1.106285	-1.043948	-0.482829
H96	H	1.045015	-1.059338	-0.465182
H97	H	1.131201	-0.873076	-0.553387
N98	N	0.614450	-0.356975	-0.411270
N99	N	0.530607	-0.352788	-0.406470
H100	H	0.499105	-0.315036	-0.363122
H101	H	1.382784	-0.887413	-0.610757
