data_functionalizedCrystal
_audit_creation_method	'MofGen! by Chris Wilmer'
_symmetry_space_group_name_H-M	'P1'
_symmetry_Int_Tables_number	1
_symmetry_cell_setting	triclinic
loop_
_symmetry_equiv_pos_as_xyz
  x,y,z
_cell_length_a	6.817900
_cell_length_b	19.551823
_cell_length_c	11.102193
_cell_angle_alpha	94.524979
_cell_angle_beta	108.604059
_cell_angle_gamma	101.663376
loop_
_atom_site_label
_atom_site_type_symbol
_atom_site_fract_x
_atom_site_fract_y
_atom_site_fract_z
V1	V	-4.076511	-0.096680	-0.396852
O2	O	-4.072228	0.004641	-0.388686
O3	O	-4.018888	-0.191695	-0.394726
O4	O	-4.053823	-0.095195	-0.569664
O5	O	-4.037050	-0.092527	-0.212536
V6	V	-4.558003	-0.084561	-0.374735
O7	O	-4.342226	-0.123265	-0.445367
O8	O	-4.742485	-0.057976	-0.326219
O9	O	-4.392420	0.010455	-0.376861
O10	O	-4.679683	-0.185881	-0.382901
O11	O	-4.714860	-0.088713	-0.559050
O12	O	-4.357484	-0.086045	-0.201922
C13	C	-3.860813	-0.214858	-0.388617
C14	C	-3.895157	-0.292534	-0.388030
C15	C	-4.094003	-0.332580	-0.394110
C16	C	-4.126280	-0.405566	-0.393572
C17	C	-3.959686	-0.438501	-0.386928
C18	C	-3.760816	-0.398446	-0.380855
C19	C	-3.728551	-0.325463	-0.381406
C20	C	-3.834467	-0.544988	-0.306338
C21	C	-3.866735	-0.617969	-0.305779
C22	C	-4.059196	-0.663607	-0.385234
C23	C	-4.219412	-0.636253	-0.465232
C24	C	-4.187147	-0.563269	-0.465783
C25	C	-3.994652	-0.517639	-0.386331
C26	C	-4.293054	-0.782793	-0.390733
C27	C	-4.325327	-0.855781	-0.390203
C28	C	-3.959851	-0.848659	-0.377472
C29	C	-3.927590	-0.775674	-0.378016
C30	C	-4.094196	-0.742744	-0.384640
C31	C	-3.905375	-0.091761	-0.611767
C32	C	-3.968047	-0.091176	-0.753046
C33	C	-4.042041	-0.219156	-0.790159
C34	C	-4.108473	-0.282867	-0.875087
C35	C	-4.167360	-0.282314	-1.007829
C36	C	-4.159817	-0.218041	-1.055646
C37	C	-4.093385	-0.154329	-0.970718
C38	C	-4.034495	-0.154890	-0.837974
C39	C	-4.019407	-0.026351	-0.933605
C40	C	-3.960505	-0.026903	-0.800862
C41	C	-4.011865	0.037921	-0.981421
C42	C	-3.945417	0.101635	-0.896493
C43	C	-3.886526	0.101079	-0.763743
C44	C	-3.894073	0.036809	-0.715934
C45	C	-4.213836	0.033613	-0.382966
C46	C	-4.158731	0.111289	-0.383561
C47	C	-4.169273	-0.089481	-0.159813
C48	C	-4.085839	-0.090063	-0.018533
H49	H	-3.566625	-0.292858	-0.376456
C50	C	-4.240441	-0.352392	-1.101257
H51	H	-4.274443	-0.342853	-1.187160
H52	H	-4.129084	-0.376544	-1.082979
H53	H	-4.362923	-0.381009	-1.091285
C54	C	-4.544068	-0.899831	-0.396889
H55	H	-4.638655	-0.869763	-0.400900
H56	H	-4.600447	-0.934834	-0.471435
H57	H	-4.528050	-0.922065	-0.322433
C58	C	-3.977277	-0.219768	-0.644148
H59	H	-3.991299	-0.267169	-0.627834
H60	H	-3.833385	-0.194023	-0.603103
H61	H	-4.067239	-0.198500	-0.611430
H62	H	-3.736282	-0.640234	-0.240632
C63	C	-4.345013	-0.449627	-0.400251
H64	H	-4.340365	-0.497810	-0.398980
H65	H	-4.378614	-0.432744	-0.328455
H66	H	-4.451002	-0.445517	-0.477457
C67	C	-4.431129	-0.686441	-0.552640
H68	H	-4.521924	-0.659697	-0.600352
H69	H	-4.403630	-0.718718	-0.610196
H70	H	-4.498470	-0.711865	-0.501281
C71	C	-4.116755	-0.353562	-0.822486
H72	H	-4.072151	-0.344770	-0.731266
H73	H	-4.258514	-0.382001	-0.856017
H74	H	-4.024670	-0.377523	-0.847713
H75	H	-3.832446	0.152961	-0.694601
C76	C	-4.224578	-0.217428	-1.201657
H77	H	-4.210573	-0.170028	-1.217971
H78	H	-4.134646	-0.238703	-1.234381
H79	H	-4.368491	-0.243168	-1.242698
H80	H	-4.317600	-0.541001	-0.530922
C81	C	-3.708846	-0.731619	-0.371308
H82	H	-3.614242	-0.761685	-0.367263
H83	H	-3.724833	-0.709382	-0.445751
H84	H	-3.652487	-0.696618	-0.296750
C85	C	-4.076633	0.038532	-1.127434
H86	H	-4.117257	-0.008616	-1.171167
H87	H	-4.193206	0.060056	-1.154769
H88	H	-3.959357	0.064527	-1.146446
H89	H	-3.939297	0.153960	-0.935437
H90	H	-3.846112	0.036349	-0.607850
H91	H	-4.428713	-0.755980	-0.396125
H92	H	-4.229674	-0.305774	-0.399513
C93	C	-3.622752	-0.494790	-0.218936
H94	H	-3.626471	-0.447407	-0.230730
H95	H	-3.603007	-0.499567	-0.131635
H96	H	-3.508163	-0.506423	-0.240548
H97	H	-3.824211	-0.875475	-0.372070
H98	H	-3.625178	-0.425267	-0.375449
