data_functionalizedCrystal
_audit_creation_method	'MofGen! by Chris Wilmer'
_symmetry_space_group_name_H-M	'P1'
_symmetry_Int_Tables_number	1
_symmetry_cell_setting	triclinic
loop_
_symmetry_equiv_pos_as_xyz
  x,y,z
_cell_length_a	22.610064
_cell_length_b	10.489741
_cell_length_c	10.489716
_cell_angle_alpha	84.534155
_cell_angle_beta	90.006483
_cell_angle_gamma	89.983508
loop_
_atom_site_label
_atom_site_type_symbol
_atom_site_fract_x
_atom_site_fract_y
_atom_site_fract_z
O1	O	-0.049206	1.694058	0.179955
O2	O	-0.049201	1.322861	0.196848
O3	O	-0.049206	1.516922	0.002801
O4	O	-0.049201	1.499997	0.374001
O5	O	0.049163	1.516865	0.002826
O6	O	0.049168	1.322804	0.196872
O7	O	0.049163	1.694001	0.179979
Zn8	Zn	0.064784	1.508393	0.188429
Zn9	Zn	-0.064822	1.508468	0.188397
O10	O	0.049168	1.499940	0.374025
C11	C	-0.000016	1.275301	0.195584
C12	C	-0.000014	1.133672	0.191767
N13	N	0.153236	1.508351	0.188450
C14	C	-0.000023	1.515622	-0.044719
C15	C	-0.000028	1.511817	-0.186350
C16	C	0.438078	1.430362	0.110278
C17	C	0.376158	1.430351	0.110283
O18	O	0.344133	1.363994	0.043815
N19	N	0.345189	1.508401	0.188415
C20	C	0.376142	1.586476	0.266538
O21	O	0.344115	1.652863	0.332995
C22	C	0.438061	1.586493	0.266526
C23	C	0.469027	1.508429	0.188398
C24	C	0.469044	1.352306	0.032156
C25	C	0.530959	1.352315	0.032154
C26	C	0.561909	1.430381	0.110274
C27	C	0.530943	1.508438	0.188396
C28	C	0.469014	1.664574	0.344641
C29	C	0.530937	1.664584	0.344622
C30	C	0.561903	1.586520	0.266494
C31	C	0.623808	1.586514	0.266514
N32	N	0.654777	1.508465	0.188381
C33	C	0.623828	1.430398	0.110262
C34	C	0.246109	1.586436	0.266556
C35	C	0.184191	1.586413	0.266576
C36	C	0.184211	1.430290	0.110318
C37	C	0.246130	1.430307	0.110306
C38	C	0.277078	1.508387	0.188424
C39	C	0.753855	1.430423	0.110263
C40	C	0.815776	1.430436	0.110272
C41	C	0.815751	1.586563	0.266524
C42	C	0.753835	1.586546	0.266521
C43	C	0.722889	1.508473	0.188380
O44	O	0.655872	1.652841	0.332944
O45	O	0.655863	1.364035	0.043803
N46	N	0.846726	1.508502	0.188392
C47	C	-0.000024	1.741561	0.181243
C48	C	-0.000029	1.883190	0.185060
C49	C	-0.000022	1.951319	0.308526
C50	C	-0.048521	2.043479	0.250190
C51	C	0.048463	2.043389	0.250184
C52	C	-0.048569	1.973485	0.126673
C53	C	0.048459	1.973385	0.126685
C54	C	-0.000053	2.065518	0.068259
C55	C	-0.000025	1.630822	-0.284024
C56	C	-0.048523	1.567965	-0.361396
C57	C	0.048461	1.567881	-0.361336
C58	C	-0.048567	1.449010	-0.261857
C59	C	0.048461	1.448944	-0.261792
C60	C	-0.000050	1.386000	-0.339115
C61	C	-0.000016	1.501240	0.421545
C62	C	-0.000015	1.505044	0.563176
H63	H	0.840986	1.366861	0.046651
H64	H	-0.089522	2.074519	0.302423
H65	H	0.271303	1.650014	0.330180
Cl66	Cl	0.111764	1.645440	-0.428436
Cl67	Cl	-0.000085	1.226066	-0.376842
H68	H	0.443851	1.288734	-0.031465
Cl69	Cl	0.714961	1.332276	0.012025
H70	H	0.443812	1.728144	0.408259
Cl71	Cl	-0.111948	1.925941	0.046062
H72	H	-0.000075	1.734335	-0.259347
Cl73	Cl	-0.000092	2.141842	-0.088608
H74	H	0.556167	1.288752	-0.031470
Cl75	Cl	0.285052	1.332169	0.012082
Cl76	Cl	-0.111944	1.371533	-0.195024
H77	H	0.089467	1.398728	-0.218263
H78	H	0.089464	1.942317	0.074498
H79	H	0.158984	1.649966	0.330210
H80	H	0.089468	2.074337	0.302457
H81	H	0.159001	1.366724	0.046709
Cl82	Cl	0.569840	1.762751	0.442830
Cl83	Cl	-0.111830	1.645560	-0.428570
H84	H	0.840961	1.650120	0.330130
Cl85	Cl	-0.000093	1.874645	0.465251
Cl86	Cl	0.714906	1.684702	0.364722
