data_functionalizedCrystal
_audit_creation_method	'MofGen! by Chris Wilmer'
_symmetry_space_group_name_H-M	'P1'
_symmetry_Int_Tables_number	1
_symmetry_cell_setting	triclinic
loop_
_symmetry_equiv_pos_as_xyz
  x,y,z
_cell_length_a	19.077105
_cell_length_b	21.295411
_cell_length_c	21.295417
_cell_angle_alpha	89.979403
_cell_angle_beta	87.725910
_cell_angle_gamma	87.678773
loop_
_atom_site_label
_atom_site_type_symbol
_atom_site_fract_x
_atom_site_fract_y
_atom_site_fract_z
Zn1	Zn	1.075994	-0.394530	-0.289414
Zn2	Zn	1.075886	-0.289253	-0.394662
Zn3	Zn	0.958286	-0.285051	-0.285177
Zn4	Zn	0.958253	-0.390263	-0.390411
O5	O	1.017105	-0.339774	-0.339916
O6	O	1.174470	-0.384109	-0.306927
O7	O	1.060255	-0.200605	-0.380144
O8	O	0.973959	-0.299600	-0.197652
O9	O	1.174391	-0.306763	-0.384253
O10	O	1.060438	-0.380034	-0.200764
O11	O	0.973854	-0.197518	-0.299706
O12	O	0.859791	-0.295463	-0.295584
O13	O	0.973903	-0.478920	-0.377007
O14	O	0.859767	-0.372763	-0.372899
O15	O	1.060406	-0.482054	-0.302805
O16	O	1.060223	-0.302626	-0.482185
O17	O	0.973799	-0.376838	-0.479062
C18	C	0.834241	-0.333194	-0.333321
C19	C	0.756011	-0.330394	-0.330515
C20	C	0.719264	-0.369261	-0.369511
C21	C	0.645759	-0.366633	-0.366866
C22	C	0.609002	-0.325135	-0.325228
C23	C	0.645754	-0.286266	-0.286228
C24	C	0.719258	-0.288898	-0.288870
C25	C	0.389168	-0.312959	-0.313000
C26	C	0.315659	-0.310329	-0.310362
C27	C	0.315669	-0.390697	-0.391000
C28	C	0.389175	-0.393322	-0.393641
C29	C	0.425920	-0.354456	-0.354639
N30	N	0.533868	-0.322446	-0.322525
N31	N	0.501053	-0.357148	-0.357339
C32	C	1.017163	-0.503967	-0.339905
C33	C	1.017188	-0.573936	-0.339900
C34	C	1.062228	-0.608435	-0.301261
C35	C	1.062227	-0.674178	-0.301234
C36	C	1.017193	-0.705419	-0.339857
C37	C	0.972144	-0.670911	-0.378498
C38	C	0.972142	-0.605169	-0.378520
N39	N	1.011764	-0.808440	-0.394729
N40	N	1.011771	-0.870892	-0.394707
C41	C	1.017198	-0.903493	-0.339793
N42	N	1.022632	-0.871285	-0.284901
N43	N	1.022629	-0.808827	-0.284924
C44	C	1.017191	-0.776704	-0.339837
C45	C	1.062240	-1.009279	-0.301121
C46	C	1.062234	-1.075022	-0.301093
C47	C	0.972154	-1.071754	-0.378363
C48	C	0.972157	-1.006011	-0.378386
C49	C	1.017203	-0.974778	-0.339766
C50	C	1.200682	-0.346380	-0.346537
C51	C	1.278912	-0.349196	-0.349358
C52	C	1.017015	-0.339739	-0.503464
C53	C	1.017041	-0.339748	-0.573433
C54	C	1.017087	-0.176222	-0.339883
C55	C	1.017198	-0.106258	-0.339715
C56	C	1.062045	-0.381657	-0.607863
C57	C	1.062070	-0.381674	-0.673606
C58	C	1.017098	-0.339769	-0.704918
C59	C	0.972085	-0.297857	-0.670480
C60	C	0.972057	-0.297846	-0.604738
N61	N	1.011777	-0.284487	-0.807979
N62	N	1.011808	-0.284500	-0.870431
C63	C	1.017180	-0.339801	-0.902995
N64	N	1.022534	-0.395091	-0.870748
N65	N	1.022506	-0.395078	-0.808290
C66	C	1.017124	-0.339777	-0.776204
C67	C	1.062214	-0.381732	-1.008711
C68	C	1.062234	-0.381749	-1.074456
C69	C	0.972253	-0.297926	-1.071329
C70	C	0.972229	-0.297915	-1.005586
C71	C	1.017213	-0.339817	-0.974281
C72	C	1.017214	-0.339824	-0.175729
C73	C	1.017260	-0.339845	-0.105763
H74	H	0.285733	-0.276539	-0.276448
H75	H	0.749176	-0.257251	-0.257112
H76	H	0.419098	-0.427113	-0.427549
H77	H	0.419077	-0.281306	-0.281246
H78	H	0.285743	-0.422340	-0.422753
H79	H	1.098881	-0.415880	-1.102487
H80	H	1.098908	-0.583009	-0.269813
H81	H	0.935475	-0.696351	-0.409943
H82	H	1.098903	-0.702273	-0.269766
H83	H	0.615820	-0.252480	-0.252322
H84	H	0.615843	-0.398282	-0.398622
H85	H	1.098712	-0.415809	-0.701644
H86	H	0.935461	-0.577080	-0.409983
H87	H	1.098915	-0.983847	-0.269671
H88	H	1.098910	-1.103111	-0.269625
H89	H	0.935467	-0.263739	-0.695978
H90	H	0.935408	-0.263717	-0.576705
H91	H	0.935585	-0.263785	-0.977551
H92	H	0.935631	-0.263811	-1.096822
H93	H	1.098840	-0.415853	-0.983222
H94	H	0.935480	-1.097189	-0.409804
H95	H	0.935484	-0.977921	-0.409854
H96	H	1.098672	-0.415778	-0.582376
H97	H	0.749187	-0.403052	-0.403420
