data_functionalizedCrystal
_audit_creation_method	'MofGen! by Chris Wilmer'
_symmetry_space_group_name_H-M	'P1'
_symmetry_Int_Tables_number	1
_symmetry_cell_setting	triclinic
loop_
_symmetry_equiv_pos_as_xyz
  x,y,z
_cell_length_a	16.120530
_cell_length_b	29.839131
_cell_length_c	16.120297
_cell_angle_alpha	87.139604
_cell_angle_beta	89.871860
_cell_angle_gamma	87.130172
loop_
_atom_site_label
_atom_site_type_symbol
_atom_site_fract_x
_atom_site_fract_y
_atom_site_fract_z
Zn1	Zn	1.247358	-0.227599	0.534475
Zn2	Zn	1.254283	-0.299116	0.395389
Zn3	Zn	1.115351	-0.220008	0.388396
Zn4	Zn	1.108240	-0.298702	0.527358
O5	O	1.181308	-0.261356	0.461404
O6	O	1.364642	-0.240436	0.521930
O7	O	1.241728	-0.285618	0.278097
O8	O	1.132941	-0.158151	0.407825
O9	O	1.369730	-0.292979	0.419744
O10	O	1.229925	-0.163729	0.515149
O11	O	1.139655	-0.227498	0.272959
O12	O	0.998043	-0.227097	0.400925
O13	O	1.120820	-0.292274	0.644667
O14	O	0.992818	-0.284913	0.503020
O15	O	1.223030	-0.240035	0.649895
O16	O	1.234832	-0.361924	0.412843
O17	O	1.127535	-0.361621	0.509801
C18	C	0.965258	-0.255137	0.450442
C19	C	0.872830	-0.252487	0.445771
C20	C	0.703603	-0.247639	0.437252
C21	C	0.659851	-0.275108	0.485618
C22	C	0.565687	-0.272411	0.480877
C23	C	0.797775	-0.250336	0.441991
C24	C	1.181185	-0.378073	0.461328
C25	C	1.181207	-0.428008	0.461327
C26	C	1.231793	-0.740528	0.517363
C27	C	1.231881	-0.928204	0.517418
O28	O	1.274769	-0.954909	0.565003
N29	N	1.181445	-0.948805	0.461504
C30	C	1.130979	-0.922483	0.405576
O31	O	1.088076	-0.944311	0.358025
C32	C	1.130888	-0.734807	0.405526
C33	C	1.181333	-0.714209	0.461438
C34	C	1.282233	-0.719930	0.573271
C35	C	1.282214	-0.673013	0.573254
C36	C	1.231755	-0.646695	0.517329
C37	C	1.181314	-0.667293	0.461421
C38	C	1.080419	-0.708486	0.349603
C39	C	1.080399	-0.661564	0.349597
C40	C	1.130844	-0.640966	0.405509
C41	C	1.130836	-0.594058	0.405479
N42	N	1.181271	-0.573457	0.461392
C43	C	1.231731	-0.599776	0.517317
C44	C	1.131032	-1.021016	0.405605
C45	C	1.131056	-1.067934	0.405617
C46	C	1.231956	-1.073653	0.517459
C47	C	1.231936	-1.026733	0.517443
C48	C	1.181468	-1.000415	0.461519
C49	C	1.231688	-0.501248	0.517276
C50	C	1.231667	-0.454327	0.517252
C51	C	1.130763	-0.448613	0.405413
C52	C	1.130787	-0.495529	0.405434
C53	C	1.181252	-0.521846	0.461373
O54	O	1.087963	-0.567325	0.357924
O55	O	1.274614	-0.577939	0.564874
C56	C	1.231812	-0.787444	0.517380
C57	C	1.181371	-0.808042	0.461472
C58	C	1.130912	-0.781723	0.405547
C59	C	1.181395	-0.854961	0.461484
C60	C	1.231855	-0.881279	0.517409
C61	C	1.282291	-0.860679	0.573323
C62	C	1.282272	-0.813762	0.573305
C63	C	1.080476	-0.802324	0.349634
C64	C	1.080500	-0.849241	0.349655
C65	C	1.130960	-0.875559	0.405580
C66	C	1.398202	-0.267601	0.472411
C67	C	1.490629	-0.270262	0.477101
C68	C	1.170359	-0.266955	0.678296
C69	C	1.165693	-0.269341	0.770723
C70	C	1.181454	-0.144185	0.461501
C71	C	1.181516	-0.094253	0.461542
C72	C	1.192263	-0.255748	0.245359
C73	C	1.197090	-0.253240	0.152941
C74	C	1.157144	-0.273686	0.939946
C75	C	1.205637	-0.248896	0.983723
C76	C	1.200880	-0.251314	1.077885
C77	C	1.161900	-0.271269	0.845776
H78	H	1.272748	-0.437558	0.562782
O79	O	0.699439	-0.305641	0.539215
C80	C	0.679179	-0.349332	0.519812
H81	H	0.617689	-0.347638	0.484732
H82	H	0.730174	-0.364691	0.479409
C83	C	0.746748	-0.380681	0.643668
C84	C	0.671221	-0.378600	0.600588
H85	H	0.741843	-0.398735	0.693494
H86	H	0.760401	-0.351246	0.656739
H87	H	0.789236	-0.393479	0.609990
H88	H	0.628737	-0.365797	0.634262
H89	H	0.657561	-0.408033	0.587525
H90	H	0.670342	-0.222100	0.392288
O91	O	1.259538	-0.221440	0.944167
C92	C	1.341360	-0.234183	0.969506
H93	H	1.339944	-0.253086	1.032678
H94	H	1.371750	-0.256860	0.922057
C95	C	1.393337	-0.168720	0.898356
C96	C	1.391598	-0.191934	0.975948
H97	H	1.424328	-0.142659	0.902327
H98	H	1.338213	-0.160135	0.881282
H99	H	1.418660	-0.187622	0.858824
H100	H	1.366266	-0.173034	1.015477
H101	H	1.446720	-0.200515	0.993030
H102	H	1.039423	-0.866007	0.304117
O103	O	1.280782	-0.526741	0.571648
C104	C	1.325274	-0.498491	0.621000
H105	H	1.329883	-0.464262	0.587068
H106	H	1.291577	-0.494244	0.682576
C107	C	1.407505	-0.561649	0.679241
C108	C	1.413172	-0.519610	0.637562
H109	H	1.461724	-0.574677	0.689461
H110	H	1.377528	-0.580682	0.645994
H111	H	1.379421	-0.558104	0.730550
H112	H	1.441246	-0.523156	0.586250
H113	H	1.443156	-0.500578	0.670801
H114	H	1.323289	-0.656245	0.618784
H115	H	1.323323	-0.741354	0.618817
H116	H	1.039385	-0.780899	0.304094
O117	O	1.280954	-1.006799	0.571841
C118	C	1.325509	-1.040095	0.621185
H119	H	1.291318	-1.072650	0.622306
H120	H	1.390227	-1.046093	0.593994
C121	C	1.374935	-0.984402	0.708924
C122	C	1.332938	-1.024386	0.710307
H123	H	1.379522	-0.974712	0.763898
H124	H	1.344920	-0.961970	0.675679
H125	H	1.428863	-0.989407	0.686261
H126	H	1.279008	-1.019380	0.732959
H127	H	1.362944	-1.046817	0.743558
H128	H	1.112060	-0.296724	0.973182
O129	O	1.280847	-1.099242	0.571872
C130	C	1.230750	-1.126418	0.623117
H131	H	1.164993	-1.110553	0.624864
H132	H	1.229218	-1.161239	0.597263
C133	C	1.347690	-1.149987	0.709512
C134	C	1.266927	-1.130498	0.711664
H135	H	1.370006	-1.152505	0.764132
H136	H	1.381442	-1.131679	0.674986
H137	H	1.346402	-1.179002	0.687963
H138	H	1.268217	-1.101481	0.733203
H139	H	1.233176	-1.148801	0.746196
O140	O	1.081669	-0.515521	0.351201
C141	C	0.997861	-0.502160	0.365082
H142	H	0.990251	-0.490833	0.431287
H143	H	0.978403	-0.473176	0.319368
C144	C	0.952221	-0.555933	0.271251
C145	C	0.942874	-0.542024	0.352568
H146	H	0.918301	-0.580522	0.263529
H147	H	1.008684	-0.564934	0.261897
H148	H	0.936007	-0.531776	0.233165
H149	H	0.959097	-0.566180	0.390652
H150	H	0.886412	-0.533029	0.361929
O151	O	1.081935	-1.087918	0.351380
C152	C	0.998128	-1.074559	0.365268
H153	H	0.990521	-1.063239	0.431479
H154	H	0.978670	-1.045569	0.319566
C155	C	0.952483	-1.128319	0.271415
C156	C	0.943139	-1.114420	0.352739
H157	H	0.918562	-1.152906	0.263683
H158	H	1.008946	-1.137319	0.262056
H159	H	0.936269	-1.104157	0.233339
H160	H	0.959362	-1.138580	0.390812
H161	H	0.886677	-1.105426	0.362104
O162	O	1.082127	-0.995406	0.351238
C163	C	1.132209	-0.968244	0.299950
H164	H	1.193713	-0.963740	0.332526
H165	H	1.144523	-0.985017	0.238810
C166	C	1.011662	-0.927532	0.242500
C167	C	1.087199	-0.921998	0.282514
H168	H	0.983897	-0.899006	0.231741
H169	H	0.977920	-0.945832	0.277051
H170	H	1.021934	-0.941511	0.191554
H171	H	1.076926	-0.908024	0.333463
H172	H	1.120939	-0.903694	0.247971
O173	O	1.031334	-0.728414	0.295263
C174	C	0.986811	-0.695115	0.245898
H175	H	0.982185	-0.662459	0.279806
H176	H	1.020491	-0.689376	0.184311
C177	C	0.904608	-0.750716	0.187717
C178	C	0.898921	-0.710608	0.229367
H179	H	0.850395	-0.760272	0.177516
H180	H	0.934607	-0.773150	0.220972
H181	H	0.932679	-0.745928	0.136399
H182	H	0.870860	-0.715398	0.280688
H183	H	0.868916	-0.688174	0.196120
O184	O	1.081653	-0.423021	0.351207
C185	C	1.025531	-0.395562	0.395787
H186	H	1.017048	-0.411231	0.461013
H187	H	1.051085	-0.360806	0.399974
C188	C	0.951586	-0.372106	0.270607
C189	C	0.941161	-0.391353	0.350716
H190	H	0.899543	-0.369507	0.242804
H191	H	0.989397	-0.390604	0.240572
H192	H	0.972883	-0.343144	0.274107
H193	H	0.919874	-0.420316	0.347215
H194	H	0.903344	-0.372859	0.380750
O195	O	1.331293	-0.793829	0.627702
C196	C	1.375843	-0.827128	0.677046
H197	H	1.341645	-0.859680	0.678169
H198	H	1.440559	-0.833130	0.649855
C199	C	1.425282	-0.771437	0.764782
C200	C	1.383276	-0.811418	0.766167
H201	H	1.429871	-0.761747	0.819755
H202	H	1.395271	-0.749003	0.731537
H203	H	1.479208	-0.776445	0.742119
H204	H	1.329348	-0.806409	0.788820
H205	H	1.413279	-0.833851	0.799419
H206	H	1.039299	-0.640138	0.304058
H207	H	1.323380	-0.882116	0.618856
