data_functionalizedCrystal
_audit_creation_method	'MofGen! by Chris Wilmer'
_symmetry_space_group_name_H-M	'P1'
_symmetry_Int_Tables_number	1
_symmetry_cell_setting	triclinic
loop_
_symmetry_equiv_pos_as_xyz
  x,y,z
_cell_length_a	11.169416
_cell_length_b	11.169417
_cell_length_c	11.169409
_cell_angle_alpha	89.978317
_cell_angle_beta	90.031365
_cell_angle_gamma	89.990913
loop_
_atom_site_label
_atom_site_type_symbol
_atom_site_fract_x
_atom_site_fract_y
_atom_site_fract_z
Zn1	Zn	-0.477744	-1.834964	0.678610
Zn2	Zn	0.022256	-1.334964	1.178610
Zn3	Zn	-0.678484	-1.834854	0.477931
Zn4	Zn	-0.178484	-1.334854	0.977931
Zn5	Zn	-0.477810	-1.634250	0.477938
Zn6	Zn	0.022190	-1.134250	0.977938
Zn7	Zn	-0.678380	-1.634258	0.678569
Zn8	Zn	-0.178380	-1.134258	1.178569
O9	O	-0.578105	-1.734581	0.578262
O10	O	-0.078105	-1.234581	1.078262
O11	O	-0.504389	-2.002899	0.652004
O12	O	-0.004389	-1.502899	1.152004
O13	O	-0.651936	-1.808194	0.309982
O14	O	-0.151936	-1.308194	0.809982
O15	O	-0.309852	-1.660918	0.504578
O16	O	0.190148	-1.160918	1.004578
O17	O	-0.651872	-2.002818	0.504565
O18	O	-0.151872	-1.502818	1.004565
O19	O	-0.309803	-1.808381	0.652011
O20	O	0.190197	-1.308381	1.152011
O21	O	-0.504502	-1.660811	0.309987
O22	O	-0.004502	-1.160811	0.809987
O23	O	-0.504400	-1.466301	0.504538
O24	O	-0.004400	-0.966301	1.004538
O25	O	-0.651694	-1.660931	0.846524
O26	O	-0.151694	-1.160931	1.346524
O27	O	-0.651758	-1.466307	0.651941
O28	O	-0.151758	-0.966307	1.151941
O29	O	-0.504287	-1.808389	0.846555
O30	O	-0.004287	-1.308389	1.346555
O31	O	-0.846420	-1.808202	0.504525
O32	O	-0.346420	-1.308202	1.004525
O33	O	-0.846344	-1.660825	0.651933
O34	O	-0.346344	-1.160825	1.151933
C35	C	-0.578076	-1.422757	0.578237
C36	C	-0.078076	-0.922757	1.078237
C37	C	-0.578093	-1.289357	0.578254
C38	C	-0.078093	-0.789357	1.078254
C39	C	-0.889929	-1.734535	0.578250
C40	C	-0.389929	-1.234535	1.078250
C41	C	-1.023329	-1.734625	0.578285
C42	C	-0.523329	-1.234625	1.078285
C43	C	-0.265062	-1.734661	0.578300
C44	C	0.234938	-1.234661	1.078300
C45	C	-0.131662	-1.734695	0.578316
C46	C	0.368338	-1.234695	1.078316
C47	C	-0.577971	-1.734674	0.891305
C48	C	-0.077971	-1.234674	1.391305
C49	C	-0.577915	-1.734713	1.024705
C50	C	-0.077915	-1.234713	1.524705
C51	C	-0.578124	-1.047624	0.578279
C52	C	-0.078124	-0.547624	1.078279
C53	C	-0.578107	-1.181024	0.578262
C54	C	-0.078107	-0.681024	1.078262
C55	C	-0.578151	-1.734559	0.266437
C56	C	-0.078151	-1.234559	0.766437
C57	C	-0.577870	-1.734752	0.133038
C58	C	-0.077870	-1.234752	0.633038
