data_functionalizedCrystal
_audit_creation_method	'MofGen! by Chris Wilmer'
_symmetry_space_group_name_H-M	'P1'
_symmetry_Int_Tables_number	1
_symmetry_cell_setting	triclinic
loop_
_symmetry_equiv_pos_as_xyz
  x,y,z
_cell_length_a	12.837943
_cell_length_b	15.995350
_cell_length_c	11.892095
_cell_angle_alpha	93.891441
_cell_angle_beta	85.689438
_cell_angle_gamma	89.160657
loop_
_atom_site_label
_atom_site_type_symbol
_atom_site_fract_x
_atom_site_fract_y
_atom_site_fract_z
O1	O	1.382080	0.212847	-0.093972
O2	O	1.080275	0.202094	-0.093979
O3	O	1.239427	0.086241	-0.093975
O4	O	1.222927	0.328700	-0.093977
O5	O	1.226157	0.095884	0.094032
O6	O	1.067005	0.211737	0.094028
O7	O	1.368810	0.222490	0.094035
Zn8	Zn	1.215800	0.218644	0.123881
Zn9	Zn	1.233284	0.205939	-0.123826
O10	O	1.209657	0.338343	0.094030
C11	C	1.035019	0.203283	0.000023
C12	C	0.919942	0.192449	0.000020
C13	C	1.232110	0.059813	0.000027
C14	C	1.230066	-0.033301	0.000020
C15	C	0.678983	0.322688	0.000035
C16	C	0.570857	0.312513	0.000033
C17	C	0.595563	0.161925	0.000023
C18	C	0.703688	0.172100	0.000025
C19	C	0.745394	0.252484	0.000029
C20	C	0.853523	0.262658	0.000023
C21	C	0.878225	0.112072	0.000020
C22	C	0.770100	0.101896	0.000018
C23	C	1.222721	-0.371634	0.000024
C24	C	1.109405	-0.333265	-0.000400
C25	C	1.111421	-0.236390	0.000023
C26	C	1.226364	-0.203783	0.000021
C27	C	1.274693	-0.234893	0.107382
C28	C	1.271839	-0.331752	0.107472
C29	C	1.289271	-0.342889	-0.106327
C30	C	1.289344	-0.246018	-0.107746
C31	C	1.228429	-0.108921	0.000024
C32	C	1.220659	-0.466496	0.000029
C33	C	1.414066	0.221301	0.000030
C34	C	1.529143	0.232134	0.000025
C35	C	1.216974	0.364770	0.000026
C36	C	1.219020	0.457884	0.000025
N37	N	1.203876	0.227315	0.292935
N38	N	1.245217	0.197262	-0.292880
C39	C	1.328193	0.136877	0.529587
C40	C	1.319865	0.142945	0.647928
C41	C	1.178889	0.245514	0.647962
C42	C	1.187216	0.239446	0.529621
C43	C	1.261872	0.185127	0.470437
C44	C	1.270204	0.179064	0.352093
C45	C	1.129223	0.281628	0.352129
C46	C	1.120896	0.287696	0.470471
H47	H	0.712940	0.388139	0.000037
O48	O	1.040389	0.346287	0.534314
H49	H	0.995671	0.378819	0.473298
H50	H	1.069536	-0.359360	-0.077391
O51	O	1.408685	0.078278	0.465733
H52	H	1.462865	0.114790	0.411796
H53	H	1.118099	0.289733	0.696165
O54	O	1.391407	0.090915	0.711731
H55	H	1.444723	0.052134	0.650691
O56	O	1.350714	0.120475	0.288251
H57	H	1.395422	0.087936	0.349269
O58	O	1.400037	-0.376170	-0.107282
H59	H	1.446523	-0.355602	-0.182598
H60	H	1.075223	0.320919	0.303956
O61	O	1.215799	-0.195975	0.213218
H62	H	1.132668	-0.214228	0.214282
O63	O	0.898513	0.349353	0.000042
H64	H	0.834162	0.396461	0.000062
H65	H	0.516788	0.369680	0.000041
H66	H	0.561579	0.096485	0.000112
H67	H	0.736126	0.036451	0.000028
O68	O	0.949852	0.036343	0.000020
H69	H	1.032047	0.056920	0.000029
O70	O	1.060385	-0.208602	-0.101901
H71	H	1.034036	-0.264396	-0.151938
H72	H	1.058900	-0.352531	0.076159
O73	O	1.045634	-0.198906	0.102149
H74	H	1.012262	-0.249981	0.151432
O75	O	1.386175	-0.206983	0.112679
H76	H	1.418489	-0.229766	0.189272
O77	O	1.381604	-0.365352	0.113950
H78	H	1.436486	-0.312411	0.117014
O79	O	1.210327	-0.354861	0.213768
H80	H	1.182890	-0.296888	0.264620
O81	O	1.247831	-0.379533	-0.214140
H82	H	1.165602	-0.358168	-0.217958
O83	O	1.242712	-0.219569	-0.212963
H84	H	1.174966	-0.176517	-0.188618
H85	H	1.373623	-0.224301	-0.114230
