data_functionalizedCrystal
_audit_creation_method	'MofGen! by Chris Wilmer'
_symmetry_space_group_name_H-M	'P1'
_symmetry_Int_Tables_number	1
_symmetry_cell_setting	triclinic
loop_
_symmetry_equiv_pos_as_xyz
  x,y,z
_cell_length_a	18.050589
_cell_length_b	16.120530
_cell_length_c	18.050582
_cell_angle_alpha	87.088397
_cell_angle_beta	89.981795
_cell_angle_gamma	87.123928
loop_
_atom_site_label
_atom_site_type_symbol
_atom_site_fract_x
_atom_site_fract_y
_atom_site_fract_z
Zn1	Zn	-0.353358	1.274469	-0.477436
Zn2	Zn	0.146642	1.774469	0.022564
Zn3	Zn	-0.477536	1.274369	-0.353251
Zn4	Zn	0.022464	1.774369	0.146749
Zn5	Zn	-0.347063	1.135065	-0.346971
Zn6	Zn	0.152937	1.635065	0.153029
Zn7	Zn	-0.471202	1.135006	-0.471112
Zn8	Zn	0.028798	1.635006	0.028888
O9	O	-0.412290	1.204727	-0.412192
O10	O	0.087710	1.704727	0.087808
O11	O	-0.375115	1.391120	-0.466238
O12	O	0.124885	1.891120	0.033762
O13	O	-0.460246	1.255872	-0.248492
O14	O	0.039754	1.755872	0.251508
O15	O	-0.243977	1.153623	-0.364295
O16	O	0.256023	1.653623	0.135705
O17	O	-0.466349	1.391047	-0.374999
O18	O	0.033651	1.891047	0.125001
O19	O	-0.248601	1.256043	-0.460148
O20	O	0.251399	1.756043	0.039852
O21	O	-0.364388	1.153526	-0.243878
O22	O	0.135612	1.653526	0.256122
O23	O	-0.358245	1.018392	-0.358163
O24	O	0.141755	1.518392	0.141837
O25	O	-0.455552	1.153524	-0.575876
O26	O	0.044448	1.653524	-0.075876
O27	O	-0.449449	1.018349	-0.449369
O28	O	0.050551	1.518349	0.050631
O29	O	-0.368973	1.255986	-0.580523
O30	O	0.131027	1.755986	-0.080523
O31	O	-0.580618	1.255816	-0.368867
O32	O	-0.080618	1.755816	0.131133
O33	O	-0.575964	1.153427	-0.455459
O34	O	-0.075964	1.653427	0.044541
C35	C	-0.402477	0.988121	-0.402399
C36	C	0.097523	1.488121	0.097601
C37	C	-0.398297	0.895456	-0.398227
C38	C	0.101703	1.395456	0.101773
C39	C	-0.390648	0.725795	-0.390616
C40	C	0.109352	1.225795	0.109384
C41	C	-0.433986	0.684499	-0.433823
C42	C	0.066014	1.184499	0.066177
C43	C	-0.429730	0.590094	-0.429588
C44	C	0.070270	1.090094	0.070412
C45	C	-0.394903	0.820209	-0.394849
C46	C	0.105097	1.320209	0.105151
C47	C	-0.605237	1.204626	-0.412175
C48	C	-0.105237	1.704626	0.087825
C49	C	-0.687785	1.204660	-0.412197
C50	C	-0.187785	1.704660	0.087803
C51	C	-0.884734	1.149035	-0.459270
C52	C	-0.384734	1.649035	0.040730
C53	C	-0.933249	1.128719	-0.390586
C54	C	-0.433249	1.628719	0.109414
C55	C	-0.838919	1.204742	-0.412210
C56	C	-0.338919	1.704742	0.087790
C57	C	-0.937487	1.225099	-0.480903
C58	C	-0.437487	1.725099	0.019097
C59	C	-0.984907	1.204819	-0.412229
C60	C	-0.484907	1.704819	0.087771
C61	C	-0.886344	1.184385	-0.343488
C62	C	-0.386344	1.684385	0.156512
C63	C	-0.890580	1.280801	-0.433853
C64	C	-0.390580	1.780801	0.066147
C65	C	-0.939074	1.260513	-0.365123
C66	C	-0.439074	1.760513	0.134877
C67	C	-0.754818	1.204695	-0.412200
C68	C	-0.254818	1.704695	0.087800
C69	C	-1.069006	1.204866	-0.412231
C70	C	-0.569006	1.704866	0.087769
C71	C	-0.218590	1.204851	-0.412227
C72	C	0.281410	1.704851	0.087773
C73	C	-0.136046	1.204904	-0.412241
C74	C	0.363954	1.704904	0.087759
C75	C	-0.412258	1.204760	-0.605899
C76	C	0.087742	1.704760	-0.105899
C77	C	-0.412245	1.204774	-0.688446
C78	C	0.087755	1.704774	-0.188446
C79	C	-0.422141	1.422179	-0.422025
C80	C	0.077859	1.922179	0.077975
C81	C	-0.426339	1.514844	-0.426215
C82	C	0.073661	2.014844	0.073785
C83	C	-0.459261	1.149097	-0.885372
C84	C	0.040739	1.649097	-0.385372
C85	C	-0.480855	1.225159	-0.938196
C86	C	0.019145	1.725159	-0.438196
C87	C	-0.412190	1.204815	-0.839578
C88	C	0.087810	1.704815	-0.339578
C89	C	-0.390577	1.128795	-0.933837
C90	C	0.109423	1.628795	-0.433837
C91	C	-0.412138	1.204848	-0.985565
C92	C	0.087862	1.704848	-0.485565
C93	C	-0.433821	1.280916	-0.891317
C94	C	0.066179	1.780916	-0.391317
C95	C	-0.343510	1.184501	-0.886952
C96	C	0.156490	1.684501	-0.386952
C97	C	-0.365080	1.260615	-0.939756
C98	C	0.134920	1.760615	-0.439756
C99	C	-0.412222	1.204795	-0.755479
C100	C	0.087778	1.704795	-0.255479
C101	C	-0.412107	1.204877	-1.069663
C102	C	0.087893	1.704877	-0.569663
C103	C	-0.412270	1.204743	-0.219241
C104	C	0.087730	1.704743	0.280759
C105	C	-0.412081	1.204890	-0.136702
C106	C	0.087919	1.704890	0.363298
H107	H	-0.474283	0.720045	-0.473995
H108	H	0.025717	1.220045	0.026005
Cl109	Cl	-0.851847	1.157735	-0.253777
Cl110	Cl	-0.351847	1.657735	0.246223
H111	H	-0.538915	1.242360	-0.960676
H112	H	-0.038915	1.742360	-0.460676
Cl113	Cl	-0.328436	0.670919	-0.328596
Cl114	Cl	0.171564	1.170919	0.171404
Cl115	Cl	-0.848015	1.076200	-0.520619
Cl116	Cl	-0.348015	1.576200	-0.020619
Cl117	Cl	-0.520803	1.076418	-0.848632
Cl118	Cl	-0.020803	1.576418	-0.348632
Cl119	Cl	-0.861441	1.380029	-0.462140
Cl120	Cl	-0.361441	1.880029	0.037860
H121	H	-0.452145	1.345238	-0.872618
H122	H	0.047855	1.845238	-0.372618
Cl123	Cl	-0.962359	1.029464	-0.362328
Cl124	Cl	-0.462359	1.529464	0.137672
H125	H	-0.962716	1.307655	-0.325286
H126	H	-0.462716	1.807655	0.174714
H127	H	-0.959920	1.242287	-0.538989
H128	H	-0.459920	1.742287	-0.038989
Cl129	Cl	-0.303593	1.333465	-0.976295
Cl130	Cl	0.196407	1.833465	-0.476295
Cl131	Cl	-0.253893	1.157910	-0.852215
Cl132	Cl	0.246107	1.657910	-0.352215
H133	H	-0.372319	1.064493	-0.952629
H134	H	0.127681	1.564493	-0.452629
