data_functionalizedCrystal
_audit_creation_method	'MofGen! by Chris Wilmer'
_symmetry_space_group_name_H-M	'P1'
_symmetry_Int_Tables_number	1
_symmetry_cell_setting	triclinic
loop_
_symmetry_equiv_pos_as_xyz
  x,y,z
_cell_length_a	19.077105
_cell_length_b	18.101395
_cell_length_c	19.076919
_cell_angle_alpha	92.272317
_cell_angle_beta	90.076224
_cell_angle_gamma	87.727498
loop_
_atom_site_label
_atom_site_type_symbol
_atom_site_fract_x
_atom_site_fract_y
_atom_site_fract_z
Zn1	Zn	1.058231	-0.358271	-0.440421
Zn2	Zn	1.558231	0.141729	0.059579
Zn3	Zn	1.062857	-0.477344	-0.322915
Zn4	Zn	1.562857	0.022656	0.177085
Zn5	Zn	0.945450	-0.348351	-0.318214
Zn6	Zn	1.445450	0.151649	0.181786
Zn7	Zn	0.940679	-0.476897	-0.435668
Zn8	Zn	1.440679	0.023103	0.064332
O9	O	1.001804	-0.415216	-0.379305
O10	O	1.501804	0.084784	0.120695
O11	O	1.157176	-0.378405	-0.428790
O12	O	1.657176	0.121595	0.071210
O13	O	1.051216	-0.456268	-0.223960
O14	O	1.551216	0.043732	0.276040
O15	O	0.960470	-0.246037	-0.334447
O16	O	1.460470	0.253963	0.165553
O17	O	1.160575	-0.465887	-0.342459
O18	O	1.660575	0.034113	0.157541
O19	O	1.043330	-0.253326	-0.424232
O20	O	1.543330	0.246674	0.075768
O21	O	0.964957	-0.361497	-0.220507
O22	O	1.464957	0.138503	0.279493
O23	O	0.846486	-0.361064	-0.329838
O24	O	1.346486	0.138936	0.170162
O25	O	0.952340	-0.465126	-0.534630
O26	O	1.452340	0.034874	-0.034630
O27	O	0.842981	-0.455506	-0.416131
O28	O	1.342981	0.044494	0.083869
O29	O	1.038704	-0.377972	-0.538122
O30	O	1.538704	0.122028	-0.038122
O31	O	1.046590	-0.580914	-0.337850
O32	O	1.546590	-0.080914	0.162150
O33	O	0.956826	-0.580586	-0.420689
O34	O	1.456826	-0.080586	0.079311
C35	C	0.819237	-0.407161	-0.371959
C36	C	1.319237	0.092839	0.128041
C37	C	0.741133	-0.403733	-0.368833
C38	C	1.241133	0.096267	0.131167
C39	C	0.702636	-0.451363	-0.412222
C40	C	1.202636	0.048637	0.087778
C41	C	0.629249	-0.448133	-0.409288
C42	C	1.129249	0.051867	0.090712
C43	C	0.594361	-0.397276	-0.362962
C44	C	1.094361	0.102724	0.137038
C45	C	0.632863	-0.349642	-0.319571
C46	C	1.132863	0.150358	0.180429
C47	C	0.706248	-0.352869	-0.322509
C48	C	1.206248	0.147131	0.177491
C49	C	0.375075	-0.382341	-0.349369
C50	C	0.875075	0.117659	0.150631
C51	C	0.301684	-0.379119	-0.346433
C52	C	0.801684	0.120881	0.153567
C53	C	0.298076	-0.477610	-0.436152
C54	C	0.798076	0.022390	0.063848
C55	C	0.371463	-0.480836	-0.439082
C56	C	0.871463	0.019164	0.060918
C57	C	0.409959	-0.433198	-0.395694
C58	C	0.909959	0.066802	0.104306
N59	N	0.519348	-0.393975	-0.359960
N60	N	1.019348	0.106025	0.140040
N61	N	0.484970	-0.436497	-0.398700
N62	N	0.984970	0.063503	0.101300
C63	C	1.001711	-0.607621	-0.379280
C64	C	1.501711	-0.107621	0.120720
C65	C	1.001735	-0.689937	-0.379296
C66	C	1.501735	-0.189937	0.120704
C67	C	1.001887	-0.989036	-0.379340
C68	C	1.501887	-0.489036	0.120660
C69	C	0.945531	-0.957547	-0.431600
C70	C	1.445531	-0.457547	0.068400
C71	C	0.945280	-0.871910	-0.431419
C72	C	1.445280	-0.371910	0.068581
C73	C	1.001811	-0.840650	-0.379319
C74	C	1.501811	-0.340650	0.120681
C75	C	0.984741	-0.867911	-0.304458
C76	C	1.484741	-0.367911	0.195542
C77	C	0.984379	-0.953554	-0.304770
C78	C	1.484379	-0.453554	0.195230
C79	C	1.075459	-0.961424	-0.401293
C80	C	1.575459	-0.461424	0.098707
C81	C	1.074956	-0.875820	-0.402900
C82	C	1.574956	-0.375820	0.097100
C83	C	1.001770	-0.756788	-0.379302
C84	C	1.501770	-0.256788	0.120698
C85	C	1.001927	-1.072898	-0.379351
C86	C	1.501927	-0.572898	0.120649
C87	C	1.185084	-0.423303	-0.386679
C88	C	1.685084	0.076697	0.113321
C89	C	1.263188	-0.426749	-0.389822
C90	C	1.763188	0.073251	0.110178
C91	C	0.994474	-0.422606	-0.562585
C92	C	1.494474	0.077394	-0.062585
C93	C	0.991350	-0.425755	-0.640688
C94	C	1.491350	0.074245	-0.140688
C95	C	1.001916	-0.222060	-0.379345
C96	C	1.501916	0.277940	0.120655
C97	C	1.001964	-0.139749	-0.379363
C98	C	1.501964	0.360251	0.120637
C99	C	1.034846	-0.381860	-0.679200
C100	C	1.534846	0.118140	-0.179200
C101	C	1.031902	-0.384816	-0.752586
C102	C	1.531902	0.115184	-0.252586
C103	C	0.985466	-0.431671	-0.787458
C104	C	1.485466	0.068329	-0.287458
C105	C	0.941966	-0.475568	-0.748941
C106	C	1.441966	0.024432	-0.248941
C107	C	0.944906	-0.472608	-0.675556
C108	C	1.444906	0.027392	-0.175556
C109	C	0.971847	-0.445387	-1.006740
C110	C	1.471847	0.054613	-0.506740
C111	C	0.968911	-0.448346	-1.080130
C112	C	1.468911	0.051654	-0.580130
C113	C	1.058847	-0.357593	-1.083770
C114	C	1.558847	0.142407	-0.583770
C115	C	1.061786	-0.354640	-1.010384
C116	C	1.561786	0.145360	-0.510384
C117	C	1.018283	-0.398533	-0.971872
C118	C	1.518283	0.101467	-0.471872
N119	N	0.982458	-0.434696	-0.862471
N120	N	1.482458	0.065304	-0.362471
N121	N	1.021289	-0.395505	-0.896861
N122	N	1.521289	0.104495	-0.396861
C123	C	1.009146	-0.407803	-0.196739
C124	C	1.509146	0.092197	0.303261
C125	C	1.012406	-0.404451	-0.118642
C126	C	1.512406	0.095549	0.381358
H127	H	0.604451	-0.308230	-0.281854
H128	H	1.104451	0.191770	0.218146
H129	H	0.890687	-0.848550	-0.416642
H130	H	1.390687	-0.348550	0.083358
C131	C	0.586907	-0.500569	-0.456973
C132	C	1.086907	-0.000569	0.043027
H133	H	0.618197	-0.531338	-0.484965
H134	H	1.118197	-0.031338	0.015035
H135	H	0.557051	-0.472312	-0.486507
H136	H	1.057051	0.027688	0.013493
H137	H	0.559360	-0.530432	-0.428850
H138	H	1.059360	-0.030432	0.071150
H139	H	0.737591	-0.314080	-0.287181
H140	H	1.237591	0.185920	0.212819
C141	C	0.741011	-0.507309	-0.463176
C142	C	1.241011	-0.007309	0.036824
H143	H	0.790231	-0.502417	-0.458707
H144	H	1.290231	-0.002417	0.041293
H145	H	0.727112	-0.497929	-0.509927
H146	H	1.227112	0.002071	-0.009927
H147	H	0.729371	-0.556103	-0.452318
H148	H	1.229371	-0.056103	0.047682
H149	H	1.099601	-0.316487	-0.981996
H150	H	1.599601	0.183513	-0.481996
C151	C	1.106690	-0.309309	-1.126133
C152	C	1.606690	0.190691	-0.626133
H153	H	1.098286	-0.317776	-1.174832
H154	H	1.598286	0.182224	-0.674832
H155	H	1.154378	-0.321742	-1.116006
H156	H	1.654378	0.178258	-0.616006
H157	H	1.096910	-0.258611	-1.113701
H158	H	1.596910	0.241389	-0.613701
C159	C	0.890888	-0.527108	-0.787299
C160	C	1.390888	-0.027108	-0.287299
H161	H	0.895370	-0.522591	-0.836520
H162	H	1.395370	-0.022591	-0.336520
H163	H	0.844163	-0.513704	-0.773373
H164	H	1.344163	-0.013704	-0.273373
H165	H	0.901630	-0.576836	-0.775673
H166	H	1.401630	-0.076836	-0.275673
C167	C	0.959216	-0.847208	-0.506282
C168	C	1.459216	-0.347208	-0.006282
H169	H	0.965081	-0.889541	-0.537080
H170	H	1.465081	-0.389541	-0.037080
H171	H	1.000570	-0.819664	-0.506511
H172	H	1.500570	-0.319664	-0.006511
H173	H	0.920575	-0.817190	-0.521450
H174	H	1.420575	-0.317190	-0.021450
H175	H	0.930687	-0.970551	-0.286519
H176	H	1.430687	-0.470551	0.213481
H177	H	0.931095	-0.486502	-1.108520
H178	H	1.431095	0.013498	-0.608520
C179	C	0.263308	-0.323170	-0.295476
C180	C	0.763308	0.176830	0.204524
H181	H	0.296744	-0.295256	-0.270061
H182	H	0.796744	0.204744	0.229939
H183	H	0.235888	-0.348951	-0.263664
H184	H	0.735888	0.151049	0.236336
H185	H	0.233623	-0.290778	-0.321274
H186	H	0.733623	0.209222	0.178726
C187	C	0.923981	-0.493652	-0.964386
C188	C	1.423981	0.006348	-0.464386
H189	H	0.895906	-0.521980	-0.995667
H190	H	1.395906	-0.021980	-0.495667
H191	H	0.894532	-0.462802	-0.934542
H192	H	1.394532	0.037198	-0.434542
H193	H	0.951974	-0.525959	-0.936824
H194	H	1.451974	-0.025959	-0.436824
C195	C	1.097271	-0.994525	-0.473992
C196	C	1.597271	-0.494525	0.026008
H197	H	1.141801	-0.977165	-0.486244
H198	H	1.641801	-0.477165	0.013756
H199	H	1.063499	-0.979866	-0.507881
H200	H	1.563499	-0.479866	-0.007881
H201	H	1.099976	-1.046971	-0.472699
H202	H	1.599976	-0.546971	0.027301
C203	C	0.897079	-0.520911	-0.633193
C204	C	1.397079	-0.020911	-0.133193
H205	H	0.869011	-0.549250	-0.664472
H206	H	1.369011	-0.049250	-0.164472
H207	H	0.867621	-0.490092	-0.603330
H208	H	1.367621	0.009908	-0.103330
H209	H	0.925105	-0.553207	-0.605652
H210	H	1.425105	-0.053207	-0.105652
H211	H	0.399864	-0.522250	-0.476804
H212	H	0.899864	-0.022250	0.023196
H213	H	0.266725	-0.516393	-0.471476
H214	H	0.766725	-0.016393	0.028524
C215	C	0.913000	-0.834938	-0.279442
C216	C	1.413000	-0.334938	0.220558
H217	H	0.903140	-0.851759	-0.234087
H218	H	1.403140	-0.351759	0.265913
H219	H	0.877581	-0.850240	-0.311269
H220	H	1.377581	-0.350240	0.188731
H221	H	0.914026	-0.782468	-0.277525
H222	H	1.414026	-0.282468	0.222475
C223	C	0.417412	-0.329955	-0.301632
C224	C	0.917412	0.170045	0.198368
H225	H	0.386121	-0.299214	-0.273614
H226	H	0.886121	0.200786	0.226386
H227	H	0.444986	-0.300072	-0.329703
H228	H	0.944986	0.199928	0.170297
H229	H	0.447242	-0.358266	-0.272112
H230	H	0.947242	0.141734	0.227888
H231	H	0.955734	-0.980878	-0.487188
H232	H	1.455734	-0.480878	0.012812
C233	C	0.872222	-0.982759	-0.411868
C234	C	1.372222	-0.482759	0.088132
H235	H	0.875811	-1.012391	-0.371919
H236	H	1.375811	-0.512391	0.128081
H237	H	0.853394	-1.010822	-0.450062
H238	H	1.353394	-0.510822	0.049938
H239	H	0.842237	-0.940613	-0.401435
H240	H	1.342237	-0.440613	0.098565
C241	C	1.037629	-0.981489	-0.250150
C242	C	1.537629	-0.481489	0.249850
H243	H	1.059383	-0.940494	-0.227865
H244	H	1.559383	-0.440494	0.272135
H245	H	1.072309	-1.013029	-0.272848
H246	H	1.572309	-0.513029	0.227152
H247	H	1.014035	-1.008167	-0.216026
H248	H	1.514035	-0.508167	0.283974
H249	H	1.024629	-0.847532	-0.264328
H250	H	1.524629	-0.347532	0.235672
C251	C	1.092429	-0.852192	-0.477340
C252	C	1.592429	-0.352192	0.022660
H253	H	1.055309	-0.821020	-0.493983
H254	H	1.555309	-0.321020	0.006017
H255	H	1.098070	-0.894849	-0.507747
H256	H	1.598070	-0.394849	-0.007747
H257	H	1.134684	-0.826110	-0.476208
H258	H	1.634684	-0.326110	0.023792
C259	C	1.134358	-0.847420	-0.355541
C260	C	1.634358	-0.347420	0.144459
H261	H	1.115241	-0.813595	-0.320609
H262	H	1.615241	-0.313595	0.179391
H263	H	1.167191	-0.823176	-0.383102
H264	H	1.667191	-0.323176	0.116898
H265	H	1.157278	-0.887979	-0.333677
H266	H	1.657278	-0.387979	0.166323
H267	H	1.117410	-0.981841	-0.363267
H268	H	1.617410	-0.481841	0.136733
H269	H	1.067323	-0.349074	-0.783940
H270	H	1.567323	0.150926	-0.283940
C271	C	1.085923	-0.330316	-0.640847
C272	C	1.585923	0.169684	-0.140847
H273	H	1.111399	-0.304591	-0.674296
H274	H	1.611399	0.195409	-0.174296
H275	H	1.117672	-0.358835	-0.613445
H276	H	1.617672	0.141165	-0.113445
H277	H	1.060201	-0.295706	-0.611146
H278	H	1.560201	0.204294	-0.111146
