data_functionalizedCrystal
_audit_creation_method	'MofGen! by Chris Wilmer'
_symmetry_space_group_name_H-M	'P1'
_symmetry_Int_Tables_number	1
_symmetry_cell_setting	triclinic
loop_
_symmetry_equiv_pos_as_xyz
  x,y,z
_cell_length_a	10.540514
_cell_length_b	14.971494
_cell_length_c	14.048226
_cell_angle_alpha	90.005361
_cell_angle_beta	90.001824
_cell_angle_gamma	84.066359
loop_
_atom_site_label
_atom_site_type_symbol
_atom_site_fract_x
_atom_site_fract_y
_atom_site_fract_z
O1	O	1.684476	0.125949	0.079169
O2	O	2.184476	0.625949	0.579169
O3	O	1.314924	0.137849	0.079168
O4	O	1.814924	0.637849	0.579168
O5	O	1.509599	0.001755	0.079166
O6	O	2.009599	0.501755	0.579166
O7	O	1.489800	0.262043	0.079170
O8	O	1.989800	0.762043	0.579170
O9	O	1.509595	0.001743	-0.079155
O10	O	2.009595	0.501743	0.420845
O11	O	1.314920	0.137838	-0.079154
O12	O	1.814920	0.637838	0.420846
O13	O	1.684472	0.125938	-0.079153
O14	O	2.184472	0.625938	0.420847
Zn15	Zn	1.499695	0.131886	-0.104290
Zn16	Zn	1.999695	0.631886	0.395710
Zn17	Zn	1.499700	0.131901	0.104305
Zn18	Zn	1.999700	0.631901	0.604305
O19	O	1.489796	0.262032	-0.079151
O20	O	1.989796	0.762032	0.420849
C21	C	1.267628	0.136956	0.000007
C22	C	1.767628	0.636956	0.500007
C23	C	1.126709	0.134300	0.000006
C24	C	1.626709	0.634300	0.500006
C25	C	1.508710	-0.031581	0.000007
C26	C	2.008710	0.468419	0.500007
C27	C	1.506051	-0.130892	0.000011
C28	C	2.006051	0.369108	0.500011
C29	C	1.054903	0.231633	0.000010
C30	C	1.554903	0.731633	0.500010
C31	C	0.908321	0.228903	0.000374
C32	C	1.408321	0.728903	0.500374
C33	C	0.934972	0.081372	0.090244
C34	C	1.434972	0.581372	0.590244
C35	C	1.081473	0.084792	0.090315
C36	C	1.581473	0.584792	0.590315
C37	C	1.081887	0.083339	-0.089732
C38	C	1.581887	0.583339	0.410268
C39	C	0.934919	0.082400	-0.090913
C40	C	1.434919	0.582400	0.409087
C41	C	1.504807	-0.177538	0.086313
C42	C	2.004807	0.322462	0.586313
C43	C	1.502300	-0.270851	0.086314
C44	C	2.002300	0.229149	0.586314
C45	C	1.501046	-0.317517	0.000012
C46	C	2.001046	0.182483	0.500012
C47	C	1.502287	-0.270865	-0.086296
C48	C	2.002287	0.229135	0.413704
C49	C	1.504784	-0.177553	-0.086296
C50	C	2.004784	0.322447	0.413704
C51	C	1.497084	-0.465357	-0.086290
C52	C	1.997084	0.034643	0.413710
C53	C	1.494589	-0.558676	-0.086290
C54	C	1.994589	-0.058676	0.413710
C55	C	1.494600	-0.558655	0.086321
C56	C	1.994600	-0.058655	0.586321
C57	C	1.497097	-0.465343	0.086321
C58	C	1.997097	0.034657	0.586321
C59	C	1.498340	-0.418697	0.000012
C60	C	1.998340	0.081303	0.500012
C61	C	1.731767	0.126831	0.000010
C62	C	2.231767	0.626831	0.500010
C63	C	1.872687	0.129487	0.000017
C64	C	2.372687	0.629487	0.500017
C65	C	1.490686	0.295367	0.000010
C66	C	1.990686	0.795367	0.500010
C67	C	1.493345	0.394679	0.000012
C68	C	1.993345	0.894679	0.500012
N69	N	1.499705	0.131904	0.246666
N70	N	1.999705	0.631904	0.746666
N71	N	1.499701	0.131875	-0.246651
N72	N	1.999701	0.631875	0.253349
C73	C	1.586068	0.071762	0.296483
C74	C	2.086068	0.571762	0.796483
C75	C	1.586073	0.071759	0.396141
C76	C	2.086073	0.571759	0.896141
C77	C	1.499708	0.131895	0.445979
C78	C	1.999708	0.631895	0.945979
C79	C	1.413341	0.192044	0.396155
C80	C	1.913341	0.692044	0.896155
C81	C	1.413343	0.192050	0.296499
C82	C	1.913343	0.692050	0.796499
C83	C	1.413341	0.192025	0.603869
C84	C	1.913341	0.692025	1.103869
C85	C	1.413338	0.192017	0.703532
C86	C	1.913338	0.692017	1.203532
C87	C	1.586072	0.071734	0.703511
C88	C	2.086072	0.571734	1.203511
C89	C	1.586073	0.071740	0.603855
C90	C	2.086073	0.571740	1.103855
C91	C	1.499704	0.131888	0.554037
C92	C	1.999704	0.631888	1.054037
H93	H	0.865227	0.266748	-0.064290
H94	H	1.365227	0.766748	0.435710
H95	H	1.343012	0.240987	0.744105
H96	H	1.843012	0.740987	1.244105
Br97	Br	1.498815	-0.402011	0.203446
Br98	Br	1.998815	0.097989	0.703446
H99	H	1.082995	0.271113	-0.064684
H100	H	1.582995	0.771113	0.435316
Br101	Br	1.296137	0.273665	0.463789
Br102	Br	1.796137	0.773665	0.963789
Br103	Br	1.127864	0.143376	0.203163
Br104	Br	1.627864	0.643376	0.703163
H105	H	0.911553	0.009934	-0.096631
H106	H	1.411553	0.509934	0.403369
Br107	Br	0.899163	-0.040332	0.095416
Br108	Br	1.399163	0.459668	0.595416
Br109	Br	1.492907	-0.621958	0.203455
Br110	Br	1.992907	-0.121958	0.703455
Br111	Br	1.703275	-0.009862	0.228856
Br112	Br	2.203275	0.490138	0.728856
H113	H	1.656397	0.022788	0.436702
H114	H	2.156397	0.522788	0.936702
H115	H	1.656392	0.022769	0.563277
H116	H	2.156392	0.522769	1.063277
H117	H	1.343019	0.241025	0.255939
H118	H	1.843019	0.741025	0.755939
H119	H	1.656396	0.022760	0.744078
H120	H	2.156396	0.522760	1.244078
H121	H	1.498068	-0.427379	-0.156572
H122	H	1.998068	0.072621	0.343428
H123	H	1.501258	-0.308868	-0.156565
H124	H	2.001258	0.191132	0.343435
Br125	Br	1.492894	-0.622010	-0.203415
Br126	Br	1.992894	-0.122010	0.296585
Br127	Br	1.506466	-0.114246	-0.203425
Br128	Br	2.006466	0.385754	0.296575
H129	H	1.343014	0.241006	0.563311
H130	H	1.843014	0.741006	1.063311
H131	H	1.084692	0.270544	0.064619
H132	H	1.584692	0.770544	0.564619
H133	H	1.113013	0.115734	-0.158143
H134	H	1.613013	0.615734	0.341857
H135	H	1.501292	-0.308826	0.156590
H136	H	2.001292	0.191174	0.656590
Br137	Br	1.506521	-0.114215	0.203444
Br138	Br	2.006521	0.385785	0.703444
H139	H	0.866164	0.266595	0.065435
H140	H	1.366164	0.766595	0.565435
Br141	Br	0.863476	0.136436	0.202595
Br142	Br	1.363476	0.636436	0.702595
Br143	Br	1.162841	-0.034371	0.096727
Br144	Br	1.662841	0.465629	0.596727
H145	H	1.129955	0.011545	-0.090604
H146	H	1.629955	0.511545	0.409396
Br147	Br	0.865928	0.141002	-0.202175
Br148	Br	1.365928	0.641002	0.297825
