data_functionalizedCrystal
_audit_creation_method	'MofGen! by Chris Wilmer'
_symmetry_space_group_name_H-M	'P1'
_symmetry_Int_Tables_number	1
_symmetry_cell_setting	triclinic
loop_
_symmetry_equiv_pos_as_xyz
  x,y,z
_cell_length_a	17.077404
_cell_length_b	12.645330
_cell_length_c	17.077396
_cell_angle_alpha	90.026204
_cell_angle_beta	90.019501
_cell_angle_gamma	90.012871
loop_
_atom_site_label
_atom_site_type_symbol
_atom_site_fract_x
_atom_site_fract_y
_atom_site_fract_z
Zn1	Zn	1.200110	-0.422033	0.443855
Zn2	Zn	1.700110	0.077967	0.943855
Zn3	Zn	1.200041	-0.599318	0.312594
Zn4	Zn	1.700041	-0.099318	0.812594
Zn5	Zn	1.068842	-0.422070	0.312603
Zn6	Zn	1.568842	0.077930	0.812603
Zn7	Zn	1.068834	-0.599256	0.443818
Zn8	Zn	1.568834	-0.099256	0.943818
O9	O	1.134457	-0.510669	0.378218
O10	O	1.634457	-0.010669	0.878218
O11	O	1.309948	-0.445561	0.426455
O12	O	1.809948	0.054439	0.926455
O13	O	1.182612	-0.575848	0.202749
O14	O	1.682612	-0.075848	0.702749
O15	O	1.086288	-0.273718	0.330033
O16	O	1.586288	0.226282	0.830033
O17	O	1.309897	-0.575812	0.330018
O18	O	1.809897	-0.075812	0.830018
O19	O	1.182730	-0.273691	0.426464
O20	O	1.682730	0.226309	0.926464
O21	O	1.086221	-0.445624	0.202755
O22	O	1.586221	0.054376	0.702755
O23	O	0.958994	-0.445563	0.329997
O24	O	1.458994	0.054437	0.829997
O25	O	1.086273	-0.575705	0.553670
O26	O	1.586273	-0.075705	1.053670
O27	O	0.958988	-0.575741	0.426400
O28	O	1.458988	-0.075741	0.926400
O29	O	1.182722	-0.445500	0.553697
O30	O	1.682722	0.054500	1.053697
O31	O	1.182603	-0.747657	0.329982
O32	O	1.682603	-0.247657	0.829982
O33	O	1.086206	-0.747611	0.426392
O34	O	1.586206	-0.247611	0.926392
C35	C	0.930509	-0.510650	0.378196
C36	C	1.430509	-0.010650	0.878196
C37	C	0.843259	-0.510667	0.378205
C38	C	1.343259	-0.010667	0.878205
C39	C	1.134418	-0.786099	0.378199
C40	C	1.634418	-0.286099	0.878199
C41	C	1.134473	-0.903929	0.378217
C42	C	1.634473	-0.403929	0.878217
C43	C	0.802286	-0.578553	0.428322
C44	C	1.302286	-0.078553	0.928322
C45	C	0.720306	-0.578555	0.428334
C46	C	1.220306	-0.078555	0.928334
C47	C	0.679300	-0.510677	0.378226
C48	C	1.179300	-0.010677	0.878226
C49	C	0.720278	-0.442783	0.328107
C50	C	1.220278	0.057217	0.828107
C51	C	0.802257	-0.442777	0.328099
C52	C	1.302257	0.057223	0.828099
C53	C	0.549408	-0.442804	0.328126
C54	C	1.049408	0.057196	0.828126
C55	C	0.467424	-0.442812	0.328133
C56	C	0.967424	0.057188	0.828133
C57	C	0.467457	-0.578583	0.428361
C58	C	0.967457	-0.078583	0.928361
C59	C	0.549436	-0.578576	0.428353
C60	C	1.049436	-0.078576	0.928353
C61	C	0.590409	-0.510684	0.378233
C62	C	1.090409	-0.010684	0.878233
C63	C	1.195019	-1.071478	0.317443
C64	C	1.695019	-0.571478	0.817443
C65	C	1.195216	-0.948918	0.317592
C66	C	1.695216	-0.448918	0.817592
C67	C	1.156905	-0.948313	0.460961
C68	C	1.656905	-0.448313	0.960961
C69	C	1.157385	-1.070911	0.460639
C70	C	1.657385	-0.570911	0.960639
C71	C	1.051470	-1.071256	0.357063
C72	C	1.551470	-0.571256	0.857063
C73	C	1.051868	-0.948652	0.355208
C74	C	1.551868	-0.448652	0.855208
C75	C	1.339201	-0.510689	0.378240
C76	C	1.839201	-0.010689	0.878240
C77	C	1.426451	-0.510698	0.378249
C78	C	1.926451	-0.010698	0.878249
C79	C	1.134504	-0.510591	0.582962
C80	C	1.634504	-0.010591	1.082962
C81	C	1.134525	-0.510558	0.670212
C82	C	1.634525	-0.010558	1.170212
C83	C	1.134518	-0.234164	0.378253
C84	C	1.634518	0.265836	0.878253
C85	C	1.134544	-0.116334	0.378269
C86	C	1.634544	0.383666	0.878269
C87	C	1.134455	-0.510671	0.174270
C88	C	1.634455	-0.010671	0.674270
C89	C	1.134587	-0.510405	0.087020
C90	C	1.634587	-0.010405	0.587020
C91	C	1.184747	-0.442755	0.711218
C92	C	1.684747	0.057245	1.211218
C93	C	1.184757	-0.442719	0.793198
C94	C	1.684757	0.057281	1.293198
C95	C	1.134547	-0.510493	0.834171
C96	C	1.634547	-0.010493	1.334171
C97	C	1.084319	-0.578300	0.793160
C98	C	1.584319	-0.078300	1.293160
C99	C	1.084306	-0.578329	0.711181
C100	C	1.584306	-0.078329	1.211181
C101	C	1.084350	-0.578236	0.964030
C102	C	1.584350	-0.078236	1.464030
C103	C	1.084364	-0.578208	1.046015
C104	C	1.584364	-0.078208	1.546015
C105	C	1.184801	-0.442626	1.046047
C106	C	1.684801	0.057374	1.546047
C107	C	1.184788	-0.442656	0.964068
C108	C	1.684788	0.057344	1.464068
C109	C	1.134561	-0.510464	0.923062
C110	C	1.634561	-0.010464	1.423062
H111	H	0.835668	-0.633831	0.469124
H112	H	1.335668	-0.133831	0.969124
Cl113	Cl	0.668801	-0.663901	0.491341
Cl114	Cl	1.168801	-0.163901	0.991341
Cl115	Cl	1.290212	-0.903506	0.339252
Cl116	Cl	1.790212	-0.403506	0.839252
H117	H	1.006411	-1.100265	0.401365
H118	H	1.506411	-0.600265	0.901365
H119	H	1.114198	-0.919168	0.507495
H120	H	1.614198	-0.419168	1.007495
H121	H	1.256218	-1.102208	0.331312
H122	H	1.756218	-0.602208	0.831312
H123	H	1.225697	-0.387413	1.079438
H124	H	1.725697	0.112587	1.579438
H125	H	0.582821	-0.633855	0.469152
H126	H	1.082821	-0.133855	0.969152
H127	H	1.043438	-0.633436	0.930646
H128	H	1.543438	-0.133436	1.430646
Cl129	Cl	1.249598	-0.900784	0.489158
Cl130	Cl	1.749598	-0.400784	0.989158
Cl131	Cl	1.019974	-1.119130	0.265530
Cl132	Cl	1.519974	-0.619130	0.765530
H133	H	0.434093	-0.633860	0.469173
H134	H	0.934093	-0.133860	0.969173
Cl135	Cl	1.025747	-0.903875	0.261197
Cl136	Cl	1.525747	-0.403875	0.761197
H137	H	0.434039	-0.387527	0.287339
H138	H	0.934039	0.112473	0.787339
H139	H	1.225636	-0.387568	0.677863
H140	H	1.725636	0.112432	1.177863
Cl141	Cl	0.978545	-0.901391	0.418592
Cl142	Cl	1.478545	-0.401391	0.918592
Cl143	Cl	0.600916	-0.357453	0.265117
Cl144	Cl	1.100916	0.142547	0.765117
Cl145	Cl	1.021234	-0.663400	1.097523
Cl146	Cl	1.521234	-0.163400	1.597523
Cl147	Cl	1.247915	-0.357459	0.912560
Cl148	Cl	1.747915	0.142541	1.412560
Cl149	Cl	1.021195	-0.663498	0.844670
Cl150	Cl	1.521195	-0.163498	1.344670
H151	H	0.686885	-0.387511	0.287311
H152	H	1.186885	0.112489	0.787311
Cl153	Cl	1.021164	-0.663568	0.659631
Cl154	Cl	1.521164	-0.163568	1.159631
Cl155	Cl	0.853766	-0.357428	0.265095
Cl156	Cl	1.353766	0.142572	0.765095
Cl157	Cl	1.173497	-0.902589	0.222879
Cl158	Cl	1.673497	-0.402589	0.722879
Cl159	Cl	1.173629	-1.117109	0.222438
Cl160	Cl	1.673629	-0.617109	0.722438
H161	H	1.115267	-1.100579	0.507520
H162	H	1.615267	-0.600579	1.007520
Cl163	Cl	1.251136	-1.114937	0.488368
Cl164	Cl	1.751136	-0.614937	0.988368
H165	H	1.225655	-0.387510	0.826581
H166	H	1.725655	0.112490	1.326581
