data_functionalizedCrystal
_audit_creation_method	'MofGen! by Chris Wilmer'
_symmetry_space_group_name_H-M	'P1'
_symmetry_Int_Tables_number	1
_symmetry_cell_setting	triclinic
loop_
_symmetry_equiv_pos_as_xyz
  x,y,z
_cell_length_a	10.654550
_cell_length_b	10.654551
_cell_length_c	9.730223
_cell_angle_alpha	90.001469
_cell_angle_beta	89.996251
_cell_angle_gamma	84.485132
loop_
_atom_site_label
_atom_site_type_symbol
_atom_site_fract_x
_atom_site_fract_y
_atom_site_fract_z
O1	O	1.667835	0.176393	-0.114394
O2	O	1.302356	0.193199	-0.114371
O3	O	1.493498	0.002057	-0.114383
O4	O	1.476693	0.367535	-0.114381
O5	O	1.493496	0.002062	0.114197
O6	O	1.302354	0.193204	0.114209
O7	O	1.667832	0.176398	0.114186
Zn8	Zn	1.485093	0.184802	0.150490
Zn9	Zn	1.485096	0.184795	-0.150674
O10	O	1.476691	0.367540	0.114199
C11	C	1.255557	0.191968	-0.000078
C12	C	1.116114	0.188276	-0.000069
C13	C	1.036629	0.300817	-0.000089
C14	C	0.905608	0.297341	-0.000113
C15	C	0.933570	0.068771	-0.000104
C16	C	1.064589	0.072249	-0.000070
C17	C	1.088154	0.416844	-0.000088
C18	C	1.008667	0.529395	-0.000109
C19	C	0.877647	0.525918	-0.000133
C20	C	0.826112	0.409891	-0.000136
C21	C	1.492263	-0.044739	-0.000096
C22	C	1.488570	-0.184182	-0.000105
C23	C	1.486839	-0.249696	-0.124702
C24	C	1.483359	-0.380717	-0.124695
C25	C	1.483346	-0.380697	0.124515
C26	C	1.486817	-0.249678	0.124507
C27	C	1.488592	-0.184200	-0.249314
C28	C	1.486862	-0.249715	-0.373921
C29	C	1.483382	-0.380735	-0.373914
C30	C	1.481631	-0.446241	-0.249301
C31	C	1.714632	0.177629	-0.000109
C32	C	1.854075	0.181321	-0.000127
C33	C	1.477926	0.414336	-0.000091
C34	C	1.481619	0.553779	-0.000091
N35	N	1.485100	0.184805	0.356026
N36	N	1.485099	0.184782	-0.356211
C37	C	1.569760	0.100197	0.427947
C38	C	1.569756	0.100181	0.571830
C39	C	1.400430	0.269395	0.571859
C40	C	1.400428	0.269403	0.427979
C41	C	1.654431	0.015599	0.355994
C42	C	1.739099	-0.069016	0.427915
C43	C	1.739095	-0.069031	0.571798
C44	C	1.654425	0.015568	0.643760
H45	H	1.491429	-0.077517	-0.249334
O46	O	1.229468	0.420593	-0.000045
H47	H	1.258008	0.470841	-0.093201
H48	H	1.808026	-0.137936	0.630354
H49	H	1.331490	0.338298	0.369421
O50	O	1.481491	-0.451344	0.258914
H51	H	1.478806	-0.553459	0.237986
H52	H	1.488276	-0.196370	-0.475376
H53	H	0.891600	-0.025693	-0.000129
O54	O	1.654416	0.015559	0.798950
H55	H	1.727515	-0.057485	0.836875
O56	O	1.309124	0.360652	0.649466
H57	H	1.323359	0.346441	0.761598
H58	H	0.812931	0.617562	-0.000136
O59	O	1.064239	0.654535	-0.000101
H60	H	1.168699	0.638049	-0.000094
O61	O	1.481474	-0.451400	-0.508301
H62	H	1.483271	-0.383840	-0.594946
O63	O	0.684795	0.406145	-0.000141
H64	H	0.662318	0.306561	-0.000132
O65	O	1.150334	-0.049130	-0.000058
H66	H	1.092496	-0.130395	-0.000087
H67	H	1.654444	0.015606	0.238837
H68	H	1.808028	-0.137901	0.369316
H69	H	1.478779	-0.552924	-0.249306
O70	O	1.488697	-0.179002	0.258889
H71	H	1.486918	-0.246557	0.345541
