data_functionalizedCrystal
_audit_creation_method	'MofGen! by Chris Wilmer'
_symmetry_space_group_name_H-M	'P1'
_symmetry_Int_Tables_number	1
_symmetry_cell_setting	triclinic
loop_
_symmetry_equiv_pos_as_xyz
  x,y,z
_cell_length_a	12.645329
_cell_length_b	12.645331
_cell_length_c	16.120256
_cell_angle_alpha	92.877946
_cell_angle_beta	92.877118
_cell_angle_gamma	90.018192
loop_
_atom_site_label
_atom_site_type_symbol
_atom_site_fract_x
_atom_site_fract_y
_atom_site_fract_z
Zn1	Zn	-0.452474	1.590308	-0.471413
Zn2	Zn	-0.620757	1.599185	-0.332008
Zn3	Zn	-0.443510	1.422018	-0.332015
Zn4	Zn	-0.629694	1.413006	-0.471374
O5	O	-0.536609	1.506129	-0.401703
O6	O	-0.474809	1.739831	-0.452934
O7	O	-0.589754	1.583170	-0.215346
O8	O	-0.296353	1.444399	-0.350525
O9	O	-0.598446	1.746353	-0.350514
O10	O	-0.302938	1.568040	-0.452940
O11	O	-0.459530	1.453006	-0.215350
O12	O	-0.468196	1.272476	-0.350488
O13	O	-0.613676	1.429038	-0.588043
O14	O	-0.604984	1.265855	-0.452874
O15	O	-0.483474	1.559301	-0.588071
O16	O	-0.770289	1.574431	-0.350477
O17	O	-0.776854	1.437646	-0.452868
C18	C	-0.536588	1.230701	-0.401678
C19	C	-0.536606	1.112870	-0.401687
C20	C	-0.450431	1.072111	-0.337381
C21	C	-0.450142	0.949537	-0.337601
C22	C	-0.512498	0.939362	-0.489694
C23	C	-0.511859	1.061985	-0.489293
C24	C	-0.647186	1.069130	-0.378817
C25	C	-0.646478	0.946646	-0.376909
C26	C	-0.812037	1.506051	-0.401686
C27	C	-0.929869	1.506113	-0.401706
C28	C	-0.978923	1.420026	-0.466083
C29	C	-1.101500	1.420347	-0.466363
C30	C	-1.099164	1.616509	-0.425384
C31	C	-0.976595	1.615908	-0.425824
C32	C	-0.969465	1.482995	-0.313547
C33	C	-1.092105	1.480596	-0.314043
C34	C	-0.260106	1.506235	-0.401738
C35	C	-0.142276	1.506280	-0.401753
C36	C	-0.550572	1.492174	-0.619152
C37	C	-0.556522	1.486228	-0.711817
C38	C	-0.536630	1.782632	-0.401728
C39	C	-0.536640	1.900462	-0.401739
C40	C	-0.505551	1.537138	-0.922776
C41	C	-0.567342	1.475335	-0.881470
C42	C	-0.561320	1.481398	-0.787066
C43	C	-0.511572	1.531077	-1.017189
C44	C	-0.522623	1.520090	-0.185099
C45	C	-0.516374	1.526242	-0.092435
H46	H	-0.368098	0.919248	-0.352789
C47	C	-0.402904	1.098966	-0.515403
N48	N	-0.320834	1.126814	-0.535067
H49	H	-0.624759	1.417865	-0.917006
C50	C	-0.937951	1.308942	-0.446360
N51	N	-0.907081	1.225271	-0.431505
H52	H	-0.572228	1.088501	-0.538865
H53	H	-0.464597	1.105737	-0.271952
H54	H	-0.664793	0.921684	-0.312177
C55	C	-0.427985	1.614769	-0.874771
N56	N	-0.369566	1.673243	-0.838604
H57	H	-0.943989	1.681950	-0.380963
H58	H	-0.464537	0.923602	-0.272394
H59	H	-0.368836	1.101971	-0.352370
H60	H	-0.573601	0.907084	-0.538939
C61	C	-1.128992	1.559808	-0.245821
N62	N	-1.156758	1.619492	-0.194441
H63	H	-0.432780	0.907412	-0.509372
H64	H	-0.670343	1.104066	-0.315746
C65	C	-0.733825	1.104294	-0.442083
N66	N	-0.799074	1.130786	-0.489737
H67	H	-0.713634	0.913247	-0.420306
H68	H	-0.952082	1.636135	-0.490262
C69	C	-1.134525	1.705263	-0.364007
N70	N	-1.161161	1.772112	-0.317778
H71	H	-1.130734	1.338442	-0.451593
C72	C	-0.942882	1.439845	-0.553833
N73	N	-0.915738	1.454778	-0.619926
H74	H	-1.134975	1.435306	-0.531693
C75	C	-1.146092	1.644529	-0.511501
N76	N	-1.181435	1.665627	-0.576367
H77	H	-0.937251	1.404235	-0.291982
H78	H	-1.120144	1.399501	-0.296218
H79	H	-0.937320	1.545759	-0.265583
