data_functionalizedCrystal
_audit_creation_method	'MofGen! by Chris Wilmer'
_symmetry_space_group_name_H-M	'P1'
_symmetry_Int_Tables_number	1
_symmetry_cell_setting	triclinic
loop_
_symmetry_equiv_pos_as_xyz
  x,y,z
_cell_length_a	21.295417
_cell_length_b	21.295418
_cell_length_c	21.295411
_cell_angle_alpha	89.956262
_cell_angle_beta	90.021644
_cell_angle_gamma	89.953681
loop_
_atom_site_label
_atom_site_type_symbol
_atom_site_fract_x
_atom_site_fract_y
_atom_site_fract_z
Zn1	Zn	-0.250415	-0.962356	0.356234
Zn2	Zn	0.082918	-0.629022	0.689567
Zn3	Zn	0.416251	-0.295689	1.022900
Zn4	Zn	-0.355667	-0.962258	0.250959
Zn5	Zn	-0.022334	-0.628925	0.584292
Zn6	Zn	0.311000	-0.295592	0.917626
Zn7	Zn	-0.250445	-0.857079	0.250943
Zn8	Zn	0.082889	-0.523746	0.584277
Zn9	Zn	0.416222	-0.190412	0.917610
Zn10	Zn	-0.355680	-0.857048	0.356155
Zn11	Zn	-0.022346	-0.523715	0.689489
Zn12	Zn	0.310987	-0.190382	1.022822
O13	O	-0.303052	-0.909685	0.303573
O14	O	0.030282	-0.576352	0.636906
O15	O	0.363615	-0.243019	0.970240
O16	O	-0.264360	-1.050432	0.342308
O17	O	0.068974	-0.717099	0.675641
O18	O	0.402307	-0.383766	1.008975
O19	O	-0.341716	-0.948278	0.162867
O20	O	-0.008383	-0.614945	0.496201
O21	O	0.324950	-0.281611	0.829534
O22	O	-0.162351	-0.871098	0.264937
O23	O	0.170982	-0.537764	0.598270
O24	O	0.504315	-0.204431	0.931603
O25	O	-0.341688	-1.050361	0.264963
O26	O	-0.008354	-0.717027	0.598296
O27	O	0.324979	-0.383694	0.931630
O28	O	-0.162330	-0.948444	0.342293
O29	O	0.171004	-0.615111	0.675626
O30	O	0.504337	-0.281778	1.008960
O31	O	-0.264410	-0.871003	0.162856
O32	O	0.068923	-0.537670	0.496189
O33	O	0.402257	-0.204337	0.829523
O34	O	-0.264422	-0.768985	0.264861
O35	O	0.068911	-0.435652	0.598194
O36	O	0.402245	-0.102319	0.931527
O37	O	-0.341709	-0.871046	0.444255
O38	O	-0.008376	-0.537712	0.777589
O39	O	0.324958	-0.204379	1.110922
O40	O	-0.341738	-0.768963	0.342160
O41	O	-0.008404	-0.435630	0.675493
O42	O	0.324929	-0.102296	1.008826
O43	O	-0.264372	-0.948415	0.444313
O44	O	0.068962	-0.615081	0.777646
O45	O	0.402295	-0.281748	1.110979
O46	O	-0.443758	-0.948248	0.264887
O47	O	-0.110425	-0.614915	0.598221
O48	O	0.222909	-0.281582	0.931554
O49	O	-0.443767	-0.870951	0.342175
O50	O	-0.110434	-0.537618	0.675508
O51	O	0.222899	-0.204284	1.008841
C52	C	-0.303085	-0.746134	0.303500
C53	C	0.030249	-0.412800	0.636834
C54	C	0.363582	-0.079467	0.970167
C55	C	-0.303114	-0.676166	0.303484
C56	C	0.030219	-0.342832	0.636818
C57	C	0.363553	-0.009499	0.970151
C58	C	-0.466603	-0.909603	0.303538
C59	C	-0.133270	-0.576269	0.636871
C60	C	0.200063	-0.242936	0.970205
C61	C	-0.536571	-0.909625	0.303544
C62	C	-0.203238	-0.576292	0.636877
C63	C	0.130095	-0.242958	0.970211
C64	C	-0.303038	-0.909738	0.467763
C65	C	0.030295	-0.576404	0.801097
C66	C	0.363628	-0.243071	1.134430
C67	C	-0.303033	-0.909760	0.537731
C68	C	0.030301	-0.576427	0.871065
C69	C	0.363634	-0.243093	1.204398
C70	C	-0.569412	-0.949910	0.263342
C71	C	-0.236079	-0.616576	0.596675
C72	C	0.097254	-0.283243	0.930009
C73	C	-0.635155	-0.949939	0.263356
C74	C	-0.301822	-0.616606	0.596689
C75	C	0.031512	-0.283272	0.930023
C76	C	-0.668054	-0.909673	0.303566
C77	C	-0.334721	-0.576340	0.636899
C78	C	-0.001387	-0.243006	0.970233
C79	C	-0.635205	-0.869386	0.343776
C80	C	-0.301872	-0.536052	0.677109
C81	C	0.031462	-0.202719	1.010443
C82	C	-0.569464	-0.869362	0.343765
C83	C	-0.236130	-0.536028	0.677098
C84	C	0.097203	-0.202695	1.010432
N85	N	-0.771336	-0.854606	0.308340
N86	N	-0.438002	-0.521272	0.641674
N87	N	-0.104669	-0.187939	0.975007
N88	N	-0.833787	-0.854630	0.308347
N89	N	-0.500454	-0.521297	0.641680
N90	N	-0.167120	-0.187964	0.975014
C91	C	-0.866129	-0.909743	0.303602
C92	C	-0.532795	-0.576410	0.636935
C93	C	-0.199462	-0.243077	0.970269
N94	N	-0.833659	-0.964832	0.298838
N95	N	-0.500326	-0.631499	0.632171
N96	N	-0.166993	-0.298166	0.965504
N97	N	-0.771202	-0.964807	0.298828
N98	N	-0.437869	-0.631474	0.632161
N99	N	-0.104535	-0.298140	0.965494
C100	C	-0.739339	-0.909695	0.303582
C101	C	-0.406006	-0.576361	0.636916
C102	C	-0.072673	-0.243028	0.970249
C103	C	-0.970255	-0.950063	0.263413
C104	C	-0.636922	-0.616730	0.596746
C105	C	-0.303588	-0.283397	0.930080
C106	C	-1.035999	-0.950094	0.263431
C107	C	-0.702665	-0.616760	0.596765
C108	C	-0.369332	-0.283427	0.930098
C109	C	-1.036048	-0.869535	0.343848
C110	C	-0.702714	-0.536201	0.677181
C111	C	-0.369381	-0.202868	1.010515
C112	C	-0.970305	-0.869510	0.343833
C113	C	-0.636972	-0.536176	0.677166
C114	C	-0.303638	-0.202843	1.010500
C115	C	-0.937413	-0.909773	0.303612
C116	C	-0.604079	-0.576440	0.636945
C117	C	-0.270746	-0.243106	0.970279
C118	C	-0.138861	-0.909785	0.303622
C119	C	0.194472	-0.576452	0.636955
C120	C	0.527805	-0.243119	0.970288
C121	C	-0.068893	-0.909828	0.303642
C122	C	0.264440	-0.576495	0.636976
C123	C	0.597773	-0.243161	0.970309
C124	C	-0.303019	-1.073876	0.303646
C125	C	0.030314	-0.740542	0.636979
C126	C	0.363648	-0.407209	0.970313
C127	C	-0.303005	-1.143844	0.303677
C128	C	0.030328	-0.810510	0.637010
C129	C	0.363662	-0.477177	0.970344
C130	C	-0.343426	-0.643304	0.343674
C131	C	-0.010092	-0.309970	0.677007
C132	C	0.323241	0.023363	1.010340
C133	C	-0.343410	-0.577561	0.343702
C134	C	-0.010077	-0.244228	0.677035
C135	C	0.323257	0.089106	1.010369
C136	C	-0.303090	-0.544683	0.303530
C137	C	0.030244	-0.211350	0.636863
C138	C	0.363577	0.121984	0.970196
C139	C	-0.262770	-0.577553	0.263337
C140	C	0.070563	-0.244220	0.596671
C141	C	0.403896	0.089114	0.930004
C142	C	-0.262783	-0.643294	0.263315
C143	C	0.070551	-0.309961	0.596648
C144	C	0.403884	0.023373	0.929982
N145	N	-0.298163	-0.441407	0.248472
N146	N	0.035171	-0.108074	0.581805
N147	N	0.368504	0.225260	0.915139
N148	N	-0.298155	-0.378956	0.248495
N149	N	0.035179	-0.045622	0.581829
N150	N	0.368512	0.287711	0.915162
C151	C	-0.303050	-0.346608	0.303596
C152	C	0.030284	-0.013275	0.636930
C153	C	0.363617	0.320058	0.970263
N154	N	-0.307965	-0.379072	0.358675
N155	N	0.025368	-0.045739	0.692008
N156	N	0.358702	0.287595	1.025341
N157	N	-0.307976	-0.441529	0.358650
N158	N	0.025357	-0.108196	0.691984
N159	N	0.358691	0.225138	1.025317
C160	C	-0.303072	-0.473398	0.303550
C161	C	0.030262	-0.140064	0.636883
C162	C	0.363595	0.193269	0.970217
C163	C	-0.343346	-0.242461	0.343820
C164	C	-0.010013	0.090872	0.677153
C165	C	0.323320	0.424206	1.010486
C166	C	-0.343326	-0.176717	0.343849
C167	C	-0.009993	0.156616	0.677182
C168	C	0.323340	0.489949	1.010516
C169	C	-0.262690	-0.176710	0.263479
C170	C	0.070643	0.156623	0.596812
C171	C	0.403977	0.489956	0.930146
C172	C	-0.262707	-0.242453	0.263455
C173	C	0.070627	0.090881	0.596789
C174	C	0.403960	0.424214	0.930122
C175	C	-0.303038	-0.275324	0.303625
C176	C	0.030295	0.058009	0.636958
C177	C	0.363628	0.391343	0.970291
C178	C	-0.303019	-0.909670	0.140021
C179	C	0.030314	-0.576336	0.473355
C180	C	0.363647	-0.243003	0.806688
C181	C	-0.302848	-0.909769	0.070054
C182	C	0.030486	-0.576436	0.403387
C183	C	0.363819	-0.243103	0.736720
C184	C	-0.262761	-0.950044	0.570629
C185	C	0.070572	-0.616711	0.903962
C186	C	0.403905	-0.283377	1.237296
C187	C	-0.262734	-0.950043	0.636371
C188	C	0.070599	-0.616710	0.969705
C189	C	0.403933	-0.283377	1.303038
C190	C	-0.302989	-0.909765	0.669214
C191	C	0.030344	-0.576431	1.002547
C192	C	0.363677	-0.243098	1.335881
C193	C	-0.343263	-0.869473	0.636308
C194	C	-0.009930	-0.536139	0.969642
C195	C	0.323403	-0.202806	1.302975
C196	C	-0.343285	-0.869470	0.570567
C197	C	-0.009952	-0.536137	0.903900
C198	C	0.323382	-0.202804	1.237234
N199	N	-0.358058	-0.904908	0.772428
N200	N	-0.024725	-0.571575	1.105761
N201	N	0.308608	-0.238241	1.439094
N202	N	-0.358036	-0.904914	0.834879
N203	N	-0.024703	-0.571581	1.168213
N204	N	0.308631	-0.238247	1.501546
C205	C	-0.302926	-0.909769	0.867289
C206	C	0.030408	-0.576435	1.200622
C207	C	0.363741	-0.243102	1.533955
N208	N	-0.247837	-0.914629	0.834888
N209	N	0.085496	-0.581296	1.168221
N210	N	0.418830	-0.247963	1.501554
N211	N	-0.247860	-0.914627	0.772430
N212	N	0.085473	-0.581293	1.105764
N213	N	0.418807	-0.247960	1.439097
C214	C	-0.302970	-0.909763	0.740499
C215	C	0.030363	-0.576429	1.073833
C216	C	0.363697	-0.243096	1.407166
C217	C	-0.262621	-0.950054	0.971472
C218	C	0.070712	-0.616721	1.304805
C219	C	0.404045	-0.283388	1.638139
C220	C	-0.262593	-0.950049	1.037216
C221	C	0.070740	-0.616716	1.370549
C222	C	0.404074	-0.283382	1.703882
C223	C	-0.343128	-0.869482	1.037151
C224	C	-0.009795	-0.536148	1.370485
C225	C	0.323539	-0.202815	1.703818
C226	C	-0.343151	-0.869484	0.971409
C227	C	-0.009817	-0.536150	1.304742
C228	C	0.323516	-0.202817	1.638076
C229	C	-0.302898	-0.909773	0.938573
C230	C	0.030435	-0.576440	1.271906
C231	C	0.363769	-0.243107	1.605240
H232	H	-0.542633	-0.982696	0.230593
H233	H	-0.209300	-0.649363	0.563927
H234	H	0.124033	-0.316029	0.897260
C235	C	-0.576117	-0.789736	0.423254
C236	C	-0.242784	-0.456403	0.756588
C237	C	0.090550	-0.123070	1.089921
C238	C	-0.533361	-0.825074	0.387955
C239	C	-0.200028	-0.491741	0.721288
C240	C	0.133306	-0.158407	1.054622
H241	H	-0.553826	-0.762392	0.450532
H242	H	-0.220493	-0.429059	0.783865
H243	H	0.112840	-0.095725	1.117198
H244	H	-0.601709	-0.817161	0.447372
H245	H	-0.268376	-0.483828	0.780706
H246	H	0.064957	-0.150495	1.114039
H247	H	-0.601805	-0.765682	0.395797
H248	H	-0.268472	-0.432349	0.729130
H249	H	0.064861	-0.099016	1.062463
H250	H	-0.507676	-0.849132	0.415413
H251	H	-0.174342	-0.515798	0.748746
H252	H	0.158991	-0.182465	1.082079
H253	H	-0.507758	-0.797646	0.363835
H254	H	-0.174425	-0.464312	0.697169
H255	H	0.158909	-0.130979	1.030502
C256	C	-0.373807	-0.762873	1.057318
C257	C	-0.040474	-0.429540	1.390651
C258	C	0.292860	-0.096207	1.723984
C259	C	-0.387376	-0.825207	1.073249
C260	C	-0.054043	-0.491874	1.406582
C261	C	0.279291	-0.158541	1.739915
H262	H	-0.401121	-0.735540	1.079609
H263	H	-0.067788	-0.402207	1.412943
H264	H	0.265545	-0.068873	1.746276
H265	H	-0.379590	-0.757109	1.013462
H266	H	-0.046257	-0.423776	1.346795
H267	H	0.287077	-0.090442	1.680129
H268	H	-0.331508	-0.753695	1.068088
H269	H	0.001825	-0.420362	1.401421
H270	H	0.335159	-0.087028	1.734755
H271	H	-0.429674	-0.834387	1.062474
H272	H	-0.096341	-0.501054	1.395807
H273	H	0.236993	-0.167721	1.729141
H274	H	-0.381598	-0.830975	1.117114
H275	H	-0.048265	-0.497641	1.450447
H276	H	0.285068	-0.164308	1.783781
H277	H	-0.229940	-0.550779	0.230630
H278	H	0.103393	-0.217446	0.563963
H279	H	0.436727	0.115887	0.897297
H280	H	-0.375948	-0.836683	0.944623
H281	H	-0.042614	-0.503350	1.277957
H282	H	0.290719	-0.170017	1.611290
C283	C	-0.896223	-1.034712	0.254757
C284	C	-0.562890	-0.701379	0.588091
C285	C	-0.229556	-0.368046	0.921424
C286	C	-0.934095	-0.994324	0.219209
C287	C	-0.600761	-0.660991	0.552542
C288	C	-0.267428	-0.327658	0.885875
H289	H	-0.873899	-1.062034	0.227466
H290	H	-0.540565	-0.728701	0.560799
H291	H	-0.207232	-0.395368	0.894133
H292	H	-0.921824	-1.058786	0.282214
H293	H	-0.588491	-0.725452	0.615548
H294	H	-0.255158	-0.392119	0.948881
H295	H	-0.867254	-1.010706	0.278693
H296	H	-0.533921	-0.677372	0.612026
H297	H	-0.200588	-0.344039	0.945359
H298	H	-0.963066	-1.018331	0.195277
H299	H	-0.629733	-0.684998	0.528610
H300	H	-0.296400	-0.351664	0.861943
H301	H	-0.908491	-0.970249	0.191741
H302	H	-0.575158	-0.636916	0.525074
H303	H	-0.241824	-0.303582	0.858407
H304	H	-0.229954	-0.670050	0.230588
H305	H	0.103379	-0.336717	0.563921
H306	H	0.436713	-0.003383	0.897254
C307	C	-0.628510	-1.029552	0.183853
C308	C	-0.295177	-0.696219	0.517186
C309	C	0.038157	-0.362886	0.850520
C310	C	-0.671264	-0.994218	0.219158
C311	C	-0.337931	-0.660885	0.552491
C312	C	-0.004597	-0.327552	0.885825
H313	H	-0.650802	-1.056884	0.156564
H314	H	-0.317469	-0.723551	0.489898
H315	H	0.015865	-0.390217	0.823231
H316	H	-0.602829	-1.053614	0.211301
H317	H	-0.269496	-0.720280	0.544635
H318	H	0.063838	-0.386947	0.877968
H319	H	-0.602910	-1.002120	0.159741
H320	H	-0.269577	-0.668786	0.493074
H321	H	0.063757	-0.335453	0.826408
H322	H	-0.696861	-1.021650	0.243274
H323	H	-0.363528	-0.688317	0.576607
H324	H	-0.030194	-0.354984	0.909940
H325	H	-0.696955	-0.970155	0.191706
H326	H	-0.363622	-0.636822	0.525039
H327	H	-0.030289	-0.303488	0.858373
C328	C	-0.423042	-0.235867	0.423272
C329	C	-0.089709	0.097466	0.756605
C330	C	0.243625	0.430799	1.089939
C331	C	-0.387668	-0.278598	0.387982
C332	C	-0.054335	0.054735	0.721315
C333	C	0.278998	0.388068	1.054648
H334	H	-0.450400	-0.258177	0.450538
H335	H	-0.117067	0.075156	0.783872
H336	H	0.216266	0.408490	1.117205
H337	H	-0.447077	-0.210172	0.395813
H338	H	-0.113744	0.123161	0.729146
H339	H	0.219590	0.456494	1.062479
H340	H	-0.395636	-0.210279	0.447407
H341	H	-0.062303	0.123054	0.780740
H342	H	0.271030	0.456388	1.114073
H343	H	-0.415074	-0.304184	0.363843
H344	H	-0.081741	0.029150	0.697177
H345	H	0.251593	0.362483	1.030510
H346	H	-0.363632	-0.304304	0.415444
H347	H	-0.030298	0.029029	0.748778
H348	H	0.303035	0.362363	1.082111
H349	H	-0.376236	-0.550800	0.376431
H350	H	-0.042903	-0.217466	0.709765
H351	H	0.290430	0.115867	1.043098
C352	C	-0.736004	-0.833647	0.379491
C353	C	-0.402671	-0.500314	0.712824
C354	C	-0.069338	-0.166980	1.046158
C355	C	-0.671365	-0.825122	0.387974
C356	C	-0.338032	-0.491789	0.721307
C357	C	-0.004699	-0.158456	1.054640
H358	H	-0.758326	-0.806318	0.406777
H359	H	-0.424993	-0.472984	0.740111
H360	H	-0.091660	-0.139651	1.073444
H361	H	-0.746722	-0.875936	0.388759
H362	H	-0.413388	-0.542603	0.722093
H363	H	-0.080055	-0.209269	1.055426
H364	H	-0.746804	-0.824457	0.337184
H365	H	-0.413470	-0.491124	0.670517
H366	H	-0.080137	-0.157791	1.003850
H367	H	-0.660565	-0.834316	0.430280
H368	H	-0.327232	-0.500983	0.763613
H369	H	0.006102	-0.167650	1.096947
H370	H	-0.660644	-0.782823	0.378710
H371	H	-0.327310	-0.449490	0.712043
H372	H	0.006023	-0.116157	1.045376
H373	H	-1.062737	-0.982902	0.230695
H374	H	-0.729403	-0.649569	0.564029
H375	H	-0.396070	-0.316235	0.897362
H376	H	-0.229842	-0.982857	0.944736
H377	H	0.103492	-0.649524	1.278069
H378	H	0.436825	-0.316190	1.611402
C379	C	-0.178090	-0.958817	0.496734
C380	C	0.155243	-0.625484	0.830067
C381	C	0.488576	-0.292151	1.163401
C382	C	-0.218493	-0.994313	0.534545
C383	C	0.114840	-0.660980	0.867878
C384	C	0.448174	-0.327647	1.201212
H385	H	-0.150758	-0.986145	0.474457
H386	H	0.182575	-0.652812	0.807790
H387	H	0.515909	-0.319478	1.141124
H388	H	-0.154029	-0.931404	0.522370
H389	H	0.179304	-0.598071	0.855704
H390	H	0.512638	-0.264737	1.189037
H391	H	-0.202086	-0.934838	0.467724
H392	H	0.131248	-0.601504	0.801057
H393	H	0.464581	-0.268171	1.134390
H394	H	-0.194498	-1.018290	0.563559
H395	H	0.138835	-0.684957	0.896892
H396	H	0.472169	-0.351623	1.230225
H397	H	-0.242557	-1.021738	0.508906
H398	H	0.090777	-0.688405	0.842240
H399	H	0.424110	-0.355071	1.175573
C400	C	-1.136842	-0.833803	0.379572
C401	C	-0.803509	-0.500469	0.712905
C402	C	-0.470175	-0.167136	1.046239
C403	C	-1.072203	-0.825274	0.388050
C404	C	-0.738869	-0.491941	0.721383
C405	C	-0.405536	-0.158608	1.054717
H406	H	-1.159163	-0.806476	0.406861
H407	H	-0.825830	-0.473142	0.740194
H408	H	-0.492497	-0.139809	1.073528
H409	H	-1.147556	-0.876093	0.388840
H410	H	-0.814223	-0.542759	0.722173
H411	H	-0.480889	-0.209426	1.055507
H412	H	-1.147645	-0.824612	0.337266
H413	H	-0.814312	-0.491279	0.670599
H414	H	-0.480979	-0.157945	1.003933
H415	H	-1.061399	-0.834469	0.430355
H416	H	-0.728065	-0.501136	0.763689
H417	H	-0.394732	-0.167803	1.097022
H418	H	-1.061485	-0.782974	0.378787
H419	H	-0.728151	-0.449641	0.712120
H420	H	-0.394818	-0.116308	1.045453
H421	H	-0.943564	-0.836704	0.376567
H422	H	-0.610231	-0.503370	0.709900
H423	H	-0.276898	-0.170037	1.043233
C424	C	-0.423129	-0.636702	0.423117
C425	C	-0.089796	-0.303369	0.756451
C426	C	0.243537	0.029965	1.089784
C427	C	-0.387752	-0.679435	0.387834
C428	C	-0.054418	-0.346102	0.721167
C429	C	0.278915	-0.012768	1.054500
H430	H	-0.450490	-0.659010	0.450383
H431	H	-0.117157	-0.325677	0.783716
H432	H	0.216176	0.007656	1.117049
H433	H	-0.447162	-0.611009	0.395654
H434	H	-0.113829	-0.277676	0.728987
H435	H	0.219505	0.055657	1.062320
H436	H	-0.395727	-0.611112	0.447253
H437	H	-0.062394	-0.277778	0.780586
H438	H	0.270940	0.055555	1.113920
H439	H	-0.415154	-0.705022	0.363694
H440	H	-0.081821	-0.371689	0.697027
H441	H	0.251513	-0.038356	1.030361
H442	H	-0.363717	-0.705138	0.415301
H443	H	-0.030384	-0.371805	0.748634
H444	H	0.302950	-0.038472	1.081967
C445	C	-0.178035	-0.316458	0.254838
C446	C	0.155298	0.016876	0.588171
C447	C	0.488631	0.350209	0.921505
C448	C	-0.218400	-0.278579	0.219272
C449	C	0.114933	0.054754	0.552605
C450	C	0.448267	0.388087	0.885938
H451	H	-0.150678	-0.338757	0.227559
H452	H	0.182655	-0.005424	0.560893
H453	H	0.515988	0.327909	0.894226
H454	H	-0.202052	-0.345442	0.278753
H455	H	0.131281	-0.012109	0.612087
H456	H	0.464615	0.321224	0.945420
H457	H	-0.153993	-0.290859	0.282315
H458	H	0.179340	0.042474	0.615648
H459	H	0.512674	0.375807	0.948982
H460	H	-0.242446	-0.304178	0.191798
H461	H	0.090887	0.029155	0.525131
H462	H	0.424221	0.362488	0.858464
H463	H	-0.194381	-0.249591	0.195346
H464	H	0.138953	0.083742	0.528679
H465	H	0.472286	0.417075	0.862012
H466	H	-0.229937	-0.982846	0.663162
H467	H	0.103396	-0.649513	0.996495
H468	H	0.436730	-0.316180	1.329829
C469	C	-0.352190	-0.102880	0.428540
C470	C	-0.018857	0.230453	0.761874
C471	C	0.314476	0.563786	1.095207
C472	C	-0.387640	-0.140595	0.388031
C473	C	-0.054307	0.192739	0.721365
C474	C	0.279027	0.526072	1.054698
H475	H	-0.379550	-0.080583	0.455819
H476	H	-0.046216	0.252750	0.789152
H477	H	0.287117	0.586083	1.122485
H478	H	-0.328178	-0.073894	0.404623
H479	H	0.005155	0.259440	0.737956
H480	H	0.338489	0.592773	1.071290
H481	H	-0.324809	-0.128590	0.452659
H482	H	0.008524	0.204744	0.785993
H483	H	0.341858	0.538077	1.119326
H484	H	-0.415018	-0.114885	0.363908
H485	H	-0.081685	0.218449	0.697242
H486	H	0.251648	0.551782	1.030575
H487	H	-0.411663	-0.169585	0.411951
H488	H	-0.078330	0.163749	0.745284
H489	H	0.255003	0.497082	1.078618
C490	C	-0.226897	-0.075934	0.227798
C491	C	0.106436	0.257399	0.561131
C492	C	0.439770	0.590732	0.894465
C493	C	-0.218388	-0.140578	0.219300
C494	C	0.114946	0.192755	0.552634
C495	C	0.448279	0.526088	0.885967
H496	H	-0.199552	-0.053627	0.200515
H497	H	0.133781	0.279706	0.533849
H498	H	0.467114	0.613039	0.867182
H499	H	-0.217724	-0.065211	0.270102
H500	H	0.115609	0.268123	0.603436
H501	H	0.448942	0.601456	0.936769
H502	H	-0.269185	-0.065124	0.218528
H503	H	0.064148	0.268210	0.551862
H504	H	0.397482	0.601543	0.885195
H505	H	-0.176101	-0.151390	0.228575
H506	H	0.157233	0.181944	0.561908
H507	H	0.490566	0.515277	0.895241
H508	H	-0.227556	-0.151306	0.176986
H509	H	0.105777	0.182027	0.510320
H510	H	0.439111	0.515361	0.843653
H511	H	-0.376038	-0.836676	0.663053
H512	H	-0.042704	-0.503342	0.996386
H513	H	0.290629	-0.170009	1.329720
C514	C	-0.422891	-0.789838	0.577109
C515	C	-0.089558	-0.456505	0.910442
C516	C	0.243775	-0.123171	1.243775
C517	C	-0.387562	-0.825193	0.534402
C518	C	-0.054228	-0.491860	0.867735
C519	C	0.279105	-0.158527	1.201069
H520	H	-0.450230	-0.762508	0.554779
H521	H	-0.116896	-0.429175	0.888113
H522	H	0.216437	-0.095841	1.221446
H523	H	-0.395461	-0.765773	0.602728
H524	H	-0.062128	-0.432440	0.936062
H525	H	0.271205	-0.099107	1.269395
H526	H	-0.446952	-0.817257	0.602774
H527	H	-0.113618	-0.483923	0.936107
H528	H	0.219715	-0.150590	1.269441
H529	H	-0.363498	-0.797775	0.508739
H530	H	-0.030164	-0.464441	0.842073
H531	H	0.303169	-0.131108	1.175406
H532	H	-0.414995	-0.849260	0.508772
H533	H	-0.081662	-0.515926	0.842105
H534	H	0.251672	-0.182593	1.175438
H535	H	-0.229795	-0.982852	1.064000
H536	H	0.103538	-0.649519	1.397333
H537	H	0.436871	-0.316186	1.730666
