data_functionalizedCrystal
_audit_creation_method	'MofGen! by Chris Wilmer'
_symmetry_space_group_name_H-M	'P1'
_symmetry_Int_Tables_number	1
_symmetry_cell_setting	triclinic
loop_
_symmetry_equiv_pos_as_xyz
  x,y,z
_cell_length_a	14.044220
_cell_length_b	14.044220
_cell_length_c	12.503572
_cell_angle_alpha	93.843168
_cell_angle_beta	86.164750
_cell_angle_gamma	93.188878
loop_
_atom_site_label
_atom_site_type_symbol
_atom_site_fract_x
_atom_site_fract_y
_atom_site_fract_z
O1	O	1.282200	0.225116	-0.089210
O2	O	1.782200	0.725116	0.410790
O3	O	1.005530	0.216809	-0.089237
O4	O	1.505530	0.716809	0.410763
O5	O	1.139712	0.082627	-0.089213
O6	O	1.639712	0.582627	0.410787
O7	O	1.148019	0.359298	-0.089234
O8	O	1.648019	0.859298	0.410766
O9	O	1.129622	0.092737	0.089427
O10	O	1.629622	0.592737	0.589427
O11	O	0.995440	0.226918	0.089403
O12	O	1.495440	0.726918	0.589403
O13	O	1.272110	0.235226	0.089430
O14	O	1.772110	0.735226	0.589430
Cu15	Cu	1.132854	0.231995	0.105728
Cu16	Cu	1.632854	0.731995	0.605728
Cu17	Cu	1.144786	0.220040	-0.105535
Cu18	Cu	1.644786	0.720040	0.394465
O19	O	1.137929	0.369407	0.089406
O20	O	1.637929	0.869407	0.589406
C21	C	0.964864	0.218228	0.000080
C22	C	1.464864	0.718228	0.500080
C23	C	0.858721	0.207383	0.000070
C24	C	1.358721	0.707383	0.500070
C25	C	0.664382	0.187558	0.000092
C26	C	1.164382	0.687558	0.500092
C27	C	0.613253	0.264472	0.000091
C28	C	1.113253	0.764472	0.500091
C29	C	0.505116	0.253441	0.000104
C30	C	1.005116	0.753441	0.500104
C31	C	0.772529	0.198587	0.000080
C32	C	1.272529	0.698587	0.500080
C33	C	1.131031	0.052060	0.000107
C34	C	1.631031	0.552060	0.500107
C35	C	1.120187	-0.054082	0.000107
C36	C	1.620187	0.445918	0.500107
C37	C	1.100361	-0.248421	0.000090
C38	C	1.600361	0.251579	0.500090
C39	C	1.177275	-0.299551	0.000094
C40	C	1.677275	0.200449	0.500094
C41	C	1.166244	-0.407687	0.000084
C42	C	1.666244	0.092313	0.500084
C43	C	1.111391	-0.140274	0.000099
C44	C	1.611391	0.359726	0.500099
C45	C	1.312777	0.233807	0.000111
C46	C	1.812777	0.733807	0.500111
C47	C	1.418920	0.244651	0.000114
C48	C	1.918920	0.744651	0.500114
C49	C	1.146609	0.399974	0.000084
C50	C	1.646609	0.899974	0.500084
C51	C	1.157454	0.506117	0.000077
C52	C	1.657454	1.006117	0.500077
N53	N	1.124469	0.240404	0.254319
N54	N	1.624469	0.740404	0.754319
N55	N	1.153179	0.211624	-0.254126
N56	N	1.653179	0.711624	0.245874
C57	C	1.112134	0.252782	0.473432
C58	C	1.612134	0.752782	0.973432
C59	C	1.165511	0.199249	0.526768
C60	C	1.665511	0.699249	1.026768
C61	C	1.158648	0.206136	0.648690
C62	C	1.658648	0.706136	1.148690
C63	C	1.118996	0.245896	0.351499
C64	C	1.618996	0.745896	0.851499
H65	H	0.626945	0.113431	0.000104
H66	H	1.126945	0.613431	0.500104
C67	C	1.269056	-0.150119	0.000133
C68	C	1.769056	0.349881	0.500133
C69	C	1.277354	-0.249015	0.000120
C70	C	1.777354	0.250985	0.500120
H71	H	1.330838	-0.118919	0.000158
H72	H	1.830838	0.381081	0.500158
H73	H	1.238887	-0.135697	-0.062165
H74	H	1.738887	0.364303	0.437835
H75	H	1.231827	-0.128669	0.062427
H76	H	1.731827	0.371331	0.562427
H77	H	1.314578	-0.270466	-0.062178
H78	H	1.814578	0.229534	0.437822
H79	H	1.307537	-0.263444	0.062425
H80	H	1.807537	0.236556	0.562425
C81	C	0.642471	0.409002	-0.091779
C82	C	1.142471	0.909002	0.408221
C83	C	0.663778	0.364556	0.000061
C84	C	1.163778	0.864556	0.500061
H85	H	0.673660	0.470790	-0.091796
H86	H	1.173660	0.970790	0.408204
H87	H	0.663929	0.371769	-0.154056
H88	H	1.163929	0.871769	0.345944
H89	H	0.575374	0.414604	-0.091757
H90	H	1.075374	0.914604	0.408243
H91	H	0.730875	0.358947	0.000035
H92	H	1.230875	0.858947	0.500035
H93	H	0.642325	0.401798	0.062354
H94	H	1.142325	0.901798	0.562354
C95	C	1.008595	-0.397850	0.000090
C96	C	1.508595	0.102150	0.500090
C97	C	1.000288	-0.298955	0.000089
C98	C	1.500288	0.201045	0.500089
H99	H	0.946813	-0.429053	0.000100
H100	H	1.446813	0.070947	0.500100
H101	H	1.045802	-0.419305	-0.062205
H102	H	1.545802	0.080695	0.437795
H103	H	1.038789	-0.412260	0.062387
H104	H	1.538789	0.087740	0.562387
H105	H	0.970100	-0.284544	-0.062212
H106	H	1.470100	0.215456	0.437788
H107	H	0.963066	-0.277492	0.062390
H108	H	1.463066	0.222508	0.562390
C109	C	1.227440	0.136488	0.354271
C110	C	1.727440	0.636488	0.854271
C111	C	1.233939	0.130172	0.464809
C112	C	1.733939	0.630172	0.964809
H113	H	1.269622	0.093782	0.316019
H114	H	1.769622	0.593782	0.816019
H115	H	1.163777	0.119991	0.336044
H116	H	1.663777	0.619991	0.836044
H117	H	1.244532	0.199972	0.335782
H118	H	1.744532	0.699972	0.835782
H119	H	1.216841	0.066688	0.483299
H120	H	1.716841	0.566688	0.983299
H121	H	1.297616	0.146662	0.483042
H122	H	1.797616	0.646662	0.983042
H123	H	1.061285	0.303783	0.519330
H124	H	1.561285	0.803783	1.019330
