data_functionalizedCrystal
_audit_creation_method	'MofGen! by Chris Wilmer'
_symmetry_space_group_name_H-M	'P1'
_symmetry_Int_Tables_number	1
_symmetry_cell_setting	triclinic
loop_
_symmetry_equiv_pos_as_xyz
  x,y,z
_cell_length_a	13.897447
_cell_length_b	19.121424
_cell_length_c	13.897441
_cell_angle_alpha	92.411679
_cell_angle_beta	89.970673
_cell_angle_gamma	92.463222
loop_
_atom_site_label
_atom_site_type_symbol
_atom_site_fract_x
_atom_site_fract_y
_atom_site_fract_z
Zn1	Zn	-0.321025	1.073748	-0.482722
Zn2	Zn	-0.482351	1.073667	-0.321431
Zn3	Zn	-0.327954	0.956294	-0.328295
Zn4	Zn	-0.489167	0.956277	-0.489535
O5	O	-0.405124	1.014997	-0.405496
O6	O	-0.336672	1.172019	-0.455602
O7	O	-0.461917	1.058070	-0.187362
O8	O	-0.192051	0.971916	-0.348801
O9	O	-0.455198	1.171960	-0.337103
O10	O	-0.186960	1.058208	-0.462258
O11	O	-0.348482	0.971837	-0.192405
O12	O	-0.355092	0.858010	-0.355408
O13	O	-0.466815	0.971887	-0.623612
O14	O	-0.473534	0.857997	-0.473871
O15	O	-0.343282	1.058192	-0.618606
O16	O	-0.618239	1.058054	-0.343710
O17	O	-0.623247	0.971808	-0.467215
C18	C	-0.415805	0.832520	-0.416124
C19	C	-0.420398	0.754456	-0.420694
C20	C	-0.449439	0.312940	-0.449704
C21	C	-0.445132	0.386290	-0.445392
C22	C	-0.381212	0.422948	-0.381662
C23	C	-0.321603	0.386253	-0.322232
C24	C	-0.325916	0.312905	-0.326539
C25	C	-0.365102	0.644412	-0.365571
C26	C	-0.360791	0.717766	-0.361270
C27	C	-0.484322	0.717797	-0.484430
C28	C	-0.488626	0.644447	-0.488736
C29	C	-0.429021	0.607759	-0.429302
C30	C	-0.376805	0.497923	-0.377255
C31	C	-0.433433	0.532785	-0.433705
C32	C	-0.655742	1.014939	-0.405477
C33	C	-0.762953	1.014979	-0.405497
C34	C	-0.850021	1.015013	-0.405517
C35	C	-0.959251	1.015062	-0.405539
C36	C	-0.153527	1.015073	-0.405535
C37	C	-0.046311	1.015106	-0.405552
C38	C	-0.405036	1.015046	-0.657086
C39	C	-0.404998	1.015068	-0.764299
C40	C	-0.394402	1.198186	-0.394827
C41	C	-0.389833	1.276250	-0.390281
C42	C	-0.404932	1.015087	-0.960593
C43	C	-0.404972	1.015074	-0.851361
C44	C	-0.405140	1.014987	-0.154882
C45	C	-0.404898	1.015102	-0.047662
H46	H	-0.501485	0.283098	-0.501605
C47	C	-0.510693	0.426646	-0.510764
H48	H	-0.549369	0.394308	-0.549345
H49	H	-0.550998	0.455236	-0.472118
H50	H	-0.472154	0.455283	-0.551176
H51	H	-0.324759	0.527779	-0.325367
H52	H	-0.308728	0.747611	-0.309380
H53	H	-0.532850	0.747677	-0.532816
C54	C	-0.299530	0.604064	-0.300206
H55	H	-0.260838	0.636403	-0.261644
H56	H	-0.338054	0.575425	-0.259790
H57	H	-0.259226	0.575475	-0.338865
H58	H	-0.269562	0.416106	-0.270337
H59	H	-0.277375	0.283033	-0.278153
H60	H	-0.485479	0.502934	-0.485591
C61	C	-0.559017	0.604128	-0.558759
H62	H	-0.593930	0.636485	-0.593504
H63	H	-0.523928	0.575510	-0.602558
H64	H	-0.602658	0.575522	-0.523386
