data_functionalizedCrystal
_audit_creation_method	'MofGen! by Chris Wilmer'
_symmetry_space_group_name_H-M	'P1'
_symmetry_Int_Tables_number	1
_symmetry_cell_setting	triclinic
loop_
_symmetry_equiv_pos_as_xyz
  x,y,z
_cell_length_a	18.215407
_cell_length_b	13.897448
_cell_length_c	18.215399
_cell_angle_alpha	90.023741
_cell_angle_beta	89.980167
_cell_angle_gamma	89.979983
loop_
_atom_site_label
_atom_site_type_symbol
_atom_site_fract_x
_atom_site_fract_y
_atom_site_fract_z
Zn1	Zn	1.125099	0.384013	-0.416137
Zn2	Zn	1.375099	0.634013	-0.166137
Zn3	Zn	1.625099	0.884013	0.083863
Zn4	Zn	1.875099	1.134013	0.333863
Zn5	Zn	1.125019	0.545323	-0.293080
Zn6	Zn	1.375019	0.795323	-0.043080
Zn7	Zn	1.625019	1.045323	0.206920
Zn8	Zn	1.875019	1.295323	0.456920
Zn9	Zn	1.002032	0.384045	-0.293085
Zn10	Zn	1.252032	0.634045	-0.043085
Zn11	Zn	1.502032	0.884045	0.206915
Zn12	Zn	1.752032	1.134045	0.456915
Zn13	Zn	1.002009	0.545269	-0.416105
Zn14	Zn	1.252009	0.795269	-0.166105
Zn15	Zn	1.502009	1.045269	0.083895
Zn16	Zn	1.752009	1.295269	0.333895
O17	O	1.063540	0.464663	-0.354602
O18	O	1.313540	0.714663	-0.104602
O19	O	1.563540	0.964663	0.145398
O20	O	1.813540	1.214663	0.395398
O21	O	1.228073	0.405421	-0.399825
O22	O	1.478073	0.655421	-0.149825
O23	O	1.728073	0.905421	0.100175
O24	O	1.978073	1.155421	0.350175
O25	O	1.108680	0.523965	-0.190096
O26	O	1.358680	0.773965	0.059904
O27	O	1.608680	1.023965	0.309904
O28	O	1.858680	1.273965	0.559904
O29	O	1.018400	0.249059	-0.309423
O30	O	1.268400	0.499059	-0.059423
O31	O	1.518400	0.749059	0.190577
O32	O	1.768400	0.999059	0.440577
O33	O	1.228014	0.523934	-0.309416
O34	O	1.478014	0.773934	-0.059416
O35	O	1.728014	1.023934	0.190584
O36	O	1.978014	1.273934	0.440584
O37	O	1.108817	0.249036	-0.399830
O38	O	1.358817	0.499036	-0.149830
O39	O	1.608817	0.749036	0.100170
O40	O	1.858817	0.999036	0.350170
O41	O	1.018322	0.405474	-0.190100
O42	O	1.268322	0.655474	0.059900
O43	O	1.518322	0.905474	0.309900
O44	O	1.768322	1.155474	0.559900
O45	O	0.899044	0.405422	-0.309392
O46	O	1.149044	0.655422	-0.059392
O47	O	1.399044	0.905422	0.190608
O48	O	1.649044	1.155422	0.440608
O49	O	1.018361	0.523843	-0.519094
O50	O	1.268361	0.773843	-0.269094
O51	O	1.518361	1.023843	-0.019094
O52	O	1.768361	1.273843	0.230906
O53	O	0.899028	0.523873	-0.399775
O54	O	1.149028	0.773873	-0.149775
O55	O	1.399028	1.023873	0.100225
O56	O	1.649028	1.273873	0.350225
O57	O	1.108795	0.405369	-0.519117
O58	O	1.358795	0.655369	-0.269117
O59	O	1.608795	0.905369	-0.019117
O60	O	1.858795	1.155369	0.230883
O61	O	1.108658	0.680297	-0.309384
O62	O	1.358658	0.930297	-0.059384
O63	O	1.608658	1.180297	0.190616
O64	O	1.858658	1.430297	0.440616
O65	O	1.018283	0.680258	-0.399770
O66	O	1.268283	0.930258	-0.149770
O67	O	1.518283	1.180258	0.100230
O68	O	1.768283	1.430258	0.350230
C69	C	0.872333	0.464646	-0.354581
C70	C	1.122333	0.714646	-0.104581
C71	C	1.372333	0.964646	0.145419
C72	C	1.622333	1.214646	0.395419
C73	C	0.790535	0.464662	-0.354589
C74	C	1.040535	0.714662	-0.104589
C75	C	1.290535	0.964662	0.145411
C76	C	1.540535	1.214662	0.395411
C77	C	1.063480	0.715277	-0.354589
C78	C	1.313480	0.965277	-0.104589
C79	C	1.563480	1.215277	0.145411
C80	C	1.813480	1.465277	0.395411
C81	C	1.063521	0.822491	-0.354608
C82	C	1.313521	1.072491	-0.104608
C83	C	1.563521	1.322491	0.145392
C84	C	1.813521	1.572491	0.395392
C85	C	0.602351	0.526437	-0.401592
C86	C	0.852351	0.776437	-0.151592
C87	C	1.102351	1.026437	0.098408
C88	C	1.352351	1.276437	0.348408
C89	C	0.525492	0.526440	-0.401601
C90	C	0.775492	0.776440	-0.151601
C91	C	1.025492	1.026440	0.098399
C92	C	1.275492	1.276440	0.348399
C93	C	0.525480	0.402906	-0.307628
C94	C	0.775480	0.652906	-0.057628
C95	C	1.025480	0.902906	0.192372
C96	C	1.275480	1.152906	0.442372
C97	C	0.602338	0.402899	-0.307623
C98	C	0.852338	0.652899	-0.057623
C99	C	1.102338	0.902899	0.192377
C100	C	1.352338	1.152899	0.442377
C101	C	0.640771	0.464670	-0.354604
C102	C	0.890771	0.714670	-0.104604
C103	C	1.140771	0.964670	0.145396
C104	C	1.390771	1.214670	0.395396
C105	C	0.487055	0.464680	-0.354618
C106	C	0.737055	0.714680	-0.104618
C107	C	0.987055	0.964680	0.145382
C108	C	1.237055	1.214680	0.395382
C109	C	0.403721	0.464683	-0.354628
C110	C	0.653721	0.714683	-0.104628
C111	C	0.903721	0.964683	0.145372
C112	C	1.153721	1.214683	0.395372
C113	C	0.724110	0.464666	-0.354595
C114	C	0.974110	0.714666	-0.104595
C115	C	1.224110	0.964666	0.145405
C116	C	1.474110	1.214666	0.395405
C117	C	1.063594	1.018786	-0.354661
C118	C	1.313594	1.268786	-0.104661
C119	C	1.563594	1.518786	0.145339
C120	C	1.813594	1.768786	0.395339
C121	C	1.063551	0.909553	-0.354634
C122	C	1.313551	1.159553	-0.104634
C123	C	1.563551	1.409553	0.145366
C124	C	1.813551	1.659553	0.395366
C125	C	1.255493	0.464680	-0.354623
C126	C	1.505493	0.714680	-0.104623
C127	C	1.755493	0.964680	0.145377
C128	C	2.005493	1.214680	0.395377
C129	C	1.337291	0.464687	-0.354633
C130	C	1.587291	0.714687	-0.104633
C131	C	1.837291	0.964687	0.145367
C132	C	2.087291	1.214687	0.395367
C133	C	1.063585	0.464596	-0.546555
C134	C	1.313585	0.714596	-0.296555
C135	C	1.563585	0.964596	-0.046555
C136	C	1.813585	1.214596	0.203445
C137	C	1.063604	0.464568	-0.628354
C138	C	1.313604	0.714568	-0.378354
C139	C	1.563604	0.964568	-0.128354
C140	C	1.813604	1.214568	0.121646
C141	C	1.063614	1.213070	-0.354639
C142	C	1.313614	1.463070	-0.104639
C143	C	1.563614	1.713070	0.145361
C144	C	1.813614	1.963070	0.395361
C145	C	1.063629	1.105856	-0.354677
C146	C	1.313629	1.355856	-0.104677
C147	C	1.563629	1.605856	0.145323
C148	C	1.813629	1.855856	0.395323
C149	C	1.110709	0.402821	-0.816561
C150	C	1.360709	0.652821	-0.566561
C151	C	1.610709	0.902821	-0.316561
C152	C	1.860709	1.152821	-0.066561
C153	C	1.110718	0.402792	-0.893420
C154	C	1.360718	0.652792	-0.643420
C155	C	1.610718	0.902792	-0.393420
C156	C	1.860718	1.152792	-0.143420
C157	C	1.016550	0.526166	-0.893384
C158	C	1.266550	0.776166	-0.643384
C159	C	1.516550	1.026166	-0.393384
C160	C	1.766550	1.276166	-0.143384
C161	C	1.016538	0.526188	-0.816527
C162	C	1.266538	0.776188	-0.566527
C163	C	1.516538	1.026188	-0.316527
C164	C	1.766538	1.276188	-0.066527
C165	C	1.063622	0.464517	-0.778117
C166	C	1.313622	0.714517	-0.528117
C167	C	1.563622	0.964517	-0.278117
C168	C	1.813622	1.214517	-0.028117
C169	C	1.063643	0.464466	-0.931834
C170	C	1.313643	0.714466	-0.681834
C171	C	1.563643	0.964466	-0.431834
C172	C	1.813643	1.214466	-0.181834
C173	C	1.063652	0.464436	-1.015167
C174	C	1.313652	0.714436	-0.765167
C175	C	1.563652	0.964436	-0.515167
C176	C	1.813652	1.214436	-0.265167
C177	C	1.063612	0.464546	-0.694778
C178	C	1.313612	0.714546	-0.444778
C179	C	1.563612	0.964546	-0.194778
C180	C	1.813612	1.214546	0.055222
C181	C	1.063537	0.464659	-0.163396
C182	C	1.313537	0.714659	0.086604
C183	C	1.563537	0.964659	0.336604
C184	C	1.813537	1.214659	0.586604
C185	C	1.063661	0.464416	-0.081597
C186	C	1.313661	0.714416	0.168403
C187	C	1.563661	0.964416	0.418403
C188	C	1.813661	1.214416	0.668403
H189	H	0.633641	0.576732	-0.439849
H190	H	0.883641	0.826732	-0.189849
H191	H	1.133641	1.076732	0.060151
H192	H	1.383641	1.326732	0.310151
H193	H	1.149046	0.352601	-0.785291
H194	H	1.399046	0.602601	-0.535291
H195	H	1.649046	0.852601	-0.285291
H196	H	1.899046	1.102601	-0.035291
H197	H	0.978188	0.576428	-0.785225
H198	H	1.228188	0.826428	-0.535225
H199	H	1.478188	1.076428	-0.285225
H200	H	1.728188	1.326428	-0.035225
H201	H	0.494214	0.576735	-0.439865
H202	H	0.744214	0.826735	-0.189865
H203	H	0.994214	1.076735	0.060135
H204	H	1.244214	1.326735	0.310135
H205	H	0.978217	0.576378	-0.924666
H206	H	1.228217	0.826378	-0.674666
H207	H	1.478217	1.076378	-0.424666
H208	H	1.728217	1.326378	-0.174666
O209	O	0.488110	0.343047	-0.261912
O210	O	0.738110	0.593047	-0.011912
O211	O	0.988110	0.843047	0.238088
O212	O	1.238110	1.093047	0.488088
C213	C	0.443606	0.397888	-0.214325
C214	C	0.693606	0.647888	0.035675
C215	C	0.943606	0.897888	0.285675
C216	C	1.193606	1.147888	0.535675
H217	H	0.466751	0.473848	-0.209677
H218	H	0.716751	0.723848	0.040323
H219	H	0.966751	0.973848	0.290323
H220	H	1.216751	1.223848	0.540323
H221	H	0.442716	0.362905	-0.157735
H222	H	0.692716	0.612905	0.092265
H223	H	0.942716	0.862905	0.342265
H224	H	1.192716	1.112905	0.592265
H225	H	0.385367	0.401256	-0.237081
H226	H	0.635367	0.651256	0.012919
H227	H	0.885367	0.901256	0.262919
H228	H	1.135367	1.151256	0.512919
H229	H	0.633620	0.352595	-0.269359
H230	H	0.883620	0.602595	-0.019359
H231	H	1.133620	0.852595	0.230641
H232	H	1.383620	1.102595	0.480641
O233	O	1.156530	0.342832	-0.930651
O234	O	1.406530	0.592832	-0.680651
O235	O	1.656530	0.842832	-0.430651
O236	O	1.906530	1.092832	-0.180651
C237	C	1.198068	0.288390	-0.880265
C238	C	1.448068	0.538390	-0.630265
C239	C	1.698068	0.788390	-0.380265
C240	C	1.948068	1.038390	-0.130265
H241	H	1.200596	0.327919	-0.825475
H242	H	1.450596	0.577919	-0.575475
H243	H	1.700596	0.827919	-0.325475
H244	H	1.950596	1.077919	-0.075475
H245	H	1.256058	0.278097	-0.902485
H246	H	1.506058	0.528097	-0.652485
H247	H	1.756058	0.778097	-0.402485
H248	H	2.006058	1.028097	-0.152485
H249	H	1.171140	0.215132	-0.872094
H250	H	1.421140	0.465132	-0.622094
H251	H	1.671140	0.715132	-0.372094
H252	H	1.921140	0.965132	-0.122094
