data_functionalizedCrystal
_audit_creation_method	'MofGen! by Chris Wilmer'
_symmetry_space_group_name_H-M	'P1'
_symmetry_Int_Tables_number	1
_symmetry_cell_setting	triclinic
loop_
_symmetry_equiv_pos_as_xyz
  x,y,z
_cell_length_a	16.625548
_cell_length_b	19.120786
_cell_length_c	19.120904
_cell_angle_alpha	89.866497
_cell_angle_beta	92.422750
_cell_angle_gamma	92.466188
loop_
_atom_site_label
_atom_site_type_symbol
_atom_site_fract_x
_atom_site_fract_y
_atom_site_fract_z
Zn1	Zn	1.199307	-0.296029	-0.384473
Zn2	Zn	1.699307	0.203971	0.115527
Zn3	Zn	1.199702	-0.408273	-0.262232
Zn4	Zn	1.699702	0.091727	0.237768
Zn5	Zn	1.070462	-0.291049	-0.267252
Zn6	Zn	1.570462	0.208951	0.232748
Zn7	Zn	1.058939	-0.413237	-0.379429
Zn8	Zn	1.558939	0.086763	0.120571
O9	O	1.132103	-0.352147	-0.323346
O10	O	1.632103	0.147853	0.176654
O11	O	1.312191	-0.310924	-0.368268
O12	O	1.812191	0.189076	0.131732
O13	O	1.187546	-0.388561	-0.164793
O14	O	1.687546	0.111439	0.335207
O15	O	1.092211	-0.193599	-0.287013
O16	O	1.592211	0.306401	0.212987
O17	O	1.312481	-0.393389	-0.278458
O18	O	1.812481	0.106611	0.221542
O19	O	1.186872	-0.197257	-0.373135
O20	O	1.686872	0.302743	0.126865
O21	O	1.092594	-0.302438	-0.168481
O22	O	1.592594	0.197562	0.331519
O23	O	0.956102	-0.307252	-0.282122
O24	O	1.456102	0.192748	0.217878
O25	O	1.072571	-0.401851	-0.478203
O26	O	1.572571	0.098149	0.021797
O27	O	0.947636	-0.397023	-0.364538
O28	O	1.447636	0.102977	0.135462
O29	O	1.175699	-0.315738	-0.481909
O30	O	1.675699	0.184262	0.018091
O31	O	1.176373	-0.507042	-0.273567
O32	O	1.676373	-0.007042	0.226433
O33	O	1.072955	-0.510689	-0.359671
O34	O	1.572955	-0.010689	0.140329
C35	C	0.922613	-0.352136	-0.323327
C36	C	1.422613	0.147864	0.176673
C37	C	0.832991	-0.352149	-0.323335
C38	C	1.332991	0.147851	0.176665
C39	C	0.504814	-0.352155	-0.323365
C40	C	1.004814	0.147845	0.176635
C41	C	0.596123	-0.352151	-0.323354
C42	C	1.096123	0.147849	0.176646
C43	C	0.668900	-0.352152	-0.323349
C44	C	1.168900	0.147848	0.176651
C45	C	0.760215	-0.352148	-0.323340
C46	C	1.260215	0.147852	0.176660
C47	C	1.123477	-0.534305	-0.315542
C48	C	1.623477	-0.034305	0.184458
C49	C	1.119860	-0.612234	-0.312227
C50	C	1.619860	-0.112234	0.187773
C51	C	1.167405	-0.650691	-0.355545
C52	C	1.667405	-0.150691	0.144455
C53	C	1.164003	-0.723914	-0.352431
C54	C	1.664003	-0.223914	0.147569
C55	C	1.113059	-0.758678	-0.305995
C56	C	1.613059	-0.258678	0.194005
C57	C	1.065508	-0.720216	-0.262675
C58	C	1.565508	-0.220216	0.237325
C59	C	1.068907	-0.646995	-0.265793
C60	C	1.568907	-0.146995	0.234207
C61	C	1.100330	-0.979667	-0.294340
C62	C	1.600330	-0.479667	0.205660
C63	C	1.096937	-1.052893	-0.291224
C64	C	1.596937	-0.552893	0.208776
C65	C	1.195431	-1.056586	-0.380981
C66	C	1.695431	-0.556586	0.119019
C67	C	1.198828	-0.983363	-0.384091
C68	C	1.698828	-0.483363	0.115909
C69	C	1.151274	-0.944908	-0.340774
C70	C	1.651274	-0.444908	0.159226
C71	C	1.109582	-0.833524	-0.302810
C72	C	1.609582	-0.333524	0.197190
C73	C	1.154748	-0.870064	-0.343964
C74	C	1.654748	-0.370064	0.156036
C75	C	1.342410	-0.352158	-0.323366
C76	C	1.842410	0.147842	0.176634
C77	C	1.432030	-0.352163	-0.323374
C78	C	1.932030	0.147837	0.176626
C79	C	1.122806	-0.359904	-0.506204
C80	C	1.622806	0.140096	-0.006204
C81	C	1.118844	-0.363209	-0.584127
C82	C	1.618844	0.136791	-0.084127
C83	C	1.140783	-0.169278	-0.331197
C84	C	1.640783	0.330722	0.168803
C85	C	1.144482	-0.091350	-0.334542
C86	C	1.644482	0.408650	0.165458
C87	C	1.170673	-0.319930	-0.622667
C88	C	1.670673	0.180070	-0.122667
C89	C	1.166941	-0.323033	-0.695884
C90	C	1.666941	0.176967	-0.195884
C91	C	1.111383	-0.369420	-0.730560
C92	C	1.611383	0.130580	-0.230560
C93	C	1.059548	-0.412701	-0.692016
C94	C	1.559548	0.087299	-0.192016
C95	C	1.063277	-0.409593	-0.618800
C96	C	1.563277	0.090407	-0.118800
C97	C	1.097434	-0.381041	-0.951528
C98	C	1.597434	0.118959	-0.451528
C99	C	1.093711	-0.384146	-1.024749
C100	C	1.593711	0.115854	-0.524749
C101	C	1.201102	-0.294477	-1.028611
C102	C	1.701102	0.205523	-0.528611
C103	C	1.204830	-0.291377	-0.955394
C104	C	1.704830	0.208623	-0.455394
C105	C	1.152992	-0.334656	-0.916856
C106	C	1.652992	0.165344	-0.416856
C107	C	1.107568	-0.372594	-0.805400
C108	C	1.607568	0.127406	-0.305400
C109	C	1.156804	-0.331477	-0.842018
C110	C	1.656804	0.168523	-0.342018
C111	C	1.141412	-0.344370	-0.141202
C112	C	1.641412	0.155630	0.358798
C113	C	1.145540	-0.340867	-0.063288
C114	C	1.645540	0.159133	0.436712
H115	H	1.202726	-0.755223	-0.387700
H116	H	1.702726	-0.255223	0.112300
O117	O	1.216782	-0.616848	-0.400691
O118	O	1.716782	-0.116848	0.099309
C119	C	1.170494	-0.576446	-0.447747
C120	C	1.670494	-0.076446	0.052253
H121	H	1.111180	-0.564481	-0.423435
H122	H	1.611180	-0.064481	0.076565
H123	H	1.205240	-0.525328	-0.459364
H124	H	1.705240	-0.025328	0.040636
H125	H	1.157634	-0.606858	-0.498492
H126	H	1.657634	-0.106858	0.001508
O127	O	1.224560	-0.274769	-0.589022
O128	O	1.724560	0.225231	-0.089022
C129	C	1.209353	-0.205654	-0.609927
C130	C	1.709353	0.294346	-0.109927
H131	H	1.144081	-0.202967	-0.630193
H132	H	1.644081	0.297033	-0.130193
H133	H	1.220395	-0.168971	-0.563268
H134	H	1.720395	0.331029	-0.063268
H135	H	1.251284	-0.189134	-0.653221
H136	H	1.751284	0.310866	-0.153221
H137	H	1.048466	-0.421921	-1.052980
H138	H	1.548466	0.078079	-0.552980
H139	H	1.021065	-0.444829	-0.587423
H140	H	1.521065	0.055171	-0.087423
H141	H	1.202035	-0.293707	-0.813781
H142	H	1.702035	0.206293	-0.313781
H143	H	1.240311	-0.955060	-0.421903
H144	H	1.740311	-0.455060	0.078097
O145	O	1.241567	-1.093873	-0.423165
O146	O	1.741567	-0.593873	0.076835
C147	C	1.221134	-1.078943	-0.493783
C148	C	1.721134	-0.578943	0.006217
H149	H	1.192537	-1.025861	-0.497468
H150	H	1.692537	-0.525861	0.002532
H151	H	1.277809	-1.077723	-0.525382
H152	H	1.777809	-0.577723	-0.025382
H153	H	1.176537	-1.121173	-0.515602
H154	H	1.676537	-0.621173	-0.015602
O155	O	1.047327	-1.086639	-0.246192
O156	O	1.547327	-0.586639	0.253808
C157	C	0.967003	-1.069446	-0.262201
C158	C	1.467003	-0.569446	0.237799
H159	H	0.960968	-1.051673	-0.319060
H160	H	1.460968	-0.551673	0.180940
H161	H	0.925253	-1.117380	-0.254083
H162	H	1.425253	-0.617380	0.245917
H163	H	0.949834	-1.025383	-0.226404
H164	H	1.449834	-0.525383	0.273596
H165	H	1.061611	-0.948362	-0.259068
H166	H	1.561611	-0.448362	0.240932
O167	O	1.022633	-0.609607	-0.223815
O168	O	1.522633	-0.109607	0.276185
C169	C	0.970472	-0.568959	-0.265493
C170	C	1.470472	-0.068959	0.234507
H171	H	0.961611	-0.593354	-0.319765
H172	H	1.461611	-0.093354	0.180235
H173	H	0.909770	-0.567105	-0.240123
H174	H	1.409770	-0.067105	0.259877
H175	H	0.997852	-0.513550	-0.270294
H176	H	1.497852	-0.013550	0.229706
O177	O	1.217311	-0.281090	-0.733398
O178	O	1.717311	0.218910	-0.233398
C179	C	1.265346	-0.322802	-0.774039
C180	C	1.765346	0.177198	-0.274039
H181	H	1.233832	-0.376400	-0.782718
H182	H	1.733832	0.123600	-0.282718
H183	H	1.274872	-0.296427	-0.826754
H184	H	1.774872	0.203573	-0.326754
H185	H	1.326176	-0.329307	-0.745510
H186	H	1.826176	0.170693	-0.245510
O187	O	1.060056	-0.867377	-0.257792
O188	O	1.560056	-0.367377	0.242208
C189	C	1.003934	-0.911436	-0.295860
C190	C	1.503934	-0.411436	0.204140
H191	H	1.029106	-0.924611	-0.348551
H192	H	1.529106	-0.424611	0.151449
H193	H	0.992227	-0.961736	-0.265107
H194	H	1.492227	-0.461736	0.234893
H195	H	0.945088	-0.883589	-0.304705
H196	H	1.445088	-0.383589	0.195295
O197	O	1.015973	-0.754066	-0.217661
O198	O	1.515973	-0.254066	0.282339
C199	C	0.959852	-0.798126	-0.255728
C200	C	1.459852	-0.298126	0.244272
H201	H	0.985030	-0.811310	-0.308415
H202	H	1.485030	-0.311310	0.191585
H203	H	0.948138	-0.848422	-0.224969
H204	H	1.448138	-0.348422	0.275031
H205	H	0.901009	-0.770277	-0.264582
H206	H	1.401009	-0.270277	0.235418
H207	H	1.196223	-0.841757	-0.381775
H208	H	1.696223	-0.341757	0.118225
O209	O	1.047038	-0.423142	-0.914205
O210	O	1.547038	0.076858	-0.414205
C211	C	0.997186	-0.464732	-0.960515
C212	C	1.497186	0.035268	-0.460515
H213	H	1.027450	-0.469390	-1.012599
H214	H	1.527450	0.030610	-0.512599
H215	H	0.987014	-0.519068	-0.936983
H216	H	1.487014	-0.019068	-0.436983
H217	H	0.936783	-0.439368	-0.969409
H218	H	1.436783	0.060632	-0.469409
O219	O	1.258820	-0.246253	-0.921823
O220	O	1.758820	0.253747	-0.421823
C221	C	1.303781	-0.208731	-0.971539
C222	C	1.803781	0.291269	-0.471539
H223	H	1.268213	-0.208514	-1.023829
H224	H	1.768213	0.291486	-0.523829
H225	H	1.316082	-0.152595	-0.952756
H226	H	1.816082	0.347405	-0.452756
H227	H	1.363402	-0.234740	-0.978233
H228	H	1.863402	0.265260	-0.478233
H229	H	1.243304	-0.259242	-1.059997
H230	H	1.743304	0.240758	-0.559997
O231	O	1.053714	-0.417730	-0.839116
O232	O	1.553714	0.082270	-0.339116
C233	C	1.095315	-0.464795	-0.879549
C234	C	1.595315	0.035205	-0.379549
H235	H	1.159735	-0.468197	-0.857305
H236	H	1.659735	0.031803	-0.357305
H237	H	1.063549	-0.518784	-0.878069
H238	H	1.563549	-0.018784	-0.378069
H239	H	1.096301	-0.445463	-0.935965
H240	H	1.596301	0.054537	-0.435965
H241	H	1.014309	-0.450467	-0.720256
H242	H	1.514309	0.049533	-0.220256
