data_functionalizedCrystal
_audit_creation_method	'MofGen! by Chris Wilmer'
_symmetry_space_group_name_H-M	'P1'
_symmetry_Int_Tables_number	1
_symmetry_cell_setting	triclinic
loop_
_symmetry_equiv_pos_as_xyz
  x,y,z
_cell_length_a	17.000383
_cell_length_b	13.339070
_cell_length_c	12.376457
_cell_angle_alpha	75.601917
_cell_angle_beta	100.389189
_cell_angle_gamma	95.614799
loop_
_atom_site_label
_atom_site_type_symbol
_atom_site_fract_x
_atom_site_fract_y
_atom_site_fract_z
O1	O	-1.074777	-0.015398	-0.094083
O2	O	-0.850995	-0.051407	-0.094068
O3	O	-0.937203	0.111576	-0.094071
O4	O	-0.988570	-0.178380	-0.094081
O5	O	-0.915650	0.070883	0.093942
O6	O	-0.829442	-0.092099	0.093945
O7	O	-1.053225	-0.056091	0.093929
Zn8	Zn	-0.937912	-0.080556	0.123788
Zn9	Zn	-0.966308	-0.026941	-0.123927
O10	O	-0.967017	-0.219073	0.093932
C11	C	-0.810992	-0.073687	-0.000060
C12	C	-0.723903	-0.079438	-0.000054
C13	C	-1.093228	-0.033809	-0.000081
C14	C	-1.180318	-0.028057	-0.000095
C15	C	-0.231890	-0.116558	-0.000097
C16	C	-0.313718	-0.111148	-0.000096
C17	C	-0.343972	-0.017237	-0.000084
C18	C	-0.292393	0.071273	-0.000085
C19	C	-0.210568	0.065863	-0.000094
C20	C	-0.590499	0.003661	-0.000064
C21	C	-0.672331	0.009063	-0.000051
C22	C	-0.693650	-0.173358	-0.000065
C23	C	-0.611821	-0.178760	-0.000067
C24	C	-0.560251	-0.090250	-0.000074
C25	C	-0.427612	-0.011705	-0.000080
C26	C	-0.476613	-0.095781	-0.000086
C27	C	-0.917750	0.128147	-0.000065
C28	C	-0.891887	0.238149	-0.000068
C29	C	-0.986470	-0.235644	-0.000076
C30	C	-1.012334	-0.345644	-0.000081
N31	N	-0.918537	-0.117145	0.292847
C32	C	-1.092986	0.620831	-0.000081
C33	C	-1.117287	0.517478	-0.000072
C34	C	-1.060939	0.447641	-0.000071
C35	C	-0.980286	0.481167	-0.000079
C36	C	-0.955982	0.584528	-0.000079
C37	C	-0.923935	0.411338	-0.000070
C38	C	-0.843282	0.444864	-0.000077
C39	C	-0.818981	0.548216	-0.000078
C40	C	-0.875329	0.618053	-0.000079
C41	C	-0.948239	0.307977	-0.000069
C42	C	-0.811235	0.271674	-0.000068
C43	C	-0.786934	0.375027	-0.000077
N44	N	-0.985687	0.009657	-0.292986
C45	C	-1.030657	0.094612	0.647829
C46	C	-1.044213	0.120220	0.529489
C47	C	-1.012795	0.060881	0.470322
C48	C	-0.967819	-0.024071	0.529508
C49	C	-0.954267	-0.049687	0.647860
C50	C	-0.936405	-0.083418	0.470353
C51	C	-0.891429	-0.168370	0.529539
C52	C	-0.877879	-0.193982	0.647879
C53	C	-0.909297	-0.134643	0.707045
C54	C	-0.949957	-0.057801	0.352002
C55	C	-0.873567	-0.202100	0.352033
C56	C	-0.860011	-0.227709	0.470373
H57	H	-0.207264	-0.193033	-0.000098
Cl58	Cl	-0.717587	0.590357	-0.000071
Cl59	Cl	-0.740392	0.183884	-0.000059
Cl60	Cl	-0.821350	-0.300789	0.722286
H61	H	-0.587196	-0.255232	-0.000080
Cl62	Cl	-0.145734	0.177127	-0.000091
Cl63	Cl	-1.070158	0.169193	0.722210
H64	H	-0.355707	-0.183213	-0.000109
H65	H	-0.898258	-0.155490	0.803408
H66	H	-1.138854	0.677698	-0.000072
H67	H	-0.823392	-0.296880	0.518576
Cl68	Cl	-0.758486	-0.284618	-0.000066
H69	H	-0.847986	-0.250422	0.303860
H70	H	-0.986576	0.011367	0.303823
H71	H	-0.855548	0.702214	-0.000090
Cl72	Cl	-0.525681	0.114938	-0.000099
H73	H	-0.721265	0.402339	-0.000082
Cl74	Cl	-0.330427	0.189334	-0.000073
Cl75	Cl	-0.438579	-0.213835	-0.000108
Cl76	Cl	-0.465651	0.106349	-0.000053
H77	H	-0.696959	0.085543	-0.000047
H78	H	-1.013907	0.280691	-0.000063
H79	H	-1.023834	0.081736	0.373964
H80	H	-1.080730	0.363487	-0.000064
H81	H	-1.182954	0.490188	-0.000064
H82	H	-1.080832	0.189387	0.481304
