data_functionalizedCrystal
_audit_creation_method	'MofGen! by Chris Wilmer'
_symmetry_space_group_name_H-M	'P1'
_symmetry_Int_Tables_number	1
_symmetry_cell_setting	triclinic
loop_
_symmetry_equiv_pos_as_xyz
  x,y,z
_cell_length_a	19.805407
_cell_length_b	16.120484
_cell_length_c	19.805399
_cell_angle_alpha	92.869501
_cell_angle_beta	89.983114
_cell_angle_gamma	92.925608
loop_
_atom_site_label
_atom_site_type_symbol
_atom_site_fract_x
_atom_site_fract_y
_atom_site_fract_z
Zn1	Zn	1.021057	-0.331915	-0.396377
Zn2	Zn	1.015239	-0.471337	-0.288925
Zn3	Zn	0.907876	-0.331942	-0.283202
Zn4	Zn	0.902099	-0.471289	-0.402070
O5	O	0.961568	-0.401621	-0.342643
O6	O	1.115002	-0.350419	-0.382135
O7	O	1.000980	-0.452877	-0.193450
O8	O	0.927742	-0.215272	-0.293437
O9	O	1.110727	-0.452851	-0.303191
O10	O	1.010896	-0.215253	-0.376586
O11	O	0.922101	-0.350464	-0.189246
O12	O	0.812394	-0.350418	-0.298958
O13	O	0.917896	-0.452770	-0.496030
O14	O	0.808149	-0.452796	-0.386289
O15	O	1.005294	-0.350373	-0.491847
O16	O	0.995378	-0.587997	-0.308711
O17	O	0.912255	-0.587962	-0.391838
C18	C	0.785713	-0.401605	-0.342621
C19	C	0.710480	-0.401618	-0.342628
C20	C	0.952577	-0.618229	-0.351528
C21	C	0.948792	-0.710895	-0.355352
C22	C	0.672940	-0.455007	-0.388035
C23	C	0.602252	-0.455008	-0.388044
C24	C	0.569104	-0.401625	-0.342643
C25	C	0.606649	-0.348230	-0.297235
C26	C	0.677336	-0.348225	-0.297229
C27	C	0.321575	-0.348249	-0.297258
C28	C	0.250882	-0.348260	-0.297266
C29	C	0.246490	-0.455032	-0.388073
C30	C	0.317178	-0.455027	-0.388067
C31	C	0.354717	-0.401630	-0.342661
C32	C	0.431365	-0.401628	-0.342652
C33	C	0.492457	-0.401630	-0.342649
C34	C	0.941887	-0.880557	-0.362347
C35	C	0.981370	-0.921844	-0.322951
C36	C	0.977528	-1.016250	-0.326843
C37	C	0.945728	-0.786143	-0.358456
C38	C	1.138110	-0.401638	-0.342666
C39	C	1.213342	-0.401645	-0.342676
C40	C	0.961600	-0.401563	-0.519184
C41	C	0.961614	-0.401538	-0.594415
C42	C	0.970612	-0.184167	-0.333738
C43	C	0.974467	-0.091501	-0.329944
C44	C	0.920554	-0.348207	-0.627569
C45	C	0.920564	-0.348191	-0.698257
C46	C	0.961638	-0.401502	-0.735789
C47	C	1.002699	-0.454840	-0.702630
C48	C	1.002685	-0.454860	-0.631944
C49	C	1.002756	-0.454762	-0.987700
C50	C	1.002768	-0.454736	-1.058391
C51	C	0.920635	-0.348093	-1.054013
C52	C	0.920621	-0.348113	-0.983327
C53	C	0.961679	-0.401453	-0.950174
C54	C	0.961667	-0.401471	-0.873527
C55	C	0.961654	-0.401481	-0.812435
C56	C	0.961577	-0.401618	-0.166787
C57	C	0.961705	-0.401408	-0.091547
H58	H	0.699924	-0.498481	-0.425003
Br59	Br	0.728285	-0.275762	-0.235607
H60	H	0.887201	-0.304663	-1.081015
Br61	Br	0.362160	-0.527483	-0.449681
Br62	Br	0.195541	-0.527503	-0.449696
H63	H	0.223896	-0.304783	-0.260295
H64	H	0.571690	-0.498483	-0.425018
H65	H	0.887126	-0.304766	-0.725248
H66	H	1.036139	-0.498251	-0.733195
H67	H	1.036126	-0.498281	-0.604950
Br68	Br	0.880740	-0.939813	-0.423431
Br69	Br	0.864813	-0.275845	-0.576639
H70	H	0.887176	-0.304698	-0.952771
H71	H	1.036217	-0.498152	-1.088949
H72	H	0.352131	-0.304776	-0.260280
H73	H	1.036181	-0.498204	-0.960716
Br74	Br	1.042520	-0.862590	-0.261860
H75	H	0.579655	-0.304761	-0.260271
