data_functionalizedCrystal
_audit_creation_method	'MofGen! by Chris Wilmer'
_symmetry_space_group_name_H-M	'P1'
_symmetry_Int_Tables_number	1
_symmetry_cell_setting	triclinic
loop_
_symmetry_equiv_pos_as_xyz
  x,y,z
_cell_length_a	17.019372
_cell_length_b	17.038272
_cell_length_c	9.730223
_cell_angle_alpha	89.998176
_cell_angle_beta	93.876219
_cell_angle_gamma	87.242864
loop_
_atom_site_label
_atom_site_type_symbol
_atom_site_fract_x
_atom_site_fract_y
_atom_site_fract_z
O1	O	1.053349	0.099574	0.010266
O2	O	1.553349	0.599574	0.510266
O3	O	0.824538	0.112280	-0.016793
O4	O	1.324538	0.612280	0.483207
O5	O	0.937584	-0.007888	-0.003413
O6	O	1.437584	0.492112	0.496587
O7	O	0.940303	0.219741	-0.003113
O8	O	1.440303	0.719741	0.496887
O9	O	0.937582	-0.007885	0.225166
O10	O	1.437582	0.492115	0.725166
O11	O	0.824537	0.112283	0.211787
O12	O	1.324537	0.612283	0.711787
O13	O	1.053348	0.099577	0.238846
O14	O	1.553348	0.599577	0.738846
Zn15	Zn	0.938942	0.105930	0.261608
Zn16	Zn	1.438942	0.605930	0.761608
Zn17	Zn	0.938944	0.105926	-0.039555
Zn18	Zn	1.438944	0.605926	0.460445
O19	O	0.940302	0.219744	0.225466
O20	O	1.440302	0.719744	0.725466
C21	C	0.795116	0.111800	0.094017
C22	C	1.295116	0.611800	0.594017
C23	C	0.707450	0.110358	0.083650
C24	C	1.207450	0.610358	0.583650
C25	C	0.935109	-0.037012	0.110584
C26	C	1.435109	0.462988	0.610584
C27	C	0.927729	-0.123799	0.109711
C28	C	1.427729	0.376201	0.609711
C29	C	0.211629	0.102174	0.018672
C30	C	0.711629	0.602174	0.518672
C31	C	0.294001	0.103529	0.028432
C32	C	0.794001	0.603529	0.528432
C33	C	0.335177	0.104214	0.157912
C34	C	0.835177	0.604214	0.657912
C35	C	0.293979	0.103536	0.277639
C36	C	0.793979	0.603536	0.777639
C37	C	0.211609	0.102175	0.267879
C38	C	0.711609	0.602175	0.767879
C39	C	0.583882	0.108319	0.193617
C40	C	1.083882	0.608319	0.693617
C41	C	0.666257	0.109682	0.203369
C42	C	1.166257	0.609682	0.703369
C43	C	0.666273	0.109674	-0.045840
C44	C	1.166273	0.609674	0.454160
C45	C	0.583901	0.108317	-0.055590
C46	C	1.083901	0.608317	0.444410
C47	C	0.542710	0.107635	0.064138
C48	C	1.042710	0.607635	0.564138
C49	C	0.419375	0.105602	0.167891
C50	C	0.919375	0.605602	0.667891
C51	C	0.458515	0.106242	0.054158
C52	C	0.958515	0.606242	0.554158
C53	C	0.995489	-0.173972	0.117725
C54	C	1.495489	0.326028	0.617725
C55	C	0.988549	-0.255517	0.116892
C56	C	1.488549	0.244483	0.616892
C57	C	0.913850	-0.286886	0.108053
C58	C	1.413850	0.213114	0.608053
C59	C	0.846085	-0.236706	0.100033
C60	C	1.346085	0.263294	0.600033
C61	C	0.853025	-0.155163	0.100857
C62	C	1.353025	0.344837	0.600857
C63	C	0.889332	-0.532622	0.105135
C64	C	1.389332	-0.032622	0.605135
C65	C	0.882397	-0.614171	0.104315
C66	C	1.382397	-0.114171	0.604315
C67	C	1.024862	-0.632977	0.121171
C68	C	1.524862	-0.132977	0.621171
C69	C	1.031795	-0.551432	0.122003
C70	C	1.531795	-0.051432	0.622003
C71	C	0.964031	-0.501259	0.113976
C72	C	1.464031	-0.001259	0.613976
C73	C	0.906755	-0.370237	0.107205
C74	C	1.406755	0.129763	0.607205
C75	C	0.971126	-0.417909	0.114814
C76	C	1.471126	0.082091	0.614814
C77	C	1.082769	0.100056	0.128033
C78	C	1.582769	0.600056	0.628033
C79	C	1.170436	0.101498	0.138391
C80	C	1.670436	0.601498	0.638391
C81	C	0.942776	0.248868	0.111466
C82	C	1.442776	0.748868	0.611466
C83	C	0.950157	0.335655	0.112330
C84	C	1.450157	0.835655	0.612330
N85	N	0.938947	0.105932	0.467145
N86	N	1.438947	0.605932	0.967145
N87	N	0.938945	0.105918	-0.245092
N88	N	1.438945	0.605918	0.254908
C89	C	0.989018	0.052740	0.544998
C90	C	1.489018	0.552740	1.044998
C91	C	0.989015	0.052731	0.688880
C92	C	1.489015	0.552731	1.188880
C93	C	0.888868	0.159112	0.677045
C94	C	1.388868	0.659112	1.177045
C95	C	0.888867	0.159117	0.533165
C96	C	1.388867	0.659117	1.033165
C97	C	1.046840	-0.008676	0.551832
C98	C	1.546840	0.491324	1.051832
C99	C	1.046837	-0.008686	0.695715
C100	C	1.546837	0.491314	1.195715
H101	H	0.178108	0.101622	-0.086765
H102	H	0.678108	0.601622	0.413235
H103	H	1.080032	-0.673836	0.127704
H104	H	1.580032	-0.173836	0.627704
F105	F	0.835572	0.215712	0.747319
F106	F	1.335572	0.715712	1.247319
H107	H	0.785263	-0.262252	0.092828
H108	H	1.285263	0.237748	0.592828
F109	F	0.337838	0.104245	-0.098991
F110	F	0.837838	0.604245	0.401009
F111	F	0.827256	-0.403630	0.097793
F112	F	1.327256	0.096370	0.597793
H113	H	1.108201	0.004118	0.742021
H114	H	1.608201	0.504118	1.242021
F115	F	0.835566	0.215721	0.450308
F116	F	1.335566	0.715721	0.950308
H117	H	1.029875	-0.068640	0.510777
H118	H	1.529875	0.431360	1.010777
F119	F	0.540084	0.107589	-0.193400
F120	F	1.040084	0.607589	0.306600
H121	H	0.699820	0.110228	-0.143315
H122	H	1.199820	0.610228	0.356685
F123	F	0.463205	0.106339	0.305689
F124	F	0.963205	0.606339	0.805689
F125	F	0.780906	-0.101764	0.092323
F126	F	1.280906	0.398236	0.592323
H127	H	0.550354	0.107752	0.291108
H128	H	1.050354	0.607752	0.791108
H129	H	1.092623	-0.525898	0.129200
H130	H	1.592623	-0.025898	0.629200
F131	F	0.710079	0.110410	0.341186
F132	F	1.210079	0.610410	0.841186
F133	F	0.167769	0.101450	0.395300
F134	F	0.667769	0.601450	0.895300
H135	H	1.105189	0.009806	0.514104
H136	H	1.605189	0.509806	1.014104
H137	H	0.327512	0.104089	0.383065
H138	H	0.827512	0.604089	0.883065
H139	H	0.424985	0.105681	-0.051264
H140	H	0.924985	0.605681	0.448736
F141	F	1.074994	-0.140595	0.127146
F142	F	1.574994	0.359405	0.627146
H143	H	1.024371	-0.065288	0.737679
H144	H	1.524371	0.434712	1.237679
F145	F	0.802888	-0.647554	0.094914
F146	F	1.302888	-0.147554	0.594914
F147	F	1.060669	-0.308913	0.125425
F148	F	1.560669	0.191087	0.625425
H149	H	0.834153	-0.491780	0.098599
H150	H	1.334153	0.008220	0.598599
H151	H	1.031946	-0.392365	0.121980
H152	H	1.531946	0.107635	0.621980
