data_functionalizedCrystal
_audit_creation_method	'MofGen! by Chris Wilmer'
_symmetry_space_group_name_H-M	'P1'
_symmetry_Int_Tables_number	1
_symmetry_cell_setting	triclinic
loop_
_symmetry_equiv_pos_as_xyz
  x,y,z
_cell_length_a	18.050589
_cell_length_b	12.759401
_cell_length_c	12.759393
_cell_angle_alpha	90.019613
_cell_angle_beta	90.030621
_cell_angle_gamma	90.028452
loop_
_atom_site_label
_atom_site_type_symbol
_atom_site_fract_x
_atom_site_fract_y
_atom_site_fract_z
Zn1	Zn	-0.295611	1.606157	0.594020
Zn2	Zn	-0.419821	1.606010	0.418343
Zn3	Zn	-0.295650	1.430459	0.418356
Zn4	Zn	-0.419764	1.430406	0.593981
O5	O	-0.357712	1.518258	0.506175
O6	O	-0.312095	1.753158	0.570726
O7	O	-0.403390	1.582683	0.271323
O8	O	-0.191720	1.453849	0.441679
O9	O	-0.403352	1.753050	0.441657
O10	O	-0.191692	1.582934	0.570739
O11	O	-0.312162	1.453706	0.271333
O12	O	-0.312107	1.283431	0.441642
O13	O	-0.403255	1.453759	0.741007
O14	O	-0.403293	1.283392	0.570673
O15	O	-0.312040	1.582882	0.741035
O16	O	-0.523738	1.582632	0.441620
O17	O	-0.523696	1.453616	0.570660
C18	C	-0.357698	1.245290	0.506155
C19	C	-0.357710	1.128514	0.506171
C20	C	-0.405152	1.073599	0.438873
C21	C	-0.405164	0.963875	0.438892
C22	C	-0.310288	0.963990	0.573509
C23	C	-0.310280	1.073712	0.573495
C24	C	-0.459925	1.073532	0.361150
C25	C	-0.459938	0.963808	0.361168
C26	C	-0.550664	1.518131	0.506157
C27	C	-0.633210	1.518173	0.506185
C28	C	-0.832664	1.448083	0.576332
C29	C	-0.882113	1.422469	0.480464
C30	C	-0.784340	1.518276	0.506198
C31	C	-0.881973	1.543942	0.602078
C32	C	-0.930325	1.518374	0.506220
C33	C	-0.832701	1.492611	0.410279
C34	C	-0.832557	1.614129	0.531958
C35	C	-0.881983	1.588551	0.436023
C36	C	-0.700242	1.518217	0.506187
C37	C	-1.014422	1.518433	0.506220
C38	C	-0.164006	1.518414	0.506215
C39	C	-0.081460	1.518480	0.506232
C40	C	-0.357637	1.518331	0.780208
C41	C	-0.357605	1.518363	0.896985
C42	C	-0.357726	1.792291	0.506195
C43	C	-0.357732	1.909068	0.506203
C44	C	-0.357733	1.518245	0.233207
C45	C	-0.357555	1.518417	0.116431
C46	C	-0.310105	1.585606	0.951863
C47	C	-0.310078	1.585631	1.061588
C48	C	-0.405058	1.451166	1.061545
C49	C	-0.405080	1.451136	0.951823
C50	C	-0.255271	1.663242	0.951889
C51	C	-0.255244	1.663267	1.061613
H52	H	-0.514606	0.929762	0.390181
H53	H	-0.271672	0.919357	0.628322
H54	H	-0.270649	1.744633	1.091393
O55	O	-0.441516	0.928059	0.264200
C56	C	-0.441546	0.817557	0.264409
H57	H	-0.478330	0.787922	0.330687
H58	H	-0.463724	0.787594	0.186270
H59	H	-0.382611	0.787801	0.276438
O60	O	-0.806858	1.377027	0.646871
C61	C	-0.832128	1.276126	0.619336
H62	H	-0.846023	1.274201	0.532191
H63	H	-0.786991	1.216151	0.636800
H64	H	-0.883804	1.256434	0.666753
H65	H	-0.275889	1.740507	0.917855
O66	O	-0.907576	1.659546	0.365270
C67	C	-0.881228	1.760184	0.391727
H68	H	-0.828934	1.752528	0.441264
H69	H	-0.868004	1.805564	0.317091
H70	H	-0.925440	1.803837	0.438216
H71	H	-0.903897	1.341455	0.458696
H72	H	-0.197757	1.641493	0.922131
O73	O	-0.190051	1.628420	1.102110
C74	C	-0.177023	1.524978	1.067895
H75	H	-0.209233	1.509940	0.992495
H76	H	-0.115301	1.513803	1.052685
H77	H	-0.195999	1.467547	1.130836
H78	H	-0.271656	1.118419	0.628306
O79	O	-0.528537	1.108987	0.387164
C80	C	-0.547580	1.072085	0.487756
H81	H	-0.494992	1.052637	0.533266
H82	H	-0.580003	1.135158	0.531315
H83	H	-0.583143	0.998621	0.480028
H84	H	-0.439254	1.107540	0.283903
O85	O	-0.806870	1.466615	0.313602
C86	C	-0.728764	1.466859	0.314763
H87	H	-0.708290	1.455116	0.398472
H88	H	-0.707265	1.400598	0.263131
H89	H	-0.707579	1.545058	0.283624
O90	O	-0.806599	1.710722	0.558161
C91	C	-0.831672	1.737440	0.659333
H92	H	-0.845575	1.662975	0.704596
H93	H	-0.786413	1.782502	0.702459
H94	H	-0.883302	1.788449	0.652755
H95	H	-0.443757	1.396376	0.907144
O96	O	-0.907706	1.569677	0.698877
C97	C	-0.882593	1.495396	0.772547
H98	H	-0.830634	1.455358	0.741374
H99	H	-0.869219	1.536536	0.849598
H100	H	-0.927616	1.434232	0.786241
H101	H	-0.443709	1.396430	1.106207
