data_functionalizedCrystal
_audit_creation_method	'MofGen! by Chris Wilmer'
_symmetry_space_group_name_H-M	'P1'
_symmetry_Int_Tables_number	1
_symmetry_cell_setting	triclinic
loop_
_symmetry_equiv_pos_as_xyz
  x,y,z
_cell_length_a	13.033293
_cell_length_b	21.295417
_cell_length_c	13.033429
_cell_angle_alpha	82.776125
_cell_angle_beta	90.866667
_cell_angle_gamma	97.198682
loop_
_atom_site_label
_atom_site_type_symbol
_atom_site_fract_x
_atom_site_fract_y
_atom_site_fract_z
Zn1	Zn	1.498510	-0.076237	-0.781517
Zn2	Zn	1.520199	-0.193025	-0.609510
Zn3	Zn	1.348344	-0.102580	-0.587675
Zn4	Zn	1.326462	-0.196302	-0.759559
O5	O	1.423379	-0.142036	-0.684565
O6	O	1.645311	-0.079333	-0.777027
O7	O	1.515636	-0.190680	-0.462695
O8	O	1.368344	-0.010986	-0.613440
O9	O	1.661246	-0.165137	-0.650655
O10	O	1.478671	0.008368	-0.755854
O11	O	1.389375	-0.124230	-0.446652
O12	O	1.201517	-0.127408	-0.592148
O13	O	1.331051	-0.170722	-0.906391
O14	O	1.185440	-0.196266	-0.718431
O15	O	1.457453	-0.082510	-0.922523
O16	O	1.494419	-0.281559	-0.629364
O17	O	1.352081	-0.283967	-0.739604
C18	C	1.156160	-0.165051	-0.650538
C19	C	1.041840	-0.174911	-0.636006
C20	C	0.982976	-0.136906	-0.692150
C21	C	0.864820	-0.147095	-0.677131
C22	C	1.423254	-0.305602	-0.684497
C23	C	1.423291	-0.375566	-0.684514
C24	C	1.480694	-0.398298	-0.758711
C25	C	1.480727	-0.464036	-0.758741
C26	C	1.423370	-0.507039	-0.684557
C27	C	1.365954	-0.484301	-0.610353
C28	C	1.365915	-0.418564	-0.610331
N29	N	1.427026	-0.616992	-0.593564
N30	N	1.427069	-0.679438	-0.593588
C31	C	1.423484	-0.705101	-0.684618
N32	N	1.419874	-0.665956	-0.775628
N33	N	1.419836	-0.603503	-0.775603
C34	C	1.423406	-0.578321	-0.684572
C35	C	1.480926	-0.799112	-0.758854
C36	C	1.480952	-0.864851	-0.758885
C37	C	1.366186	-0.885115	-0.610488
C38	C	1.366153	-0.819377	-0.610466
C39	C	1.423529	-0.776379	-0.684648
C40	C	1.691640	-0.118931	-0.718726
C41	C	1.805957	-0.109085	-0.733283
C42	C	1.389392	-0.124043	-0.952817
C43	C	1.374909	-0.116376	-1.067130
C44	C	1.423529	0.022173	-0.684660
C45	C	1.423593	0.092149	-0.684701
C46	C	1.415961	-0.137920	-1.244177
C47	C	1.430930	-0.145841	-1.126029
C48	C	1.457292	-0.159908	-0.417365
C49	C	1.471975	-0.167381	-0.303078
H50	H	1.004762	-0.214991	-0.576818
H51	H	1.319251	-0.519319	-0.549953
Br52	Br	1.558555	-0.339946	-0.859391
H53	H	1.531017	-0.198465	-1.266036
H54	H	1.319477	-0.920129	-0.550092
Br55	Br	1.558845	-0.895703	-0.859605
Br56	Br	1.558788	-0.740754	-0.859529
H57	H	1.315871	-0.085283	-1.104167
H58	H	0.843031	-0.068997	-0.792468
Br59	Br	1.529348	-0.197653	-1.064307
Br60	Br	1.044765	-0.070095	-0.790795
Br61	Br	1.558643	-0.494895	-0.859440
H62	H	1.319415	-0.800868	-0.550044
H63	H	0.827746	-0.187178	-0.617939
Br64	Br	1.288000	-0.387712	-0.509630
H65	H	1.356927	-0.106830	-1.281220
