data_functionalizedCrystal
_audit_creation_method	'MofGen! by Chris Wilmer'
_symmetry_space_group_name_H-M	'P1'
_symmetry_Int_Tables_number	1
_symmetry_cell_setting	triclinic
loop_
_symmetry_equiv_pos_as_xyz
  x,y,z
_cell_length_a	6.817900
_cell_length_b	9.582860
_cell_length_c	11.102247
_cell_angle_alpha	90.975190
_cell_angle_beta	108.604923
_cell_angle_gamma	111.206767
loop_
_atom_site_label
_atom_site_type_symbol
_atom_site_fract_x
_atom_site_fract_y
_atom_site_fract_z
V1	V	-4.125319	-0.207061	-0.396024
O2	O	-4.069892	0.009944	-0.388725
O3	O	-4.115656	-0.410562	-0.393085
O4	O	-4.101885	-0.203879	-0.568849
O5	O	-4.083759	-0.198170	-0.211744
V6	V	-4.600693	-0.181105	-0.374011
O7	O	-4.404454	-0.264000	-0.444312
O8	O	-4.771755	-0.124167	-0.325723
O9	O	-4.387150	0.022396	-0.376950
O10	O	-4.773516	-0.398110	-0.381310
O11	O	-4.759650	-0.189996	-0.558290
O12	O	-4.400921	-0.184287	-0.201186
C13	C	-3.969272	-0.460171	-0.386778
C14	C	-4.042824	-0.626536	-0.385527
C15	C	-3.951704	-0.196524	-0.610981
C16	C	-4.014084	-0.195269	-0.752264
C17	C	-4.171309	-0.330537	-0.969396
C18	C	-4.112694	-0.331725	-0.836646
C19	C	-3.974067	-0.057615	-0.800638
C20	C	-4.032668	-0.056428	-0.933386
C21	C	-4.269941	-0.467004	-1.053773
C22	C	-4.309958	-0.604658	-1.005408
C23	C	-4.251343	-0.605846	-0.872658
C24	C	-4.152710	-0.469379	-0.788272
C25	C	-4.196876	0.071997	-0.383253
C26	C	-4.102564	0.238360	-0.384512
C27	C	-4.214443	-0.191647	-0.159047
C28	C	-4.131300	-0.192895	-0.017762
H29	H	-4.317678	-0.466052	-1.161866
H30	H	-4.390248	-0.715763	-1.074122
O31	O	-3.994150	0.077295	-0.980334
C32	C	-4.112941	0.153299	-0.943067
H33	H	-4.259899	0.067821	-0.921391
H34	H	-4.178909	0.213847	-1.024271
H35	H	-3.996077	0.239685	-0.853407
H36	H	-4.283909	-0.717929	-0.833283
O37	O	-4.096016	-0.470806	-0.659357
C38	C	-4.152426	-0.621555	-0.634756
H39	H	-4.289508	-0.701075	-0.723702
H40	H	-4.215731	-0.634656	-0.550495
H41	H	-3.997659	-0.650836	-0.610177
O42	O	-3.878354	0.074798	-0.718496
C43	C	-3.835167	0.044235	-0.590957
H44	H	-3.950807	-0.076308	-0.590550
H45	H	-3.866917	0.127329	-0.532454
H46	H	-3.652859	0.056972	-0.546737
