data_functionalizedCrystal
_audit_creation_method	'MofGen! by Chris Wilmer'
_symmetry_space_group_name_H-M	'P1'
_symmetry_Int_Tables_number	1
_symmetry_cell_setting	triclinic
loop_
_symmetry_equiv_pos_as_xyz
  x,y,z
_cell_length_a	17.019383
_cell_length_b	17.038272
_cell_length_c	16.098662
_cell_angle_alpha	92.863855
_cell_angle_beta	96.938036
_cell_angle_gamma	87.246883
loop_
_atom_site_label
_atom_site_type_symbol
_atom_site_fract_x
_atom_site_fract_y
_atom_site_fract_z
O1	O	1.060395	0.106165	0.145230
O2	O	0.830787	0.118117	0.128781
O3	O	0.944226	-0.001678	0.136901
O4	O	0.946956	0.225960	0.137110
O5	O	0.937477	-0.007909	-0.002094
O6	O	0.824038	0.111886	-0.010214
O7	O	1.053646	0.099935	0.006235
Zn8	Zn	0.937770	0.104921	-0.024058
Zn9	Zn	0.946662	0.113130	0.159074
O10	O	0.940207	0.219729	-0.001885
C11	C	0.797888	0.114423	0.057168
C12	C	0.709916	0.112692	0.050866
C13	C	0.672258	0.115276	0.123665
C14	C	0.589598	0.113661	0.117731
C15	C	0.544598	0.109456	0.038997
C16	C	0.582261	0.106874	-0.033807
C17	C	0.664920	0.108495	-0.027872
C18	C	0.294838	0.104398	0.017288
C19	C	0.212174	0.102775	0.011358
C20	C	0.219517	0.109564	0.162897
C21	C	0.302177	0.111180	0.168825
C22	C	0.339833	0.108602	0.096020
C23	C	0.460105	0.107803	0.032930
C24	C	0.424323	0.110261	0.102089
C25	C	0.938369	-0.033928	0.067226
C26	C	0.930963	-0.120738	0.066695
C27	C	0.998959	-0.170689	0.071566
C28	C	0.991996	-0.252256	0.071075
C29	C	0.917036	-0.283871	0.065708
C30	C	0.849035	-0.233914	0.060840
C31	C	0.855999	-0.152348	0.061336
C32	C	0.892433	-0.529688	0.063957
C33	C	0.885474	-0.611260	0.063457
C34	C	1.028435	-0.629596	0.073694
C35	C	1.035392	-0.548028	0.074186
C36	C	0.967392	-0.498078	0.069322
C37	C	0.909917	-0.367245	0.065203
C38	C	0.974512	-0.414705	0.069833
C39	C	1.086544	0.103628	0.077849
C40	C	1.174516	0.105360	0.084157
C41	C	0.946064	0.251979	0.067792
C42	C	0.953470	0.338790	0.068328
N43	N	0.931707	0.099318	-0.149039
C44	C	0.903655	0.073144	-0.675861
C45	C	0.907893	0.077094	-0.588370
C46	C	0.961203	0.126632	-0.540963
C47	C	1.010284	0.172216	-0.581052
C48	C	1.006050	0.168262	-0.668542
C49	C	0.976554	0.140948	-0.276618
C50	C	0.980783	0.144901	-0.189123
C51	C	0.878393	0.049777	-0.196446
C52	C	0.874159	0.045830	-0.283937
C53	C	0.923243	0.091412	-0.324018
C54	C	0.965535	0.130672	-0.451533
C55	C	0.918915	0.087367	-0.413447
N56	N	0.952731	0.118727	0.284056
H57	H	0.558941	0.115766	0.177012
N58	N	0.819693	-0.004763	-0.332355
N59	N	0.747033	0.004839	-0.327834
H60	H	0.708562	-0.030891	-0.362028
N61	N	0.772458	-0.266193	0.055341
N62	N	0.711754	-0.221583	0.050987
H63	H	0.657668	-0.244378	0.047098
H64	H	0.545615	0.103455	-0.097914
N65	N	0.828263	0.003226	-0.155490
N66	N	0.832047	0.006762	-0.077375
H67	H	0.796642	-0.026118	-0.048449
H68	H	0.188848	0.111665	0.222170
N69	N	0.166218	0.098476	-0.069077
N70	N	0.199847	0.096174	-0.134074
H71	H	0.167391	0.093136	-0.190880
H72	H	1.024193	0.185246	-0.150527
N73	N	0.857743	0.030543	-0.547440
N74	N	0.810134	-0.013668	-0.589777
H75	H	0.774706	-0.046542	-0.560873
H76	H	0.338812	0.114598	0.232938
N77	N	1.026685	0.187531	-0.317531
N78	N	1.022569	0.260819	-0.308098
H79	H	1.057977	0.293725	-0.336991
H80	H	1.083797	-0.670273	0.077656
H81	H	0.800630	-0.111679	0.057371
N82	N	0.333285	0.101744	-0.057086
N83	N	0.293095	0.097974	-0.127376
H84	H	0.320250	0.096091	-0.179907
N85	N	1.064742	0.222807	-0.532618
N86	N	1.068516	0.226333	-0.454504
H87	H	1.106977	0.262065	-0.420297
N88	N	0.703375	0.105872	-0.102243
N89	N	0.663189	0.102127	-0.172537
H90	H	0.690346	0.100283	-0.225064
N91	N	0.414135	0.103514	-0.047492
N92	N	0.363610	0.156923	-0.067961
H93	H	0.331141	0.153896	-0.124759
N94	N	0.470299	0.114545	0.182504
N95	N	0.520825	0.061134	0.202960
H96	H	0.553303	0.064156	0.259754
N97	N	0.808894	-0.643543	0.057958
N98	N	0.748185	-0.598938	0.053607
H99	H	0.694102	-0.621738	0.049717
H100	H	1.059998	-0.144955	0.075931
H101	H	0.875513	0.047031	-0.452048
H102	H	1.047365	-0.292923	0.075039
H103	H	0.860240	0.032809	-0.714453
H104	H	1.046013	0.205380	-0.701176
N105	N	1.051072	-0.382401	0.075304
N106	N	1.068048	-0.341558	0.018131
H107	H	1.122118	-0.318736	0.021992
N108	N	1.019996	0.181257	-0.403096
N109	N	1.072630	0.153057	-0.350658
H110	H	1.111096	0.188777	-0.316442
N111	N	1.111969	-0.515749	0.079668
N112	N	1.172675	-0.560358	0.084017
H113	H	1.226758	-0.537562	0.087887
H114	H	0.708892	0.118698	0.187778
N115	N	0.822967	-0.478684	0.058982
N116	N	0.756045	-0.506925	0.054184
H117	H	0.706979	-0.470901	0.050667
N118	N	0.833356	-0.399559	0.059704
N119	N	0.810692	-0.445665	-0.000306
H120	H	0.756621	-0.468491	-0.004189
