data_functionalizedCrystal
_audit_creation_method	'MofGen! by Chris Wilmer'
_symmetry_space_group_name_H-M	'P1'
_symmetry_Int_Tables_number	1
_symmetry_cell_setting	triclinic
loop_
_symmetry_equiv_pos_as_xyz
  x,y,z
_cell_length_a	19.077105
_cell_length_b	15.297327
_cell_length_c	19.076919
_cell_angle_alpha	101.510342
_cell_angle_beta	90.076224
_cell_angle_gamma	97.818066
loop_
_atom_site_label
_atom_site_type_symbol
_atom_site_fract_x
_atom_site_fract_y
_atom_site_fract_z
Zn1	Zn	0.997096	-0.436205	-0.496821
Zn2	Zn	1.330430	-0.102872	-0.163488
Zn3	Zn	1.663763	0.230461	0.169846
Zn4	Zn	0.981405	-0.581179	-0.398060
Zn5	Zn	1.314738	-0.247846	-0.064727
Zn6	Zn	1.648071	0.085487	0.268607
Zn7	Zn	0.886008	-0.424127	-0.373052
Zn8	Zn	1.219341	-0.090793	-0.039719
Zn9	Zn	1.552675	0.242540	0.293614
Zn10	Zn	0.859303	-0.580636	-0.510742
Zn11	Zn	1.192636	-0.247302	-0.177409
Zn12	Zn	1.525969	0.086031	0.155924
O13	O	0.930953	-0.505537	-0.444669
O14	O	1.264286	-0.172203	-0.111336
O15	O	1.597620	0.161130	0.221998
O16	O	1.092606	-0.460719	-0.488360
O17	O	1.425939	-0.127386	-0.155026
O18	O	1.759272	0.205948	0.178307
O19	O	0.973359	-0.555519	-0.295787
O20	O	1.306693	-0.222185	0.037546
O21	O	1.640026	0.111148	0.370880
O22	O	0.918487	-0.299557	-0.373179
O23	O	1.251821	0.033776	-0.039846
O24	O	1.585154	0.367110	0.293488
O25	O	1.081077	-0.567231	-0.415800
O26	O	1.414411	-0.233898	-0.082467
O27	O	1.747744	0.099436	0.250866
O28	O	1.000103	-0.308431	-0.464111
O29	O	1.333437	0.024902	-0.130778
O30	O	1.666770	0.358235	0.202556
O31	O	0.903272	-0.440133	-0.277414
O32	O	1.236605	-0.106799	0.055919
O33	O	1.569939	0.226534	0.389252
O34	O	0.784875	-0.439605	-0.386678
O35	O	1.118208	-0.106272	-0.053344
O36	O	1.451541	0.227061	0.279989
O37	O	0.872972	-0.566304	-0.607851
O38	O	1.206305	-0.232971	-0.274518
O39	O	1.539639	0.100363	0.058816
O40	O	0.765254	-0.554592	-0.487838
O41	O	1.098588	-0.221259	-0.154504
O42	O	1.431921	0.112075	0.178829
O43	O	0.974208	-0.460192	-0.597623
O44	O	1.307542	-0.126858	-0.264290
O45	O	1.640875	0.206475	0.069044
O46	O	0.947464	-0.707279	-0.429299
O47	O	1.280798	-0.373946	-0.095966
O48	O	1.614131	-0.040612	0.237367
O49	O	0.857757	-0.706880	-0.512086
O50	O	1.191090	-0.373546	-0.178753
O51	O	1.524423	-0.040213	0.154580
C52	C	0.749760	-0.495730	-0.436055
C53	C	1.083093	-0.162396	-0.102722
C54	C	1.416427	0.170937	0.230611
C55	C	0.672241	-0.491557	-0.432390
C56	C	1.005574	-0.158223	-0.099057
C57	C	1.338908	0.175110	0.234277
C58	C	0.898028	-0.739796	-0.474933
C59	C	1.231361	-0.406463	-0.141600
C60	C	1.564695	-0.073129	0.191733
C61	C	0.884005	-0.840018	-0.487907
C62	C	1.217339	-0.506684	-0.154574
C63	C	1.550672	-0.173351	0.178759
C64	C	0.625617	-0.549547	-0.483277
C65	C	0.958950	-0.216214	-0.149943
C66	C	1.292284	0.117120	0.183390
C67	C	0.552781	-0.545614	-0.479834
C68	C	0.886114	-0.212281	-0.146501
C69	C	1.219448	0.121053	0.186832
C70	C	0.526571	-0.483695	-0.425502
C71	C	0.859904	-0.150362	-0.092169
C72	C	1.193237	0.182972	0.241165
C73	C	0.573201	-0.425698	-0.374613
C74	C	0.906534	-0.092365	-0.041279
C75	C	1.239868	0.240968	0.292054
C76	C	0.646036	-0.429627	-0.378058
C77	C	0.979369	-0.096294	-0.044725
C78	C	1.312702	0.237039	0.288608
C79	C	0.309833	-0.465511	-0.409558
C80	C	0.643167	-0.132178	-0.076225
C81	C	0.976500	0.201155	0.257109
C82	C	0.236992	-0.461589	-0.406115
C83	C	0.570326	-0.128255	-0.072782
C84	C	0.903659	0.205078	0.260552
C85	C	0.216578	-0.581504	-0.511338
C86	C	0.549911	-0.248170	-0.178005
C87	C	0.883245	0.085163	0.155329
C88	C	0.289415	-0.585431	-0.514776
C89	C	0.622748	-0.252097	-0.181443
C90	C	0.956081	0.081236	0.151890
C91	C	0.336039	-0.527431	-0.463889
C92	C	0.669372	-0.194098	-0.130556
C93	C	1.002705	0.139236	0.202777
N94	N	0.452121	-0.479676	-0.421981
N95	N	0.785454	-0.146342	-0.088648
N96	N	1.118787	0.186991	0.244686
N97	N	0.410488	-0.531447	-0.467414
N98	N	0.743821	-0.198113	-0.134081
N99	N	1.077154	0.135220	0.199253
C100	C	1.031451	-1.123247	-0.352197
C101	C	1.364785	-0.789914	-0.018863
C102	C	1.698118	-0.456580	0.314470
C103	C	1.044626	-1.029084	-0.340004
C104	C	1.377959	-0.695750	-0.006670
C105	C	1.711293	-0.362417	0.326663
C106	C	1.004472	-0.981812	-0.376979
C107	C	1.337806	-0.648479	-0.043645
C108	C	1.671139	-0.315146	0.289688
C109	C	0.951141	-1.028714	-0.426149
C110	C	1.284474	-0.695381	-0.092815
C111	C	1.617808	-0.362047	0.240518
C112	C	0.937961	-1.122886	-0.438339
C113	C	1.271294	-0.789553	-0.105006
C114	C	1.604628	-0.456220	0.228328
C115	C	0.910982	-0.981452	-0.463121
C116	C	1.244316	-0.648119	-0.129788
C117	C	1.577649	-0.314785	0.203546
C118	C	0.857651	-1.028353	-0.512291
C119	C	1.190984	-0.695020	-0.178958
C120	C	1.524318	-0.361687	0.154376
C121	C	0.844474	-1.122517	-0.524480
C122	C	1.177807	-0.789183	-0.191146
C123	C	1.511141	-0.455850	0.142187
C124	C	0.884628	-1.169788	-0.487505
C125	C	1.217961	-0.836454	-0.154171
C126	C	1.551294	-0.503121	0.179162
C127	C	0.924162	-0.887280	-0.450930
C128	C	1.257495	-0.553946	-0.117597
C129	C	1.590829	-0.220613	0.215736
C130	C	0.830672	-0.886919	-0.537073
C131	C	1.164005	-0.553586	-0.203739
C132	C	1.497339	-0.220252	0.129594
C133	C	0.817497	-0.981082	-0.549266
C134	C	1.150831	-0.647749	-0.215933
C135	C	1.484164	-0.314416	0.117401
C136	C	1.112853	-0.515383	-0.453317
C137	C	1.446187	-0.182050	-0.119983
C138	C	1.779520	0.151284	0.213350
C139	C	1.190368	-0.519579	-0.457002
C140	C	1.523702	-0.186245	-0.123668
C141	C	1.857035	0.147088	0.209665
C142	C	0.922362	-0.514535	-0.629112
C143	C	1.255695	-0.181201	-0.295779
C144	C	1.589028	0.152132	0.037554
C145	C	0.918700	-0.518369	-0.707711
C146	C	1.252034	-0.185036	-0.374378
C147	C	1.585367	0.148298	-0.041045
C148	C	0.964025	-0.270365	-0.414303
C149	C	1.297358	0.062969	-0.080969
C150	C	1.630691	0.396302	0.252364
C151	C	0.978118	-0.170148	-0.401362
C152	C	1.311451	0.163185	-0.068029
C153	C	1.644784	0.496518	0.265304
C154	C	0.969686	-0.464926	-0.739314
C155	C	1.303019	-0.131592	-0.405980
C156	C	1.636353	0.201741	-0.072647
C157	C	0.966238	-0.468525	-0.813165
C158	C	1.299571	-0.135191	-0.479831
C159	C	1.632905	0.198142	-0.146498
C160	C	0.911807	-0.525572	-0.855413
C161	C	1.245140	-0.192239	-0.522080
C162	C	1.578473	0.141095	-0.188747
C163	C	0.860816	-0.579017	-0.823806
C164	C	1.194149	-0.245684	-0.490473
C165	C	1.527483	0.087649	-0.157139
C166	C	0.864262	-0.575413	-0.749955
C167	C	1.197595	-0.242080	-0.416622
C168	C	1.530928	0.091254	-0.083289
C169	C	0.895847	-0.542271	-1.076853
C170	C	1.229180	-0.208938	-0.743520
C171	C	1.562514	0.124396	-0.410187
C172	C	0.892406	-0.545873	-1.150709
C173	C	1.225740	-0.212540	-0.817376
C174	C	1.559073	0.120793	-0.484043
C175	C	0.997828	-0.435379	-1.140063
C176	C	1.331161	-0.102046	-0.806729
C177	C	1.664495	0.231288	-0.473396
C178	C	1.001271	-0.431784	-1.066212
C179	C	1.334605	-0.098450	-0.732878
C180	C	1.667938	0.234883	-0.399545
C181	C	0.950279	-0.485225	-1.034610
C182	C	1.283612	-0.151892	-0.701277
C183	C	1.616945	0.181441	-0.367944
N184	N	0.908282	-0.529254	-0.930901
N185	N	1.241616	-0.195921	-0.597568
N186	N	1.574949	0.137413	-0.264235
N187	N	0.953801	-0.481538	-0.959123
N188	N	1.287134	-0.148205	-0.625789
N189	N	1.620467	0.185129	-0.292456
C190	C	0.939560	-0.496511	-0.260936
C191	C	1.272893	-0.163178	0.072397
C192	C	1.606227	0.170156	0.405730
C193	C	0.943392	-0.492430	-0.182311
C194	C	1.276725	-0.159097	0.151022
C195	C	1.610059	0.174237	0.484355
H196	H	0.646951	-0.599971	-0.527518
H197	H	0.980284	-0.266638	-0.194185
H198	H	1.313617	0.066695	0.139149
Cl199	Cl	0.823970	-0.617590	-1.203820
Cl200	Cl	1.157303	-0.284257	-0.870487
Cl201	Cl	1.490637	0.049076	-0.537154
H202	H	0.816495	-0.625463	-0.858210
H203	H	1.149828	-0.292130	-0.524877
H204	H	1.483161	0.041204	-0.191543
H205	H	1.064135	-1.161743	-0.322093
H206	H	1.397468	-0.828410	0.011241
H207	H	1.730801	-0.495077	0.344574
Cl208	Cl	0.800161	-0.642599	-0.710226
Cl209	Cl	1.133494	-0.309265	-0.376893
Cl210	Cl	1.466828	0.024068	-0.043560
Cl211	Cl	0.867798	-1.288139	-0.502531
Cl212	Cl	1.201131	-0.954806	-0.169197
Cl213	Cl	1.534465	-0.621473	0.164136
H214	H	0.967585	-0.849101	-0.410896
H215	H	1.300918	-0.515767	-0.077562
H216	H	1.634251	-0.182434	0.255771
Cl217	Cl	1.061927	-0.368196	-1.179794
Cl218	Cl	1.395260	-0.034863	-0.846461
Cl219	Cl	1.728593	0.298471	-0.513127
H220	H	1.007757	-0.425008	-0.838892
H221	H	1.341091	-0.091674	-0.505558
H222	H	1.674424	0.241659	-0.172225
Cl223	Cl	0.494170	-0.618520	-0.543810
Cl224	Cl	0.827503	-0.285187	-0.210476
Cl225	Cl	1.160837	0.048147	0.122857
Cl226	Cl	0.322359	-0.663278	-0.583081
Cl227	Cl	0.655692	-0.329944	-0.249748
Cl228	Cl	0.989026	0.003389	0.083585
Cl229	Cl	0.157961	-0.654414	-0.575305
Cl230	Cl	0.491295	-0.321080	-0.241972
Cl231	Cl	0.824628	0.012253	0.091361
H232	H	0.215656	-0.411156	-0.361874
H233	H	0.548990	-0.077823	-0.028541
H234	H	0.882323	0.255510	0.304793
Cl235	Cl	0.368438	-0.392594	-0.345587
Cl236	Cl	0.701771	-0.059261	-0.012253
Cl237	Cl	1.035104	0.274072	0.321080
H238	H	0.551855	-0.375279	-0.330377
H239	H	0.885188	-0.041945	0.002957
H240	H	1.218522	0.291388	0.336290
H241	H	0.683998	-0.382401	-0.336624
H242	H	1.017331	-0.049068	-0.003291
H243	H	1.350664	0.284266	0.330043
H244	H	1.015202	-0.905140	-0.367047
H245	H	1.348535	-0.571807	-0.033714
H246	H	1.681868	-0.238474	0.299620
Cl247	Cl	0.831741	-0.609456	-1.037136
Cl248	Cl	1.165075	-0.276123	-0.703802
Cl249	Cl	1.498408	0.057211	-0.370469
H250	H	1.088047	-0.990900	-0.299969
H251	H	1.421380	-0.657566	0.033364
H252	H	1.754714	-0.324233	0.366698
Cl253	Cl	0.777426	-1.181476	-0.586290
Cl254	Cl	1.110759	-0.848143	-0.252957
Cl255	Cl	1.444093	-0.514809	0.080376
H256	H	1.045597	-0.385332	-1.031818
H257	H	1.378930	-0.051999	-0.698485
H258	H	1.712263	0.281334	-0.365151
Cl259	Cl	0.750454	-1.040055	-0.611078
Cl260	Cl	1.083787	-0.706722	-0.277744
Cl261	Cl	1.417121	-0.373388	0.055589
Cl262	Cl	0.780186	-0.827499	-0.583554
Cl263	Cl	1.113519	-0.494166	-0.250220
Cl264	Cl	1.446852	-0.160832	0.083113
H265	H	1.014012	-0.418475	-0.704920
H266	H	1.347345	-0.085141	-0.371587
H267	H	1.680679	0.248192	-0.038253
