data_functionalizedCrystal
_audit_creation_method	'MofGen! by Chris Wilmer'
_symmetry_space_group_name_H-M	'P1'
_symmetry_Int_Tables_number	1
_symmetry_cell_setting	triclinic
loop_
_symmetry_equiv_pos_as_xyz
  x,y,z
_cell_length_a	6.394989
_cell_length_b	17.699104
_cell_length_c	16.176319
_cell_angle_alpha	89.991696
_cell_angle_beta	90.003737
_cell_angle_gamma	95.105386
loop_
_atom_site_label
_atom_site_type_symbol
_atom_site_fract_x
_atom_site_fract_y
_atom_site_fract_z
O1	O	-0.264339	1.006766	-0.068758
O2	O	-0.298658	0.786740	-0.068755
O3	O	0.022581	0.899876	-0.068757
O4	O	-0.585578	0.893630	-0.068756
O5	O	0.022601	0.899860	0.068736
O6	O	-0.298637	0.786724	0.068738
O7	O	-0.264319	1.006750	0.068735
Cu8	Cu	-0.281476	0.896736	0.081291
Cu9	Cu	-0.281500	0.896755	-0.081311
O10	O	-0.585558	0.893614	0.068737
C11	C	-0.297411	0.758523	-0.000009
C12	C	-0.293699	0.674468	-0.000008
N13	N	-0.281458	0.896728	0.195656
C14	C	-0.461329	0.151308	-0.000016
C15	C	-0.464804	0.230287	-0.000018
C16	C	-0.276225	0.276980	-0.000019
C17	C	-0.084158	0.244690	-0.000025
C18	C	-0.080686	0.165712	-0.000028
C19	C	-0.098158	0.563199	-0.000012
C20	C	-0.101645	0.642182	-0.000006
C21	C	-0.482276	0.627773	-0.000002
C22	C	-0.478804	0.548796	-0.000005
C23	C	-0.286739	0.516513	-0.000016
C24	C	-0.282973	0.430874	-0.000015
C25	C	-0.279988	0.362617	-0.000014
C26	C	0.100407	0.898633	-0.000014
C27	C	0.336623	0.894859	-0.000015
C28	C	-0.265566	1.034968	-0.000014
C29	C	-0.269277	1.119023	-0.000020
N30	N	-0.281502	0.896769	-0.195676
C31	C	-0.139271	0.946840	0.238919
C32	C	-0.139269	0.946844	0.325466
C33	C	-0.281465	0.896739	0.368749
C34	C	-0.423658	0.846620	0.325479
C35	C	-0.423649	0.846613	0.238934
C36	C	-0.423698	0.846647	0.674507
C37	C	-0.423700	0.846659	0.761059
C38	C	-0.139318	0.946878	0.761040
C39	C	-0.139308	0.946871	0.674495
C40	C	-0.281493	0.896750	0.631233
C41	C	-0.281491	0.896746	0.537389
C42	C	-0.281479	0.896746	0.462591
H43	H	-0.614893	0.113295	-0.000010
Cl44	Cl	-0.706252	0.270870	-0.000018
H45	H	0.051929	0.680198	-0.000008
H46	H	-0.632365	0.510781	-0.000001
H47	H	-0.638665	0.654067	0.000003
H48	H	0.058233	0.536924	-0.000018
H49	H	0.069386	0.282714	-0.000030
Cl50	Cl	0.039491	1.009838	0.184517
Cl51	Cl	0.160761	0.125126	-0.000033
H52	H	-0.539429	0.805806	0.203709
Cl53	Cl	0.039485	1.009843	0.379856
H54	H	-0.539430	0.805819	0.360724
H55	H	-0.023526	0.987674	0.639257
Cl56	Cl	0.039441	1.009885	0.815431
H57	H	-0.539497	0.805854	0.796298
Cl58	Cl	-0.602447	0.783643	0.620127
