data_functionalizedCrystal
_audit_creation_method	'MofGen! by Chris Wilmer'
_symmetry_space_group_name_H-M	'P1'
_symmetry_Int_Tables_number	1
_symmetry_cell_setting	triclinic
loop_
_symmetry_equiv_pos_as_xyz
  x,y,z
_cell_length_a	23.532407
_cell_length_b	23.532407
_cell_length_c	8.965430
_cell_angle_alpha	90.004227
_cell_angle_beta	89.998440
_cell_angle_gamma	82.848678
loop_
_atom_site_label
_atom_site_type_symbol
_atom_site_fract_x
_atom_site_fract_y
_atom_site_fract_z
O1	O	0.755259	0.069131	0.123868
O2	O	0.589396	0.079134	0.123914
O3	O	0.677329	-0.008800	0.123862
O4	O	0.667326	0.157064	0.123920
O5	O	0.677322	-0.008794	-0.124216
O6	O	0.589389	0.079140	-0.124165
O7	O	0.755252	0.069136	-0.124211
Cu8	Cu	0.672320	0.074139	-0.146839
Cu9	Cu	0.672328	0.074132	0.146543
O10	O	0.667319	0.157070	-0.124159
C11	C	0.568176	0.078882	-0.000120
C12	C	0.504959	0.078116	-0.000104
C13	C	0.677071	-0.030013	-0.000181
C14	C	0.676305	-0.093230	-0.000192
C15	C	0.723539	-0.492333	-0.000123
C16	C	0.722827	-0.551733	-0.000112
O17	O	0.766613	-0.588478	-0.000069
N18	N	0.670551	-0.574359	-0.000098
C19	C	0.618983	-0.537582	-0.000081
O20	O	0.574452	-0.562281	-0.000067
C21	C	0.619695	-0.478182	-0.000082
C22	C	0.671974	-0.455560	-0.000111
C23	C	0.775814	-0.469710	-0.000150
C24	C	0.776525	-0.410313	-0.000164
C25	C	0.724961	-0.373540	-0.000152
C26	C	0.672685	-0.396164	-0.000125
C27	C	0.568127	-0.441406	-0.000054
C28	C	0.568844	-0.382004	-0.000054
C29	C	0.621123	-0.359381	-0.000083
C30	C	0.621832	-0.299995	-0.000127
N31	N	0.674109	-0.277368	-0.000140
C32	C	0.725673	-0.314141	-0.000153
C33	C	0.617491	-0.662324	-0.000077
C34	C	0.616778	-0.721722	-0.000087
C35	C	0.720623	-0.735869	-0.000114
C36	C	0.721335	-0.676470	-0.000115
C37	C	0.669767	-0.639698	-0.000090
C38	C	0.727163	-0.189405	-0.000184
C39	C	0.727869	-0.130003	-0.000205
C40	C	0.624025	-0.115860	-0.000169
C41	C	0.623318	-0.175257	-0.000156
C42	C	0.674891	-0.212029	-0.000159
O43	O	0.578070	-0.263215	-0.000164
O44	O	0.770196	-0.289433	-0.000147
C45	C	0.105856	0.125350	-0.000155
C46	C	0.046456	0.124638	-0.000164
O47	O	0.009711	0.168424	-0.000203
N48	N	0.023830	0.072362	-0.000180
C49	C	0.060607	0.020794	-0.000201
O50	O	0.035908	-0.023737	-0.000217
C51	C	0.120006	0.021506	-0.000202
C52	C	0.142629	0.073785	-0.000172
C53	C	0.128479	0.177625	-0.000126
C54	C	0.187876	0.178336	-0.000113
C55	C	0.224649	0.126772	-0.000130
C56	C	0.202025	0.074497	-0.000159
C57	C	0.156783	-0.030062	-0.000235
C58	C	0.216185	-0.029345	-0.000237
C59	C	0.238808	0.022934	-0.000206
C60	C	0.298194	0.023643	-0.000164
N61	N	0.320820	0.075920	-0.000149
C62	C	0.284048	0.127484	-0.000132
C63	C	-0.064135	0.019302	-0.000201
C64	C	-0.123533	0.018589	-0.000189
C65	C	-0.137680	0.122434	-0.000155
C66	C	-0.078281	0.123146	-0.000156
C67	C	-0.041509	0.071578	-0.000185
C68	C	0.408784	0.128974	-0.000105
C69	C	0.468186	0.129680	-0.000087
C70	C	0.482329	0.025836	-0.000129
C71	C	0.422932	0.025129	-0.000139
C72	C	0.386160	0.076702	-0.000132
O73	O	0.334974	-0.020119	-0.000131
O74	O	0.308755	0.172007	-0.000136
C75	C	0.776472	0.069388	-0.000173
C76	C	0.839689	0.070154	-0.000180
C77	C	0.667577	0.178283	-0.000113
C78	C	0.668343	0.241500	-0.000091
N79	N	0.672318	0.074143	-0.353188
C80	C	0.631639	0.114796	-0.450470
C81	C	0.683041	0.125556	-0.549894
C82	C	0.620937	0.063388	-0.549892
C83	C	0.723745	0.084928	-0.450423
C84	C	0.661608	0.022738	-0.450413
C85	C	0.713047	0.033476	-0.549791
N86	N	0.672335	0.074123	0.352892
H87	H	0.770443	-0.111587	-0.000232
H88	H	0.138375	-0.072634	-0.000261
H89	H	0.767213	0.094069	-0.406914
H90	H	0.486602	0.172255	-0.000061
O91	O	0.590647	0.155800	-0.398176
C92	C	0.544417	0.201461	-0.181896
C93	C	0.590847	0.154994	-0.240921
H94	H	0.544571	0.200833	-0.054750
H95	H	0.500673	0.192737	-0.224404
H96	H	0.553662	0.245245	-0.222855
H97	H	0.581656	0.111191	-0.199987
H98	H	0.634577	0.163767	-0.198426
O99	O	0.650839	-0.029143	-0.398404
C100	C	0.680973	-0.130799	-0.391997
C101	C	0.693236	-0.072084	-0.451033
H102	H	0.715251	-0.165531	-0.434497
H103	H	0.637139	-0.139945	-0.432830
H104	H	0.681471	-0.130382	-0.264852
H105	H	0.692769	-0.072458	-0.578174
H106	H	0.737063	-0.062961	-0.410085
H107	H	0.575496	-0.632386	-0.000069
H108	H	0.769159	-0.219337	-0.000180
H109	H	0.692112	0.169019	-0.593590
H110	H	0.819097	-0.391900	-0.000182
H111	H	0.747493	-0.000914	-0.593127
H112	H	0.817806	-0.499645	-0.000155
H113	H	0.582043	-0.085909	-0.000164
H114	H	0.526850	-0.352066	-0.000032
O115	O	0.092739	0.227704	-0.000363
C116	C	0.017446	0.287175	-0.128780
C117	C	0.057893	0.230443	-0.128734
H118	H	-0.010746	0.289403	-0.232540
H119	H	0.043799	0.324677	-0.128854
H120	H	-0.010688	0.289428	-0.024904
H121	H	0.086035	0.228134	-0.232592
H122	H	0.031505	0.192968	-0.128582
O123	O	-0.145410	-0.032245	-0.000267
C124	C	-0.125092	-0.135169	-0.000210
C125	C	-0.100244	-0.077637	-0.000145
H126	H	-0.088588	-0.171883	-0.000080
H127	H	-0.152523	-0.138139	-0.104060
H128	H	-0.152570	-0.138072	0.103581
H129	H	-0.072740	-0.074695	-0.103866
H130	H	-0.072846	-0.074692	0.103774
O131	O	0.569068	0.052507	-0.601763
C132	C	0.473739	0.033167	-0.539390
C133	C	0.532458	0.045465	-0.480453
H134	H	0.444120	0.027482	-0.441341
H135	H	0.479359	-0.007623	-0.609271
H136	H	0.454254	0.070582	-0.611209
H137	H	0.551975	0.008085	-0.408572
H138	H	0.526802	0.086275	-0.410655
O139	O	0.772133	-0.654524	0.000136
C140	C	0.861126	-0.648481	0.128595
C141	C	0.803609	-0.673359	0.128507
H142	H	0.886595	-0.663709	0.232356
H143	H	0.852817	-0.599708	0.128699
H144	H	0.886562	-0.663643	0.024720
H145	H	0.778143	-0.658241	0.232365
H146	H	0.811958	-0.722129	0.128326
O147	O	0.770729	-0.771574	-0.000376
C148	C	0.859279	-0.801841	-0.128855
C149	C	0.802555	-0.761381	-0.128762
H150	H	0.885032	-0.793606	-0.232627
H151	H	0.849818	-0.848191	-0.128938
H152	H	0.885001	-0.793653	-0.024991
H153	H	0.776806	-0.769518	-0.232608
H154	H	0.812057	-0.715045	-0.128601
H155	H	0.525555	-0.459814	-0.000022
O156	O	0.565944	-0.743599	-0.000010
C157	C	0.463020	-0.723281	-0.000071
C158	C	0.520552	-0.698433	-0.000135
H159	H	0.426306	-0.686777	-0.000204
H160	H	0.460051	-0.750709	0.103781
H161	H	0.460116	-0.750762	-0.103860
H162	H	0.523495	-0.670927	0.103584
H163	H	0.523496	-0.671038	-0.104056
H164	H	0.580748	-0.193677	-0.000175
O165	O	-0.028359	-0.030758	-0.000005
C166	C	0.046882	-0.090246	0.128561
C167	C	0.006412	-0.033528	0.128508
H168	H	0.074996	-0.092510	0.232469
H169	H	0.075087	-0.092522	0.024813
H170	H	0.020490	-0.127717	0.128481
H171	H	0.032758	0.003975	0.128641
H172	H	-0.021795	-0.031302	0.232247
O173	O	0.209869	0.229110	0.000189
C174	C	0.268718	0.290178	0.128730
C175	C	0.243848	0.232658	0.128582
H176	H	0.296205	0.293061	0.232508
H177	H	0.232242	0.326923	0.128842
H178	H	0.296151	0.293117	0.024872
H179	H	0.216421	0.229663	0.232422
H180	H	0.280351	0.195941	0.128392
O181	O	0.373013	0.179034	0.000111
C182	C	0.297769	0.238517	0.128712
C183	C	0.338237	0.181799	0.128621
H184	H	0.269651	0.240776	0.232617
H185	H	0.269567	0.240800	0.024961
H186	H	0.324162	0.275988	0.128666
H187	H	0.311890	0.144296	0.128719
H188	H	0.366441	0.179566	0.232362
H189	H	-0.059867	0.165717	-0.000139
H190	H	0.246123	-0.071339	-0.000262
O191	O	0.401047	-0.025704	-0.000215
C192	C	0.421356	-0.128628	-0.000148
C193	C	0.446210	-0.071100	-0.000083
H194	H	0.457858	-0.165346	-0.000010
H195	H	0.393928	-0.131597	-0.104003
H196	H	0.393875	-0.131528	0.103638
H197	H	0.473717	-0.068162	-0.103799
H198	H	0.473606	-0.068156	0.103841
H199	H	-0.167632	0.164421	-0.000148
H200	H	0.512280	-0.016146	-0.000137
