data_functionalizedCrystal
_audit_creation_method	'MofGen! by Chris Wilmer'
_symmetry_space_group_name_H-M	'P1'
_symmetry_Int_Tables_number	1
_symmetry_cell_setting	triclinic
loop_
_symmetry_equiv_pos_as_xyz
  x,y,z
_cell_length_a	14.519709
_cell_length_b	14.044220
_cell_length_c	13.596369
_cell_angle_alpha	89.993157
_cell_angle_beta	90.000291
_cell_angle_gamma	88.434511
loop_
_atom_site_label
_atom_site_type_symbol
_atom_site_fract_x
_atom_site_fract_y
_atom_site_fract_z
O1	O	1.233892	0.124273	-0.081665
O2	O	0.966596	0.138907	-0.081695
O3	O	1.096232	-0.006402	-0.081671
O4	O	1.104256	0.269581	-0.081690
O5	O	1.096217	-0.006409	0.081912
O6	O	0.966581	0.138899	0.081887
O7	O	1.233878	0.124265	0.081918
Zn8	Zn	1.100227	0.131581	0.107875
Zn9	Zn	1.100246	0.131591	-0.107653
O10	O	1.104241	0.269574	0.081893
C11	C	0.932174	0.138221	0.000092
C12	C	0.829628	0.136177	0.000081
C13	C	1.092712	-0.041726	0.000120
C14	C	1.082235	-0.146969	0.000120
C15	C	0.454125	0.128653	0.000126
C16	C	0.558601	0.130743	0.000113
C17	C	0.641873	0.132415	0.000103
C18	C	0.746356	0.134505	0.000092
C19	C	1.063081	-0.339663	0.000104
C20	C	1.137389	-0.397170	0.000110
C21	C	1.126731	-0.504392	0.000101
C22	C	1.073737	-0.232432	0.000113
C23	C	1.268300	0.124951	0.000128
C24	C	1.370846	0.126995	0.000133
C25	C	1.107761	0.304898	0.000100
C26	C	1.118238	0.410141	0.000093
N27	N	1.100220	0.131573	0.254967
N28	N	1.100260	0.131591	-0.254744
C29	C	1.100245	0.131592	0.656258
C30	C	1.100236	0.131590	0.544606
C31	C	1.100233	0.131583	0.455616
C32	C	1.100223	0.131580	0.343957
H33	H	0.991465	-0.370954	0.000094
H34	H	1.209010	-0.365878	0.000052
