data_functionalizedCrystal
_audit_creation_method	'MofGen! by Chris Wilmer'
_symmetry_space_group_name_H-M	'P1'
_symmetry_Int_Tables_number	1
_symmetry_cell_setting	triclinic
loop_
_symmetry_equiv_pos_as_xyz
  x,y,z
_cell_length_a	18.215407
_cell_length_b	17.077402
_cell_length_c	17.077396
_cell_angle_alpha	90.030530
_cell_angle_beta	89.982723
_cell_angle_gamma	89.970027
loop_
_atom_site_label
_atom_site_type_symbol
_atom_site_fract_x
_atom_site_fract_y
_atom_site_fract_z
Zn1	Zn	1.125032	0.312562	-0.443785
Zn2	Zn	1.625032	0.812562	0.056215
Zn3	Zn	1.124924	0.443837	-0.312514
Zn4	Zn	1.624924	0.943837	0.187486
Zn5	Zn	1.001965	0.312583	-0.312538
Zn6	Zn	1.501965	0.812583	0.187462
Zn7	Zn	1.001914	0.443784	-0.443743
Zn8	Zn	1.501914	0.943784	0.056257
O9	O	1.063459	0.378191	-0.378145
O10	O	1.563459	0.878191	0.121855
O11	O	1.228002	0.329989	-0.426379
O12	O	1.728002	0.829989	0.073621
O13	O	1.108590	0.426457	-0.202670
O14	O	1.608590	0.926457	0.297330
O15	O	1.018356	0.202733	-0.329976
O16	O	1.518356	0.702733	0.170024
O17	O	1.227923	0.426436	-0.329935
O18	O	1.727923	0.926436	0.170065
O19	O	1.108773	0.202718	-0.426402
O20	O	1.608773	0.702718	0.073598
O21	O	1.018252	0.330025	-0.202688
O22	O	1.518252	0.830025	0.297312
O23	O	0.898974	0.329974	-0.329935
O24	O	1.398974	0.829974	0.170065
O25	O	1.018270	0.426346	-0.553595
O26	O	1.518270	0.926346	-0.053595
O27	O	0.898937	0.426366	-0.426331
O28	O	1.398937	0.926366	0.073669
O29	O	1.108724	0.329938	-0.553626
O30	O	1.608724	0.829938	-0.053626
O31	O	1.108540	0.553677	-0.329894
O32	O	1.608540	1.053677	0.170106
O33	O	1.018165	0.553638	-0.426308
O34	O	1.518165	1.053638	0.073692
C35	C	0.872253	0.378167	-0.378131
C36	C	1.372253	0.878167	0.121869
C37	C	0.790454	0.378176	-0.378144
C38	C	1.290454	0.878176	0.121856
C39	C	0.602300	0.328059	-0.428442
C40	C	1.102300	0.828059	0.071558
C41	C	0.525441	0.328066	-0.428444
C42	C	1.025441	0.828066	0.071556
C43	C	0.525370	0.428345	-0.327862
C44	C	1.025370	0.928345	0.172138
C45	C	0.602227	0.428334	-0.327856
C46	C	1.102227	0.928334	0.172144
C47	C	0.640690	0.378192	-0.378150
C48	C	1.140690	0.878192	0.121850
C49	C	0.486974	0.378210	-0.378159
C50	C	0.986974	0.878210	0.121841
C51	C	0.403640	0.378218	-0.378161
C52	C	0.903640	0.878218	0.121839
C53	C	0.724029	0.378183	-0.378147
C54	C	1.224029	0.878183	0.121853
C55	C	1.063356	0.582139	-0.378111
C56	C	1.563356	1.082139	0.121889
C57	C	1.063379	0.669389	-0.378123
C58	C	1.563379	1.169389	0.121877
C59	C	1.110540	1.045132	-0.428429
C60	C	1.610540	1.545132	0.071571
C61	C	1.110517	0.963151	-0.428412
C62	C	1.610517	1.463151	0.071588
C63	C	1.063465	0.922238	-0.378163
C64	C	1.563465	1.422238	0.121837
C65	C	1.016439	0.963309	-0.327921
C66	C	1.516439	1.463309	0.172079
C67	C	1.016466	1.045288	-0.327934
C68	C	1.516466	1.545288	0.172066
C69	C	1.016383	0.792439	-0.327898
C70	C	1.516383	1.292439	0.172102
C71	C	1.016355	0.710455	-0.327886
C72	C	1.516355	1.210455	0.172114
C73	C	1.110434	0.710302	-0.428377
C74	C	1.610434	1.210302	0.071623
C75	C	1.110461	0.792281	-0.428390
C76	C	1.610461	1.292281	0.071610
C77	C	1.063434	0.833347	-0.378149
C78	C	1.563434	1.333347	0.121851
C79	C	1.255412	0.378216	-0.378159
C80	C	1.755412	0.878216	0.121841
C81	C	1.337211	0.378227	-0.378165
C82	C	1.837211	0.878227	0.121835
C83	C	1.063553	1.173447	-0.378190
C84	C	1.563553	1.673447	0.121810
C85	C	1.063516	1.086197	-0.378192
C86	C	1.563516	1.586197	0.121808
C87	C	1.063503	0.378133	-0.582889
C88	C	1.563503	0.878133	-0.082889
C89	C	1.063522	0.378109	-0.670139
C90	C	1.563522	0.878109	-0.170139
C91	C	1.110624	0.327905	-0.711147
C92	C	1.610624	0.827905	-0.211147
C93	C	1.110633	0.327879	-0.793127
C94	C	1.610633	0.827879	-0.293127
C95	C	1.063543	0.378061	-0.834099
C96	C	1.563543	0.878061	-0.334099
C97	C	1.016437	0.428267	-0.793085
C98	C	1.516437	0.928267	-0.293085
C99	C	1.016425	0.428289	-0.711106
C100	C	1.516425	0.928289	-0.211106
C101	C	1.016467	0.428220	-0.963956
C102	C	1.516467	0.928220	-0.463956
C103	C	1.016479	0.428200	-1.045940
C104	C	1.516479	0.928200	-0.545940
C105	C	1.110674	0.327810	-1.045976
C106	C	1.610674	0.827810	-0.545976
C107	C	1.110662	0.327832	-0.963997
C108	C	1.610662	0.827832	-0.463997
C109	C	1.063557	0.378039	-0.922990
C110	C	1.563557	0.878039	-0.422990
C111	C	1.063457	0.378192	-0.174197
C112	C	1.563457	0.878192	0.325803
C113	C	1.063581	0.377996	-0.086948
C114	C	1.563581	0.877996	0.413052
H115	H	0.494044	0.469170	-0.286915
H116	H	0.994044	0.969170	0.213085
O117	O	0.639410	0.477111	-0.278975
O118	O	1.139410	0.977111	0.221025
C119	C	0.631235	0.576542	-0.179178
C120	C	1.131235	1.076542	0.320822
C121	C	0.589034	0.521362	-0.234507
C122	C	1.089034	1.021362	0.265493
H123	H	0.590525	0.612322	-0.143199
H124	H	1.090525	1.112322	0.356801
H125	H	0.667197	0.617678	-0.215104
H126	H	1.167197	1.117678	0.284896
H127	H	0.667236	0.540432	-0.138229
H128	H	1.167236	1.040432	0.361771
H129	H	0.552994	0.557410	-0.275467
H130	H	1.052994	1.057410	0.224533
H131	H	0.553119	0.480225	-0.198532
H132	H	1.053119	0.980225	0.301468
H133	H	1.148808	0.929716	-0.469318
H134	H	1.648808	1.429716	0.030682
O135	O	0.639697	0.279461	-0.477374
O136	O	1.139697	0.779461	0.022626
C137	C	0.726545	0.269013	-0.583335
C138	C	1.226545	0.769013	-0.083335
C139	C	0.684228	0.324142	-0.527982
C140	C	1.184228	0.824142	-0.027982
H141	H	0.762570	0.305114	-0.624255
H142	H	1.262570	0.805114	-0.124255
H143	H	0.685935	0.233195	-0.619337
H144	H	1.185935	0.733195	-0.119337
H145	H	0.762498	0.227904	-0.547348
H146	H	1.262498	0.727904	-0.047348
H147	H	0.648274	0.365299	-0.563908
H148	H	1.148274	0.865299	-0.063908
H149	H	0.724878	0.359905	-0.491978
H150	H	1.224878	0.859905	0.008022
O151	O	0.488263	0.279343	-0.477373
O152	O	0.988263	0.779343	0.022627
C153	C	0.496450	0.179849	-0.577106
C154	C	0.996450	0.679849	-0.077106
C155	C	0.538645	0.235003	-0.521746
C156	C	1.038645	0.735003	-0.021746
H157	H	0.537165	0.143973	-0.612984
H158	H	1.037165	0.643973	-0.112984
H159	H	0.460487	0.215905	-0.618142
H160	H	0.960487	0.715905	-0.118142
H161	H	0.460452	0.138795	-0.541131
H162	H	0.960452	0.638795	-0.041131
H163	H	0.574683	0.276068	-0.557658
H164	H	1.074683	0.776068	-0.057658
H165	H	0.574562	0.198897	-0.480709
H166	H	1.074562	0.698897	0.019291
H167	H	1.148848	1.078437	-0.469355
H168	H	1.648848	1.578437	0.030645
O169	O	0.970854	1.085303	-0.279162
O170	O	1.470854	1.585303	0.220838
C171	C	0.929171	1.211666	-0.234678
C172	C	1.429171	1.711666	0.265322
C173	C	0.980875	1.166449	-0.289943
C174	C	1.480875	1.666449	0.210057
H175	H	0.937244	1.277280	-0.243388
H176	H	1.437244	1.777280	0.256612
H177	H	0.942122	1.195637	-0.171374
H178	H	1.442122	1.695637	0.328626
H179	H	0.869825	1.195548	-0.248398
H180	H	1.369825	1.695548	0.251602
H181	H	1.040238	1.182543	-0.276294
H182	H	1.540238	1.682543	0.223706
H183	H	0.967860	1.182481	-0.353231
H184	H	1.467860	1.682481	0.146769
O185	O	0.970588	0.476932	-0.832847
O186	O	1.470588	0.976932	-0.332847
C187	C	0.845388	0.515047	-0.857863
C188	C	1.345388	1.015047	-0.357863
C189	C	0.897226	0.459870	-0.812803
C190	C	1.397226	0.959870	-0.312803
H191	H	0.786065	0.501283	-0.841662
H192	H	1.286065	1.001283	-0.341662
H193	H	0.853423	0.506409	-0.923510
H194	H	1.353423	1.006409	-0.423510
H195	H	0.858309	0.578343	-0.841736
H196	H	1.358309	1.078343	-0.341736
H197	H	0.884337	0.396553	-0.828865
H198	H	1.384337	0.896553	-0.328865
H199	H	0.889181	0.468575	-0.747167
H200	H	1.389181	0.968575	-0.247167
H201	H	0.978097	0.469092	-0.930570
H202	H	1.478097	0.969092	-0.430570
H203	H	0.978041	0.677147	-0.286967
H204	H	1.478041	1.177147	0.213033
H205	H	1.148972	0.287043	-0.677794
H206	H	1.648972	0.787043	-0.177794
H207	H	0.978063	0.469162	-0.677719
H208	H	1.478063	0.969162	-0.177719
O209	O	0.970630	0.832210	-0.279071
O210	O	1.470630	1.332210	0.220929
C211	C	0.877337	0.823715	-0.179372
C212	C	1.377337	1.323715	0.320628
C213	C	0.929104	0.778577	-0.234635
C214	C	1.429104	1.278577	0.265365
H215	H	0.843761	0.780372	-0.143419
H216	H	1.343761	1.280372	0.356581
H217	H	0.838804	0.862084	-0.215348
H218	H	1.338804	1.362084	0.284652
H219	H	0.911168	0.862115	-0.138395
H220	H	1.411168	1.362115	0.361605
H221	H	0.895333	0.740134	-0.275622
H222	H	1.395333	1.240134	0.224378
H223	H	0.967640	0.740257	-0.198609
H224	H	1.467640	1.240257	0.301391
O225	O	1.156459	0.279089	-0.832840
O226	O	1.656459	0.779089	-0.332840
C227	C	1.249861	0.179492	-0.824225
C228	C	1.749861	0.679492	-0.324225
C229	C	1.198010	0.234722	-0.779153
C230	C	1.698010	0.734722	-0.279153
H231	H	1.283458	0.143596	-0.780838
H232	H	1.783458	0.643596	-0.280838
H233	H	1.288372	0.215491	-0.862581
H234	H	1.788372	0.715491	-0.362581
H235	H	1.216095	0.138462	-0.862631
H236	H	1.716095	0.638462	-0.362631
H237	H	1.231717	0.275764	-0.740705
H238	H	1.731717	0.775764	-0.240705
H239	H	1.159497	0.198675	-0.740846
H240	H	1.659497	0.698675	-0.240846
O241	O	1.156355	0.279052	-1.085928
O242	O	1.656355	0.779052	-0.585928
C243	C	1.198135	0.234539	-1.212238
C244	C	1.698135	0.734539	-0.712238
C245	C	1.146357	0.289781	-1.167086
C246	C	1.646357	0.789781	-0.667086
H247	H	1.190081	0.243206	-1.277862
H248	H	1.690081	0.743206	-0.777862
H249	H	1.185241	0.171232	-1.196184
H250	H	1.685241	0.671232	-0.696184
H251	H	1.257460	0.248322	-1.196084
H252	H	1.757460	0.748322	-0.696084
H253	H	1.087014	0.276069	-1.183215
H254	H	1.587014	0.776069	-0.683215
H255	H	1.159314	0.353072	-1.183144
H256	H	1.659314	0.853072	-0.683144
O257	O	0.970665	0.476967	-1.085620
O258	O	1.470665	0.976967	-0.585620
C259	C	0.877259	0.576568	-1.076938
C260	C	1.377259	1.076568	-0.576938
C261	C	0.929093	0.521365	-1.031904
C262	C	1.429093	1.021365	-0.531904
H263	H	0.843645	0.612489	-1.033528
H264	H	1.343645	1.112489	-0.533528
H265	H	0.838763	0.540545	-1.115303
H266	H	1.338763	1.040545	-0.615303
H267	H	0.911038	0.617576	-1.115333
H268	H	1.411038	1.117576	-0.615333
H269	H	0.895373	0.480346	-0.993467
H270	H	1.395373	0.980346	-0.493467
H271	H	0.967591	0.557436	-0.993588
H272	H	1.467591	1.057436	-0.493588
H273	H	1.148773	0.825591	-0.469310
H274	H	1.648773	1.325591	0.030690
H275	H	1.148725	0.676862	-0.469285
H276	H	1.648725	1.176862	0.030715
H277	H	0.978131	0.929993	-0.287002
H278	H	1.478131	1.429993	0.212998
H279	H	1.149010	0.286973	-0.930641
H280	H	1.649010	0.786973	-0.430641
