data_functionalizedCrystal
_audit_creation_method	'MofGen! by Chris Wilmer'
_symmetry_space_group_name_H-M	'P1'
_symmetry_Int_Tables_number	1
_symmetry_cell_setting	triclinic
loop_
_symmetry_equiv_pos_as_xyz
  x,y,z
_cell_length_a	19.288840
_cell_length_b	19.288859
_cell_length_c	17.766277
_cell_angle_alpha	90.004964
_cell_angle_beta	89.983379
_cell_angle_gamma	96.870129
loop_
_atom_site_label
_atom_site_type_symbol
_atom_site_fract_x
_atom_site_fract_y
_atom_site_fract_z
O1	O	-0.921362	0.086565	0.062719
O2	O	-0.719099	0.098272	0.062693
O3	O	-0.826077	-0.008713	0.062703
O4	O	-0.814384	0.193550	0.062710
O5	O	-0.826058	-0.008716	-0.062486
O6	O	-0.719080	0.098269	-0.062495
O7	O	-0.921343	0.086562	-0.062469
Cu8	Cu	-0.820210	0.092415	-0.073913
Cu9	Cu	-0.820232	0.092419	0.074137
O10	O	-0.814365	0.193547	-0.062478
C11	C	-0.693213	0.097897	0.000096
C12	C	-0.616108	0.096775	0.000086
C13	C	-0.825692	-0.034591	0.000109
C14	C	-0.824565	-0.111694	0.000110
C15	C	-0.947230	0.086937	0.000130
C16	C	-1.024334	0.088059	0.000145
C17	C	-0.579915	0.096237	0.068328
C18	C	-0.507468	0.095175	0.068337
C19	C	-0.471219	0.094636	0.000100
C20	C	-0.507420	0.095178	-0.068151
C21	C	-0.579865	0.096247	-0.068158
C22	C	-0.361884	0.052257	-0.052170
C23	C	-0.289442	0.051184	-0.052160
C24	C	-0.247776	0.091342	0.000120
C25	C	-0.278562	0.132565	0.052402
C26	C	-0.351007	0.133634	0.052395
C27	C	-0.392665	0.093478	0.000100
C28	C	-0.133027	0.089654	0.068376
C29	C	-0.060578	0.088597	0.068383
C30	C	-0.060533	0.088592	-0.068107
C31	C	-0.132979	0.089657	-0.068112
C32	C	-0.169223	0.090185	0.000132
C33	C	-0.879709	-0.675740	0.000137
C34	C	-0.880774	-0.603294	0.000131
C35	C	-0.818004	-0.558581	0.000123
C36	C	-0.754164	-0.586321	0.000102
C37	C	-0.753101	-0.658766	0.000101
C38	C	-0.771197	-0.437302	0.043974
C39	C	-0.772264	-0.364859	0.043980
C40	C	-0.821282	-0.335136	0.000122
C41	C	-0.869246	-0.377867	-0.043731
C42	C	-0.868182	-0.450312	-0.043732
C43	C	-0.819150	-0.480026	0.000123
C44	C	-0.886273	-0.228850	0.000130
C45	C	-0.887336	-0.156402	0.000119
C46	C	-0.760724	-0.139430	0.000098
C47	C	-0.759663	-0.211877	0.000102
C48	C	-0.822440	-0.256583	0.000122
C49	C	-0.814750	0.219425	0.000117
C50	C	-0.815877	0.296528	0.000121
N51	N	-0.820199	0.092412	-0.178043
C52	C	-0.862186	0.134432	-0.217416
C53	C	-0.862197	0.134430	-0.296218
C54	C	-0.820208	0.092416	-0.335644
C55	C	-0.778218	0.050388	-0.296261
C56	C	-0.778214	0.050385	-0.217461
C57	C	-0.757595	0.090665	-0.460511
C58	C	-0.757598	0.090672	-0.539310
C59	C	-0.820222	0.092418	-0.578690
C60	C	-0.882845	0.094172	-0.539261
C61	C	-0.882841	0.094170	-0.460461
C62	C	-0.820209	0.092413	-0.421089
C63	C	-0.862225	0.134439	-0.703509
C64	C	-0.862237	0.134432	-0.782312
C65	C	-0.778252	0.050393	-0.782354
C66	C	-0.778246	0.050396	-0.703552
C67	C	-0.820231	0.092422	-0.664134
N68	N	-0.820249	0.092416	0.178267
H69	H	-0.477994	0.094739	0.123910
H70	H	-0.933839	0.095598	-0.571323
N71	N	-0.618995	0.096817	0.141936
H72	H	-0.643277	0.140310	0.144980
H73	H	-0.654793	0.054183	0.144935
H74	H	-0.376070	0.167201	0.094963
N75	N	-0.732958	0.005075	-0.661079
H76	H	-0.706359	-0.021542	-0.698010
H77	H	-0.698905	0.035449	-0.628393
N78	N	-0.947416	-0.723956	0.000143
H79	H	-0.937059	-0.774059	0.000139
H80	H	-0.975252	-0.714997	0.046557
H81	H	-0.709615	-0.103026	0.000085
H82	H	-0.744022	0.016167	-0.185403
N83	N	-0.953982	-0.277067	0.000137
H84	H	-0.956355	-0.307507	-0.046269
H85	H	-0.956334	-0.307454	0.046576
H86	H	-0.706594	0.089248	-0.428455
H87	H	-0.731272	-0.461495	0.079683
H88	H	-0.932755	-0.580710	0.000144
N89	N	-0.618906	0.096816	-0.141767
H90	H	-0.670299	0.097572	-0.131416
H91	H	-0.600461	0.139679	-0.171565
H92	H	-0.031111	0.088163	0.123956
N93	N	-0.907484	0.179754	-0.338698
H94	H	-0.934081	0.206376	-0.301770
H95	H	-0.877087	0.213786	-0.371398
N96	N	-0.256241	0.006725	-0.108548
H97	H	-0.204027	0.012137	-0.100608
H98	H	-0.275717	-0.043835	-0.101554
N99	N	-0.907480	0.179749	-0.174905
H100	H	-0.901108	0.173372	-0.119009
H101	H	-0.893596	0.230304	-0.188676
H102	H	-0.907235	-0.485101	-0.079441
H103	H	-0.395804	0.019554	-0.094746
H104	H	-0.896412	0.168659	-0.671414
N105	N	-0.233634	0.175881	0.108797
H106	H	-0.183069	0.168953	0.100868
H107	H	-0.239491	0.226814	0.101797
N108	N	-0.468389	0.094152	-0.141749
H109	H	-0.417024	0.093241	-0.131389
H110	H	-0.487020	0.051144	-0.171210
N111	N	-0.907522	0.179761	-0.824781
H112	H	-0.901158	0.173384	-0.880682
H113	H	-0.958081	0.165911	-0.810987
N114	N	-0.172124	0.090227	0.141977
H115	H	-0.138199	0.089731	0.185212
H116	H	-0.196412	0.133719	0.144947
N117	N	-0.686461	-0.538100	0.000078
H118	H	-0.696820	-0.487998	0.000080
H119	H	-0.658628	-0.547050	0.046477
N120	N	-0.684251	-0.688681	0.000078
H121	H	-0.644646	-0.649366	0.000067
H122	H	-0.681054	-0.718366	0.046486
N123	N	-0.732969	0.005070	-0.824865
H124	H	-0.739344	0.011445	-0.880760
H125	H	-0.682408	0.018925	-0.811111
H126	H	-0.162449	0.090090	-0.123682
N127	N	-0.950377	0.096048	-0.417930
H128	H	-0.946840	0.139160	-0.385229
H129	H	-0.990019	0.097126	-0.454874
N130	N	-0.690059	0.088767	-0.581829
H131	H	-0.656339	0.131029	-0.568123
H132	H	-0.669088	0.044929	-0.568104
H133	H	-0.744031	0.016179	-0.328366
H134	H	-0.031019	0.088158	-0.123667
H135	H	-0.939317	-0.133825	0.000128
H136	H	-0.909157	-0.353668	-0.079450
H137	H	-0.707684	-0.234455	0.000094
N138	N	-0.720539	-0.318774	0.091281
H139	H	-0.689319	-0.348594	0.119058
H140	H	-0.691196	-0.284723	0.057634
