data_functionalizedCrystal
_audit_creation_method	'MofGen! by Chris Wilmer'
_symmetry_space_group_name_H-M	'P1'
_symmetry_Int_Tables_number	1
_symmetry_cell_setting	triclinic
loop_
_symmetry_equiv_pos_as_xyz
  x,y,z
_cell_length_a	16.109295
_cell_length_b	6.394989
_cell_length_c	14.586319
_cell_angle_alpha	89.999285
_cell_angle_beta	90.000576
_cell_angle_gamma	95.021551
loop_
_atom_site_label
_atom_site_type_symbol
_atom_site_fract_x
_atom_site_fract_y
_atom_site_fract_z
O1	O	-1.105975	0.268424	-0.076172
O2	O	-0.864266	0.301848	-0.076186
O3	O	-0.988552	-0.018931	-0.076180
O4	O	-0.981690	0.589203	-0.076178
O5	O	-0.988543	-0.018935	0.076301
O6	O	-0.864258	0.301844	0.076294
O7	O	-1.105966	0.268419	0.076309
Cu8	Cu	-0.985111	0.285131	0.090225
Cu9	Cu	-0.985122	0.285137	-0.090102
O10	O	-0.981681	0.589198	0.076303
C11	C	-0.833273	0.300494	0.000052
C12	C	-0.740934	0.296441	0.000046
C13	C	-0.520576	0.477357	0.000056
C14	C	-0.433815	0.473533	0.000062
C15	C	-0.449661	0.092946	0.000057
C16	C	-0.536420	0.096773	0.000058
C17	C	-0.571876	0.288985	0.000053
C18	C	-0.398355	0.281334	0.000058
C19	C	-0.304285	0.277185	0.000064
C20	C	-0.665952	0.293134	0.000049
C21	C	-0.136960	0.269786	0.000068
C22	C	-0.229296	0.273877	0.000065
C23	C	-0.983042	0.667021	0.000058
C24	C	-0.987189	0.903253	0.000056
N25	N	-0.985110	0.285126	0.217056
N26	N	-0.985129	0.285125	-0.216933
C27	C	-1.040162	0.143132	0.452066
C28	C	-1.040165	0.143127	0.548047
C29	C	-0.930071	0.427125	0.548050
C30	C	-0.930065	0.427119	0.452071
C31	C	-0.985116	0.285125	0.404081
C32	C	-0.985124	0.285126	0.596042
C33	C	-0.985126	0.285122	0.700109
C34	C	-0.985113	0.285126	0.300007
H35	H	-0.392051	0.626925	0.000066
O36	O	-0.870690	0.580263	0.400300
H37	H	-0.882989	0.743111	0.418702
H38	H	-0.578190	-0.056632	0.000058
H39	H	-0.420782	-0.063546	0.000067
H40	H	-1.084987	0.027509	0.412995
O41	O	-1.099547	-0.009994	0.599806
H42	H	-1.137830	-0.108708	0.550307
H43	H	-0.885251	0.542737	0.587133
H44	H	-0.549441	0.633868	0.000059
