data_functionalizedCrystal
_audit_creation_method	'MofGen! by Chris Wilmer'
_symmetry_space_group_name_H-M	'P1'
_symmetry_Int_Tables_number	1
_symmetry_cell_setting	triclinic
loop_
_symmetry_equiv_pos_as_xyz
  x,y,z
_cell_length_a	19.188933
_cell_length_b	9.065218
_cell_length_c	7.540329
_cell_angle_alpha	90.001757
_cell_angle_beta	89.998460
_cell_angle_gamma	95.919273
loop_
_atom_site_label
_atom_site_type_symbol
_atom_site_fract_x
_atom_site_fract_y
_atom_site_fract_z
O1	O	0.927573	-0.184188	-0.147416
O2	O	0.724455	-0.208978	-0.147432
O3	O	0.830213	0.018205	-0.147420
O4	O	0.821816	-0.411371	-0.147428
O5	O	0.830206	0.018208	0.147545
O6	O	0.724449	-0.208975	0.147533
O7	O	0.927567	-0.184185	0.147549
Cu8	Cu	0.826007	-0.196580	0.174474
Cu9	Cu	0.826015	-0.196583	-0.174357
O10	O	0.821809	-0.411368	0.147537
C11	C	0.698435	-0.208173	0.000049
C12	C	0.620911	-0.205762	0.000042
C13	C	0.067526	-0.188554	-0.160724
C14	C	0.140368	-0.190810	-0.160731
C15	C	0.176790	-0.191944	0.000054
C16	C	0.140366	-0.190783	0.160858
C17	C	0.067527	-0.188511	0.160860
N18	N	0.286487	-0.279456	0.119732
N19	N	0.355682	-0.281617	0.119719
C20	C	0.396252	-0.198786	0.000057
N21	N	0.365012	-0.113729	-0.119618
N22	N	0.295811	-0.111575	-0.119610
C23	C	0.255772	-0.194407	0.000070
C24	C	0.511650	-0.202383	-0.160744
C25	C	0.584494	-0.204631	-0.160744
C26	C	0.584491	-0.204618	0.160849
C27	C	0.511649	-0.202356	0.160845
C28	C	0.475233	-0.201245	0.000043
C29	C	0.829402	0.073165	0.000059
C30	C	0.826989	0.236924	0.000051
C31	C	0.953587	-0.184990	0.000064
C32	C	1.031111	-0.187401	0.000059
C33	C	0.822620	-0.466328	0.000053
C34	C	0.825032	-0.630087	0.000051
N35	N	0.826007	-0.196577	0.419822
N36	N	0.826020	-0.196575	-0.419705
H37	H	0.037878	-0.187579	0.291793
O38	O	0.619823	-0.206009	-0.316985
C39	C	0.594914	-0.333184	-0.414804
H40	H	0.569930	-0.421832	-0.320711
H41	H	0.640433	-0.377555	-0.487738
H42	H	0.554237	-0.303003	-0.515061
H43	H	0.037880	-0.187643	-0.291661
O44	O	0.476208	-0.201089	-0.316827
C45	C	0.441186	-0.072027	-0.326474
H46	H	0.432636	-0.029099	-0.186871
H47	H	0.388370	-0.099168	-0.394530
H48	H	0.474230	0.016544	-0.405820
H49	H	0.170022	-0.191757	-0.291663
O50	O	0.619949	-0.205519	0.316927
C51	C	0.669169	-0.079073	0.326561
H52	H	0.682450	-0.036837	0.186955
H53	H	0.718793	-0.109388	0.394619
H54	H	0.646066	0.011251	0.405901
O55	O	0.476361	-0.201057	0.317148
C56	C	0.501251	-0.073854	0.414940
H57	H	0.556504	-0.032918	0.369210
H58	H	0.502148	-0.102653	0.562035
H59	H	0.465228	0.016869	0.392654
H60	H	0.170026	-0.191704	0.291770
