data_functionalizedCrystal
_audit_creation_method	'MofGen! by Chris Wilmer'
_symmetry_space_group_name_H-M	'P1'
_symmetry_Int_Tables_number	1
_symmetry_cell_setting	triclinic
loop_
_symmetry_equiv_pos_as_xyz
  x,y,z
_cell_length_a	16.120490
_cell_length_b	10.686285
_cell_length_c	10.685314
_cell_angle_alpha	90.303498
_cell_angle_beta	91.677276
_cell_angle_gamma	82.516228
loop_
_atom_site_label
_atom_site_type_symbol
_atom_site_fract_x
_atom_site_fract_y
_atom_site_fract_z
Zn1	Zn	1.269532	-0.658195	-0.760370
Zn2	Zn	1.602865	-0.324862	-0.427036
Zn3	Zn	1.936198	0.008472	-0.093703
Zn4	Zn	1.290738	-0.853682	-0.536035
Zn5	Zn	1.624071	-0.520348	-0.202702
Zn6	Zn	1.957404	-0.187015	0.130632
Zn7	Zn	1.139841	-0.631514	-0.541493
Zn8	Zn	1.473174	-0.298180	-0.208160
Zn9	Zn	1.806508	0.035153	0.125174
Zn10	Zn	1.141484	-0.857367	-0.735253
Zn11	Zn	1.474817	-0.524033	-0.401920
Zn12	Zn	1.808151	-0.190700	-0.068587
O13	O	1.210398	-0.750189	-0.643288
O14	O	1.543732	-0.416856	-0.309954
O15	O	1.877065	-0.083523	0.023379
O16	O	1.389084	-0.693751	-0.738838
O17	O	1.722417	-0.360418	-0.405505
O18	O	2.055751	-0.027084	-0.072172
O19	O	1.278908	-0.811502	-0.361785
O20	O	1.612241	-0.478169	-0.028452
O21	O	1.945575	-0.144835	0.304882
O22	O	1.147482	-0.458721	-0.583323
O23	O	1.480816	-0.125388	-0.249990
O24	O	1.814149	0.207946	0.083344
O25	O	1.404664	-0.837374	-0.574021
O26	O	1.737997	-0.504041	-0.240687
O27	O	2.071330	-0.170707	0.092646
O28	O	1.242766	-0.478324	-0.744131
O29	O	1.576099	-0.144990	-0.410797
O30	O	1.909432	0.188343	-0.077464
O31	O	1.168045	-0.648276	-0.365795
O32	O	1.501378	-0.314943	-0.032462
O33	O	1.834711	0.018390	0.300872
O34	O	1.023320	-0.651849	-0.558969
O35	O	1.356653	-0.318516	-0.225635
O36	O	1.689986	0.014817	0.107698
O37	O	1.150283	-0.843654	-0.913559
O38	O	1.483616	-0.510321	-0.580226
O39	O	1.816949	-0.176988	-0.246892
O40	O	1.024527	-0.817783	-0.701323
O41	O	1.357860	-0.484449	-0.367990
O42	O	1.691193	-0.151116	-0.034657
O43	O	1.244359	-0.697324	-0.932012
O44	O	1.577692	-0.363991	-0.598679
O45	O	1.911025	-0.030657	-0.265345
O46	O	1.280501	-1.030502	-0.549666
O47	O	1.613834	-0.697169	-0.216333
O48	O	1.947168	-0.363836	0.117000
O49	O	1.170845	-1.033210	-0.696031
O50	O	1.504178	-0.699876	-0.362698
O51	O	1.837512	-0.366543	-0.029364
C52	C	1.228174	-1.077581	-0.619560
C53	C	1.561507	-0.744247	-0.286227
C54	C	1.894840	-0.410914	0.047107
C55	C	1.235852	-1.217650	-0.609456
C56	C	1.569186	-0.884316	-0.276123
C57	C	1.902519	-0.550983	0.057210
C58	C	0.993654	-0.732322	-0.628013
C59	C	1.326987	-0.398988	-0.294680
C60	C	1.660321	-0.065655	0.038653
C61	C	0.900930	-0.724710	-0.621506
C62	C	1.234263	-0.391377	-0.288173
C63	C	1.567597	-0.058044	0.045160
C64	C	0.690481	-0.789661	-0.677043
C65	C	1.023814	-0.456328	-0.343710
C66	C	1.357147	-0.122994	-0.010377
C67	C	0.731168	-0.710825	-0.609624
C68	C	1.064502	-0.377492	-0.276290
C69	C	1.397835	-0.044159	0.057043
C70	C	0.825633	-0.718553	-0.616237
C71	C	1.158966	-0.385220	-0.282904
C72	C	1.492299	-0.051887	0.050429
C73	C	0.596008	-0.781935	-0.670431
C74	C	0.929341	-0.448601	-0.337098
C75	C	1.262675	-0.115268	-0.003765
C76	C	1.427989	-0.768128	-0.658622
C77	C	1.761323	-0.434794	-0.325289
C78	C	2.094656	-0.101461	0.008044
C79	C	1.520714	-0.775772	-0.665157
C80	C	1.854047	-0.442439	-0.331824
C81	C	2.187380	-0.109105	0.001509
C82	C	1.195138	-0.773877	-0.969423
C83	C	1.528472	-0.440543	-0.636090
C84	C	1.861805	-0.107210	-0.302756
C85	C	1.188636	-0.783971	-1.108402
C86	C	1.521969	-0.450637	-0.775069
C87	C	1.855302	-0.117304	-0.441736
C88	C	1.192575	-0.421523	-0.667137
C89	C	1.525909	-0.088190	-0.333804
C90	C	1.859242	0.245144	-0.000471
C91	C	1.184980	-0.281465	-0.677300
C92	C	1.518313	0.051868	-0.343967
C93	C	1.851647	0.385201	-0.010634
C94	C	1.225642	-0.726507	-0.318431
C95	C	1.558976	-0.393174	0.014902
C96	C	1.892309	-0.059840	0.348235
C97	C	1.232287	-0.716071	-0.179490
C98	C	1.565621	-0.382738	0.153844
C99	C	1.898954	-0.049405	0.487177
H100	H	1.135552	-1.228945	-0.743116
H101	H	1.468886	-0.895612	-0.409783
H102	H	1.802219	-0.562278	-0.076450
Cl103	Cl	1.312162	-1.298738	-0.507819
Cl104	Cl	1.645496	-0.965404	-0.174485
Cl105	Cl	1.978829	-0.632071	0.158848
H106	H	0.695057	-0.637528	-0.546937
H107	H	1.028391	-0.304195	-0.213604
H108	H	1.361724	0.029138	0.119730
Cl109	Cl	0.746232	-0.902833	-0.773806
Cl110	Cl	1.079565	-0.569500	-0.440472
Cl111	Cl	1.412899	-0.236166	-0.107139
Cl112	Cl	1.297659	-0.614376	-1.109304
Cl113	Cl	1.630992	-0.281043	-0.775970
Cl114	Cl	1.964325	0.052290	-0.442637
Cl115	Cl	1.123251	-0.885656	-1.178593
Cl116	Cl	1.456584	-0.552322	-0.845259
Cl117	Cl	1.789918	-0.218989	-0.511926
