data_functionalizedCrystal
_audit_creation_method	'MofGen! by Chris Wilmer'
_symmetry_space_group_name_H-M	'P1'
_symmetry_Int_Tables_number	1
_symmetry_cell_setting	triclinic
loop_
_symmetry_equiv_pos_as_xyz
  x,y,z
_cell_length_a	19.805407
_cell_length_b	12.759394
_cell_length_c	19.805399
_cell_angle_alpha	89.976320
_cell_angle_beta	89.984884
_cell_angle_gamma	90.011172
loop_
_atom_site_label
_atom_site_type_symbol
_atom_site_fract_x
_atom_site_fract_y
_atom_site_fract_z
Zn1	Zn	1.034777	-0.418351	-0.382713
Zn2	Zn	1.034722	-0.594049	-0.269535
Zn3	Zn	0.921597	-0.418377	-0.269541
Zn4	Zn	0.921580	-0.593981	-0.382685
O5	O	0.978169	-0.506190	-0.326118
O6	O	1.129486	-0.441676	-0.367708
O7	O	1.019700	-0.570785	-0.174819
O8	O	0.936640	-0.271352	-0.284567
O9	O	1.129446	-0.570761	-0.284557
O10	O	1.019793	-0.271334	-0.367714
O11	O	0.936587	-0.441719	-0.174823
O12	O	0.826878	-0.441653	-0.284541
O13	O	0.936611	-0.570644	-0.477405
O14	O	0.826865	-0.570668	-0.367667
O15	O	1.019777	-0.441610	-0.477426
O16	O	1.019683	-0.741061	-0.284531
O17	O	0.936558	-0.741011	-0.367662
C18	C	0.802313	-0.506157	-0.326102
C19	C	0.727081	-0.506168	-0.326111
C20	C	0.691758	-0.439073	-0.369474
C21	C	0.621070	-0.439078	-0.369476
C22	C	0.585705	-0.506185	-0.326119
C23	C	0.621033	-0.573283	-0.282752
C24	C	0.691720	-0.573272	-0.282746
C25	C	0.335959	-0.573330	-0.282772
C26	C	0.265267	-0.573339	-0.282783
C27	C	0.265309	-0.439137	-0.369502
C28	C	0.335997	-0.439125	-0.369497
C29	C	0.371318	-0.506219	-0.326127
C30	C	0.447966	-0.506211	-0.326124
C31	C	0.509058	-0.506199	-0.326125
C32	C	0.978131	-0.779157	-0.326107
C33	C	0.978177	-0.895934	-0.326125
C34	C	1.064699	-0.895756	-0.412771
C35	C	1.107982	-0.950528	-0.456099
C36	C	1.108022	-1.060250	-0.456113
C37	C	1.064774	-1.115202	-0.412797
C38	C	1.021491	-1.060430	-0.369469
C39	C	1.021457	-0.950706	-0.369457
C40	C	0.934966	-1.060607	-0.282827
C41	C	0.934929	-0.950886	-0.282808
C42	C	0.891718	-1.115559	-0.239511
C43	C	0.848438	-1.060787	-0.196178
C44	C	0.848400	-0.951059	-0.196165
C45	C	0.891646	-0.896114	-0.239480
C46	C	1.154711	-0.506223	-0.326135
C47	C	1.229943	-0.506238	-0.326142
C48	C	0.978198	-0.506117	-0.502661
C49	C	0.978211	-0.506086	-0.577893
C50	C	0.978225	-0.232156	-0.326144
C51	C	0.978249	-0.115379	-0.326155
C52	C	0.934947	-0.438875	-0.613239
C53	C	0.934956	-0.438854	-0.683928
C54	C	0.978234	-0.506040	-0.719269
C55	C	1.021500	-0.573259	-0.683918
C56	C	1.021487	-0.573284	-0.613231
C57	C	1.021553	-0.573160	-0.968991
C58	C	1.021565	-0.573128	-1.039684
C59	C	0.935023	-0.438731	-1.039688
C60	C	0.935010	-0.438756	-0.969001
C61	C	0.978273	-0.505978	-0.933656
C62	C	0.978262	-0.506000	-0.857008
C63	C	0.978249	-0.506013	-0.795916
C64	C	0.978178	-0.506186	-0.150262
C65	C	0.978297	-0.505921	-0.075031
H66	H	0.364709	-0.627964	-0.247459
H67	H	1.056734	-0.627968	-0.712699
H68	H	0.236542	-0.384502	-0.404814
H69	H	0.720547	-0.384429	-0.404782
C70	C	1.155540	-0.890085	-0.503757
H71	H	1.181315	-0.938421	-0.529570
H72	H	1.185035	-0.847262	-0.477897
H73	H	1.129602	-0.847297	-0.533221
H74	H	0.720478	-0.627907	-0.247435
C75	C	1.069169	-0.647041	-1.078558
H76	H	1.094929	-0.687087	-1.047385
H77	H	1.098675	-0.606849	-1.106139
H78	H	1.043265	-0.692800	-1.106126
H79	H	0.899709	-0.384158	-0.584469
H80	H	0.592233	-0.627918	-0.247446
C81	C	1.064658	-0.775066	-0.412756
H82	H	1.096609	-0.750183	-0.444761
H83	H	1.076374	-0.750269	-0.369084
H84	H	1.020962	-0.750287	-0.424429
C85	C	0.800872	-1.121234	-0.148537
H86	H	0.807095	-1.194424	-0.154751
H87	H	0.755383	-1.103292	-0.158399
H88	H	0.810803	-1.103291	-0.103062
H89	H	0.813152	-0.906469	-0.160885
H90	H	1.056774	-0.627908	-0.940222
C91	C	0.891603	-0.775423	-0.239472
H92	H	0.923553	-0.750545	-0.271478
H93	H	0.903319	-0.750618	-0.195802
H94	H	0.847906	-0.750648	-0.251146
C95	C	0.887423	-0.364803	-1.078569
H96	H	0.893620	-0.374417	-1.125729
H97	H	0.897338	-0.294217	-1.066996
H98	H	0.841940	-0.380185	-1.066974
H99	H	0.899723	-0.384128	-0.712703
H100	H	0.236475	-0.627988	-0.247473
C101	C	1.069076	-0.647213	-0.574347
H102	H	1.062865	-0.637614	-0.527187
H103	H	1.114560	-0.631848	-0.585935
H104	H	1.059151	-0.717800	-0.585924
C105	C	0.582218	-0.365275	-0.417177
H106	H	0.613404	-0.325317	-0.443003
H107	H	0.554638	-0.319447	-0.391339
H108	H	0.554650	-0.405535	-0.446627
H109	H	0.364787	-0.384483	-0.404805
H110	H	1.143259	-1.104845	-0.491402
C111	C	1.064816	-1.235892	-0.412816
H112	H	1.096788	-1.260642	-0.444823
H113	H	1.021139	-1.260753	-0.424485
H114	H	1.076559	-1.260741	-0.369148
C115	C	0.891758	-1.236250	-0.239525
H116	H	0.859800	-1.261130	-0.207527
H117	H	0.935450	-1.261035	-0.227858
H118	H	0.880034	-1.261043	-0.283199
C119	C	0.887402	-0.364856	-0.930129
H120	H	0.861631	-0.324831	-0.961305
H121	H	0.913295	-0.319093	-0.902559
H122	H	0.857896	-0.405062	-0.902550
