data_functionalizedCrystal
_audit_creation_method	'MofGen! by Chris Wilmer'
_symmetry_space_group_name_H-M	'P1'
_symmetry_Int_Tables_number	1
_symmetry_cell_setting	triclinic
loop_
_symmetry_equiv_pos_as_xyz
  x,y,z
_cell_length_a	29.839135
_cell_length_b	18.215405
_cell_length_c	29.839111
_cell_angle_alpha	90.118719
_cell_angle_beta	90.064854
_cell_angle_gamma	90.026712
loop_
_atom_site_label
_atom_site_type_symbol
_atom_site_fract_x
_atom_site_fract_y
_atom_site_fract_z
Zn1	Zn	-0.686989	0.292315	-0.254052
Zn2	Zn	-0.686879	0.415576	-0.178922
Zn3	Zn	-0.611808	0.292532	-0.178930
Zn4	Zn	-0.611841	0.415349	-0.254019
O5	O	-0.649379	0.353943	-0.216481
O6	O	-0.749842	0.308671	-0.244097
O7	O	-0.676860	0.399440	-0.116056
O8	O	-0.621813	0.189519	-0.188912
O9	O	-0.749760	0.399230	-0.188899
O10	O	-0.677048	0.189360	-0.244104
O11	O	-0.621705	0.309040	-0.116061
O12	O	-0.548945	0.308819	-0.188880
O13	O	-0.621870	0.398842	-0.316891
O14	O	-0.548970	0.399052	-0.244048
O15	O	-0.677081	0.308450	-0.316915
O16	O	-0.676893	0.518530	-0.188867
O17	O	-0.621763	0.518363	-0.244041
C18	C	-0.532657	0.353935	-0.216461
C19	C	-0.482722	0.353949	-0.216463
C20	C	-0.173118	0.306851	-0.245262
C21	C	0.014555	0.306852	-0.245274
O22	O	0.038786	0.266795	-0.269740
N23	N	0.038063	0.353930	-0.216494
C24	C	0.014650	0.401008	-0.187707
O25	O	0.038951	0.441045	-0.163225
C26	C	-0.173022	0.401002	-0.187693
C27	C	-0.196528	0.353926	-0.216478
C28	C	-0.196624	0.259778	-0.274045
C29	C	-0.243539	0.259781	-0.274043
C30	C	-0.266949	0.306857	-0.245259
C31	C	-0.243443	0.353929	-0.216477
C32	C	-0.196435	0.448076	-0.158904
C33	C	-0.243356	0.448069	-0.158902
C34	C	-0.266861	0.400993	-0.187687
C35	C	-0.313769	0.401008	-0.187691
N36	N	-0.337277	0.353930	-0.216471
C37	C	-0.313867	0.306854	-0.245255
C38	C	0.113180	0.401008	-0.187717
C39	C	0.160098	0.401011	-0.187721
C40	C	0.160000	0.306854	-0.245288
C41	C	0.113081	0.306855	-0.245286
C42	C	0.089672	0.353930	-0.216497
C43	C	-0.412393	0.306864	-0.245250
C44	C	-0.459312	0.306874	-0.245247
C45	C	-0.459210	0.401028	-0.187679
C46	C	-0.412295	0.401021	-0.187683
C47	C	-0.388887	0.353934	-0.216470
O48	O	-0.338029	0.441038	-0.163235
O49	O	-0.338176	0.266811	-0.269727
C50	C	-0.126203	0.306848	-0.245264
C51	C	-0.102697	0.353920	-0.216481
C52	C	-0.126107	0.400996	-0.187697
C53	C	-0.055779	0.353923	-0.216485
C54	C	-0.032369	0.306847	-0.245269
C55	C	-0.055877	0.259769	-0.274050
C56	C	-0.102793	0.259772	-0.274048
C57	C	-0.102599	0.448074	-0.158917
C58	C	-0.055683	0.448068	-0.158921
C59	C	-0.032274	0.400992	-0.187706
C60	C	-0.649332	0.545149	-0.216459
C61	C	-0.649353	0.626948	-0.216465
C62	C	-0.649492	0.353597	-0.333660
C63	C	-0.649540	0.353449	-0.383594
C64	C	0.233442	0.353946	-0.216500
C65	C	0.183508	0.353935	-0.216505
C66	C	-0.649439	0.161990	-0.216512
C67	C	-0.649465	0.080191	-0.216526
C68	C	-0.678126	0.815205	-0.187789
C69	C	-0.678146	0.892063	-0.187800
C70	C	-0.620690	0.891929	-0.245205
C71	C	-0.620672	0.815072	-0.245196
C72	C	-0.649390	0.776712	-0.216486
C73	C	-0.649427	0.930428	-0.216505
C74	C	-0.649449	1.013761	-0.216517
C75	C	-0.649369	0.693373	-0.216474
C76	C	-0.649293	0.354235	-0.099758
C77	C	-0.649332	0.354175	-0.049824
C78	C	-0.677977	0.306370	0.306634
C79	C	-0.677919	0.306579	0.118961
O80	O	-0.702166	0.266273	0.094586
N81	N	-0.649376	0.354008	0.095621
C82	C	-0.620843	0.401385	0.119203
O83	O	-0.596561	0.441726	0.095045
C84	C	-0.620899	0.401171	0.306875
C85	C	-0.649448	0.353744	0.330212
C86	C	-0.706523	0.258946	0.329971
C87	C	-0.706539	0.258897	0.376886
C88	C	-0.678009	0.306271	0.400464
C89	C	-0.649464	0.353695	0.377127
C90	C	-0.592365	0.448543	0.330456
C91	C	-0.592381	0.448484	0.377377
C92	C	-0.620929	0.401057	0.400714
C93	C	-0.620950	0.401020	0.447621
N94	N	-0.649493	0.353591	0.470960
C95	C	-0.678023	0.306217	0.447382
C96	C	-0.620816	0.401495	0.020672
C97	C	-0.620802	0.401549	-0.026245
C98	C	-0.677878	0.306743	-0.026484
C99	C	-0.677893	0.306692	0.020434
C100	C	-0.649359	0.354066	0.044012
C101	C	-0.678055	0.306118	0.545908
C102	C	-0.678069	0.306075	0.592827
C103	C	-0.620993	0.400878	0.593062
C104	C	-0.620979	0.400924	0.546147
C105	C	-0.649512	0.353538	0.522571
O106	O	-0.596712	0.441299	0.472025
O107	O	-0.702294	0.265871	0.471548
C108	C	-0.677961	0.306419	0.259718
C109	C	-0.649415	0.353842	0.236381
C110	C	-0.620886	0.401217	0.259959
C111	C	-0.649402	0.353897	0.189463
C112	C	-0.677931	0.306522	0.165885
C113	C	-0.706474	0.259093	0.189224
C114	C	-0.706490	0.259044	0.236140
C115	C	-0.592343	0.448646	0.236620
C116	C	-0.592329	0.448692	0.189705
C117	C	-0.620859	0.401317	0.166126
H118	H	-0.177568	0.221439	-0.297485
H119	H	-0.569083	0.487319	0.170708
H120	H	-0.597309	0.923172	-0.268579
H121	H	-0.478449	0.268538	-0.268689
H122	H	-0.597580	0.440077	0.039865
H123	H	-0.597737	0.439550	0.527145
H124	H	-0.597272	0.783729	-0.268566
Cl125	Cl	-0.714229	0.766983	-0.151697
H126	H	-0.393340	0.268519	-0.268690
H127	H	-0.729706	0.220522	0.170019
H128	H	-0.393155	0.439363	-0.164249
Cl129	Cl	-0.742381	0.199417	0.265471
Cl130	Cl	-0.272781	0.507254	-0.122709
H131	H	0.094125	0.439345	-0.164272
H132	H	-0.597766	0.439452	0.612268
Cl133	Cl	-0.714274	0.940451	-0.151724
Cl134	Cl	-0.166896	0.507246	-0.122705
Cl135	Cl	-0.273082	0.200593	-0.310231
H136	H	-0.121927	0.221437	-0.297488
H137	H	-0.478279	0.439357	-0.164245
Cl138	Cl	-0.742427	0.199266	0.406217
H139	H	-0.701318	0.267454	0.611826
Cl140	Cl	-0.556473	0.508208	0.266254
H141	H	0.179068	0.268523	-0.268725
Cl142	Cl	0.083536	0.247670	-0.281473
H143	H	-0.701287	0.267529	0.526718
Cl144	Cl	-0.026439	0.200591	-0.310236
H145	H	-0.729755	0.220364	0.310778
H146	H	-0.569118	0.487163	0.311463
H147	H	-0.701139	0.268072	0.039432
H148	H	0.179233	0.439353	-0.164286
Cl149	Cl	-0.713742	0.247185	-0.056134
H150	H	-0.036549	0.486410	-0.135482
Cl151	Cl	-0.584919	0.461186	-0.055578
Cl152	Cl	-0.556506	0.508043	0.407014
Cl153	Cl	-0.132021	0.507254	-0.122723
