data_functionalizedCrystal
_audit_creation_method	'MofGen! by Chris Wilmer'
_symmetry_space_group_name_H-M	'P1'
_symmetry_Int_Tables_number	1
_symmetry_cell_setting	triclinic
loop_
_symmetry_equiv_pos_as_xyz
  x,y,z
_cell_length_a	15.021413
_cell_length_b	10.489741
_cell_length_c	10.489741
_cell_angle_alpha	84.539174
_cell_angle_beta	90.001586
_cell_angle_gamma	90.009462
loop_
_atom_site_label
_atom_site_type_symbol
_atom_site_fract_x
_atom_site_fract_y
_atom_site_fract_z
O1	O	0.073976	-1.694034	-0.179959
O2	O	0.073990	-1.322838	-0.196851
O3	O	0.073978	-1.516882	-0.002807
O4	O	0.073989	-1.499990	-0.374003
O5	O	-0.074086	-1.516905	-0.002820
O6	O	-0.074074	-1.322861	-0.196864
O7	O	-0.074088	-1.694057	-0.179971
Zn8	Zn	-0.097589	-1.508463	-0.188419
Zn9	Zn	0.097492	-1.508432	-0.188403
O10	O	-0.074075	-1.500012	-0.374015
C11	C	-0.000040	-1.275318	-0.195582
C12	C	-0.000035	-1.133688	-0.191765
N13	N	-0.230727	-1.508492	-0.188430
C14	C	-0.000054	-1.515618	0.044718
C15	C	-0.000052	-1.511801	0.186348
C16	C	-0.470392	-1.598236	-0.098683
C17	C	-0.529718	-1.482746	-0.072851
C18	C	-0.412334	-1.508463	-0.188414
C19	C	-0.529750	-1.623924	-0.214170
C20	C	-0.587758	-1.508444	-0.188395
C21	C	-0.470353	-1.392914	-0.162524
C22	C	-0.470380	-1.534168	-0.303894
C23	C	-0.529679	-1.418595	-0.278110
C24	C	-0.311276	-1.508475	-0.188421
C25	C	-0.688813	-1.508419	-0.188388
N26	N	0.230629	-1.508412	-0.188383
C27	C	-0.000055	-1.741577	-0.181241
C28	C	-0.000055	-1.883206	-0.185058
C29	C	-0.000047	-1.065548	-0.068300
C30	C	0.072956	-0.973410	-0.126617
C31	C	-0.073023	-0.973467	-0.126659
C32	C	0.073029	-1.043416	-0.250133
C33	C	-0.073017	-1.043482	-0.250157
C34	C	0.000004	-0.951371	-0.308564
C35	C	-0.000042	-1.501277	-0.421541
C36	C	-0.000038	-1.505094	-0.563170
C37	C	-0.000041	-1.388336	0.254488
C38	C	-0.073046	-1.446671	0.346604
C39	C	0.072933	-1.446678	0.346591
C40	C	-0.073118	-1.570186	0.276599
C41	C	0.072927	-1.570176	0.276576
C42	C	-0.000096	-1.628600	0.368665
H43	H	-0.444360	-1.674074	-0.022758
C44	C	-0.156418	-1.376117	0.388500
H45	H	-0.156328	-1.290756	0.349038
H46	H	-0.208261	-1.419167	0.363377
H47	H	-0.156086	-1.374875	0.478938
C48	C	-0.564635	-1.315920	-0.380609
H49	H	-0.544186	-1.233979	-0.362091
H50	H	-0.543419	-1.333488	-0.462433
H51	H	-0.627874	-1.316933	-0.380513
H52	H	-0.555782	-1.460988	0.024816
C53	C	0.156504	-1.085032	-0.320636
H54	H	0.191318	-1.011791	-0.347669
H55	H	0.190630	-1.142272	-0.264541
H56	H	0.139059	-1.126694	-0.393211
C57	C	-0.435131	-1.563604	-0.435788
H58	H	-0.400334	-1.493598	-0.471846
H59	H	-0.399449	-1.638659	-0.426132
H60	H	-0.483870	-1.576702	-0.490766
C61	C	0.000061	-1.132665	0.068812
H62	H	0.052000	-1.108846	0.112471
H63	H	-0.051272	-1.107738	0.113138
H64	H	-0.000455	-1.222839	0.065405
C65	C	-0.156403	-0.931628	-0.056078
H66	H	-0.190783	-0.874940	-0.112399
H67	H	-0.191005	-1.004850	-0.028284
H68	H	-0.138851	-0.889258	0.015994
H69	H	-0.444372	-1.295239	-0.140620
H70	H	0.134673	-0.942386	-0.074372
C71	C	-0.564994	-1.755837	-0.243620
H72	H	-0.544683	-1.819522	-0.179792
H73	H	-0.628226	-1.754661	-0.244178
H74	H	-0.543796	-1.774721	-0.325051
H75	H	0.000047	-0.901947	-0.410168
H76	H	-0.134737	-1.074537	-0.302360
C77	C	-0.000120	-1.251205	0.187418
H78	H	0.051778	-1.238465	0.136021
H79	H	-0.051494	-1.239096	0.134852
H80	H	-0.000679	-1.191449	0.250017
H81	H	-0.134908	-1.622391	0.245761
C82	C	-0.000155	-1.765848	0.435447
H83	H	-0.052062	-1.809500	0.411489
H84	H	0.051210	-1.810029	0.410412
H85	H	0.000331	-1.762682	0.525653
H86	H	0.134648	-1.622363	0.245537
H87	H	0.134660	-1.394412	0.377560
