data_functionalizedCrystal
_audit_creation_method	'MofGen! by Chris Wilmer'
_symmetry_space_group_name_H-M	'P1'
_symmetry_Int_Tables_number	1
_symmetry_cell_setting	triclinic
loop_
_symmetry_equiv_pos_as_xyz
  x,y,z
_cell_length_a	23.532355
_cell_length_b	10.065875
_cell_length_c	11.026607
_cell_angle_alpha	79.268236
_cell_angle_beta	84.293243
_cell_angle_gamma	81.316254
loop_
_atom_site_label
_atom_site_type_symbol
_atom_site_fract_x
_atom_site_fract_y
_atom_site_fract_z
O1	O	0.777206	-0.113300	-0.128935
O2	O	0.613587	-0.113342	-0.150281
O3	O	0.681836	-0.113319	0.036876
O4	O	0.708957	-0.113322	-0.316092
O5	O	0.668836	0.113665	0.001045
O6	O	0.600587	0.113643	-0.186112
O7	O	0.764207	0.113685	-0.164765
Zn8	Zn	0.680333	0.149702	-0.181127
Zn9	Zn	0.697460	-0.149359	-0.133919
O10	O	0.695958	0.113662	-0.351923
C11	C	0.585815	0.000145	-0.167662
C12	C	0.522428	0.000128	-0.166055
N13	N	0.668648	0.353804	-0.213345
N14	N	0.709149	-0.353461	-0.101692
C15	C	0.122265	0.123915	-0.175512
C16	C	0.062704	0.123920	-0.173986
O17	O	0.025872	0.229146	-0.189766
N18	N	0.040002	0.000191	-0.153698
C19	C	0.076863	-0.123551	-0.134922
O20	O	0.052084	-0.228791	-0.117524
C21	C	0.136422	-0.123555	-0.136439
C22	C	0.159121	0.000182	-0.156741
C23	C	0.144964	0.247642	-0.195811
C24	C	0.204520	0.247636	-0.197339
C25	C	0.241377	0.123903	-0.178568
C26	C	0.218678	0.000176	-0.158269
C27	C	0.173282	-0.247295	-0.117655
C28	C	0.232844	-0.247289	-0.119173
C29	C	0.255543	-0.123552	-0.139475
C30	C	0.315091	-0.123562	-0.141026
N31	N	0.337793	0.000167	-0.161315
C32	C	0.300936	0.123899	-0.180085
C33	C	-0.048215	-0.123533	-0.131734
C34	C	-0.107772	-0.123531	-0.130226
C35	C	-0.121927	0.123941	-0.169288
C36	C	-0.062368	0.123937	-0.170805
C37	C	-0.025513	0.000196	-0.152023
C38	C	0.426009	0.123878	-0.183294
C39	C	0.485572	0.123861	-0.184825
C40	C	0.499721	-0.123610	-0.145757
C41	C	0.440164	-0.123594	-0.144232
C42	C	0.403309	0.000161	-0.162998
O43	O	0.351957	-0.228734	-0.125251
O44	O	0.325723	0.229122	-0.197465
C45	C	0.791979	0.000195	-0.147384
C46	C	0.855366	0.000203	-0.148990
C47	C	0.670333	0.000170	0.064110
C48	C	0.655418	0.000161	0.198639
C49	C	0.693390	0.421591	-0.145121
C50	C	0.684403	0.578755	-0.169926
C51	C	0.707461	0.000170	-0.379156
C52	C	0.722377	0.000170	-0.513684
C53	C	0.696601	0.000170	0.272957
C54	C	0.681187	0.000161	0.412000
H55	H	0.504049	0.224627	-0.201362
O56	O	0.742392	0.576997	-0.010143
C57	C	0.798790	0.611573	-0.034175
H58	H	0.797748	0.715397	-0.097078
H59	H	0.817044	0.616119	0.056712
H60	H	0.827182	0.531165	-0.081590
O61	O	-0.040419	0.244255	-0.190478
C62	C	-0.085726	0.353456	-0.206754
H63	H	-0.127680	0.317173	-0.161575
H64	H	-0.075891	0.439998	-0.162002
H65	H	-0.090245	0.391500	-0.309842
H66	H	0.396008	0.224651	-0.198586
H67	H	0.608747	0.000140	0.237953
O68	O	0.268659	-0.367461	-0.100723
C69	C	0.299240	-0.374858	0.004522
H70	H	0.274268	-0.304634	0.067270
H71	H	0.304727	-0.484293	0.057019
H72	H	0.343453	-0.341632	-0.025617
O73	O	-0.157767	0.244106	-0.187283
C74	C	-0.196954	0.251476	-0.082596
H75	H	-0.177993	0.181253	0.001392
H76	H	-0.205340	0.360907	-0.064601
H77	H	-0.239217	0.218232	-0.099925
O78	O	0.226468	0.367957	-0.217011
C79	C	0.181158	0.477152	-0.233276
H80	H	0.139206	0.440861	-0.188093
H81	H	0.190993	0.563693	-0.188523
H82	H	0.176635	0.515200	-0.336363
H83	H	0.721225	0.363276	-0.068343
O84	O	0.651141	0.648461	-0.261380
C85	C	0.604613	0.731095	-0.210067
H86	H	0.616210	0.752353	-0.118207
H87	H	0.595148	0.831637	-0.276571
H88	H	0.564857	0.676119	-0.193930
H89	H	0.640809	0.412121	-0.290114
O90	O	0.752291	0.000363	0.226189
C91	C	0.772781	0.117941	0.247594
H92	H	0.746098	0.157132	0.328947
H93	H	0.819879	0.091508	0.269772
H94	H	0.768935	0.200258	0.161375
O95	O	0.625530	0.000202	0.459074
C96	C	0.622531	0.000158	0.587426
H97	H	0.661438	0.043142	0.610759
H98	H	0.581303	0.066044	0.615532
H99	H	0.622427	-0.108742	0.639776
O100	O	0.778082	-0.000054	0.439535
C101	C	0.812042	-0.117586	0.498099
H102	H	0.783456	-0.199763	0.537071
H103	H	0.846309	-0.157034	0.427967
H104	H	0.833821	-0.091001	0.576611
O105	O	0.109114	0.367757	-0.214192
C106	C	0.078559	0.375189	-0.319481
H107	H	0.077212	0.267762	-0.337292
H108	H	0.032715	0.427579	-0.303076
H109	H	0.101042	0.436234	-0.403214
O110	O	-0.129725	-0.243851	-0.110448
C111	C	-0.084414	-0.353051	-0.094244
H112	H	-0.045610	-0.316769	-0.062685
H113	H	-0.099080	-0.439594	-0.021296
H114	H	-0.071913	-0.391095	-0.185646
H115	H	0.154811	-0.348055	-0.101121
O116	O	0.418205	-0.243910	-0.124463
C117	C	0.463512	-0.353119	-0.108269
H118	H	0.502319	-0.316850	-0.076707
H119	H	0.448844	-0.439664	-0.035325
H120	H	0.476010	-0.391154	-0.199675
O121	O	-0.012349	-0.243657	-0.113686
C122	C	0.026823	-0.251084	-0.218389
H123	H	0.031041	-0.143656	-0.270567
H124	H	0.070730	-0.303472	-0.187584
H125	H	0.010374	-0.312130	-0.281679
H126	H	0.529741	-0.224349	-0.130479
