data_functionalizedCrystal
_audit_creation_method	'MofGen! by Chris Wilmer'
_symmetry_space_group_name_H-M	'P1'
_symmetry_Int_Tables_number	1
_symmetry_cell_setting	triclinic
loop_
_symmetry_equiv_pos_as_xyz
  x,y,z
_cell_length_a	8.597340
_cell_length_b	8.559649
_cell_length_c	13.448316
_cell_angle_alpha	89.994831
_cell_angle_beta	97.695380
_cell_angle_gamma	77.625043
loop_
_atom_site_label
_atom_site_type_symbol
_atom_site_fract_x
_atom_site_fract_y
_atom_site_fract_z
O1	O	2.053705	0.238032	0.093272
O2	O	1.594580	0.256296	0.053933
O3	O	1.864592	0.015194	0.077069
O4	O	1.783694	0.479134	0.070136
O5	O	1.864564	0.015178	0.242451
O6	O	1.594552	0.256281	0.219315
O7	O	2.053677	0.238016	0.258653
Cu8	Cu	1.824112	0.247147	0.254085
Cu9	Cu	1.824145	0.247165	0.058502
O10	O	1.783665	0.479119	0.235517
C11	C	1.536332	0.254328	0.131634
C12	C	1.362816	0.248466	0.116767
C13	C	1.870709	-0.044248	0.160284
C14	C	1.888957	-0.221343	0.161842
C15	C	2.111925	0.239985	0.180950
C16	C	2.285441	0.245847	0.195811
C17	C	1.777549	0.538561	0.152301
C18	C	1.759300	0.715656	0.150736
N19	N	1.824100	0.247133	0.391648
N20	N	1.824171	0.247167	-0.079060
C21	C	1.943689	0.140418	0.453935
C22	C	1.943698	0.140417	0.558039
C23	C	1.824125	0.247140	0.599855
C24	C	1.704524	0.353860	0.537559
C25	C	1.704509	0.353852	0.433456
C26	C	1.704566	0.353871	0.754543
C27	C	1.704583	0.353882	0.858653
C28	C	1.943756	0.140436	0.879126
C29	C	1.943741	0.140429	0.775023
C30	C	1.824141	0.247151	0.712735
H31	H	2.013932	-0.302898	0.172558
H32	H	1.607126	0.440748	0.382742
O33	O	1.593758	-0.176341	0.136558
H34	H	1.527473	-0.200144	0.063479
H35	H	1.607171	0.440771	0.703829
H36	H	2.041065	0.053519	0.419898
O37	O	2.072702	0.025311	0.729922
H38	H	2.140731	0.093676	0.688309
O39	O	2.072714	0.025336	0.625215
H40	H	2.067782	-0.099324	0.604816
O41	O	2.072749	0.025312	0.946298
H42	H	2.052663	0.043226	1.025712
H43	H	1.607212	0.440785	0.892692
O44	O	1.373524	0.248827	0.300525
H45	H	1.315244	0.356186	0.338779
O46	O	1.274737	0.245508	0.012043
H47	H	1.147695	0.241231	0.016398
H48	H	1.607158	0.440751	0.571610
