data_functionalizedCrystal
_audit_creation_method	'MofGen! by Chris Wilmer'
_symmetry_space_group_name_H-M	'P1'
_symmetry_Int_Tables_number	1
_symmetry_cell_setting	triclinic
loop_
_symmetry_equiv_pos_as_xyz
  x,y,z
_cell_length_a	12.759401
_cell_length_b	16.625545
_cell_length_c	12.759393
_cell_angle_alpha	89.966045
_cell_angle_beta	89.981425
_cell_angle_gamma	90.025984
loop_
_atom_site_label
_atom_site_type_symbol
_atom_site_fract_x
_atom_site_fract_y
_atom_site_fract_z
Zn1	Zn	1.606176	-0.320945	-0.593968
Zn2	Zn	1.606037	-0.455801	-0.418281
Zn3	Zn	1.430478	-0.320987	-0.418307
Zn4	Zn	1.430433	-0.455740	-0.593922
O5	O	1.518281	-0.388368	-0.506119
O6	O	1.753178	-0.338841	-0.570671
O7	O	1.582709	-0.437962	-0.271263
O8	O	1.453861	-0.208149	-0.441639
O9	O	1.753076	-0.437920	-0.441594
O10	O	1.582946	-0.208118	-0.570696
O11	O	1.453727	-0.338915	-0.271282
O12	O	1.283451	-0.338855	-0.441594
O13	O	1.453785	-0.437815	-0.740949
O14	O	1.283418	-0.437857	-0.570618
O15	O	1.582902	-0.338782	-0.740983
O16	O	1.582666	-0.568626	-0.441550
O17	O	1.453650	-0.568580	-0.570592
C18	C	1.245313	-0.388354	-0.506104
C19	C	1.128537	-0.388368	-0.506123
C20	C	1.073729	-0.336871	-0.573437
C21	C	0.964005	-0.336879	-0.573444
C22	C	0.963907	-0.439888	-0.438820
C23	C	1.073629	-0.439875	-0.438809
C24	C	1.518167	-0.597859	-0.506086
C25	C	1.518214	-0.687480	-0.506107
C26	C	1.518255	-0.760263	-0.506128
C27	C	1.518316	-0.851571	-0.506151
C28	C	1.518370	-0.924348	-0.506164
C29	C	1.518431	-1.015662	-0.506186
C30	C	1.792314	-0.388383	-0.506135
C31	C	1.909091	-0.388389	-0.506141
C32	C	1.518354	-0.388287	-0.780153
C33	C	1.518385	-0.388252	-0.896929
C34	C	1.518424	-0.178059	-0.506175
C35	C	1.518485	-0.088438	-0.506199
C36	C	1.451248	-0.336669	-0.951801
C37	C	1.451273	-0.336644	-1.061525
C38	C	1.585581	-0.439788	-1.061497
C39	C	1.585550	-0.439816	-0.951774
C40	C	1.518268	-0.388391	-0.233152
C41	C	1.518441	-0.388199	-0.116376
H42	H	1.118255	-0.481811	-0.383988
C43	C	1.659406	-0.496559	-0.891411
H44	H	1.699422	-0.527257	-0.939788
H45	H	1.619179	-0.531697	-0.848595
H46	H	1.705195	-0.465723	-0.848622
H47	H	0.919385	-0.294944	-0.628256
H48	H	1.118432	-0.294927	-0.628245
C49	C	0.903509	-0.496550	-0.364788
H50	H	0.951869	-0.527214	-0.324690
H51	H	0.860711	-0.531723	-0.404901
H52	H	0.860699	-0.465667	-0.319082
C53	C	1.377354	-0.279964	-0.891475
H54	H	1.337365	-0.249247	-0.939873
H55	H	1.417545	-0.244842	-0.848680
H56	H	1.331543	-0.310828	-0.848666
H57	H	1.396602	-0.294640	-1.106197
H58	H	1.640264	-0.481769	-1.106165
