data_functionalizedCrystal
_audit_creation_method	'MofGen! by Chris Wilmer'
_symmetry_space_group_name_H-M	'P1'
_symmetry_Int_Tables_number	1
_symmetry_cell_setting	triclinic
loop_
_symmetry_equiv_pos_as_xyz
  x,y,z
_cell_length_a	10.654550
_cell_length_b	8.140239
_cell_length_c	10.654550
_cell_angle_alpha	90.003375
_cell_angle_beta	84.484931
_cell_angle_gamma	89.999482
loop_
_atom_site_label
_atom_site_type_symbol
_atom_site_fract_x
_atom_site_fract_y
_atom_site_fract_z
O1	O	1.667838	0.136490	0.176397
O2	O	1.302360	0.136520	0.193203
O3	O	1.493502	0.136494	0.002061
O4	O	1.476696	0.136516	0.367539
O5	O	1.493491	-0.136733	0.002059
O6	O	1.302349	-0.136707	0.193201
O7	O	1.667828	-0.136737	0.176395
Zn8	Zn	1.485087	-0.180102	0.184798
Zn9	Zn	1.485101	0.179886	0.184800
O10	O	1.476685	-0.136711	0.367537
C11	C	1.255556	-0.000089	0.191968
C12	C	1.116113	-0.000078	0.188276
N13	N	1.485086	-0.425785	0.184795
C14	C	1.036628	-0.000076	0.300818
C15	C	0.905607	-0.000105	0.297341
C16	C	0.933570	-0.000131	0.068772
C17	C	1.064588	-0.000114	0.072250
C18	C	1.714631	-0.000123	0.177630
C19	C	1.854074	-0.000124	0.181322
C20	C	1.492263	-0.000118	-0.044738
C21	C	1.488571	-0.000115	-0.184181
N22	N	1.485111	0.425569	0.184793
C23	C	1.601112	-0.000124	-0.263667
C24	C	1.597636	-0.000104	-0.394688
C25	C	1.369066	-0.000073	-0.366725
C26	C	1.372544	-0.000081	-0.235706
C27	C	1.477925	-0.000094	0.414336
C28	C	1.481617	-0.000086	0.553779
H29	H	1.078574	-0.000059	0.395294
C30	C	1.241448	-0.000059	-0.423407
H31	H	1.255493	-0.000073	-0.512821
H32	H	1.195061	0.095223	-0.396187
H33	H	1.195063	-0.095350	-0.396195
H34	H	0.840894	-0.000106	0.388984
C35	C	1.152034	-0.000114	-0.051549
H36	H	1.237442	-0.000117	-0.032857
H37	H	1.136304	0.095156	-0.099081
H38	H	1.136315	-0.095416	-0.099071
C39	C	0.876894	-0.000150	-0.058850
H40	H	0.943001	-0.000163	-0.125378
H41	H	0.826358	0.095125	-0.064958
H42	H	0.826372	-0.095448	-0.064958
H43	H	1.695588	-0.000148	-0.221720
H44	H	1.689279	-0.000107	-0.459401
C45	C	1.248742	-0.000077	-0.148266
H46	H	1.179143	-0.000079	-0.197715
H47	H	1.245356	0.095200	-0.096567
H48	H	1.245347	-0.095373	-0.096584
