data_functionalizedCrystal
_audit_creation_method	'MofGen! by Chris Wilmer'
_symmetry_space_group_name_H-M	'P1'
_symmetry_Int_Tables_number	1
_symmetry_cell_setting	triclinic
loop_
_symmetry_equiv_pos_as_xyz
  x,y,z
_cell_length_a	12.759395
_cell_length_b	19.805404
_cell_length_c	19.805399
_cell_angle_alpha	89.970203
_cell_angle_beta	89.981995
_cell_angle_gamma	90.029915
loop_
_atom_site_label
_atom_site_type_symbol
_atom_site_fract_x
_atom_site_fract_y
_atom_site_fract_z
Zn1	Zn	-1.606117	0.269469	0.382681
Zn2	Zn	-1.605976	0.382657	0.269488
Zn3	Zn	-1.430429	0.269488	0.269509
Zn4	Zn	-1.430363	0.382622	0.382638
O5	O	-1.518221	0.326059	0.326079
O6	O	-1.753120	0.284490	0.367675
O7	O	-1.582658	0.367668	0.174774
O8	O	-1.453821	0.174769	0.284548
O9	O	-1.753016	0.367649	0.284513
O10	O	-1.582899	0.174755	0.367695
O11	O	-1.453684	0.284523	0.174789
O12	O	-1.283399	0.284490	0.284506
O13	O	-1.453709	0.367589	0.477360
O14	O	-1.283351	0.367608	0.367622
O15	O	-1.582835	0.284456	0.477392
O16	O	-1.582594	0.477369	0.284471
O17	O	-1.453572	0.477343	0.367602
C18	C	-1.245254	0.326048	0.326062
C19	C	-1.128477	0.326059	0.326071
C20	C	-1.518089	0.501915	0.326045
C21	C	-1.518129	0.577147	0.326053
C22	C	-1.518280	0.326017	0.502622
C23	C	-1.518305	0.325998	0.577854
C24	C	-1.128465	0.412751	0.412479
C25	C	-1.073599	0.456102	0.455684
C26	C	-0.963877	0.456109	0.455690
C27	C	-0.909020	0.412759	0.412488
C28	C	-0.963886	0.369408	0.369283
C29	C	-1.073611	0.369408	0.369280
C30	C	-0.963898	0.282714	0.282879
C31	C	-1.073620	0.282710	0.282868
C32	C	-0.909041	0.239365	0.239677
C33	C	-0.963907	0.196017	0.196467
C34	C	-1.073635	0.196012	0.196463
C35	C	-1.128486	0.239359	0.239663
C36	C	-0.792255	0.326068	0.326092
C37	C	-0.909031	0.326065	0.326084
C38	C	-1.518383	0.149516	0.326128
C39	C	-1.518451	0.074284	0.326149
C40	C	-1.585575	1.038872	0.369469
C41	C	-1.585533	0.968183	0.369453
C42	C	-1.518362	0.932909	0.326121
C43	C	-1.451236	0.968327	0.282796
C44	C	-1.451284	1.039014	0.282809
C45	C	-1.451044	0.683253	0.282744
C46	C	-1.450999	0.612561	0.282736
C47	C	-1.585293	0.612423	0.369388
C48	C	-1.585341	0.683110	0.369401
C49	C	-1.518219	0.718522	0.326074
C50	C	-1.518266	0.795170	0.326090
C51	C	-1.518309	0.856262	0.326107
C52	C	-1.518223	0.326053	0.150223
C53	C	-1.518402	0.325880	0.074991
C54	C	-1.585543	0.282709	0.613215
C55	C	-1.585554	0.282689	0.683904
C56	C	-1.518332	0.325963	0.719229
C57	C	-1.451087	0.369255	0.683863
C58	C	-1.451071	0.369270	0.613176
C59	C	-1.451146	0.369192	0.968936
C60	C	-1.451169	0.369174	1.039628
C61	C	-1.585628	0.282610	1.039665
C62	C	-1.585613	0.282626	0.968977
C63	C	-1.518365	0.325915	0.933617
C64	C	-1.518352	0.325935	0.856968
C65	C	-1.518348	0.325947	0.795877
H66	H	-1.217807	0.412755	0.412473
H67	H	-1.118276	0.491395	0.490860
O68	O	-0.910737	0.498278	0.497684
C69	C	-0.922292	0.584229	0.583428
C70	C	-0.982603	0.536522	0.535891
H71	H	-0.980369	0.615153	0.614341
H72	H	-0.870904	0.619626	0.552323
H73	H	-0.870939	0.553188	0.618847
H74	H	-1.034012	0.567510	0.500462
H75	H	-1.033924	0.501124	0.567038
H76	H	-0.919234	0.160722	0.161299
O77	O	-1.386025	1.073490	0.240824
C78	C	-1.244201	1.153362	0.231648
C79	C	-1.318054	1.114373	0.279276
H80	H	-1.189213	1.186414	0.262718
H81	H	-1.292436	1.186496	0.196302
H82	H	-1.196231	1.115997	0.200660
H83	H	-1.366041	1.151689	0.310307
H84	H	-1.269759	1.081229	0.314577
O85	O	-1.386012	0.411284	1.073974
C86	C	-1.371811	0.502622	1.153783
C87	C	-1.445712	0.454987	1.114918
H88	H	-1.420047	0.537958	1.186907
H89	H	-1.323762	0.533613	1.116397
H90	H	-1.316897	0.471521	1.186853
H91	H	-1.500689	0.486035	1.081847
H92	H	-1.493687	0.423994	1.152341
H93	H	-1.118301	0.160706	0.161284
H94	H	-1.217827	0.239362	0.239662
O95	O	-0.802458	0.239263	0.239742
C96	C	-0.645050	0.174401	0.257219
C97	C	-0.765754	0.174425	0.257190
H98	H	-0.615338	0.121981	0.271310
H99	H	-0.615200	0.212793	0.295540
H100	H	-0.615251	0.188407	0.204777
H101	H	-0.795642	0.160402	0.309604
H102	H	-0.795532	0.136047	0.218834
O103	O	-0.802437	0.412870	0.412560
C104	C	-0.644975	0.460413	0.460011
C105	C	-0.765679	0.460368	0.459989
H106	H	-0.615220	0.498801	0.498363
H107	H	-0.615086	0.474427	0.407590
H108	H	-0.615259	0.408001	0.474127
H109	H	-0.795484	0.512765	0.445902
H110	H	-0.795497	0.446317	0.512415
H111	H	-1.396309	0.404514	0.584385
H112	H	-1.640263	1.067587	0.404762
H113	H	-1.640381	0.247360	1.068463
H114	H	-1.639951	0.583583	0.404665
H115	H	-1.640191	0.939350	0.404727
O116	O	-1.650878	0.240608	0.579008
C117	C	-1.784289	0.154769	0.586513
C118	C	-1.710335	0.202406	0.625334
H119	H	-1.832396	0.123881	0.623950
H120	H	-1.736130	0.119338	0.553442
H121	H	-1.839146	0.185864	0.553397
H122	H	-1.655464	0.171365	0.658486
H123	H	-1.758560	0.237839	0.658361
H124	H	-1.396404	0.404450	0.940154
H125	H	-1.396349	0.404487	0.712631
O126	O	-1.650691	0.717270	0.411515
C127	C	-1.783855	0.709670	0.497488
C128	C	-1.709913	0.670902	0.449819
H129	H	-1.831740	0.672199	0.528480
H130	H	-1.838910	0.742733	0.466482
H131	H	-1.735593	0.742789	0.532828
H132	H	-1.758090	0.637747	0.414470
H133	H	-1.654855	0.637882	0.480868
O134	O	-1.385604	0.578369	0.240671
C135	C	-1.206911	0.556835	0.207724
C136	C	-1.280848	0.595612	0.255389
H137	H	-1.122199	0.570751	0.219616
H138	H	-1.225341	0.570768	0.153149
H139	H	-1.218462	0.500234	0.215151
H140	H	-1.269338	0.652221	0.248023
H141	H	-1.262399	0.581623	0.309947
O142	O	-1.386093	0.934095	0.240608
C143	C	-1.335127	0.912611	0.125445
C144	C	-1.408992	0.951404	0.173144
H145	H	-1.353600	0.926602	0.070891
H146	H	-1.346618	0.855997	0.132818
H147	H	-1.250419	0.926551	0.137323
H148	H	-1.493728	0.937521	0.161296
H149	H	-1.397410	1.008009	0.165762
O150	O	-1.385774	0.717716	0.240760
C151	C	-1.243921	0.797568	0.231597
C152	C	-1.317802	0.758592	0.279218
H153	H	-1.188932	0.830615	0.262672
H154	H	-1.292133	0.830705	0.196242
H155	H	-1.195952	0.760194	0.200619
H156	H	-1.365787	0.795918	0.310240
H157	H	-1.269529	0.725445	0.314529
O158	O	-1.650715	0.240559	0.718279
C159	C	-1.664942	0.149169	0.798128
C160	C	-1.591029	0.196836	0.759232
H161	H	-1.616717	0.113816	0.831258
H162	H	-1.712962	0.118198	0.760762
H163	H	-1.719882	0.180244	0.831194
H164	H	-1.536026	0.165814	0.726164
H165	H	-1.543083	0.227810	0.796634
H166	H	-1.640356	0.247390	0.940219
