data_functionalizedCrystal
_audit_creation_method	'MofGen! by Chris Wilmer'
_symmetry_space_group_name_H-M	'P1'
_symmetry_Int_Tables_number	1
_symmetry_cell_setting	triclinic
loop_
_symmetry_equiv_pos_as_xyz
  x,y,z
_cell_length_a	12.827893
_cell_length_b	15.297327
_cell_length_c	12.827885
_cell_angle_alpha	99.642528
_cell_angle_beta	89.980728
_cell_angle_gamma	99.706564
loop_
_atom_site_label
_atom_site_type_symbol
_atom_site_fract_x
_atom_site_fract_y
_atom_site_fract_z
Zn1	Zn	1.525602	-0.359116	-0.662774
Zn2	Zn	2.025602	0.140884	-0.162774
Zn3	Zn	1.495216	-0.510001	-0.518254
Zn4	Zn	1.995216	-0.010001	-0.018254
Zn5	Zn	1.350834	-0.359160	-0.488056
Zn6	Zn	1.850834	0.140840	0.011944
Zn7	Zn	1.320562	-0.509933	-0.692940
Zn8	Zn	1.820562	-0.009933	-0.192940
O9	O	1.423054	-0.434552	-0.590506
O10	O	1.923054	0.065448	-0.090506
O11	O	1.667805	-0.379141	-0.643616
O12	O	2.167805	0.120859	-0.143616
O13	O	1.476016	-0.490038	-0.368021
O14	O	1.976016	0.009962	0.131979
O15	O	1.399403	-0.232909	-0.485970
O16	O	1.899403	0.267091	0.014030
O17	O	1.645481	-0.489995	-0.537438
O18	O	2.145481	0.010005	-0.037438
O19	O	1.527804	-0.232876	-0.614334
O20	O	2.027804	0.267124	-0.114334
O21	O	1.369939	-0.379216	-0.345835
O22	O	1.869939	0.120784	0.154165
O23	O	1.200585	-0.379151	-0.515222
O24	O	1.700585	0.120849	-0.015222
O25	O	1.347809	-0.489880	-0.835165
O26	O	1.847809	0.010120	-0.335165
O27	O	1.178344	-0.489923	-0.665749
O28	O	1.678344	0.010077	-0.165749
O29	O	1.498450	-0.379075	-0.813002
O30	O	1.998450	0.120925	-0.313002
O31	O	1.446662	-0.636237	-0.566689
O32	O	1.946662	-0.136237	-0.066689
O33	O	1.318345	-0.636187	-0.695031
O34	O	1.818345	-0.136187	-0.195031
C35	C	1.151547	-0.434535	-0.590483
C36	C	1.651547	0.065465	-0.090483
C37	C	1.035391	-0.434549	-0.590502
C38	C	1.535391	0.065451	-0.090502
C39	C	0.972612	-0.489449	-0.664907
C40	C	1.472612	0.010551	-0.164907
C41	C	0.852558	-0.489465	-0.664928
C42	C	1.352558	0.010535	-0.164928
C43	C	1.375950	-0.668946	-0.637433
C44	C	1.875950	-0.168946	-0.137433
C45	C	1.355894	-0.769221	-0.657543
C46	C	1.855894	-0.269221	-0.157543
C47	C	1.566825	-1.051857	-0.447130
C48	C	2.066825	-0.551857	0.052870
C49	C	1.585667	-0.957644	-0.428230
C50	C	2.085667	-0.457644	0.071770
C51	C	1.528226	-0.910533	-0.485557
C52	C	2.028226	-0.410533	0.014443
C53	C	1.451938	-0.957645	-0.561787
C54	C	1.951938	-0.457645	-0.061787
C55	C	1.433088	-1.051868	-0.580683
C56	C	1.933088	-0.551868	-0.080683
C57	C	1.394489	-0.910544	-0.619110
C58	C	1.894489	-0.410544	-0.119110
C59	C	1.318201	-0.957656	-0.695340
C60	C	1.818201	-0.457656	-0.195340
C61	C	1.299355	-1.051869	-0.714233
C62	C	1.799355	-0.551869	-0.214233
C63	C	1.356796	-1.098980	-0.656906
C64	C	1.856796	-0.598980	-0.156906
C65	C	1.413340	-0.816322	-0.600214
C66	C	1.913340	-0.316322	-0.100214
C67	C	1.279603	-0.816333	-0.733766
C68	C	1.779603	-0.316333	-0.233766
C69	C	1.260760	-0.910546	-0.752667
C70	C	1.760760	-0.410546	-0.252667
C71	C	1.695620	-0.434571	-0.590530
C72	C	2.195620	0.065429	-0.090530
C73	C	1.811772	-0.434578	-0.590541
C74	C	2.311772	0.065422	-0.090541
C75	C	1.423142	-0.434465	-0.863059
C76	C	1.923142	0.065535	-0.363059
C77	C	1.423180	-0.434428	-0.979205
C78	C	1.923180	0.065572	-0.479205
C79	C	1.470370	-0.199243	-0.543419
C80	C	1.970370	0.300757	-0.043419
C81	C	1.490533	-0.098969	-0.523353
C82	C	1.990533	0.401031	-0.023353
C83	C	1.475682	-0.489244	-1.041963
C84	C	1.975682	0.010756	-0.541963
C85	C	1.475722	-0.489207	-1.162006
C86	C	1.975722	0.010793	-0.662006
C87	C	1.423039	-0.434574	-0.319001
C88	C	1.923039	0.065426	0.180999
C89	C	1.423254	-0.434358	-0.202805
C90	C	1.923254	0.065642	0.297195
H91	H	0.865712	-0.387578	-0.526833
H92	H	1.365712	0.112422	-0.026833
H93	H	1.237224	-1.090225	-0.776292
H94	H	1.737224	-0.590225	-0.276292
H95	H	1.520669	-0.536137	-1.215935
H96	H	2.020669	-0.036137	-0.715935
H97	H	1.000261	-0.387556	-0.526821
H98	H	1.500261	0.112444	-0.026821
H99	H	1.613579	-1.090222	-0.400456
H100	H	2.113579	-0.590222	0.099544
H101	H	1.378300	-0.387428	-1.148882
H102	H	1.878300	0.112572	-0.648882
H103	H	1.007743	-0.536435	-0.728595
H104	H	1.507743	-0.036435	-0.228595
H105	H	1.647779	-0.919289	-0.366163
H106	H	2.147779	-0.419289	0.133837
H107	H	1.198645	-0.948918	-0.814733
H108	H	1.698645	-0.448918	-0.314733
H109	H	1.475454	-0.777972	-0.538146
H110	H	1.975454	-0.277972	-0.038146
H111	H	1.341461	-1.175696	-0.672293
H112	H	1.841461	-0.675696	-0.172293
H113	H	0.798611	-0.536469	-0.728627
H114	H	1.298611	-0.036469	-0.228627
H115	H	1.543572	-0.833821	-0.470163
H116	H	2.043572	-0.333821	0.029837
H117	H	1.378267	-0.387466	-1.014345
H118	H	1.878267	0.112534	-0.514345
H119	H	1.232827	-0.777976	-0.780445
H120	H	1.732827	-0.277976	-0.280445
H121	H	1.520605	-0.536198	-1.006821
H122	H	2.020605	-0.036198	-0.506821
