data_functionalizedCrystal
_audit_creation_method	'MofGen! by Chris Wilmer'
_symmetry_space_group_name_H-M	'P1'
_symmetry_Int_Tables_number	1
_symmetry_cell_setting	triclinic
loop_
_symmetry_equiv_pos_as_xyz
  x,y,z
_cell_length_a	10.654553
_cell_length_b	14.472311
_cell_length_c	10.654550
_cell_angle_alpha	90.008494
_cell_angle_beta	84.485540
_cell_angle_gamma	90.004543
loop_
_atom_site_label
_atom_site_type_symbol
_atom_site_fract_x
_atom_site_fract_y
_atom_site_fract_z
O1	O	1.667837	0.076849	0.176426
O2	O	1.302359	0.076848	0.193228
O3	O	1.493501	0.076845	0.002088
O4	O	1.476695	0.076852	0.367567
O5	O	1.493488	-0.076837	0.002064
O6	O	1.302346	-0.076834	0.193204
O7	O	1.667824	-0.076833	0.176402
Cu8	Cu	1.485084	-0.090866	0.184801
Cu9	Cu	1.485100	0.090881	0.184830
O10	O	1.476682	-0.076830	0.367542
C11	C	1.255555	0.000007	0.191982
C12	C	1.116112	0.000007	0.188288
C13	C	0.919564	-0.083759	0.183061
C14	C	1.050585	-0.083764	0.186539
C15	C	1.050609	0.083788	0.186573
C16	C	0.919590	0.083793	0.183104
C17	C	0.919552	-0.180494	0.183037
C18	C	1.050572	-0.180499	0.186514
N19	N	1.485082	-0.218697	0.184780
C20	C	1.485101	-0.592788	0.184820
C21	C	1.587715	-0.553595	0.082893
C22	C	1.587442	-0.446507	0.082511
C23	C	1.485092	-0.407197	0.184800
C24	C	1.353811	-0.446089	0.155037
C25	C	1.354417	-0.553210	0.154315
C26	C	1.512590	-0.553290	0.316804
C27	C	1.515557	-0.446162	0.315948
C28	C	1.485079	-0.302309	0.184791
C29	C	1.485105	-0.697676	0.184827
C30	C	1.714628	0.000010	0.177649
C31	C	1.854072	0.000016	0.181342
C32	C	1.492261	0.000005	-0.044722
C33	C	1.488569	0.000008	-0.184165
N34	N	1.485111	0.218712	0.184841
C35	C	1.601110	0.000006	-0.263650
C36	C	1.597634	0.000012	-0.394670
C37	C	1.369064	0.000020	-0.366710
C38	C	1.372542	0.000020	-0.235691
C39	C	1.733073	-0.000003	-0.279794
C40	C	1.729596	0.000004	-0.410815
C41	C	1.477922	0.000012	0.414352
C42	C	1.481614	0.000015	0.553796
H43	H	1.096853	-0.217638	0.099711
H44	H	1.437775	-0.578641	0.392670
H45	H	1.784694	0.064309	-0.250425
O46	O	1.263102	-0.000011	-0.158660
C47	C	1.036026	0.000065	-0.144758
C48	C	1.159876	0.000079	-0.232141
H49	H	0.952536	0.000157	-0.204132
H50	H	1.031835	-0.064265	-0.082754
H51	H	1.032027	0.064367	-0.082683
H52	H	1.163959	-0.064179	-0.294294
H53	H	1.164017	0.064451	-0.294059
H54	H	1.684992	-0.420211	0.100403
H55	H	0.866269	0.152010	0.181720
O56	O	1.566348	-0.415783	-0.034232
C57	C	1.541888	-0.283693	-0.167372
C58	C	1.565859	-0.318360	-0.035117
H59	H	1.541458	-0.204923	-0.168123
H60	H	1.619600	-0.310087	-0.239497
H61	H	1.446762	-0.310415	-0.192384
H62	H	1.660946	-0.291653	-0.009985
H63	H	1.488073	-0.291975	0.036933
O64	O	1.324284	-0.414000	0.041570
C65	C	1.177605	-0.327044	-0.070337
C66	C	1.210902	-0.363305	0.058252
H67	H	1.085921	-0.286066	-0.056897
H68	H	1.256650	-0.280408	-0.113231
H69	H	1.165557	-0.387878	-0.136099
H70	H	1.222930	-0.302528	0.124110
H71	H	1.131843	-0.409969	0.101044
H72	H	1.769483	0.066360	-0.456447
H73	H	1.606335	-0.580299	0.345127
O74	O	1.788889	-0.076791	-0.460443
C75	C	1.900561	-0.216656	-0.419253
C76	C	1.833428	-0.129740	-0.362880
H77	H	1.936613	-0.259480	-0.340403
H78	H	1.831477	-0.259598	-0.470231
H79	H	1.983378	-0.195196	-0.488884
H80	H	1.750617	-0.151118	-0.293198
H81	H	1.902594	-0.086819	-0.311980
O82	O	1.567103	-0.585811	-0.033270
C83	C	1.649678	-0.672718	-0.215745
C84	C	1.673178	-0.636312	-0.084196
H85	H	1.735433	-0.713539	-0.256969
H86	H	1.563222	-0.719535	-0.207510
H87	H	1.633006	-0.611964	-0.280184
H88	H	1.689907	-0.697008	-0.019685
H89	H	1.759605	-0.589467	-0.092529
H90	H	1.330364	-0.578207	0.058026
H91	H	1.274599	0.000030	-0.408679
O92	O	1.783121	-0.079119	-0.237074
C93	C	1.840608	-0.164120	-0.056754
C94	C	1.783882	-0.074483	-0.104962
H95	H	1.841266	-0.160394	0.050060
H96	H	1.781391	-0.225670	-0.082473
H97	H	1.941254	-0.172631	-0.102187
H98	H	1.683245	-0.065884	-0.059556
H99	H	1.843190	-0.012980	-0.079261
O100	O	1.704521	-0.584112	0.104117
C101	C	1.914838	-0.542578	0.148292
C102	C	1.782608	-0.507916	0.124211
H103	H	1.978015	-0.480991	0.164518
H104	H	1.907417	-0.588982	0.235144
H105	H	1.956997	-0.583430	0.062942
H106	H	1.740372	-0.467024	0.209487
H107	H	1.790110	-0.461560	0.037312
H108	H	1.612138	-0.420743	0.338506
H109	H	1.445749	-0.419401	0.395439
O110	O	1.085797	-0.216474	0.295707
C111	C	1.083084	-0.349120	0.432613
C112	C	1.043139	-0.308507	0.308906
H113	H	1.048588	-0.423528	0.443338
H114	H	1.190247	-0.347546	0.430487
H115	H	1.039912	-0.306321	0.515651
H116	H	1.086223	-0.351273	0.225803
H117	H	0.935968	-0.310065	0.311142
O118	O	1.114376	0.165105	0.188450
C119	C	1.248969	0.262363	0.301044
C120	C	1.176839	0.170228	0.299064
H121	H	1.299466	0.266544	0.390479
H122	H	1.321118	0.266563	0.214997
H123	H	1.179635	0.322226	0.299156
H124	H	1.246077	0.110313	0.300994
H125	H	1.104672	0.166109	0.385102
O126	O	1.260448	-0.584268	0.239270
C127	C	1.069048	-0.673276	0.273142
C128	C	1.175412	-0.638185	0.176821
H129	H	1.000254	-0.716858	0.222686
H130	H	1.111063	-0.717097	0.347562
H131	H	1.017037	-0.611787	0.320486
H132	H	1.227462	-0.699618	0.129384
H133	H	1.133321	-0.594335	0.102480
O134	O	0.864100	-0.224591	0.286637
C135	C	0.669489	-0.274160	0.400696
C136	C	0.732139	-0.224362	0.283191
H137	H	0.562789	-0.273975	0.397962
H138	H	0.704771	-0.348487	0.402016
H139	H	0.694536	-0.236824	0.489155
H140	H	0.707120	-0.261621	0.194669
H141	H	0.696856	-0.150032	0.281983
H142	H	0.889976	-0.210508	0.091434
H143	H	1.275565	-0.420627	0.227252
