data_functionalizedCrystal
_audit_creation_method	'MofGen! by Chris Wilmer'
_symmetry_space_group_name_H-M	'P1'
_symmetry_Int_Tables_number	1
_symmetry_cell_setting	triclinic
loop_
_symmetry_equiv_pos_as_xyz
  x,y,z
_cell_length_a	11.026607
_cell_length_b	15.995350
_cell_length_c	10.065875
_cell_angle_alpha	98.791555
_cell_angle_beta	79.302338
_cell_angle_gamma	96.039196
loop_
_atom_site_label
_atom_site_type_symbol
_atom_site_fract_x
_atom_site_fract_y
_atom_site_fract_z
O1	O	1.627917	0.340991	-0.113481
O2	O	2.127917	0.840991	0.386519
O3	O	1.274611	0.301065	-0.113484
O4	O	1.774611	0.801065	0.386516
O5	O	1.460922	0.200596	-0.113481
O6	O	1.960922	0.700596	0.386519
O7	O	1.441606	0.441460	-0.113484
O8	O	1.941606	0.941460	0.386516
O9	O	1.425395	0.219853	0.113507
O10	O	1.925395	0.719853	0.613507
O11	O	1.239084	0.320322	0.113504
O12	O	1.739084	0.820322	0.613504
O13	O	1.592390	0.360247	0.113508
O14	O	2.092390	0.860247	0.613508
Zn15	Zn	1.410096	0.343342	0.149545
Zn16	Zn	1.910096	0.843342	0.649545
Zn17	Zn	1.456905	0.317971	-0.149522
Zn18	Zn	1.956905	0.817971	0.350478
O19	O	1.406079	0.460716	0.113504
O20	O	1.906079	0.960716	0.613504
C21	C	1.211637	0.303328	0.000010
C22	C	1.711637	0.803328	0.500010
C23	C	1.076923	0.281371	0.000008
C24	C	1.576923	0.781371	0.500008
C25	C	1.003118	0.341997	0.000007
C26	C	1.503118	0.841997	0.500007
C27	C	0.863884	0.319305	0.000005
C28	C	1.363884	0.819305	0.500005
C29	C	1.442360	0.178909	0.000011
C30	C	1.942360	0.678909	0.500011
C31	C	1.439967	0.085597	0.000003
C32	C	1.939967	0.585597	0.500003
C33	C	1.431369	-0.253446	0.000007
C34	C	1.931369	0.246554	0.500007
C35	C	1.298762	-0.226055	-0.000503
C36	C	1.798762	0.273945	0.499497
C37	C	1.301076	-0.128960	0.000009
C38	C	1.801076	0.371040	0.500009
C39	C	1.435634	-0.085243	0.000004
C40	C	1.935634	0.414757	0.500004
C41	C	1.480793	-0.105459	0.129624
C42	C	1.980793	0.394541	0.629624
C43	C	1.477442	-0.202588	0.129732
C44	C	1.977442	0.297412	0.629732
C45	C	1.520584	-0.224432	-0.128396
C46	C	2.020584	0.275568	0.371604
C47	C	1.520821	-0.127636	-0.130109
C48	C	2.020821	0.372364	0.369891
C49	C	1.438051	0.009819	0.000007
C50	C	1.938051	0.509819	0.500007
C51	C	1.428955	-0.348507	0.000014
C52	C	1.928955	0.151493	0.500014
C53	C	1.655365	0.357984	0.000011
C54	C	2.155365	0.857984	0.500011
C55	C	1.790080	0.379940	0.000003
C56	C	2.290080	0.879940	0.500003
C57	C	1.424641	0.482403	0.000010
C58	C	1.924641	0.982403	0.500010
C59	C	1.427036	0.575714	0.000009
C60	C	1.927036	1.075714	0.500009
N61	N	1.378160	0.360658	0.353650
N62	N	1.878160	0.860658	0.853650
N63	N	1.488851	0.300649	-0.353627
N64	N	1.988851	0.800649	0.146373
C65	C	1.445785	0.323989	0.421430
C66	C	1.945785	0.823989	0.921430
C67	C	1.421215	0.337324	0.578597
C68	C	1.921215	0.837324	1.078597
H69	H	1.264174	-0.116175	-0.092908
H70	H	1.764174	0.383825	0.407092
H71	H	1.260276	-0.260465	-0.093456
H72	H	1.760276	0.239535	0.406544
H73	H	1.345120	0.378589	0.636917
H74	H	1.845120	0.878589	1.136917
H75	H	0.829963	0.448650	0.000012
H76	H	1.329963	0.948650	0.500012
H77	H	1.043008	0.410702	0.000014
H78	H	1.543008	0.910702	0.500014
H79	H	1.420240	-0.075746	0.226085
H80	H	1.920240	0.424254	0.726085
H81	H	1.573939	-0.219655	0.135610
H82	H	2.073939	0.280345	0.635610
H83	H	1.234718	-0.101006	0.093083
H84	H	1.734718	0.398994	0.593083
H85	H	1.037037	0.212664	-0.000026
H86	H	1.537037	0.712664	0.499974
H87	H	1.492579	-0.259845	-0.226640
H88	H	1.992579	0.240155	0.273360
H89	H	1.302069	0.401920	0.411975
H90	H	1.802069	0.901920	0.911975
H91	H	1.564938	0.259377	0.588054
H92	H	2.064938	0.759377	1.088054
H93	H	0.824003	0.250594	-0.000029
H94	H	1.324003	0.750594	0.499971
H95	H	1.231496	-0.245765	0.091931
H96	H	1.731496	0.254235	0.591931
H97	H	1.578894	-0.076025	0.134441
H98	H	2.078894	0.423975	0.634441
H99	H	1.521868	0.282719	0.363107
H100	H	2.021868	0.782719	0.863107
H101	H	1.620171	-0.098149	-0.137938
H102	H	2.120171	0.401851	0.362062
H103	H	1.414554	-0.219863	0.226628
H104	H	1.914554	0.280137	0.726628
H105	H	1.487979	-0.115735	-0.225998
H106	H	1.987979	0.384265	0.274002
H107	H	1.618551	-0.241521	-0.129270
H108	H	2.118551	0.258479	0.370730
