data_functionalizedCrystal
_audit_creation_method	'MofGen! by Chris Wilmer'
_symmetry_space_group_name_H-M	'P1'
_symmetry_Int_Tables_number	1
_symmetry_cell_setting	triclinic
loop_
_symmetry_equiv_pos_as_xyz
  x,y,z
_cell_length_a	14.044220
_cell_length_b	14.044220
_cell_length_c	8.140239
_cell_angle_alpha	89.995422
_cell_angle_beta	90.002157
_cell_angle_gamma	93.188878
loop_
_atom_site_label
_atom_site_type_symbol
_atom_site_fract_x
_atom_site_fract_y
_atom_site_fract_z
O1	O	1.277166	0.230166	-0.136445
O2	O	1.610499	0.563499	0.196888
O3	O	1.943832	0.896833	0.530221
O4	O	1.000494	0.221860	-0.136487
O5	O	1.333827	0.555194	0.196847
O6	O	1.667161	0.888527	0.530180
O7	O	1.134677	0.087677	-0.136450
O8	O	1.468010	0.421011	0.196883
O9	O	1.801344	0.754344	0.530216
O10	O	1.142983	0.364349	-0.136482
O11	O	1.476316	0.697682	0.196852
O12	O	1.809649	1.031015	0.530185
O13	O	1.134669	0.087675	0.136777
O14	O	1.468002	0.421008	0.470110
O15	O	1.801335	0.754342	0.803443
O16	O	1.000486	0.221858	0.136740
O17	O	1.333819	0.555191	0.470074
O18	O	1.667153	0.888525	0.803407
O19	O	1.277157	0.230164	0.136782
O20	O	1.610491	0.563497	0.470115
O21	O	1.943824	0.896830	0.803448
Zn22	Zn	1.138820	0.226010	0.180142
Zn23	Zn	1.472154	0.559344	0.513475
Zn24	Zn	1.805487	0.892677	0.846809
Zn25	Zn	1.138831	0.226013	-0.179847
Zn26	Zn	1.472164	0.559347	0.153487
Zn27	Zn	1.805498	0.892680	0.486820
O28	O	1.142974	0.364346	0.136746
O29	O	1.476308	0.697680	0.470079
O30	O	1.809641	1.031013	0.803412
C31	C	0.964868	0.218223	0.000122
C32	C	1.298201	0.551557	0.333455
C33	C	1.631535	0.884890	0.666788
C34	C	0.858725	0.207379	0.000106
C35	C	1.192059	0.540712	0.333440
C36	C	1.525392	0.874045	0.666773
C37	C	1.131037	0.052054	0.000163
C38	C	1.464371	0.385388	0.333497
C39	C	1.797704	0.718721	0.666830
C40	C	1.120193	-0.054088	0.000164
C41	C	1.453526	0.279245	0.333497
C42	C	1.786859	0.612578	0.666830
C43	C	0.664388	0.187553	0.000141
C44	C	0.997721	0.520886	0.333475
C45	C	1.331054	0.854219	0.666808
C46	C	0.613258	0.264467	0.000140
C47	C	0.946591	0.597800	0.333473
C48	C	1.279924	0.931134	0.666806
C49	C	0.505122	0.253435	0.000159
C50	C	0.838455	0.586769	0.333492
C51	C	1.171788	0.920102	0.666826
C52	C	0.772534	0.198583	0.000122
C53	C	1.105867	0.531916	0.333455
C54	C	1.439200	0.865249	0.666789
C55	C	1.100366	-0.248426	0.000137
C56	C	1.433700	0.084907	0.333470
C57	C	1.767033	0.418241	0.666804
C58	C	1.177281	-0.299556	0.000144
C59	C	1.510614	0.033777	0.333477
C60	C	1.843947	0.367111	0.666810
C61	C	1.166249	-0.407692	0.000129
C62	C	1.499583	-0.074359	0.333462
C63	C	1.832916	0.258974	0.666796
C64	C	1.111397	-0.140280	0.000152
C65	C	1.444730	0.193053	0.333485
C66	C	1.778063	0.526387	0.666819
C67	C	1.312783	0.233800	0.000170
C68	C	1.646117	0.567134	0.333503
C69	C	1.979450	0.900467	0.666836
C70	C	1.418926	0.244645	0.000174
C71	C	1.752259	0.577978	0.333508
C72	C	2.085593	0.911312	0.666841
C73	C	1.146614	0.399969	0.000128
C74	C	1.479948	0.733303	0.333462
C75	C	1.813281	1.066636	0.666795
C76	C	1.157459	0.506112	0.000117
C77	C	1.490792	0.839446	0.333450
C78	C	1.824125	1.172779	0.666784
N79	N	1.138820	0.226008	0.425824
N80	N	1.472153	0.559342	0.759158
N81	N	1.805487	0.892675	1.092491
N82	N	1.138839	0.226009	-0.425529
N83	N	1.472172	0.559342	-0.092196
N84	N	1.805505	0.892675	0.241137
H85	H	0.650697	0.338600	0.000123
H86	H	0.984030	0.671934	0.333457
H87	H	1.317364	1.005267	0.666790
H88	H	1.251414	-0.262117	0.000044
H89	H	1.584748	0.071217	0.333378
H90	H	1.918081	0.404550	0.666711
H91	H	0.626951	0.113425	0.000159
H92	H	0.960284	0.446758	0.333492
H93	H	1.293617	0.780092	0.666825
O94	O	1.002170	-0.298006	0.000148
O95	O	1.335504	0.035327	0.333481
O96	O	1.668837	0.368660	0.666815
H97	H	1.008808	-0.376391	0.000162
H98	H	1.342141	-0.043057	0.333496
H99	H	1.675474	0.290276	0.666829
