data_functionalizedCrystal
_audit_creation_method	'MofGen! by Chris Wilmer'
_symmetry_space_group_name_H-M	'P1'
_symmetry_Int_Tables_number	1
_symmetry_cell_setting	triclinic
loop_
_symmetry_equiv_pos_as_xyz
  x,y,z
_cell_length_a	10.654562
_cell_length_b	10.540539
_cell_length_c	9.730223
_cell_angle_alpha	90.000775
_cell_angle_beta	89.996961
_cell_angle_gamma	84.507798
loop_
_atom_site_label
_atom_site_type_symbol
_atom_site_fract_x
_atom_site_fract_y
_atom_site_fract_z
O1	O	1.667887	0.178372	-0.114373
O2	O	1.302417	0.195342	-0.114356
O3	O	1.493490	0.002148	-0.114363
O4	O	1.476814	0.371566	-0.114366
O5	O	1.493488	0.002153	0.114217
O6	O	1.302415	0.195347	0.114224
O7	O	1.667885	0.178377	0.114207
Zn8	Zn	1.485150	0.186863	0.150507
Zn9	Zn	1.485153	0.186856	-0.150656
O10	O	1.476812	0.371571	0.114214
C11	C	1.255618	0.194095	-0.000063
C12	C	1.116174	0.190357	-0.000057
C13	C	1.050641	0.188616	0.124531
C14	C	0.919618	0.185114	0.124508
C15	C	0.919670	0.185099	-0.124702
C16	C	1.050693	0.188592	-0.124678
C17	C	1.050609	0.188630	0.268411
C18	C	0.919586	0.185128	0.268388
C19	C	1.492239	-0.045152	-0.000076
C20	C	1.488497	-0.186099	-0.000083
C21	C	1.345126	-0.369481	-0.000589
C22	C	1.348919	-0.222864	-0.000075
C23	C	1.555667	-0.247775	0.130444
C24	C	1.550903	-0.394318	0.130555
C25	C	1.553744	-0.394843	-0.129384
C26	C	1.555030	-0.247861	-0.131110
C27	C	1.714685	0.179624	-0.000089
C28	C	1.854128	0.183362	-0.000104
C29	C	1.478064	0.418871	-0.000076
C30	C	1.481805	0.559818	-0.000078
N31	N	1.485157	0.186866	0.356044
N32	N	1.485155	0.186843	-0.356193
C33	C	1.569786	0.101349	0.427967
C34	C	1.569783	0.101334	0.571850
C35	C	1.400517	0.272364	0.571874
C36	C	1.400515	0.272372	0.427994
C37	C	1.667514	0.002610	0.427953
C38	C	1.667511	0.002594	0.571836
H39	H	1.296067	-0.180246	-0.093641
Br40	Br	1.285638	0.388412	0.330381
H41	H	1.096838	0.100902	0.323665
Br42	Br	1.631721	-0.160015	0.362850
Br43	Br	1.724642	-0.207537	-0.144270
Br44	Br	1.478441	-0.447393	-0.294278
H45	H	1.505882	-0.206989	-0.227670
Br46	Br	1.721777	-0.473607	-0.130859
Br47	Br	1.285648	0.388399	0.669528
Br48	Br	1.099969	0.342941	0.342814
Br49	Br	0.870184	0.030964	0.343124
Br50	Br	1.616585	-0.151077	0.646218
Br51	Br	0.842479	0.331347	0.360450
H52	H	1.758708	0.033532	0.383322
H53	H	1.104047	0.189990	-0.226129
Br54	Br	1.253221	-0.417116	-0.156604
Br55	Br	1.253331	-0.420403	0.154082
Br56	Br	1.828379	0.038837	0.636929
H57	H	1.295694	-0.181089	0.093653
H58	H	0.866340	0.183662	-0.226164
H59	H	1.501260	-0.422500	0.228131
H60	H	1.658169	-0.225453	0.135293
Br61	Br	1.718207	-0.474328	0.140434
H62	H	1.509005	-0.205159	0.227583
