data_functionalizedCrystal
_audit_creation_method	'MofGen! by Chris Wilmer'
_symmetry_space_group_name_H-M	'P1'
_symmetry_Int_Tables_number	1
_symmetry_cell_setting	triclinic
loop_
_symmetry_equiv_pos_as_xyz
  x,y,z
_cell_length_a	20.453700
_cell_length_b	9.582860
_cell_length_c	9.582880
_cell_angle_alpha	89.899908
_cell_angle_beta	68.792966
_cell_angle_gamma	68.793233
loop_
_atom_site_label
_atom_site_type_symbol
_atom_site_fract_x
_atom_site_fract_y
_atom_site_fract_z
V1	V	-1.385450	0.206425	0.466328
O2	O	-1.366784	-0.010569	0.457733
O3	O	-1.382153	0.409930	0.462867
O4	O	-1.382153	0.202964	0.669833
O5	O	-1.366784	0.197829	0.249334
V6	V	-1.543333	0.180503	0.440407
O7	O	-1.479757	0.263285	0.523188
O8	O	-1.599093	0.123643	0.383546
O9	O	-1.472229	-0.023002	0.443867
O10	O	-1.601132	0.397497	0.449001
O11	O	-1.601132	0.189098	0.657401
O12	O	-1.472228	0.183964	0.236901
V13	V	-1.718784	0.206425	0.466328
O14	O	-1.700118	-0.010569	0.457733
O15	O	-1.715486	0.409930	0.462867
O16	O	-1.715486	0.202964	0.669833
O17	O	-1.700117	0.197829	0.249334
V18	V	-1.876667	0.180503	0.440407
O19	O	-1.813090	0.263285	0.523188
O20	O	-1.932426	0.123643	0.383546
O21	O	-1.805562	-0.023002	0.443867
O22	O	-1.934465	0.397497	0.449001
O23	O	-1.934466	0.189098	0.657401
O24	O	-1.805562	0.183964	0.236901
V25	V	-1.209995	0.180503	0.440407
O26	O	-1.228662	0.189098	0.657401
O27	O	-1.213292	0.183964	0.236901
O28	O	-1.213293	-0.023002	0.443867
O29	O	-1.228661	0.397497	0.449001
V30	V	-1.052112	0.206425	0.466328
O31	O	-1.115689	0.123643	0.383546
O32	O	-0.996353	0.263285	0.523188
O33	O	-1.123217	0.202964	0.669833
O34	O	-0.994313	0.197829	0.249334
O35	O	-0.994314	-0.010569	0.457733
O36	O	-1.123216	0.409930	0.462867
C37	C	-1.333193	0.459549	0.455441
C38	C	-1.357678	0.625916	0.453968
C39	C	-1.333193	0.195542	0.719445
C40	C	-1.357677	0.194059	0.885810
C41	C	-1.408969	-0.072614	0.451290
C42	C	-1.377565	-0.238979	0.452773
C43	C	-1.408969	0.191391	0.187282
C44	C	-1.377564	0.192866	0.020915
C45	C	-1.666527	0.459549	0.455441
C46	C	-1.691011	0.625916	0.453968
C47	C	-1.666527	0.195542	0.719445
C48	C	-1.691010	0.194059	0.885810
C49	C	-1.742303	-0.072614	0.451290
C50	C	-1.710898	-0.238979	0.452773
C51	C	-1.742302	0.191391	0.187282
C52	C	-1.710897	0.192866	0.020915
C53	C	-1.262252	0.191391	0.187282
C54	C	-1.237767	0.192867	0.020916
C55	C	-1.262253	-0.072613	0.451291
C56	C	-1.237770	-0.238978	0.452777
C57	C	-1.186477	0.195541	0.719445
C58	C	-1.217882	0.194057	0.885809
C59	C	-1.186477	0.459550	0.455443
C60	C	-1.217883	0.625918	0.453976
