data_functionalizedCrystal
_audit_creation_method	'MofGen! by Chris Wilmer'
_symmetry_space_group_name_H-M	'P1'
_symmetry_Int_Tables_number	1
_symmetry_cell_setting	triclinic
loop_
_symmetry_equiv_pos_as_xyz
  x,y,z
_cell_length_a	17.640112
_cell_length_b	16.625546
_cell_length_c	16.625539
_cell_angle_alpha	89.971468
_cell_angle_beta	101.178335
_cell_angle_gamma	101.247770
loop_
_atom_site_label
_atom_site_type_symbol
_atom_site_fract_x
_atom_site_fract_y
_atom_site_fract_z
Zn1	Zn	1.208323	-0.071554	-0.207110
Zn2	Zn	1.208236	-0.206410	-0.072290
Zn3	Zn	1.076154	-0.098864	-0.099504
Zn4	Zn	1.076117	-0.233642	-0.234283
O5	O	1.142208	-0.152618	-0.153297
O6	O	1.318917	-0.066617	-0.166465
O7	O	1.190695	-0.192177	0.036928
O8	O	1.093739	0.017602	-0.113795
O9	O	1.318853	-0.165695	-0.067414
O10	O	1.190842	0.037667	-0.192853
O11	O	1.093655	-0.113163	0.016934
O12	O	0.965544	-0.139569	-0.140143
O13	O	1.093675	-0.212108	-0.343507
O14	O	0.965517	-0.238590	-0.239165
O15	O	1.190806	-0.093022	-0.323543
O16	O	1.190659	-0.322866	-0.093762
O17	O	1.093591	-0.342873	-0.212777
C18	C	0.936852	-0.194998	-0.195556
C19	C	0.848999	-0.213149	-0.213654
C20	C	1.142133	-0.362124	-0.153278
C21	C	1.142173	-0.451737	-0.153283
C22	C	0.560026	-0.014719	-0.015816
C23	C	0.477475	-0.031790	-0.032833
C24	C	0.477501	-0.135043	-0.135767
C25	C	0.560054	-0.117977	-0.118761
C26	C	0.601309	-0.057815	-0.058785
C27	C	0.601337	-0.161074	-0.161730
C28	C	0.683882	-0.144012	-0.144723
C29	C	0.725144	-0.083855	-0.084747
C30	C	0.683854	-0.040754	-0.041778
C31	C	0.560080	-0.221239	-0.221702
C32	C	0.601363	-0.264336	-0.264670
C33	C	0.683910	-0.247271	-0.247668
C34	C	0.725171	-0.187113	-0.187692
C35	C	0.725199	-0.290372	-0.290637
C36	C	0.807744	-0.273310	-0.273630
C37	C	0.807716	-0.170052	-0.170685
C38	C	1.142311	-0.779884	-0.153338
C39	C	1.142270	-0.688584	-0.153325
C40	C	1.142242	-0.615813	-0.153310
C41	C	1.142202	-0.524507	-0.153298
C42	C	1.348366	-0.110072	-0.110873
C43	C	1.436218	-0.091941	-0.092795
C44	C	1.142246	-0.152556	-0.363598
C45	C	1.142263	-0.152530	-0.453216
C46	C	1.142304	0.057711	-0.153328
C47	C	1.142346	0.147341	-0.153342
C48	C	1.142276	-0.152510	-0.525995
C49	C	1.142294	-0.152476	-0.617300
C50	C	1.142313	-0.152444	-0.690073
C51	C	1.142333	-0.152410	-0.781383
C52	C	1.142215	-0.152611	0.056195
C53	C	1.142351	-0.152378	0.145844
H54	H	0.841309	-0.121050	-0.121858
H55	H	0.717447	0.008248	0.007049
Cl56	Cl	0.611897	0.060920	0.059579
Cl57	Cl	0.673325	-0.366016	-0.366017
H58	H	0.567761	-0.313322	-0.313501
Cl59	Cl	0.828916	-0.062409	-0.063361
Cl60	Cl	0.425579	0.022390	0.021198
Cl61	Cl	0.859647	-0.327491	-0.327646
H62	H	0.443900	-0.184029	-0.184597
H63	H	0.492866	-0.235129	-0.235547
