data_functionalizedCrystal
_audit_creation_method	'MofGen! by Chris Wilmer'
_symmetry_space_group_name_H-M	'P1'
_symmetry_Int_Tables_number	1
_symmetry_cell_setting	triclinic
loop_
_symmetry_equiv_pos_as_xyz
  x,y,z
_cell_length_a	21.395362
_cell_length_b	19.805405
_cell_length_c	21.395356
_cell_angle_alpha	89.972988
_cell_angle_beta	89.964230
_cell_angle_gamma	90.042288
loop_
_atom_site_label
_atom_site_type_symbol
_atom_site_fract_x
_atom_site_fract_y
_atom_site_fract_z
Zn1	Zn	0.957828	-0.269207	-0.354580
Zn2	Zn	0.957753	-0.382391	-0.249799
Zn3	Zn	0.853058	-0.269253	-0.249781
Zn4	Zn	0.853020	-0.382391	-0.354504
O5	O	0.905414	-0.325811	-0.302166
O6	O	1.045496	-0.284202	-0.340720
O7	O	0.943849	-0.367402	-0.162119
O8	O	0.867003	-0.174530	-0.263706
O9	O	1.045441	-0.367358	-0.263738
O10	O	0.943977	-0.174497	-0.340701
O11	O	0.866930	-0.284280	-0.162105
O12	O	0.765375	-0.284280	-0.263633
O13	O	0.866938	-0.367358	-0.442192
O14	O	0.765347	-0.367402	-0.340573
O15	O	0.943940	-0.284202	-0.442247
O16	O	0.943813	-0.477108	-0.263665
O17	O	0.866866	-0.477108	-0.340591
C18	C	0.742627	-0.325846	-0.302093
C19	C	0.672985	-0.325878	-0.302077
C20	C	0.905344	-0.501667	-0.302136
C21	C	0.905371	-0.576899	-0.302144
C22	C	0.640274	-0.369217	-0.342080
C23	C	0.574839	-0.369200	-0.342108
C24	C	0.542117	-0.325852	-0.302122
C25	C	0.574836	-0.282504	-0.262116
C26	C	0.640270	-0.282517	-0.262094
C27	C	0.438400	-0.320407	-0.245717
C28	C	0.372967	-0.320398	-0.245738
C29	C	0.340297	-0.325808	-0.302191
C30	C	0.373067	-0.331240	-0.358624
C31	C	0.438501	-0.331253	-0.358602
C32	C	0.471165	-0.325833	-0.302142
C33	C	0.236633	-0.369131	-0.342227
C34	C	0.171196	-0.369110	-0.342256
C35	C	0.171195	-0.282417	-0.262259
C36	C	0.236630	-0.282435	-0.262236
C37	C	0.269345	-0.325796	-0.302219
C38	C	0.945476	-0.612220	-0.262130
C39	C	0.945503	-0.682909	-0.262144
C40	C	0.905421	-0.718274	-0.302169
C41	C	0.865314	-0.682947	-0.342187
C42	C	0.865291	-0.612260	-0.342175
C43	C	0.865406	-0.968021	-0.342233
C44	C	0.865431	-1.038713	-0.342240
C45	C	0.945618	-1.038669	-0.262202
C46	C	0.945595	-0.967982	-0.262191
C47	C	0.905491	-0.932661	-0.302210
C48	C	0.905463	-0.856013	-0.302196
C49	C	0.905445	-0.794921	-0.302181
C50	C	1.068838	-0.325775	-0.302239
C51	C	1.138479	-0.325760	-0.302271
C52	C	0.905443	-0.325775	-0.465589
C53	C	0.905455	-0.325760	-0.535231
C54	C	0.905502	-0.149268	-0.302210
C55	C	0.905540	-0.074036	-0.302229
C56	C	0.945578	-0.368900	-1.037035
C57	C	0.945566	-0.368921	-0.971599
C58	C	0.905515	-0.325652	-0.938869
C59	C	0.865461	-0.282371	-0.971580
C60	C	0.865469	-0.282356	-1.037014
C61	C	0.900585	-0.264697	-0.835214
C62	C	0.900582	-0.264711	-0.769781
C63	C	0.905487	-0.325700	-0.737048
C64	C	0.910409	-0.386677	-0.769757
C65	C	0.910417	-0.386662	-0.835191
C66	C	0.905502	-0.325665	-0.867917
C67	C	0.945523	-0.369005	-0.633393
C68	C	0.945508	-0.369028	-0.567956
C69	C	0.865406	-0.282472	-0.567938
C70	C	0.865418	-0.282456	-0.633374
C71	C	0.905480	-0.325721	-0.666097
C72	C	0.905422	-0.325797	-0.139378
C73	C	0.905531	-0.325622	-0.069738
H74	H	0.548200	-0.404492	-0.374685
N75	N	0.988829	-0.929836	-0.219025
H76	H	0.979136	-0.942178	-0.174247
H77	H	1.033575	-0.942095	-0.228873
N78	N	0.895291	-0.198912	-0.870515
H79	H	0.892177	-0.160288	-0.839867
H80	H	0.933472	-0.192611	-0.897685
N81	N	0.988756	-0.721007	-0.218984
H82	H	1.017788	-0.750280	-0.244486
H83	H	1.014099	-0.687834	-0.193633
H84	H	0.832681	-0.711748	-0.374778
N85	N	0.915703	-0.452465	-0.734464
H86	H	0.914949	-0.443225	-0.688048
H87	H	0.879459	-0.482732	-0.745879
N88	N	0.473843	-0.337108	-0.419466
H89	H	0.462517	-0.298008	-0.447575
H90	H	0.520240	-0.336316	-0.410831
H91	H	0.832792	-1.067505	-0.374837
H92	H	0.832751	-0.939268	-0.374817
N93	N	0.988874	-1.076764	-0.219034
H94	H	0.982810	-1.126911	-0.225112
H95	H	1.033613	-1.064349	-0.228834
N96	N	0.988761	-0.415603	-0.936319
H97	H	1.014139	-0.443008	-0.966981
H98	H	1.017763	-0.388046	-0.909192
N99	N	0.895272	-0.198952	-0.734499
H100	H	0.933441	-0.192599	-0.707373
H101	H	0.892137	-0.160350	-0.765196
N102	N	0.271924	-0.415893	-0.385351
H103	H	0.241270	-0.443343	-0.410701
H104	H	0.299128	-0.388390	-0.414381
N105	N	0.988778	-0.415573	-1.072327
H106	H	0.982708	-0.408998	-1.118743
H107	H	1.033529	-0.405028	-1.060915
H108	H	0.832634	-0.583502	-0.374759
N109	N	0.915722	-0.452423	-0.870471
H110	H	0.918828	-0.491065	-0.839811
H111	H	0.877546	-0.458708	-0.897599
N112	N	0.988729	-0.415669	-0.668693
H113	H	1.014094	-0.443094	-0.638044
H114	H	0.963215	-0.446991	-0.695825
H115	H	0.978115	-0.404277	-0.541331
H116	H	0.832794	-0.247244	-0.541290
N117	N	0.822226	-0.235775	-0.668651
H118	H	0.796851	-0.208367	-0.637989
H119	H	0.847748	-0.204439	-0.695820
H120	H	0.832850	-0.247143	-0.944927
N121	N	0.822274	-0.235673	-1.072288
H122	H	0.847753	-0.204293	-1.099456
H123	H	0.793240	-0.263232	-1.099380
H124	H	0.666907	-0.404524	-0.374638
H125	H	0.144564	-0.404400	-0.374835
N126	N	0.337840	-0.337078	-0.419519
H127	H	0.291416	-0.336243	-0.410973
H128	H	0.349342	-0.297981	-0.447592
H129	H	0.263264	-0.247147	-0.229658
N130	N	0.135912	-0.235656	-0.219135
H131	H	0.089495	-0.242222	-0.225220
H132	H	0.147296	-0.246127	-0.174365
H133	H	0.346291	-0.315980	-0.199786
N134	N	0.473632	-0.314569	-0.184823
H135	H	0.462185	-0.353665	-0.156723
H136	H	0.520045	-0.315379	-0.193425
N137	N	0.539548	-0.235757	-0.218980
H138	H	0.493132	-0.242330	-0.225059
H139	H	0.550941	-0.246239	-0.174215
H140	H	0.666904	-0.247223	-0.229519
H141	H	0.978113	-0.583430	-0.229535
