data_functionalizedCrystal
_audit_creation_method	'MofGen! by Chris Wilmer'
_symmetry_space_group_name_H-M	'P1'
_symmetry_Int_Tables_number	1
_symmetry_cell_setting	triclinic
loop_
_symmetry_equiv_pos_as_xyz
  x,y,z
_cell_length_a	6.817900
_cell_length_b	11.102288
_cell_length_c	11.102193
_cell_angle_alpha	91.949012
_cell_angle_beta	108.604059
_cell_angle_gamma	108.605689
loop_
_atom_site_label
_atom_site_type_symbol
_atom_site_fract_x
_atom_site_fract_y
_atom_site_fract_z
V1	V	-4.111515	-0.175848	-0.396258
O2	O	-4.070547	0.008441	-0.388714
O3	O	-4.088292	-0.348668	-0.393548
O4	O	-4.088289	-0.173147	-0.569079
O5	O	-4.070550	-0.168295	-0.211968
V6	V	-4.588618	-0.153805	-0.374215
O7	O	-4.386855	-0.224203	-0.444610
O8	O	-4.763476	-0.105450	-0.325863
O9	O	-4.388634	0.019016	-0.376925
O10	O	-4.746982	-0.338094	-0.381758
O11	O	-4.746979	-0.161358	-0.558505
O12	O	-4.388637	-0.156505	-0.201393
C13	C	-3.938603	-0.390798	-0.387297
C14	C	-4.001070	-0.532081	-0.386233
C15	C	-3.938598	-0.166902	-0.611203
C16	C	-4.001058	-0.165837	-0.752485
C17	C	-4.214425	-0.604929	-0.392074
C18	C	-4.273113	-0.737681	-0.391084
C19	C	-3.905067	-0.724722	-0.378407
C20	C	-3.846387	-0.591975	-0.379406
C21	C	-4.121387	-0.398616	-0.788813
C22	C	-4.210887	-0.514499	-0.873349
C23	C	-4.269573	-0.513492	-1.006095
C24	C	-4.238760	-0.396588	-1.054306
C25	C	-4.149261	-0.280704	-0.969770
C26	C	-4.090574	-0.281724	-0.837022
C27	C	-4.028948	-0.047930	-0.933443
C28	C	-3.970246	-0.048934	-0.800696
C29	C	-3.998135	0.068974	-0.981654
C30	C	-3.908620	0.184861	-0.897117
C31	C	-3.849930	0.183849	-0.764364
C32	C	-3.880746	0.066950	-0.716160
C33	C	-4.201666	0.061139	-0.383173
C34	C	-4.118438	0.202420	-0.384245
C35	C	-4.201670	-0.162755	-0.159263
C36	C	-4.118447	-0.163813	-0.017979
H37	H	-4.340381	-0.556168	-0.397631
C38	C	-4.507813	-0.817808	-0.397505
N39	N	-4.684597	-0.878159	-0.402341
H40	H	-3.832952	0.066115	-0.608073
C41	C	-4.244789	-0.643088	-0.820307
N42	N	-4.270333	-0.739941	-0.780359
H43	H	-3.779137	-0.773504	-0.372846
C44	C	-3.611669	-0.511836	-0.372977
N45	N	-3.434886	-0.451476	-0.368137
C46	C	-4.056823	-0.399734	-0.642790
N47	N	-4.008198	-0.400580	-0.532804
H48	H	-4.342453	-0.607855	-1.074925
H49	H	-4.286577	-0.395779	-1.162397
C50	C	-4.062678	0.070080	-1.127679
N51	N	-4.111277	0.070915	-1.237665
C52	C	-3.874731	0.313441	-0.950159
N53	N	-3.849198	0.410290	-0.990115
C54	C	-3.751477	0.311333	-0.671383
N55	N	-3.677319	0.407357	-0.601354
