data_functionalizedCrystal
_audit_creation_method	'MofGen! by Chris Wilmer'
_symmetry_space_group_name_H-M	'P1'
_symmetry_Int_Tables_number	1
_symmetry_cell_setting	triclinic
loop_
_symmetry_equiv_pos_as_xyz
  x,y,z
_cell_length_a	16.992694
_cell_length_b	15.455313
_cell_length_c	16.974885
_cell_angle_alpha	83.689367
_cell_angle_beta	87.024242
_cell_angle_gamma	92.857794
loop_
_atom_site_label
_atom_site_type_symbol
_atom_site_fract_x
_atom_site_fract_y
_atom_site_fract_z
O1	O	1.043093	0.060450	0.164931
O2	O	0.814817	0.060605	0.163084
O3	O	0.935704	0.068594	0.048945
O4	O	0.922206	0.052460	0.279069
O5	O	0.928792	-0.076123	0.055444
O6	O	0.807905	-0.084112	0.169583
O7	O	1.036181	-0.084267	0.171429
Cu8	Cu	0.921411	-0.097404	0.171099
Cu9	Cu	0.929587	0.073741	0.163414
O10	O	0.915294	-0.092257	0.285568
C11	C	0.782159	-0.011584	0.163960
C12	C	0.695147	-0.011078	0.156878
N13	N	0.915667	-0.217778	0.176504
C14	C	0.644604	-0.015869	0.225207
C15	C	0.562846	-0.015414	0.218549
C16	C	0.531633	-0.010162	0.143560
C17	C	0.582182	-0.005373	0.075225
C18	C	0.663938	-0.005834	0.081884
C19	C	0.288156	-0.008250	0.115960
C20	C	0.206394	-0.007786	0.109305
C21	C	0.187064	-0.017830	0.252630
C22	C	0.268823	-0.018285	0.259283
C23	C	0.319364	-0.013500	0.190948
N24	N	0.448064	-0.009694	0.136752
N25	N	0.402931	-0.013975	0.197757
C26	C	0.967042	-0.259779	0.128034
C27	C	0.962705	-0.350873	0.132129
C28	C	0.906997	-0.399965	0.184700
C29	C	0.855616	-0.357958	0.233172
C30	C	0.859950	-0.266865	0.229072
C31	C	0.888291	-0.672784	0.202375
C32	C	0.883962	-0.763884	0.206473
C33	C	0.991050	-0.756793	0.105430
C34	C	0.995382	-0.665698	0.101338
C35	C	0.944000	-0.623699	0.149807
N36	N	0.902564	-0.493079	0.188889
N37	N	0.948429	-0.530586	0.145613
C38	C	1.068839	-0.012077	0.170553
C39	C	1.155852	-0.012578	0.177635
C40	C	0.931863	-0.001688	0.022613
C41	C	0.930706	0.004498	-0.065533
N42	N	0.935337	0.194115	0.158003
C43	C	0.926393	-0.071477	-0.103409
C44	C	0.925311	-0.065657	-0.186231
C45	C	0.928537	0.016139	-0.231176
C46	C	0.932853	0.092120	-0.193295
C47	C	0.933941	0.086299	-0.110474
C48	C	0.925695	0.042007	-0.479253
C49	C	0.924606	0.047822	-0.562079
C50	C	0.917065	-0.109955	-0.555010
C51	C	0.918148	-0.115769	-0.472187
C52	C	0.922468	-0.039788	-0.434314
N53	N	0.927429	0.022090	-0.315834
N54	N	0.923581	-0.045740	-0.349658
C55	C	0.919135	-0.021973	0.311900
C56	C	0.920292	-0.028153	0.400045
H57	H	0.521697	-0.019315	0.274191
C58	C	0.938683	0.169872	-0.068806
C59	C	1.008534	0.187886	-0.017536
C60	C	1.013281	0.271462	0.024131
C61	C	0.948177	0.337023	0.014527
C62	C	0.878321	0.319011	-0.036745
C63	C	0.873574	0.235436	-0.078412
H64	H	1.056733	0.139352	-0.010425
H65	H	1.064994	0.284795	0.062086
H66	H	0.951691	0.398891	0.045372
H67	H	0.830122	0.367546	-0.043856
H68	H	0.821861	0.222102	-0.116367
C69	C	0.822675	-0.817883	0.264302
C70	C	0.817911	-0.918082	0.268819
C71	C	0.756628	-0.972080	0.326647
C72	C	0.700110	-0.925879	0.379958
C73	C	0.704872	-0.825674	0.375443
C74	C	0.766155	-0.771676	0.317616
H75	H	0.859751	-0.952289	0.229353
H76	H	0.753103	-1.046259	0.329989
H77	H	0.654745	-0.965851	0.422766
H78	H	0.663032	-0.791468	0.414909
H79	H	0.769680	-0.697497	0.314274
H80	H	0.670011	-0.020145	0.286272
C81	C	0.303155	-0.024066	0.341773
C82	C	0.247559	-0.029339	0.416937
C83	C	0.281891	-0.035116	0.499428
C84	C	0.371819	-0.035620	0.506754
C85	C	0.427420	-0.030346	0.431587
C86	C	0.393088	-0.024570	0.349096
H87	H	0.180984	-0.028966	0.411516
H88	H	0.240731	-0.039019	0.555071
H89	H	0.397234	-0.039896	0.567818
H90	H	0.493996	-0.030719	0.437008
H91	H	0.434248	-0.020666	0.293453
C92	C	0.936403	0.182097	-0.242731
C93	C	0.941150	0.265669	-0.201066
C94	C	0.944697	0.355649	-0.250501
C95	C	0.943497	0.362057	-0.341600
C96	C	0.938749	0.278482	-0.383270
C97	C	0.935203	0.188502	-0.333836
H98	H	0.942039	0.260929	-0.133625
H99	H	0.948211	0.417517	-0.219654
H100	H	0.946122	0.428666	-0.378195
H101	H	0.937861	0.283223	-0.450712
H102	H	0.931688	0.126635	-0.364683
H103	H	0.846454	-0.638595	0.241842
C104	C	0.922844	-0.161455	-0.053972
C105	C	0.854489	-0.187479	0.008627
C106	C	0.850943	-0.277459	0.058061
C107	C	0.915752	-0.341416	0.044895
C108	C	0.984111	-0.315394	-0.017708
C109	C	0.987657	-0.225414	-0.067142
H110	H	0.806510	-0.140133	0.018376
H111	H	0.800339	-0.296722	0.104404
H112	H	0.913127	-0.408025	0.081488
H113	H	1.032091	-0.362741	-0.027457
H114	H	1.038262	-0.206151	-0.113484
C115	C	0.131467	-0.023102	0.327795
C116	C	0.076179	0.050978	0.339554
C117	C	0.020581	0.045702	0.414722
C118	C	0.020271	-0.033655	0.478131
C119	C	0.075561	-0.107741	0.466374
C120	C	0.131159	-0.102464	0.391206
H121	H	0.076406	0.109728	0.292613
H122	H	-0.020349	0.100545	0.423425
H123	H	-0.020886	-0.037561	0.533775
H124	H	0.075334	-0.166491	0.513315
H125	H	0.172089	-0.157308	0.382502
C126	C	0.920597	-0.149244	-0.227878
C127	C	0.849592	-0.215473	-0.208887
C128	C	0.844895	-0.299070	-0.250526
C129	C	0.911204	-0.316438	-0.311156
C130	C	0.982215	-0.250208	-0.330150
C131	C	0.986911	-0.166611	-0.288512
H132	H	0.800502	-0.202617	-0.164002
H133	H	0.792328	-0.348098	-0.236464
H134	H	0.907728	-0.378321	-0.341980
H135	H	1.031305	-0.263063	-0.375035
H136	H	1.039478	-0.117583	-0.302573
H137	H	1.004538	-0.385070	0.092661
C138	C	0.912319	-0.193527	-0.596676
C139	C	0.842472	-0.211541	-0.647951
C140	C	0.837728	-0.295116	-0.689619
C141	C	0.902833	-0.360677	-0.680012
C142	C	0.972685	-0.342666	-0.628735
C143	C	0.977429	-0.259091	-0.587067
H144	H	0.794273	-0.163007	-0.655065
H145	H	0.786018	-0.308449	-0.727578
H146	H	0.899321	-0.422545	-0.710858
H147	H	1.020884	-0.391200	-0.621622
H148	H	1.029139	-0.245757	-0.549109
C149	C	0.172054	-0.002019	0.026814
C150	C	0.187678	-0.073097	-0.028006
C151	C	0.153335	-0.067330	-0.110491
C152	C	0.103366	0.009515	-0.138156
C153	C	0.087739	0.080599	-0.083335
C154	C	0.122083	0.074832	-0.000850
H155	H	0.224670	-0.129987	-0.007528
H156	H	0.164903	-0.119951	-0.151073
H157	H	0.077943	0.013784	-0.199216
H158	H	0.050747	0.137489	-0.103813
H159	H	0.110514	0.127453	0.039733
H160	H	0.329298	-0.004355	0.060316
C161	C	0.794335	-0.411954	0.291001
C162	C	0.789601	-0.512157	0.295557
C163	C	0.728320	-0.566150	0.353390
C164	C	0.671773	-0.519942	0.406666
C165	C	0.676505	-0.419734	0.402112
C166	C	0.737786	-0.365740	0.344279
H167	H	0.831462	-0.546368	0.256117
H168	H	0.724817	-0.640331	0.356761
H169	H	0.626409	-0.559911	0.449478
H170	H	0.634644	-0.385523	0.441552
H171	H	0.741289	-0.291560	0.340908
H172	H	0.556761	-0.001108	0.014168
H173	H	0.705090	-0.001932	0.026243
H174	H	0.818114	-0.232668	0.268540
C175	C	0.928157	0.137801	-0.611525
C176	C	0.999484	0.202402	-0.607762
C177	C	1.003032	0.292374	-0.657211
C178	C	0.935252	0.317744	-0.710423
C179	C	0.863919	0.253141	-0.714189
C180	C	0.860372	0.163170	-0.664740
H181	H	1.049663	0.183623	-0.568369
H182	H	1.055837	0.340197	-0.654423
H183	H	0.937878	0.384346	-0.747028
H184	H	0.813740	0.271921	-0.753581
H185	H	0.807566	0.115347	-0.667528
H186	H	0.929212	0.103876	-0.448426
C187	C	1.056658	-0.611694	0.043508
C188	C	1.029277	-0.544688	-0.021923
C189	C	1.090554	-0.490681	-0.079750
C190	C	1.179213	-0.503680	-0.072146
C191	C	1.206599	-0.570688	-0.006713
C192	C	1.145321	-0.624696	0.051114
H193	H	0.963642	-0.535064	-0.027554
H194	H	1.070281	-0.441077	-0.128188
H195	H	1.224574	-0.463700	-0.114953
H196	H	1.272233	-0.580313	-0.001082
H197	H	1.165595	-0.674300	0.099552
H198	H	1.012409	-0.219814	0.085229
H199	H	1.032883	-0.790997	0.065967
H200	H	0.915538	-0.182376	-0.435600
