data_functionalizedCrystal
_audit_creation_method	'MofGen! by Chris Wilmer'
_symmetry_space_group_name_H-M	'P1'
_symmetry_Int_Tables_number	1
_symmetry_cell_setting	triclinic
loop_
_symmetry_equiv_pos_as_xyz
  x,y,z
_cell_length_a	14.853567
_cell_length_b	27.732048
_cell_length_c	13.930277
_cell_angle_alpha	89.990485
_cell_angle_beta	89.995755
_cell_angle_gamma	83.138793
loop_
_atom_site_label
_atom_site_type_symbol
_atom_site_fract_x
_atom_site_fract_y
_atom_site_fract_z
O1	O	1.195342	0.063107	-0.079776
O2	O	0.932760	0.070624	-0.079793
O3	O	1.072206	-0.003493	-0.079766
O4	O	1.055896	0.137224	-0.079803
O5	O	1.072187	-0.003495	0.079896
O6	O	0.932741	0.070622	0.079869
O7	O	1.195323	0.063105	0.079886
Zn8	Zn	1.064029	0.066863	0.105227
Zn9	Zn	1.064054	0.066866	-0.105134
O10	O	1.055877	0.137222	0.079859
C11	C	0.899167	0.070283	0.000036
C12	C	0.799100	0.069262	0.000030
C13	C	1.071854	-0.021503	0.000068
C14	C	1.070823	-0.075162	0.000076
C15	C	0.387353	0.020920	0.000064
C16	C	0.364639	0.108973	0.000040
C17	C	0.458657	0.109933	0.000036
C18	C	0.517028	0.066385	0.000045
C19	C	0.481380	0.021878	0.000058
C20	C	0.494313	0.154439	0.000014
C21	C	0.588336	0.155401	0.000010
C22	C	0.646708	0.111853	0.000026
C23	C	0.611055	0.067344	0.000039
C24	C	0.669425	0.023796	0.000048
C25	C	0.633774	-0.020713	0.000069
C26	C	0.539752	-0.021670	0.000074
C27	C	0.740730	0.112809	0.000021
C28	C	0.763452	0.024755	0.000042
C29	C	1.146736	-0.413622	0.000032
C30	C	1.142911	-0.615300	0.000018
O31	O	1.212328	-0.646231	-0.000019
N32	N	1.060225	-0.634810	0.000013
C33	C	0.978490	-0.603898	0.000006
O34	O	0.908073	-0.625120	-0.000008
C35	C	0.982316	-0.402221	0.000013
C36	C	1.065007	-0.382714	0.000027
C37	C	1.229421	-0.394114	0.000045
C38	C	1.230376	-0.343698	0.000054
C39	C	1.148647	-0.312790	0.000049
C40	C	1.065963	-0.332298	0.000036
C41	C	0.900582	-0.371310	-0.000002
C42	C	0.901546	-0.320888	-0.000003
C43	C	0.984237	-0.301381	0.000012
C44	C	0.985189	-0.250973	0.000040
N45	N	1.067875	-0.231462	0.000044
C46	C	1.149604	-0.262371	0.000049
C47	C	0.976487	-0.709781	0.000004
C48	C	0.975530	-0.760200	0.000004
C49	C	1.139952	-0.771599	0.000015
C50	C	1.140908	-0.721179	0.000021
C51	C	1.059173	-0.690271	0.000009
C52	C	1.151604	-0.156492	0.000068
C53	C	1.152552	-0.106071	0.000081
C54	C	0.988131	-0.094677	0.000065
C55	C	0.987183	-0.145094	0.000057
C56	C	1.068926	-0.176001	0.000056
O57	O	0.915809	-0.220013	0.000066
O58	O	1.220011	-0.241139	0.000042
C59	C	1.145781	-0.464039	0.000023
C60	C	1.063097	-0.483547	0.000010
C61	C	0.981367	-0.452638	0.000005
C62	C	1.062140	-0.533966	0.000010
C63	C	1.143869	-0.564874	0.000014
C64	C	1.226555	-0.545364	0.000019
C65	C	1.227510	-0.494947	0.000028
C66	C	0.898682	-0.472149	0.000000
C67	C	0.897733	-0.522566	-0.000007
C68	C	0.979462	-0.553474	-0.000003
C69	C	1.228915	0.063446	0.000055
C70	C	1.328982	0.064467	0.000055
C71	C	1.056228	0.155232	0.000023
C72	C	1.057259	0.208891	0.000009
N73	N	1.064018	0.066862	0.248793
N74	N	1.064072	0.066863	-0.248700
C75	C	1.002305	0.099672	0.701050
C76	C	1.125828	0.034056	0.701044
C77	C	1.125817	0.034054	0.600549
C78	C	1.064050	0.066862	0.550299
C79	C	1.002294	0.099672	0.600545
C80	C	1.187578	0.001248	0.550295
C81	C	1.187571	0.001246	0.449793
C82	C	1.125799	0.034052	0.399542
C83	C	1.064040	0.066863	0.449794
C84	C	1.002273	0.099671	0.399545
C85	C	0.940508	0.132480	0.449795
C86	C	0.940522	0.132479	0.550294
C87	C	1.125785	0.034053	0.299043
C88	C	1.002262	0.099672	0.299040
H89	H	0.681311	-0.056169	0.000070
C90	C	1.234253	-0.834905	-0.082075
C91	C	1.229793	-0.805578	0.000007
H92	H	1.289717	-0.855881	-0.082086
H93	H	1.184873	-0.853734	-0.082064
H94	H	1.231209	-0.814986	-0.137742
H95	H	1.232831	-0.825496	0.055675
H96	H	1.279187	-0.786747	0.000005
C97	C	0.824755	-0.128760	0.000038
C98	C	0.896289	-0.166539	0.000040
H99	H	0.768642	-0.141998	0.000012
H100	H	0.828536	-0.109343	0.055722
H101	H	0.828569	-0.109321	-0.055634
H102	H	0.892479	-0.185976	0.055716
H103	H	0.892506	-0.185964	-0.055649
C104	C	1.249031	-0.055976	-0.081978
C105	C	1.243451	-0.084628	0.000091
H106	H	1.305144	-0.042737	-0.081968
H107	H	1.245248	-0.075402	-0.137648
H108	H	1.200490	-0.030351	-0.081966
H109	H	1.291988	-0.110254	0.000076
H110	H	1.247243	-0.065201	0.055776
H111	H	0.810972	-0.010707	0.000053
H112	H	1.237861	-0.025469	0.408885
H113	H	1.237871	-0.025461	0.591211
C114	C	0.405710	-0.062234	0.000080
C115	C	0.500562	-0.070591	0.000086
H116	H	0.381515	-0.092437	0.000079
H117	H	0.385638	-0.044306	0.055750
H118	H	0.385649	-0.044299	-0.055605
H119	H	0.520622	-0.088523	0.055775
H120	H	0.520641	-0.088527	-0.055591
C121	C	0.445986	0.229190	-0.082094
C122	C	0.430148	0.202302	-0.000003
H123	H	0.406364	0.258738	-0.082106
H124	H	0.507074	0.236134	-0.082096
H125	H	0.435245	0.210935	-0.137756
H126	H	0.440896	0.220556	0.055658
H127	H	0.369046	0.195359	0.000007
C128	C	0.316327	0.183728	-0.082062
C129	C	0.300479	0.156837	0.000023
H130	H	0.276709	0.213277	-0.082072
H131	H	0.377416	0.190670	-0.082055
H132	H	0.305589	0.165475	-0.137727
H133	H	0.311223	0.175088	0.055689
H134	H	0.239375	0.149897	0.000026
C135	C	0.920020	0.198242	0.336751
C136	C	0.872617	0.168543	0.394552
H137	H	0.878107	0.220503	0.302640
H138	H	0.957288	0.215667	0.375950
H139	H	0.956801	0.178697	0.292452
H140	H	0.835840	0.188088	0.438856
H141	H	0.835333	0.151117	0.355350
C142	C	0.680874	0.207566	-0.082104
C143	C	0.627511	0.204326	-0.000020
H144	H	0.705051	0.237773	-0.082126
H145	H	0.729094	0.181775	-0.082086
H146	H	0.644658	0.205355	-0.137771
H147	H	0.663728	0.206534	0.055646
H148	H	0.579284	0.230124	-0.000030
C149	C	0.833289	0.164967	-0.082083
C150	C	0.779919	0.161729	-0.000003
H151	H	0.857476	0.195171	-0.082097
H152	H	0.881503	0.139173	-0.082065
H153	H	0.797076	0.162761	-0.137752
H154	H	0.816134	0.163931	0.055666
H155	H	0.731699	0.187530	-0.000012
C156	C	0.885707	0.161618	0.704353
C157	C	0.872645	0.168544	0.605531
H158	H	0.843807	0.183887	0.738454
H159	H	0.876365	0.129353	0.720833
H160	H	0.945805	0.166925	0.720792
H161	H	0.812548	0.163234	0.589091
H162	H	0.881979	0.200817	0.589044
C163	C	1.314225	-0.162681	0.000093
C164	C	1.241457	-0.190460	0.000074
H165	H	1.369694	-0.183652	0.000107
H166	H	1.311183	-0.142775	-0.055581
H167	H	1.311153	-0.142782	0.055775
H168	H	1.244525	-0.210357	-0.055612
H169	H	1.244501	-0.210375	0.055753
C170	C	1.392798	-0.360045	0.000054
C171	C	1.321274	-0.322260	0.000057
H172	H	1.448916	-0.346811	0.000047
H173	H	1.388996	-0.379475	0.055728
H174	H	1.388995	-0.379468	-0.055628
H175	H	1.325073	-0.302839	0.055742
H176	H	1.325077	-0.302821	-0.055623
H177	H	0.830391	-0.538443	-0.000011
C178	C	1.323771	-0.457415	-0.082024
C179	C	1.319270	-0.428083	0.000051
H180	H	1.379248	-0.478381	-0.082017
H181	H	1.274407	-0.476256	-0.082023
H182	H	1.320726	-0.437501	-0.137697
H183	H	1.322308	-0.447998	0.055723
H184	H	1.368648	-0.409241	0.000058
H185	H	0.832126	-0.446987	-0.000006
C186	C	1.179922	-0.049570	0.732009
C187	C	1.193711	-0.002009	0.756280
H188	H	1.221833	-0.071836	0.766110
H189	H	1.119836	-0.054870	0.748492
H190	H	1.188761	-0.054262	0.664963
H191	H	1.184866	0.002684	0.823325
H192	H	1.253811	0.003293	0.739803
C193	C	0.981762	0.165439	0.186006
C194	C	0.934366	0.135737	0.243807
H195	H	0.939845	0.187702	0.151904
H196	H	1.019036	0.182861	0.225203
H197	H	1.018538	0.145896	0.141698
H198	H	0.897595	0.155279	0.288120
H199	H	0.897077	0.118313	0.204606
H200	H	1.208242	-0.705300	0.000032
C201	C	0.835106	-0.765993	-0.082087
C202	C	0.884635	-0.781640	-0.000004
H203	H	0.778991	-0.779230	-0.082097
H204	H	0.823988	-0.731545	-0.082078
H205	H	0.868744	-0.776598	-0.137754
H206	H	0.850999	-0.771031	0.055664
H207	H	0.895750	-0.816095	-0.000003
H208	H	0.358321	-0.015319	0.000085
H209	H	0.909925	-0.684620	-0.000006
C210	C	1.247887	-0.030802	0.309136
C211	C	1.193668	-0.002007	0.243808
H212	H	1.289793	-0.053067	0.275035
H213	H	1.280033	-0.010648	0.348316
H214	H	1.210605	-0.048226	0.348353
H215	H	1.230950	0.015420	0.204595
H216	H	1.161520	-0.022164	0.204611
C217	C	0.738162	-0.354957	-0.000041
C218	C	0.809683	-0.392743	-0.000026
H219	H	0.682042	-0.368190	-0.000063
H220	H	0.741947	-0.335538	0.055637
H221	H	0.741984	-0.335524	-0.055718
H222	H	0.805865	-0.412175	0.055655
H223	H	0.805896	-0.412171	-0.055711
H224	H	0.834986	-0.295725	-0.000014
C225	C	0.893854	-0.031353	-0.082025
C226	C	0.898297	-0.060696	0.000053
H227	H	0.838392	-0.010376	-0.082039
H228	H	0.943236	-0.012525	-0.082007
H229	H	0.896907	-0.051261	-0.137695
H230	H	0.895251	-0.040788	0.055724
H231	H	0.848902	-0.079525	0.000043
H232	H	1.294846	-0.479069	0.000039
H233	H	1.293101	-0.570538	0.000027
H234	H	0.952015	0.126383	0.741967
