data_functionalizedCrystal
_audit_creation_method	'MofGen! by Chris Wilmer'
_symmetry_space_group_name_H-M	'P1'
_symmetry_Int_Tables_number	1
_symmetry_cell_setting	triclinic
loop_
_symmetry_equiv_pos_as_xyz
  x,y,z
_cell_length_a	14.519731
_cell_length_b	14.519709
_cell_length_c	14.185569
_cell_angle_alpha	103.184626
_cell_angle_beta	103.175552
_cell_angle_gamma	96.315502
loop_
_atom_site_label
_atom_site_type_symbol
_atom_site_fract_x
_atom_site_fract_y
_atom_site_fract_z
O1	O	-0.141729	1.203029	-0.083275
O2	O	-0.155973	0.934546	-0.083305
O3	O	-0.014615	1.075894	-0.083296
O4	O	-0.283086	1.061681	-0.083283
O5	O	0.027139	1.117649	0.083541
O6	O	-0.114219	0.976301	0.083532
O7	O	-0.099975	1.244784	0.083562
Cu8	Cu	-0.103285	1.114355	0.098781
Cu9	Cu	-0.152663	1.064975	-0.098523
O10	O	-0.241333	1.103436	0.083554
C11	C	-0.134433	0.921063	0.000110
C12	C	-0.132448	0.818678	0.000098
C13	C	-0.125117	0.443793	0.000144
C14	C	-0.127153	0.548098	0.000131
C15	C	-0.128783	0.631232	0.000120
C16	C	-0.130818	0.735544	0.000109
C17	C	-0.296568	1.083225	0.000137
C18	C	-0.398947	1.085222	0.000142
C19	C	-0.482092	1.086843	0.000139
C20	C	-0.586403	1.088868	0.000129
C21	C	-0.669544	1.090474	0.000121
C22	C	-0.773862	1.092499	0.000114
C23	C	0.040620	1.096104	0.000118
C24	C	0.142997	1.094105	0.000106
C25	C	-0.121515	1.258267	0.000145
C26	C	-0.123502	1.360649	0.000150
N27	N	-0.068554	1.149094	0.237554
N28	N	-0.187387	1.030244	-0.237296
C29	C	-0.289386	0.928182	0.605191
C30	C	-0.263084	0.954502	0.710214
C31	C	-0.137958	1.079691	0.710182
C32	C	-0.164247	1.053378	0.605157
C33	C	-0.239962	0.977624	0.552670
C34	C	-0.114823	1.102820	0.552636
C35	C	-0.141113	1.076513	0.447620
C36	C	-0.216827	1.000763	0.395125
C37	C	-0.266252	0.951316	0.447654
C38	C	-0.039113	1.178579	0.605125
C39	C	0.010311	1.228021	0.552604
C40	C	-0.015974	1.201709	0.447586
C41	C	-0.091688	1.125959	0.395091
C42	C	0.033451	1.251156	0.395057
C43	C	0.007161	1.224848	0.290041
C44	C	-0.117978	1.099652	0.290075
H45	H	-0.179626	1.037958	0.247338
H46	H	-0.017714	1.199999	0.690636
F47	F	-0.315698	0.901872	0.766104
H48	H	0.071957	1.289704	0.595351
H49	H	-0.076313	1.141374	0.752929
F50	F	0.114022	1.331786	0.450929
F51	F	-0.244810	0.972768	0.283356
F52	F	-0.346829	0.870680	0.391790
H53	H	-0.351034	0.866488	0.562454
F54	F	0.059763	1.277473	0.234143
