data_functionalizedCrystal
_audit_creation_method	'MofGen! by Chris Wilmer'
_symmetry_space_group_name_H-M	'P1'
_symmetry_Int_Tables_number	1
_symmetry_cell_setting	triclinic
loop_
_symmetry_equiv_pos_as_xyz
  x,y,z
_cell_length_a	23.532407
_cell_length_b	23.532407
_cell_length_c	22.010155
_cell_angle_alpha	90.000423
_cell_angle_beta	89.996931
_cell_angle_gamma	97.151322
loop_
_atom_site_label
_atom_site_type_symbol
_atom_site_fract_x
_atom_site_fract_y
_atom_site_fract_z
O1	O	0.755264	-0.069127	-0.050455
O2	O	1.255264	0.430873	0.449545
O3	O	0.589400	-0.079130	-0.050474
O4	O	1.089400	0.420870	0.449526
O5	O	0.677334	0.008803	-0.050453
O6	O	1.177334	0.508803	0.449547
O7	O	0.667330	-0.157060	-0.050476
O8	O	1.167330	0.342940	0.449524
O9	O	0.677318	0.008790	0.050597
O10	O	1.177318	0.508790	0.550597
O11	O	0.589384	-0.079143	0.050576
O12	O	1.089384	0.420857	0.550576
O13	O	0.755248	-0.069140	0.050595
O14	O	1.255248	0.430860	0.550595
Cu15	Cu	0.672315	-0.074143	0.059812
Cu16	Cu	1.172315	0.425857	0.559812
Cu17	Cu	0.672333	-0.074127	-0.059691
Cu18	Cu	1.172333	0.425873	0.440309
O19	O	0.667314	-0.157073	0.050574
O20	O	1.167314	0.342927	0.550574
C21	C	0.568176	-0.078882	0.000049
C22	C	1.068176	0.421118	0.500049
C23	C	0.504959	-0.078116	0.000042
C24	C	1.004959	0.421884	0.500042
C25	C	0.105856	-0.125350	0.000063
C26	C	0.605856	0.374650	0.500063
C27	C	0.046456	-0.124638	0.000067
C28	C	0.546456	0.375362	0.500067
O29	O	0.009711	-0.168424	0.000083
O30	O	0.509711	0.331576	0.500083
N31	N	0.023830	-0.072362	0.000073
N32	N	0.523830	0.427638	0.500073
C33	C	0.060607	-0.020794	0.000082
C34	C	0.560607	0.479206	0.500082
O35	O	0.035908	0.023737	0.000088
O36	O	0.535908	0.523737	0.500088
C37	C	0.120006	-0.021506	0.000082
C38	C	0.620006	0.478494	0.500082
C39	C	0.142629	-0.073785	0.000070
C40	C	0.642629	0.426215	0.500070
C41	C	0.128479	-0.177625	0.000051
C42	C	0.628479	0.322375	0.500051
C43	C	0.187876	-0.178336	0.000046
C44	C	0.687876	0.321664	0.500046
C45	C	0.224649	-0.126772	0.000053
C46	C	0.724649	0.373228	0.500053
C47	C	0.202025	-0.074497	0.000065
C48	C	0.702025	0.425503	0.500065
C49	C	0.156783	0.030062	0.000096
C50	C	0.656783	0.530062	0.500096
C51	C	0.216185	0.029345	0.000097
C52	C	0.716185	0.529345	0.500097
C53	C	0.238808	-0.022934	0.000084
C54	C	0.738808	0.477066	0.500084
C55	C	0.298194	-0.023643	0.000067
C56	C	0.798194	0.476357	0.500067
N57	N	0.320820	-0.075920	0.000061
N58	N	0.820820	0.424080	0.500061
C59	C	0.284048	-0.127484	0.000054
C60	C	0.784048	0.372516	0.500054
C61	C	-0.064135	-0.019302	0.000082
C62	C	0.435865	0.480698	0.500082
C63	C	-0.123533	-0.018589	0.000077
C64	C	0.376467	0.481411	0.500077
C65	C	-0.137680	-0.122434	0.000063
C66	C	0.362320	0.377566	0.500063
C67	C	-0.078281	-0.123146	0.000064
C68	C	0.421719	0.376854	0.500064
C69	C	-0.041509	-0.071578	0.000076
C70	C	0.458491	0.428422	0.500076
C71	C	0.408784	-0.128974	0.000043
C72	C	0.908784	0.371026	0.500043
C73	C	0.468186	-0.129680	0.000035
C74	C	0.968186	0.370320	0.500035
C75	C	0.482329	-0.025836	0.000052
C76	C	0.982329	0.474164	0.500052
C77	C	0.422932	-0.025129	0.000057
C78	C	0.922932	0.474871	0.500057
C79	C	0.386160	-0.076702	0.000054
C80	C	0.886160	0.423298	0.500054
O81	O	0.334974	0.020119	0.000054
O82	O	0.834974	0.520119	0.500054
O83	O	0.308755	-0.172007	0.000055
O84	O	0.808755	0.327993	0.500055
C85	C	0.677071	0.030013	0.000074
C86	C	1.177071	0.530013	0.500074
C87	C	0.676305	0.093230	0.000078
C88	C	1.176305	0.593230	0.500078
C89	C	0.776472	-0.069388	0.000071
C90	C	1.276472	0.430612	0.500071
C91	C	0.839689	-0.070154	0.000073
C92	C	1.339689	0.429846	0.500073
C93	C	0.667577	-0.178283	0.000046
C94	C	1.167577	0.321717	0.500046
C95	C	0.668343	-0.241500	0.000037
C96	C	1.168343	0.258500	0.500037
N97	N	0.672305	-0.074153	0.143865
N98	N	1.172305	0.425847	0.643865
C99	C	0.723539	0.492333	0.000050
C100	C	1.223539	0.992333	0.500050
C101	C	0.722827	0.551733	0.000046
C102	C	1.222827	1.051733	0.500046
O103	O	0.766613	0.588478	0.000028
O104	O	1.266613	1.088478	0.500028
N105	N	0.670551	0.574359	0.000040
N106	N	1.170551	1.074359	0.500040
C107	C	0.618983	0.537582	0.000033
C108	C	1.118983	1.037582	0.500033
O109	O	0.574452	0.562281	0.000027
O110	O	1.074452	1.062281	0.500027
C111	C	0.619695	0.478182	0.000033
C112	C	1.119695	0.978182	0.500033
C113	C	0.671974	0.455560	0.000045
C114	C	1.171974	0.955560	0.500045
C115	C	0.775814	0.469710	0.000061
C116	C	1.275814	0.969710	0.500061
C117	C	0.776525	0.410313	0.000067
C118	C	1.276525	0.910313	0.500067
C119	C	0.724961	0.373540	0.000062
C120	C	1.224961	0.873540	0.500062
C121	C	0.672685	0.396164	0.000051
C122	C	1.172685	0.896164	0.500051
C123	C	0.568127	0.441406	0.000022
C124	C	1.068127	0.941406	0.500022
C125	C	0.568844	0.382004	0.000022
C126	C	1.068844	0.882004	0.500022
C127	C	0.621123	0.359381	0.000034
C128	C	1.121123	0.859381	0.500034
C129	C	0.621832	0.299995	0.000052
C130	C	1.121832	0.799995	0.500052
N131	N	0.674109	0.277368	0.000057
N132	N	1.174109	0.777368	0.500057
C133	C	0.725673	0.314141	0.000062
C134	C	1.225673	0.814141	0.500062
C135	C	0.617491	0.662324	0.000031
C136	C	1.117491	1.162324	0.500031
C137	C	0.616778	0.721722	0.000035
C138	C	1.116778	1.221722	0.500035
C139	C	0.720623	0.735869	0.000047
C140	C	1.220623	1.235869	0.500047
C141	C	0.721335	0.676470	0.000047
C142	C	1.221335	1.176470	0.500047
C143	C	0.669767	0.639698	0.000037
C144	C	1.169767	1.139698	0.500037
C145	C	0.727163	0.189405	0.000075
C146	C	1.227163	0.689405	0.500075
C147	C	0.727869	0.130003	0.000083
C148	C	1.227869	0.630003	0.500083
C149	C	0.624025	0.115860	0.000069
C150	C	1.124025	0.615860	0.500069
C151	C	0.623318	0.175257	0.000064
C152	C	1.123318	0.675257	0.500064
C153	C	0.674891	0.212029	0.000065
C154	C	1.174891	0.712029	0.500065
O155	O	0.578070	0.263215	0.000067
O156	O	1.078070	0.763215	0.500067
O157	O	0.770196	0.289433	0.000060
O158	O	1.270196	0.789433	0.500060
N159	N	0.672347	-0.074112	-0.143744
N160	N	1.172347	0.425888	0.356256
C161	C	0.711273	-0.035196	0.563653
C162	C	1.211273	0.464804	1.063653
C163	C	0.711275	-0.035192	0.627261
C164	C	1.211275	0.464808	1.127261
O165	O	0.744384	-0.002076	0.660160
O166	O	1.244384	0.497924	1.160160
N167	N	0.672333	-0.074115	0.659072
N168	N	1.172333	0.425885	1.159072
C169	C	0.633382	-0.113041	0.627272
C170	C	1.133382	0.386959	1.127272
O171	O	0.600259	-0.146148	0.660170
O172	O	1.100259	0.353852	1.160170
C173	C	0.633377	-0.113042	0.563665
C174	C	1.133377	0.386958	1.063665
C175	C	0.672326	-0.074120	0.531858
C176	C	1.172326	0.425880	1.031858
C177	C	0.750217	0.003723	0.531846
C178	C	1.250217	0.503723	1.031846
C179	C	0.750215	0.003719	0.468243
C180	C	1.250215	0.503719	0.968243
C181	C	0.711268	-0.035205	0.436447
C182	C	1.211268	0.464795	0.936447
C183	C	0.672324	-0.074125	0.468255
C184	C	1.172324	0.425875	0.968255
C185	C	0.594424	-0.151965	0.531866
C186	C	1.094424	0.348035	1.031866
C187	C	0.594422	-0.151962	0.468256
C188	C	1.094422	0.348038	0.968256
C189	C	0.633370	-0.113040	0.436448
C190	C	1.133370	0.386960	0.936448
C191	C	0.633374	-0.113054	0.372856
C192	C	1.133374	0.386946	0.872856
N193	N	0.672317	-0.074130	0.341045
N194	N	1.172317	0.425870	0.841045
C195	C	0.711263	-0.035206	0.372841
C196	C	1.211263	0.464794	0.872841
C197	C	0.633395	-0.113036	0.760850
C198	C	1.133395	0.386964	1.260850
C199	C	0.633402	-0.113039	0.824455
C200	C	1.133402	0.386961	1.324455
C201	C	0.711294	-0.035188	0.824440
C202	C	1.211294	0.464812	1.324440
C203	C	0.711290	-0.035189	0.760833
C204	C	1.211290	0.464811	1.260833
C205	C	0.672337	-0.074113	0.729039
C206	C	1.172337	0.425887	1.229039
C207	C	0.711256	-0.035220	0.239269
C208	C	1.211256	0.464780	0.739269
C209	C	0.711252	-0.035229	0.175660
C210	C	1.211252	0.464771	0.675660
C211	C	0.633358	-0.113077	0.175681
C212	C	1.133358	0.386923	0.675681
C213	C	0.633364	-0.113070	0.239284
C214	C	1.133364	0.386930	0.739284
C215	C	0.672315	-0.074136	0.271077
C216	C	1.172315	0.425864	0.771077
O217	O	0.600282	-0.146151	0.339916
O218	O	1.100282	0.353849	0.839916
O219	O	0.744376	-0.002100	0.339935
O220	O	1.244376	0.497900	0.839935
H221	H	-0.141947	0.023982	0.000078
H222	H	0.358053	0.523982	0.500078
O223	O	0.749028	0.002675	0.729889
O224	O	1.249028	0.502675	1.229889
C225	C	0.718702	0.037667	0.693141
C226	C	1.218702	0.537667	1.193141
H227	H	0.674024	0.014731	0.683596
H228	H	1.174024	0.514731	1.183596
H229	H	0.742521	0.046849	0.648419
H230	H	1.242521	0.546849	1.148419
H231	H	0.715038	0.079714	0.717691
H232	H	1.215038	0.579714	1.217691
H233	H	0.404512	0.017441	0.000058
H234	H	0.904512	0.517441	0.500058
H235	H	0.562708	-0.183658	0.557755
H236	H	1.062708	0.316342	1.057755
H237	H	0.574207	0.740136	0.000036
H238	H	1.074207	1.240136	0.500036
O239	O	0.567432	0.626547	0.000111
O240	O	1.067432	1.126547	0.500111
C241	C	0.564718	0.591776	0.052454
C242	C	1.064718	1.091776	0.552454
H243	H	0.609902	0.589014	0.069906
H244	H	1.109902	1.089014	0.569906
H245	H	0.543240	0.547014	0.040683
H246	H	1.043240	1.047014	0.540683
H247	H	0.538821	0.611181	0.089098
H248	H	1.038821	1.111181	0.589098
O249	O	0.556661	-0.189799	0.437304
O250	O	1.056661	0.310201	0.937304
C251	C	0.586955	-0.224796	0.400523
C252	C	1.086955	0.275204	0.900523
H253	H	0.631647	-0.201889	0.390986
H254	H	1.131647	0.298111	0.890986
H255	H	0.563129	-0.233930	0.355800
H256	H	1.063129	0.266070	0.855800
H257	H	0.590583	-0.266866	0.425042
H258	H	1.090583	0.233134	0.925042
O259	O	0.595603	-0.150908	0.144721
O260	O	1.095603	0.349092	0.644721
C261	C	0.625897	-0.185900	0.107934
C262	C	1.125897	0.314100	0.607934
H263	H	0.670592	-0.162996	0.098407
H264	H	1.170592	0.337004	0.598407
H265	H	0.602076	-0.195022	0.063206
H266	H	1.102076	0.304978	0.563206
H267	H	0.629518	-0.227977	0.132443
H268	H	1.129518	0.272023	0.632443
O269	O	0.788110	0.041558	0.562632
O270	O	1.288110	0.541558	1.062632
C271	C	0.822467	0.075913	0.520906
C272	C	1.322467	0.575913	1.020906
H273	H	0.822962	0.052560	0.475567
H274	H	1.322962	0.552560	0.975567
H275	H	0.868001	0.084831	0.539267
H276	H	1.368001	0.584831	1.039267
H277	H	0.804220	0.118129	0.514143
H278	H	1.304220	0.618129	1.014143
O279	O	-0.028497	0.030847	0.000057
O280	O	0.471503	0.530847	0.500057
C281	C	-0.061211	0.077135	0.000076
C282	C	0.438789	0.577135	0.500076
H283	H	-0.105625	0.062415	-0.019054
H284	H	0.394375	0.562415	0.480946
H285	H	-0.039105	0.113247	-0.029259
H286	H	0.460895	0.613247	0.470741
H287	H	-0.065356	0.093171	0.048557
H288	H	0.434644	0.593171	0.548557
H289	H	0.525555	0.459814	0.000009
H290	H	1.025555	0.959814	0.500009
O291	O	0.595537	-0.150910	0.730061
O292	O	1.095537	0.349090	1.230061
C293	C	0.561162	-0.185252	0.771783
C294	C	1.061162	0.314748	1.271783
H295	H	0.584515	-0.185769	0.817119
H296	H	1.084515	0.314231	1.317119
H297	H	0.552215	-0.230782	0.753414
H298	H	1.052215	0.269218	1.253414
H299	H	0.518962	-0.166976	0.778555
H300	H	1.018962	0.333024	1.278555
H301	H	0.601654	-0.144769	0.265183
H302	H	1.101654	0.355231	0.765183
O303	O	0.749148	0.002622	0.270052
O304	O	1.249148	0.502622	0.770052
C305	C	0.783506	0.036978	0.228328
C306	C	1.283506	0.536978	0.728328
H307	H	0.784009	0.013622	0.182992
H308	H	1.284009	0.513622	0.682992
H309	H	0.829038	0.045902	0.246695
H310	H	1.329038	0.545902	0.746695
H311	H	0.765255	0.079191	0.221559
H312	H	1.265255	0.579191	0.721559
H313	H	0.486602	-0.172255	0.000025
H314	H	0.986602	0.327745	0.500025
O315	O	0.134912	0.080897	0.000140
O316	O	0.634912	0.580897	0.500140
C317	C	0.180116	0.126249	0.000137
C318	C	0.680116	0.626249	0.500137
H319	H	0.220380	0.110505	0.019258
H320	H	0.720380	0.610505	0.519258
H321	H	0.167911	0.162763	0.029489
H322	H	0.667911	0.662763	0.529489
H323	H	0.188612	0.142151	-0.048338
H324	H	0.688612	0.642151	0.451662
H325	H	0.098544	-0.219617	0.000048
H326	H	0.598544	0.280383	0.500048
O327	O	-0.056403	-0.173980	0.000083
O328	O	0.443597	0.326020	0.500083
C329	C	-0.101604	-0.219335	0.000058
C330	C	0.398396	0.280665	0.500058
H331	H	-0.141871	-0.203604	0.019189
H332	H	0.358129	0.296396	0.519189
H333	H	-0.089398	-0.255861	0.029391
H334	H	0.410602	0.244139	0.529391
H335	H	-0.110093	-0.235217	-0.048424
H336	H	0.389907	0.264783	0.451576
H337	H	-0.167632	-0.164421	0.000060
H338	H	0.332368	0.335579	0.500060
H339	H	0.781929	0.035414	0.442349
H340	H	1.281929	0.535414	0.942349
H341	H	0.512280	0.016146	0.000056
H342	H	1.012280	0.516146	0.500056
H343	H	0.770443	0.111587	0.000094
H344	H	1.270443	0.611587	0.500094
O345	O	0.373151	-0.179124	0.000009
O346	O	0.873151	0.320876	0.500009
C347	C	0.405867	-0.225410	0.000011
C348	C	0.905867	0.274590	0.500011
H349	H	0.450283	-0.210684	-0.019117
H350	H	0.950283	0.289316	0.480883
H351	H	0.383764	-0.261514	-0.029335
H352	H	0.883764	0.238486	0.470665
H353	H	0.410009	-0.241460	0.048486
H354	H	0.910009	0.258540	0.548486
O355	O	0.749103	0.002705	0.855265
O356	O	1.249103	0.502705	1.355265
C357	C	0.740155	0.059037	0.839736
C358	C	1.240155	0.559037	1.339736
H359	H	0.718205	0.058855	0.793554
H360	H	1.218205	0.558855	1.293554
H361	H	0.783121	0.087304	0.837561
H362	H	1.283121	0.587304	1.337561
H363	H	0.711905	0.076502	0.875536
H364	H	1.211905	0.576502	1.375536
H365	H	0.601692	-0.144738	0.850348
H366	H	1.101692	0.355262	1.350348
O367	O	0.251963	0.079403	0.000025
O368	O	0.751963	0.579403	0.500025
C369	C	0.286736	0.082116	-0.052320
C370	C	0.786736	0.582116	0.447680
H371	H	0.289495	0.036933	-0.069777
H372	H	0.789495	0.536933	0.430223
H373	H	0.331499	0.103591	-0.040549
H374	H	0.831499	0.603591	0.459451
H375	H	0.267334	0.108017	-0.088960
H376	H	0.767334	0.608017	0.411040
H377	H	0.769159	0.219337	0.000073
H378	H	1.269159	0.719337	0.500073
H379	H	0.742971	-0.003534	0.149765
H380	H	1.242971	0.496466	0.649765
O381	O	0.827360	0.388437	0.000046
O382	O	1.327360	0.888437	0.500046
C383	C	0.872713	0.433640	0.000064
C384	C	1.372713	0.933640	0.500064
H385	H	0.856979	0.473904	-0.019069
H386	H	1.356979	0.973904	0.480931
H387	H	0.909239	0.421433	-0.029271
H388	H	1.409239	0.921433	0.470729
H389	H	0.888595	0.442136	0.048544
H390	H	1.388595	0.942136	0.548544
O391	O	0.825893	0.505448	-0.000040
O392	O	1.325893	1.005448	0.499960
C393	C	0.828603	0.540244	-0.052366
C394	C	1.328603	1.040244	0.447634
H395	H	0.799358	0.518337	-0.088952
H396	H	1.299358	1.018337	0.411048
H397	H	0.874521	0.547165	-0.069923
H398	H	1.374521	1.047165	0.430077
H399	H	0.814123	0.583365	-0.040535
H400	H	1.314123	1.083365	0.459465
H401	H	0.580748	0.193677	0.000071
H402	H	1.080748	0.693677	0.500071
O403	O	0.209752	-0.229171	0.000068
O404	O	0.709752	0.270829	0.500068
C405	C	0.164549	-0.274524	0.000050
C406	C	0.664549	0.225476	0.500050
H407	H	0.124283	-0.258788	0.019181
H408	H	0.624283	0.241212	0.519181
H409	H	0.176753	-0.311047	0.029387
H410	H	0.676753	0.188953	0.529387
H411	H	0.156057	-0.290410	-0.048430
H412	H	0.656057	0.209590	0.451570
O413	O	0.772133	0.654524	-0.000055
O414	O	1.272133	1.154524	0.499945
C415	C	0.803558	0.673361	-0.052379
C416	C	1.303558	1.173361	0.447621
H417	H	0.772985	0.685549	-0.088960
H418	H	1.272985	1.185549	0.411040
H419	H	0.827584	0.637511	-0.069946
H420	H	1.327584	1.137511	0.430054
H421	H	0.835514	0.712253	-0.040541
H422	H	1.335514	1.212253	0.459459
O423	O	0.770662	0.771678	0.000017
O424	O	1.270662	1.271678	0.500017
C425	C	0.758817	0.828954	0.000026
C426	C	1.258817	1.328954	0.500026
H427	H	0.714098	0.830978	-0.019106
H428	H	1.214098	1.330978	0.480894
H429	H	0.791705	0.856049	-0.029314
H430	H	1.291705	1.356049	0.470686
H431	H	0.761072	0.846150	0.048503
H432	H	1.261072	1.346150	0.548503
H433	H	0.526850	0.352066	0.000013
H434	H	1.026850	0.852066	0.500013
O435	O	0.573990	0.080053	0.000036
O436	O	1.073990	0.580053	0.500036
C437	C	0.585835	0.022777	0.000056
C438	C	1.085835	0.522777	0.500056
H439	H	0.630560	0.020751	-0.019065
H440	H	1.130560	0.520751	0.480935
H441	H	0.552957	-0.004321	-0.029289
H442	H	1.052957	0.495679	0.470711
H443	H	0.583566	0.005585	0.048535
H444	H	1.083566	0.505585	0.548535
