data_functionalizedCrystal
_audit_creation_method	'MofGen! by Chris Wilmer'
_symmetry_space_group_name_H-M	'P1'
_symmetry_Int_Tables_number	1
_symmetry_cell_setting	triclinic
loop_
_symmetry_equiv_pos_as_xyz
  x,y,z
_cell_length_a	11.169417
_cell_length_b	21.295412
_cell_length_c	11.169416
_cell_angle_alpha	90.020143
_cell_angle_beta	89.988411
_cell_angle_gamma	89.980163
loop_
_atom_site_label
_atom_site_type_symbol
_atom_site_fract_x
_atom_site_fract_y
_atom_site_fract_z
Zn1	Zn	1.834966	-0.355896	0.477797
Zn2	Zn	2.334966	0.144104	0.977797
Zn3	Zn	1.834854	-0.250640	0.678500
Zn4	Zn	2.334854	0.249360	1.178500
Zn5	Zn	1.634251	-0.250648	0.477834
Zn6	Zn	2.134251	0.249352	0.977834
Zn7	Zn	1.634259	-0.355879	0.678441
Zn8	Zn	2.134259	0.144121	1.178441
O9	O	1.734583	-0.303266	0.578143
O10	O	2.234583	0.196734	1.078143
O11	O	2.002901	-0.341937	0.504430
O12	O	2.502901	0.158063	1.004430
O13	O	1.808194	-0.162552	0.651921
O14	O	2.308194	0.337448	1.151921
O15	O	1.660919	-0.264619	0.309879
O16	O	2.160919	0.235381	0.809879
O17	O	2.002819	-0.264607	0.651885
O18	O	2.502819	0.235393	1.151885
O19	O	1.808384	-0.341944	0.309852
O20	O	2.308384	0.158056	0.809852
O21	O	1.660811	-0.162557	0.504493
O22	O	2.160811	0.337443	1.004493
O23	O	1.466302	-0.264603	0.504436
O24	O	1.966302	0.235397	1.004436
O25	O	1.660934	-0.443971	0.651785
O26	O	2.160934	0.056029	1.151785
O27	O	1.466309	-0.341916	0.651821
O28	O	1.966309	0.158084	1.151821
O29	O	1.808392	-0.443983	0.504373
O30	O	2.308392	0.056017	1.004373
O31	O	1.808202	-0.264591	0.846442
O32	O	2.308202	0.235409	1.346442
O33	O	1.660826	-0.341909	0.846399
O34	O	2.160826	0.158091	1.346399
C35	C	1.422758	-0.303258	0.578127
C36	C	1.922758	0.196742	1.078127
C37	C	1.289358	-0.303270	0.578149
C38	C	1.789358	0.196730	1.078149
C39	C	1.734677	-0.467456	0.578068
C40	C	2.234677	0.032544	1.078068
C41	C	1.734717	-0.537424	0.578037
C42	C	2.234717	-0.037424	1.078037
C43	C	1.657995	-0.570284	0.501262
C44	C	2.157995	-0.070284	1.001262
C45	C	1.657991	-0.636026	0.501240
C46	C	2.157991	-0.136026	1.001240
C47	C	1.734729	-0.668907	0.577979
C48	C	2.234729	-0.168907	1.077979
C49	C	1.811457	-0.636039	0.654769
C50	C	2.311457	-0.136039	1.154769
C51	C	1.811450	-0.570298	0.654798
C52	C	2.311450	-0.070298	1.154798
N53	N	1.839794	-0.772142	0.587143
N54	N	2.339794	-0.272142	1.087143
N55	N	1.839797	-0.834594	0.587109
N56	N	2.339797	-0.334594	1.087109
C57	C	1.734752	-0.866981	0.577899
C58	C	2.234752	-0.366981	1.077899
N59	N	1.629701	-0.834559	0.568702
N60	N	2.129701	-0.334559	1.068702
N61	N	1.629700	-0.772101	0.568730
N62	N	2.129700	-0.272101	1.068730
C63	C	1.734744	-0.740192	0.577957
C64	C	2.234744	-0.240192	1.077957
C65	C	1.658019	-0.971127	0.501096
C66	C	2.158019	-0.471127	1.001096
C67	C	1.658013	-1.036870	0.501083
C68	C	2.158013	-0.536870	1.001083
C69	C	1.811489	-1.036882	0.654606
C70	C	2.311489	-0.536882	1.154606
C71	C	1.811485	-0.971140	0.654626
C72	C	2.311485	-0.471140	1.154626
C73	C	1.734751	-0.938266	0.577865
C74	C	2.234751	-0.438266	1.077865
C75	C	2.047625	-0.303273	0.578160
C76	C	2.547625	0.196727	1.078160
C77	C	2.181025	-0.303276	0.578167
C78	C	2.681025	0.196724	1.078167
C79	C	1.734535	-0.303261	0.889968
C80	C	2.234535	0.196739	1.389968
C81	C	1.734625	-0.303280	1.023368
C82	C	2.234625	0.196720	1.523368
C83	C	1.734558	-0.139714	0.578131
C84	C	2.234558	0.360286	1.078131
C85	C	1.734751	-0.069746	0.577824
C86	C	2.234751	0.430254	1.077824
C87	C	1.734663	-0.303284	0.265101
C88	C	2.234663	0.196716	0.765101
C89	C	1.734697	-0.303292	0.131701
C90	C	2.234697	0.196708	0.631701
H91	H	1.595508	-0.543522	0.438762
H92	H	2.095508	-0.043522	0.938762
Br93	Br	1.915625	-1.081499	0.758766
Br94	Br	2.415625	-0.581499	1.258766
H95	H	1.595537	-0.944359	0.438594
H96	H	2.095537	-0.444359	0.938594
H97	H	1.873931	-0.543544	0.717315
H98	H	2.373931	-0.043544	1.217315
H99	H	1.595528	-1.063623	0.438567
H100	H	2.095528	-0.563623	0.938567
H101	H	1.873963	-0.944385	0.717141
H102	H	2.373963	-0.444385	1.217141
H103	H	1.873937	-0.662815	0.717251
H104	H	2.373937	-0.162815	1.217251
H105	H	1.595517	-0.662785	0.438714
H106	H	2.095517	-0.162785	0.938714
