data_functionalizedCrystal
_audit_creation_method	'MofGen! by Chris Wilmer'
_symmetry_space_group_name_H-M	'P1'
_symmetry_Int_Tables_number	1
_symmetry_cell_setting	triclinic
loop_
_symmetry_equiv_pos_as_xyz
  x,y,z
_cell_length_a	10.489716
_cell_length_b	15.944493
_cell_length_c	8.965430
_cell_angle_alpha	90.006294
_cell_angle_beta	89.996523
_cell_angle_gamma	84.002090
loop_
_atom_site_label
_atom_site_type_symbol
_atom_site_fract_x
_atom_site_fract_y
_atom_site_fract_z
O1	O	1.692393	0.118405	-0.124006
O2	O	1.321035	0.129551	-0.124009
O3	O	1.516893	0.001760	-0.124020
O4	O	1.496534	0.246196	-0.123995
O5	O	1.516877	0.001769	0.124059
O6	O	1.321018	0.129559	0.124069
O7	O	1.692376	0.118414	0.124073
Cu8	Cu	1.506696	0.123987	0.146723
Cu9	Cu	1.506715	0.123977	-0.146659
O10	O	1.496518	0.246204	0.124084
C11	C	1.273506	0.128718	0.000029
C12	C	1.131911	0.126212	0.000027
C13	C	1.033126	0.204577	0.000031
C14	C	0.956359	0.163172	0.122350
C15	C	0.956382	0.163145	-0.122237
C16	C	1.057009	0.084840	0.122446
C17	C	1.057037	0.084824	-0.122250
C18	C	0.980320	0.043361	0.000098
C19	C	1.516053	-0.029535	0.000013
C20	C	1.513558	-0.122798	-0.000006
C21	C	1.628845	-0.357872	0.000023
C22	C	1.566683	-0.408814	-0.122292
C23	C	1.508936	-0.293547	0.000012
C24	C	1.566639	-0.408782	0.122294
C25	C	1.504480	-0.458483	0.000036
C26	C	1.446806	-0.343261	-0.122404
C27	C	1.446780	-0.343225	0.122292
C28	C	1.384530	-0.394135	-0.000054
C29	C	1.511506	-0.198532	-0.000003
C30	C	1.501900	-0.553496	0.000041
C31	C	1.739905	0.119247	0.000031
C32	C	1.881500	0.121752	0.000024
C33	C	1.497358	0.277500	0.000047
C34	C	1.499853	0.370763	0.000056
N35	N	1.506691	0.123994	0.353072
N36	N	1.506730	0.123964	-0.353008
C37	C	1.416086	0.183073	0.450383
C38	C	1.531343	0.200063	0.549800
C39	C	1.391483	0.107011	0.549782
C40	C	1.622006	0.141022	0.450300
C41	C	1.482071	0.047937	0.450274
C42	C	1.597411	0.064895	0.549646
H43	H	1.100787	0.051781	0.225959
C44	C	1.116467	0.040174	-0.261958
H45	H	1.081843	0.068111	-0.348782
H46	H	1.097476	-0.016785	-0.262844
H47	H	1.206757	0.041672	-0.260456
C48	C	1.768368	-0.335920	-0.000137
H49	H	1.810788	-0.358489	-0.087155
H50	H	1.811368	-0.359334	0.085874
H51	H	1.769019	-0.276387	0.000739
C52	C	0.897033	0.207843	-0.261928
H53	H	0.914727	0.265075	-0.261764
H54	H	0.806925	0.205465	-0.261415
H55	H	0.932861	0.180572	-0.348789
H56	H	0.912400	0.196256	0.225766
H57	H	1.617297	-0.437408	0.225696
C58	C	0.948607	-0.048787	0.000183
H59	H	0.983398	-0.076490	0.087144
H60	H	0.984606	-0.076814	-0.085886
H61	H	0.858237	-0.049901	-0.000624
H62	H	1.617329	-0.437462	-0.225701
C63	C	1.753677	0.160515	0.391536
H64	H	1.808654	0.168612	0.473329
H65	H	1.743439	0.210262	0.332579
H66	H	1.790180	0.114686	0.332460
H67	H	1.294038	0.092661	0.593484
C68	C	1.453855	-0.038904	0.391154
H69	H	1.371906	-0.050876	0.425154
H70	H	1.517392	-0.080999	0.426617
H71	H	1.454824	-0.038405	0.285202
C72	C	1.378469	-0.304749	-0.262266
H73	H	1.380540	-0.245324	-0.261449
H74	H	1.291954	-0.317381	-0.262627
H75	H	1.420782	-0.327774	-0.349015
H76	H	1.339533	0.233080	0.406798
H77	H	1.056829	0.272743	0.000152
C78	C	1.244898	-0.415869	-0.000142
H79	H	1.202511	-0.393222	-0.087109
H80	H	1.202007	-0.392416	0.085922
H81	H	1.244039	-0.475388	0.000673
C82	C	1.378427	-0.304496	0.261991
H83	H	1.421167	-0.327032	0.348820
H84	H	1.292111	-0.317529	0.262872
H85	H	1.379864	-0.245026	0.260483
C86	C	1.559504	0.286929	0.608879
H87	H	1.495036	0.328856	0.574906
H88	H	1.640736	0.299395	0.573361
H89	H	1.560080	0.286132	0.714831
H90	H	1.674134	0.014919	0.592957
