data_functionalizedCrystal
_audit_creation_method	'MofGen! by Chris Wilmer'
_symmetry_space_group_name_H-M	'P1'
_symmetry_Int_Tables_number	1
_symmetry_cell_setting	triclinic
loop_
_symmetry_equiv_pos_as_xyz
  x,y,z
_cell_length_a	19.121275
_cell_length_b	25.639240
_cell_length_c	19.120904
_cell_angle_alpha	87.592153
_cell_angle_beta	94.963872
_cell_angle_gamma	92.395078
loop_
_atom_site_label
_atom_site_type_symbol
_atom_site_fract_x
_atom_site_fract_y
_atom_site_fract_z
Zn1	Zn	1.058547	0.252940	-0.351898
Zn2	Zn	1.558547	0.752940	0.148102
Zn3	Zn	1.063449	0.336793	-0.234233
Zn4	Zn	1.563449	0.836793	0.265767
Zn5	Zn	0.945914	0.245803	-0.239273
Zn6	Zn	1.445914	0.745803	0.260727
Zn7	Zn	0.940819	0.336767	-0.356877
Zn8	Zn	1.440819	0.836767	0.143123
O9	O	1.002182	0.293076	-0.295570
O10	O	1.502182	0.793076	0.204430
O11	O	1.157655	0.267061	-0.332097
O12	O	1.657655	0.767061	0.167903
O13	O	1.052041	0.321747	-0.136441
O14	O	1.552041	0.821747	0.363559
O15	O	0.960935	0.173588	-0.254239
O16	O	1.460935	0.673588	0.245761
O17	O	1.161257	0.328668	-0.245649
O18	O	1.661257	0.828668	0.254351
O19	O	1.043686	0.178832	-0.336984
O20	O	1.543686	0.678832	0.163016
O21	O	0.965689	0.254897	-0.140144
O22	O	1.465689	0.754897	0.359856
O23	O	0.846780	0.254871	-0.259067
O24	O	1.346780	0.754871	0.240933
O25	O	0.952253	0.328624	-0.454677
O26	O	1.452253	0.828624	0.045323
O27	O	0.843037	0.321703	-0.345469
O28	O	1.343037	0.821703	0.154531
O29	O	1.038746	0.267036	-0.451019
O30	O	1.538746	0.767036	0.048981
O31	O	1.047101	0.409952	-0.250476
O32	O	1.547101	0.909952	0.249524
O33	O	0.957006	0.409933	-0.340582
O34	O	1.457006	0.909933	0.159418
C35	C	0.819379	0.287510	-0.303356
C36	C	1.319379	0.787510	0.196644
C37	C	0.741174	0.285142	-0.306703
C38	C	1.241174	0.785142	0.193297
C39	C	0.706309	0.316049	-0.263200
C40	C	1.206309	0.816049	0.236800
C41	C	0.632827	0.313824	-0.266354
C42	C	1.132827	0.813824	0.233646
C43	C	0.594212	0.280690	-0.313008
C44	C	1.094212	0.780690	0.186992
C45	C	0.629082	0.249783	-0.356516
C46	C	1.129082	0.749783	0.143484
C47	C	0.702563	0.252010	-0.353365
C48	C	1.202563	0.752010	0.146635
C49	C	0.372254	0.272365	-0.324782
C50	C	0.872254	0.772365	0.175218
C51	C	0.298769	0.270139	-0.327928
C52	C	0.798769	0.770139	0.172072
C53	C	0.302518	0.334181	-0.237766
C54	C	0.802518	0.834181	0.262234
C55	C	0.376000	0.336403	-0.234616
C56	C	0.876000	0.836403	0.265384
C57	C	0.410864	0.305498	-0.278127
C58	C	0.910864	0.805498	0.221873
C59	C	0.519101	0.278414	-0.316232
C60	C	1.019101	0.778414	0.183768
C61	C	0.485973	0.307777	-0.274906
C62	C	0.985973	0.807777	0.225094
C63	C	1.002051	0.428913	-0.295537
C64	C	1.502051	0.928913	0.204463
C65	C	1.002059	0.487028	-0.295544
C66	C	1.502059	0.987028	0.204456
C67	C	1.049152	0.847396	-0.248700
C68	C	1.549152	1.347396	0.251300
C69	C	1.049173	0.902001	-0.248705
C70	C	1.549173	1.402001	0.251295
O71	O	1.089121	0.930239	-0.208859
O72	O	1.589121	1.430239	0.291141
N73	N	1.002238	0.929317	-0.295584
N74	N	1.502238	1.429317	0.204416
C75	C	0.955284	0.902025	-0.342464
C76	C	1.455284	1.402025	0.157536
O77	O	0.915365	0.930274	-0.382339
O78	O	1.415365	1.430274	0.117661
C79	C	0.955267	0.847421	-0.342461
C80	C	1.455267	1.347421	0.157539
C81	C	1.002200	0.820108	-0.295575
C82	C	1.502200	1.320108	0.204425
C83	C	1.096082	0.820083	-0.201818
C84	C	1.596082	1.320083	0.298182
C85	C	1.096059	0.765481	-0.201811
C86	C	1.596059	1.265481	0.298189
C87	C	1.049107	0.738193	-0.248686
C88	C	1.549107	1.238193	0.251314
C89	C	1.002177	0.765507	-0.295568
C90	C	1.502177	1.265507	0.204432
C91	C	0.908316	0.820131	-0.389344
C92	C	1.408316	1.320131	0.110656
C93	C	0.908303	0.765523	-0.389338
C94	C	1.408303	1.265523	0.110662
C95	C	0.955237	0.738210	-0.342451
C96	C	1.455237	1.238210	0.157549
C97	C	0.955203	0.683617	-0.342437
C98	C	1.455203	1.183617	0.157563
N99	N	1.002138	0.656301	-0.295559
N100	N	1.502138	1.156301	0.204441
C101	C	1.049090	0.683589	-0.248683
C102	C	1.549090	1.183589	0.251317
C103	C	0.955325	1.016697	-0.342468
C104	C	1.455325	1.516697	0.157532
C105	C	0.955338	1.071300	-0.342468
C106	C	1.455338	1.571300	0.157532
C107	C	1.049228	1.071272	-0.248710
C108	C	1.549228	1.571272	0.251290
C109	C	1.049211	1.016668	-0.248707
C110	C	1.549211	1.516668	0.251293
C111	C	1.002260	0.989381	-0.295589
C112	C	1.502260	1.489381	0.204411
C113	C	1.049039	0.568922	-0.248673
C114	C	1.549039	1.068922	0.251327
C115	C	1.049011	0.514316	-0.248669
C116	C	1.549011	1.014316	0.251331
C117	C	0.955123	0.514348	-0.342429
C118	C	1.455123	1.014348	0.157571
C119	C	0.955149	0.568950	-0.342431
C120	C	1.455149	1.068950	0.157569
C121	C	1.002113	0.596236	-0.295550
C122	C	1.502113	1.096236	0.204450
O123	O	0.915278	0.655345	-0.382265
O124	O	1.415278	1.155345	0.117735
O125	O	1.089009	0.655335	-0.208822
O126	O	1.589009	1.155335	0.291178
C127	C	1.185699	0.298664	-0.287755
C128	C	1.685699	0.798664	0.212245
C129	C	1.263903	0.301045	-0.284425
C130	C	1.763903	0.801045	0.215575
C131	C	0.994384	0.298623	-0.479092
C132	C	1.494384	0.798623	0.020908
C133	C	0.991062	0.300987	-0.557298
C134	C	1.491062	0.800987	-0.057298
C135	C	1.002306	1.156708	-0.295607
C136	C	1.502306	1.656708	0.204393
C137	C	1.002293	1.098593	-0.295595
C138	C	1.502293	1.598593	0.204405
C139	C	1.034531	0.270034	-0.592136
C140	C	1.534531	0.770034	-0.092136
C141	C	1.031400	0.272253	-0.665619
C142	C	1.531400	0.772253	-0.165619
C143	C	0.984803	0.305428	-0.704263
C144	C	1.484803	0.805428	-0.204263
C145	C	0.941329	0.336383	-0.669420
C146	C	1.441329	0.836383	-0.169420
C147	C	0.944457	0.334161	-0.595938
C148	C	1.444457	0.834161	-0.095938
C149	C	0.973103	0.313739	-0.926225
C150	C	1.473103	0.813739	-0.426225
C151	C	0.969980	0.315960	-0.999712
C152	C	1.469980	0.815960	-0.499712
C153	C	1.060051	0.251829	-0.995906
C154	C	1.560051	0.751829	-0.495906
C155	C	1.063177	0.249612	-0.922423
C156	C	1.563177	0.749612	-0.422423
C157	C	1.019701	0.280565	-0.887587
C158	C	1.519701	0.780565	-0.387587
C159	C	0.981603	0.307698	-0.779374
C160	C	1.481603	0.807698	-0.279374
C161	C	1.022897	0.278291	-0.812477
C162	C	1.522897	0.778291	-0.312477
C163	C	1.009990	0.287514	-0.112761
C164	C	1.509990	0.787514	0.387239
C165	C	1.013449	0.285006	-0.034550
C166	C	1.513449	0.785006	0.465450
H167	H	0.400631	0.247200	-0.360212
H168	H	0.900631	0.747200	0.139788
H169	H	1.066799	0.247049	-0.693981
H170	H	1.566799	0.747049	-0.193981
H171	H	1.101123	0.222599	-0.890964
H172	H	1.601123	0.722599	-0.390964
H173	H	0.730949	0.226843	-0.388790
H174	H	1.230949	0.726843	0.111210
H175	H	1.072477	0.243021	-0.560677
H176	H	1.572477	0.743021	-0.060677
H177	H	0.407435	0.363384	-0.196624
H178	H	0.907435	0.863384	0.303376
H179	H	0.916934	0.591190	-0.380611
H180	H	1.416934	1.091190	0.119389
Cl181	Cl	0.534518	0.349431	-0.216259
Cl182	Cl	1.034518	0.849431	0.283741
Cl183	Cl	0.849276	0.731223	-0.448281
Cl184	Cl	1.349276	1.231223	0.051719
H185	H	1.087229	0.492079	-0.210486
H186	H	1.587229	0.992079	0.289514
H187	H	0.917085	0.994483	-0.380643
H188	H	1.417085	1.494483	0.119357
H189	H	1.134278	0.743246	-0.163634
H190	H	1.634278	1.243246	0.336366
Cl191	Cl	1.114701	0.212918	-1.039705
Cl192	Cl	1.614701	0.712918	-0.539705
Cl193	Cl	0.896105	0.480033	-0.401358
Cl194	Cl	1.396105	0.980033	0.098642
Cl195	Cl	0.849319	0.854454	-0.448299
Cl196	Cl	1.349319	1.354454	0.051701
Cl197	Cl	0.911393	0.357666	-1.048292
Cl198	Cl	1.411393	0.857666	-0.548292
H199	H	0.604443	0.338991	-0.230929
H200	H	1.104443	0.838991	0.269071
H201	H	0.917114	1.093533	-0.380641
H202	H	1.417114	1.593533	0.119359
H203	H	0.937712	0.338951	-0.897870
H204	H	1.437712	0.838951	-0.397870
Cl205	Cl	1.081467	0.236581	-0.763895
Cl206	Cl	1.581467	0.736581	-0.263895
Cl207	Cl	0.882747	0.378087	-0.718000
Cl208	Cl	1.382747	0.878087	-0.218000
H209	H	0.943667	0.334712	-0.810846
H210	H	1.443667	0.834712	-0.310846
Cl211	Cl	0.580538	0.208132	-0.415173
Cl212	Cl	1.080538	0.708132	0.084827
H213	H	0.737744	0.343028	-0.225206
H214	H	1.237744	0.843028	0.274794
Cl215	Cl	0.258685	0.373033	-0.183073
Cl216	Cl	0.758685	0.873033	0.316927
Cl217	Cl	0.250225	0.228478	-0.386580
Cl218	Cl	0.750225	0.728478	0.113420
H219	H	0.909052	0.359361	-0.567574
H220	H	1.409052	0.859361	-0.067574
H221	H	0.487653	0.251436	-0.354218
H222	H	0.987653	0.751436	0.145782
H223	H	1.087283	0.591132	-0.210500
H224	H	1.587283	1.091132	0.289500
H225	H	1.134320	0.842295	-0.163646
H226	H	1.634320	1.342295	0.336354
Cl227	Cl	1.108253	1.105588	-0.189779
Cl228	Cl	1.608253	1.605588	0.310221
Cl229	Cl	1.108216	0.982338	-0.189763
Cl230	Cl	1.608216	1.482338	0.310237
