data_functionalizedCrystal
_audit_creation_method	'MofGen! by Chris Wilmer'
_symmetry_space_group_name_H-M	'P1'
_symmetry_Int_Tables_number	1
_symmetry_cell_setting	triclinic
loop_
_symmetry_equiv_pos_as_xyz
  x,y,z
_cell_length_a	19.902436
_cell_length_b	18.878441
_cell_length_c	18.878441
_cell_angle_alpha	90.002294
_cell_angle_beta	60.002973
_cell_angle_gamma	59.996448
loop_
_atom_site_label
_atom_site_type_symbol
_atom_site_fract_x
_atom_site_fract_y
_atom_site_fract_z
Zr1	Zr	0.735471	-0.093007	0.682415
O2	O	0.875649	-0.206128	0.569312
O3	O	0.595291	-0.058319	0.717084
O4	O	0.735467	-0.206109	0.717088
O5	O	0.735478	0.058229	0.569308
O6	O	0.735465	-0.206104	0.833659
O7	O	0.735474	-0.058339	0.569308
O8	O	0.484717	0.058264	0.833652
O9	O	0.986226	-0.206140	0.569314
O10	O	0.652948	-0.043534	0.818869
O11	O	0.652953	0.043456	0.731873
O12	O	0.817991	-0.130547	0.731877
O13	O	0.817995	-0.043557	0.644881
Zr14	Zr	0.735474	0.092912	0.868331
Zr15	Zr	0.735468	-0.093000	0.868332
Zr16	Zr	0.735477	0.092906	0.682414
Zr17	Zr	0.911828	-0.093025	0.682418
Zr18	Zr	0.559117	0.092930	0.868327
O19	O	0.875654	0.058224	0.833661
O20	O	0.875645	-0.206119	0.833662
O21	O	0.875658	0.058215	0.569311
O22	O	0.595296	0.206034	0.981433
O23	O	0.595287	-0.058309	0.981435
O24	O	0.595300	0.206024	0.717083
O25	O	0.735467	-0.058324	0.981438
O26	O	0.735479	0.206014	0.833657
O27	O	0.735480	0.206010	0.717086
O28	O	0.735471	0.058244	0.981437
O29	O	0.986223	-0.206134	0.717094
O30	O	0.484722	0.206040	0.833652
O31	O	0.484720	0.206045	0.981431
O32	O	0.484715	0.058270	0.981432
O33	O	0.986231	-0.058364	0.569314
O34	O	0.986228	-0.058359	0.717093
O35	O	0.652954	0.130453	0.818868
O36	O	0.652950	0.043462	0.905864
O37	O	0.817992	-0.043551	0.818872
O38	O	0.817997	0.043439	0.731876
C39	C	0.514877	-0.000025	0.775368
C40	C	0.440009	-0.000017	0.775366
C41	C	0.735476	-0.000056	0.542819
C42	C	0.735478	-0.000058	0.463892
C43	C	0.735480	0.232501	0.775371
C44	C	0.735483	0.311425	0.775371
C45	C	0.167999	-0.000058	0.775375
C46	C	0.196240	0.055083	0.720762
C47	C	0.274359	0.054856	0.720466
C48	C	0.302946	-0.000037	0.775371
C49	C	0.338507	-0.094574	0.735348
C50	C	0.260670	-0.094283	0.734937
C51	C	0.133484	0.038581	0.870038
C52	C	0.210536	0.040505	0.869899
C53	C	0.379215	-0.000030	0.775369
C54	C	0.091735	-0.000071	0.775373
C55	C	0.956068	-0.000070	0.775378
C56	C	1.030936	-0.000077	0.775379
C57	C	0.735465	-0.232595	0.775374
C58	C	0.735462	-0.311520	0.775374
C59	C	0.821633	0.303086	0.729964
C60	C	0.821629	0.377247	0.729960
C61	C	0.735476	0.459746	0.775368
C62	C	0.649320	0.468084	0.820777
C63	C	0.649324	0.393923	0.820776
C64	C	0.649317	0.622654	0.820778
C65	C	0.649312	0.696819	0.820781
C66	C	0.821623	0.605978	0.729963
C67	C	0.821627	0.531818	0.729961
C68	C	0.735470	0.540160	0.775371
C69	C	0.735468	0.064183	0.123935
C70	C	0.735465	0.064182	0.198096
C71	C	0.735467	-0.000042	0.235171
C72	C	0.735463	-0.064264	0.198086
C73	C	0.735460	-0.064259	0.123929
C74	C	0.735472	-0.064271	0.352650
C75	C	0.735477	-0.064277	0.426810
C76	C	0.735476	0.064170	0.426817
C77	C	0.735473	0.064175	0.352660
C78	C	0.735471	-0.000048	0.315579
C79	C	0.735469	-0.000039	1.007927
C80	C	0.735467	-0.000036	1.086853
C81	C	0.514873	-0.000016	1.007922
C82	C	0.440004	-0.000006	1.086847
C83	C	0.514885	0.232523	0.775367
C84	C	0.440020	0.311455	0.775365
C85	C	0.514881	0.232531	1.007921
C86	C	0.440015	0.311467	1.086845
C87	C	0.956064	-0.232626	0.542825
C88	C	1.030931	-0.311561	0.463900
C89	C	0.956072	-0.000078	0.542824
C90	C	1.030941	-0.000089	0.463899
C91	C	0.956060	-0.232618	0.775379
C92	C	1.030925	-0.311550	0.775381
C93	C	0.404844	-0.045420	1.078500
C94	C	0.334506	-0.045427	1.152652
C95	C	0.299325	-0.000015	1.235149
C96	C	0.334492	0.045400	1.243493
C97	C	0.404833	0.045402	1.169343
C98	C	0.404863	0.393942	0.820774
C99	C	0.334529	0.468114	0.820769
C100	C	0.299348	0.459798	0.775359
C101	C	0.334512	0.377303	0.729943
C102	C	0.404849	0.303133	0.729944
C103	C	0.404854	0.303127	1.169328
C104	C	0.334519	0.377288	1.243493
C105	C	0.299340	0.459787	1.235174
C106	C	0.334508	0.468125	1.152682
C107	C	0.404847	0.393965	1.078519
C108	C	1.066100	-0.303222	0.381417
C109	C	1.136457	-0.377383	0.307252
C110	C	1.171639	-0.459882	0.315572
C111	C	1.136467	-0.468219	0.398063
C112	C	1.066116	-0.394059	0.472226
C113	C	1.066109	0.045318	0.472245
C114	C	1.136466	0.045305	0.398094
C115	C	1.171650	-0.000110	0.315597
C116	C	1.136479	-0.045522	0.307252
C117	C	1.066128	-0.045514	0.381402
C118	C	1.066084	-0.303206	0.820800
C119	C	1.136419	-0.377364	0.820819
C120	C	1.171598	-0.459865	0.775413
C121	C	1.136433	-0.468207	0.729992
C122	C	1.066095	-0.394050	0.729979
H123	H	0.247715	0.124469	0.747311
H124	H	0.305881	-0.082410	1.145840
H125	H	0.305892	0.370484	1.310654
H126	H	1.165122	-0.535399	0.404826
H127	H	1.165043	-0.370555	0.857804
H128	H	1.037482	-0.400860	0.539385
O129	O	0.442788	0.214154	1.178320
H130	H	0.497604	0.163976	1.112898
O131	O	1.174435	-0.094505	0.218269
H132	H	1.160934	-0.048651	0.182318
H133	H	1.037458	-0.236054	0.374627
H134	H	0.242066	0.520166	1.295569
O135	O	0.296537	0.368338	0.680995
H136	H	0.241705	0.433776	0.688647
H137	H	1.037452	-0.236036	0.857775
H138	H	1.228872	-0.520242	0.775431
O139	O	0.366184	-0.151355	0.785504
H140	H	0.391034	-0.217766	0.755918
O141	O	1.247524	-0.000115	0.235617
H142	H	1.220521	0.028300	0.196460
H143	H	1.037467	0.082306	0.539412
H144	H	1.165090	0.082288	0.404905
O145	O	1.028190	-0.094481	0.372396
H146	H	1.064473	-0.126050	0.302571
O147	O	0.296604	0.557085	0.869760
H148	H	0.219003	0.593058	0.919942
O149	O	0.442634	0.214164	0.681104
H150	H	0.406296	0.220852	0.649586
O151	O	1.028178	-0.403049	0.680984
H152	H	1.087240	-0.439065	0.611193
O153	O	0.442748	0.402963	0.989555
H154	H	0.406453	0.472791	0.996239
O155	O	0.735458	0.133450	0.238098
H156	H	0.735465	0.178104	0.199854
O157	O	0.296531	0.094381	1.332479
H158	H	0.355567	0.068138	1.340043
O159	O	1.174368	-0.368381	0.218285
H160	H	1.138063	-0.298554	0.224968
H161	H	0.305855	0.535305	1.145921
O162	O	0.556400	0.402923	0.869770
H163	H	0.515076	0.438943	0.843539
H164	H	1.165087	-0.535390	0.693024
O165	O	0.735454	0.133459	0.083953
H166	H	0.735441	0.178121	0.122208
H167	H	1.228923	-0.520261	0.255176
O168	O	0.172459	0.132761	0.909508
H169	H	0.107153	0.160954	0.976302
H170	H	0.735458	-0.116551	0.093739
H171	H	0.735478	0.116463	0.457012
O172	O	0.043383	0.129398	0.914320
H173	H	0.022196	0.148009	0.869346
O174	O	0.442793	-0.094416	0.989526
H175	H	0.383747	-0.068187	0.981978
O176	O	0.110795	0.147525	0.756123
H177	H	0.081070	0.177162	0.824429
H178	H	0.222200	0.028520	0.651347
H179	H	0.338818	0.028066	0.650640
H180	H	0.290212	-0.125215	0.665278
H181	H	0.405511	-0.125719	0.666356
O182	O	0.239544	-0.151670	0.784209
H183	H	0.284923	-0.179512	0.808218
H184	H	0.226140	0.004520	0.914019
H185	H	0.242047	-0.000023	1.295520
O186	O	0.735454	0.133451	0.312676
H187	H	0.735441	0.178117	0.350926
H188	H	0.433499	0.400729	0.857753
O189	O	0.108500	-0.014356	0.924202
H190	H	0.050847	-0.012805	0.926698
O191	O	0.914556	0.214106	0.680985
H192	H	0.974460	0.220770	0.649403
H193	H	0.891781	0.370450	0.692986
O194	O	0.556394	0.631646	0.869769
H195	H	0.496484	0.701470	0.901358
H196	H	0.735477	-0.116574	0.456994
H197	H	0.891781	0.464645	0.692991
H198	H	0.735459	-0.116554	0.228280
O199	O	0.914553	0.596971	0.680974
H200	H	0.900080	0.662397	0.688592
O201	O	0.442741	0.094399	1.178355
H202	H	0.429234	0.144592	1.146744
H203	H	0.735466	-0.116566	0.322463
H204	H	0.579172	0.535261	0.857745
O205	O	0.556393	0.785803	0.869746
H206	H	0.496483	0.779147	0.901309
O207	O	0.223467	0.539805	0.775382
H208	H	0.250467	0.578964	0.746981
