data_functionalizedCrystal
_audit_creation_method	'MofGen! by Chris Wilmer'
_symmetry_space_group_name_H-M	'P1'
_symmetry_Int_Tables_number	1
_symmetry_cell_setting	triclinic
loop_
_symmetry_equiv_pos_as_xyz
  x,y,z
_cell_length_a	18.050591
_cell_length_b	19.121063
_cell_length_c	18.050582
_cell_angle_alpha	92.415032
_cell_angle_beta	89.979078
_cell_angle_gamma	92.465257
loop_
_atom_site_label
_atom_site_type_symbol
_atom_site_fract_x
_atom_site_fract_y
_atom_site_fract_z
Zn1	Zn	1.122676	-0.279734	-0.432630
Zn2	Zn	1.622676	0.220266	0.067370
Zn3	Zn	1.117290	-0.397178	-0.313729
Zn4	Zn	1.617290	0.102822	0.186271
Zn5	Zn	0.998495	-0.279737	-0.308441
Zn6	Zn	1.498495	0.220263	0.191559
Zn7	Zn	0.993148	-0.397141	-0.437863
Zn8	Zn	1.493148	0.102859	0.062137
O9	O	1.057903	-0.338447	-0.373166
O10	O	1.557903	0.161553	0.126834
O11	O	1.225886	-0.295327	-0.416880
O12	O	1.725886	0.204673	0.083120
O13	O	1.101515	-0.381616	-0.209104
O14	O	1.601515	0.118384	0.290896
O15	O	1.019460	-0.181452	-0.320512
O16	O	1.519460	0.318548	0.179488
O17	O	1.221929	-0.381613	-0.329524
O18	O	1.721929	0.118387	0.170476
O19	O	1.110695	-0.181449	-0.411753
O20	O	1.610695	0.318551	0.088247
O21	O	1.014237	-0.295332	-0.205219
O22	O	1.514237	0.204668	0.294781
O23	O	0.893862	-0.295296	-0.325586
O24	O	1.393862	0.204704	0.174414
O25	O	1.010347	-0.381550	-0.541093
O26	O	1.510347	0.118450	-0.041093
O27	O	0.889934	-0.381552	-0.420672
O28	O	1.389934	0.118448	0.079328
O29	O	1.105510	-0.295291	-0.537248
O30	O	1.605510	0.204709	-0.037248
O31	O	1.096331	-0.495458	-0.334599
O32	O	1.596331	0.004542	0.165401
O33	O	1.005124	-0.495430	-0.425799
O34	O	1.505124	0.004570	0.074201
C35	C	0.864952	-0.338421	-0.373123
C36	C	1.364952	0.161579	0.126877
C37	C	0.782406	-0.338427	-0.373124
C38	C	1.282406	0.161573	0.126876
C39	C	0.585072	-0.291466	-0.321528
C40	C	1.085072	0.208534	0.178472
C41	C	0.532763	-0.355526	-0.306137
C42	C	1.032763	0.144474	0.193863
C43	C	0.631274	-0.338448	-0.373158
C44	C	1.131274	0.161552	0.126842
C45	C	0.536500	-0.274410	-0.388548
C46	C	1.036500	0.225590	0.111452
C47	C	0.485288	-0.338463	-0.373190
C48	C	0.985288	0.161537	0.126810
C49	C	0.580051	-0.402542	-0.357733
C50	C	1.080051	0.097458	0.142267
C51	C	0.583794	-0.321383	-0.440174
C52	C	1.083794	0.178617	0.059826
C53	C	0.531506	-0.385487	-0.424811
C54	C	1.031506	0.114513	0.075189
C55	C	0.715373	-0.338439	-0.373138
C56	C	1.215373	0.161561	0.126862
C57	C	0.401191	-0.338480	-0.373211
C58	C	0.901191	0.161520	0.126789
C59	C	1.049583	-0.520928	-0.381357
C60	C	1.549583	-0.020928	0.118643
C61	C	1.046092	-0.598994	-0.384886
C62	C	1.546092	-0.098994	0.115114
C63	C	1.091975	-0.635661	-0.339100
C64	C	1.591975	-0.135661	0.160900
C65	C	1.088695	-0.709012	-0.342424
C66	C	1.588695	-0.209012	0.157576
C67	C	1.039529	-0.745696	-0.391530
C68	C	1.539529	-0.245696	0.108470
C69	C	0.993644	-0.709024	-0.437321
C70	C	1.493644	-0.209024	0.062679
C71	C	0.996928	-0.635674	-0.434001
C72	C	1.496928	-0.135674	0.065999
C73	C	1.027241	-0.967166	-0.403932
C74	C	1.527241	-0.467166	0.096068
C75	C	1.023960	-1.040521	-0.407247
C76	C	1.523960	-0.540521	0.092753
C77	C	1.119012	-1.040504	-0.312351
C78	C	1.619012	-0.540504	0.187649
C79	C	1.122288	-0.967153	-0.309032
C80	C	1.622288	-0.467153	0.190968
C81	C	1.076406	-0.930487	-0.354825
C82	C	1.576406	-0.430487	0.145175
C83	C	1.036174	-0.820673	-0.394927
C84	C	1.536174	-0.320673	0.105073
C85	C	1.079765	-0.855512	-0.351432
C86	C	1.579765	-0.355512	0.148568
C87	C	1.251607	-0.338474	-0.373208
C88	C	1.751607	0.161526	0.126792
C89	C	1.334152	-0.338485	-0.373227
C90	C	1.834152	0.161515	0.126773
C91	C	1.057933	-0.338416	-0.566870
C92	C	1.557933	0.161584	-0.066870
C93	C	1.057946	-0.338403	-0.649415
C94	C	1.557946	0.161597	-0.149415
C95	C	1.066275	-0.155254	-0.364959
C96	C	1.566275	0.344746	0.135041
C97	C	1.069843	-0.077188	-0.361461
C98	C	1.569843	0.422812	0.138539
C99	C	1.006237	-0.385246	-0.850954
C100	C	1.506237	0.114754	-0.350954
C101	C	1.073218	-0.402419	-0.901126
C102	C	1.573218	0.097581	-0.401126
C103	C	1.057985	-0.338349	-0.800543
C104	C	1.557985	0.161651	-0.300543
C105	C	0.991042	-0.321157	-0.897452
C106	C	1.491042	0.178843	-0.397452
C107	C	1.058017	-0.338299	-0.946526
C108	C	1.558017	0.161701	-0.446526
C109	C	1.125000	-0.355556	-0.849629
C110	C	1.625000	0.144444	-0.349629
C111	C	1.042780	-0.274264	-0.845950
C112	C	1.542780	0.225736	-0.345950
C113	C	1.109809	-0.291412	-0.896099
C114	C	1.609809	0.208588	-0.396099
C115	C	1.057966	-0.338380	-0.716446
C116	C	1.557966	0.161620	-0.216446
C117	C	1.058044	-0.338268	-1.030621
C118	C	1.558044	0.161732	-0.530621
C119	C	1.057917	-0.338428	-0.180213
C120	C	1.557917	0.161572	0.319787
C121	C	1.058057	-0.338243	-0.097659
C122	C	1.558057	0.161757	0.402341
H123	H	0.608520	-0.251778	-0.277822
H124	H	1.108520	0.248222	0.222178
H125	H	0.599186	-0.456720	-0.344666
H126	H	1.099186	0.043280	0.155334
H127	H	1.153633	-0.251732	-0.915852
H128	H	1.653633	0.248268	-0.415852
F129	F	1.174626	-0.928117	-0.256774
F130	F	1.674626	-0.428117	0.243226
F131	F	1.167843	-1.079531	-0.263621
F132	F	1.667843	-0.579531	0.236379
F133	F	1.199031	-0.374621	-0.822263
F134	F	1.699031	0.125379	-0.322263
F135	F	0.949086	-0.437149	-0.824955
F136	F	1.449086	0.062851	-0.324955
F137	F	1.025920	-0.203474	-0.814375
F138	F	1.525920	0.296526	-0.314375
F139	F	0.917030	-0.302177	-0.924946
F140	F	1.417030	0.197823	-0.424946
H141	H	1.086097	-0.456593	-0.925266
H142	H	1.586097	0.043407	-0.425266
H143	H	0.508190	-0.425270	-0.468489
H144	H	1.008190	0.074730	0.031511
H145	H	0.510374	-0.369971	-0.249476
H146	H	1.010374	0.130029	0.250524
F147	F	1.137533	-0.748032	-0.293694
F148	F	1.637533	-0.248032	0.206306
H149	H	0.606202	-0.306918	-0.496817
H150	H	1.106202	0.193082	0.003183
H151	H	0.989881	-0.937319	-0.441218
H152	H	1.489881	-0.437319	0.058782
F153	F	0.511365	-0.203618	-0.405545
F154	F	1.011365	0.296382	0.094455
F155	F	1.144300	-0.596626	-0.286830
F156	F	1.644300	-0.096626	0.213170
H157	H	0.983931	-1.070387	-0.447248
H158	H	1.483931	-0.570387	0.052752
F159	F	0.941321	-0.748067	-0.489588
F160	F	1.441321	-0.248067	0.010412
F161	F	0.948094	-0.596651	-0.482734
F162	F	1.448094	-0.096651	0.017266
H163	H	1.119799	-0.825642	-0.311452
H164	H	1.619799	-0.325642	0.188548
H165	H	0.996142	-0.850549	-0.434907
H166	H	1.496142	-0.350549	0.065093
