data_functionalizedCrystal
_audit_creation_method	'MofGen! by Chris Wilmer'
_symmetry_space_group_name_H-M	'P1'
_symmetry_Int_Tables_number	1
_symmetry_cell_setting	triclinic
loop_
_symmetry_equiv_pos_as_xyz
  x,y,z
_cell_length_a	16.992694
_cell_length_b	17.038272
_cell_length_c	16.053802
_cell_angle_alpha	92.751609
_cell_angle_beta	87.249047
_cell_angle_gamma	90.889890
loop_
_atom_site_label
_atom_site_type_symbol
_atom_site_fract_x
_atom_site_fract_y
_atom_site_fract_z
O1	O	1.054593	0.163385	-0.069325
O2	O	1.387926	0.496719	0.264008
O3	O	1.721260	0.830052	0.597342
O4	O	0.826187	0.161558	-0.069350
O5	O	1.159520	0.494891	0.263984
O6	O	1.492854	0.828225	0.597317
O7	O	0.939032	0.048571	-0.069331
O8	O	1.272366	0.381905	0.264003
O9	O	1.605699	0.715238	0.597336
O10	O	0.941748	0.276372	-0.069344
O11	O	1.275081	0.609705	0.263990
O12	O	1.608414	0.943039	0.597323
O13	O	0.932819	0.054763	0.069527
O14	O	1.266152	0.388097	0.402860
O15	O	1.599486	0.721430	0.736194
O16	O	0.819974	0.167750	0.069508
O17	O	1.153307	0.501083	0.402842
O18	O	1.486641	0.834416	0.736175
O19	O	1.048380	0.169577	0.069533
O20	O	1.381713	0.502911	0.402866
O21	O	1.715047	0.836244	0.736200
Zn22	Zn	0.933190	0.169646	0.091567
Zn23	Zn	1.266524	0.502980	0.424901
Zn24	Zn	1.599857	0.836313	0.758234
Zn25	Zn	0.941376	0.161489	-0.091384
Zn26	Zn	1.274710	0.494822	0.241949
Zn27	Zn	1.608043	0.828155	0.575283
O28	O	0.935535	0.282564	0.069514
O29	O	1.268868	0.615897	0.402848
O30	O	1.602201	0.949230	0.736181
C31	C	0.793711	0.162304	0.000076
C32	C	1.127045	0.495637	0.333410
C33	C	1.460378	0.828971	0.666743
C34	C	0.706200	0.155293	0.000067
C35	C	1.039533	0.488627	0.333400
C36	C	1.372867	0.821960	0.666734
C37	C	0.660472	0.222933	0.000064
C38	C	0.993805	0.556267	0.333397
C39	C	1.327138	0.889600	0.666731
C40	C	0.578245	0.216342	0.000076
C41	C	0.911578	0.549676	0.333409
C42	C	1.244911	0.883009	0.666742
C43	C	0.541748	0.142110	0.000085
C44	C	0.875081	0.475444	0.333418
C45	C	1.208415	0.808777	0.666752
C46	C	0.587482	0.074465	0.000091
C47	C	0.920816	0.407799	0.333424
C48	C	1.254149	0.741132	0.666757
C49	C	0.669707	0.081057	0.000085
C50	C	1.003041	0.414391	0.333418
C51	C	1.336374	0.747724	0.666751
C52	C	0.296327	0.114789	0.000109
C53	C	0.629660	0.448122	0.333442
C54	C	0.962993	0.781455	0.666775
C55	C	0.214096	0.108201	0.000112
C56	C	0.547429	0.441535	0.333446
C57	C	0.880762	0.774868	0.666779
C58	C	0.204864	0.250079	0.000099
C59	C	0.538197	0.583413	0.333432
C60	C	0.871530	0.916746	0.666766
C61	C	0.287091	0.256665	0.000088
C62	C	0.620424	0.589998	0.333421
C63	C	0.953758	0.923331	0.666755
C64	C	0.332818	0.189020	0.000098
C65	C	0.666151	0.522353	0.333431
C66	C	0.999484	0.855686	0.666765
N67	N	0.457699	0.135371	0.000094
N68	N	0.791033	0.468705	0.333428
N69	N	1.124366	0.802038	0.666761
N70	N	0.416865	0.195760	0.000095
N71	N	0.750198	0.529093	0.333428
N72	N	1.083531	0.862426	0.666761
C73	C	0.933456	0.022384	0.000098
C74	C	1.266790	0.355717	0.333431
C75	C	1.600123	0.689051	0.666764
C76	C	0.926089	-0.064871	0.000097
C77	C	1.259422	0.268462	0.333430
C78	C	1.592756	0.601796	0.666763
C79	C	0.993729	-0.110741	0.000105
C80	C	1.327062	0.222592	0.333438
C81	C	1.660395	0.555926	0.666772
C82	C	0.986802	-0.192727	0.000096
C83	C	1.320135	0.140607	0.333430
C84	C	1.653469	0.473940	0.666763
C85	C	0.912235	-0.228840	0.000085
C86	C	1.245568	0.104493	0.333419
C87	C	1.578902	0.437826	0.666752
C88	C	0.844590	-0.182964	0.000075
C89	C	1.177924	0.150369	0.333408
C90	C	1.511257	0.483702	0.666741
C91	C	0.851518	-0.100981	0.000077
C92	C	1.184851	0.232353	0.333411
C93	C	1.518185	0.565686	0.666744
C94	C	0.887761	-0.476135	0.000071
C95	C	1.221094	-0.142801	0.333405
C96	C	1.554428	0.190532	0.666738
C97	C	0.880838	-0.558124	0.000071
C98	C	1.214172	-0.224791	0.333404
C99	C	1.547505	0.108542	0.666738
C100	C	1.023051	-0.567881	0.000091
C101	C	1.356384	-0.234547	0.333424
C102	C	1.689718	0.098786	0.666758
C103	C	1.029972	-0.485895	0.000099
C104	C	1.363305	-0.152561	0.333432
C105	C	1.696639	0.180772	0.666765
C106	C	0.962328	-0.440026	0.000084
C107	C	1.295661	-0.106693	0.333417
C108	C	1.628994	0.226640	0.666750
C109	C	0.905153	-0.312643	0.000079
C110	C	1.238486	0.020691	0.333413
C111	C	1.571820	0.354024	0.666746
C112	C	0.969410	-0.356226	0.000084
C113	C	1.302744	-0.022893	0.333417
C114	C	1.636077	0.310441	0.666751
C115	C	1.080856	0.168831	0.000105
C116	C	1.414189	0.502164	0.333439
C117	C	1.747522	0.835498	0.666772
C118	C	1.168367	0.175841	0.000109
C119	C	1.501701	0.509175	0.333442
C120	C	1.835034	0.842508	0.666776
C121	C	0.941111	0.308751	0.000084
C122	C	1.274444	0.642084	0.333417
C123	C	1.607777	0.975418	0.666750
C124	C	0.948478	0.396006	0.000079
C125	C	1.281811	0.729339	0.333413
C126	C	1.615145	1.062673	0.666746
N127	N	0.927609	0.175214	0.216427
N128	N	1.260943	0.508547	0.549760
N129	N	1.594276	0.841881	0.883093
N130	N	0.946963	0.155915	-0.216243
N131	N	1.280297	0.489249	0.117090
N132	N	1.613630	0.822582	0.450423
C133	C	0.975645	0.127157	0.260129
C134	C	1.308978	0.460491	0.593462
C135	C	1.642312	0.793824	0.926795
C136	C	0.971749	0.131060	0.347535
C137	C	1.305082	0.464393	0.680868
C138	C	1.638416	0.797726	1.014201
C139	C	0.919820	0.183023	0.391237
C140	C	1.253154	0.516357	0.724571
C141	C	1.586487	0.849690	1.057904
C142	C	0.871779	0.231082	0.347529
C143	C	1.205113	0.564415	0.680863
C144	C	1.538446	0.897748	1.014196
C145	C	0.875672	0.227175	0.260125
C146	C	1.209005	0.560508	0.593458
C147	C	1.542339	0.893841	0.926791
C148	C	0.902815	0.200067	0.652644
C149	C	1.236148	0.533400	0.985977
C150	C	1.569482	0.866734	1.319311
C151	C	0.898928	0.203972	0.740055
C152	C	1.232261	0.537305	1.073388
C153	C	1.565594	0.870639	1.406721
C154	C	0.998897	0.103948	0.740054
C155	C	1.332230	0.437282	1.073388
C156	C	1.665563	0.770615	1.406721
C157	C	1.002788	0.100050	0.652648
C158	C	1.336121	0.433383	0.985981
C159	C	1.669455	0.766716	1.319315
C160	C	0.954744	0.148105	0.608948
C161	C	1.288077	0.481438	0.942281
C162	C	1.621411	0.814772	1.275614
N163	N	0.915838	0.187015	0.480580
N164	N	1.249172	0.520348	0.813914
N165	N	1.582505	0.853682	1.147247
N166	N	0.958723	0.144109	0.519606
N167	N	1.292056	0.477442	0.852939
N168	N	1.625389	0.810775	1.186273
H169	H	0.333548	0.059707	0.000118
H170	H	0.666881	0.393040	0.333451
H171	H	1.000215	0.726374	0.666784
H172	H	1.017934	0.084847	0.224552
H173	H	1.351268	0.418180	0.557885
H174	H	1.684601	0.751513	0.891218
H175	H	0.541016	0.271422	0.000072
H176	H	0.874349	0.604755	0.333406
H177	H	1.207683	0.938089	0.666739
Cl178	Cl	0.332966	0.349988	0.000071
Cl179	Cl	0.666300	0.683322	0.333404
Cl180	Cl	0.999633	1.016655	0.666738
Cl181	Cl	1.032137	0.070644	0.402476
Cl182	Cl	1.365470	0.403977	0.735809
Cl183	Cl	1.698804	0.737311	1.069143
H184	H	0.706939	0.025977	0.000087
H185	H	1.040272	0.359311	0.333420
H186	H	1.373606	0.692644	0.666753
Cl187	Cl	0.147374	0.335113	0.000090
Cl188	Cl	0.480707	0.668446	0.333423
Cl189	Cl	0.814041	1.001779	0.666756
Cl190	Cl	0.168215	0.014875	0.000142
Cl191	Cl	0.501548	0.348208	0.333476
Cl192	Cl	0.834881	0.681542	0.666809
Cl193	Cl	0.541600	-0.018856	0.000107
Cl194	Cl	0.874934	0.314478	0.333441
Cl195	Cl	1.208267	0.647811	0.666774
Cl196	Cl	1.087475	-0.065349	0.000127
Cl197	Cl	1.420808	0.267985	0.333460
Cl198	Cl	1.754142	0.601318	0.666794
Cl199	Cl	1.071839	-0.250388	0.000109
Cl200	Cl	1.405173	0.082945	0.333442
Cl201	Cl	1.738506	0.416278	0.666776
H202	H	0.856639	0.246290	0.775633
H203	H	1.189972	0.579623	1.108967
H204	H	1.523306	0.912957	1.442300
Cl205	Cl	0.750848	-0.228365	0.000051
Cl206	Cl	1.084182	0.104968	0.333384
Cl207	Cl	1.417515	0.438301	0.666717
Cl208	Cl	1.123719	-0.440502	0.000085
Cl209	Cl	1.457052	-0.107169	0.333419
Cl210	Cl	1.790385	0.226165	0.666752
Cl211	Cl	0.811414	-0.358050	0.000061
Cl212	Cl	1.144747	-0.024717	0.333395
Cl213	Cl	1.478081	0.308617	0.666728
Cl214	Cl	0.787089	-0.603523	0.000063
Cl215	Cl	1.120423	-0.270190	0.333396
Cl216	Cl	1.453756	0.063144	0.666729
H217	H	1.078123	-0.605236	0.000102
H218	H	1.411456	-0.271902	0.333435
H219	H	1.744790	0.061431	0.666768
H220	H	0.836555	0.266306	0.224543
H221	H	1.169889	0.599640	0.557877
H222	H	1.503222	0.932973	0.891210
H223	H	1.038011	0.064823	0.775643
H224	H	1.371344	0.398156	1.108976
H225	H	1.704678	0.731490	1.442310
Cl226	Cl	0.766481	-0.043315	0.000064
Cl227	Cl	1.099815	0.290018	0.333397
Cl228	Cl	1.433148	0.623351	0.666731
Cl229	Cl	1.068071	0.034725	0.597707
Cl230	Cl	1.401404	0.368058	0.931041
Cl231	Cl	1.734738	0.701391	1.264374
Cl232	Cl	0.842422	0.260481	0.597712
Cl233	Cl	1.175755	0.593814	0.931046
Cl234	Cl	1.509088	0.927148	1.264379
Cl235	Cl	1.063149	-0.310824	0.000093
Cl236	Cl	1.396482	0.022509	0.333427
Cl237	Cl	1.729816	0.355842	0.666760
Cl238	Cl	0.802721	-0.418482	0.000050
Cl239	Cl	1.136055	-0.085149	0.333384
Cl240	Cl	1.469388	0.248185	0.666717
H241	H	0.690181	0.283381	0.000056
H242	H	1.023514	0.616714	0.333389
H243	H	1.356847	0.950048	0.666723
Cl244	Cl	0.806493	0.296404	0.402468
Cl245	Cl	1.139826	0.629738	0.735801
Cl246	Cl	1.473159	0.963071	1.069135
