data_functionalizedCrystal
_audit_creation_method	'MofGen! by Chris Wilmer'
_symmetry_space_group_name_H-M	'P1'
_symmetry_Int_Tables_number	1
_symmetry_cell_setting	triclinic
loop_
_symmetry_equiv_pos_as_xyz
  x,y,z
_cell_length_a	14.519709
_cell_length_b	9.065218
_cell_length_c	13.596369
_cell_angle_alpha	90.003393
_cell_angle_beta	89.987919
_cell_angle_gamma	84.348015
loop_
_atom_site_label
_atom_site_type_symbol
_atom_site_fract_x
_atom_site_fract_y
_atom_site_fract_z
O1	O	1.225269	0.193397	0.081660
O2	O	1.725269	0.693397	0.581660
O3	O	0.956959	0.216172	0.081690
O4	O	1.456959	0.716172	0.581690
O5	O	1.096660	-0.009962	0.081671
O6	O	1.596660	0.490038	0.581671
O7	O	1.085568	0.419531	0.081678
O8	O	1.585568	0.919531	0.581678
O9	O	1.096677	-0.009974	-0.081912
O10	O	1.596677	0.490026	0.418088
O11	O	0.956976	0.216159	-0.081893
O12	O	1.456976	0.716159	0.418107
O13	O	1.225286	0.193385	-0.081923
O14	O	1.725286	0.693385	0.418077
Zn15	Zn	1.091134	0.204770	-0.107880
Zn16	Zn	1.591134	0.704770	0.392120
Zn17	Zn	1.091111	0.204786	0.107647
Zn18	Zn	1.591111	0.704786	0.607647
O19	O	1.085585	0.419518	-0.081905
O20	O	1.585585	0.919518	0.418095
C21	C	0.922600	0.215104	-0.000098
C22	C	1.422600	0.715104	0.499902
C23	C	0.820195	0.211923	-0.000087
C24	C	1.320195	0.711923	0.499913
N25	N	1.091156	0.204758	-0.254972
N26	N	1.591156	0.704758	0.245028
C27	C	1.095602	-0.064935	-0.000119
C28	C	1.595602	0.435065	0.499881
C29	C	1.092415	-0.228718	-0.000114
C30	C	1.592415	0.271282	0.499886
C31	C	0.445214	0.200214	-0.000132
C32	C	0.945214	0.700214	0.499868
C33	C	0.549545	0.203466	-0.000119
C34	C	1.049545	0.703466	0.499881
C35	C	0.632701	0.206068	-0.000108
C36	C	1.132701	0.706068	0.499892
C37	C	0.737039	0.209321	-0.000097
C38	C	1.237039	0.709321	0.499903
C39	C	1.259645	0.194452	-0.000133
C40	C	1.759645	0.694452	0.499867
C41	C	1.362049	0.197633	-0.000138
C42	C	1.862049	0.697633	0.499862
C43	C	1.086642	0.474491	-0.000113
C44	C	1.586642	0.974491	0.499887
C45	C	1.089830	0.638274	-0.000111
C46	C	1.589830	1.138274	0.499889
N47	N	1.091096	0.204787	0.254739
N48	N	1.591096	0.704787	0.754739
C49	C	1.091099	0.204788	0.343737
C50	C	1.591099	0.704788	0.843737
C51	C	1.091112	0.204785	0.455388
C52	C	1.591112	0.704785	0.955388
C53	C	1.091128	0.204774	0.544379
C54	C	1.591128	0.704774	1.044379
C55	C	1.091140	0.204768	0.656037
C56	C	1.591140	0.704768	1.156037
