data_functionalizedCrystal
_audit_creation_method	'MofGen! by Chris Wilmer'
_symmetry_space_group_name_H-M	'P1'
_symmetry_Int_Tables_number	1
_symmetry_cell_setting	triclinic
loop_
_symmetry_equiv_pos_as_xyz
  x,y,z
_cell_length_a	12.594516
_cell_length_b	12.594517
_cell_length_c	12.594510
_cell_angle_alpha	90.007544
_cell_angle_beta	89.967679
_cell_angle_gamma	89.990306
loop_
_atom_site_label
_atom_site_type_symbol
_atom_site_fract_x
_atom_site_fract_y
_atom_site_fract_z
Zn1	Zn	-0.423827	-1.627265	-0.601489
Zn2	Zn	-0.601856	-1.627156	-0.423517
Zn3	Zn	-0.423872	-1.449269	-0.423560
Zn4	Zn	-0.601744	-1.449251	-0.601489
O5	O	-0.512824	-1.538235	-0.512514
O6	O	-0.447470	-1.776196	-0.577863
O7	O	-0.578312	-1.603521	-0.274577
O8	O	-0.274920	-1.472934	-0.447181
O9	O	-0.578268	-1.776116	-0.447108
O10	O	-0.274887	-1.603706	-0.577905
O11	O	-0.447548	-1.472829	-0.274609
O12	O	-0.447439	-1.300321	-0.447181
O13	O	-0.578077	-1.472902	-0.750435
O14	O	-0.578121	-1.300307	-0.577905
O15	O	-0.447362	-1.603688	-0.750435
O16	O	-0.750787	-1.603504	-0.447108
O17	O	-0.750704	-1.472797	-0.577863
C18	C	-0.512773	-1.261694	-0.512548
C19	C	-0.512777	-1.143389	-0.512588
C20	C	-0.583991	-1.074159	-0.583556
C21	C	-0.486940	-1.003351	-0.609735
C22	C	-0.609901	-1.003398	-0.486399
C23	C	-0.415674	-1.074138	-0.538818
C24	C	-0.538700	-1.074193	-0.415437
C25	C	-0.441582	-1.003416	-0.441579
C26	C	-0.789365	-1.538165	-0.512504
C27	C	-0.907671	-1.538233	-0.512535
C28	C	-0.976918	-1.467135	-0.583603
C29	C	-1.047791	-1.441202	-0.486486
C30	C	-1.047597	-1.564263	-0.609668
C31	C	-0.976986	-1.512249	-0.415366
C32	C	-0.976786	-1.635355	-0.538615
C33	C	-1.047626	-1.609459	-0.441431
C34	C	-0.235204	-1.538334	-0.512548
C35	C	-0.116898	-1.538376	-0.512562
C36	C	-0.512702	-1.538306	-0.790135
C37	C	-0.512649	-1.538335	-0.908441
C38	C	-0.512867	-0.815856	-0.512497
C39	C	-0.512859	-0.934161	-0.512531
C40	C	-0.441548	-1.609491	-0.977694
C41	C	-0.415485	-1.512415	-1.048507
C42	C	-0.538638	-1.635468	-1.048427
C43	C	-0.486536	-1.441208	-0.977695
C44	C	-0.609734	-1.564326	-0.977609
C45	C	-0.583708	-1.467183	-1.048390
C46	C	-0.512870	-1.538226	-0.235973
C47	C	-0.512623	-1.538403	-0.117668
H48	H	-0.381324	-0.972550	-0.381540
H49	H	-0.945870	-1.406902	-0.643615
O50	O	-0.457250	-1.332408	-0.936726
H51	H	-0.515916	-1.273379	-0.965698
O52	O	-0.718652	-0.962237	-0.457086
H53	H	-0.712899	-0.913766	-0.383706
H54	H	-1.079003	-1.359135	-0.464450
O55	O	-0.718472	-1.593446	-0.936316
H56	H	-0.717651	-1.592382	-0.848198
H57	H	-0.560627	-1.105333	-0.333326
O58	O	-0.936085	-1.483028	-0.306538
H59	H	-0.847959	-1.483155	-0.307393
H60	H	-0.333371	-1.490455	-1.079649
O61	O	-0.663338	-1.387420	-1.089246
H62	H	-0.743654	-1.408339	-1.059573
H63	H	-0.560629	-1.717584	-1.079501
O64	O	-0.935561	-1.744062	-0.567944
H65	H	-0.847441	-1.743308	-0.566963
H66	H	-0.381385	-1.669559	-0.946649
O67	O	-1.088503	-1.689188	-0.361757
H68	H	-1.060070	-1.667392	-0.281253
O69	O	-1.088681	-1.593359	-0.718461
H70	H	-1.060360	-1.534154	-0.777281
H71	H	-0.465042	-0.972233	-0.691870
O72	O	-0.306888	-1.115111	-0.568265
H73	H	-0.307719	-1.203236	-0.568101
H74	H	-0.644102	-1.105224	-0.643642
