data_functionalizedCrystal
_audit_creation_method	'MofGen! by Chris Wilmer'
_symmetry_space_group_name_H-M	'P1'
_symmetry_Int_Tables_number	1
_symmetry_cell_setting	triclinic
loop_
_symmetry_equiv_pos_as_xyz
  x,y,z
_cell_length_a	11.792241
_cell_length_b	10.654550
_cell_length_c	9.730223
_cell_angle_alpha	90.000193
_cell_angle_beta	89.995369
_cell_angle_gamma	84.339159
loop_
_atom_site_label
_atom_site_type_symbol
_atom_site_fract_x
_atom_site_fract_y
_atom_site_fract_z
O1	O	-1.507300	-0.172130	-0.114132
O2	O	-1.177000	-0.189870	-0.114168
O3	O	-1.349744	0.001761	-0.114144
O4	O	-1.334556	-0.363761	-0.114156
O5	O	-1.349742	0.001756	0.114436
O6	O	-1.176998	-0.189875	0.114412
O7	O	-1.507298	-0.172135	0.114448
Zn8	Zn	-1.342148	-0.181006	0.150722
Zn9	Zn	-1.342150	-0.180999	-0.150442
O10	O	-1.334554	-0.363766	0.114424
C11	C	-1.134705	-0.188758	0.000117
C12	C	-1.008684	-0.185423	0.000103
C13	C	-1.348628	0.048553	0.000144
C14	C	-1.345291	0.187987	0.000139
N15	N	-1.342154	-0.181009	0.356258
C16	C	-0.777958	-0.179290	0.000140
C17	C	-0.906351	-0.182697	0.000120
C18	C	-0.549592	-0.173247	0.000156
C19	C	-0.675614	-0.176582	0.000151
C20	C	-1.335670	-0.410558	0.000133
C21	C	-1.339006	-0.549992	0.000129
C22	C	-1.447000	0.267760	0.000154
C23	C	-1.443858	0.398772	0.000144
C24	C	-1.237290	0.370224	0.000109
C25	C	-1.240433	0.239215	0.000110
C26	C	-1.551859	0.216532	0.000183
C27	C	-1.653577	0.296307	0.000200
C28	C	-1.650435	0.427319	0.000190
C29	C	-1.545575	0.478556	0.000164
N30	N	-1.342153	-0.180986	-0.355979
C31	C	-1.418665	-0.096184	0.428195
C32	C	-1.418662	-0.096169	0.572078
C33	C	-1.265633	-0.265815	0.572075
C34	C	-1.265632	-0.265823	0.428194
C35	C	-1.495187	-0.011370	0.356259
C36	C	-1.571705	0.073461	0.428195
C37	C	-1.571702	0.073477	0.572078
C38	C	-1.495181	-0.011339	0.644025
H39	H	-1.554429	0.109857	0.000196
H40	H	-1.738949	0.254580	0.000188
H41	H	-1.733258	0.492268	0.000190
H42	H	-1.543025	0.585236	0.000141
H43	H	-1.203334	-0.334870	0.630663
H44	H	-1.151918	0.411953	0.000090
O45	O	-1.130736	0.153159	0.000107
H46	H	-1.057293	0.210789	0.000111
O47	O	-1.495177	-0.011378	0.201072
H48	H	-1.561231	0.061855	0.163132
O49	O	-1.654210	0.164970	0.350610
H50	H	-1.641358	0.150713	0.238474
O51	O	-1.654234	0.164957	0.649675
H52	H	-1.707449	0.223918	0.575476
O53	O	-1.495174	-0.011330	0.799214
H54	H	-1.561236	0.061901	0.837154
H55	H	-1.203328	-0.334895	0.369623
