data_functionalizedCrystal
_audit_creation_method	'MofGen! by Chris Wilmer'
_symmetry_space_group_name_H-M	'P1'
_symmetry_Int_Tables_number	1
_symmetry_cell_setting	triclinic
loop_
_symmetry_equiv_pos_as_xyz
  x,y,z
_cell_length_a	14.853567
_cell_length_b	16.053802
_cell_length_c	16.992695
_cell_angle_alpha	92.741074
_cell_angle_beta	87.151577
_cell_angle_gamma	87.418119
loop_
_atom_site_label
_atom_site_type_symbol
_atom_site_fract_x
_atom_site_fract_y
_atom_site_fract_z
O1	O	1.207156	-0.069372	0.099085
O2	O	1.707156	0.430628	0.599085
O3	O	0.945559	-0.069386	0.111280
O4	O	1.445559	0.430614	0.611280
O5	O	1.075308	-0.069373	-0.008961
O6	O	1.575308	0.430627	0.491039
O7	O	1.077407	-0.069386	0.219326
O8	O	1.577407	0.430614	0.719326
O9	O	1.068165	0.069485	-0.002370
O10	O	1.568165	0.569485	0.497630
O11	O	0.938415	0.069472	0.117871
O12	O	1.438415	0.569472	0.617871
O13	O	1.200013	0.069486	0.105676
O14	O	1.700013	0.569486	0.605676
Zn15	Zn	1.068080	0.091526	0.112820
Zn16	Zn	1.568080	0.591526	0.612820
Zn17	Zn	1.077492	-0.091426	0.104136
Zn18	Zn	1.577492	0.408574	0.604136
O19	O	1.070263	0.069472	0.225917
O20	O	1.570263	0.569472	0.725917
C21	C	0.908359	0.000041	0.114023
C22	C	1.408359	0.500041	0.614023
C23	C	0.808159	0.000036	0.112366
C24	C	1.308159	0.500036	0.612366
N25	N	1.061662	0.216385	0.118746
N26	N	1.561662	0.716385	0.618746
N27	N	1.083915	-0.216286	0.098203
N28	N	1.583915	0.283714	0.598203
C29	C	0.390086	0.000059	0.033941
C30	C	0.890086	0.500059	0.533941
C31	C	0.378892	0.000050	0.176791
C32	C	0.878892	0.500050	0.676791
C33	C	0.473036	0.000047	0.178348
C34	C	0.973036	0.500047	0.678348
C35	C	0.525709	0.000049	0.107700
C36	C	1.025709	0.500049	0.607700
C37	C	0.484239	0.000053	0.035496
C38	C	0.984239	0.500053	0.535496
C39	C	0.514514	0.000034	0.250550
C40	C	1.014514	0.500034	0.750550
C41	C	0.608663	0.000030	0.252110
C42	C	1.108663	0.500030	0.752110
C43	C	0.661338	0.000038	0.181462
C44	C	1.161338	0.500038	0.681462
C45	C	0.619862	0.000044	0.109255
C46	C	1.119862	0.500044	0.609255
C47	C	0.672536	0.000045	0.038607
C48	C	1.172536	0.500045	0.538607
C49	C	0.631061	0.000057	-0.033600
C50	C	1.131061	0.500057	0.466400
C51	C	0.536914	0.000061	-0.035152
C52	C	1.036914	0.500061	0.464848
C53	C	0.755485	0.000034	0.183014
C54	C	1.255485	0.500034	0.683014
C55	C	0.766689	0.000040	0.040162
C56	C	1.266689	0.500040	0.540162
C57	C	1.237212	0.000057	0.102933
C58	C	1.737212	0.500057	0.602933
C59	C	1.337413	0.000057	0.104589
C60	C	1.837413	0.500057	0.604589
C61	C	1.069038	0.000056	-0.034881
C62	C	1.569038	0.500056	0.465119
C63	C	1.060988	0.000055	-0.121934
C64	C	1.560988	0.500055	0.378066
C65	C	1.116894	0.260085	0.067601
C66	C	1.616894	0.760085	0.567601
C67	C	1.112414	0.347491	0.071754
C68	C	1.612414	0.847491	0.571754
C69	C	1.052707	0.391196	0.127056
C70	C	1.552707	0.891196	0.627056
C71	C	0.997469	0.347490	0.178203
C72	C	1.497469	0.847490	0.678203
C73	C	1.001945	0.260086	0.174045
C74	C	1.501945	0.760086	0.674045
C75	C	1.033154	0.652604	0.145193
C76	C	1.533154	1.152604	0.645193
C77	C	1.028684	0.740015	0.149348
C78	C	1.528684	1.240015	0.649348
C79	C	1.143628	0.740010	0.042898
C80	C	1.643628	1.240010	0.542898
C81	C	1.148103	0.652603	0.038749
C82	C	1.648103	1.152603	0.538749
C83	C	1.092862	0.608905	0.089893
C84	C	1.592862	1.108905	0.589893
N85	N	1.048128	0.480539	0.131304
N86	N	1.548128	0.980539	0.631304
N87	N	1.097436	0.519563	0.085640
N88	N	1.597436	1.019563	0.585640
C89	C	1.138663	0.000061	-0.172090
C90	C	1.638663	0.500061	0.327910
C91	C	1.131094	0.000052	-0.253885
C92	C	1.631094	0.500052	0.246115
C93	C	1.045849	0.000045	-0.285523
C94	C	1.545849	0.500045	0.214477
C95	C	0.968168	0.000037	-0.235361
C96	C	1.468168	0.500037	0.264639
C97	C	0.975738	0.000039	-0.153568
C98	C	1.475738	0.500039	0.346432
C99	C	1.014473	0.000032	-0.529155
C100	C	1.514473	0.500032	-0.029155
C101	C	1.006908	0.000032	-0.610955
C102	C	1.506908	0.500032	-0.110955
C103	C	1.169836	0.000045	-0.629474
C104	C	1.669836	0.500045	-0.129474
C105	C	1.177398	0.000053	-0.547678
C106	C	1.677398	0.500053	-0.047678
C107	C	1.099717	0.000041	-0.497523
C108	C	1.599717	0.500041	0.002477
N109	N	1.038110	0.000039	-0.369130
N110	N	1.538110	0.500039	0.130870
N111	N	1.107458	0.000041	-0.413918
N112	N	1.607458	0.500041	0.086082
C113	C	1.076533	0.000042	0.251837
C114	C	1.576533	0.500042	0.751837
C115	C	1.084584	0.000037	0.338889
C116	C	1.584584	0.500037	0.838889
H117	H	0.673961	0.000053	-0.091122
H118	H	1.173961	0.500053	0.408878
O119	O	0.345359	0.000078	-0.043937
O120	O	0.845359	0.500078	0.456063
H121	H	0.369020	-0.056513	-0.080580
H122	H	0.869020	0.443487	0.419420
H123	H	1.233078	0.000054	-0.670318
H124	H	1.733078	0.500054	-0.170318
O125	O	0.492177	0.000070	-0.113026
O126	O	0.992177	0.500070	0.386974
H127	H	0.544617	0.000080	-0.161891
H128	H	1.044617	0.500080	0.338109
O129	O	0.653388	0.000023	0.329989
O130	O	1.153388	0.500023	0.829989
H131	H	0.727704	0.000017	0.319204
H132	H	1.227704	0.500017	0.819204
O133	O	0.457698	0.000041	0.326742
O134	O	0.957698	0.500041	0.826742
H135	H	0.417427	-0.056544	0.326759
H136	H	0.917427	0.443456	0.826759
H137	H	0.898759	0.000026	-0.261127
H138	H	1.398759	0.500026	0.238873
O139	O	0.322087	0.000056	0.252988
O140	O	0.822087	0.500056	0.752988
H141	H	0.249652	0.000068	0.239777
H142	H	0.749652	0.500068	0.739777
O143	O	0.800218	0.000029	0.260886
O144	O	1.300218	0.500029	0.760886
H145	H	0.782366	-0.056567	0.292152
H146	H	1.282366	0.443433	0.792152
H147	H	1.194346	0.000058	-0.294719
H148	H	1.694346	0.500058	0.205281
H149	H	0.912486	0.000035	-0.112731
H150	H	1.412486	0.500035	0.387269
O151	O	1.181289	0.212947	0.007951
O152	O	1.681289	0.712947	0.507951
H153	H	1.218935	0.258022	-0.026921
H154	H	1.718935	0.758022	0.473079
O155	O	1.203206	0.787137	-0.012267
O156	O	1.703206	1.287137	0.487733
H157	H	1.160472	0.826966	-0.048553
H158	H	1.660472	1.326966	0.451447
O159	O	0.914964	0.000022	-0.645088
O160	O	1.414964	0.500022	-0.145088
H161	H	0.880270	-0.056584	-0.627645
H162	H	1.380270	0.443416	-0.127645
O163	O	0.964281	0.787152	0.209000
O164	O	1.464281	1.287152	0.709000
H165	H	0.970461	0.855271	0.203304
H166	H	1.470461	1.355271	0.703304
H167	H	0.951219	0.000022	-0.488329
H168	H	1.451219	0.500022	0.011671
H169	H	0.988176	0.617031	0.186838
H170	H	1.488176	1.117031	0.686838
O171	O	0.933072	0.394623	0.237855
O172	O	1.433072	0.894623	0.737855
H173	H	0.939245	0.462743	0.232162
H174	H	1.439245	0.962743	0.732162
O175	O	0.942380	0.212945	0.229211
O176	O	1.442380	0.712945	0.729211
H177	H	0.900115	0.258019	0.268370
H178	H	1.400115	0.758019	0.768370
O179	O	1.212493	0.605463	-0.020904
O180	O	1.712493	1.105463	0.479096
H181	H	1.250141	0.650536	-0.055778
H182	H	1.750141	1.150536	0.444222
H183	H	1.208079	0.000072	-0.146337
H184	H	1.708079	0.500072	0.353663
O185	O	0.823501	0.000048	-0.036037
O186	O	1.323501	0.500048	0.463963
H187	H	0.811025	-0.056545	-0.073273
H188	H	1.311025	0.443455	0.426727
O189	O	1.172002	0.394628	0.016606
O190	O	1.672002	0.894628	0.516606
H191	H	1.214286	0.349553	-0.022535
H192	H	1.714286	0.849553	0.477465
O193	O	1.269342	0.000040	-0.513554
O194	O	1.769342	0.500040	-0.013554
H195	H	1.322085	0.000030	-0.562174
H196	H	1.822085	0.500030	-0.062174
