data_functionalizedCrystal
_audit_creation_method	'MofGen! by Chris Wilmer'
_symmetry_space_group_name_H-M	'P1'
_symmetry_Int_Tables_number	1
_symmetry_cell_setting	triclinic
loop_
_symmetry_equiv_pos_as_xyz
  x,y,z
_cell_length_a	11.169417
_cell_length_b	18.215405
_cell_length_c	11.169417
_cell_angle_alpha	90.012063
_cell_angle_beta	90.000863
_cell_angle_gamma	90.023610
loop_
_atom_site_label
_atom_site_type_symbol
_atom_site_fract_x
_atom_site_fract_y
_atom_site_fract_z
Zn1	Zn	1.834634	-0.293087	0.678505
Zn2	Zn	2.334634	0.206913	1.178505
Zn3	Zn	1.834547	-0.416125	0.477806
Zn4	Zn	2.334547	0.083875	0.977806
Zn5	Zn	1.633987	-0.293079	0.477840
Zn6	Zn	2.133987	0.206921	0.977840
Zn7	Zn	1.633884	-0.416118	0.678451
Zn8	Zn	2.133884	0.083882	1.178451
O9	O	1.734263	-0.354602	0.578151
O10	O	2.234263	0.145398	1.078151
O11	O	2.002572	-0.309415	0.651891
O12	O	2.502572	0.190585	1.151891
O13	O	1.807948	-0.399802	0.309861
O14	O	2.307948	0.100198	0.809861
O15	O	1.660682	-0.190096	0.504495
O16	O	2.160682	0.309904	1.004495
O17	O	2.002508	-0.399810	0.504438
O18	O	2.502508	0.100190	1.004438
O19	O	1.808097	-0.190102	0.651923
O20	O	2.308097	0.309898	1.151923
O21	O	1.660598	-0.309401	0.309885
O22	O	2.160598	0.190599	0.809885
O23	O	1.466023	-0.309394	0.504442
O24	O	1.966023	0.190606	1.004442
O25	O	1.660508	-0.399798	0.846408
O26	O	2.160508	0.100202	1.346408
O27	O	1.465948	-0.399790	0.651831
O28	O	1.965948	0.100210	1.151831
O29	O	1.807998	-0.309408	0.846447
O30	O	2.307998	0.190592	1.346447
O31	O	1.807849	-0.519108	0.504386
O32	O	2.307849	-0.019108	1.004386
O33	O	1.660423	-0.519103	0.651799
O34	O	2.160423	-0.019103	1.151799
C35	C	1.422438	-0.354591	0.578135
C36	C	1.922438	0.145409	1.078135
C37	C	1.289038	-0.354604	0.578157
C38	C	1.789038	0.145396	1.078157
C39	C	1.734148	-0.545809	0.578109
C40	C	2.234148	-0.045809	1.078109
C41	C	1.734209	-0.627607	0.578132
C42	C	2.234209	-0.127607	1.078132
C43	C	1.811004	-0.815743	0.655001
C44	C	2.311004	-0.315743	1.155001
C45	C	1.811048	-0.892602	0.655024
C46	C	2.311048	-0.392602	1.155024
C47	C	1.657670	-0.892709	0.501374
C48	C	2.157670	-0.392709	1.001374
C49	C	1.657622	-0.815852	0.501359
C50	C	2.157622	-0.315852	1.001359
C51	C	1.734295	-0.777371	0.578170
C52	C	2.234295	-0.277371	1.078170
C53	C	1.734388	-0.931087	0.578208
C54	C	2.234388	-0.431087	1.078208
C55	C	1.734434	-1.014421	0.578232
C56	C	2.234434	-0.514421	1.078232
C57	C	1.734247	-0.694032	0.578148
C58	C	2.234247	-0.194032	1.078148
C59	C	2.047305	-0.354614	0.578167
C60	C	2.547305	0.145386	1.078167
C61	C	2.180705	-0.354619	0.578174
C62	C	2.680705	0.145381	1.078174
C63	C	1.734252	-0.354603	0.891193
C64	C	2.234252	0.145397	1.391193
C65	C	1.734247	-0.354604	1.024593
C66	C	2.234247	0.145396	1.524593
C67	C	1.734411	-0.162649	0.578218
C68	C	2.234411	0.337351	1.078218
C69	C	1.734474	-0.080850	0.578247
C70	C	2.234474	0.419150	1.078247
C71	C	1.734260	-0.354615	1.266326
C72	C	2.234260	0.145385	1.766326
C73	C	1.734250	-0.354605	1.132926
C74	C	2.234250	0.145395	1.632926
H75	H	1.873509	-0.923842	0.717590
H76	H	2.373509	-0.423842	1.217590
H77	H	1.595150	-0.784607	0.438793
H78	H	2.095150	-0.284607	0.938793
H79	H	1.595247	-0.924049	0.438835
H80	H	2.095247	-0.424049	0.938835
H81	H	1.873435	-0.784414	0.717548
H82	H	2.373435	-0.284414	1.217548
