data_functionalizedCrystal
_audit_creation_method	'MofGen! by Chris Wilmer'
_symmetry_space_group_name_H-M	'P1'
_symmetry_Int_Tables_number	1
_symmetry_cell_setting	triclinic
loop_
_symmetry_equiv_pos_as_xyz
  x,y,z
_cell_length_a	14.908571
_cell_length_b	12.645330
_cell_length_c	14.908308
_cell_angle_alpha	86.729111
_cell_angle_beta	90.175053
_cell_angle_gamma	93.277388
loop_
_atom_site_label
_atom_site_type_symbol
_atom_site_fract_x
_atom_site_fract_y
_atom_site_fract_z
Zn1	Zn	1.345246	0.553222	-0.587613
Zn2	Zn	1.353812	0.720900	-0.437262
Zn3	Zn	1.203563	0.532861	-0.428609
Zn4	Zn	1.194840	0.719640	-0.578914
O5	O	1.274365	0.631656	-0.508099
O6	O	1.472208	0.584514	-0.574930
O7	O	1.341117	0.687962	-0.310289
O8	O	1.222424	0.387220	-0.449721
O9	O	1.478501	0.707705	-0.464468
O10	O	1.326518	0.402180	-0.566540
O11	O	1.230730	0.549810	-0.303932
O12	O	1.076581	0.548589	-0.441286
O13	O	1.207556	0.705559	-0.705893
O14	O	1.070172	0.685815	-0.551714
O15	O	1.318059	0.583292	-0.712284
O16	O	1.332658	0.869074	-0.456033
O17	O	1.215861	0.868149	-0.560104
C18	C	1.040751	0.614857	-0.494617
C19	C	0.940809	0.607697	-0.488871
C20	C	1.274266	0.907078	-0.508085
C21	C	1.274303	1.024912	-0.508113
C22	C	0.746390	0.737337	-0.592907
C23	C	0.652485	0.730613	-0.587511
C24	C	0.659092	0.587521	-0.472688
C25	C	0.752997	0.594245	-0.478084
C26	C	0.796643	0.669156	-0.538195
C27	C	0.890550	0.675884	-0.543586
C28	C	0.897155	0.532788	-0.428768
C29	C	0.803250	0.526064	-0.423372
C30	C	1.201080	1.191971	-0.573816
C31	C	1.200755	1.069373	-0.573571
C32	C	1.254120	1.061612	-0.411877
C33	C	1.253658	1.184206	-0.412277
C34	C	1.368130	1.200393	-0.537905
C35	C	1.367442	1.077878	-0.539942
C36	C	1.508892	0.648521	-0.521635
C37	C	1.608833	0.655708	-0.527403
C38	C	1.274457	1.355159	-0.508137
C39	C	1.274415	1.237328	-0.508157
C40	C	1.260879	0.646556	-0.742626
C41	C	1.255132	0.652906	-0.842567
C42	C	1.359397	0.537497	-1.037023
C43	C	1.354000	0.543460	-1.130927
C44	C	1.238936	0.670788	-1.124279
C45	C	1.244334	0.664825	-1.030375
C46	C	1.304567	0.598179	-0.986751
C47	C	1.309968	0.592222	-0.892846
C48	C	1.194901	0.719544	-0.886200
C49	C	1.189504	0.725507	-0.980103
C50	C	1.287851	0.616740	-0.274489
C51	C	1.293772	0.610104	-0.174558
H52	H	0.926084	0.736883	-0.592529
C53	C	1.323067	1.224330	-0.343525
H54	H	1.351417	1.165702	-0.315471
H55	H	1.366972	1.271005	-0.373367
H56	H	1.293620	1.261018	-0.299307
C57	C	1.388151	1.046380	-0.635649
H58	H	1.340244	1.001135	-0.656130
H59	H	1.394700	1.108351	-0.674716
H60	H	1.442282	1.010194	-0.635139
H61	H	1.189897	0.725048	-1.159815
H62	H	1.422700	1.229850	-0.490149
H63	H	1.140462	0.779766	-1.015635
H64	H	0.938081	0.477272	-0.384215
C65	C	1.134584	0.786296	-0.830899
H66	H	1.146420	0.773198	-0.768724
H67	H	1.146829	0.859442	-0.847043
H68	H	1.073289	0.767411	-0.842802
H69	H	1.424527	1.048127	-0.496037
H70	H	1.131176	1.034048	-0.553430
C71	C	1.216925	1.036249	-0.669741
H72	H	1.223751	1.097772	-0.709312
H73	H	1.269871	0.997979	-0.670953
H74	H	1.167104	0.992577	-0.688299
C75	C	0.597206	0.805610	-0.647691
H76	H	0.535027	0.790873	-0.635875
H77	H	0.613337	0.877073	-0.635321
H78	H	0.609139	0.795135	-0.709014
H79	H	1.212906	1.227027	-0.645226
C80	C	1.162811	1.011795	-0.378242
H81	H	1.151199	1.034479	-0.319948
H82	H	1.116747	1.033499	-0.418209
H83	H	1.164162	0.936667	-0.375805
H84	H	1.131922	1.216826	-0.553906
H85	H	1.359014	0.537957	-0.857328
H86	H	1.408445	0.483237	-1.001503
C87	C	1.414317	0.476716	-1.186224
H88	H	1.450965	0.436178	-1.146790
H89	H	1.377838	0.430383	-1.220879
H90	H	1.451376	0.522416	-1.225108
H91	H	0.623539	0.526525	-0.423755
C92	C	0.794403	0.819736	-0.659021
H93	H	0.751024	0.859378	-0.690836
H94	H	0.832999	0.866293	-0.626664
H95	H	0.828796	0.784365	-0.700365
H96	H	1.185315	1.206591	-0.387712
C97	C	0.755239	0.443667	-0.357254
H98	H	0.798619	0.404021	-0.325446
H99	H	0.720840	0.479032	-0.315918
H100	H	0.716649	0.397099	-0.389615
C101	C	1.324318	1.022361	-0.343652
H102	H	1.366658	0.983144	-0.373323
H103	H	1.354490	1.081514	-0.317909
H104	H	1.295110	0.978187	-0.297638
C105	C	1.394440	1.250180	-0.631485
H106	H	1.451186	1.226873	-0.648164
H107	H	1.350437	1.229092	-0.674124
H108	H	1.397938	1.325299	-0.629894
