data_functionalizedCrystal
_audit_creation_method	'MofGen! by Chris Wilmer'
_symmetry_space_group_name_H-M	'P1'
_symmetry_Int_Tables_number	1
_symmetry_cell_setting	triclinic
loop_
_symmetry_equiv_pos_as_xyz
  x,y,z
_cell_length_a	25.639239
_cell_length_b	16.120566
_cell_length_c	25.639233
_cell_angle_alpha	92.912892
_cell_angle_beta	89.981253
_cell_angle_gamma	92.865350
loop_
_atom_site_label
_atom_site_type_symbol
_atom_site_fract_x
_atom_site_fract_y
_atom_site_fract_z
Zn1	Zn	-0.248795	-1.274382	-0.336138
Zn2	Zn	-0.336210	-1.274260	-0.248699
Zn3	Zn	-0.244355	-1.134983	-0.244283
Zn4	Zn	-0.331760	-1.134896	-0.331671
O5	O	-0.290280	-1.204630	-0.290198
O6	O	-0.264111	-1.391030	-0.328256
O7	O	-0.324030	-1.255770	-0.174947
O8	O	-0.171782	-1.153563	-0.256490
O9	O	-0.328335	-1.390940	-0.264015
O10	O	-0.175044	-1.255978	-0.323975
O11	O	-0.256545	-1.153444	-0.171703
O12	O	-0.252229	-1.018308	-0.252158
O13	O	-0.320750	-1.153413	-0.405429
O14	O	-0.316445	-1.018244	-0.316361
O15	O	-0.259796	-1.255894	-0.408711
O16	O	-0.408782	-1.255686	-0.259683
O17	O	-0.405512	-1.153295	-0.320643
C18	C	-0.283373	-0.988026	-0.283296
C19	C	-0.280430	-0.895362	-0.280356
C20	C	-0.275046	-0.725704	-0.274993
C21	C	-0.305559	-0.684397	-0.305407
C22	C	-0.302563	-0.589994	-0.302423
C23	C	-0.278041	-0.820116	-0.277976
C24	C	-0.426118	-1.204490	-0.290169
C25	C	-0.484233	-1.204506	-0.290177
C26	C	-0.846294	-1.258084	-0.258518
C27	C	-0.900899	-1.258117	-0.258526
O28	O	-0.930575	-1.303525	-0.231577
N29	N	-0.926524	-1.204777	-0.290237
C30	C	-0.897540	-1.151407	-0.321946
O31	O	-0.924350	-1.106041	-0.348921
C32	C	-0.842936	-1.151380	-0.321941
C33	C	-0.817314	-1.204717	-0.290223
C34	C	-0.820672	-1.311418	-0.226803
C35	C	-0.766071	-1.311384	-0.226795
C36	C	-0.737091	-1.258017	-0.258500
C37	C	-0.762713	-1.204683	-0.290215
C38	C	-0.813953	-1.098015	-0.353653
C39	C	-0.759345	-1.097993	-0.353645
C40	C	-0.733724	-1.151330	-0.321927
C41	C	-0.679131	-1.151283	-0.321912
N42	N	-0.653507	-1.204622	-0.290201
C43	C	-0.682487	-1.257990	-0.258495
C44	C	-1.012213	-1.151470	-0.321957
C45	C	-1.066816	-1.151493	-0.321960
C46	C	-1.070171	-1.258203	-0.258539
C47	C	-1.015567	-1.258176	-0.258534
C48	C	-0.986588	-1.204810	-0.290245
C49	C	-0.567819	-1.257914	-0.258479
C50	C	-0.513213	-1.257874	-0.258471
C51	C	-0.509862	-1.151167	-0.321893
C52	C	-0.564463	-1.151204	-0.321899
C53	C	-0.593441	-1.204585	-0.290190
O54	O	-0.649421	-1.105900	-0.348849
O55	O	-0.655670	-1.303356	-0.231530
C56	C	-0.153912	-1.204794	-0.290238
C57	C	-0.095800	-1.204863	-0.290256
C58	C	-0.290272	-1.204657	-0.426572
C59	C	-0.290268	-1.204669	-0.484686
C60	C	-0.297216	-0.422080	-0.297118
C61	C	-0.300176	-0.514744	-0.300045
C62	C	-0.258432	-1.258098	-0.846766
C63	C	-0.258418	-1.258108	-0.901371
O64	O	-0.231410	-1.303468	-0.931065
N65	N	-0.290148	-1.204761	-0.926972
C66	C	-0.321891	-1.151393	-0.897965
O67	O	-0.348878	-1.106018	-0.924754
C68	C	-0.321902	-1.151380	-0.843361
C69	C	-0.290174	-1.204736	-0.817763
C70	C	-0.226706	-1.311450	-0.821168
C71	C	-0.226721	-1.311440	-0.766567
C72	C	-0.258462	-1.258079	-0.737564
C73	C	-0.290189	-1.204727	-0.763162
C74	C	-0.353641	-1.098009	-0.814355
C75	C	-0.353649	-1.097999	-0.759748
C76	C	-0.321921	-1.151356	-0.734150
C77	C	-0.321945	-1.151356	-0.679559
N78	N	-0.290215	-1.204704	-0.653958
C79	C	-0.258473	-1.258065	-0.682961
C80	C	-0.321865	-1.151426	-1.012637
C81	C	-0.321857	-1.151443	-1.067239
C82	C	-0.258383	-1.258157	-1.070642
C83	C	-0.258394	-1.258143	-1.016038
C84	C	-0.290135	-1.204773	-0.987036
C85	C	-0.258508	-1.258042	-0.568295
C86	C	-0.258527	-1.258030	-0.513689
C87	C	-0.321998	-1.151314	-0.510291
C88	C	-0.321981	-1.151328	-0.564893
C89	C	-0.290232	-1.204695	-0.593893
O90	O	-0.348938	-1.106017	-0.649830
O91	O	-0.231485	-1.303426	-0.656164
C92	C	-0.290252	-1.204652	-0.154356
C93	C	-0.290113	-1.204802	-0.096247
H94	H	-0.333932	-0.719933	-0.333687
H95	H	-1.087672	-1.108053	-0.347782
C96	C	-0.629626	-1.269640	-0.188541
C97	C	-0.599673	-1.316594	-0.223632
H98	H	-0.649295	-1.305867	-0.167032
H99	H	-0.607205	-1.233336	-0.167360
H100	H	-0.652699	-1.237881	-0.207434
H101	H	-0.576597	-1.348348	-0.204739
H102	H	-0.622097	-1.352912	-0.244816
H103	H	-0.988620	-1.108006	-0.347778
C104	C	-0.264636	-0.627623	-0.201638
C105	C	-0.236748	-0.677739	-0.236815
H106	H	-0.240993	-0.598009	-0.178067
H107	H	-0.283382	-0.589309	-0.220332
H108	H	-0.288440	-0.661569	-0.182652
H109	H	-0.212946	-0.643792	-0.255804
H110	H	-0.217993	-0.716058	-0.218119
C111	C	-0.522023	-1.363361	-0.195784
C112	C	-0.485050	-1.316510	-0.223607
H113	H	-0.504637	-1.399562	-0.174265
H114	H	-0.542196	-1.327072	-0.174614
H115	H	-0.544304	-1.395233	-0.219606
H116	H	-0.462771	-1.284632	-0.199785
H117	H	-0.464868	-1.352803	-0.244779
C118	C	-0.774890	-1.416875	-0.164118
C119	C	-0.737913	-1.370027	-0.191938
H120	H	-0.757508	-1.453086	-0.142602
H121	H	-0.795059	-1.380584	-0.142944
H122	H	-0.797175	-1.448737	-0.187942
H123	H	-0.715630	-1.338160	-0.168113
H124	H	-0.717735	-1.406322	-0.213113
C125	C	-0.342983	-1.010117	-0.488979
C126	C	-0.356898	-1.092667	-0.478412
H127	H	-0.364532	-0.973912	-0.469301
H128	H	-0.307474	-0.997956	-0.479638
H129	H	-0.347514	-1.002498	-0.525164
H130	H	-0.352363	-1.100287	-0.442227
H131	H	-0.392415	-1.104832	-0.487749
H132	H	-0.486258	-1.107713	-0.347706
C133	C	-0.885532	-1.423672	-0.223213
C134	C	-0.852502	-1.370144	-0.191969
H135	H	-0.905171	-1.459947	-0.201709
H136	H	-0.908628	-1.391920	-0.242073
H137	H	-0.865196	-1.455464	-0.247039
H138	H	-0.872838	-1.338347	-0.168145
H139	H	-0.829403	-1.401900	-0.173099
H140	H	-0.232689	-1.301483	-0.492850
C141	C	-1.024381	-1.363653	-0.195847
C142	C	-0.987407	-1.316810	-0.223673
H143	H	-1.006997	-1.399856	-0.174327
H144	H	-1.044551	-1.327359	-0.174677
H145	H	-1.046666	-1.395523	-0.219667
H146	H	-0.965124	-1.284935	-0.199852
H147	H	-0.967228	-1.353109	-0.244845
H148	H	-1.093777	-1.301661	-0.232725
C149	C	-0.171139	-1.298870	-1.088758
C150	C	-0.223486	-1.316810	-1.102525
H151	H	-0.149597	-1.335082	-1.108440
H152	H	-0.161707	-1.242871	-1.095924
H153	H	-0.166612	-1.306504	-1.052575
H154	H	-0.228014	-1.309170	-1.138708
H155	H	-0.232921	-1.372822	-1.095363
C156	C	-0.874951	-1.086400	-0.423623
C157	C	-0.842107	-1.039392	-0.388523
H158	H	-0.892333	-1.050205	-0.445151
H159	H	-0.854771	-1.122691	-0.444784
H160	H	-0.900031	-1.118173	-0.404736
H161	H	-0.817024	-1.007623	-0.407410
H162	H	-0.862288	-1.003086	-0.367360
H163	H	-0.347714	-1.107964	-0.989026
C164	C	-0.384597	-1.045961	-1.058378
C165	C	-0.356737	-1.092797	-1.095373
H166	H	-0.406127	-1.009748	-1.075746
H167	H	-0.405758	-1.082259	-1.038239
H168	H	-0.360799	-1.014101	-1.036066
H169	H	-0.380535	-1.124662	-1.117683
H170	H	-0.335575	-1.056494	-1.115521
H171	H	-0.735753	-1.054537	-0.379469
C172	C	-0.555659	-1.045727	-0.384589
C173	C	-0.592630	-1.092576	-0.356763
H174	H	-0.573047	-1.009542	-0.406119
H175	H	-0.533384	-1.013846	-0.360774
H176	H	-0.535479	-1.082025	-0.405755
H177	H	-0.612808	-1.056278	-0.335594
H178	H	-0.614914	-1.124460	-0.380581
C179	C	-0.195774	-1.363532	-0.566158
C180	C	-0.223612	-1.316709	-0.600166
H181	H	-0.174236	-1.399756	-0.585836
H182	H	-0.174623	-1.327227	-0.543708
H183	H	-0.219585	-1.395380	-0.545872
H184	H	-0.199801	-1.284856	-0.620449
H185	H	-0.244764	-1.353018	-0.622626
C186	C	-0.163975	-1.416911	-0.775431
C187	C	-0.191837	-1.370083	-0.738434
H188	H	-0.142435	-1.453109	-0.758065
H189	H	-0.187767	-1.448777	-0.797738
H190	H	-0.142820	-1.380600	-0.795576
H191	H	-0.212995	-1.406393	-0.718292
H192	H	-0.168042	-1.338214	-0.716119
H193	H	-0.200856	-1.354903	-0.844777
C194	C	-0.423599	-1.086339	-0.875362
C195	C	-0.388525	-1.039358	-0.842477
H196	H	-0.445140	-1.050127	-0.892718
H197	H	-0.404699	-1.118103	-0.900458
H198	H	-0.444752	-1.122639	-0.855208
H199	H	-0.367369	-1.003062	-0.862631
H200	H	-0.407427	-1.007580	-0.817378
C201	C	-0.188444	-1.269793	-0.955018
C202	C	-0.223512	-1.316785	-0.987903
H203	H	-0.166909	-1.305999	-0.937649
H204	H	-0.167289	-1.233505	-0.975169
H205	H	-0.207353	-1.238018	-0.929927
H206	H	-0.204603	-1.348556	-1.012996
H207	H	-0.244669	-1.353089	-0.967751
C208	C	-0.416397	-0.992528	-0.761874
C209	C	-0.388550	-1.039346	-0.727870
H210	H	-0.437948	-0.956328	-0.742194
H211	H	-0.392596	-0.960664	-0.782152
H212	H	-0.437541	-1.028845	-0.784333
H213	H	-0.367403	-1.003030	-0.705414
H214	H	-0.412354	-1.071213	-0.707583
H215	H	-0.347822	-1.107888	-0.585736
