data_functionalizedCrystal
_audit_creation_method	'MofGen! by Chris Wilmer'
_symmetry_space_group_name_H-M	'P1'
_symmetry_Int_Tables_number	1
_symmetry_cell_setting	triclinic
loop_
_symmetry_equiv_pos_as_xyz
  x,y,z
_cell_length_a	14.044220
_cell_length_b	16.992695
_cell_length_c	15.455313
_cell_angle_alpha	87.152573
_cell_angle_beta	92.919879
_cell_angle_gamma	91.928550
loop_
_atom_site_label
_atom_site_type_symbol
_atom_site_fract_x
_atom_site_fract_y
_atom_site_fract_z
O1	O	-1.276013	-0.186891	-0.072039
O2	O	-0.776013	0.313109	0.427961
O3	O	-0.999526	-0.180033	-0.072061
O4	O	-0.499526	0.319967	0.427939
O5	O	-1.136661	-0.069242	-0.072043
O6	O	-0.636661	0.430758	0.427957
O7	O	-1.138878	-0.297682	-0.072057
O8	O	-0.638878	0.202318	0.427943
O9	O	-1.128817	-0.075549	0.072218
O10	O	-0.628817	0.424451	0.572218
O11	O	-0.991682	-0.186340	0.072200
O12	O	-0.491682	0.313660	0.572200
O13	O	-1.268169	-0.193198	0.072222
O14	O	-0.768169	0.306802	0.572222
Cu15	Cu	-1.129209	-0.190345	0.085383
Cu16	Cu	-0.629209	0.309655	0.585383
Cu17	Cu	-1.138486	-0.182886	-0.085222
Cu18	Cu	-0.638486	0.317114	0.414778
O19	O	-1.131034	-0.303989	0.072204
O20	O	-0.631034	0.196011	0.572204
C21	C	-1.129887	-0.042984	0.000087
C22	C	-0.629887	0.457016	0.500087
C23	C	-1.121378	0.044656	0.000086
C24	C	-0.621378	0.544656	0.500086
C25	C	-0.960062	-0.180184	0.000067
C26	C	-0.460062	0.319816	0.500067
C27	C	-0.854158	-0.171230	0.000058
C28	C	-0.354158	0.328770	0.500058
C29	C	-1.307633	-0.193047	0.000092
C30	C	-0.807633	0.306953	0.500092
C31	C	-1.413537	-0.202001	0.000095
C32	C	-0.913537	0.297999	0.500095
C33	C	-0.660256	-0.154861	0.000077
C34	C	-0.160256	0.345139	0.500077
C35	C	-0.607433	-0.218367	0.000076
C36	C	-0.107433	0.281633	0.500076
C37	C	-0.499539	-0.209259	0.000087
C38	C	0.000461	0.290741	0.500087
C39	C	-0.768160	-0.163967	0.000066
C40	C	-0.268160	0.336033	0.500066
C41	C	-1.137808	-0.330247	0.000072
C42	C	-0.637808	0.169753	0.500072
C43	C	-1.146317	-0.417886	0.000067
C44	C	-0.646317	0.082114	0.500067
N45	N	-1.122691	-0.195591	0.205378
N46	N	-0.622691	0.304409	0.705378
C47	C	-1.203475	0.089154	0.000093
C48	C	-0.703475	0.589154	0.500093
C49	C	-1.195475	0.171500	0.000084
C50	C	-0.695475	0.671500	0.500084
C51	C	-1.105377	0.209347	0.000074
C52	C	-0.605377	0.709347	0.500074
C53	C	-1.023275	0.164843	0.000064
C54	C	-0.523275	0.664843	0.500064
C55	C	-1.031276	0.082498	0.000067
C56	C	-0.531276	0.582498	0.500067
C57	C	-1.072216	0.455265	0.000060
C58	C	-0.572216	0.955265	0.500060
C59	C	-1.064220	0.537615	0.000060
C60	C	-0.564220	1.037615	0.500060
C61	C	-1.236421	0.544267	0.000078
C62	C	-0.736421	1.044267	0.500078
C63	C	-1.244414	0.461920	0.000086
C64	C	-0.744414	0.961920	0.500086
C65	C	-1.162312	0.417424	0.000071
C66	C	-0.662312	0.917424	0.500071
N67	N	-1.097198	0.293518	0.000068
N68	N	-0.597198	0.793518	0.500068
N69	N	-1.170493	0.333254	0.000072
N70	N	-0.670493	0.833254	0.500072
N71	N	-1.145011	-0.177634	-0.205217
N72	N	-0.645011	0.322366	0.294783
C73	C	-1.180974	-0.148544	0.250779
C74	C	-0.680974	0.351456	0.750779
C75	C	-1.176054	-0.152519	0.341587
C76	C	-0.676054	0.347481	0.841587
C77	C	-1.112856	-0.203546	0.386991
C78	C	-0.612856	0.296454	0.886991
C79	C	-1.054567	-0.250595	0.341583
C80	C	-0.554567	0.249405	0.841583
C81	C	-1.059482	-0.246615	0.250777
C82	C	-0.559482	0.253385	0.750777
C83	C	-1.091637	-0.220704	0.658569
C84	C	-0.591637	0.279296	1.158569
C85	C	-1.086728	-0.224682	0.749381
C86	C	-0.586728	0.275318	1.249381
C87	C	-1.208215	-0.126604	0.749379
C88	C	-0.708215	0.373396	1.249379
C89	C	-1.213129	-0.122632	0.658572
C90	C	-0.713129	0.377368	1.158572
C91	C	-1.154836	-0.169678	0.613172
C92	C	-0.654836	0.330322	1.113172
N93	N	-1.107828	-0.207613	0.479810
N94	N	-0.607828	0.292387	0.979810
N95	N	-1.159860	-0.165607	0.520354
N96	N	-0.659860	0.334393	1.020354
H97	H	-0.624450	-0.093656	0.000085
H98	H	-0.124450	0.406344	0.500085
H99	H	-0.643242	-0.279576	0.000069
H100	H	-0.143242	0.220424	0.500069
C101	C	-0.891000	0.054713	-0.074104
C102	C	-0.391000	0.554713	0.425896
C103	C	-0.941033	0.033583	0.000060
C104	C	-0.441033	0.533583	0.500060
H105	H	-0.835284	0.024518	-0.074107
H106	H	-0.335284	0.524518	0.425893
H107	H	-0.930425	0.044778	-0.124397
H108	H	-0.430425	0.544778	0.375603
H109	H	-0.873347	0.109171	-0.074095
H110	H	-0.373347	0.609171	0.425905
H111	H	-0.958692	-0.020874	0.000048
H112	H	-0.458692	0.479126	0.500048
H113	H	-0.901600	0.043511	0.050366
H114	H	-0.401600	0.543511	0.550366
C115	C	-1.397689	0.445477	-0.074059
C116	C	-0.897689	0.945477	0.425941
C117	C	-1.343454	0.420324	0.000096
C118	C	-0.843454	0.920324	0.500096
H119	H	-1.458831	0.419794	-0.074050
H120	H	-0.958831	0.919794	0.425950
H121	H	-1.404669	0.500881	-0.074055
H122	H	-0.904669	1.000881	0.425945
H123	H	-1.366354	0.432803	-0.124364
H124	H	-0.866354	0.932803	0.375636
H125	H	-1.374786	0.433005	0.050401
H126	H	-0.874786	0.933005	0.550401
H127	H	-1.336478	0.364909	0.000099
H128	H	-0.836478	0.864909	0.500099
H129	H	-1.276841	0.058345	0.000107
H130	H	-0.776841	0.558345	0.500107
H131	H	-1.044174	-0.259012	0.621612
H132	H	-0.544174	0.240988	1.121612
H133	H	-1.232441	-0.106996	0.213817
H134	H	-0.732441	0.393004	0.713817
H135	H	-1.262326	0.207727	0.000092
H136	H	-0.762326	0.707727	0.500092
C137	C	-0.993096	-0.300252	0.480780
C138	C	-0.493096	0.199748	0.980780
C139	C	-0.985099	-0.306688	0.391489
C140	C	-0.485099	0.193312	0.891489
H141	H	-0.950214	-0.334887	0.511587
H142	H	-0.450214	0.165113	1.011587
H143	H	-0.977957	-0.247572	0.495671
H144	H	-0.477957	0.252428	0.995671
H145	H	-1.056541	-0.313944	0.495640
H146	H	-0.556541	0.186056	0.995640
H147	H	-0.921656	-0.292990	0.376627
H148	H	-0.421656	0.207010	0.876627
H149	H	-1.000233	-0.359379	0.376592
H150	H	-0.500233	0.140621	0.876592
C151	C	-1.300621	0.673449	0.000073
C152	C	-0.800621	1.173449	0.500073
C153	C	-1.326665	0.593180	0.000082
C154	C	-0.826665	1.093180	0.500082
H155	H	-1.356339	0.703645	0.000068
H156	H	-0.856339	1.203645	0.500068
H157	H	-1.261209	0.683379	0.050376
H158	H	-0.761209	1.183379	0.550376
H159	H	-1.266667	0.687764	-0.050239
H160	H	-0.766667	1.187764	0.449761
H161	H	-1.360613	0.578864	0.050398
H162	H	-0.860613	1.078864	0.550398
H163	H	-1.366092	0.583246	-0.050225
H164	H	-0.866092	1.083246	0.449775
C165	C	-0.894804	0.522775	0.000015
C166	C	-0.394804	1.022775	0.500015
C167	C	-0.965179	0.579219	0.000035
C168	C	-0.465179	1.079219	0.500035
H169	H	-0.833665	0.548462	-0.000007
H170	H	-0.333665	1.048462	0.499993
H171	H	-0.898756	0.488602	0.050321
H172	H	-0.398756	0.988602	0.550321
H173	H	-0.904256	0.492990	-0.050294
H174	H	-0.404256	0.992990	0.449706
H175	H	-0.955730	0.609000	0.050347
H176	H	-0.455730	1.109000	0.550347
H177	H	-0.961223	0.613406	-0.050276
H178	H	-0.461223	1.113406	0.449724
H179	H	-1.005362	0.419045	0.000048
H180	H	-0.505362	0.919045	0.500048
C181	C	-0.938915	-0.343968	0.259894
C182	C	-0.438915	0.156032	0.759894
C183	C	-0.995421	-0.298335	0.200868
C184	C	-0.495421	0.201665	0.700868
H185	H	-0.899368	-0.375900	0.229081
H186	H	-0.399368	0.124100	0.729081
H187	H	-0.900238	-0.310294	0.295320
H188	H	-0.400238	0.189706	0.795320
H189	H	-0.978820	-0.376667	0.295303
H190	H	-0.478820	0.123333	0.795303
H191	H	-0.955515	-0.265631	0.165464
H192	H	-0.455515	0.234369	0.665464
H193	H	-1.034101	-0.332013	0.165427
H194	H	-0.534101	0.167987	0.665427
H195	H	-0.949916	0.195665	0.000051
H196	H	-0.449916	0.695665	0.500051
C197	C	-1.328780	-0.029252	0.740254
C198	C	-0.828780	0.470748	1.240254
C199	C	-1.272275	-0.074882	0.799284
C200	C	-0.772275	0.425118	1.299284
H201	H	-1.368330	0.002679	0.771065
H202	H	-0.868330	0.502679	1.271065
H203	H	-1.288882	0.003440	0.704847
H204	H	-0.788882	0.503440	1.204847
H205	H	-1.367463	-0.062933	0.704828
H206	H	-0.867463	0.437067	1.204828
H207	H	-1.233587	-0.041200	0.834706
H208	H	-0.733587	0.458800	1.334706
H209	H	-1.312178	-0.107578	0.834706
H210	H	-0.812178	0.392422	1.334706
H211	H	-1.223512	-0.114209	0.378552
H212	H	-0.723512	0.385791	0.878552
H213	H	-1.264590	-0.081082	0.621606
H214	H	-0.764590	0.418918	1.121606
C215	C	-0.967104	-0.321210	0.740267
C216	C	-0.467104	0.178790	1.240267
C217	C	-1.017240	-0.280763	0.799291
C218	C	-0.517240	0.219237	1.299291
H219	H	-0.924203	-0.355825	0.771082
H220	H	-0.424203	0.144175	1.271082
H221	H	-1.010823	-0.350816	0.704843
H222	H	-0.510823	0.149184	1.204843
H223	H	-0.932272	-0.284419	0.704857
H224	H	-0.432272	0.215581	1.204857
H225	H	-1.052079	-0.317555	0.834698
H226	H	-0.552079	0.182445	1.334698
H227	H	-0.973515	-0.251155	0.834730
H228	H	-0.473515	0.248845	1.334730
