data_functionalizedCrystal
_audit_creation_method	'MofGen! by Chris Wilmer'
_symmetry_space_group_name_H-M	'P1'
_symmetry_Int_Tables_number	1
_symmetry_cell_setting	triclinic
loop_
_symmetry_equiv_pos_as_xyz
  x,y,z
_cell_length_a	17.699104
_cell_length_b	10.723024
_cell_length_c	16.776229
_cell_angle_alpha	90.000530
_cell_angle_beta	89.991985
_cell_angle_gamma	83.879693
loop_
_atom_site_label
_atom_site_type_symbol
_atom_site_fract_x
_atom_site_fract_y
_atom_site_fract_z
O1	O	1.005065	0.157910	-0.066302
O2	O	1.505065	0.657910	0.433698
O3	O	0.784818	0.178413	-0.066300
O4	O	1.284818	0.678413	0.433700
O5	O	0.900022	-0.013501	-0.066298
O6	O	1.400022	0.486499	0.433702
O7	O	0.889862	0.349824	-0.066304
O8	O	1.389862	0.849824	0.433696
O9	O	0.900005	-0.013491	0.066278
O10	O	1.400005	0.486509	0.566278
O11	O	0.784802	0.178423	0.066276
O12	O	1.284802	0.678423	0.566276
O13	O	1.005048	0.157920	0.066274
O14	O	1.505048	0.657920	0.566274
Zn15	Zn	0.894922	0.168173	0.087325
Zn16	Zn	1.394922	0.668173	0.587325
Zn17	Zn	0.894945	0.168160	-0.087351
Zn18	Zn	1.394945	0.668160	0.412649
O19	O	0.889845	0.349834	0.066272
O20	O	1.389845	0.849834	0.566272
C21	C	0.756609	0.177679	-0.000012
C22	C	1.256609	0.677679	0.499988
C23	C	0.672577	0.175461	-0.000011
C24	C	1.172577	0.675461	0.499989
C25	C	0.148338	0.275607	-0.000021
C26	C	0.648338	0.775607	0.499979
C27	C	0.227295	0.277682	-0.000023
C28	C	0.727295	0.777682	0.499977
C29	C	0.275202	0.165022	-0.000021
C30	C	0.775202	0.665022	0.499979
C31	C	0.244148	0.050277	-0.000025
C32	C	0.744148	0.550277	0.499975
C33	C	0.165193	0.048203	-0.000028
C34	C	0.665193	0.548203	0.499972
C35	C	0.562567	0.058641	-0.000012
C36	C	1.062567	0.558641	0.499988
C37	C	0.641527	0.060725	-0.000006
C38	C	1.141527	0.560725	0.499994
C39	C	0.624669	0.288121	-0.000007
C40	C	1.124669	0.788121	0.499993
C41	C	0.545714	0.286046	-0.000010
C42	C	1.045714	0.786046	0.499990
C43	C	0.514667	0.171303	-0.000018
C44	C	1.014667	0.671303	0.499982
C45	C	0.429053	0.169054	-0.000017
C46	C	0.929053	0.669054	0.499983
C47	C	0.360815	0.167270	-0.000016
C48	C	0.860815	0.667270	0.499984
C49	C	0.899274	-0.059983	-0.000011
C50	C	1.399274	0.440017	0.499989
C51	C	0.897062	-0.198500	-0.000014
C52	C	1.397062	0.301500	0.499986
C53	C	0.961524	-0.274580	-0.000016
C54	C	1.461524	0.225420	0.499984
C55	C	0.959239	-0.417744	-0.000018
C56	C	1.459239	0.082256	0.499982
C57	C	1.033258	0.158654	-0.000016
C58	C	1.533258	0.658654	0.499984
C59	C	1.117290	0.160871	-0.000022
C60	C	1.617290	0.660871	0.499978
C61	C	0.890593	0.396316	-0.000017
C62	C	1.390593	0.896316	0.499983
C63	C	0.892805	0.534833	-0.000019
C64	C	1.392805	1.034833	0.499981
N65	N	0.894913	0.168181	0.206536
N66	N	1.394913	0.668181	0.706536
N67	N	0.894960	0.168141	-0.206562
N68	N	1.394960	0.668141	0.293438
C69	C	0.945979	0.083193	0.751701
C70	C	1.445979	0.583193	1.251701
C71	C	0.945975	0.083201	0.668249
C72	C	1.445975	0.583201	1.168249
C73	C	0.894949	0.168154	0.626535
C74	C	1.394949	0.668154	1.126535
C75	C	0.843928	0.253112	0.668278
C76	C	1.343928	0.753112	1.168278
C77	C	0.843935	0.253108	0.751729
C78	C	1.343935	0.753108	1.251729
C79	C	0.843895	0.253130	0.331731
C80	C	1.343895	0.753130	0.831731
C81	C	0.843890	0.253125	0.248274
C82	C	1.343890	0.753125	0.748274
C83	C	0.945935	0.083224	0.248251
C84	C	1.445935	0.583224	0.748251
C85	C	0.945943	0.083220	0.331702
C86	C	1.445943	0.583220	0.831702
C87	C	0.894925	0.168182	0.373437
C88	C	1.394925	0.668182	0.873437
C89	C	0.894930	0.168173	0.463926
C90	C	1.394930	0.668173	0.963926
C91	C	0.894939	0.168158	0.536048
C92	C	1.394939	0.668158	1.036048
H93	H	0.649956	0.381550	-0.000004
H94	H	1.149956	0.881550	0.499996
F95	F	1.031372	-0.503186	-0.000015
F96	F	1.531372	-0.003186	0.499985
H97	H	0.802392	0.322283	0.785710
H98	H	1.302392	0.822283	1.285710
F99	F	1.000249	-0.007202	0.376094
F100	F	1.500249	0.492798	0.876094
F101	F	1.035873	-0.221188	-0.000021
F102	F	1.535873	0.278812	0.499979
F103	F	0.820669	-0.379733	-0.000011
F104	F	1.320669	0.120267	0.499989
H105	H	0.802336	0.322309	0.214312
H106	H	1.302336	0.822309	0.714312
H107	H	0.840182	-0.239354	-0.000018
H108	H	1.340182	0.260646	0.499982
F109	F	1.000286	-0.007234	0.796089
F110	F	1.500286	0.492766	1.296089
F111	F	1.000276	-0.007209	0.623830
F112	F	1.500276	0.492791	1.123830
H113	H	0.987479	0.014047	0.214262
H114	H	1.487479	0.514047	0.714262
H115	H	0.680532	-0.031023	-0.000007
H116	H	1.180532	0.468977	0.499993
F117	F	0.494731	0.405955	-0.000010
F118	F	0.994731	0.905955	0.499990
F119	F	0.789597	0.343548	0.376142
F120	F	1.289597	0.843548	0.876142
F121	F	0.789624	0.343532	0.623882
F122	F	1.289624	0.843532	1.123882
H123	H	0.109337	0.367349	-0.000016
H124	H	0.609337	0.867349	0.499984
F125	F	0.132150	-0.073914	-0.000030
F126	F	0.632150	0.426086	0.499970
H127	H	0.537299	-0.034789	-0.000017
H128	H	1.037299	0.465211	0.499983
F129	F	0.295137	-0.069625	-0.000026
F130	F	0.795137	0.430375	0.499974
F131	F	0.260335	0.399800	-0.000025
F132	F	0.760335	0.899800	0.499975
