data_functionalizedCrystal
_audit_creation_method	'MofGen! by Chris Wilmer'
_symmetry_space_group_name_H-M	'P1'
_symmetry_Int_Tables_number	1
_symmetry_cell_setting	triclinic
loop_
_symmetry_equiv_pos_as_xyz
  x,y,z
_cell_length_a	12.759401
_cell_length_b	19.121063
_cell_length_c	12.759393
_cell_angle_alpha	92.402665
_cell_angle_beta	89.982620
_cell_angle_gamma	92.469017
loop_
_atom_site_label
_atom_site_type_symbol
_atom_site_fract_x
_atom_site_fract_y
_atom_site_fract_z
Zn1	Zn	1.588309	-0.279567	-0.611771
Zn2	Zn	1.580672	-0.397036	-0.443566
Zn3	Zn	1.412612	-0.279604	-0.436113
Zn4	Zn	1.405068	-0.396981	-0.619204
O5	O	1.496665	-0.338297	-0.527664
O6	O	1.734317	-0.295157	-0.589467
O7	O	1.558339	-0.381497	-0.295559
O8	O	1.442273	-0.181315	-0.453184
O9	O	1.728705	-0.381461	-0.465888
O10	O	1.571357	-0.181288	-0.582240
O11	O	1.434867	-0.295220	-0.290083
O12	O	1.264591	-0.295167	-0.460392
O13	O	1.429414	-0.381368	-0.765237
O14	O	1.259048	-0.381404	-0.594908
O15	O	1.564041	-0.295104	-0.759776
O16	O	1.551023	-0.495313	-0.473095
O17	O	1.422008	-0.495273	-0.602136
C18	C	1.223699	-0.338284	-0.527649
C19	C	1.106921	-0.338295	-0.527668
C20	C	1.484897	-0.520777	-0.539254
C21	C	1.479958	-0.598842	-0.544247
C22	C	1.049196	-0.383271	-0.597604
C23	C	0.939471	-0.383280	-0.597616
C24	C	0.945207	-0.293336	-0.457747
C25	C	1.054930	-0.293324	-0.457741
C26	C	1.101187	-0.428242	-0.667532
C27	C	1.043462	-0.473222	-0.737473
C28	C	0.933737	-0.473231	-0.737485
C29	C	0.881738	-0.428260	-0.667556
C30	C	1.544862	-0.635515	-0.479464
C31	C	1.540223	-0.708866	-0.484167
C32	C	1.470675	-0.745543	-0.553647
C33	C	1.405769	-0.708865	-0.618437
C34	C	1.410414	-0.635515	-0.613740
C35	C	1.453294	-0.967011	-0.571195
C36	C	1.448652	-1.040366	-0.575886
C37	C	1.583108	-1.040362	-0.441616
C38	C	1.587742	-0.967011	-0.436920
C39	C	1.522840	-0.930340	-0.501714
C40	C	1.465930	-0.820519	-0.558453
C41	C	1.527591	-0.855365	-0.496912
C42	C	1.770698	-0.338311	-0.527680
C43	C	1.887474	-0.338316	-0.527686
C44	C	1.496738	-0.338226	-0.801693
C45	C	1.496769	-0.338195	-0.918468
C46	C	1.508508	-0.155105	-0.516052
C47	C	1.513555	-0.077039	-0.511103
C48	C	1.432506	-0.293262	-0.970484
C49	C	1.432539	-0.293242	-1.080207
C50	C	1.561107	-0.383088	-1.085887
C51	C	1.561068	-0.383112	-0.976167
C52	C	1.368207	-0.248346	-0.912784
C53	C	1.303940	-0.203409	-0.964800
C54	C	1.303973	-0.203388	-1.074523
C55	C	1.368274	-0.248304	-1.132230
C56	C	1.496656	-0.338318	-0.254698
C57	C	1.496842	-0.338150	-0.137911
H58	H	1.190530	-0.428241	-0.667528
C59	C	1.100656	-0.522685	-0.814395
C60	C	1.172521	-0.577785	-0.772226
C61	C	1.229713	-0.627248	-0.849151
C62	C	1.215039	-0.621612	-0.968245
C63	C	1.143170	-0.566509	-1.010420
C64	C	1.085979	-0.517046	-0.933495
H65	H	1.183386	-0.581960	-0.684060
H66	H	1.282914	-0.668039	-0.817930
H67	H	1.257376	-0.658227	-1.025189
H68	H	1.132305	-0.562334	-1.098585
H69	H	1.032777	-0.476255	-0.964716
C70	C	1.654505	-1.080702	-0.370355
C71	C	1.649407	-1.161384	-0.375518
C72	C	1.720812	-1.201723	-0.304257
C73	C	1.797315	-1.161380	-0.227833
C74	C	1.802416	-1.080694	-0.222666
C75	C	1.731011	-1.040355	-0.293927
H76	H	1.592772	-1.191252	-0.432095
H77	H	1.717035	-1.261452	-0.308082
H78	H	1.850173	-1.191242	-0.175081
H79	H	1.859051	-1.050826	-0.166090
H80	H	1.734788	-0.980626	-0.290103
C81	C	0.870237	-0.522703	-0.814420
C82	C	0.927430	-0.572166	-0.891335
C83	C	0.863932	-0.621643	-0.968269
C84	C	0.743241	-0.621656	-0.968288
C85	C	0.686042	-0.572191	-0.891370
C86	C	0.749540	-0.522715	-0.814436
H87	H	1.016779	-0.572158	-0.891323
H88	H	0.906276	-0.658260	-1.025209
H89	H	0.696237	-0.658282	-1.025239
H90	H	0.596693	-0.572199	-0.891382
H91	H	0.707196	-0.486097	-0.757496
H92	H	1.409302	-0.850390	-0.615023
H93	H	1.368293	-0.248285	-1.221574
H94	H	1.613460	-0.419655	-1.132881
H95	H	1.613411	-0.419690	-0.933814
H96	H	1.400446	-0.937159	-0.623951
C97	C	1.329269	-0.749209	-0.694870
C98	C	1.243610	-0.799704	-0.652509
C99	C	1.167107	-0.840047	-0.728941
C100	C	1.176262	-0.829894	-0.847735
C101	C	1.261924	-0.779397	-0.890102
C102	C	1.338427	-0.739054	-0.813670
H103	H	1.236830	-0.807221	-0.564565
H104	H	1.103694	-0.877428	-0.697578
H105	H	1.119630	-0.859758	-0.904315
H106	H	1.268704	-0.771879	-0.978046
H107	H	1.401840	-0.701672	-0.845033
C108	C	1.621367	-0.595174	-0.403034
C109	C	1.612222	-0.605332	-0.284241
C110	C	1.688732	-0.564992	-0.207811
C111	C	1.774386	-0.514495	-0.250174
C112	C	1.783534	-0.504335	-0.368973
C113	C	1.707024	-0.544674	-0.445403
H114	H	1.548813	-0.642715	-0.252875
H115	H	1.681960	-0.572514	-0.119868
H116	H	1.831024	-0.484633	-0.193597
H117	H	1.846944	-0.466952	-0.400339
H118	H	1.713797	-0.537153	-0.533346
C119	C	1.118442	-0.243853	-0.380814
C120	C	1.197432	-0.188745	-0.422985
C121	C	1.260948	-0.139270	-0.346063
C122	C	1.245475	-0.144905	-0.226969
C123	C	1.166481	-0.200016	-0.184791
C124	C	1.102965	-0.249490	-0.261714
H125	H	1.208890	-0.184572	-0.511151
H126	H	1.319424	-0.098474	-0.377286
H127	H	1.292493	-0.108281	-0.170026
H128	H	1.155024	-0.204189	-0.096625
H129	H	1.044489	-0.290287	-0.230490
C130	C	1.611625	-0.749202	-0.412904
C131	C	1.603752	-0.739189	-0.292819
C132	C	1.675163	-0.779522	-0.221557
C133	C	1.754446	-0.829869	-0.270379
C134	C	1.762321	-0.839884	-0.390470
C135	C	1.690911	-0.799551	-0.461733
H136	H	1.545060	-0.701917	-0.256673
H137	H	1.669333	-0.772108	-0.132657
H138	H	1.807308	-0.859726	-0.217626
H139	H	1.821014	-0.877156	-0.426617
H140	H	1.696741	-0.806965	-0.550633
H141	H	1.392030	-1.070226	-0.632484
H142	H	1.251583	-0.166844	-0.917809
H143	H	0.792393	-0.428265	-0.667580
H144	H	1.357564	-0.605657	-0.666494
H145	H	0.902861	-0.256724	-0.400813
H146	H	1.584221	-0.825500	-0.440345
H147	H	1.644373	-0.937151	-0.380343
H148	H	1.368175	-0.248356	-0.823442
H149	H	1.251636	-0.166803	-1.116872
