data_functionalizedCrystal
_audit_creation_method	'MofGen! by Chris Wilmer'
_symmetry_space_group_name_H-M	'P1'
_symmetry_Int_Tables_number	1
_symmetry_cell_setting	triclinic
loop_
_symmetry_equiv_pos_as_xyz
  x,y,z
_cell_length_a	8.559649
_cell_length_b	8.559649
_cell_length_c	16.776229
_cell_angle_alpha	89.994739
_cell_angle_beta	89.992917
_cell_angle_gamma	69.778664
loop_
_atom_site_label
_atom_site_type_symbol
_atom_site_fract_x
_atom_site_fract_y
_atom_site_fract_z
O1	O	2.126887	-0.055032	-0.066276
O2	O	1.651402	0.028749	-0.066279
O3	O	1.931035	-0.250884	-0.066276
O4	O	1.847254	0.224601	-0.066278
O5	O	1.931004	-0.250895	0.066300
O6	O	1.651371	0.028738	0.066298
O7	O	2.126856	-0.055043	0.066301
Zn8	Zn	1.889108	-0.013154	0.087349
Zn9	Zn	1.889149	-0.013140	-0.087327
O10	O	1.847223	0.224590	0.066298
C11	C	1.591077	0.035093	0.000009
C12	C	1.411378	0.053992	0.000008
C13	C	1.937369	-0.311198	0.000011
C14	C	1.956268	-0.490898	0.000006
C15	C	2.187180	-0.061387	0.000011
C16	C	2.366879	-0.080286	0.000007
C17	C	1.840889	0.284904	0.000010
C18	C	1.821990	0.464604	0.000009
N19	N	1.889092	-0.013167	0.206560
N20	N	1.889180	-0.013141	-0.206538
C21	C	2.012942	-0.136947	0.248278
C22	C	2.012951	-0.136950	0.331730
C23	C	1.889116	-0.013164	0.373463
C24	C	1.765254	0.110623	0.331739
C25	C	1.765239	0.110618	0.248288
C26	C	1.765309	0.110648	0.668286
C27	C	1.765336	0.110647	0.751742
C28	C	2.013020	-0.136919	0.751728
C29	C	2.013006	-0.136925	0.668278
C30	C	1.889140	-0.013144	0.626561
C31	C	1.889129	-0.013145	0.536072
C32	C	1.889132	-0.013155	0.463950
H33	H	1.466258	-0.209705	0.000004
N34	N	1.631685	0.244125	0.376752
H35	H	1.684858	0.308391	0.411363
H36	H	1.553260	0.322426	0.337611
N37	N	2.127719	-0.622526	0.000008
H38	H	2.190308	-0.609606	0.049154
H39	H	2.117244	-0.736485	-0.000017
H40	H	2.113788	-0.237742	0.214305
H41	H	1.311990	0.183420	0.000003
N42	N	2.146584	-0.270425	0.376716
H43	H	2.142092	-0.383307	0.362203
H44	H	2.259305	-0.265584	0.362141
H45	H	1.692570	-0.436018	0.000010
N46	N	2.146575	-0.270430	0.623266
H47	H	2.225036	-0.348849	0.662358
H48	H	2.093271	-0.334565	0.588653
H49	H	2.113875	-0.237713	0.785703
H50	H	1.664488	0.211453	0.785720
N51	N	1.631710	0.244141	0.623297
H52	H	1.553269	0.322556	0.662400
H53	H	1.684980	0.308284	0.588657
H54	H	1.664387	0.211410	0.214322
