data_functionalizedCrystal
_audit_creation_method	'MofGen! by Chris Wilmer'
_symmetry_space_group_name_H-M	'P1'
_symmetry_Int_Tables_number	1
_symmetry_cell_setting	triclinic
loop_
_symmetry_equiv_pos_as_xyz
  x,y,z
_cell_length_a	6.817900
_cell_length_b	10.943632
_cell_length_c	19.453114
_cell_angle_alpha	94.440217
_cell_angle_beta	101.709288
_cell_angle_gamma	108.838880
loop_
_atom_site_label
_atom_site_type_symbol
_atom_site_fract_x
_atom_site_fract_y
_atom_site_fract_z
V1	V	-4.034382	-0.179974	-0.218982
O2	O	-3.993629	0.007265	-0.214831
O3	O	-4.012894	-0.355528	-0.217468
O4	O	-3.976966	-0.177813	-0.314495
O5	O	-4.029805	-0.171680	-0.117132
V6	V	-4.515692	-0.157506	-0.206802
O7	O	-4.300497	-0.229259	-0.245700
O8	O	-4.699774	-0.108222	-0.180084
O9	O	-4.313974	0.018048	-0.208316
O10	O	-4.673842	-0.344746	-0.210953
O11	O	-4.637666	-0.165800	-0.308652
O12	O	-4.349901	-0.159668	-0.111289
C13	C	-3.864733	-0.398305	-0.214009
C14	C	-3.928390	-0.541827	-0.213407
C15	C	-3.774718	-0.618955	-0.209407
C16	C	-3.874556	-0.691253	-0.152706
C17	C	-3.942002	-0.725260	-0.269044
C18	C	-4.027362	-0.612221	-0.156666
C19	C	-4.094807	-0.646234	-0.273056
C20	C	-4.194760	-0.718495	-0.216343
C21	C	-3.818903	-0.171610	-0.337776
C22	C	-3.853420	-0.171004	-0.415859
C23	C	-4.052412	-0.177200	-0.456115
C24	C	-4.084845	-0.176631	-0.529482
C25	C	-3.918288	-0.169892	-0.562592
C26	C	-3.719264	-0.163688	-0.522325
C27	C	-3.686831	-0.164244	-0.448959
N28	N	-3.868996	-0.238075	-0.681374
N29	N	-3.899821	-0.237550	-0.751070
C30	C	-4.015997	-0.168214	-0.783640
N31	N	-4.100222	-0.099441	-0.743884
N32	N	-4.069403	-0.099972	-0.674182
C33	C	-3.953436	-0.169288	-0.642145
C34	C	-4.250168	-0.173792	-0.903449
C35	C	-4.282591	-0.173215	-0.976817
C36	C	-3.917010	-0.160285	-0.969659
C37	C	-3.884587	-0.160849	-0.896292
C38	C	-4.051177	-0.167609	-0.863192
C39	C	-4.125478	0.060818	-0.211773
C40	C	-4.041059	0.204338	-0.212379
C41	C	-4.171308	-0.165875	-0.088004
C42	C	-4.116028	-0.166474	-0.009921
H43	H	-4.062806	-0.563161	-0.109125
H44	H	-4.372937	-0.761737	-0.219256
C45	C	-4.498828	-0.180206	-1.020512
C46	C	-4.655360	-0.295914	-1.014295
C47	C	-4.854581	-0.302405	-1.054544
H48	H	-4.532207	-0.107378	-1.003590
H49	H	-4.494415	-0.178973	-1.068962
H50	H	-4.659779	-0.297135	-0.965855
H51	H	-4.622052	-0.368762	-1.031222
H52	H	-4.850167	-0.301172	-1.102994
H53	H	-4.887938	-0.229572	-1.037618
H54	H	-4.960808	-0.380917	-1.050337
C55	C	-3.668761	-0.154430	-0.852541
C56	C	-3.693732	-0.266046	-0.819682
C57	C	-3.494960	-0.260202	-0.779378
H58	H	-3.574099	-0.150425	-0.882708
H59	H	-3.611663	-0.078761	-0.817311
H60	H	-3.750799	-0.341694	-0.854907
H61	H	-3.788357	-0.270073	-0.789503
H62	H	-3.437862	-0.184534	-0.744148
H63	H	-3.400313	-0.256194	-0.809550
H64	H	-3.511879	-0.335925	-0.757073
C65	C	-3.751562	-0.718816	-0.084890
C66	C	-3.814817	-0.853942	-0.084959
C67	C	-3.701559	-0.879384	-0.022503
H68	H	-3.602879	-0.684702	-0.082415
H69	H	-3.780545	-0.678541	-0.044947
H70	H	-3.785818	-0.894201	-0.124892
H71	H	-3.963482	-0.888087	-0.087423
H72	H	-3.730542	-0.839109	0.017441
H73	H	-3.552882	-0.845263	-0.020033
H74	H	-3.744476	-0.971068	-0.022538
C75	C	-3.537071	-0.560724	-0.205305
C76	C	-3.437643	-0.465927	-0.144631
C77	C	-3.218734	-0.412241	-0.140830
H78	H	-3.476647	-0.627729	-0.202774
H79	H	-3.516445	-0.521580	-0.246415
H80	H	-3.458253	-0.505071	-0.103531
H81	H	-3.498002	-0.398897	-0.147148
H82	H	-3.198108	-0.373098	-0.181940
H83	H	-3.158331	-0.479256	-0.138301
H84	H	-3.151247	-0.347908	-0.099667
H85	H	-4.187184	-0.625756	-0.323946
H86	H	-3.906496	-0.774471	-0.316521
H87	H	-4.188063	-0.182700	-0.429170
H88	H	-4.246897	-0.181684	-0.562266
H89	H	-3.583652	-0.158197	-0.549287
C90	C	-3.470989	-0.157786	-0.405196
C91	C	-3.495924	-0.269390	-0.372328
C92	C	-3.297147	-0.263503	-0.332007
H93	H	-3.376297	-0.153765	-0.435353
H94	H	-3.413942	-0.082112	-0.369970
H95	H	-3.552941	-0.345044	-0.407549
H96	H	-3.590579	-0.273433	-0.342158
H97	H	-3.240100	-0.187829	-0.296781
H98	H	-3.202470	-0.259480	-0.362170
H99	H	-3.314041	-0.339218	-0.309696
H100	H	-4.385813	-0.179292	-0.876498
H101	H	-3.781389	-0.154786	-0.996615
