data_functionalizedCrystal
_audit_creation_method	'MofGen! by Chris Wilmer'
_symmetry_space_group_name_H-M	'P1'
_symmetry_Int_Tables_number	1
_symmetry_cell_setting	triclinic
loop_
_symmetry_equiv_pos_as_xyz
  x,y,z
_cell_length_a	14.971482
_cell_length_b	27.731996
_cell_length_c	14.048226
_cell_angle_alpha	89.987595
_cell_angle_beta	89.994098
_cell_angle_gamma	83.116998
loop_
_atom_site_label
_atom_site_type_symbol
_atom_site_fract_x
_atom_site_fract_y
_atom_site_fract_z
O1	O	1.185932	0.062984	-0.079161
O2	O	1.685932	0.562984	0.420839
O3	O	0.925410	0.070529	-0.079167
O4	O	1.425410	0.570529	0.420833
O5	O	1.063786	-0.003605	-0.079143
O6	O	1.563786	0.496395	0.420857
O7	O	1.047555	0.137118	-0.079185
O8	O	1.547555	0.637118	0.420815
O9	O	1.063770	-0.003609	0.079178
O10	O	1.563770	0.496391	0.579178
O11	O	0.925393	0.070525	0.079154
O12	O	1.425393	0.570525	0.579154
O13	O	1.185916	0.062979	0.079160
O14	O	1.685916	0.562979	0.579160
Zn15	Zn	1.055652	0.066751	0.104294
Zn16	Zn	1.555652	0.566751	0.604294
Zn17	Zn	1.055673	0.066757	-0.104301
Zn18	Zn	1.555673	0.566757	0.395699
O19	O	1.047539	0.137113	0.079136
O20	O	1.547539	0.637113	0.579136
C21	C	0.892082	0.070190	-0.000007
C22	C	1.392082	0.570190	0.499993
C23	C	0.792801	0.069180	-0.000009
C24	C	1.292801	0.569180	0.499991
C25	C	0.746155	0.068701	0.086294
C26	C	1.246155	0.568701	0.586294
C27	C	0.652872	0.067744	0.086295
C28	C	1.152872	0.567744	0.586295
C29	C	0.606236	0.067269	-0.000007
C30	C	1.106236	0.567269	0.499993
C31	C	0.652889	0.067746	-0.086316
C32	C	1.152889	0.567746	0.413684
C33	C	0.746171	0.068699	-0.086316
C34	C	1.246171	0.568699	0.413684
C35	C	0.458459	0.065760	-0.086309
C36	C	0.958459	0.565760	0.413691
C37	C	0.365170	0.064807	-0.086309
C38	C	0.865170	0.564807	0.413691
C39	C	0.365160	0.064805	0.086302
C40	C	0.865160	0.564805	0.586302
C41	C	0.458442	0.065758	0.086302
C42	C	0.958442	0.565758	0.586302
C43	C	0.505088	0.066236	-0.000008
C44	C	1.005088	0.566236	0.499992
C45	C	1.063445	-0.021616	0.000020
C46	C	1.563445	0.478384	0.500020
C47	C	1.062440	-0.075277	0.000030
C48	C	1.562440	0.424723	0.500030
C49	C	1.056131	-0.408020	-0.086317
C50	C	1.556131	0.091980	0.413683
C51	C	1.052317	-0.609695	-0.086334
C52	C	1.552317	-0.109695	0.413666
O53	O	1.051793	-0.635767	-0.159731
O54	O	1.551793	-0.135767	0.340269
N55	N	1.051835	-0.634917	-0.000034
N56	N	1.551835	-0.134917	0.499966
C57	C	1.052300	-0.609716	0.086276
C58	C	1.552300	-0.109716	0.586276
O59	O	1.051792	-0.635796	0.159679
O60	O	1.551792	-0.135796	0.659679
C61	C	1.056107	-0.408041	0.086292
C62	C	1.556107	0.091959	0.586292
C63	C	1.056598	-0.382823	-0.000014
C64	C	1.556598	0.117177	0.499986
C65	C	1.056622	-0.382801	-0.172616
C66	C	1.556622	0.117199	0.327384
C67	C	1.057580	-0.332386	-0.172611
C68	C	1.557580	0.167614	0.327389
C69	C	1.058047	-0.307188	-0.086307
C70	C	1.558047	0.192812	0.413693
C71	C	1.057557	-0.332407	-0.000009
C72	C	1.557557	0.167593	0.499991
C73	C	1.056565	-0.382841	0.172602
C74	C	1.556565	0.117159	0.672602
C75	C	1.057515	-0.332419	0.172598
C76	C	1.557515	0.167581	0.672598
C77	C	1.058007	-0.307200	0.086292
C78	C	1.558007	0.192800	0.586292
C79	C	1.058983	-0.256794	0.086300
C80	C	1.558983	0.243206	0.586300
N81	N	1.059465	-0.231573	0.000000
N82	N	1.559465	0.268427	0.500000
C83	C	1.058998	-0.256770	-0.086304
C84	C	1.558998	0.243230	0.413696
C85	C	1.050303	-0.715599	0.086262
C86	C	1.550303	-0.215599	0.586262
C87	C	1.049352	-0.766018	0.086258
C88	C	1.549352	-0.266018	0.586258
C89	C	1.049368	-0.765993	-0.086353
C90	C	1.549368	-0.265993	0.413647
C91	C	1.050325	-0.715574	-0.086348
C92	C	1.550325	-0.215574	0.413652
C93	C	1.050785	-0.690377	-0.000038
C94	C	1.550785	-0.190377	0.499962
C95	C	1.061011	-0.150893	-0.086286
C96	C	1.561011	0.349107	0.413714
C97	C	1.061973	-0.100474	-0.086274
C98	C	1.561973	0.399526	0.413726
C99	C	1.061952	-0.100502	0.086337
C100	C	1.561952	0.399498	0.586337
C101	C	1.060995	-0.150918	0.086325
C102	C	1.560995	0.349082	0.586325
C103	C	1.060521	-0.176112	0.000005
C104	C	1.560521	0.323888	0.500005
O105	O	1.059497	-0.230692	0.159658
O106	O	1.559497	0.269308	0.659658
O107	O	1.059485	-0.230680	-0.159696
O108	O	1.559485	0.269320	0.340304
C109	C	1.055173	-0.458435	-0.086323
C110	C	1.555173	0.041565	0.413677
C111	C	1.054682	-0.483654	-0.000024
C112	C	1.554682	0.016346	0.499976
C113	C	1.055150	-0.458457	0.086280
C114	C	1.555150	0.041543	0.586280
C115	C	1.053732	-0.534073	-0.000028
C116	C	1.553732	-0.034073	0.499972
C117	C	1.053264	-0.559270	-0.086331
C118	C	1.553264	-0.059270	0.413669
C119	C	1.053747	-0.534048	-0.172631
C120	C	1.553747	-0.034048	0.327369
C121	C	1.054705	-0.483632	-0.172626
C122	C	1.554705	0.016368	0.327374
C123	C	1.054667	-0.483678	0.172580
C124	C	1.554667	0.016322	0.672580
C125	C	1.053710	-0.534094	0.172568
C126	C	1.553710	-0.034094	0.672568
C127	C	1.053242	-0.559291	0.086264
C128	C	1.553242	-0.059291	0.586264
C129	C	1.219243	0.063319	-0.000002
C130	C	1.719243	0.563319	0.499998
C131	C	1.318524	0.064329	-0.000007
C132	C	1.818524	0.564329	0.499993
C133	C	1.047881	0.155124	-0.000030
C134	C	1.547881	0.655124	0.499970
C135	C	1.048885	0.208785	-0.000046
C136	C	1.548885	0.708785	0.499954
N137	N	1.055644	0.066747	0.246655
N138	N	1.555644	0.566747	0.746655
N139	N	1.055689	0.066758	-0.246662
N140	N	1.555689	0.566758	0.253338
C141	C	1.116936	0.033934	0.296483
C142	C	1.616936	0.533934	0.796483
C143	C	1.116942	0.033934	0.396141
C144	C	1.616942	0.533934	0.896141
C145	C	1.055659	0.066749	0.445968
C146	C	1.555659	0.566749	0.945968
C147	C	0.994361	0.099564	0.396133
C148	C	1.494361	0.599564	0.896133
C149	C	0.994351	0.099561	0.296477
C150	C	1.494351	0.599561	0.796477
C151	C	0.994386	0.099567	0.603847
C152	C	1.494386	0.599567	1.103847
C153	C	0.994397	0.099570	0.703510
C154	C	1.494397	0.599570	1.203510
C155	C	1.116977	0.033940	0.703511
C156	C	1.616977	0.533940	1.203511
C157	C	1.116967	0.033938	0.603855
C158	C	1.616967	0.533938	1.103855
C159	C	1.055670	0.066753	0.554026
C160	C	1.555670	0.566753	1.054026
H161	H	0.496410	0.066148	0.156576
H162	H	0.996410	0.566148	0.656576
H163	H	0.614899	0.067347	0.156571
H164	H	1.114899	0.567347	0.656571
H165	H	1.056238	-0.403311	-0.242899
H166	H	1.556238	0.096689	0.257101
H167	H	0.944468	0.126287	0.563280
H168	H	1.444468	0.626287	1.063280
H169	H	1.062337	-0.079978	0.156603
H170	H	1.562337	0.420022	0.656603
H171	H	1.057977	-0.311857	-0.242890
H172	H	1.557977	0.188143	0.257110
H173	H	1.048989	-0.786517	-0.156625
H174	H	1.548989	-0.286517	0.343375
H175	H	0.944493	0.126292	0.744074
H176	H	1.444493	0.626292	1.244074
H177	H	1.050724	-0.695044	-0.156626
H178	H	1.550724	-0.195044	0.343374
H179	H	1.048966	-0.786547	0.156537
H180	H	1.548966	-0.286547	0.656537
H181	H	0.327201	0.064421	-0.156584
H182	H	0.827201	0.564421	0.343416
H183	H	1.055105	-0.463104	-0.242906
H184	H	1.555105	0.036896	0.257094
H185	H	0.784149	0.069090	-0.156592
H186	H	1.284149	0.569090	0.343408
H187	H	0.327176	0.064416	0.156578
H188	H	0.827176	0.564416	0.656578
H189	H	1.050682	-0.695089	0.156550
H190	H	1.550682	-0.195089	0.656550
H191	H	1.166843	0.007214	0.255920
H192	H	1.666843	0.507214	0.755920
H193	H	0.944459	0.126281	0.436708
H194	H	1.444459	0.626281	0.936708
H195	H	0.614911	0.067356	-0.156584
H196	H	1.114911	0.567356	0.343416
H197	H	1.060603	-0.171453	0.156602
H198	H	1.560603	0.328547	0.656602
H199	H	1.062375	-0.079943	-0.156557
H200	H	1.562375	0.420057	0.343443
H201	H	0.944440	0.126280	0.255907
H202	H	1.444440	0.626280	0.755907
H203	H	1.060621	-0.171400	-0.156576
H204	H	1.560621	0.328600	0.343424
H205	H	1.166887	0.007221	0.744087
H206	H	1.666887	0.507221	1.244087
H207	H	1.056166	-0.403365	0.242881
H208	H	1.556166	0.096635	0.742881
H209	H	1.055049	-0.463168	0.242861
H210	H	1.555049	0.036832	0.742861
H211	H	1.057876	-0.311905	0.242883
H212	H	1.557876	0.188095	0.742883
H213	H	1.053370	-0.554572	-0.242903
H214	H	1.553370	-0.054572	0.257097
H215	H	0.784119	0.069092	0.156571
H216	H	1.284119	0.569092	0.656571
H217	H	1.053316	-0.554623	0.242854
H218	H	1.553316	-0.054623	0.742854
H219	H	0.496435	0.066149	-0.156591
H220	H	0.996435	0.566149	0.343409
H221	H	1.166850	0.007215	0.436711
H222	H	1.666850	0.507215	0.936711
H223	H	1.166872	0.007219	0.563286
H224	H	1.666872	0.507219	1.063286
