data_functionalizedCrystal
_audit_creation_method	'MofGen! by Chris Wilmer'
_symmetry_space_group_name_H-M	'P1'
_symmetry_Int_Tables_number	1
_symmetry_cell_setting	triclinic
loop_
_symmetry_equiv_pos_as_xyz
  x,y,z
_cell_length_a	10.654562
_cell_length_b	10.967829
_cell_length_c	9.730223
_cell_angle_alpha	77.870761
_cell_angle_beta	89.996961
_cell_angle_gamma	84.601947
loop_
_atom_site_label
_atom_site_type_symbol
_atom_site_fract_x
_atom_site_fract_y
_atom_site_fract_z
O1	O	1.667798	0.175346	-0.155905
O2	O	1.302319	0.192028	-0.159839
O3	O	1.493489	0.002112	-0.114863
O4	O	1.476628	0.365262	-0.200881
O5	O	1.493487	0.002116	0.113716
O6	O	1.302317	0.192033	0.068740
O7	O	1.667796	0.175350	0.072674
Zn8	Zn	1.485056	0.183692	0.106999
Zn9	Zn	1.485059	0.183686	-0.194164
O10	O	1.476626	0.365267	0.027698
C11	C	1.255521	0.190802	-0.045256
C12	C	1.116079	0.187128	-0.044379
C13	C	1.050547	0.185416	0.080614
C14	C	0.919525	0.181973	0.081407
C15	C	0.919578	0.181959	-0.167800
C16	C	1.050598	0.185393	-0.168589
C17	C	1.050515	0.185430	0.224491
C18	C	0.919493	0.181987	0.225283
C19	C	1.492261	-0.044386	0.010438
C20	C	1.488590	-0.182942	0.043248
C21	C	1.486955	-0.244710	-0.060536
C22	C	1.483161	-0.387915	-0.026627
C23	C	1.714595	0.176576	-0.041912
C24	C	1.854037	0.180251	-0.042798
C25	C	1.477854	0.411764	-0.097606
C26	C	1.481525	0.550320	-0.130426
N27	N	1.485063	0.183696	0.312534
N28	N	1.485062	0.183673	-0.399697
C29	C	1.569735	0.099630	0.404369
C30	C	1.569732	0.099614	0.548255
C31	C	1.400381	0.267743	0.508457
C32	C	1.400379	0.267751	0.364575
C33	C	1.667513	0.002566	0.427346
C34	C	1.667509	0.002550	0.571232
H35	H	1.080075	0.276443	0.247576
H36	H	1.481744	-0.441045	0.087337
C37	C	1.483328	-0.378616	-0.282301
C38	C	1.486682	-0.250701	-0.285747
C39	C	1.488296	-0.185193	-0.425628
H40	H	1.409634	-0.390914	-0.330613
H41	H	1.555864	-0.408641	-0.326535
H42	H	1.414153	-0.220685	-0.241533
H43	H	1.560372	-0.238365	-0.237465
H44	H	1.560832	-0.215218	-0.469861
H45	H	1.414600	-0.197501	-0.473928
H46	H	1.490583	-0.098397	-0.427984
C47	C	1.796120	0.030989	0.616845
C48	C	1.795790	0.030864	0.760768
C49	C	1.914241	0.057041	0.802839
H50	H	1.814111	0.110923	0.565535
H51	H	1.858706	-0.031125	0.599085
H52	H	1.733224	0.092974	0.778516
H53	H	1.777821	-0.049060	0.812113
H54	H	1.976827	-0.005073	0.785080
H55	H	1.932223	0.136974	0.751520
H56	H	1.914037	0.056948	0.900497
H57	H	1.758691	0.032963	0.375515
H58	H	1.646084	-0.093353	0.411013
H59	H	0.889918	0.090977	0.291486
C60	C	1.486908	-0.253648	0.195271
C61	C	1.595588	-0.235154	0.266127
C62	C	1.594072	-0.300254	0.406179
H63	H	1.484670	-0.340508	0.198060
H64	H	1.414399	-0.223473	0.239430
H65	H	1.668078	-0.265335	0.221981
H66	H	1.597849	-0.148307	0.263378
H67	H	1.521563	-0.270079	0.450338
H68	H	1.591830	-0.387110	0.408954
H69	H	1.667803	-0.287705	0.454276
H70	H	1.331422	0.336193	0.289806
H71	H	1.331432	0.336177	0.550846
H72	H	1.096787	0.099190	0.300171
C73	C	1.121851	0.186983	-0.304191
C74	C	1.210237	0.081764	-0.286533
C75	C	1.275887	0.083177	-0.411428
H76	H	1.164137	0.260882	-0.327008
H77	H	1.064135	0.185393	-0.378075
H78	H	1.267944	0.083364	-0.212672
H79	H	1.167984	0.007848	-0.263736
H80	H	1.218172	0.081588	-0.485313
H81	H	1.318166	0.157081	-0.434235
H82	H	1.335857	0.011782	-0.399469
C83	C	0.848615	0.180286	-0.302802
C84	C	0.867334	0.288278	-0.403565
C85	C	0.801998	0.286775	-0.527953
H86	H	0.761171	0.178058	-0.284640
H87	H	0.879061	0.108243	-0.337006
H88	H	0.836881	0.360301	-0.369367
H89	H	0.954763	0.290528	-0.421768
H90	H	0.832444	0.214733	-0.562157
H91	H	0.714558	0.284544	-0.509777
H92	H	0.814699	0.360040	-0.596340
C93	C	0.857678	0.297057	0.271479
C94	C	0.888210	0.405182	0.177878
C95	C	0.831222	0.511165	0.220404
H96	H	0.887203	0.297999	0.363327
H97	H	0.768772	0.294670	0.271947
H98	H	0.977097	0.407569	0.177425
H99	H	0.858684	0.404282	0.086024
H100	H	0.742316	0.508779	0.220872
H101	H	0.860751	0.512095	0.312253
H102	H	0.851920	0.584540	0.156896
H103	H	1.488358	-0.191574	-0.174493
H104	H	1.637010	-0.088093	0.637319
