data_functionalizedCrystal
_audit_creation_method	'MofGen! by Chris Wilmer'
_symmetry_space_group_name_H-M	'P1'
_symmetry_Int_Tables_number	1
_symmetry_cell_setting	triclinic
loop_
_symmetry_equiv_pos_as_xyz
  x,y,z
_cell_length_a	11.792254
_cell_length_b	17.699083
_cell_length_c	16.176319
_cell_angle_alpha	89.992304
_cell_angle_beta	89.992652
_cell_angle_gamma	83.740806
loop_
_atom_site_label
_atom_site_type_symbol
_atom_site_fract_x
_atom_site_fract_y
_atom_site_fract_z
O1	O	1.505661	0.103784	-0.068748
O2	O	2.005661	0.603784	0.431252
O3	O	1.175194	0.114465	-0.068750
O4	O	1.675194	0.614465	0.431250
O5	O	1.349764	-0.001015	-0.068741
O6	O	1.849764	0.498985	0.431259
O7	O	1.331091	0.219263	-0.068756
O8	O	1.831091	0.719263	0.431244
O9	O	1.349740	-0.001022	0.068752
O10	O	1.849740	0.498978	0.568752
O11	O	1.175170	0.114457	0.068744
O12	O	1.675170	0.614457	0.568744
O13	O	1.505637	0.103776	0.068746
O14	O	2.005637	0.603776	0.568746
Cu15	Cu	1.340401	0.109116	0.081299
Cu16	Cu	1.840401	0.609116	0.581299
Cu17	Cu	1.340429	0.109125	-0.081303
Cu18	Cu	1.840429	0.609125	0.418697
O19	O	1.331067	0.219256	0.068737
O20	O	1.831067	0.719256	0.568737
C21	C	1.349083	-0.029219	0.000005
C22	C	1.849083	0.470781	0.500005
C23	C	1.347075	-0.113248	0.000006
C24	C	1.847075	0.386752	0.500006
C25	C	1.132899	0.113788	-0.000003
C26	C	1.632899	0.613788	0.499997
C27	C	1.006910	0.111774	-0.000004
C28	C	1.506910	0.611774	0.499996
C29	C	1.449544	-0.161320	0.000008
C30	C	1.949544	0.338680	0.500008
C31	C	1.447651	-0.240273	0.000000
C32	C	1.947651	0.259727	0.500000
C33	C	1.343288	-0.271153	-0.000003
C34	C	1.843288	0.228847	0.499997
C35	C	1.240812	-0.223076	-0.000007
C36	C	1.740812	0.276924	0.499993
C37	C	1.242706	-0.144124	-0.000006
C38	C	1.742706	0.355876	0.499994
C39	C	1.233171	-0.541480	-0.000014
C40	C	1.733171	-0.041480	0.499986
C41	C	1.231285	-0.620438	-0.000013
C42	C	1.731285	-0.120438	0.499987
C43	C	1.438117	-0.637629	-0.000008
C44	C	1.938117	-0.137629	0.499992
C45	C	1.440011	-0.558677	-0.000007
C46	C	1.940011	-0.058677	0.499993
C47	C	1.337535	-0.510606	-0.000015
C48	C	1.837535	-0.010606	0.499985
C49	C	1.339588	-0.424996	-0.000009
C50	C	1.839588	0.075004	0.499991
C51	C	1.341234	-0.356762	-0.000003
C52	C	1.841234	0.143238	0.499997
C53	C	0.904593	0.110138	-0.000007
C54	C	1.404593	0.610138	0.499993
C55	C	0.776231	0.108092	-0.000008
C56	C	1.276231	0.608092	0.499992
C57	C	1.547931	0.104453	-0.000003
C58	C	2.047931	0.604453	0.499997
C59	C	1.673920	0.106467	-0.000008
C60	C	2.173920	0.606467	0.499992
C61	C	1.331748	0.247460	-0.000011
C62	C	1.831748	0.747460	0.499989
C63	C	1.333755	0.331489	-0.000017
C64	C	1.833755	0.831489	0.499983
N65	N	1.340389	0.109109	0.195664
N66	N	1.840389	0.609109	0.695664
N67	N	1.340450	0.109126	-0.195668
N68	N	1.840450	0.609126	0.304332
C69	C	1.417712	0.057996	0.238932
C70	C	1.917712	0.557996	0.738932
C71	C	1.417718	0.057995	0.325479
C72	C	1.917718	0.557995	0.825479
C73	C	1.340405	0.109112	0.368757
C74	C	1.840405	0.609112	0.868757
C75	C	1.263074	0.160228	0.325483
C76	C	1.763074	0.660228	0.825483
C77	C	1.263064	0.160224	0.238937
C78	C	1.763064	0.660224	0.738937
C79	C	1.263113	0.160242	0.674511
C80	C	1.763113	0.660242	1.174511
C81	C	1.263132	0.160243	0.761062
C82	C	1.763132	0.660243	1.261062
C83	C	1.417767	0.058013	0.761053
C84	C	1.917767	0.558013	1.261053
C85	C	1.417757	0.058010	0.674507
C86	C	1.917757	0.558010	1.174507
C87	C	1.340422	0.109122	0.631241
C88	C	1.840422	0.609122	1.131241
C89	C	1.340416	0.109122	0.537397
C90	C	1.840416	0.609122	1.037397
C91	C	1.340417	0.109117	0.462599
C92	C	1.840417	0.609117	0.962599
H93	H	1.534529	-0.136184	0.000015
H94	H	2.034529	0.363816	0.500015
H95	H	1.146295	-0.645577	-0.000014
H96	H	1.646295	-0.145577	0.499986
C97	C	1.120444	-0.488612	-0.000028
C98	C	1.620444	0.011388	0.499972
N99	N	1.035532	-0.448788	-0.000041
N100	N	1.535532	0.051212	0.499959
C101	C	1.178190	0.216566	0.626929
C102	C	1.678190	0.716566	1.126929
N103	N	1.114274	0.259028	0.591088
N104	N	1.614274	0.759028	1.091088
H105	H	1.200119	0.201845	0.360724
H106	H	1.700119	0.701845	0.860724
C107	C	1.502763	0.001762	0.191334
C108	C	2.002763	0.501762	0.691334
N109	N	1.566823	-0.040597	0.155486
N110	N	2.066823	0.459403	0.655486
C111	C	1.554818	-0.524714	-0.000003
C112	C	2.054818	-0.024714	0.499997
N113	N	1.641293	-0.499134	-0.000004
N114	N	2.141293	0.000866	0.499996
C115	C	1.126011	-0.257047	-0.000004
C116	C	1.626011	0.242953	0.499996
N117	N	1.039541	-0.282633	0.000005
N118	N	1.539541	0.217367	0.500005
H119	H	1.480715	0.016388	0.639273
H120	H	1.980715	0.516388	1.139273
C121	C	1.502828	0.001781	0.808653
C122	C	2.002828	0.501781	1.308653
N123	N	1.566894	-0.040571	0.844505
N124	N	2.066894	0.459429	1.344505
C125	C	1.129982	-0.091245	-0.000006
C126	C	1.629982	0.408755	0.499994
N127	N	1.045074	-0.051417	-0.000008
N128	N	1.545074	0.448583	0.499992
H129	H	1.480679	0.016375	0.360707
H130	H	1.980679	0.516375	0.860707
H131	H	1.200170	0.201870	0.796298
H132	H	1.700170	0.701870	1.296298
C133	C	1.560376	-0.293149	0.000016
C134	C	2.060376	0.206851	0.500016
N135	N	1.645285	-0.332975	0.000031
N136	N	2.145285	0.167025	0.500031
C137	C	1.550844	-0.690514	-0.000007
C138	C	2.050844	-0.190514	0.499993
N139	N	1.635748	-0.730346	-0.000006
N140	N	2.135748	-0.230346	0.499994
C141	C	1.178012	0.216459	0.191343
C142	C	1.678012	0.716459	0.691343
N143	N	1.113948	0.258817	0.155496
N144	N	1.613948	0.758817	0.655496
