data_functionalizedCrystal
_audit_creation_method	'MofGen! by Chris Wilmer'
_symmetry_space_group_name_H-M	'P1'
_symmetry_Int_Tables_number	1
_symmetry_cell_setting	triclinic
loop_
_symmetry_equiv_pos_as_xyz
  x,y,z
_cell_length_a	18.215407
_cell_length_b	13.031981
_cell_length_c	18.215399
_cell_angle_alpha	97.211043
_cell_angle_beta	90.017368
_cell_angle_gamma	97.189335
loop_
_atom_site_label
_atom_site_type_symbol
_atom_site_fract_x
_atom_site_fract_y
_atom_site_fract_z
Zn1	Zn	1.087911	-0.416191	0.378823
Zn2	Zn	1.587911	0.083809	0.878823
Zn3	Zn	1.072212	-0.590982	0.240115
Zn4	Zn	1.572212	-0.090982	0.740115
Zn5	Zn	0.964841	-0.416216	0.255774
Zn6	Zn	1.464841	0.083784	0.755774
Zn7	Zn	0.949208	-0.590914	0.363151
Zn8	Zn	1.449208	-0.090914	0.863151
O9	O	1.018543	-0.503576	0.309466
O10	O	1.518543	-0.003576	0.809466
O11	O	1.188811	-0.439395	0.360429
O12	O	1.688811	0.060605	0.860429
O13	O	1.057942	-0.567837	0.139204
O14	O	1.557942	-0.067837	0.639204
O15	O	0.994279	-0.269950	0.285208
O16	O	1.494279	0.230050	0.785208
O17	O	1.177277	-0.567813	0.258521
O18	O	1.677277	-0.067813	0.758521
O19	O	1.084698	-0.269931	0.375612
O20	O	1.584698	0.230069	0.875612
O21	O	0.979057	-0.439437	0.150709
O22	O	1.479057	0.060563	0.650709
O23	O	0.859785	-0.439372	0.270012
O24	O	1.359785	0.060628	0.770012
O25	O	0.967635	-0.567698	0.468218
O26	O	1.467635	-0.067698	0.968218
O27	O	0.848299	-0.567722	0.348902
O28	O	1.348299	-0.067722	0.848902
O29	O	1.069539	-0.439329	0.479732
O30	O	1.569539	0.060671	0.979732
O31	O	1.042783	-0.737235	0.243324
O32	O	1.542783	-0.237235	0.743324
O33	O	0.952413	-0.737186	0.333718
O34	O	1.452413	-0.237186	0.833718
C35	C	0.827340	-0.503543	0.309456
C36	C	1.327340	-0.003543	0.809456
C37	C	0.745540	-0.503555	0.309467
C38	C	1.245540	-0.003555	0.809467
C39	C	0.563338	-0.436825	0.362592
C40	C	1.063338	0.063175	0.862592
C41	C	0.486479	-0.436834	0.362594
C42	C	0.986479	0.063166	0.862594
C43	C	0.474498	-0.570355	0.256350
C44	C	0.974498	-0.070355	0.756350
C45	C	0.551356	-0.570340	0.256345
C46	C	1.051356	-0.070340	0.756345
C47	C	0.595774	-0.503577	0.309471
C48	C	1.095774	-0.003577	0.809471
C49	C	0.442056	-0.503601	0.309477
C50	C	0.942056	-0.003601	0.809477
C51	C	0.358722	-0.503611	0.309478
C52	C	0.858722	-0.003611	0.809478
C53	C	0.679114	-0.503565	0.309469
C54	C	1.179114	-0.003565	0.809469
C55	C	0.994218	-0.775135	0.285138
C56	C	1.494218	-0.275135	0.785138
C57	C	0.983879	-0.891309	0.274755
C58	C	1.483879	-0.391309	0.774755
C59	C	1.023978	-0.943011	0.314900
C60	C	1.523978	-0.443011	0.814900
C61	C	1.013293	-1.063083	0.304169
C62	C	1.513293	-0.563083	0.804169
C63	C	1.210493	-0.503609	0.309476
C64	C	1.710493	-0.003609	0.809476
C65	C	1.292291	-0.503623	0.309481
C66	C	1.792291	-0.003623	0.809481
C67	C	1.018594	-0.503503	0.501425
C68	C	1.518594	-0.003503	1.001425
C69	C	1.018616	-0.503473	0.583227
C70	C	1.518616	-0.003473	1.083227
C71	C	1.042983	-0.230956	0.333905
C72	C	1.542983	0.269044	0.833905
C73	C	1.053398	-0.114782	0.344320
C74	C	1.553398	0.385218	0.844320
C75	C	1.018541	-0.503572	0.118260
C76	C	1.518541	-0.003572	0.618260
C77	C	1.018688	-0.503308	0.036485
C78	C	1.518688	-0.003308	0.536485
C79	C	1.071700	-0.436569	0.777423
C80	C	1.571700	0.063431	1.277423
C81	C	1.071712	-0.436538	0.854285
C82	C	1.571712	0.063462	1.354285
C83	C	0.965599	-0.570215	0.842283
C84	C	1.465599	-0.070215	1.342283
C85	C	0.965585	-0.570240	0.765424
C86	C	1.465585	-0.070240	1.265424
C87	C	1.018639	-0.503418	0.732995
C88	C	1.518639	-0.003418	1.232995
C89	C	1.018665	-0.503363	0.886717
C90	C	1.518665	-0.003363	1.386717
C91	C	1.018677	-0.503331	0.970053
C92	C	1.518677	-0.003331	1.470053
C93	C	1.018627	-0.503449	0.649654
C94	C	1.518627	-0.003449	1.149654
H95	H	0.599502	-0.382459	0.405848
H96	H	1.099502	0.117541	0.905848
H97	H	0.460073	-0.382477	0.405850
H98	H	0.960073	0.117523	0.905850
H99	H	0.922371	-0.624675	0.729249
H100	H	1.422371	-0.124675	1.229249
H101	H	0.922405	-0.624621	0.868696
H102	H	1.422405	-0.124621	1.368696
C103	C	1.110468	-1.054501	0.401488
C104	C	1.610468	-0.554501	0.901488
N105	N	1.153453	-1.009097	0.444546
N106	N	1.653453	-0.509097	0.944546
C107	C	0.425630	-0.643798	0.197919
C108	C	0.925630	-0.143798	0.697919
N109	N	0.388824	-0.699119	0.153909
N110	N	0.888824	-0.199119	0.653909
H111	H	0.941635	-0.935938	0.232445
H112	H	1.441635	-0.435938	0.732445
C113	C	1.130056	-0.363054	0.741756
C114	C	1.630056	0.136946	1.241756
N115	N	1.174010	-0.307676	0.714894
N116	N	1.674010	0.192324	1.214894
H117	H	0.971047	-1.107708	0.261856
H118	H	1.471047	-0.607708	0.761856
H119	H	0.577766	-0.624698	0.213083
H120	H	1.077766	-0.124698	0.713083
C121	C	1.081046	-0.882724	0.372064
C122	C	1.581046	-0.382724	0.872064
N123	N	1.124031	-0.837317	0.415121
N124	N	1.624031	-0.337317	0.915121
H125	H	1.114918	-0.382101	0.890455
H126	H	1.614918	0.117899	1.390455
