data_functionalizedCrystal
_audit_creation_method	'MofGen! by Chris Wilmer'
_symmetry_space_group_name_H-M	'P1'
_symmetry_Int_Tables_number	1
_symmetry_cell_setting	triclinic
loop_
_symmetry_equiv_pos_as_xyz
  x,y,z
_cell_length_a	14.908571
_cell_length_b	16.120484
_cell_length_c	14.908308
_cell_angle_alpha	84.013929
_cell_angle_beta	89.824947
_cell_angle_gamma	89.787312
loop_
_atom_site_label
_atom_site_type_symbol
_atom_site_fract_x
_atom_site_fract_y
_atom_site_fract_z
Zn1	Zn	1.320097	-0.434923	0.609960
Zn2	Zn	1.653431	-0.101589	0.943294
Zn3	Zn	1.986764	0.231744	1.276627
Zn4	Zn	1.321040	-0.566744	0.466383
Zn5	Zn	1.654374	-0.233411	0.799717
Zn6	Zn	1.987707	0.099922	1.133050
Zn7	Zn	1.179340	-0.418915	0.450134
Zn8	Zn	1.512673	-0.085582	0.783468
Zn9	Zn	1.846007	0.247752	1.116801
Zn10	Zn	1.162126	-0.565754	0.607984
Zn11	Zn	1.495459	-0.232421	0.941317
Zn12	Zn	1.828792	0.100913	1.274651
O13	O	1.245651	-0.496584	0.533615
O14	O	1.578984	-0.163251	0.866949
O15	O	1.912318	0.170083	1.200282
O16	O	1.445636	-0.459523	0.598542
O17	O	1.778970	-0.126189	0.931875
O18	O	2.112303	0.207144	1.265208
O19	O	1.309843	-0.540849	0.338080
O20	O	1.643176	-0.207516	0.671413
O21	O	1.976509	0.125817	1.004746
O22	O	1.204822	-0.304418	0.465363
O23	O	1.538155	0.028915	0.798696
O24	O	1.871488	0.362249	1.132029
O25	O	1.446329	-0.556371	0.493056
O26	O	1.779663	-0.223038	0.826390
O27	O	2.112996	0.110295	1.159723
O28	O	1.308235	-0.316179	0.582786
O29	O	1.641569	0.017155	0.916119
O30	O	1.974902	0.350488	1.249453
O31	O	1.205736	-0.432240	0.326142
O32	O	1.539069	-0.098907	0.659475
O33	O	1.872403	0.234427	0.992808
O34	O	1.051643	-0.431280	0.463446
O35	O	1.384976	-0.097947	0.796780
O36	O	1.718309	0.235387	1.130113
O37	O	1.175482	-0.554684	0.734394
O38	O	1.508815	-0.221350	1.067727
O39	O	1.842149	0.111983	1.401061
O40	O	1.038995	-0.539162	0.579418
O41	O	1.372329	-0.205829	0.912751
O42	O	1.705662	0.127505	1.246084
O43	O	1.291543	-0.458562	0.735846
O44	O	1.624876	-0.125229	1.069179
O45	O	1.958210	0.208104	1.402513
O46	O	1.293150	-0.683233	0.491140
O47	O	1.626484	-0.349900	0.824473
O48	O	1.959817	-0.016567	1.157807
O49	O	1.176396	-0.682506	0.595173
O50	O	1.509730	-0.349173	0.928507
O51	O	1.843063	-0.015839	1.261840
C52	C	1.012801	-0.483377	0.519455
C53	C	1.346134	-0.150044	0.852788
C54	C	1.679467	0.183290	1.186121
C55	C	0.913184	-0.477748	0.513419
C56	C	1.246517	-0.144415	0.846752
C57	C	1.579850	0.188918	1.180086
C58	C	1.233031	-0.713110	0.544726
C59	C	1.566364	-0.379777	0.878060
C60	C	1.899697	-0.046444	1.211393
C61	C	1.227712	-0.805747	0.549515
C62	C	1.561045	-0.472414	0.882848
C63	C	1.894379	-0.139081	1.216182
C64	C	0.712871	-0.579666	0.622692
C65	C	1.046205	-0.246333	0.956026
C66	C	1.379538	0.087000	1.289359
C67	C	0.619272	-0.574380	0.617025
C68	C	0.952605	-0.241047	0.950358
C69	C	1.285939	0.092286	1.283691
C70	C	0.632384	-0.461887	0.496421
C71	C	0.965717	-0.128553	0.829754
C72	C	1.299051	0.204780	1.163088
C73	C	0.725983	-0.467173	0.502089
C74	C	1.059317	-0.133839	0.835422
C75	C	1.392650	0.199494	1.168755
C76	C	0.766223	-0.526065	0.565226
C77	C	1.099557	-0.192732	0.898559
C78	C	1.432890	0.140601	1.231892
C79	C	0.859824	-0.531355	0.570888
C80	C	1.193158	-0.198021	0.904222
C81	C	1.526491	0.135312	1.237555
C82	C	0.872935	-0.418858	0.450290
C83	C	1.206268	-0.085525	0.783623
C84	C	1.539601	0.247809	1.116956
C85	C	0.779335	-0.413572	0.444622
C86	C	1.112669	-0.080238	0.777955
C87	C	1.446002	0.253095	1.111289
C88	C	1.218005	-0.975358	0.558276
C89	C	1.551339	-0.642024	0.891610
C90	C	1.884672	-0.308691	1.224943
C91	C	1.273456	-1.016980	0.508979
C92	C	1.606789	-0.683646	0.842312
C93	C	1.940123	-0.350313	1.175646
C94	C	1.268055	-1.111356	0.513854
C95	C	1.601389	-0.778023	0.847187
C96	C	1.934722	-0.444690	1.180521
C97	C	1.223405	-0.880972	0.553403
C98	C	1.556738	-0.547639	0.886736
C99	C	1.890072	-0.214305	1.220069
C100	C	1.479410	-0.509843	0.547832
C101	C	1.812744	-0.176510	0.881165
C102	C	2.146077	0.156824	1.214499
C103	C	1.579025	-0.515493	0.553890
C104	C	1.912358	-0.182160	0.887224
C105	C	2.245692	0.151173	1.220557
C106	C	1.231487	-0.508298	0.768743
C107	C	1.564820	-0.174965	1.102077
C108	C	1.898154	0.158368	1.435410
C109	C	1.225451	-0.513290	0.868941
C110	C	1.558785	-0.179957	1.202274
C111	C	1.892118	0.153376	1.535608
C112	C	1.258344	-0.279214	0.522482
C113	C	1.591677	0.054119	0.855815
C114	C	1.925010	0.387452	1.189149
C115	C	1.263752	-0.186584	0.517738
C116	C	1.597086	0.146749	0.851071
C117	C	1.930419	0.480082	1.184404
C118	C	1.259815	-0.484858	0.299402
C119	C	1.593148	-0.151525	0.632735
C120	C	1.926481	0.181809	0.966069
C121	C	1.266038	-0.479641	0.199204
C122	C	1.599371	-0.146308	0.532537
C123	C	1.932704	0.187026	0.865870
C124	C	1.334963	-0.422560	1.058735
C125	C	1.668296	-0.089227	1.392069
C126	C	2.001629	0.244107	1.725402
C127	C	1.329294	-0.427248	1.152880
C128	C	1.662628	-0.093914	1.486213
C129	C	1.995961	0.239419	1.819547
C130	C	1.208443	-0.527348	1.151376
C131	C	1.541776	-0.194015	1.484709
C132	C	1.875110	0.139318	1.818043
C133	C	1.214111	-0.522661	1.057231
C134	C	1.547445	-0.189327	1.390565
C135	C	1.880778	0.144006	1.723898
C136	C	1.277374	-0.470266	1.010914
C137	C	1.610707	-0.136932	1.344248
C138	C	1.944041	0.196401	1.677581
C139	C	1.283046	-0.465583	0.916769
C140	C	1.616379	-0.132250	1.250102
C141	C	1.949713	0.201084	1.583435
C142	C	1.162191	-0.565679	0.915266
C143	C	1.495524	-0.232345	1.248599
C144	C	1.828858	0.100988	1.581933
C145	C	1.156523	-0.570366	1.009410
C146	C	1.489856	-0.237033	1.342744
C147	C	1.823189	0.096300	1.676077
H148	H	0.892586	-0.579309	0.622296
H149	H	1.225920	-0.245976	0.955629
H150	H	1.559253	0.087357	1.288963
Br151	Br	0.724715	-0.333645	0.358947
Br152	Br	1.058049	-0.000312	0.692280
Br153	Br	1.391382	0.333021	1.025613
H154	H	1.324985	-0.981734	0.463113
H155	H	1.658318	-0.648400	0.796446
H156	H	1.991651	-0.315067	1.129779
Br157	Br	1.122585	-0.598441	1.214249
Br158	Br	1.455919	-0.265107	1.547582
Br159	Br	1.789252	0.068226	1.880916
H160	H	0.745635	-0.627623	0.674096
H161	H	1.078969	-0.294290	1.007429
H162	H	1.412302	0.039044	1.340763
Br163	Br	0.546867	-0.647123	0.695022
Br164	Br	0.880200	-0.313790	1.028356
Br165	Br	1.213534	0.019543	1.361689
H166	H	1.166480	-1.010601	0.604138
H167	H	1.499813	-0.677268	0.937471
H168	H	1.833147	-0.343934	1.270805
H169	H	1.334559	-0.422921	0.879059
H170	H	1.667892	-0.089588	1.212392
H171	H	2.001225	0.243745	1.545726
Br172	Br	1.420828	-0.351468	0.995874
Br173	Br	1.754161	-0.018135	1.329207
Br174	Br	2.087495	0.315199	1.662540
Br175	Br	1.407450	-0.362498	1.217778
Br176	Br	1.740784	-0.029165	1.551111
Br177	Br	2.074117	0.304168	1.884444
H178	H	0.916384	-0.375214	0.403494
H179	H	1.249718	-0.041880	0.736827
H180	H	1.583051	0.291453	1.070161
H181	H	1.105015	-0.613023	1.047134
H182	H	1.438348	-0.279690	1.380468
H183	H	1.771681	0.053644	1.713801
Br184	Br	0.577756	-0.381953	0.410759
Br185	Br	0.911090	-0.048619	0.744092
Br186	Br	1.244423	0.284714	1.077426
H187	H	1.115300	-0.604527	0.876320
H188	H	1.448634	-0.271193	1.209654
H189	H	1.781967	0.062140	1.542987
