data_functionalizedCrystal
_audit_creation_method	'MofGen! by Chris Wilmer'
_symmetry_space_group_name_H-M	'P1'
_symmetry_Int_Tables_number	1
_symmetry_cell_setting	triclinic
loop_
_symmetry_equiv_pos_as_xyz
  x,y,z
_cell_length_a	19.851628
_cell_length_b	21.606444
_cell_length_c	21.606444
_cell_angle_alpha	119.996993
_cell_angle_beta	89.996746
_cell_angle_gamma	59.997133
loop_
_atom_site_label
_atom_site_type_symbol
_atom_site_fract_x
_atom_site_fract_y
_atom_site_fract_z
Zr1	Zr	0.648972	0.677374	0.081125
O2	O	0.541406	0.806500	0.179955
O3	O	0.681947	0.548253	0.050831
O4	O	0.681950	0.677366	0.179944
O5	O	0.541401	0.677391	-0.051007
O6	O	0.792811	0.677354	0.179931
O7	O	0.541404	0.677387	0.050842
O8	O	0.792807	0.446395	-0.051028
O9	O	0.541405	0.908351	0.179952
O10	O	0.778745	0.601352	0.037898
O11	O	0.696007	0.601364	-0.038102
O12	O	0.696010	0.753378	0.113912
O13	O	0.613273	0.753390	0.037912
Zr14	Zr	0.825779	0.677362	-0.081333
Zr15	Zr	0.825784	0.677355	0.081105
Zr16	Zr	0.648967	0.677381	-0.081314
Zr17	Zr	0.648970	0.839814	0.081120
Zr18	Zr	0.825781	0.514922	-0.081328
O19	O	0.792803	0.806483	-0.051040
O20	O	0.792810	0.806473	0.179927
O21	O	0.541400	0.806510	-0.051011
O22	O	0.933344	0.548236	-0.180164
O23	O	0.933351	0.548226	0.050803
O24	O	0.681940	0.548263	-0.180136
O25	O	0.933349	0.677345	0.050799
O26	O	0.792801	0.677370	-0.180152
O27	O	0.681939	0.677382	-0.180140
O28	O	0.933346	0.677349	-0.051051
O29	O	0.681947	0.908335	0.179936
O30	O	0.792803	0.446401	-0.180145
O31	O	0.933345	0.446385	-0.180161
O32	O	0.933349	0.446380	-0.051044
O33	O	0.541401	0.908356	0.050835
O34	O	0.681943	0.908341	0.050819
O35	O	0.778740	0.601358	-0.114120
O36	O	0.861477	0.601346	-0.038120
O37	O	0.778743	0.753372	0.037893
O38	O	0.696006	0.753384	-0.038107
C39	C	0.737378	0.474180	-0.000098
C40	C	0.737378	0.405220	-0.000095
C41	C	0.780564	0.372816	0.039577
C42	C	0.780567	0.308016	0.039572
C43	C	0.737379	0.275625	-0.000102
C44	C	0.694191	0.308032	-0.039779
C45	C	0.694194	0.372826	-0.039778
C46	C	0.694182	0.046723	-0.039785
C47	C	0.694181	-0.018074	-0.039782
C48	C	0.780555	-0.018088	0.039564
C49	C	0.780558	0.046707	0.039565
C50	C	0.737374	0.079104	-0.000115
C51	C	0.737373	0.149367	-0.000110
C52	C	0.737375	0.205369	-0.000103
C53	C	0.516211	0.677392	-0.000080
C54	C	0.441149	0.677400	-0.000071
C55	C	0.214694	0.760271	0.041349
C56	C	0.192334	0.718835	0.071383
C57	C	0.303743	0.677377	-0.000093
C58	C	0.192362	0.718820	-0.030113
C59	C	0.171011	0.677362	-0.000114
C60	C	0.282371	0.635940	0.029983
C61	C	0.282397	0.635937	-0.071553
C62	C	0.260090	0.594439	-0.041537
C63	C	0.380205	0.677389	-0.000079
C64	C	0.094554	0.677344	-0.000126
C65	C	0.958540	0.677344	-0.000129
C66	C	1.033601	0.677336	-0.000137
C67	C	0.737381	0.677359	0.203082
C68	C	0.737383	0.677356	0.272041
C69	C	0.737373	0.880556	-0.000111
C70	C	0.737372	0.949516	-0.000113
C71	C	0.694188	0.756735	0.735029
C72	C	0.694186	0.756733	0.670232
C73	C	0.737373	0.677374	0.598156
C74	C	0.780559	0.598012	0.590879
C75	C	0.780556	0.598016	0.655675
C76	C	0.780571	0.597997	0.329561
C77	C	0.780573	0.598000	0.264763
C78	C	0.694201	0.756714	0.344117
C79	C	0.694198	0.756717	0.408914
C80	C	0.737380	0.677357	0.401631
C81	C	0.737381	0.677360	0.471892
C82	C	0.737378	0.677369	0.527896
C83	C	0.737370	0.677377	0.796710
C84	C	0.737372	0.677380	0.727750
C85	C	0.958542	0.474156	-0.000122
C86	C	1.033604	0.405188	-0.000129
C87	C	0.737371	0.474189	-0.203284
C88	C	0.737370	0.405232	-0.272241
C89	C	0.958536	0.474165	-0.203308
C90	C	1.033596	0.405200	-0.272274
C91	C	0.516214	0.880571	0.203100
C92	C	0.441154	0.949536	0.272065
C93	C	0.516208	0.880580	-0.000086
C94	C	0.441146	0.949548	-0.000080
C95	C	0.737379	0.880547	0.203075
C96	C	0.737380	0.949504	0.272032
C97	C	1.025668	0.372803	0.039556
C98	C	1.096190	0.308009	0.039566
C99	C	1.174647	0.275597	-0.000115
C100	C	1.182581	0.307988	-0.039801
C101	C	1.112060	0.372786	-0.039805
C102	C	0.780555	0.372846	-0.344312
C103	C	0.780551	0.308062	-0.409110
C104	C	0.737366	0.275661	-0.401837
C105	C	0.694176	0.308054	-0.329758
C106	C	0.694176	0.372840	-0.264961
C107	C	1.112040	0.372806	-0.264990
C108	C	1.182574	0.308015	-0.329784
C109	C	1.174661	0.275614	-0.401862
C110	C	1.096209	0.308014	-0.409145
C111	C	1.025677	0.372808	-0.344351
C112	C	0.362710	0.981937	0.264781
C113	C	0.292177	1.046749	0.329575
C114	C	0.300089	1.079153	0.401653
C115	C	0.378542	1.046750	0.408936
C116	C	0.449074	0.981944	0.344142
C117	C	0.449082	0.981940	-0.039758
C118	C	0.378560	1.046752	-0.039750
C119	C	0.300103	1.079166	-0.000067
C120	C	0.292169	1.046772	0.039616
C121	C	0.362690	0.981965	0.039611
C122	C	0.780574	0.981885	0.264734
C123	C	0.780591	1.046669	0.329521
C124	C	0.737410	1.079076	0.401604
C125	C	0.694215	1.046689	0.408901
C126	C	0.694203	0.981902	0.344115
H127	H	0.815722	0.073080	0.071874
H128	H	0.385036	1.073117	-0.072067
H129	H	0.659037	0.821334	0.350041
H130	H	0.659022	0.821352	0.676166
F131	F	0.648226	0.841201	0.811735
F132	F	0.648255	1.081193	0.485624
H133	H	0.659010	-0.044445	-0.072091
F134	F	0.648235	0.841181	0.485621
F135	F	0.648221	0.947453	0.351894
H136	H	1.246470	0.281589	-0.072107
F137	F	1.087729	0.273544	0.081804
H138	H	0.321068	0.600929	0.055433
F139	F	0.826528	0.407287	0.081808
H140	H	1.232063	0.222834	-0.000105
F141	F	0.826519	-0.052576	0.081793
H142	H	0.737373	0.222908	-0.454605
F143	F	0.826517	0.273546	0.081810
F144	F	0.648219	0.273561	-0.322029
F145	F	0.942175	0.407288	0.081795
F146	F	0.284348	0.502774	-0.087310
F147	F	0.826539	0.513531	0.188051
H148	H	0.242687	1.131936	-0.000070
F149	F	0.648214	0.407297	-0.188260
H150	H	1.232100	0.222854	-0.454615
F151	F	0.141607	0.764623	0.150362
F152	F	0.333123	0.590186	-0.150516
H153	H	0.815735	0.533377	0.323621
H154	H	0.815764	1.073031	0.323565
F155	F	0.826517	0.513553	0.514169
H156	H	0.228280	1.073173	0.071924
H157	H	0.196243	0.830362	0.076445
F158	F	0.648225	0.081192	-0.082019
H159	H	0.153560	0.753872	-0.055494
F160	F	0.826516	0.513555	0.647926
F161	F	0.225015	1.148126	0.470606
H162	H	1.118533	0.399145	-0.072126
H163	H	0.659031	0.281650	-0.072086
H164	H	0.356217	0.955594	0.071920
F165	F	0.826525	0.407315	-0.352070
H166	H	0.815724	0.281696	-0.467793
H167	H	1.118499	0.399178	-0.206306
F168	F	0.826537	0.947406	0.188024
F169	F	0.648231	0.407311	-0.082004
F170	F	0.354270	0.947460	0.188076
H171	H	0.384975	1.073142	0.467629
F172	F	1.266061	0.273542	-0.322017
H173	H	1.089778	0.281623	-0.467839
F174	F	0.737428	1.148031	0.470549
H175	H	0.961807	0.399174	-0.350293
F176	F	0.208690	1.081221	0.321808
F177	F	0.532558	0.947462	0.351907
F178	F	0.532575	0.947456	-0.081995
