data_functionalizedCrystal
_audit_creation_method	'MofGen! by Chris Wilmer'
_symmetry_space_group_name_H-M	'P1'
_symmetry_Int_Tables_number	1
_symmetry_cell_setting	triclinic
loop_
_symmetry_equiv_pos_as_xyz
  x,y,z
_cell_length_a	13.897448
_cell_length_b	19.805407
_cell_length_c	19.805399
_cell_angle_alpha	90.021064
_cell_angle_beta	89.974981
_cell_angle_gamma	89.983323
loop_
_atom_site_label
_atom_site_type_symbol
_atom_site_fract_x
_atom_site_fract_y
_atom_site_fract_z
Zn1	Zn	-0.384063	-1.034777	-0.382759
Zn2	Zn	-0.545369	-1.034709	-0.269575
Zn3	Zn	-0.384087	-0.921591	-0.269580
Zn4	Zn	-0.545315	-0.921572	-0.382719
O5	O	-0.464709	-0.978162	-0.326158
O6	O	-0.405474	-1.129484	-0.367759
O7	O	-0.524007	-1.019683	-0.174859
O8	O	-0.249102	-0.936642	-0.284612
O9	O	-0.523984	-1.129434	-0.284604
O10	O	-0.249085	-1.019799	-0.367764
O11	O	-0.405514	-0.936576	-0.174863
O12	O	-0.405462	-0.826872	-0.284574
O13	O	-0.523892	-0.936609	-0.477441
O14	O	-0.523915	-0.826858	-0.367697
O15	O	-0.405421	-1.019780	-0.477470
O16	O	-0.680344	-1.019664	-0.284566
O17	O	-0.680304	-0.936543	-0.367692
C18	C	-0.464686	-0.802306	-0.326132
C19	C	-0.464699	-0.727074	-0.326137
C20	C	-0.715323	-0.978113	-0.326139
C21	C	-0.822537	-0.978154	-0.326153
C22	C	-0.526470	-0.691740	-0.369348
C23	C	-0.526470	-0.621052	-0.369355
C24	C	-0.464703	-0.585699	-0.326148
C25	C	-0.402926	-0.621037	-0.282935
C26	C	-0.402922	-0.691725	-0.282931
C27	C	-0.402940	-0.335964	-0.282950
C28	C	-0.402951	-0.265272	-0.282956
C29	C	-0.526488	-0.265292	-0.369374
C30	C	-0.526484	-0.335979	-0.369370
C31	C	-0.464703	-0.371311	-0.326160
C32	C	-0.464703	-0.447960	-0.326153
C33	C	-0.464708	-0.509051	-0.326151
C34	C	-1.018832	-0.978225	-0.326196
C35	C	-0.909600	-0.978183	-0.326174
C36	C	-0.213116	-0.978230	-0.326193
C37	C	-0.105902	-0.978259	-0.326208
C38	C	-0.464648	-0.978200	-0.502701
C39	C	-0.464622	-0.978216	-0.577933
C40	C	-0.464726	-0.154705	-0.326179
C41	C	-0.464717	-0.229937	-0.326171
C42	C	-0.402931	-1.021524	-0.613294
C43	C	-0.402903	-1.021531	-0.683982
C44	C	-0.464572	-0.978233	-0.719309
C45	C	-0.526265	-0.934920	-0.683944
C46	C	-0.526288	-0.934910	-0.613256
C47	C	-0.526175	-0.934958	-0.969017
C48	C	-0.526150	-0.934973	-1.039709
C49	C	-0.402791	-1.021579	-1.039743
C50	C	-0.402813	-1.021570	-0.969055
C51	C	-0.464503	-0.978255	-0.933696
C52	C	-0.464531	-0.978247	-0.857048
C53	C	-0.464549	-0.978244	-0.795956
C54	C	-0.464700	-0.978163	-0.150302
C55	C	-0.464454	-0.978278	-0.075071
H56	H	-0.576771	-0.720520	-0.404530
H57	H	-0.576421	-0.899699	-0.940236
O58	O	-0.342999	-1.063531	-0.718435
C59	C	-0.356206	-1.054263	-0.788401
H60	H	-0.387797	-1.002023	-0.798036
H61	H	-0.283940	-1.058866	-0.815271
H62	H	-0.407560	-1.094403	-0.808471
H63	H	-0.352630	-0.592247	-0.247758
H64	H	-0.576473	-0.899664	-0.712712
H65	H	-0.576513	-0.899638	-0.584467
H66	H	-0.352647	-0.236489	-0.247771
O67	O	-0.342935	-1.063607	-0.579085
C68	C	-0.288495	-1.101844	-0.625456
H69	H	-0.285137	-1.074127	-0.675838
H70	H	-0.212503	-1.109081	-0.605047
H71	H	-0.323822	-1.153241	-0.632981
H72	H	-0.576771	-0.592286	-0.404542
H73	H	-0.352600	-1.056830	-0.940296
H74	H	-0.352641	-0.364723	-0.247761
O75	O	-0.586160	-0.893005	-1.074056
C76	C	-0.648441	-0.931529	-1.114952
H77	H	-0.654418	-0.984831	-1.093657
H78	H	-0.722668	-0.907026	-1.115739
H79	H	-0.618602	-0.933882	-1.168530
O80	O	-0.586381	-0.370289	-0.411440
C81	C	-0.565439	-0.353034	-0.478925
H82	H	-0.488388	-0.333616	-0.482435
H83	H	-0.573804	-0.399533	-0.512352
H84	H	-0.617190	-0.312002	-0.496557
O85	O	-0.586406	-0.230864	-0.411334
C86	C	-0.573184	-0.160892	-0.402066
H87	H	-0.498702	-0.151239	-0.379993
H88	H	-0.579827	-0.134051	-0.452760
H89	H	-0.630331	-0.140806	-0.365952
O90	O	-0.342892	-0.725945	-0.240888
C91	C	-0.288361	-0.679586	-0.202763
H92	H	-0.327868	-0.629189	-0.200375
H93	H	-0.277975	-0.699989	-0.149445
H94	H	-0.215148	-0.672092	-0.227637
H95	H	-0.352557	-1.056846	-1.068541
