data_functionalizedCrystal
_audit_creation_method	'MofGen! by Chris Wilmer'
_symmetry_space_group_name_H-M	'P1'
_symmetry_Int_Tables_number	1
_symmetry_cell_setting	triclinic
loop_
_symmetry_equiv_pos_as_xyz
  x,y,z
_cell_length_a	10.686285
_cell_length_b	12.759401
_cell_length_c	12.759393
_cell_angle_alpha	90.019837
_cell_angle_beta	85.601950
_cell_angle_gamma	94.366763
loop_
_atom_site_label
_atom_site_type_symbol
_atom_site_fract_x
_atom_site_fract_y
_atom_site_fract_z
Zn1	Zn	-0.502223	-1.638389	-0.562006
Zn2	Zn	-0.002223	-1.138389	-0.062006
Zn3	Zn	-0.713267	-1.651787	-0.372874
Zn4	Zn	-0.213267	-1.151787	0.127126
Zn5	Zn	-0.502295	-1.462695	-0.386337
Zn6	Zn	-0.002295	-0.962695	0.113663
Zn7	Zn	-0.713175	-1.476177	-0.548517
Zn8	Zn	-0.213175	-0.976177	-0.048517
O9	O	-0.607740	-1.557262	-0.467434
O10	O	-0.107740	-1.057262	0.032566
O11	O	-0.530227	-1.787188	-0.536929
O12	O	-0.030227	-1.287188	-0.036929
O13	O	-0.685349	-1.626668	-0.227634
O14	O	-0.185349	-1.126668	0.272366
O15	O	-0.325709	-1.474753	-0.420920
O16	O	0.174291	-0.974753	0.079080
O17	O	-0.685280	-1.797031	-0.397974
O18	O	-0.185280	-1.297031	0.102026
O19	O	-0.325656	-1.603834	-0.549983
O20	O	0.174344	-1.103834	-0.049983
O21	O	-0.530349	-1.487744	-0.237526
O22	O	-0.030349	-0.987744	0.262474
O23	O	-0.530259	-1.317462	-0.407840
O24	O	-0.030259	-0.817462	0.092160
O25	O	-0.685123	-1.497730	-0.697332
O26	O	-0.185123	-0.997730	-0.197332
O27	O	-0.685192	-1.327367	-0.526992
O28	O	-0.185192	-0.827367	-0.026992
O29	O	-0.530138	-1.616906	-0.707243
O30	O	-0.030138	-1.116906	-0.207243
O31	O	-0.889831	-1.639740	-0.384893
O32	O	-0.389831	-1.139740	0.115107
O33	O	-0.889763	-1.510721	-0.513938
O34	O	-0.389763	-1.010721	-0.013938
C35	C	-0.607724	-1.284294	-0.467414
C36	C	-0.107724	-0.784294	0.032586
C37	C	-0.607748	-1.167518	-0.467428
C38	C	-0.107748	-0.667518	0.032572
C39	C	-0.935581	-1.578176	-0.446514
C40	C	-0.435581	-1.078176	0.053486
C41	C	-1.075833	-1.587219	-0.437599
C42	C	-0.575833	-1.087219	0.062401
C43	C	-0.607612	-1.557327	-0.741475
C44	C	-0.107612	-1.057327	-0.241475
C45	C	-0.607558	-1.557355	-0.858255
C46	C	-0.107558	-1.057355	-0.358255
C47	C	-0.278618	-1.536295	-0.488458
C48	C	0.221382	-1.036295	0.011542
C49	C	-0.138366	-1.527360	-0.497418
C50	C	0.361634	-1.027360	0.002582
C51	C	-0.607756	-1.831296	-0.467454
C52	C	-0.107756	-1.331296	0.032546
C53	C	-0.607763	-1.948073	-0.467463
C54	C	-0.107763	-1.448073	0.032537
C55	C	-0.688544	-1.117849	-0.529358
C56	C	-0.188544	-0.617849	-0.029358
C57	C	-0.688549	-1.008125	-0.529378
C58	C	-0.188549	-0.508125	-0.029378
C59	C	-0.526958	-0.997750	-0.405531
C60	C	-0.026958	-0.497750	0.094469
C61	C	-0.526948	-1.107471	-0.405517
C62	C	-0.026948	-0.607471	0.094483
C63	C	-0.526834	-1.485040	-0.918268
C64	C	-0.026834	-0.985040	-0.418268
C65	C	-0.526796	-1.485062	-1.027995
C66	C	-0.026796	-0.985062	-0.527995
C67	C	-0.688207	-1.629723	-1.017686
C68	C	-0.188207	-1.129723	-0.517686
C69	C	-0.688251	-1.629695	-0.907961
C70	C	-0.188251	-1.129695	-0.407961
C71	C	-0.607776	-1.557252	-0.194464
C72	C	-0.107776	-1.057252	0.305536
C73	C	-0.607475	-1.557405	-0.077707
C74	C	-0.107475	-1.057405	0.422293
H75	H	-1.084607	-1.469195	-0.555452
H76	H	-0.584607	-0.969195	-0.055452
Cl77	Cl	-0.790124	-0.945689	-0.607238
Cl78	Cl	-0.290124	-0.445689	-0.107238
H79	H	-0.461146	-1.147912	-0.355087
H80	H	0.038854	-0.647912	0.144913
H81	H	-1.129600	-1.645381	-0.379554
H82	H	-0.629600	-1.145381	0.120446
H83	H	-0.754334	-1.166737	-0.579772
H84	H	-0.254334	-0.666737	-0.079772
Cl85	Cl	-0.789746	-1.720609	-0.832510
Cl86	Cl	-0.289746	-1.220609	-0.332510
Cl87	Cl	-0.425389	-0.922255	-0.327702
Cl88	Cl	0.074611	-0.422255	0.172298
H89	H	-0.461129	-1.426136	-0.877802
H90	H	0.038871	-0.926136	-0.377802
H91	H	-0.461064	-1.426175	-1.076853
H92	H	0.038936	-0.926175	-0.576853
Cl93	Cl	-0.789641	-1.720662	-1.080181
Cl94	Cl	-0.289641	-1.220662	-0.580181
