data_functionalizedCrystal
_audit_creation_method	'MofGen! by Chris Wilmer'
_symmetry_space_group_name_H-M	'P1'
_symmetry_Int_Tables_number	1
_symmetry_cell_setting	triclinic
loop_
_symmetry_equiv_pos_as_xyz
  x,y,z
_cell_length_a	16.974897
_cell_length_b	16.992695
_cell_length_c	7.540329
_cell_angle_alpha	89.996072
_cell_angle_beta	86.345466
_cell_angle_gamma	87.027201
loop_
_atom_site_label
_atom_site_type_symbol
_atom_site_fract_x
_atom_site_fract_y
_atom_site_fract_z
O1	O	1.055448	0.099984	-0.298811
O2	O	0.826049	0.112700	-0.265925
O3	O	0.939829	-0.007799	-0.282222
O4	O	0.941668	0.220484	-0.282514
O5	O	0.939822	-0.007801	0.012744
O6	O	0.826041	0.112699	0.029042
O7	O	1.055441	0.099983	-0.003845
Cu8	Cu	0.940741	0.106341	0.039531
Cu9	Cu	0.940749	0.106343	-0.309301
O10	O	0.941661	0.220483	0.012452
C11	C	0.796556	0.112214	-0.114214
C12	C	0.708689	0.110757	-0.101617
C13	C	0.667405	0.110076	-0.256472
C14	C	0.584844	0.108720	-0.244609
C15	C	0.543567	0.108039	-0.077890
C16	C	0.584856	0.108724	0.076976
C17	C	0.667416	0.110085	0.065112
C18	C	0.296650	0.103972	-0.025166
C19	C	0.214084	0.102608	-0.013314
C20	C	0.214077	0.102605	-0.334901
C21	C	0.296639	0.103962	-0.346750
C22	C	0.337921	0.104650	-0.191884
N23	N	0.459176	0.106651	-0.065761
N24	N	0.422310	0.106045	-0.204015
C25	C	0.937459	-0.037010	-0.134400
C26	C	0.930400	-0.124047	-0.133388
C27	C	0.998514	-0.174357	-0.143152
C28	C	0.991877	-0.256137	-0.142217
C29	C	0.917123	-0.287605	-0.131506
C30	C	0.849003	-0.237288	-0.121748
C31	C	0.855642	-0.155510	-0.122695
C32	C	0.889609	-0.531175	-0.127586
C33	C	0.882975	-0.612959	-0.126634
C34	C	1.025849	-0.631803	-0.147106
C35	C	1.032481	-0.550022	-0.148042
C36	C	0.964361	-0.499712	-0.138293
N37	N	0.910336	-0.371197	-0.130545
N38	N	0.971149	-0.416122	-0.139267
C39	C	1.084933	0.100469	-0.155560
C40	C	1.172801	0.101926	-0.168169
C41	C	0.944031	0.249694	-0.135374
C42	C	0.951090	0.336730	-0.136397
N43	N	0.940740	0.106339	0.284879
N44	N	0.940755	0.106338	-0.554650
H45	H	0.330241	0.104510	-0.482510
H46	H	0.834140	-0.490222	-0.119647
Cl47	Cl	0.755027	-0.276848	-0.108305
Cl48	Cl	0.532966	0.107875	0.286567
Cl49	Cl	0.788992	-0.652517	-0.113157
Cl50	Cl	0.162196	0.101737	0.196291
Cl51	Cl	0.348536	0.104836	0.169525
Cl52	Cl	1.111480	-0.695053	-0.159367
Cl53	Cl	0.719288	0.110925	-0.466072
H54	H	0.551234	0.108164	-0.370709
Cl55	Cl	0.162176	0.101732	-0.529577
H56	H	1.047343	-0.297097	-0.150163
Cl57	Cl	0.719316	0.110946	0.259795
Cl58	Cl	1.092495	-0.134807	-0.156599
Cl59	Cl	1.126461	-0.510469	-0.161565
Cl60	Cl	0.770008	-0.092262	-0.110428
