data_functionalizedCrystal
_audit_creation_method	'MofGen! by Chris Wilmer'
_symmetry_space_group_name_H-M	'P1'
_symmetry_Int_Tables_number	1
_symmetry_cell_setting	triclinic
loop_
_symmetry_equiv_pos_as_xyz
  x,y,z
_cell_length_a	12.759401
_cell_length_b	19.077068
_cell_length_c	19.077237
_cell_angle_alpha	94.655611
_cell_angle_beta	87.690551
_cell_angle_gamma	92.327081
loop_
_atom_site_label
_atom_site_type_symbol
_atom_site_fract_x
_atom_site_fract_y
_atom_site_fract_z
Zn1	Zn	1.612852	-0.296662	-0.409791
Zn2	Zn	2.112852	0.203338	0.090209
Zn3	Zn	1.599161	-0.409820	-0.296636
Zn4	Zn	2.099161	0.090180	0.203364
Zn5	Zn	1.430395	-0.291952	-0.291928
Zn6	Zn	1.930395	0.208048	0.208072
Zn7	Zn	1.430316	-0.414513	-0.414486
Zn8	Zn	1.930316	0.085487	0.085514
O9	O	1.518181	-0.353237	-0.353210
O10	O	2.018181	0.146763	0.146790
O11	O	1.758057	-0.311680	-0.394787
O12	O	2.258057	0.188320	0.105213
O13	O	1.571078	-0.390249	-0.197364
O14	O	2.071078	0.109751	0.302636
O15	O	1.460361	-0.193927	-0.303627
O16	O	1.960361	0.306073	0.196373
O17	O	1.747998	-0.394817	-0.311652
O18	O	2.247998	0.105183	0.188348
O19	O	1.594411	-0.197388	-0.390221
O20	O	2.094411	0.302612	0.109779
O21	O	1.447086	-0.303652	-0.193905
O22	O	1.947086	0.196348	0.306095
O23	O	1.283364	-0.308202	-0.308180
O24	O	1.783364	0.191798	0.191820
O25	O	1.460227	-0.402815	-0.512510
O26	O	1.960227	0.097185	-0.012510
O27	O	1.283306	-0.398247	-0.398223
O28	O	1.783306	0.101753	0.101777
O29	O	1.594335	-0.316231	-0.509061
O30	O	2.094335	0.183769	-0.009061
O31	O	1.571001	-0.509092	-0.316204
O32	O	2.071001	-0.009092	0.183796
O33	O	1.446951	-0.512540	-0.402788
O34	O	1.946951	-0.012540	0.097212
C35	C	1.245214	-0.353223	-0.353200
C36	C	1.745214	0.146777	0.146800
C37	C	1.128437	-0.353235	-0.353213
C38	C	1.628437	0.146765	0.146787
C39	C	1.073564	-0.400191	-0.400027
C40	C	1.573564	0.099809	0.099973
C41	C	0.963840	-0.400200	-0.400035
C42	C	1.463840	0.099800	0.099965
C43	C	0.963872	-0.306296	-0.306409
C44	C	1.463872	0.193704	0.193591
C45	C	1.073594	-0.306284	-0.306405
C46	C	1.573594	0.193716	0.193595
C47	C	1.073545	-0.454408	-0.454079
C48	C	1.573545	0.045592	0.045921
C49	C	0.963821	-0.454417	-0.454087
C50	C	1.463821	0.045583	0.045913
C51	C	1.507511	-0.536395	-0.360532
C52	C	2.007511	-0.036395	0.139468
C53	C	1.503044	-0.614752	-0.363688
C54	C	2.003044	-0.114752	0.136312
C55	C	1.565586	-0.649747	-0.320129
C56	C	2.065586	-0.149747	0.179871
C57	C	1.561391	-0.723372	-0.323101
C58	C	2.061391	-0.223372	0.176899
C59	C	1.494648	-0.762000	-0.369630
C60	C	1.994648	-0.262000	0.130370
C61	C	1.432104	-0.727000	-0.413194
C62	C	1.932104	-0.227000	0.086806
C63	C	1.436305	-0.653376	-0.410225
C64	C	1.936305	-0.153376	0.089775
C65	C	1.475156	-0.982385	-0.383344
C66	C	1.975156	-0.482385	0.116656
C67	C	1.470958	-1.056013	-0.386309
C68	C	1.970958	-0.556013	0.113691
C69	C	1.600247	-1.052380	-0.296216
C70	C	2.100247	-0.552380	0.203784
C71	C	1.604437	-0.978756	-0.293248
C72	C	2.104437	-0.478756	0.206752
C73	C	1.541897	-0.943762	-0.336815
C74	C	2.041897	-0.443762	0.163185
N75	N	1.490356	-0.837256	-0.372668
N76	N	1.990356	-0.337256	0.127332
N77	N	1.546196	-0.868507	-0.333780
N78	N	2.046196	-0.368507	0.166220
C79	C	1.792214	-0.353251	-0.353221
C80	C	2.292214	0.146749	0.146779
C81	C	1.908991	-0.353257	-0.353225
C82	C	2.408991	0.146743	0.146775
C83	C	1.528799	-0.360572	-0.537079
C84	C	2.028799	0.139428	-0.037079
C85	C	1.533324	-0.363698	-0.615433
C86	C	2.033324	0.136302	-0.115433
C87	C	1.528922	-0.169364	-0.345875
C88	C	2.028922	0.330636	0.154125
C89	C	1.533499	-0.091008	-0.342749
C90	C	2.033499	0.408992	0.157251
C91	C	1.565779	-0.386170	-1.056677
C92	C	2.065779	0.113830	-0.556677
C93	C	1.561513	-0.383228	-0.983055
C94	C	2.061513	0.116772	-0.483055
C95	C	1.494830	-0.336667	-0.944450
C96	C	1.994830	0.163333	-0.444450
C97	C	1.432402	-0.293051	-0.979472
C98	C	1.932402	0.206949	-0.479472
C99	C	1.436664	-0.295996	-1.053093
C100	C	1.936664	0.204004	-0.553093
C101	C	1.475157	-0.323027	-0.724075
C102	C	1.975157	0.176973	-0.224075
C103	C	1.470903	-0.320083	-0.650449
C104	C	1.970903	0.179917	-0.150449
C105	C	1.600012	-0.410262	-0.654037
C106	C	2.100012	0.089738	-0.154037
C107	C	1.604273	-0.413200	-0.727659
C108	C	2.104273	0.086800	-0.227659
C109	C	1.541841	-0.369586	-0.762675
C110	C	2.041841	0.130414	-0.262675
N111	N	1.490470	-0.333658	-0.869197
N112	N	1.990470	0.166342	-0.369197
N113	N	1.546196	-0.372599	-0.837927
N114	N	2.046196	0.127401	-0.337927
C115	C	1.507668	-0.345879	-0.170055
C116	C	2.007668	0.154121	0.329945
C117	C	1.503359	-0.342554	-0.091693
C118	C	2.003359	0.157446	0.408307
H119	H	1.103431	-0.505452	-0.436506
H120	H	1.603431	-0.005452	0.063494
H121	H	1.612329	-0.418753	-0.954548
H122	H	2.112329	0.081247	-0.454548
H123	H	1.620085	-0.424081	-1.088103
H124	H	2.120085	0.075919	-0.588103
C125	C	1.359038	-0.241842	-0.937013
C126	C	1.859038	0.258158	-0.437013
H127	H	1.322462	-0.216295	-0.968414
H128	H	1.822462	0.283705	-0.468414
H129	H	1.399350	-0.209978	-0.907066
H130	H	1.899350	0.290022	-0.407066
H131	H	1.310022	-0.267668	-0.909372
H132	H	1.810022	0.232332	-0.409372
C133	C	0.918152	-0.527350	-0.437157
C134	C	1.418152	-0.027350	0.062843
H135	H	0.973827	-0.557336	-0.430181
H136	H	1.473827	-0.057336	0.069819
H137	H	0.877900	-0.547043	-0.475223
H138	H	1.377900	-0.047043	0.024777
H139	H	0.874564	-0.522663	-0.395611
H140	H	1.374564	-0.022663	0.104389
C141	C	1.397549	-0.268866	-0.607982
C142	C	1.897549	0.231134	-0.107982
H143	H	1.403965	-0.273354	-0.559122
H144	H	1.903965	0.226646	-0.059122
H145	H	1.327052	-0.279659	-0.620454
H146	H	1.827052	0.220341	-0.120454
H147	H	1.416398	-0.221982	-0.618164
H148	H	1.916398	0.278018	-0.118164
H149	H	1.424319	-0.287514	-0.752576
H150	H	1.924319	0.212486	-0.252576
H151	H	1.658785	-0.947306	-0.255360
H152	H	2.158785	-0.447306	0.244640
H153	H	0.919205	-0.268069	-0.268300
H154	H	1.419205	0.231931	0.231700
H155	H	1.107327	-0.442048	-0.508119
H156	H	1.607327	0.057952	-0.008119
H157	H	0.933927	-0.437020	-0.505208
H158	H	1.433927	0.062980	-0.005208
H159	H	1.651165	-1.080880	-0.260747
H160	H	2.151165	-0.580880	0.239253
C161	C	1.406363	-0.943898	-0.431261
C162	C	1.906363	-0.443898	0.068739
H163	H	1.418428	-0.894518	-0.422838
H164	H	1.918428	-0.394518	0.077162
H165	H	1.334496	-0.955593	-0.421393
H166	H	1.834496	-0.455593	0.078607
H167	H	1.423739	-0.957828	-0.479122
H168	H	1.923739	-0.457828	0.020878
H169	H	1.619930	-0.618300	-0.282237
H170	H	2.119930	-0.118300	0.217763
C171	C	1.630182	-0.761863	-0.275182
C172	C	2.130182	-0.261863	0.224818
H173	H	1.670522	-0.728313	-0.247039
H174	H	2.170522	-0.228313	0.252961
H175	H	1.675852	-0.791623	-0.303328
H176	H	2.175852	-0.291623	0.196672
H177	H	1.586603	-0.789392	-0.245603
H178	H	2.086603	-0.289392	0.254397
H179	H	1.416621	-1.087463	-0.424211
H180	H	1.916621	-0.587463	0.075789
C181	C	1.358686	-0.769488	-0.464374
C182	C	1.858686	-0.269488	0.035626
H183	H	1.365131	-0.818348	-0.459899
H184	H	1.865131	-0.318348	0.040101
H185	H	1.377426	-0.759286	-0.511260
H186	H	1.877426	-0.259286	-0.011260
H187	H	1.288193	-0.757050	-0.453524
H188	H	1.788193	-0.257050	0.046476
C189	C	1.367511	-0.614881	-0.458142
C190	C	1.867511	-0.114881	0.041858
H191	H	1.327154	-0.648430	-0.486275
H192	H	1.827154	-0.148430	0.013725
H193	H	1.411084	-0.587353	-0.487719
H194	H	1.911084	-0.087353	0.012281
H195	H	1.321839	-0.585120	-0.429991
H196	H	1.821839	-0.085120	0.070009
H197	H	1.658572	-0.451115	-0.759086
H198	H	2.158572	0.048885	-0.259086
C199	C	1.668670	-0.458240	-0.615520
C200	C	2.168670	0.041760	-0.115520
H201	H	1.656578	-0.449823	-0.566145
H202	H	2.156578	0.050177	-0.066145
H203	H	1.740563	-0.448416	-0.627173
H204	H	2.240563	0.051584	-0.127173
H205	H	1.651209	-0.506087	-0.629472
H206	H	2.151209	-0.006087	-0.129472
H207	H	1.385835	-0.260479	-1.081602
H208	H	1.885835	0.239521	-0.581602
H209	H	1.118268	-0.268043	-0.268289
H210	H	1.618268	0.231957	0.231711
