data_functionalizedCrystal
_audit_creation_method	'MofGen! by Chris Wilmer'
_symmetry_space_group_name_H-M	'P1'
_symmetry_Int_Tables_number	1
_symmetry_cell_setting	triclinic
loop_
_symmetry_equiv_pos_as_xyz
  x,y,z
_cell_length_a	19.805407
_cell_length_b	19.077068
_cell_length_c	19.805399
_cell_angle_alpha	87.730571
_cell_angle_beta	90.019573
_cell_angle_gamma	92.327086
loop_
_atom_site_label
_atom_site_type_symbol
_atom_site_fract_x
_atom_site_fract_y
_atom_site_fract_z
Zn1	Zn	1.023904	-0.280218	0.393534
Zn2	Zn	1.523904	0.219782	0.893534
Zn3	Zn	1.019269	-0.397917	0.284888
Zn4	Zn	1.519269	0.102083	0.784888
Zn5	Zn	0.910718	-0.280237	0.280359
Zn6	Zn	1.410718	0.219763	0.780359
Zn7	Zn	0.906134	-0.397880	0.398033
Zn8	Zn	1.406134	0.102120	0.898033
O9	O	0.965006	-0.339063	0.339204
O10	O	1.465006	0.160937	0.839204
O11	O	1.118005	-0.295839	0.379134
O12	O	1.618005	0.204161	0.879134
O13	O	1.004848	-0.382330	0.189571
O14	O	1.504848	0.117670	0.689571
O15	O	0.929590	-0.181744	0.291594
O16	O	1.429590	0.318256	0.791594
O17	O	1.114600	-0.382312	0.299312
O18	O	1.614600	0.117688	0.799312
O19	O	1.012748	-0.181729	0.374743
O20	O	1.512748	0.318271	0.874743
O21	O	0.925096	-0.295872	0.186244
O22	O	1.425096	0.204128	0.686244
O23	O	0.815394	-0.295835	0.295957
O24	O	1.315394	0.204165	0.795957
O25	O	0.921778	-0.382248	0.492152
O26	O	1.421778	0.117752	0.992152
O27	O	0.812026	-0.382267	0.382411
O28	O	1.312026	0.117733	0.882411
O29	O	1.008303	-0.295802	0.488846
O30	O	1.508303	0.204198	0.988846
O31	O	1.000404	-0.496403	0.303675
O32	O	1.500404	0.003597	0.803675
O33	O	0.917284	-0.496376	0.386802
O34	O	1.417284	0.003624	0.886802
C35	C	0.789151	-0.339050	0.339181
C36	C	1.289151	0.160950	0.839181
C37	C	0.713918	-0.339061	0.339188
C38	C	1.213918	0.160939	0.839188
C39	C	0.957862	-0.521927	0.346233
C40	C	1.457862	-0.021927	0.846233
C41	C	0.954867	-0.600157	0.349263
C42	C	1.454867	-0.100157	0.849263
C43	C	0.676836	-0.384133	0.384138
C44	C	1.176836	0.115867	0.884138
C45	C	0.606147	-0.384135	0.384147
C46	C	1.106147	0.115865	0.884147
C47	C	0.572543	-0.339066	0.339204
C48	C	1.072543	0.160934	0.839204
C49	C	0.609630	-0.293989	0.294252
C50	C	1.109630	0.206011	0.794252
C51	C	0.680318	-0.293985	0.294246
C52	C	1.180318	0.206015	0.794246
C53	C	0.324556	-0.294004	0.294275
C54	C	0.824556	0.205996	0.794275
C55	C	0.253864	-0.294014	0.294283
C56	C	0.753864	0.205986	0.794283
C57	C	0.250386	-0.384154	0.384176
C58	C	0.750386	0.115846	0.884176
C59	C	0.321073	-0.384150	0.384170
C60	C	0.821073	0.115850	0.884170
C61	C	0.358155	-0.339070	0.339221
C62	C	0.858155	0.160930	0.839221
C63	C	0.434804	-0.339069	0.339212
C64	C	0.934804	0.160931	0.839212
C65	C	0.495895	-0.339071	0.339209
C66	C	0.995895	0.160929	0.839209
C67	C	0.996770	-0.636901	0.307443
C68	C	1.496770	-0.136901	0.807443
C69	C	0.993957	-0.710406	0.310296
C70	C	1.493957	-0.210406	0.810296
C71	C	0.949238	-0.747167	0.354968
C72	C	1.449238	-0.247167	0.854968
C73	C	0.907333	-0.710418	0.396793
C74	C	1.407333	-0.210418	0.896793
C75	C	0.910150	-0.636914	0.393942
C76	C	1.410150	-0.136914	0.893942
C77	C	0.936174	-0.967002	0.368135
C78	C	1.436174	-0.467002	0.868135
C79	C	0.933359	-1.040511	0.370981
C80	C	1.433359	-0.540511	0.870981
C81	C	1.019984	-1.040494	0.284485
C82	C	1.519984	-0.540494	0.784485
C83	C	1.022794	-0.966989	0.281635
C84	C	1.522794	-0.466989	0.781635
C85	C	0.980892	-0.930246	0.323463
C86	C	1.480892	-0.430246	0.823463
N87	N	0.946361	-0.822301	0.357884
N88	N	1.446361	-0.322301	0.857884
N89	N	0.983773	-0.855113	0.320549
N90	N	1.483773	-0.355113	0.820549
C91	C	1.141548	-0.339077	0.339226
C92	C	1.641548	0.160923	0.839226
C93	C	1.216780	-0.339083	0.339236
C94	C	1.716780	0.160917	0.839236
C95	C	0.965046	-0.339019	0.515745
C96	C	1.465046	0.160981	1.015745
C97	C	0.965063	-0.339000	0.590976
C98	C	1.465063	0.161000	1.090976
C99	C	0.972197	-0.155485	0.332161
C100	C	1.472197	0.344515	0.832161
C101	C	0.975262	-0.077255	0.329160
C102	C	1.475262	0.422745	0.829160
C103	C	0.965008	-0.339056	0.163347
C104	C	1.465008	0.160944	0.663347
C105	C	0.965130	-0.338877	0.088109
C106	C	1.465130	0.161123	0.588109
C107	C	1.010118	-0.293985	0.624600
C108	C	1.510118	0.206015	1.124600
C109	C	1.010125	-0.293965	0.695288
C110	C	1.510125	0.206035	1.195288
C111	C	0.965081	-0.338963	0.732350
C112	C	1.465081	0.161037	1.232350
C113	C	0.920022	-0.383980	0.698721
C114	C	1.420022	0.116020	1.198721
C115	C	0.920011	-0.383996	0.628035
C116	C	1.420011	0.116004	1.128035
C117	C	0.920062	-0.383914	0.983792
C118	C	1.420062	0.116086	1.483792
C119	C	0.920078	-0.383896	1.054484
C120	C	1.420078	0.116104	1.554484
C121	C	1.010177	-0.293883	1.051045
C122	C	1.510177	0.206117	1.551045
C123	C	1.010166	-0.293899	0.980358
C124	C	1.510166	0.206101	1.480358
C125	C	0.965104	-0.338913	0.946736
C126	C	1.465104	0.161087	1.446736
C127	C	0.965096	-0.338934	0.870088
C128	C	1.465096	0.161066	1.370088
C129	C	0.965093	-0.338947	0.808997
C130	C	1.465093	0.161053	1.308997
H131	H	0.704191	-0.420836	0.420734
H132	H	1.204191	0.079164	0.920734
C133	C	0.858139	-0.750857	0.445930
C134	C	1.358139	-0.250857	0.945930
N135	N	0.821082	-0.781316	0.482938
N136	N	1.321082	-0.281316	0.982938
H137	H	0.226505	-0.257309	0.257684
H138	H	0.726505	0.242691	0.757684
H139	H	1.054099	-1.070418	0.250432
H140	H	1.554099	-0.570418	0.750432
H141	H	0.220186	-0.420858	0.420778
H142	H	0.720186	0.079142	0.920778
H143	H	0.575957	-0.420838	0.420749
H144	H	1.075957	0.079162	0.920749
H145	H	0.883394	-0.420540	1.084658
H146	H	1.383394	0.079460	1.584658
C147	C	0.864054	-0.596497	0.439949
C148	C	1.364054	-0.096497	0.939949
N149	N	0.829334	-0.566055	0.474604
N150	N	1.329334	-0.066055	0.974604
H151	H	1.046866	-0.257228	1.078429
H152	H	1.546866	0.242772	1.578429
C153	C	1.059690	-0.244447	0.732271
C154	C	1.559690	0.255553	1.232271
N155	N	1.097025	-0.207147	0.760126
N156	N	1.597025	0.292853	1.260126
C157	C	0.358034	-0.433730	0.433611
C158	C	0.858034	0.066270	0.933611
N159	N	0.385872	-0.471072	0.470852
N160	N	0.885872	0.028928	0.970852
H161	H	0.883343	-0.420615	0.728903
H162	H	1.383343	0.079385	1.228903
C163	C	0.870491	-0.433428	0.946816
C164	C	1.370491	0.066572	1.446816
N165	N	0.833150	-0.470723	0.918964
N166	N	1.333150	0.029277	1.418964
C167	C	0.572663	-0.244411	0.244815
C168	C	1.072663	0.255589	0.744815
N169	N	0.544819	-0.207070	0.207577
N170	N	1.044819	0.292930	0.707577
H171	H	0.354740	-0.257303	0.257670
H172	H	0.854740	0.242697	0.757670
C173	C	0.870449	-0.433517	0.591049
C174	C	1.370449	0.066483	1.091049
N175	N	0.833115	-0.470816	0.563192
N176	N	1.333115	0.029184	1.063192
C177	C	0.890114	-0.926595	0.414181
C178	C	1.390114	-0.426595	0.914181
N179	N	0.855433	-0.896158	0.448879
N180	N	1.355433	-0.396158	0.948879
H181	H	0.896951	-1.070439	0.407369
H182	H	1.396951	-0.570439	0.907369
C183	C	1.059670	-0.244482	0.583837
C184	C	1.559670	0.255518	1.083837
N185	N	1.096992	-0.207193	0.553137
N186	N	1.596992	0.292807	1.053137
H187	H	1.046848	-0.257260	0.950185
H188	H	1.546848	0.242740	1.450185
H189	H	0.710510	-0.257278	0.257647
H190	H	1.210510	0.242722	0.757647
H191	H	1.033182	-0.606975	0.271063
H192	H	1.533182	-0.106975	0.771063
C193	C	1.040050	-0.750821	0.264286
C194	C	1.540050	-0.250821	0.764286
N195	N	1.074768	-0.781261	0.229627
N196	N	1.574768	-0.281261	0.729627
H197	H	1.059207	-0.937060	0.245260
H198	H	1.559207	-0.437060	0.745260
