data_functionalizedCrystal
_audit_creation_method	'MofGen! by Chris Wilmer'
_symmetry_space_group_name_H-M	'P1'
_symmetry_Int_Tables_number	1
_symmetry_cell_setting	triclinic
loop_
_symmetry_equiv_pos_as_xyz
  x,y,z
_cell_length_a	15.944551
_cell_length_b	19.188930
_cell_length_c	14.421503
_cell_angle_alpha	89.999163
_cell_angle_beta	89.996859
_cell_angle_gamma	83.321760
loop_
_atom_site_label
_atom_site_type_symbol
_atom_site_fract_x
_atom_site_fract_y
_atom_site_fract_z
O1	O	1.114192	0.090038	-0.077026
O2	O	0.869601	0.101140	-0.077050
O3	O	0.998955	-0.006048	-0.077019
O4	O	0.984838	0.197227	-0.077057
O5	O	0.998934	-0.006032	0.077204
O6	O	0.869580	0.101156	0.077173
O7	O	1.114171	0.090054	0.077198
Cu8	Cu	0.991873	0.095607	0.091267
Cu9	Cu	0.991899	0.095588	-0.091120
O10	O	0.984817	0.197243	0.077167
C11	C	0.838298	0.100687	0.000059
C12	C	0.745057	0.099306	0.000050
C13	C	0.530462	0.029563	0.000081
C14	C	0.469331	0.061941	-0.075965
C15	C	0.574341	0.096806	0.000062
C16	C	0.469332	0.061973	0.076087
C17	C	0.409437	0.094386	0.000077
C18	C	0.514438	0.129203	-0.076047
C19	C	0.514446	0.129225	0.076073
C20	C	0.453332	0.161652	0.000008
C21	C	0.669338	0.098198	0.000052
C22	C	0.314441	0.093000	0.000080
C23	C	0.998487	-0.032052	0.000095
C24	C	0.997115	-0.109560	0.000103
C25	C	1.073016	-0.154288	0.000115
C26	C	1.071726	-0.227115	0.000100
C27	C	0.994532	-0.255211	0.000092
C28	C	0.918622	-0.210474	0.000075
C29	C	0.919913	-0.137648	0.000080
N30	N	0.935519	-0.363364	0.052571
N31	N	0.934298	-0.432545	0.052568
C32	C	0.990637	-0.474630	0.000073
N33	N	1.048256	-0.444921	-0.052407
N34	N	1.049480	-0.375733	-0.052400
C35	C	0.993123	-0.334178	0.000085
C36	C	1.065145	-0.598326	0.000067
C37	C	1.063852	-0.671154	0.000046
C38	C	0.910745	-0.654511	0.000030
C39	C	0.912040	-0.581685	0.000041
C40	C	0.989242	-0.553597	0.000064
C41	C	1.145474	0.090507	0.000087
C42	C	1.238715	0.091889	0.000089
C43	C	0.985285	0.223247	0.000050
C44	C	0.986657	0.300755	0.000036
N45	N	0.991862	0.095619	0.219549
N46	N	0.991917	0.095569	-0.219401
C47	C	0.932038	0.145161	0.469188
C48	C	1.007887	0.158716	0.530995
C49	C	0.991882	0.095603	0.408710
C50	C	0.916052	0.082064	0.530997
C51	C	0.991895	0.095588	0.591431
C52	C	1.067770	0.109189	0.469157
C53	C	0.975885	0.032510	0.469153
C54	C	1.051789	0.046038	0.530932
C55	C	0.991874	0.095613	0.303449
C56	C	0.991913	0.095578	0.696690
H57	H	1.135880	-0.131424	0.000131
C58	C	0.837411	-0.089198	0.000120
C59	C	0.769528	-0.129386	0.000129
C60	C	0.693515	-0.084777	0.000180
H61	H	0.834622	-0.060422	-0.053642
H62	H	0.834679	-0.060458	0.053927
H63	H	0.772259	-0.158114	-0.053673
H64	H	0.772290	-0.158160	0.053887
H65	H	0.690783	-0.056036	0.053987
H66	H	0.690734	-0.056003	-0.053583
H67	H	0.647448	-0.112038	0.000194
H68	H	0.962318	-0.020823	0.441967
H69	H	0.419965	0.217516	-0.000045
C70	C	1.149046	-0.567960	0.000026
C71	C	1.215243	-0.622722	-0.000005
C72	C	1.292545	-0.594778	-0.000060
H73	H	1.152851	-0.539909	0.053794
H74	H	1.152779	-0.539913	-0.053775
H75	H	1.211512	-0.650757	0.053790
H76	H	1.211466	-0.650777	-0.053769
H77	H	1.296277	-0.566732	-0.053860
H78	H	1.296341	-0.566728	0.053710
H79	H	1.337469	-0.631930	-0.000089
H80	H	0.564003	-0.026244	-0.000003
H81	H	1.125662	-0.707571	0.000051
C82	C	1.026110	0.229789	0.567284
C83	C	1.099966	0.221450	0.620624
C84	C	1.116777	0.286909	0.654058
H85	H	0.980243	0.249533	0.604522
H86	H	1.033297	0.260103	0.516536
H87	H	1.092774	0.191147	0.671365
H88	H	1.145848	0.201717	0.583406
H89	H	1.123963	0.317223	0.603309
H90	H	1.070905	0.306648	0.691291
H91	H	1.166893	0.281261	0.690245
H92	H	0.534329	0.157616	-0.140409
C93	C	0.541310	0.167134	0.161704
C94	C	0.628906	0.168481	0.160082
C95	C	0.653686	0.203399	0.238951
H96	H	0.526133	0.143234	0.215755
H97	H	0.513883	0.213817	0.162243
H98	H	0.656324	0.121808	0.159552
H99	H	0.644105	0.192386	0.106048
H100	H	0.626259	0.250082	0.239490
H101	H	0.638504	0.179496	0.292996
H102	H	0.713121	0.204324	0.237857
H103	H	0.847892	-0.677386	0.000019
H104	H	0.850233	-0.545266	0.000037
H105	H	0.449343	0.033526	0.140376
C106	C	0.864731	0.201190	0.433078
C107	C	0.881894	0.267128	0.464396
C108	C	0.819921	0.318760	0.431137
H109	H	0.810925	0.192115	0.455137
H110	H	0.864868	0.200570	0.367205
H111	H	0.881748	0.267747	0.530255
H112	H	0.935689	0.276226	0.442338
H113	H	0.820058	0.318139	0.365265
H114	H	0.766119	0.309677	0.453199
H115	H	0.831562	0.363504	0.452375
H116	H	1.131917	0.120698	0.442107
C117	C	1.119473	-0.009769	0.566813
C118	C	1.198683	0.004730	0.535327
C119	C	1.261056	-0.046655	0.568375
H120	H	1.108677	-0.054501	0.544722
H121	H	1.118857	-0.009720	0.632687
H122	H	1.199298	0.004674	0.469467
H123	H	1.209506	0.049453	0.557416
H124	H	1.260440	-0.046606	0.634249
H125	H	1.250251	-0.091383	0.546282
H126	H	1.314807	-0.036820	0.547024
H127	H	0.855769	-0.233354	0.000066
H128	H	0.851919	0.070620	0.558163
C129	C	1.154228	-0.275572	0.000164
C130	C	1.222113	-0.235387	0.000205
C131	C	1.298124	-0.279998	0.000277
H132	H	1.157037	-0.304343	-0.053603
H133	H	1.156937	-0.304318	0.053966
H134	H	1.219405	-0.206654	-0.053592
H135	H	1.219331	-0.206618	0.053968
H136	H	1.300833	-0.308744	0.054080
H137	H	1.300925	-0.308767	-0.053490
H138	H	1.344193	-0.252739	0.000314
H139	H	0.449336	0.033493	-0.140247
