data_functionalizedCrystal
_audit_creation_method	'MofGen! by Chris Wilmer'
_symmetry_space_group_name_H-M	'P1'
_symmetry_Int_Tables_number	1
_symmetry_cell_setting	triclinic
loop_
_symmetry_equiv_pos_as_xyz
  x,y,z
_cell_length_a	10.489741
_cell_length_b	10.489741
_cell_length_c	8.965430
_cell_angle_alpha	89.999293
_cell_angle_beta	89.998843
_cell_angle_gamma	95.460826
loop_
_atom_site_label
_atom_site_type_symbol
_atom_site_fract_x
_atom_site_fract_y
_atom_site_fract_z
O1	O	1.694053	-0.179958	-0.123946
O2	O	1.322858	-0.196851	-0.123969
O3	O	1.516902	-0.002807	-0.123948
O4	O	1.500009	-0.374003	-0.123967
O5	O	1.516886	-0.002820	0.124130
O6	O	1.322841	-0.196864	0.124110
O7	O	1.694037	-0.179971	0.124133
Cu8	Cu	1.508438	-0.188419	0.146773
Cu9	Cu	1.508457	-0.188404	-0.146609
O10	O	1.499993	-0.374016	0.124112
C11	C	1.275318	-0.195582	0.000067
C12	C	1.133688	-0.191765	0.000059
C13	C	1.515618	0.044718	0.000090
C14	C	1.511801	0.186348	0.000087
C15	C	1.065548	-0.068300	0.000079
C16	C	0.973430	-0.126617	-0.122237
C17	C	0.973447	-0.126659	0.122349
C18	C	1.043435	-0.250133	-0.122358
C19	C	1.043462	-0.250158	0.122338
C20	C	0.951371	-0.308564	-0.000007
C21	C	1.741577	-0.181241	0.000093
C22	C	1.883206	-0.185058	0.000092
C23	C	1.501277	-0.421541	0.000070
C24	C	1.505094	-0.563170	0.000063
N25	N	1.508433	-0.188429	0.353122
C26	C	1.388336	0.254488	0.000069
C27	C	1.446652	0.346604	0.122388
C28	C	1.446697	0.346591	-0.122198
C29	C	1.570167	0.276599	0.122508
C30	C	1.570195	0.276576	-0.122189
C31	C	1.628600	0.368665	0.000161
N32	N	1.508471	-0.188384	-0.352958
C33	C	1.418666	-0.278138	0.450418
C34	C	1.534163	-0.303949	0.549838
C35	C	1.392986	-0.162629	0.549830
C36	C	1.623988	-0.214298	0.450352
C37	C	1.482735	-0.072927	0.450336
C38	C	1.598314	-0.098690	0.549711
H39	H	1.115238	0.033196	-0.000069
H40	H	1.622355	0.245761	0.226035
N41	N	1.763180	0.434140	0.000244
H42	H	1.809626	0.408697	0.092676
H43	H	1.759767	0.530033	-0.000692
N44	N	1.639355	0.235459	-0.259160
H45	H	1.592646	0.260646	-0.351515
H46	H	1.642137	0.139494	-0.257479
N47	N	1.563002	-0.433300	0.607734
H48	H	1.495134	-0.501026	0.571626
H49	H	1.563656	-0.431958	0.720372
N50	N	1.318215	-0.378724	0.392659
H51	H	1.318359	-0.377487	0.280013
H52	H	1.231220	-0.360096	0.430506
H53	H	0.942422	-0.074371	-0.225643
N54	N	1.377488	0.387648	-0.259173
H55	H	1.286735	0.345707	-0.259061
H56	H	1.423310	0.360945	-0.351482
N57	N	1.753370	-0.243325	0.392734
H58	H	1.752546	-0.243200	0.280084
H59	H	1.772928	-0.330239	0.429915
H60	H	1.674327	-0.022803	0.593034
H61	H	1.460937	0.024699	0.406596
N62	N	1.253875	0.188720	0.000212
H63	H	1.240953	0.132818	0.091715
H64	H	1.240379	0.134121	-0.092263
H65	H	0.901947	-0.410168	-0.000079
H66	H	1.295338	-0.140828	0.593530
H67	H	1.074502	-0.302361	0.225749
N68	N	1.084254	-0.319263	-0.259503
H69	H	1.128559	-0.396430	-0.228495
H70	H	1.145076	-0.259565	-0.320277
N71	N	0.932396	-0.057450	0.259327
H72	H	0.974338	0.033303	0.259215
H73	H	0.959103	-0.103273	0.351633
N74	N	1.377462	0.387667	0.259375
H75	H	1.286708	0.345730	0.259286
H76	H	1.376214	0.483820	0.258786
