data_functionalizedCrystal
_audit_creation_method	'MofGen! by Chris Wilmer'
_symmetry_space_group_name_H-M	'P1'
_symmetry_Int_Tables_number	1
_symmetry_cell_setting	triclinic
loop_
_symmetry_equiv_pos_as_xyz
  x,y,z
_cell_length_a	18.215407
_cell_length_b	29.839131
_cell_length_c	18.215399
_cell_angle_alpha	89.969127
_cell_angle_beta	89.980167
_cell_angle_gamma	90.041868
loop_
_atom_site_label
_atom_site_type_symbol
_atom_site_fract_x
_atom_site_fract_y
_atom_site_fract_z
Zn1	Zn	1.124987	-0.178853	-0.416101
Zn2	Zn	1.124860	-0.253982	-0.293028
Zn3	Zn	1.001920	-0.178867	-0.293048
Zn4	Zn	1.001850	-0.253957	-0.416053
O5	O	1.063404	-0.216415	-0.354558
O6	O	1.227955	-0.188823	-0.399787
O7	O	1.108528	-0.244034	-0.190047
O8	O	1.018327	-0.115998	-0.309400
O9	O	1.227861	-0.244020	-0.309366
O10	O	1.108745	-0.115987	-0.399806
O11	O	1.018204	-0.188848	-0.190061
O12	O	0.898926	-0.188824	-0.309354
O13	O	1.018209	-0.243978	-0.519044
O14	O	0.898875	-0.243992	-0.399725
O15	O	1.108677	-0.188799	-0.519079
O16	O	1.108460	-0.316846	-0.309320
O17	O	1.018086	-0.316827	-0.399705
C18	C	0.872198	-0.216407	-0.354537
C19	C	0.790399	-0.216414	-0.354545
C20	C	1.063272	-0.333137	-0.354521
C21	C	1.063282	-0.383072	-0.354530
C22	C	0.602198	-0.245186	-0.401542
C23	C	0.525339	-0.245187	-0.401551
C24	C	0.525363	-0.187652	-0.307589
C25	C	0.602220	-0.187648	-0.307584
C26	C	0.640636	-0.216418	-0.354560
C27	C	0.486920	-0.216423	-0.354574
C28	C	0.403586	-0.216424	-0.354583
C29	C	0.723975	-0.216416	-0.354551
C30	C	1.110548	-0.692712	-0.307563
C31	C	1.110639	-0.880385	-0.307591
O32	O	1.150721	-0.904647	-0.267629
N33	N	1.063557	-0.903857	-0.354613
C34	C	1.016452	-0.880407	-0.401635
O35	O	0.976414	-0.904678	-0.441636
C36	C	1.016366	-0.692735	-0.401609
C37	C	1.063446	-0.669266	-0.354579
C38	C	1.157625	-0.669243	-0.260536
C39	C	1.157599	-0.622327	-0.260527
C40	C	1.110496	-0.598881	-0.307544
C41	C	1.063420	-0.622350	-0.354570
C42	C	0.969265	-0.669287	-0.448634
C43	C	0.969249	-0.622365	-0.448625
C44	C	1.016329	-0.598896	-0.401595
C45	C	1.016291	-0.551989	-0.401577
N46	N	1.063373	-0.528517	-0.354554
C47	C	1.110476	-0.551963	-0.307538
C48	C	1.016500	-0.978938	-0.401644
C49	C	1.016521	-1.025856	-0.401649
C50	C	1.110709	-1.025830	-0.307606
C51	C	1.110684	-0.978911	-0.307598
C52	C	1.063582	-0.955466	-0.354622
C53	C	1.110417	-0.453437	-0.307521
C54	C	1.110385	-0.406518	-0.307514
C55	C	1.016200	-0.406547	-0.401559
C56	C	1.016229	-0.453463	-0.401564
C57	C	1.063344	-0.476907	-0.354543
O58	O	0.976236	-0.527698	-0.441523
O59	O	1.150520	-0.527685	-0.267554
C60	C	1.110574	-0.739627	-0.307572
C61	C	1.063498	-0.763097	-0.354598
C62	C	1.016395	-0.739651	-0.401615
C63	C	1.063518	-0.810015	-0.354604
C64	C	1.110621	-0.833461	-0.307587
C65	C	1.157703	-0.809989	-0.260565
C66	C	1.157677	-0.763074	-0.260555
C67	C	0.969313	-0.763122	-0.448637
C68	C	0.969342	-0.810038	-0.448642
C69	C	1.016445	-0.833484	-0.401625
C70	C	1.255357	-0.216423	-0.354579
C71	C	1.337156	-0.216426	-0.354589
C72	C	1.063449	-0.216384	-0.546511
C73	C	1.063468	-0.216370	-0.628310
C74	C	1.063558	-0.099236	-0.354610
C75	C	1.063623	-0.049302	-0.354633
C76	C	1.110592	-0.187612	-0.816523
C77	C	1.110601	-0.187599	-0.893382
C78	C	1.016397	-0.245059	-0.893334
C79	C	1.016385	-0.245070	-0.816477
C80	C	1.063487	-0.216347	-0.778073
C81	C	1.063507	-0.216323	-0.931789
C82	C	1.063517	-0.216309	-1.015123
C83	C	1.063477	-0.216360	-0.694734
C84	C	1.063402	-0.216413	-0.163351
C85	C	1.063526	-0.216300	-0.081553
H86	H	0.633474	-0.268610	-0.439794
O87	O	0.488158	-0.159668	-0.261931
C88	C	0.496295	-0.102622	-0.168697
C89	C	0.538518	-0.134283	-0.220383
H90	H	0.536992	-0.082097	-0.135082
H91	H	0.460369	-0.079128	-0.202518
H92	H	0.460256	-0.123229	-0.130190
H93	H	0.574596	-0.113712	-0.258901
H94	H	0.574397	-0.157778	-0.186517
H95	H	1.148723	-0.387411	-0.269213
O96	O	1.156254	-0.159637	-0.930763
C97	C	1.166243	-0.098983	-1.017592
C98	C	1.114457	-0.130618	-0.975294
H99	H	1.132472	-0.075519	-1.053617
H100	H	1.199888	-0.078424	-0.976970
H101	H	1.204719	-0.119611	-1.053543
H102	H	1.075937	-0.110025	-0.939342
H103	H	1.080864	-0.151178	-1.015955
O104	O	0.639644	-0.159765	-0.261905
C105	C	0.726356	-0.153644	-0.162533
C106	C	0.684032	-0.185272	-0.214223
H107	H	0.762242	-0.174254	-0.123959
H108	H	0.762427	-0.130185	-0.196348
H109	H	0.685685	-0.133075	-0.128989
H110	H	0.724650	-0.205870	-0.247778
H111	H	0.647950	-0.208701	-0.180365
H112	H	1.149021	-0.959806	-0.269302
O113	O	1.156586	-1.048616	-0.262064
C114	C	1.256010	-1.101513	-0.252364
C115	C	1.204084	-1.075734	-0.304000
H116	H	1.294415	-1.123451	-0.286248
H117	H	1.289717	-1.076688	-0.218795
H118	H	1.222300	-1.123509	-0.213810
H119	H	1.237738	-1.053738	-0.342598
H120	H	1.170374	-1.100584	-0.337517
O121	O	0.970754	-0.273010	-0.930675
C122	C	0.960792	-0.333634	-1.017449
C123	C	1.012565	-0.302014	-0.975196
H124	H	0.994574	-0.357086	-1.053467
H125	H	0.927133	-0.354206	-0.976797
H126	H	0.922329	-0.312993	-1.053404
H127	H	1.051072	-0.322620	-0.939241
H128	H	1.046172	-0.281441	-1.015887
O129	O	1.156204	-0.476137	-0.261773
C130	C	1.249644	-0.471147	-0.168518
C131	C	1.197822	-0.445385	-0.220282
H132	H	1.283317	-0.446296	-0.134970
H133	H	1.215927	-0.493137	-0.129959
H134	H	1.288092	-0.493088	-0.202350
H135	H	1.159364	-0.423420	-0.186510
H136	H	1.231585	-0.423424	-0.258844
H137	H	1.195937	-0.603221	-0.222233
O138	O	1.203406	-0.691944	-0.214789
C139	C	1.296845	-0.686951	-0.121534
C140	C	1.245025	-0.661191	-0.173302
H141	H	1.330518	-0.662098	-0.087989
H142	H	1.263125	-0.708938	-0.082971
H143	H	1.335291	-0.708895	-0.155361
H144	H	1.206568	-0.639223	-0.139534
H145	H	1.278790	-0.639233	-0.211867
H146	H	0.978177	-1.044960	-0.439939
O147	O	0.487887	-0.273091	-0.447165
C148	C	0.369476	-0.298614	-0.488789
C149	C	0.411798	-0.266982	-0.437104
H150	H	0.307950	-0.293693	-0.480662
H151	H	0.384568	-0.290771	-0.548169
H152	H	0.384586	-0.334824	-0.475764
H153	H	0.396710	-0.230762	-0.450063
H154	H	0.396701	-0.274865	-0.377740
H155	H	0.978143	-0.959852	-0.439938
O156	O	0.923511	-0.692008	-0.494393
C157	C	0.830070	-0.687061	-0.587650
C158	C	0.881864	-0.661275	-0.535874
H159	H	0.796375	-0.662224	-0.621190
H160	H	0.863811	-0.708976	-0.626217
H161	H	0.791643	-0.709077	-0.553829
H162	H	0.920302	-0.639234	-0.569635
H163	H	0.848078	-0.639387	-0.497305
H164	H	0.930894	-0.603279	-0.486920
O165	O	1.156364	-0.159666	-0.779331
C166	C	1.249829	-0.102688	-0.787494
C167	C	1.198019	-0.134308	-0.829702
H168	H	1.283531	-0.082185	-0.828201
H169	H	1.216099	-0.079172	-0.751537
H170	H	1.288248	-0.123326	-0.751488
H171	H	1.159589	-0.113707	-0.865748
H172	H	1.231794	-0.157826	-0.865613
H173	H	0.978021	-0.268469	-0.785170
H174	H	0.977895	-0.472573	-0.439862
H175	H	0.977847	-0.387450	-0.439837
O176	O	1.203454	-0.832839	-0.214980
C177	C	1.245234	-0.905114	-0.173342
C178	C	1.193385	-0.879290	-0.224996
H179	H	1.237100	-0.942674	-0.181411
H180	H	1.304571	-0.895874	-0.186345
H181	H	1.232377	-0.895906	-0.113983
H182	H	1.206175	-0.888484	-0.284372
H183	H	1.134063	-0.888532	-0.211929
H184	H	1.196014	-0.743968	-0.222259
H185	H	0.930998	-0.829142	-0.486939
H186	H	0.930957	-0.744036	-0.486924
