data_functionalizedCrystal
_audit_creation_method	'MofGen! by Chris Wilmer'
_symmetry_space_group_name_H-M	'P1'
_symmetry_Int_Tables_number	1
_symmetry_cell_setting	triclinic
loop_
_symmetry_equiv_pos_as_xyz
  x,y,z
_cell_length_a	10.489741
_cell_length_b	10.654550
_cell_length_c	9.130313
_cell_angle_alpha	90.000110
_cell_angle_beta	89.997564
_cell_angle_gamma	84.512038
loop_
_atom_site_label
_atom_site_type_symbol
_atom_site_fract_x
_atom_site_fract_y
_atom_site_fract_z
O1	O	-1.693961	-0.177187	-0.121705
O2	O	-1.322757	-0.193819	-0.121727
O3	O	-1.516894	-0.002767	-0.121710
O4	O	-1.499824	-0.368238	-0.121722
O5	O	-1.516891	-0.002773	0.121889
O6	O	-1.322755	-0.193824	0.121872
O7	O	-1.693958	-0.177192	0.121894
Cu8	Cu	-1.508356	-0.185508	0.144125
Cu9	Cu	-1.508359	-0.185502	-0.143958
O10	O	-1.499822	-0.368243	0.121877
C11	C	-1.275225	-0.192565	0.000069
C12	C	-1.133597	-0.188807	0.000061
C13	C	-1.515639	0.044029	0.000088
C14	C	-1.511889	0.183474	0.000082
C15	C	-1.741491	-0.178445	0.000094
C16	C	-1.883118	-0.182204	0.000093
C17	C	-1.065516	-0.067246	0.000079
C18	C	-0.973362	-0.124668	-0.120027
C19	C	-0.973394	-0.124702	0.120142
C20	C	-1.043309	-0.246278	-0.120144
C21	C	-1.043350	-0.246295	0.120133
C22	C	-0.951224	-0.303805	-0.000002
C23	C	-1.501076	-0.415039	0.000076
C24	C	-1.504826	-0.554484	0.000072
N25	N	-1.508364	-0.185512	0.346748
C26	C	-1.626194	0.262906	0.000094
C27	C	-1.622663	0.393928	0.000083
C28	C	-1.390513	0.366074	0.000056
C29	C	-1.394045	0.235054	0.000056
C30	C	-1.760224	0.278989	0.000115
C31	C	-1.756693	0.410011	0.000105
N32	N	-1.508362	-0.185489	-0.346581
C33	C	-1.594350	-0.100943	0.423408
C34	C	-1.594346	-0.100928	0.576744
C35	C	-1.422367	-0.270061	0.576749
C36	C	-1.422365	-0.270069	0.423415
C37	C	-1.693644	-0.003299	0.423406
C38	C	-1.693641	-0.003284	0.576743
H39	H	-1.115254	0.032684	-0.000068
C40	C	-1.831039	0.239290	-0.137597
N41	N	-1.884374	0.209389	-0.241321
C42	C	-1.664213	0.127120	0.367175
N43	N	-1.642043	0.225349	0.324821
C44	C	-1.327772	-0.363068	0.661096
N45	N	-1.256520	-0.433122	0.724625
C46	C	-1.084921	-0.315697	-0.257484
N47	N	-1.116267	-0.367976	-0.360930
C48	C	-1.817882	0.230822	0.142212
N49	N	-1.861307	0.194542	0.249242
C50	C	-1.260891	0.422825	0.000044
N51	N	-1.163257	0.465568	0.000042
C52	C	-1.085271	-0.315722	0.257316
N53	N	-1.116850	-0.368004	0.360654
H54	H	-0.901752	-0.403841	-0.000071
C55	C	-0.931488	-0.055177	-0.257196
N56	N	-0.899950	-0.002828	-0.360505
H57	H	-0.942440	-0.073247	0.221683
C58	C	-1.811440	0.471660	-0.141968
N59	N	-1.852681	0.518096	-0.248971
H60	H	-1.300967	0.170383	0.000027
H61	H	-1.807193	0.451745	0.102052
H62	H	-1.352338	-0.338921	0.361000
H63	H	-1.786257	-0.033931	0.375853
H64	H	-1.662650	0.087953	0.624291
H65	H	-1.791664	-0.024848	0.618365
