data_functionalizedCrystal
_audit_creation_method	'MofGen! by Chris Wilmer'
_symmetry_space_group_name_H-M	'P1'
_symmetry_Int_Tables_number	1
_symmetry_cell_setting	triclinic
loop_
_symmetry_equiv_pos_as_xyz
  x,y,z
_cell_length_a	14.971486
_cell_length_b	14.519709
_cell_length_c	13.448316
_cell_angle_alpha	89.992453
_cell_angle_beta	89.998199
_cell_angle_gamma	83.647137
loop_
_atom_site_label
_atom_site_type_symbol
_atom_site_fract_x
_atom_site_fract_y
_atom_site_fract_z
O1	O	1.187015	0.120184	-0.082580
O2	O	0.926623	0.134576	-0.082607
O3	O	1.063723	-0.006863	-0.082584
O4	O	1.049915	0.261623	-0.082603
O5	O	1.063706	-0.006871	0.082800
O6	O	0.926606	0.134567	0.082777
O7	O	1.186998	0.120175	0.082804
Cu8	Cu	1.056800	0.127371	0.097891
Cu9	Cu	1.056820	0.127381	-0.097694
O10	O	1.049898	0.261614	0.082781
C11	C	0.893289	0.133928	0.000082
C12	C	0.793991	0.131999	0.000071
C13	C	0.736812	0.215091	0.000067
C14	C	0.643512	0.213273	0.000082
C15	C	0.607392	0.128363	0.000094
C16	C	0.664578	0.045265	0.000102
C17	C	0.757876	0.047084	0.000094
C18	C	0.470113	0.041480	0.000116
C19	C	0.376808	0.039661	0.000122
C20	C	0.355749	0.207669	0.000104
C21	C	0.449047	0.209488	0.000096
C22	C	0.506227	0.126390	0.000101
C23	C	1.063071	-0.041226	0.000108
C24	C	1.061142	-0.143606	0.000109
C25	C	1.054043	-0.518498	0.000082
C26	C	1.056015	-0.414191	0.000090
C27	C	1.057593	-0.331055	0.000096
C28	C	1.059564	-0.226742	0.000102
C29	C	1.220331	0.120823	0.000113
C30	C	1.319630	0.122752	0.000117
C31	C	1.050550	0.295978	0.000087
C32	C	1.052478	0.398358	0.000080
N33	N	1.056792	0.127363	0.235456
N34	N	1.056835	0.127381	-0.235258
C35	C	1.117519	0.064759	0.287506
C36	C	1.117525	0.064759	0.391610
C37	C	1.056807	0.127366	0.443660
C38	C	0.996074	0.189973	0.391602
C39	C	0.996065	0.189968	0.287501
C40	C	0.996099	0.189979	0.608582
C41	C	0.996109	0.189985	0.712691
C42	C	1.117559	0.064769	0.712691
C43	C	1.117549	0.064765	0.608590
C44	C	1.056817	0.127373	0.556539
H45	H	0.635162	-0.023871	0.000126
H46	H	0.946641	0.240958	0.566206
H47	H	1.166972	0.013782	0.433989
O48	O	1.183062	-0.002753	0.768837
H49	H	1.252800	0.009134	0.748852
H50	H	0.804431	-0.020578	0.000097
H51	H	1.166994	0.013790	0.566210
O52	O	1.183004	-0.002771	0.231367
H53	H	1.225225	-0.046310	0.285055
H54	H	0.766213	0.284234	0.000056
O55	O	0.930554	0.257490	0.231370
H56	H	0.887015	0.218581	0.183972
O57	O	0.930589	0.257503	0.447743
H58	H	0.942095	0.329413	0.427735
O59	O	0.930614	0.257494	0.768846
H60	H	0.860873	0.245600	0.748891
O61	O	0.581837	0.302892	0.000077
H62	H	0.622628	0.362240	0.000055
H63	H	0.309188	0.275331	0.000103
O64	O	0.488012	0.301066	0.000095
H65	H	0.432579	0.358544	0.000107
H66	H	0.347403	-0.029481	0.000133
H67	H	0.516667	-0.026188	0.000122
