data_functionalizedCrystal
_audit_creation_method	'MofGen! by Chris Wilmer'
_symmetry_space_group_name_H-M	'P1'
_symmetry_Int_Tables_number	1
_symmetry_cell_setting	triclinic
loop_
_symmetry_equiv_pos_as_xyz
  x,y,z
_cell_length_a	18.627005
_cell_length_b	18.627468
_cell_length_c	18.627297
_cell_angle_alpha	90.003243
_cell_angle_beta	59.996223
_cell_angle_gamma	119.999911
loop_
_atom_site_label
_atom_site_type_symbol
_atom_site_fract_x
_atom_site_fract_y
_atom_site_fract_z
O1	O	0.633200	-0.492530	-0.021358
O2	O	0.486201	-0.388123	0.021254
O3	O	0.633203	-0.388130	-0.125754
O4	O	0.486198	-0.492522	0.125650
O5	O	0.513793	-0.507529	-0.125750
O6	O	0.366791	-0.507521	0.021259
O7	O	0.513790	-0.611928	-0.021354
Zn8	Zn	0.421332	-0.578682	-0.000047
Zn9	Zn	0.578660	-0.421369	-0.000053
O10	O	0.366788	-0.611921	0.125654
C11	C	0.355994	-0.387025	0.030948
C12	C	0.406394	-0.431322	0.024854
C13	C	0.398790	-0.300626	0.031552
C14	C	0.225990	-0.387032	0.030945
C15	C	0.137388	-0.431336	0.024849
C16	C	0.268982	-0.300633	0.031550
C17	C	0.355990	-0.257028	0.030942
C18	C	0.406386	-0.162331	0.024842
C19	C	0.268987	-0.430433	0.031555
O20	O	0.104387	-0.507538	0.021251
O21	O	-0.104391	-0.611939	-0.021376
O22	O	-0.104421	-0.611939	0.125639
O23	O	0.104418	-0.507539	-0.125763
O24	O	-0.104426	-0.492540	0.125635
O25	O	-0.104396	-0.492541	-0.021379
O26	O	0.104382	-0.388140	0.021248
Zn27	Zn	-0.000008	-0.421384	-0.000066
Zn28	Zn	-0.000001	-0.578696	-0.000062
O29	O	0.104412	-0.388141	-0.125766
C30	C	0.644000	-0.387029	-0.387053
C31	C	0.593601	-0.431327	-0.431352
C32	C	0.731011	-0.300633	-0.430460
C33	C	0.643999	-0.387030	-0.257053
C34	C	0.593599	-0.431328	-0.162354
C35	C	0.731011	-0.300634	-0.300656
C36	C	0.774008	-0.257033	-0.387056
C37	C	0.862614	-0.162339	-0.431358
C38	C	0.601200	-0.430432	-0.300654
C39	C	0.773997	-0.613038	-0.031067
C40	C	0.862602	-0.568741	-0.024975
C41	C	0.730998	-0.699436	-0.031674
C42	C	0.643992	-0.613034	-0.031058
C43	C	0.593595	-0.568732	-0.024957
C44	C	0.601191	-0.699432	-0.031665
C45	C	0.643988	-0.743035	-0.031062
C46	C	0.593587	-0.837731	-0.024965
C47	C	0.731003	-0.569632	-0.031670
O48	O	0.513782	0.125665	-0.021368
O49	O	0.366783	-0.125732	0.021241
O50	O	0.513791	0.021258	-0.125766
O51	O	0.366774	-0.021326	0.125639
O52	O	0.633196	0.021264	-0.125763
O53	O	0.486188	-0.125726	0.021244
O54	O	0.633187	0.125670	-0.021365
Zn55	Zn	0.578646	-0.000027	-0.000060
Zn56	Zn	0.421324	-0.000035	-0.000064
O57	O	0.486179	-0.021320	0.125642
O58	O	1.104432	0.125652	-0.492556
O59	O	0.895618	-0.125741	-0.388158
O60	O	0.895624	0.021260	-0.388150
O61	O	1.104427	-0.021349	-0.492564
O62	O	0.895627	0.021264	-0.507553
O63	O	0.895621	-0.125737	-0.507562
O64	O	1.104435	0.125655	-0.611959
Zn65	Zn	1.000029	-0.000040	-0.578718
Zn66	Zn	1.000024	-0.000045	-0.421399
O67	O	1.104430	-0.021345	-0.611967
O68	O	0.486192	-0.492528	-0.611947
O69	O	0.633203	-0.388130	-0.507556
O70	O	0.486198	-0.388125	-0.507546
O71	O	0.633197	-0.492533	-0.611958
O72	O	0.366791	-0.507522	-0.388140
O73	O	0.513795	-0.507526	-0.388151
O74	O	0.366785	-0.611924	-0.492541
Zn75	Zn	0.421332	-0.578682	-0.421388
Zn76	Zn	0.578656	-0.421372	-0.578710
O77	O	0.513789	-0.611929	-0.492552
C78	C	0.225982	-0.743019	0.386956
C79	C	0.137375	-0.837713	0.431257
C80	C	0.268978	-0.699420	0.430360
C81	C	0.355991	-0.613022	0.256953
C82	C	0.406392	-0.568723	0.162255
C83	C	0.398790	-0.569620	0.300555
C84	C	0.355989	-0.613024	0.386955
C85	C	0.406388	-0.568727	0.431254
C86	C	0.268980	-0.699418	0.300556
C87	C	-0.356071	-0.613049	0.386935
C88	C	-0.406479	-0.568753	0.431234
C89	C	-0.398870	-0.699446	0.430339
C90	C	-0.226047	-0.613044	0.256935
C91	C	-0.137432	-0.568742	0.162239
C92	C	-0.269043	-0.699440	0.300537
C93	C	-0.356062	-0.743044	0.386935
C94	C	-0.406460	-0.837739	0.431234
C95	C	-0.269052	-0.569643	0.300537
C96	C	0.356054	-0.257037	-0.387063
C97	C	0.406453	-0.162342	-0.431363
C98	C	0.398861	-0.300636	-0.430467
C99	C	0.226039	-0.387037	-0.257063
C100	C	0.137424	-0.431338	-0.162367
C101	C	0.269043	-0.430438	-0.300664
C102	C	0.356062	-0.387033	-0.387062
C103	C	0.406469	-0.431330	-0.431360
C104	C	0.269035	-0.300640	-0.300666
C105	C	0.773992	0.030914	-0.387058
C106	C	0.862594	0.024813	-0.431355
C107	C	0.730995	0.031510	-0.430463
C108	C	0.643990	0.030933	-0.257062
C109	C	0.593593	0.024853	-0.162366
C110	C	0.601191	0.031530	-0.300664
C111	C	0.643987	0.030907	-0.387061
C112	C	0.593588	0.024799	-0.431361
C113	C	0.730998	0.031536	-0.300661
O114	O	-0.513854	-1.125733	0.492435
O115	O	-0.366850	-0.874339	0.388036
O116	O	-0.513838	-1.021336	0.388021
O117	O	-0.366867	-0.978735	0.492449
O118	O	-0.633259	-1.021338	0.507421
O119	O	-0.486272	-0.874341	0.507435
O120	O	-0.633276	-1.125734	0.611834
Zn121	Zn	-0.578735	-1.000038	0.578591
Zn122	Zn	-0.421391	-1.000035	0.421278
O123	O	-0.486289	-0.978737	0.611848
C124	C	0.355981	-0.030971	0.386938
C125	C	0.406380	-0.024866	0.431238
C126	C	0.268975	-0.031572	0.430339
C127	C	0.355980	-0.030995	0.256938
C128	C	0.406376	-0.024915	0.162242
C129	C	0.268974	-0.031596	0.300537
C130	C	0.225980	-0.030973	0.386934
C131	C	0.137380	-0.024869	0.431230
C132	C	0.398778	-0.031594	0.300541
H133	H	0.233009	-0.501421	0.032534
H134	H	0.232990	-0.734424	0.265555
H135	H	0.531173	-0.734434	-0.032634
O136	O	0.482291	-0.258962	-0.515204
C137	C	0.459621	-0.306015	-0.568650
H138	H	0.374135	-0.347607	-0.535414
H139	H	0.486503	-0.350647	-0.578622
C140	C	0.619020	-0.189851	-0.699282
C141	C	0.514025	-0.240930	-0.658463
H142	H	0.652582	-0.149706	-0.754685
H143	H	0.634296	-0.158152	-0.663275
H144	H	0.641407	-0.227055	-0.707584
H145	H	0.491638	-0.203728	-0.650152
H146	H	0.498746	-0.272622	-0.694472
O147	O	0.225949	-0.258934	0.032853
C148	C	0.125440	-0.305961	0.108962
H149	H	0.117042	-0.347579	0.161220
H150	H	0.070839	-0.350566	0.092040
C151	C	0.111067	-0.189740	0.080183
C152	C	0.100755	-0.240851	0.144370
H153	H	0.095836	-0.149578	0.102023
H154	H	0.178780	-0.158058	0.028905
H155	H	0.065564	-0.226920	0.066087
H156	H	0.146265	-0.203672	0.158457
H157	H	0.033048	-0.272526	0.195651
O158	O	-0.226046	-0.484905	0.258861
C159	C	-0.197008	-0.431474	0.305934
H160	H	-0.186389	-0.464725	0.347549
H161	H	-0.258553	-0.421496	0.350552
C162	C	-0.109539	-0.300832	0.189759
C163	C	-0.096488	-0.341668	0.240864
H164	H	-0.047536	-0.245434	0.149622
H165	H	-0.129106	-0.336829	0.158045
H166	H	-0.160830	-0.292525	0.226949
H167	H	-0.045207	-0.349985	0.203675
H168	H	-0.076910	-0.305670	0.272570
H169	H	0.468797	-0.265623	0.032537
H170	H	0.766988	0.032485	-0.501454
O171	O	-0.226236	-0.741280	0.258758
C172	C	-0.297190	-0.817074	0.254402
H173	H	-0.356482	-0.809140	0.260058
H174	H	-0.336105	-0.876957	0.310659
C175	C	-0.169210	-0.839437	0.159063
C176	C	-0.242029	-0.829689	0.166003
H177	H	-0.135185	-0.847222	0.104537
H178	H	-0.121407	-0.788375	0.162000
H179	H	-0.201651	-0.889338	0.205949
H180	H	-0.209587	-0.779783	0.119124
H181	H	-0.289825	-0.880743	0.163056
H182	H	0.766984	-0.734441	-0.032654
H183	H	0.233049	-0.265632	-0.265663
H184	H	0.766984	-0.265629	-0.265643
O185	O	-0.482494	-0.741369	0.514984
C186	C	-0.562600	-0.817132	0.519744
H187	H	-0.530142	-0.838891	0.461373
H188	H	-0.613879	-0.801640	0.518192
C189	C	-0.664547	-0.864699	0.677581
C190	C	-0.624681	-0.891428	0.605893
H191	H	-0.702845	-0.910528	0.730723
H192	H	-0.610579	-0.813655	0.674375
H193	H	-0.707272	-0.851789	0.676275
H194	H	-0.581947	-0.904327	0.607193
H195	H	-0.678643	-0.942476	0.609101
H196	H	0.766995	-0.265633	-0.501450
H197	H	0.531166	-0.501410	-0.265641
O198	O	0.773935	-0.484985	-0.032712
C199	C	0.774337	-0.480179	0.042639
H200	H	0.770206	-0.538518	0.068577
H201	H	0.705991	-0.481746	0.095455
C202	C	0.877752	-0.322353	-0.013293
C203	C	0.872688	-0.394002	0.018560
H204	H	0.938417	-0.269194	-0.028144
H205	H	0.877479	-0.325590	-0.064057
H206	H	0.820792	-0.323671	0.030725
H207	H	0.929641	-0.392690	-0.025463
H208	H	0.872974	-0.390763	0.069316
O209	O	0.482216	-0.484887	0.258821
C210	C	0.459560	-0.431432	0.234434
H211	H	0.374072	-0.464666	0.278308
H212	H	0.486469	-0.421446	0.162912
C213	C	0.618939	-0.300818	0.191257
C214	C	0.513942	-0.341633	0.245149
H215	H	0.652487	-0.245424	0.197862
H216	H	0.634205	-0.336831	0.207683
H217	H	0.641349	-0.292504	0.131660
H218	H	0.491532	-0.349956	0.304745
H219	H	0.498673	-0.305619	0.228733
H220	H	0.531173	0.032503	-0.265654
O221	O	0.774057	0.032867	-0.258980
C222	C	0.874563	0.108977	-0.306047
H223	H	0.882931	0.161212	-0.347664
H224	H	0.929162	0.092051	-0.350662
C225	C	0.889014	0.080262	-0.189862
C226	C	0.899290	0.144421	-0.240971
H227	H	0.904270	0.102125	-0.149721
H228	H	0.821303	0.028983	-0.158153
H229	H	0.934514	0.066163	-0.227050
H230	H	0.853781	0.158511	-0.203784
H231	H	0.966994	0.195704	-0.272672
O232	O	0.225986	-0.515173	-0.258927
C233	C	0.125486	-0.568619	-0.234549
H234	H	0.117126	-0.535378	-0.278430
H235	H	0.070875	-0.578601	-0.163029
C236	C	0.111040	-0.699244	-0.191358
C237	C	0.100774	-0.658420	-0.245259
H238	H	0.095793	-0.754640	-0.197960
H239	H	0.178747	-0.663237	-0.207779
H240	H	0.065529	-0.707554	-0.131763
H241	H	0.146293	-0.650101	-0.304853
H242	H	0.033073	-0.694428	-0.228848
O243	O	0.226209	-0.032650	0.258650
C244	C	0.297159	0.042688	0.182886
H245	H	0.377313	0.068629	0.161073
H246	H	0.283199	0.095503	0.198407
C247	C	0.186799	-0.013266	0.135418
C248	C	0.285246	0.018591	0.108622
H249	H	0.179448	-0.028128	0.089609
H250	H	0.138996	-0.064022	0.186463
H251	H	0.175177	0.030752	0.148352
H252	H	0.296862	-0.025430	0.095699
H253	H	0.333050	0.069339	0.057573
H254	H	0.232991	-0.032544	0.501329
H255	H	0.232977	-0.734423	0.501355
O256	O	0.482383	-0.032644	0.258825
C257	C	0.562546	0.042708	0.254411
H258	H	0.530151	0.068660	0.308615
H259	H	0.613794	0.095510	0.187630
C260	C	0.664435	-0.013238	0.200006
C261	C	0.624646	0.018632	0.266585
H262	H	0.702745	-0.028087	0.207511
H263	H	0.610430	-0.064003	0.202976
H264	H	0.707135	0.030769	0.144361
H265	H	0.581937	-0.025378	0.322227
H266	H	0.678646	0.069390	0.263624
