data_functionalizedCrystal
_audit_creation_method	'MofGen! by Chris Wilmer'
_symmetry_space_group_name_H-M	'P1'
_symmetry_Int_Tables_number	1
_symmetry_cell_setting	triclinic
loop_
_symmetry_equiv_pos_as_xyz
  x,y,z
_cell_length_a	18.215405
_cell_length_b	11.169417
_cell_length_c	11.169409
_cell_angle_alpha	90.019824
_cell_angle_beta	89.960202
_cell_angle_gamma	89.974236
loop_
_atom_site_label
_atom_site_type_symbol
_atom_site_fract_x
_atom_site_fract_y
_atom_site_fract_z
Zn1	Zn	-0.292907	-1.834841	-0.678481
Zn2	Zn	-0.042907	-1.584841	-0.428481
Zn3	Zn	0.207093	-1.334841	-0.178481
Zn4	Zn	0.457093	-1.084841	0.071519
Zn5	Zn	-0.415999	-1.834679	-0.477771
Zn6	Zn	-0.165999	-1.584679	-0.227771
Zn7	Zn	0.084001	-1.334679	0.022229
Zn8	Zn	0.334001	-1.084679	0.272229
Zn9	Zn	-0.292952	-1.634127	-0.477815
Zn10	Zn	-0.042952	-1.384127	-0.227815
Zn11	Zn	0.207048	-1.134127	0.022185
Zn12	Zn	0.457048	-0.884127	0.272185
Zn13	Zn	-0.415939	-1.634083	-0.678416
Zn14	Zn	-0.165939	-1.384083	-0.428416
Zn15	Zn	0.084061	-1.134083	-0.178416
Zn16	Zn	0.334061	-0.884083	0.071584
O17	O	-0.354449	-1.734433	-0.578121
O18	O	-0.104449	-1.484433	-0.328121
O19	O	0.145551	-1.234433	-0.078121
O20	O	0.395551	-0.984433	0.171879
O21	O	-0.309242	-2.002769	-0.651865
O22	O	-0.059242	-1.752769	-0.401865
O23	O	0.190758	-1.502769	-0.151865
O24	O	0.440758	-1.252769	0.098135
O25	O	-0.399720	-1.808026	-0.309827
O26	O	-0.149720	-1.558026	-0.059827
O27	O	0.100280	-1.308026	0.190173
O28	O	0.350280	-1.058026	0.440173
O29	O	-0.189962	-1.660838	-0.504479
O30	O	0.060038	-1.410838	-0.254479
O31	O	0.310038	-1.160838	-0.004479
O32	O	0.560038	-0.910838	0.245521
O33	O	-0.399677	-2.002651	-0.504404
O34	O	-0.149677	-1.752651	-0.254404
O35	O	0.100323	-1.502651	-0.004404
O36	O	0.350323	-1.252651	0.245596
O37	O	-0.189929	-1.808302	-0.651907
O38	O	0.060071	-1.558302	-0.401907
O39	O	0.310071	-1.308302	-0.151907
O40	O	0.560071	-1.058302	0.098093
O41	O	-0.309319	-1.660681	-0.309859
O42	O	-0.059319	-1.410681	-0.059859
O43	O	0.190681	-1.160681	0.190141
O44	O	0.440681	-0.910681	0.440141
O45	O	-0.309260	-1.466171	-0.504416
O46	O	-0.059260	-1.216171	-0.254416
O47	O	0.190740	-0.966171	-0.004416
O48	O	0.440740	-0.716171	0.245584
O49	O	-0.399574	-1.660764	-0.846375
O50	O	-0.149574	-1.410764	-0.596375
O51	O	0.100426	-1.160764	-0.346375
O52	O	0.350426	-0.910764	-0.096375
O53	O	-0.399618	-1.466140	-0.651797
O54	O	-0.149618	-1.216140	-0.401797
O55	O	0.100382	-0.966140	-0.151797
O56	O	0.350382	-0.716140	0.098203
O57	O	-0.309184	-1.808260	-0.846422
O58	O	-0.059184	-1.558260	-0.596422
O59	O	0.190816	-1.308260	-0.346422
O60	O	0.440816	-1.058260	-0.096422
O61	O	-0.518975	-1.807984	-0.504342
O62	O	-0.268975	-1.557984	-0.254342
O63	O	-0.018975	-1.307984	-0.004342
O64	O	0.231025	-1.057984	0.245658
O65	O	-0.518931	-1.660607	-0.651755
O66	O	-0.268931	-1.410607	-0.401755
O67	O	-0.018931	-1.160607	-0.151755
O68	O	0.231069	-0.910607	0.098245
C69	C	-0.354438	-1.422608	-0.578105
C70	C	-0.104438	-1.172608	-0.328105
C71	C	0.145562	-0.922608	-0.078105
C72	C	0.395562	-0.672608	0.171895
C73	C	-0.354451	-1.289208	-0.578127
C74	C	-0.104451	-1.039208	-0.328127
C75	C	0.145549	-0.789208	-0.078127
C76	C	0.395549	-0.539208	0.171873
C77	C	-0.545656	-1.734306	-0.578063
C78	C	-0.295656	-1.484306	-0.328063
C79	C	-0.045656	-1.234306	-0.078063
C80	C	0.204344	-0.984306	0.171937
C81	C	-0.627454	-1.734362	-0.578078
C82	C	-0.377454	-1.484362	-0.328078
C83	C	-0.127454	-1.234362	-0.078078
C84	C	0.122546	-0.984362	0.171922
C85	C	-0.354368	-1.734525	-0.891163
C86	C	-0.104368	-1.484525	-0.641163
C87	C	0.145632	-1.234525	-0.391163
C88	C	0.395632	-0.984525	-0.141163
C89	C	-0.354333	-1.734564	-1.024563
C90	C	-0.104333	-1.484564	-0.774563
C91	C	0.145667	-1.234564	-0.524563
C92	C	0.395667	-0.984564	-0.274563
C93	C	-0.815647	-1.811281	-0.501462
C94	C	-0.565647	-1.561281	-0.251462
C95	C	-0.315647	-1.311281	-0.001462
C96	C	-0.065647	-1.061281	0.248538
C97	C	-0.892506	-1.811335	-0.501491
C98	C	-0.642506	-1.561335	-0.251491
C99	C	-0.392506	-1.311335	-0.001491
C100	C	-0.142506	-1.061335	0.248509
C101	C	-0.892500	-1.657738	-0.654866
C102	C	-0.642500	-1.407738	-0.404866
C103	C	-0.392500	-1.157738	-0.154866
C104	C	-0.142500	-0.907738	0.095134
C105	C	-0.815642	-1.657691	-0.654842
C106	C	-0.565642	-1.407691	-0.404842
C107	C	-0.315642	-1.157691	-0.154842
C108	C	-0.065642	-0.907691	0.095158
C109	C	-0.777218	-1.734461	-0.578133
C110	C	-0.527218	-1.484461	-0.328133
C111	C	-0.277218	-1.234461	-0.078133
C112	C	-0.027218	-0.984461	0.171867
C113	C	-0.930934	-1.734561	-0.578186
C114	C	-0.680934	-1.484561	-0.328186
C115	C	-0.430934	-1.234561	-0.078186
C116	C	-0.180934	-0.984561	0.171814
C117	C	-1.014268	-1.734619	-0.578218
C118	C	-0.764268	-1.484619	-0.328218
C119	C	-0.514268	-1.234619	-0.078218
C120	C	-0.264268	-0.984619	0.171782
C121	C	-0.693879	-1.734405	-0.578102
C122	C	-0.443879	-1.484405	-0.328102
C123	C	-0.193879	-1.234405	-0.078102
C124	C	0.056121	-0.984405	0.171898
C125	C	-0.162496	-1.734593	-0.578205
C126	C	0.087504	-1.484593	-0.328205
C127	C	0.337504	-1.234593	-0.078205
C128	C	0.587504	-0.984593	0.171795
C129	C	-0.080697	-1.734661	-0.578241
C130	C	0.169303	-1.484661	-0.328241
C131	C	0.419303	-1.234661	-0.078241
C132	C	0.669303	-0.984661	0.171759
C133	C	-0.354461	-2.047475	-0.578137
C134	C	-0.104461	-1.797475	-0.328137
C135	C	0.145539	-1.547475	-0.078137
C136	C	0.395539	-1.297475	0.171863
C137	C	-0.354466	-2.180875	-0.578144
C138	C	-0.104466	-1.930875	-0.328144
C139	C	0.145534	-1.680875	-0.078144
C140	C	0.395534	-1.430875	0.171856
C141	C	-0.354478	-1.734410	-0.266296
C142	C	-0.104478	-1.484410	-0.016296
C143	C	0.145522	-1.234410	0.233704
C144	C	0.395522	-0.984410	0.483704
C145	C	-0.354305	-1.734603	-0.132897
C146	C	-0.104305	-1.484603	0.117103
C147	C	0.145695	-1.234603	0.367103
C148	C	0.395695	-0.984603	0.617103
H149	H	-0.784363	-1.873793	-0.439002
H150	H	-0.534363	-1.623793	-0.189002
H151	H	-0.284363	-1.373793	0.060998
H152	H	-0.034363	-1.123793	0.310998
H153	H	-0.923794	-1.595233	-0.717318
H154	H	-0.673794	-1.345233	-0.467318
H155	H	-0.423794	-1.095233	-0.217318
H156	H	-0.173794	-0.845233	0.032682
H157	H	-0.923791	-1.873891	-0.439059
H158	H	-0.673791	-1.623891	-0.189059
H159	H	-0.423791	-1.373891	0.060941
H160	H	-0.173791	-1.123891	0.310941
N161	N	-0.774190	-1.574820	-0.737534
N162	N	-0.524190	-1.324820	-0.487534
N163	N	-0.274190	-1.074820	-0.237534
N164	N	-0.024190	-0.824820	0.012466
H165	H	-0.719671	-1.586444	-0.725879
H166	H	-0.469671	-1.336444	-0.475879
H167	H	-0.219671	-1.086444	-0.225879
H168	H	0.030329	-0.836444	0.024121
H169	H	-0.787567	-1.593457	-0.823272
H170	H	-0.537567	-1.343457	-0.573272
H171	H	-0.287567	-1.093457	-0.323272
H172	H	-0.037567	-0.843457	-0.073272
