data_functionalizedCrystal
_audit_creation_method	'MofGen! by Chris Wilmer'
_symmetry_space_group_name_H-M	'P1'
_symmetry_Int_Tables_number	1
_symmetry_cell_setting	triclinic
loop_
_symmetry_equiv_pos_as_xyz
  x,y,z
_cell_length_a	12.759401
_cell_length_b	14.908178
_cell_length_c	12.759393
_cell_angle_alpha	86.667587
_cell_angle_beta	89.981504
_cell_angle_gamma	93.314230
loop_
_atom_site_label
_atom_site_type_symbol
_atom_site_fract_x
_atom_site_fract_y
_atom_site_fract_z
Zn1	Zn	1.582097	-0.359132	-0.569812
Zn2	Zn	1.571841	-0.510032	-0.383977
Zn3	Zn	1.406396	-0.359179	-0.394149
Zn4	Zn	1.396242	-0.509963	-0.559623
O5	O	1.489144	-0.434577	-0.476890
O6	O	1.727757	-0.379159	-0.545168
O7	O	1.549852	-0.490070	-0.238302
O8	O	1.438245	-0.232918	-0.425972
O9	O	1.720222	-0.490024	-0.408636
O10	O	1.567332	-0.232883	-0.555031
O11	O	1.428300	-0.379239	-0.245775
O12	O	1.258029	-0.379172	-0.416092
O13	O	1.420939	-0.489906	-0.707999
O14	O	1.250569	-0.489952	-0.537665
O15	O	1.557486	-0.379091	-0.715485
O16	O	1.540006	-0.636278	-0.398756
O17	O	1.410994	-0.636227	-0.527803
C18	C	1.216178	-0.434560	-0.476877
C19	C	1.099400	-0.434575	-0.476895
C20	C	1.040675	-0.492350	-0.540081
C21	C	0.930950	-0.492361	-0.540092
C22	C	0.938686	-0.376820	-0.413721
C23	C	1.048409	-0.376804	-0.413717
C24	C	1.036208	-0.559060	-0.613037
C25	C	0.926483	-0.559071	-0.613047
C26	C	1.473313	-0.668989	-0.461093
C27	C	1.466637	-0.769272	-0.454370
C28	C	1.588408	-0.957528	-0.576270
C29	C	1.582138	-1.051753	-0.569957
C30	C	1.447824	-1.051948	-0.435435
C31	C	1.454094	-0.957723	-0.441749
C32	C	1.524389	-0.910516	-0.512167
C33	C	1.530663	-0.816290	-0.518475
C34	C	1.396344	-0.816487	-0.383960
C35	C	1.390075	-0.910711	-0.377646
C36	C	1.763176	-0.434594	-0.476904
C37	C	1.879952	-0.434601	-0.476910
C38	C	1.489224	-0.434486	-0.750930
C39	C	1.489258	-0.434447	-0.867709
C40	C	1.505065	-0.199248	-0.492773
C41	C	1.511850	-0.098966	-0.499541
C42	C	1.560368	-0.376740	-0.926471
C43	C	1.560395	-0.376708	-1.036198
C44	C	1.418199	-0.492096	-1.028390
C45	C	1.418168	-0.492123	-0.918666
C46	C	1.642466	-0.310124	-0.930980
C47	C	1.642493	-0.310092	-1.040706
C48	C	1.489130	-0.434602	-0.203921
C49	C	1.489316	-0.434387	-0.087160
H50	H	0.891988	-0.628931	-0.586414
F51	F	1.342470	-0.553530	-0.856131
F52	F	1.315259	-0.960962	-0.302713
F53	F	1.605479	-0.766051	-0.593416
F54	F	0.884408	-0.315339	-0.346488
H55	H	1.344219	-0.778199	-0.331760
H56	H	1.096220	-0.329752	-0.362272
F57	F	1.076813	-0.534705	-0.721078
H58	H	0.894163	-0.534130	-0.692078
H59	H	1.718053	-0.335173	-0.895258
H60	H	1.065759	-0.625401	-0.579287
H61	H	1.360318	-0.539052	-1.069892
F62	F	1.663230	-0.907285	-0.651203
H63	H	1.625398	-0.240252	-0.905926
H64	H	1.634264	-1.090026	-0.622161
H65	H	1.722605	-0.328806	-1.069225
F66	F	1.610157	-0.223356	-1.091052
F67	F	1.372997	-1.102203	-0.360518
