data_functionalizedCrystal
_audit_creation_method	'MofGen! by Chris Wilmer'
_symmetry_space_group_name_H-M	'P1'
_symmetry_Int_Tables_number	1
_symmetry_cell_setting	triclinic
loop_
_symmetry_equiv_pos_as_xyz
  x,y,z
_cell_length_a	10.489716
_cell_length_b	14.044220
_cell_length_c	12.503572
_cell_angle_alpha	86.156832
_cell_angle_beta	86.446389
_cell_angle_gamma	91.140993
loop_
_atom_site_label
_atom_site_type_symbol
_atom_site_fract_x
_atom_site_fract_y
_atom_site_fract_z
O1	O	1.714371	-0.128286	-0.089315
O2	O	2.047704	0.205047	0.244018
O3	O	2.381038	0.538380	0.577352
O4	O	1.344448	-0.140873	-0.089319
O5	O	1.677782	0.192461	0.244014
O6	O	2.011115	0.525794	0.577347
O7	O	1.523856	0.003442	-0.089307
O8	O	1.857190	0.336775	0.244027
O9	O	2.190523	0.670109	0.577360
O10	O	1.534963	-0.272601	-0.089328
O11	O	1.868296	0.060732	0.244005
O12	O	2.201630	0.394066	0.577339
O13	O	1.510366	-0.007430	0.089334
O14	O	1.843699	0.325904	0.422668
O15	O	2.177033	0.659237	0.756001
O16	O	1.330958	-0.151744	0.089322
O17	O	1.664291	0.181589	0.422655
O18	O	1.997625	0.514922	0.755988
O19	O	1.700881	-0.139158	0.089326
O20	O	2.034214	0.194176	0.422659
O21	O	2.367547	0.527509	0.755993
Cu22	Cu	1.514687	-0.146444	0.105635
Cu23	Cu	1.848021	0.186890	0.438968
Cu24	Cu	2.181354	0.520223	0.772302
Cu25	Cu	1.530642	-0.133587	-0.105629
Cu26	Cu	1.863975	0.199746	0.227705
Cu27	Cu	2.197308	0.533080	0.561038
O28	O	1.521473	-0.283473	0.089313
O29	O	1.854806	0.049861	0.422646
O30	O	2.188139	0.383194	0.755980
C31	C	1.290075	-0.145363	0.000001
C32	C	1.623408	0.187971	0.333334
C33	C	1.956742	0.521304	0.666667
C34	C	1.148157	-0.142533	-0.000001
C35	C	1.481491	0.190800	0.333333
C36	C	1.814824	0.524133	0.666666
C37	C	1.059460	-0.231032	-0.000010
C38	C	1.392793	0.102302	0.333323
C39	C	1.726127	0.435635	0.666657
C40	C	0.970719	-0.189628	0.088078
C41	C	1.304052	0.143706	0.421411
C42	C	1.637385	0.477039	0.754744
C43	C	0.984024	-0.178888	-0.088048
C44	C	1.317357	0.154445	0.245285
C45	C	1.650691	0.487778	0.578618
C46	C	1.061280	-0.101171	0.088160
C47	C	1.394613	0.232162	0.421493
C48	C	1.727946	0.565496	0.754826
C49	C	1.074597	-0.090440	-0.088045
C50	C	1.407931	0.242894	0.245288
C51	C	1.741264	0.576227	0.578621
C52	C	0.985897	-0.048972	0.000064
C53	C	1.319230	0.284361	0.333397
C54	C	1.652564	0.617695	0.666731
C55	C	1.512250	0.033353	0.000014
C56	C	1.845583	0.366687	0.333347
C57	C	2.178917	0.700020	0.666681
C58	C	1.497750	0.138677	0.000015
C59	C	1.831084	0.472011	0.333349
C60	C	2.164417	0.805344	0.666682
C61	C	1.755254	-0.134668	0.000003
C62	C	2.088587	0.198666	0.333337
C63	C	2.421921	0.531999	0.666670
C64	C	1.897172	-0.137497	-0.000002
C65	C	2.230506	0.195837	0.333331
C66	C	2.563839	0.529170	0.666664
C67	C	1.533079	-0.313384	-0.000010
C68	C	1.866412	0.019949	0.333323
C69	C	2.199746	0.353283	0.666657
C70	C	1.547579	-0.418707	-0.000018
C71	C	1.880913	-0.085374	0.333315
C72	C	2.214246	0.247959	0.666648
N73	N	1.503475	-0.155486	0.254226
N74	N	1.836809	0.177847	0.587560
N75	N	2.170142	0.511181	0.920893
C76	C	1.471243	0.331519	-0.000000
C77	C	1.804576	0.664852	0.333333
C78	C	2.137909	0.998185	0.666666
C79	C	1.574081	0.388457	-0.000003
C80	C	1.907414	0.721790	0.333331
C81	C	2.240748	1.055124	0.666664
C82	C	1.559332	0.495761	-0.000011
C83	C	1.892665	0.829094	0.333322
C84	C	2.225999	1.162427	0.666655
C85	C	1.485990	0.224205	0.000008
C86	C	1.819323	0.557538	0.333342
C87	C	2.152657	0.890872	0.666675
N88	N	1.541863	-0.124537	-0.254220
N89	N	1.875196	0.208796	0.079113
N90	N	2.208529	0.542129	0.412447
C91	C	1.486983	-0.168795	0.473341
C92	C	1.820316	0.164538	0.806674
C93	C	2.153650	0.497871	1.140007
C94	C	1.558351	-0.111231	0.526673
C95	C	1.891685	0.222102	0.860006
C96	C	2.225018	0.555436	1.193339
C97	C	1.549175	-0.118636	0.648595
C98	C	1.882508	0.214697	0.981929
C99	C	2.215841	0.548030	1.315262
C100	C	1.496158	-0.161391	0.351407
C101	C	1.829491	0.171942	0.684740
C102	C	2.162825	0.505276	1.018074
H103	H	1.091931	-0.308017	0.000066
H104	H	1.425265	0.025317	0.333400
H105	H	1.758598	0.358650	0.666733
H106	H	1.673206	0.356620	-0.000073
H107	H	2.006540	0.689953	0.333260
H108	H	2.339873	1.023287	0.666593
H109	H	1.626344	-0.056387	0.480765
H110	H	1.959678	0.276946	0.814098
H111	H	2.293011	0.610279	1.147431
H112	H	1.372131	0.363358	-0.000004
H113	H	1.705464	0.696692	0.333329
H114	H	2.038798	1.030025	0.666662
H115	H	1.418996	-0.223637	0.519243
H116	H	1.752330	0.109697	0.852576
H117	H	2.085663	0.443030	1.185910
H118	H	0.925402	-0.231518	0.162542
H119	H	1.258736	0.101815	0.495875
H120	H	1.592069	0.435148	0.829209
H121	H	0.953649	0.028061	0.000121
H122	H	1.286982	0.361395	0.333454
H123	H	1.620316	0.694728	0.666787
H124	H	1.119930	-0.048577	-0.162514
H125	H	1.453264	0.284756	0.170820
H126	H	1.786597	0.618089	0.504153
H127	H	0.949954	-0.211734	-0.162509
H128	H	1.283288	0.121599	0.170825
H129	H	1.616621	0.454933	0.504158
H130	H	1.095179	-0.068370	0.162704
H131	H	1.428513	0.264963	0.496038
H132	H	1.761846	0.598297	0.829371
