data_functionalizedCrystal
_audit_creation_method	'MofGen! by Chris Wilmer'
_symmetry_space_group_name_H-M	'P1'
_symmetry_Int_Tables_number	1
_symmetry_cell_setting	triclinic
loop_
_symmetry_equiv_pos_as_xyz
  x,y,z
_cell_length_a	6.817900
_cell_length_b	11.102289
_cell_length_c	12.200875
_cell_angle_alpha	92.492761
_cell_angle_beta	107.143593
_cell_angle_gamma	108.605707
loop_
_atom_site_label
_atom_site_type_symbol
_atom_site_fract_x
_atom_site_fract_y
_atom_site_fract_z
V1	V	-4.094469	-0.176128	-0.357661
O2	O	-4.053827	0.008167	-0.350853
O3	O	-4.071363	-0.348946	-0.355214
O4	O	-4.063810	-0.173549	-0.513649
O5	O	-4.061433	-0.168445	-0.191321
V6	V	-4.572521	-0.154069	-0.337765
O7	O	-4.367729	-0.224516	-0.401303
O8	O	-4.749458	-0.105680	-0.294123
O9	O	-4.372421	0.018750	-0.340212
O10	O	-4.730561	-0.338363	-0.344573
O11	O	-4.722955	-0.161752	-0.504105
O12	O	-4.379974	-0.156647	-0.181777
C13	C	-3.921943	-0.391071	-0.349572
C14	C	-3.984456	-0.532353	-0.348612
C15	C	-4.197559	-0.605206	-0.353883
C16	C	-4.256290	-0.737957	-0.352990
C17	C	-3.888790	-0.724989	-0.341551
C18	C	-3.830067	-0.592242	-0.342451
C19	C	-4.409730	-0.612693	-0.360483
C20	C	-4.468461	-0.745443	-0.359590
C21	C	-3.912306	-0.167333	-0.551670
C22	C	-3.968690	-0.166368	-0.679191
C23	C	-4.071879	-0.164603	-0.912665
C24	C	-4.014449	-0.165585	-0.782743
C25	C	-4.185183	0.060868	-0.345851
C26	C	-4.101910	0.202149	-0.346819
C27	C	-4.194819	-0.162867	-0.143750
C28	C	-4.117674	-0.163826	-0.016228
H29	H	-4.523506	-0.770349	-0.281231
H30	H	-4.517617	-0.593539	-0.443909
N31	N	-4.637677	-0.822203	-0.472153
H32	H	-4.676737	-0.761649	-0.527072
H33	H	-4.773099	-0.877388	-0.456290
N34	N	-3.600219	-0.513681	-0.336775
H35	H	-3.530128	-0.445914	-0.265455
H36	H	-3.605360	-0.470802	-0.408387
N37	N	-3.722272	-0.789584	-0.334886
H38	H	-3.669227	-0.776048	-0.403979
H39	H	-3.791947	-0.884708	-0.335077
N40	N	-4.414547	-0.542203	-0.253183
H41	H	-4.567167	-0.575170	-0.247830
H42	H	-4.370945	-0.447121	-0.257652
