data_functionalizedCrystal
_audit_creation_method	'MofGen! by Chris Wilmer'
_symmetry_space_group_name_H-M	'P1'
_symmetry_Int_Tables_number	1
_symmetry_cell_setting	triclinic
loop_
_symmetry_equiv_pos_as_xyz
  x,y,z
_cell_length_a	16.109301
_cell_length_b	16.109301
_cell_length_c	14.586319
_cell_angle_alpha	89.999213
_cell_angle_beta	89.994786
_cell_angle_gamma	83.461481
loop_
_atom_site_label
_atom_site_type_symbol
_atom_site_fract_x
_atom_site_fract_y
_atom_site_fract_z
O1	O	-0.106866	-1.103131	0.076185
O2	O	-0.120165	-0.861069	0.076200
O3	O	0.007515	-0.988749	0.076183
O4	O	-0.234547	-0.975450	0.076203
O5	O	0.007517	-0.988741	-0.076298
O6	O	-0.120164	-0.861060	-0.076281
O7	O	-0.106864	-1.103122	-0.076295
Cu8	Cu	-0.113514	-0.982090	-0.090211
Cu9	Cu	-0.113516	-0.982101	0.090115
O10	O	-0.234545	-0.975441	-0.076278
C11	C	-0.119626	-0.830090	-0.000038
C12	C	-0.118011	-0.737794	-0.000033
C13	C	0.038491	-0.988206	-0.000058
C14	C	0.130786	-0.986591	-0.000059
C15	C	-0.107404	-1.134101	-0.000055
C16	C	-0.109019	-1.226397	-0.000054
C17	C	-0.265521	-0.975984	-0.000035
C18	C	-0.357816	-0.977600	-0.000028
C19	C	0.353059	-1.058599	-0.000049
C20	C	0.439779	-1.057075	-0.000041
C21	C	0.419905	-0.905586	-0.000036
C22	C	0.333186	-0.907111	-0.000037
C23	C	0.299766	-0.983620	-0.000048
C24	C	0.473205	-0.980571	-0.000039
C25	C	0.567231	-0.978918	-0.000031
C26	C	0.205734	-0.985273	-0.000055
N27	N	-0.113512	-0.982089	-0.217042
C28	C	-0.190018	-0.515522	-0.000038
C29	C	-0.188494	-0.428801	-0.000044
C30	C	-0.037006	-0.448676	-0.000052
C31	C	-0.038530	-0.535394	-0.000053
C32	C	-0.115039	-0.568815	-0.000041
C33	C	-0.111990	-0.395376	-0.000046
C34	C	-0.110337	-0.301350	-0.000053
C35	C	-0.116693	-0.662847	-0.000036
C36	C	-0.056994	-1.038644	-0.452057
C37	C	-0.056992	-1.038647	-0.548038
C38	C	-0.170032	-0.925547	-0.548032
C39	C	-0.170030	-0.925541	-0.452052
C40	C	-0.113511	-0.982095	-0.404067
C41	C	-0.113512	-0.982103	-0.596028
C42	C	-0.113510	-0.982105	-0.700095
C43	C	-0.113512	-0.982092	-0.299993
N44	N	-0.113511	-0.982109	0.216947
H45	H	0.483168	-1.118130	-0.000040
H46	H	-0.010969	-1.084694	-0.587108
H47	H	-0.216049	-0.879503	-0.587111
O48	O	-0.261352	-0.377068	0.000126
C49	C	-0.307811	-0.392229	0.079091
H50	H	-0.263911	-0.421879	0.134284
H51	H	-0.341169	-0.330692	0.105600
H52	H	-0.355922	-0.436372	0.061243
H53	H	0.025285	-0.421454	-0.000067
H54	H	0.022530	-0.578788	-0.000058
O55	O	0.452272	-0.831217	-0.000153
C56	C	0.425058	-0.785517	-0.079133
H57	H	0.364923	-0.808162	-0.105463
H58	H	0.412997	-0.716279	-0.061369
H59	H	0.475246	-0.795155	-0.134432
H60	H	0.325851	-1.120897	-0.000056
O61	O	0.281496	-0.834217	0.000086
C62	C	0.296619	-0.787777	0.079070
H63	H	0.362407	-0.808205	0.105397
H64	H	0.290493	-0.718433	0.061313
H65	H	0.249188	-0.799140	0.134369
H66	H	-0.252317	-0.542730	-0.000035
O67	O	-0.002009	-1.093604	-0.405585
C68	C	0.047862	-1.143529	-0.468528
H69	H	0.048806	-1.109447	-0.536949
H70	H	0.114257	-1.156228	-0.440806
H71	H	0.020851	-1.205282	-0.478728
H72	H	-0.216053	-0.879487	-0.412977
