data_functionalizedCrystal
_audit_creation_method	'MofGen! by Chris Wilmer'
_symmetry_space_group_name_H-M	'P1'
_symmetry_Int_Tables_number	1
_symmetry_cell_setting	triclinic
loop_
_symmetry_equiv_pos_as_xyz
  x,y,z
_cell_length_a	12.759401
_cell_length_b	19.077068
_cell_length_c	12.759393
_cell_angle_alpha	87.737652
_cell_angle_beta	90.019596
_cell_angle_gamma	92.327199
loop_
_atom_site_label
_atom_site_type_symbol
_atom_site_fract_x
_atom_site_fract_y
_atom_site_fract_z
Zn1	Zn	1.589372	-0.280161	0.610735
Zn2	Zn	2.089372	0.219839	1.110735
Zn3	Zn	1.582165	-0.397875	0.442093
Zn4	Zn	2.082165	0.102125	0.942093
Zn5	Zn	1.413669	-0.280196	0.435076
Zn6	Zn	1.913669	0.219804	0.935076
Zn7	Zn	1.406568	-0.397823	0.617732
Zn8	Zn	1.906568	0.102177	1.117732
O9	O	1.497944	-0.339014	0.526409
O10	O	1.997944	0.160986	1.026409
O11	O	1.735437	-0.295783	0.588373
O12	O	2.235437	0.204217	1.088373
O13	O	1.559769	-0.382301	0.294144
O14	O	2.059769	0.117699	0.794144
O15	O	1.442964	-0.181701	0.452512
O16	O	1.942964	0.318299	0.952512
O17	O	1.730142	-0.382267	0.464473
O18	O	2.230142	0.117733	0.964473
O19	O	1.572053	-0.181675	0.581568
O20	O	2.072053	0.318325	1.081568
O21	O	1.435976	-0.295843	0.288988
O22	O	1.935976	0.204157	0.788988
O23	O	1.265706	-0.295792	0.459297
O24	O	1.765706	0.204208	0.959297
O25	O	1.430862	-0.382178	0.763822
O26	O	1.930862	0.117822	1.263822
O27	O	1.260489	-0.382212	0.593493
O28	O	1.760489	0.117788	1.093493
O29	O	1.565167	-0.295733	0.758682
O30	O	2.065167	0.204267	1.258682
O31	O	1.552884	-0.496358	0.471257
O32	O	2.052884	0.003642	0.971257
O33	O	1.423873	-0.496320	0.600298
O34	O	1.923873	0.003680	1.100298
C35	C	1.224977	-0.339001	0.526394
C36	C	1.724977	0.160999	1.026394
C37	C	1.108200	-0.339013	0.526413
C38	C	1.608200	0.160987	1.026413
C39	C	1.486854	-0.521877	0.537321
C40	C	1.986854	-0.021877	1.037321
C41	C	1.482206	-0.600107	0.542025
C42	C	1.982206	-0.100107	1.042025
C43	C	0.940913	-0.384091	0.596195
C44	C	1.440913	0.115909	1.096195
C45	C	1.050637	-0.384083	0.596184
C46	C	1.550637	0.115917	1.096184
C47	C	1.056032	-0.293952	0.456642
C48	C	1.556032	0.206048	0.956642
C49	C	0.946309	-0.293964	0.456649
C50	C	1.446309	0.206036	0.956649
C51	C	1.547244	-0.636856	0.477106
C52	C	2.047244	-0.136856	0.977106
C53	C	1.542878	-0.710361	0.481536
C54	C	2.042878	-0.210361	0.981536
C55	C	1.473470	-0.747116	0.550880
C56	C	1.973470	-0.247116	1.050880
C57	C	1.408429	-0.710361	0.615806
C58	C	1.908429	-0.210361	1.115806
C59	C	1.412801	-0.636858	0.611381
C60	C	1.912801	-0.136858	1.111381
C61	C	1.453192	-0.966949	0.571319
C62	C	1.953192	-0.466949	1.071319
C63	C	1.448824	-1.040458	0.575738
C64	C	1.948824	-0.540458	1.075738
C65	C	1.583275	-1.040452	0.441468
C66	C	2.083275	-0.540452	0.941468
C67	C	1.587635	-0.966947	0.437044
C68	C	2.087635	-0.466947	0.937044
C69	C	1.522599	-0.930199	0.501974
C70	C	2.022599	-0.430199	1.001974
N71	N	1.469003	-0.822250	0.555408
N72	N	1.969003	-0.322250	1.055408
N73	N	1.527071	-0.855066	0.497451
N74	N	2.027071	-0.355066	0.997451
C75	C	1.771976	-0.339027	0.526425
C76	C	2.271976	0.160973	1.026425
C77	C	1.888752	-0.339032	0.526432
C78	C	2.388752	0.160968	1.026432
C79	C	1.498026	-0.338946	0.800438
C80	C	1.998026	0.161054	1.300438
C81	C	1.498061	-0.338917	0.917213
C82	C	1.998061	0.161083	1.417213
C83	C	1.509105	-0.155436	0.515477
C84	C	2.009105	0.344564	1.015477
C85	C	1.513861	-0.077207	0.510818
C86	C	2.013861	0.422793	1.010818
C87	C	1.497925	-0.339030	0.253443
C88	C	1.997925	0.160970	0.753443
C89	C	1.498105	-0.338861	0.136656
C90	C	1.998105	0.161139	0.636656
C91	C	1.568000	-0.293898	0.969400
C92	C	2.068000	0.206102	1.469400
C93	C	1.568019	-0.293868	1.079122
C94	C	2.068019	0.206132	1.579122
C95	C	1.428159	-0.383882	1.084462
C96	C	1.928159	0.116118	1.584462
C97	C	1.428135	-0.383908	0.974742
C98	C	1.928135	0.116092	1.474742
H99	H	0.894053	-0.420788	0.653016
H100	H	1.394053	0.079212	1.153016
H101	H	1.603759	-0.606935	0.420633
H102	H	2.103759	-0.106935	0.920633
H103	H	1.392315	-1.070381	0.632225
H104	H	1.892315	-0.570381	1.132225
H105	H	1.624969	-0.257207	1.121607
H106	H	2.124969	0.242793	1.621607
Cl107	Cl	1.674911	-0.920746	0.349879
Cl108	Cl	2.174911	-0.420746	0.849879
H109	H	1.093101	-0.420774	0.652992
H110	H	1.593101	0.079226	1.152992
Cl111	Cl	1.128396	-0.237295	0.368926
Cl112	Cl	1.628396	0.262705	0.868926
H113	H	0.903839	-0.257271	0.399834
H114	H	1.403839	0.242729	0.899834
H115	H	1.371230	-0.420514	1.131315
H116	H	1.871230	0.079486	1.631315
H117	H	1.595838	-0.740278	0.428671
H118	H	2.095838	-0.240278	0.928671
H119	H	1.371175	-0.420568	0.932251
H120	H	1.871175	0.079432	1.432251
H121	H	1.351920	-0.740293	0.672273
H122	H	1.851920	-0.240293	1.172273
H123	H	1.636225	-1.070380	0.388607
H124	H	2.136225	-0.570380	0.888607
H125	H	1.400235	-0.937034	0.624186
H126	H	1.900235	-0.437034	1.124186
Cl127	Cl	1.331039	-0.590659	0.693001
Cl128	Cl	1.831039	-0.090659	1.193001
H129	H	1.624936	-0.257261	0.922563
H130	H	2.124936	0.242739	1.422563
