data_functionalizedCrystal
_audit_creation_method	'MofGen! by Chris Wilmer'
_symmetry_space_group_name_H-M	'P1'
_symmetry_Int_Tables_number	1
_symmetry_cell_setting	triclinic
loop_
_symmetry_equiv_pos_as_xyz
  x,y,z
_cell_length_a	12.759401
_cell_length_b	12.759400
_cell_length_c	12.759393
_cell_angle_alpha	89.968436
_cell_angle_beta	89.981504
_cell_angle_gamma	90.014845
loop_
_atom_site_label
_atom_site_type_symbol
_atom_site_fract_x
_atom_site_fract_y
_atom_site_fract_z
Zn1	Zn	1.606255	-0.418200	-0.593981
Zn2	Zn	1.606150	-0.593919	-0.418301
Zn3	Zn	1.430557	-0.418255	-0.418321
Zn4	Zn	1.430546	-0.593838	-0.593943
O5	O	1.518377	-0.506053	-0.506137
O6	O	1.753262	-0.441520	-0.570685
O7	O	1.582818	-0.570673	-0.271283
O8	O	1.453913	-0.271226	-0.441647
O9	O	1.753185	-0.570620	-0.441614
O10	O	1.582998	-0.271186	-0.570704
O11	O	1.453811	-0.441614	-0.271297
O12	O	1.283535	-0.441535	-0.441609
O13	O	1.453894	-0.570482	-0.740969
O14	O	1.283527	-0.570536	-0.570638
O15	O	1.582987	-0.441442	-0.740997
O16	O	1.582807	-0.740929	-0.441577
O17	O	1.453791	-0.740870	-0.570620
C18	C	1.245410	-0.506033	-0.506122
C19	C	1.128633	-0.506050	-0.506141
C20	C	1.073794	-0.573328	-0.573215
C21	C	0.964070	-0.573342	-0.573227
C22	C	0.964034	-0.438796	-0.439081
C23	C	1.073756	-0.438778	-0.439075
C24	C	1.128672	-0.640600	-0.640281
C25	C	1.073833	-0.707885	-0.707360
C26	C	0.964109	-0.707898	-0.707371
C27	C	0.909224	-0.640627	-0.640304
C28	C	1.518315	-0.779020	-0.506115
C29	C	1.518384	-0.895797	-0.506140
C30	C	1.585637	-0.950655	-0.439022
C31	C	1.585702	-1.060379	-0.439054
C32	C	1.451252	-1.060377	-0.573327
C33	C	1.451193	-0.950655	-0.573299
C34	C	1.652828	-0.895797	-0.371864
C35	C	1.720086	-0.950655	-0.304739
C36	C	1.720150	-1.060379	-0.304771
C37	C	1.652957	-1.115245	-0.371929
C38	C	1.792410	-0.506073	-0.506152
C39	C	1.909187	-0.506082	-0.506158
C40	C	1.518451	-0.505947	-0.780170
C41	C	1.518482	-0.505902	-0.896947
C42	C	1.518468	-0.232019	-0.506182
C43	C	1.518507	-0.115243	-0.506201
C44	C	1.585710	-0.438704	-0.951825
C45	C	1.585735	-0.438666	-1.061549
C46	C	1.451301	-0.573033	-1.061507
C47	C	1.451272	-0.573064	-0.951785
C48	C	1.652920	-0.371541	-0.896987
C49	C	1.720155	-0.304339	-0.951866
C50	C	1.720180	-0.304301	-1.061590
C51	C	1.652970	-0.371465	-1.116436
C52	C	1.518364	-0.506083	-0.233169
C53	C	1.518537	-0.505832	-0.116393
H54	H	0.919462	-0.762676	-0.761998
C55	C	1.793284	-0.231299	-1.120985
C56	C	1.852152	-0.172510	-1.049471
C57	C	1.919522	-0.105262	-1.104144
H58	H	1.753242	-0.185408	-1.163799
H59	H	1.839112	-0.271458	-1.163759
H60	H	1.806329	-0.132353	-1.006715
H61	H	1.892215	-0.218373	-1.006655
H62	H	1.965350	-0.145421	-1.146919
H63	H	1.879471	-0.059378	-1.146956
H64	H	1.959478	-0.065372	-1.055631
H65	H	1.118528	-0.762647	-0.761970
C66	C	1.378069	-0.891276	-0.646217
C67	C	1.319217	-0.962800	-0.705016
C68	C	1.251841	-0.908139	-0.772198
H69	H	1.418107	-0.848406	-0.692104
H70	H	1.332232	-0.848559	-0.606009
H71	H	1.365048	-1.005500	-0.745220
H72	H	1.279157	-1.005672	-0.659156
H73	H	1.206004	-0.865421	-0.731990
H74	H	1.291888	-0.865271	-0.818078
H75	H	1.211895	-0.956659	-0.812093
H76	H	1.396545	-1.105058	-0.628002
H77	H	1.652780	-0.806454	-0.371827
H78	H	1.652984	-0.371417	-1.205780
H79	H	1.652910	-0.371567	-0.807644
C80	C	1.793074	-0.231528	-0.892135
C81	C	1.778684	-0.245959	-0.784298
C82	C	1.845848	-0.178910	-0.729245
H83	H	1.777791	-0.160888	-0.910006
H84	H	1.863687	-0.246912	-0.910058
H85	H	1.708087	-0.230568	-0.766382
H86	H	1.793975	-0.316585	-0.766396
H87	H	1.916461	-0.194294	-0.747168
H88	H	1.830559	-0.108274	-0.747124
H89	H	1.836100	-0.188699	-0.656073
H90	H	1.774798	-0.905977	-0.250068
C91	C	0.790093	-0.640794	-0.640471
C92	C	0.753811	-0.714110	-0.713569
C93	C	0.644077	-0.714291	-0.713755
H94	H	0.765195	-0.573072	-0.658806
H95	H	0.765166	-0.658927	-0.572672
H96	H	0.778728	-0.695971	-0.781353
H97	H	0.778680	-0.781843	-0.695250
H98	H	0.619149	-0.732424	-0.645956
H99	H	0.619189	-0.646565	-0.732088
H100	H	0.619445	-0.764041	-0.763343
H101	H	1.396513	-0.627767	-0.907102
C102	C	1.247800	-0.640704	-0.640462
C103	C	1.284126	-0.713997	-0.713567
C104	C	1.393859	-0.714112	-0.713769
H105	H	1.272721	-0.658820	-0.572690
H106	H	1.272678	-0.572943	-0.658803
H107	H	1.259259	-0.781743	-0.695221
H108	H	1.259235	-0.695897	-0.781349
H109	H	1.418737	-0.646351	-0.732109
H110	H	1.418769	-0.732227	-0.645993
H111	H	1.418520	-0.763833	-0.763376
C112	C	0.904258	-0.365891	-0.366296
C113	C	0.796430	-0.380331	-0.380633
C114	C	0.741334	-0.313204	-0.313586
H115	H	0.922119	-0.295270	-0.381718
H116	H	0.922155	-0.381199	-0.295657
H117	H	0.778540	-0.365016	-0.451256
H118	H	0.778538	-0.450939	-0.365203
H119	H	0.759231	-0.328511	-0.242947
H120	H	0.759204	-0.242587	-0.329014
H121	H	0.668168	-0.322999	-0.323298
H122	H	1.396582	-0.627714	-1.106171
H123	H	1.774922	-1.105041	-0.250123
H124	H	1.118407	-0.383987	-0.384466
H125	H	1.653024	-1.204589	-0.371958
