data_functionalizedCrystal
_audit_creation_method	'MofGen! by Chris Wilmer'
_symmetry_space_group_name_H-M	'P1'
_symmetry_Int_Tables_number	1
_symmetry_cell_setting	triclinic
loop_
_symmetry_equiv_pos_as_xyz
  x,y,z
_cell_length_a	21.395362
_cell_length_b	15.297327
_cell_length_c	21.395355
_cell_angle_alpha	99.659679
_cell_angle_beta	89.956060
_cell_angle_gamma	99.725883
loop_
_atom_site_label
_atom_site_type_symbol
_atom_site_fract_x
_atom_site_fract_y
_atom_site_fract_z
Zn1	Zn	0.914743	-0.358918	-0.397693
Zn2	Zn	0.896524	-0.509774	-0.311034
Zn3	Zn	0.809953	-0.358960	-0.292899
Zn4	Zn	0.791803	-0.509792	-0.415741
O5	O	0.853256	-0.434361	-0.354342
O6	O	1.000007	-0.378904	-0.386234
O7	O	0.885011	-0.489778	-0.220951
O8	O	0.839075	-0.232697	-0.291658
O9	O	0.986621	-0.489737	-0.322566
O10	O	0.916063	-0.232666	-0.368649
O11	O	0.821408	-0.378975	-0.207628
O12	O	0.719864	-0.378993	-0.309158
O13	O	0.808140	-0.489769	-0.501023
O14	O	0.706530	-0.489810	-0.399409
O15	O	0.898464	-0.378922	-0.487764
O16	O	0.867411	-0.636034	-0.340066
O17	O	0.790473	-0.636048	-0.416993
C18	C	0.690462	-0.434409	-0.354275
C19	C	0.620816	-0.434451	-0.354263
C20	C	0.581167	-0.492229	-0.401206
C21	C	0.515734	-0.492207	-0.401232
C22	C	0.489952	-0.434416	-0.354304
C23	C	0.529610	-0.376627	-0.307357
C24	C	0.595042	-0.376644	-0.307337
C25	C	0.387100	-0.427148	-0.297026
C26	C	0.321669	-0.427137	-0.297046
C27	C	0.288138	-0.434357	-0.354366
C28	C	0.320045	-0.441608	-0.411670
C29	C	0.385477	-0.441625	-0.411650
C30	C	0.419003	-0.434390	-0.354321
C31	C	0.177539	-0.492115	-0.401340
C32	C	0.112106	-0.492086	-0.401366
C33	C	0.125983	-0.376510	-0.307486
C34	C	0.191415	-0.376534	-0.307465
C35	C	0.217189	-0.434341	-0.354392
C36	C	0.825013	-0.668778	-0.382470
C37	C	0.812988	-0.769063	-0.394524
C38	C	0.939459	-1.051594	-0.268402
C39	C	0.950757	-0.957372	-0.257073
C40	C	0.916316	-0.910290	-0.291435
C41	C	0.870575	-0.957440	-0.337127
C42	C	0.859272	-1.051671	-0.348454
C43	C	0.836129	-0.910367	-0.371487
C44	C	0.790387	-0.957517	-0.417179
C45	C	0.779087	-1.051739	-0.428503
C46	C	0.813528	-1.098821	-0.394142
C47	C	0.847431	-0.816135	-0.360160
C48	C	0.767244	-0.816212	-0.440212
C49	C	0.755946	-0.910435	-0.451540
C50	C	1.016685	-0.434314	-0.354409
C51	C	1.086328	-0.434294	-0.354438
C52	C	0.853310	-0.434343	-0.517763
C53	C	0.853333	-0.434335	-0.587403
C54	C	0.881626	-0.199029	-0.326118
C55	C	0.893716	-0.098744	-0.314090
C56	C	0.900363	-0.376615	-0.613213
C57	C	0.900367	-0.376576	-0.678643
C58	C	0.853345	-0.434273	-0.718264
C59	C	0.806307	-0.491998	-0.692447
C60	C	0.806301	-0.492029	-0.627017
C61	C	0.838610	-0.515514	-0.831685
C62	C	0.838620	-0.515485	-0.897115
C63	C	0.853361	-0.434178	-0.920074
C64	C	0.868104	-0.352898	-0.877594
C65	C	0.868098	-0.352928	-0.812164
C66	C	0.853346	-0.434246	-0.789213
C67	C	0.900398	-0.376411	-1.016830
C68	C	0.900397	-0.376370	-1.082262
C69	C	0.806339	-0.491801	-1.096065
C70	C	0.806338	-0.491833	-1.030634
C71	C	0.853370	-0.434139	-0.991020
C72	C	0.853246	-0.434314	-0.191548
C73	C	0.853374	-0.434068	-0.121878
H74	H	0.627326	-0.329591	-0.269110
H75	H	0.739198	-0.777879	-0.468191
H76	H	0.414396	-0.421264	-0.250345
H77	H	0.768020	-0.538973	-0.724710
C78	C	0.097634	-0.312937	-0.255866
H79	H	0.130623	-0.278525	-0.227906
H80	H	0.067914	-0.347381	-0.232670
H81	H	0.076883	-0.273665	-0.275181
H82	H	0.826619	-0.581669	-0.931697
H83	H	0.967493	-1.089937	-0.240426
H84	H	0.079824	-0.539135	-0.439596
H85	H	0.884674	-0.777754	-0.322957
H86	H	0.223698	-0.329489	-0.269237
H87	H	0.938660	-0.329635	-0.580963
H88	H	0.880108	-0.286690	-0.896285
H89	H	0.938664	-0.329568	-0.699661
H90	H	0.987999	-0.918986	-0.219871
C91	C	0.728773	-1.103606	-0.478762
H92	H	0.726973	-1.166466	-0.480583
H93	H	0.739782	-1.088120	-0.519008
H94	H	0.688520	-1.088238	-0.467692
H95	H	0.925517	-0.833570	-0.282208
H96	H	0.804334	-1.175544	-0.403365
H97	H	0.718703	-0.948837	-0.488743
H98	H	0.768000	-0.539030	-0.606004
H99	H	0.880101	-0.286747	-0.777580
C100	C	0.952121	-0.312937	-0.973251
H101	H	0.980125	-0.278542	-0.997995
H102	H	0.975262	-0.347447	-0.951889
H103	H	0.932881	-0.273645	-0.942990
H104	H	0.938694	-0.329362	-1.103273
C105	C	0.501253	-0.313058	-0.255738
H106	H	0.456604	-0.321329	-0.262469
H107	H	0.519307	-0.252460	-0.257702
H108	H	0.510345	-0.326180	-0.215194
H109	H	0.602147	-0.539299	-0.439419
H110	H	0.483445	-0.539257	-0.439461
C111	C	0.754620	-0.555273	-1.139641
H112	H	0.761361	-0.546994	-1.182307
H113	H	0.714109	-0.542094	-1.127305
H114	H	0.756489	-0.615898	-1.136203
H115	H	0.768044	-0.538841	-1.009621
C116	C	0.822260	-0.604941	-0.806435
H117	H	0.813449	-0.653337	-0.841103
H118	H	0.786062	-0.603662	-0.780780
H119	H	0.857152	-0.612992	-0.781853
C120	C	0.286577	-0.419160	-0.234015
H121	H	0.315918	-0.414844	-0.199873
H122	H	0.254800	-0.470848	-0.234654
H123	H	0.267373	-0.366849	-0.228626
H124	H	0.292746	-0.447486	-0.458346
C125	C	0.420574	-0.449587	-0.474678
H126	H	0.391239	-0.453878	-0.508821
H127	H	0.439783	-0.501888	-0.480074
H128	H	0.452350	-0.397887	-0.474026
H129	H	0.198525	-0.539180	-0.439553
