data_functionalizedCrystal
_audit_creation_method	'MofGen! by Chris Wilmer'
_symmetry_space_group_name_H-M	'P1'
_symmetry_Int_Tables_number	1
_symmetry_cell_setting	triclinic
loop_
_symmetry_equiv_pos_as_xyz
  x,y,z
_cell_length_a	19.288840
_cell_length_b	10.908937
_cell_length_c	18.366186
_cell_angle_alpha	89.993426
_cell_angle_beta	89.983729
_cell_angle_gamma	71.605986
loop_
_atom_site_label
_atom_site_type_symbol
_atom_site_fract_x
_atom_site_fract_y
_atom_site_fract_z
O1	O	0.903137	0.160147	-0.060667
O2	O	0.698409	0.181804	-0.060641
O3	O	0.827911	-0.016116	-0.060655
O4	O	0.773635	0.358067	-0.060653
O5	O	0.827894	-0.016126	0.060444
O6	O	0.698392	0.181795	0.060458
O7	O	0.903120	0.160137	0.060433
Zn8	Zn	0.800753	0.170964	0.079673
Zn9	Zn	0.800776	0.170977	-0.079881
O10	O	0.773618	0.358058	0.060447
C11	C	0.672602	0.181108	-0.000088
C12	C	0.595734	0.179032	-0.000078
C13	C	0.559653	0.178040	-0.066091
C14	C	0.487430	0.176076	-0.066100
C15	C	0.451295	0.175077	-0.000092
C16	C	0.487383	0.176076	0.065929
C17	C	0.559603	0.178054	0.065936
C18	C	0.350883	0.096674	0.050468
C19	C	0.278666	0.094688	0.050458
C20	C	0.228545	0.168983	-0.000112
C21	C	0.250652	0.245246	-0.050684
C22	C	0.322872	0.247224	-0.050677
C23	C	0.372985	0.172933	-0.000093
C24	C	0.114151	0.165862	-0.066139
C25	C	0.041925	0.163905	-0.066145
C26	C	0.041882	0.163893	0.065887
C27	C	0.114104	0.165863	0.065891
C28	C	0.150236	0.166841	-0.000124
C29	C	0.832975	-0.063993	-0.000107
C30	C	0.848080	-0.206634	-0.000112
C31	C	0.808567	-0.402741	-0.000109
C32	C	0.792954	-0.255313	-0.000106
C33	C	0.928926	0.160833	-0.000122
C34	C	1.005795	0.162909	-0.000136
C35	C	0.768554	0.405934	-0.000103
C36	C	0.753448	0.548575	-0.000103
N37	N	0.800743	0.170955	0.188564
N38	N	0.800792	0.170976	-0.188772
C39	C	0.858097	0.083358	0.226658
C40	C	0.858102	0.083353	0.302886
C41	C	0.800757	0.170965	0.341017
C42	C	0.743393	0.258568	0.302913
C43	C	0.743386	0.258563	0.226687
C44	C	0.778133	0.288049	0.461778
C45	C	0.778145	0.288056	0.538003
C46	C	0.800775	0.170981	0.576124
C47	C	0.823409	0.053894	0.538011
C48	C	0.823402	0.053889	0.461784
C49	C	0.800758	0.170980	0.423671
C50	C	0.858138	0.083372	0.696873
C51	C	0.858139	0.083364	0.773102
C52	C	0.743432	0.258591	0.773128
C53	C	0.743429	0.258587	0.696901
C54	C	0.800786	0.170979	0.658777
H55	H	0.209843	0.305749	-0.091861
Br56	Br	0.935977	-0.035537	0.824806
H57	H	0.904808	0.012018	0.333908
H58	H	0.867316	-0.470205	-0.000113
H59	H	0.759692	0.383392	0.430747
H60	H	0.588979	0.178863	0.119694
H61	H	0.734201	-0.187852	-0.000093
Br62	Br	0.665563	0.377464	0.354659
H63	H	0.696728	0.329922	0.665882
Br64	Br	-0.007154	0.162557	0.155471
Br65	Br	0.747436	0.446957	0.589721
Br66	Br	0.935976	-0.035528	0.645133
Br67	Br	0.946008	-0.319059	-0.000120
Br68	Br	0.163189	0.167199	-0.155728
Br69	Br	0.352873	0.350722	-0.119305
Br70	Br	0.665542	0.377452	0.174983
H71	H	0.694700	-0.383960	-0.000090
H72	H	0.012548	0.163106	-0.119903
H73	H	0.589067	0.178837	-0.119846
Br74	Br	0.163075	0.167206	0.155485
Br75	Br	0.854132	-0.105005	0.589736
H76	H	0.904799	0.012020	0.195620
H77	H	0.260674	0.032584	0.091634
H78	H	0.696738	0.329922	0.804174
Br79	Br	0.438452	0.174732	-0.155696
H80	H	0.841829	-0.041447	0.430755
H81	H	0.391688	0.036171	0.091652
Br82	Br	0.438342	0.174735	0.155512
