data_functionalizedCrystal
_audit_creation_method	'MofGen! by Chris Wilmer'
_symmetry_space_group_name_H-M	'P1'
_symmetry_Int_Tables_number	1
_symmetry_cell_setting	triclinic
loop_
_symmetry_equiv_pos_as_xyz
  x,y,z
_cell_length_a	14.044220
_cell_length_b	7.088928
_cell_length_c	8.559649
_cell_angle_alpha	84.684688
_cell_angle_beta	81.483771
_cell_angle_gamma	96.791398
loop_
_atom_site_label
_atom_site_type_symbol
_atom_site_fract_x
_atom_site_fract_y
_atom_site_fract_z
O1	O	1.240767	0.158770	0.366450
O2	O	0.965803	0.158819	0.352688
O3	O	1.127509	0.158788	0.130420
O4	O	1.079060	0.158801	0.588718
O5	O	1.105838	-0.159183	0.160082
O6	O	0.944132	-0.159152	0.382350
O7	O	1.219096	-0.159201	0.396112
Cu8	Cu	1.079635	-0.188210	0.391939
Cu9	Cu	1.105264	0.187828	0.356861
O10	O	1.057389	-0.159171	0.618380
C11	C	0.920092	-0.000161	0.361496
C12	C	0.816175	-0.000142	0.343530
N13	N	1.061616	-0.452695	0.416612
N14	N	1.123291	0.452312	0.332177
C15	C	0.625902	-0.000181	0.310692
C16	C	0.558993	-0.000185	0.438099
C17	C	0.453119	-0.000207	0.419828
C18	C	0.731786	-0.000159	0.328961
C19	C	1.264807	-0.000218	0.387304
C20	C	1.368725	-0.000224	0.405268
C21	C	1.120346	-0.000195	0.086245
C22	C	1.131275	-0.000186	-0.089579
C23	C	1.064553	-0.000184	0.662555
C24	C	1.053625	-0.000180	0.838377
H25	H	0.581226	-0.000173	0.560898
H26	H	0.978783	-0.000173	-0.088794
H27	H	1.206120	-0.000215	-0.162414
C28	C	1.209632	0.562605	0.213929
N29	N	1.274662	0.645678	0.124864
H30	H	0.997704	0.465671	0.504120
C31	C	0.595868	-0.000181	0.144805
N32	N	0.573237	-0.000171	0.019860
