data_functionalizedCrystal
_audit_creation_method	'MofGen! by Chris Wilmer'
_symmetry_space_group_name_H-M	'P1'
_symmetry_Int_Tables_number	1
_symmetry_cell_setting	triclinic
loop_
_symmetry_equiv_pos_as_xyz
  x,y,z
_cell_length_a	19.120904
_cell_length_b	15.297475
_cell_length_c	15.297327
_cell_angle_alpha	88.374454
_cell_angle_beta	101.624418
_cell_angle_gamma	96.854753
loop_
_atom_site_label
_atom_site_type_symbol
_atom_site_fract_x
_atom_site_fract_y
_atom_site_fract_z
Zn1	Zn	-0.645696	-1.238332	-0.609215
Zn2	Zn	-0.145696	-0.738332	-0.109215
Zn3	Zn	-0.544796	-1.219174	-0.751234
Zn4	Zn	-0.044796	-0.719174	-0.251234
Zn5	Zn	-0.505494	-1.100615	-0.577686
Zn6	Zn	-0.005494	-0.600615	-0.077686
Zn7	Zn	-0.638858	-1.066902	-0.729947
Zn8	Zn	-0.138858	-0.566902	-0.229947
O9	O	-0.583711	-1.156256	-0.667021
O10	O	-0.083711	-0.656256	-0.167021
O11	O	-0.651621	-1.357152	-0.650158
O12	O	-0.151621	-0.857152	-0.150158
O13	O	-0.441542	-1.209538	-0.723927
O14	O	0.058458	-0.709538	-0.223927
O15	O	-0.510506	-1.141011	-0.458712
O16	O	-0.010506	-0.641011	0.041288
O17	O	-0.577490	-1.343077	-0.754499
O18	O	-0.077490	-0.843077	-0.254499
O19	O	-0.613512	-1.242191	-0.481875
O20	O	-0.113512	-0.742191	0.018125
O21	O	-0.412667	-1.122434	-0.596422
O22	O	0.087333	-0.622434	-0.096422
O23	O	-0.503876	-0.974782	-0.575780
O24	O	-0.003876	-0.474782	-0.075780
O25	O	-0.737806	-1.083552	-0.718217
O26	O	-0.237806	-0.583552	-0.218217
O27	O	-0.601858	-0.950013	-0.687645
O28	O	-0.101858	-0.450013	-0.187645
O29	O	-0.742829	-1.209501	-0.629516
O30	O	-0.242829	-0.709501	-0.129516
O31	O	-0.570860	-1.176848	-0.871568
O32	O	-0.070860	-0.676848	-0.371568
O33	O	-0.639967	-1.064975	-0.855928
O34	O	-0.139967	-0.564975	-0.355928
C35	C	-0.547861	-0.930930	-0.625982
C36	C	-0.047861	-0.430930	-0.125982
C37	C	-0.532543	-0.834529	-0.608448
C38	C	-0.032543	-0.334529	-0.108448
C39	C	-0.608955	-1.115196	-0.895686
C40	C	-0.108955	-0.615196	-0.395686
C41	C	-0.619790	-1.097709	-0.993525
C42	C	-0.119790	-0.597709	-0.493525
C43	C	-0.766449	-1.144903	-0.675009
C44	C	-0.266449	-0.644903	-0.175009
C45	C	-0.844321	-1.140065	-0.678413
C46	C	-0.344321	-0.640065	-0.178413
C47	C	-0.883522	-1.203363	-0.633833
C48	C	-0.383522	-0.703363	-0.133833
C49	C	-0.956689	-1.198807	-0.637026
C50	C	-0.456689	-0.698807	-0.137026
C51	C	-0.990655	-1.130956	-0.684806
C52	C	-0.490655	-0.630956	-0.184806
C53	C	-0.951448	-1.067651	-0.729387
C54	C	-0.451448	-0.567651	-0.229387
C55	C	-0.878281	-1.072204	-0.726188
C56	C	-0.378281	-0.572204	-0.226188
C57	C	-1.211439	-1.113925	-0.696770
C58	C	-0.711439	-0.613925	-0.196770
C59	C	-1.284612	-1.109378	-0.699968
C60	C	-0.784612	-0.609378	-0.199968
C61	C	-1.289847	-1.240534	-0.607605
C62	C	-0.789847	-0.740534	-0.107605
C63	C	-1.216680	-1.245084	-0.604414
C64	C	-0.716680	-0.745084	-0.104414
C65	C	-1.177479	-1.181777	-0.648992
C66	C	-0.677479	-0.681777	-0.148992
C67	C	-1.065444	-1.126299	-0.688073
C68	C	-0.565444	-0.626299	-0.188073
C69	C	-1.102690	-1.186431	-0.645719
C70	C	-0.602690	-0.686431	-0.145719
C71	C	-0.401685	-1.167626	-0.659009
C72	C	0.098315	-0.667626	-0.159009
C73	C	-0.323813	-1.172677	-0.655387
C74	C	0.176187	-0.672677	-0.155387
C75	C	-0.619702	-1.382462	-0.708220
C76	C	-0.119702	-0.882462	-0.208220
C77	C	-0.635039	-1.478857	-0.725776
C78	C	-0.135039	-0.978857	-0.225776
C79	C	-0.693193	-0.511260	-0.792348
C80	C	-0.193193	-0.011260	-0.292348
C81	C	-0.707584	-0.601832	-0.808829
C82	C	-0.207584	-0.101832	-0.308829
C83	C	-0.663825	-0.660011	-0.758735
C84	C	-0.163825	-0.160011	-0.258735
C85	C	-0.605673	-0.627609	-0.692158
C86	C	-0.105673	-0.127609	-0.192158
C87	C	-0.591277	-0.537027	-0.675680
C88	C	-0.091277	-0.037027	-0.175680
C89	C	-0.561909	-0.685778	-0.642067
C90	C	-0.061909	-0.185778	-0.142067
C91	C	-0.503757	-0.653376	-0.575489
C92	C	-0.003757	-0.153376	-0.075489
C93	C	-0.489364	-0.562803	-0.559014
C94	C	0.010636	-0.062803	-0.059014
C95	C	-0.533123	-0.504625	-0.609108
C96	C	-0.033123	-0.004625	-0.109108
C97	C	-0.576305	-0.776359	-0.658545
C98	C	-0.076305	-0.276359	-0.158545
C99	C	-0.474388	-0.802127	-0.541876
C100	C	0.025612	-0.302127	-0.041876
C101	C	-0.459998	-0.711555	-0.525395
C102	C	0.040002	-0.211555	-0.025395
C103	C	-0.506564	-1.281585	-1.301805
C104	C	-0.006564	-0.781585	-0.801805
C105	C	-0.496380	-1.298015	-1.209880
C106	C	0.003620	-0.798015	-0.709880
C107	C	-0.527232	-1.247940	-1.155787
C108	C	-0.027232	-0.747940	-0.655787
C109	C	-0.568269	-1.181432	-1.193628
C110	C	-0.068269	-0.681432	-0.693628
C111	C	-0.578450	-1.164995	-1.285561
C112	C	-0.078450	-0.664995	-0.785561
C113	C	-0.599118	-1.131351	-1.139543
C114	C	-0.099118	-0.631351	-0.639543
C115	C	-0.640155	-1.064842	-1.177384
C116	C	-0.140155	-0.564842	-0.677384
C117	C	-0.650334	-1.048409	-1.269308
C118	C	-0.150334	-0.548409	-0.769308
C119	C	-0.619482	-1.098484	-1.323401
C120	C	-0.119482	-0.598484	-0.823401
C121	C	-0.588937	-1.147787	-1.047610
C122	C	-0.088937	-0.647787	-0.547610
C123	C	-0.660823	-1.031198	-1.031366
C124	C	-0.160823	-0.531198	-0.531366
C125	C	-0.671007	-1.014768	-1.123291
C126	C	-0.171007	-0.514768	-0.623291
C127	C	-0.558388	-1.197499	-0.437467
C128	C	-0.058388	-0.697499	0.062533
C129	C	-0.547596	-1.215074	-0.339645
C130	C	-0.047596	-0.715074	0.160355
H131	H	-0.855873	-1.258618	-0.594928
H132	H	-0.355873	-0.758618	-0.094928
C133	C	-0.517305	-0.404990	-0.590970
C134	C	-0.017305	0.095010	-0.090970
N135	N	-0.505396	-0.329944	-0.577306
N136	N	-0.005396	0.170056	-0.077306
H137	H	-0.627774	-1.085112	-1.398256
H138	H	-0.127774	-0.585112	-0.898256
H139	H	-0.481443	-1.322344	-1.345854
H140	H	0.018557	-0.822344	-0.845854
H141	H	-1.321772	-1.292075	-0.571311
H142	H	-0.821772	-0.792075	-0.071311
C143	C	-1.168327	-1.044282	-0.745804
C144	C	-0.668327	-0.544282	-0.245804
N145	N	-1.135851	-0.991822	-0.782738
N146	N	-0.635851	-0.491822	-0.282738
H147	H	-1.093108	-1.071057	-0.726980
H148	H	-0.593108	-0.571057	-0.226980
H149	H	-0.683740	-0.994244	-1.300113
H150	H	-0.183740	-0.494244	-0.800113
C151	C	-0.694764	-0.976113	-0.971867
C152	C	-0.194764	-0.476113	-0.471867
N153	N	-0.720326	-0.934626	-0.927048
N154	N	-0.220326	-0.434626	-0.427048
C155	C	-0.716141	-0.941603	-1.164927
C156	C	-0.216141	-0.441603	-0.664927
N157	N	-0.750134	-0.886494	-1.196288
N158	N	-0.250134	-0.386494	-0.696288
H159	H	-0.518936	-1.261321	-1.080937
H160	H	-0.018936	-0.761321	-0.580937
C161	C	-0.451225	-1.371158	-1.168258
C162	C	0.048775	-0.871158	-0.668258
N163	N	-0.417208	-1.426249	-1.136908
N164	N	0.082792	-0.926249	-0.636908
H165	H	-0.623653	-0.802732	-0.712752
H166	H	-0.123653	-0.302732	-0.212752
H167	H	-0.442006	-0.536424	-0.504811
H168	H	0.057994	-0.036424	-0.004811
H169	H	-0.988604	-1.250354	-0.600726
H170	H	-0.488604	-0.750354	-0.100726
H171	H	-0.412649	-0.685160	-0.471187
H172	H	0.087351	-0.185160	0.028813
H173	H	-0.846362	-1.020652	-0.762480
H174	H	-0.346362	-0.520652	-0.262480
C175	C	-0.988811	-0.993006	-0.781936
C176	C	-0.488811	-0.493006	-0.281936
N177	N	-1.016952	-0.936782	-0.821516
N178	N	-0.516952	-0.436782	-0.321516
H179	H	-1.189031	-1.300338	-0.565510
H180	H	-0.689031	-0.800338	-0.065510
H181	H	-1.312264	-1.054122	-0.738878
H182	H	-0.812264	-0.554122	-0.238878
C183	C	-0.426252	-0.866121	-0.486767
C184	C	0.073748	-0.366121	0.013233
N185	N	-0.389998	-0.914326	-0.445262
N186	N	0.110002	-0.414326	0.054738
H187	H	-1.075031	-1.241672	-0.606813
H188	H	-0.575031	-0.741672	-0.106813
C189	C	-0.679647	-0.759640	-0.776881
C190	C	-0.179647	-0.259640	-0.276881
N191	N	-0.691565	-0.834684	-0.790555
N192	N	-0.191565	-0.334684	-0.290555
H193	H	-0.555524	-1.201939	-1.016808
H194	H	-0.055524	-0.701939	-0.516808
H195	H	-0.754930	-0.628206	-0.863039
H196	H	-0.254930	-0.128206	-0.363039
C197	C	-0.741318	-0.447259	-0.847447
C198	C	-0.241318	0.052741	-0.347447
N199	N	-0.777570	-0.399051	-0.888950
N200	N	-0.277570	0.100949	-0.388950
