data_functionalizedCrystal
_audit_creation_method	'MofGen! by Chris Wilmer'
_symmetry_space_group_name_H-M	'P1'
_symmetry_Int_Tables_number	1
_symmetry_cell_setting	triclinic
loop_
_symmetry_equiv_pos_as_xyz
  x,y,z
_cell_length_a	13.032831
_cell_length_b	16.625546
_cell_length_c	13.032268
_cell_angle_alpha	97.144614
_cell_angle_beta	90.886977
_cell_angle_gamma	82.826778
loop_
_atom_site_label
_atom_site_type_symbol
_atom_site_fract_x
_atom_site_fract_y
_atom_site_fract_z
Zn1	Zn	1.498429	-0.544521	-0.780776
Zn2	Zn	1.520160	-0.664651	-0.608784
Zn3	Zn	1.348291	-0.510838	-0.587021
Zn4	Zn	1.326409	-0.660292	-0.758909
O5	O	1.423322	-0.595075	-0.683873
O6	O	1.645231	-0.576377	-0.776220
O7	O	1.515614	-0.631976	-0.461981
O8	O	1.368270	-0.402484	-0.612767
O9	O	1.661197	-0.664636	-0.649858
O10	O	1.478576	-0.427231	-0.755118
O11	O	1.389342	-0.518970	-0.445992
O12	O	1.201469	-0.514743	-0.591563
O13	O	1.330976	-0.657206	-0.905725
O14	O	1.185392	-0.624546	-0.717849
O15	O	1.457358	-0.572150	-0.921791
O16	O	1.494396	-0.776895	-0.628654
O17	O	1.352048	-0.773692	-0.738951
C18	C	1.156114	-0.565517	-0.649972
C19	C	1.041798	-0.552893	-0.635494
C20	C	1.423230	-0.804552	-0.683817
C21	C	1.423281	-0.894180	-0.683840
C22	C	0.982917	-0.601664	-0.691429
C23	C	0.864766	-0.588618	-0.676466
C24	C	1.423447	-1.222385	-0.683970
C25	C	1.423397	-1.131068	-0.683936
C26	C	1.423363	-1.058285	-0.683904
C27	C	1.423315	-0.966963	-0.683872
C28	C	1.691574	-0.624750	-0.717906
C29	C	1.805887	-0.637396	-0.732409
C30	C	1.389302	-0.617949	-0.952117
C31	C	1.374805	-0.627696	-1.066427
C32	C	1.423440	-0.384786	-0.683954
C33	C	1.423490	-0.295173	-0.683989
C34	C	1.430873	-0.589958	-1.125339
C35	C	1.415890	-0.600031	-1.243485
C36	C	1.457270	-0.572239	-0.416679
C37	C	1.471966	-0.562287	-0.302395
H38	H	1.019978	-0.653074	-0.750398
H39	H	0.827708	-0.537199	-0.617501
C40	C	1.295636	-0.680979	-1.223772
C41	C	1.295033	-0.681388	-1.116406
H42	H	1.246393	-0.714133	-1.254623
H43	H	1.278397	-0.626636	-1.239432
H44	H	1.362528	-0.701904	-1.250076
H45	H	1.228143	-0.660458	-1.090100
H46	H	1.312266	-0.735742	-1.100738
H47	H	1.004736	-0.501477	-0.576533
C48	C	1.501518	-0.445164	-1.183334
C49	C	1.551736	-0.508582	-1.252432
H50	H	1.550762	-0.412009	-1.152488
H51	H	1.451449	-0.412934	-1.219580
H52	H	1.468297	-0.467544	-1.131060
H53	H	1.584950	-0.486202	-1.304711
H54	H	1.601823	-0.540817	-1.216185
C55	C	1.460453	-0.472859	-1.006244
C56	C	1.510653	-0.536275	-1.075357
H57	H	1.509712	-0.439722	-0.975386
H58	H	1.410400	-0.440610	-1.042483
H59	H	1.427218	-0.495240	-0.953982
H60	H	1.543883	-0.513894	-1.127625
H61	H	1.560725	-0.568530	-1.039118
H62	H	1.356786	-0.639795	-1.280509
H63	H	0.842942	-0.688808	-0.791385
