data_functionalizedCrystal
_audit_creation_method	'MofGen! by Chris Wilmer'
_symmetry_space_group_name_H-M	'P1'
_symmetry_Int_Tables_number	1
_symmetry_cell_setting	triclinic
loop_
_symmetry_equiv_pos_as_xyz
  x,y,z
_cell_length_a	11.026607
_cell_length_b	27.731996
_cell_length_c	9.482900
_cell_angle_alpha	99.248591
_cell_angle_beta	78.636152
_cell_angle_gamma	95.603702
loop_
_atom_site_label
_atom_site_type_symbol
_atom_site_fract_x
_atom_site_fract_y
_atom_site_fract_z
O1	O	1.625318	0.196159	-0.120966
O2	O	1.272453	0.173149	-0.120959
O3	O	1.459872	0.115247	-0.120931
O4	O	1.437898	0.254062	-0.120994
O5	O	1.421802	0.127068	0.120855
O6	O	1.234382	0.184971	0.120827
O7	O	1.587247	0.207981	0.120821
Cu8	Cu	1.407339	0.197556	0.142901
Cu9	Cu	1.452361	0.183575	-0.143040
O10	O	1.399828	0.265884	0.120793
C11	C	1.208288	0.174815	-0.000065
C12	C	1.073817	0.162161	-0.000061
C13	C	1.440385	0.103110	-0.000033
C14	C	1.439022	0.049332	-0.000018
C15	C	0.999342	0.197101	-0.000078
C16	C	0.860359	0.184023	-0.000074
C17	C	1.451227	-0.290602	-0.131887
C18	C	1.446066	-0.492727	-0.131913
O19	O	1.462995	-0.524342	-0.244002
N20	N	1.424673	-0.511557	-0.000116
C21	C	1.404560	-0.479854	0.131697
O22	O	1.386233	-0.500509	0.243797
C23	C	1.409713	-0.277731	0.131721
C24	C	1.431120	-0.258903	-0.000085
C25	C	1.472631	-0.271773	-0.263682
C26	C	1.473928	-0.221245	-0.263674
C27	C	1.453821	-0.189545	-0.131872
C28	C	1.432417	-0.208374	-0.000077
C29	C	1.389592	-0.246029	0.263532
C30	C	1.390879	-0.195495	0.263526
C31	C	1.412286	-0.176667	0.131721
C32	C	1.413606	-0.126146	0.131733
N33	N	1.435000	-0.107315	-0.000064
C34	C	1.455107	-0.139015	-0.131866
C35	C	1.401859	-0.585972	0.131675
C36	C	1.400572	-0.636502	0.131669
C37	C	1.442076	-0.649371	-0.131941
C38	C	1.443371	-0.598840	-0.131933
C39	C	1.423252	-0.567141	-0.000122
C40	C	1.457830	-0.032901	-0.131840
C41	C	1.459130	0.017632	-0.131821
C42	C	1.417619	0.030497	0.131788
C43	C	1.416326	-0.020032	0.131770
C44	C	1.436429	-0.051731	-0.000056
O45	O	1.396673	-0.094503	0.243764
O46	O	1.473405	-0.118351	-0.243950
C47	C	1.449931	-0.341131	-0.131895
C48	C	1.428527	-0.359959	-0.000100
C49	C	1.408419	-0.328260	0.131702
C50	C	1.427241	-0.410490	-0.000106
C51	C	1.447348	-0.442189	-0.131908
C52	C	1.468741	-0.423358	-0.263705
C53	C	1.470038	-0.372830	-0.263697
C54	C	1.387026	-0.347091	0.263499
C55	C	1.385732	-0.397620	0.263480
C56	C	1.405840	-0.429319	0.131678
C57	C	1.651412	0.206315	-0.000077
C58	C	1.785885	0.218969	-0.000090
C59	C	1.419316	0.278021	-0.000109
C60	C	1.420680	0.331798	-0.000133
N61	N	1.375681	0.207389	0.344017
N62	N	1.484029	0.173738	-0.344155
C63	C	1.443015	0.186472	0.416226
C64	C	1.416684	0.194659	0.583639
H65	H	1.038474	0.236697	-0.000087
H66	H	1.374477	-0.169689	0.370865
H67	H	1.339534	0.218626	0.645752
H68	H	1.383159	-0.651827	0.238998
F69	F	1.585066	0.142506	0.574666
H70	H	1.520152	0.162502	0.354109
F71	F	1.274845	0.238716	0.425204
H72	H	1.476565	0.032959	-0.239157
F73	F	0.809220	0.132266	-0.000041
H74	H	0.825009	0.258568	-0.000099
F75	F	1.022672	0.110406	-0.000028
F76	F	1.380437	-0.552241	0.271976
F77	F	1.479225	-0.066630	-0.272144
F78	F	1.496705	-0.201214	-0.403961
H79	H	1.398905	-0.035362	0.239096
H80	H	1.489002	-0.297579	-0.371017
F81	F	1.466153	-0.578806	-0.272217
F82	F	1.396223	0.064242	0.272055
F83	F	1.463473	-0.683117	-0.272215
F84	F	1.492821	-0.352798	-0.403984
F85	F	1.490148	-0.457104	-0.403979
F86	F	1.362954	-0.417651	0.403776
F87	F	1.366802	-0.266056	0.403820
H88	H	1.370653	-0.321285	0.370831
