data_functionalizedCrystal
_audit_creation_method	'MofGen! by Chris Wilmer'
_symmetry_space_group_name_H-M	'P1'
_symmetry_Int_Tables_number	1
_symmetry_cell_setting	triclinic
loop_
_symmetry_equiv_pos_as_xyz
  x,y,z
_cell_length_a	16.120530
_cell_length_b	29.839131
_cell_length_c	16.120297
_cell_angle_alpha	87.132273
_cell_angle_beta	89.871860
_cell_angle_gamma	87.136742
loop_
_atom_site_label
_atom_site_type_symbol
_atom_site_fract_x
_atom_site_fract_y
_atom_site_fract_z
Zn1	Zn	1.247310	-0.227600	0.534529
Zn2	Zn	1.747310	0.272400	1.034529
Zn3	Zn	1.254220	-0.299116	0.395460
Zn4	Zn	1.754220	0.200884	0.895460
Zn5	Zn	1.115305	-0.220008	0.388448
Zn6	Zn	1.615305	0.279992	0.888448
Zn7	Zn	1.108176	-0.298702	0.527429
Zn8	Zn	1.608176	0.201298	1.027429
O9	O	1.181253	-0.261356	0.461466
O10	O	1.681253	0.238644	0.961466
O11	O	1.364591	-0.240437	0.521987
O12	O	1.864591	0.259563	1.021987
O13	O	1.241667	-0.285618	0.278165
O14	O	1.741667	0.214382	0.778165
O15	O	1.132907	-0.158152	0.407863
O16	O	1.632907	0.341848	0.907863
O17	O	1.369668	-0.292979	0.419813
O18	O	1.869668	0.207021	0.919813
O19	O	1.229891	-0.163729	0.515187
O20	O	1.729891	0.336271	1.015187
O21	O	1.139607	-0.227498	0.273013
O22	O	1.639607	0.272502	0.773013
O23	O	0.997995	-0.227097	0.400978
O24	O	1.497995	0.272903	0.900978
O25	O	1.120758	-0.292274	0.644736
O26	O	1.620758	0.207726	1.144736
O27	O	0.992758	-0.284913	0.503087
O28	O	1.492758	0.215087	1.003087
O29	O	1.222979	-0.240035	0.649952
O30	O	1.722979	0.259965	1.149952
O31	O	1.234755	-0.361925	0.412929
O32	O	1.734755	0.138075	0.912929
O33	O	1.127458	-0.361621	0.509886
O34	O	1.627458	0.138379	1.009886
C35	C	0.965204	-0.255137	0.450502
C36	C	1.465204	0.244863	0.950502
C37	C	0.872777	-0.252487	0.445831
C38	C	1.372777	0.247513	0.945831
C39	C	0.703550	-0.247640	0.437311
C40	C	1.203550	0.252360	0.937311
C41	C	0.659793	-0.275108	0.485683
C42	C	1.159793	0.224892	0.985683
C43	C	0.565629	-0.272411	0.480942
C44	C	1.065629	0.227589	0.980942
C45	C	0.797722	-0.250336	0.442050
C46	C	1.297722	0.249664	0.942050
C47	C	1.181105	-0.378074	0.461418
C48	C	1.681105	0.121926	0.961418
C49	C	1.181116	-0.428009	0.461428
C50	C	1.681116	0.071991	0.961428
C51	C	1.237215	-0.737807	0.411063
C52	C	1.737215	-0.237807	0.911063
C53	C	1.237316	-0.925484	0.411101
C54	C	1.737316	-0.425484	0.911101
O55	O	1.284896	-0.949877	0.368241
O56	O	1.784896	-0.449877	0.868241
N57	N	1.181422	-0.948805	0.461538
N58	N	1.681422	-0.448805	0.961538
C59	C	1.125502	-0.925204	0.511973
C60	C	1.625502	-0.425204	1.011973
O61	O	1.077969	-0.949347	0.554880
O62	O	1.577969	-0.449347	1.054880
C63	C	1.125406	-0.737528	0.511940
C64	C	1.625406	-0.237528	1.011940
C65	C	1.181298	-0.714210	0.461493
C66	C	1.681298	-0.214210	0.961493
C67	C	1.293104	-0.714488	0.360622
C68	C	1.793104	-0.214488	0.860622
C69	C	1.293075	-0.667572	0.360609
C70	C	1.793075	-0.167572	0.860609
C71	C	1.237158	-0.643974	0.411039
C72	C	1.737158	-0.143974	0.911039
C73	C	1.181269	-0.667293	0.461481
C74	C	1.681269	-0.167293	0.961481
C75	C	1.069491	-0.713929	0.562379
C76	C	1.569491	-0.213929	1.062379
C77	C	1.069473	-0.667007	0.562367
C78	C	1.569473	-0.167007	1.062367
C79	C	1.125365	-0.643688	0.511921
C80	C	1.625365	-0.143688	1.011921
C81	C	1.125323	-0.596779	0.511898
C82	C	1.625323	-0.096779	1.011898
N83	N	1.181217	-0.573458	0.461461
N84	N	1.681217	-0.073458	0.961461
C85	C	1.237135	-0.597055	0.411031
C86	C	1.737135	-0.097055	0.911031
C87	C	1.125556	-1.023737	0.511986
C88	C	1.625556	-0.523737	1.011986
C89	C	1.125579	-1.070655	0.511994
C90	C	1.625579	-0.570655	1.011994
C91	C	1.237394	-1.070932	0.411122
C92	C	1.737394	-0.570932	0.911122
C93	C	1.237366	-1.024012	0.411111
C94	C	1.737366	-0.524012	0.911111
C95	C	1.181450	-1.000416	0.461549
C96	C	1.681450	-0.500416	0.961549
C97	C	1.237069	-0.498527	0.411009
C98	C	1.737069	0.001473	0.911009
C99	C	1.237033	-0.451606	0.410999
C100	C	1.737033	0.048394	0.910999
C101	C	1.125221	-0.451334	0.511873
C102	C	1.625221	0.048666	1.011873
C103	C	1.125254	-0.498251	0.511880
C104	C	1.625254	0.001749	1.011880
C105	C	1.181185	-0.521846	0.461446
C106	C	1.681185	-0.021846	0.961446
O107	O	1.077774	-0.572358	0.554742
O108	O	1.577774	-0.072358	1.054742
O109	O	1.284673	-0.572905	0.368145
O110	O	1.784673	-0.072905	0.868145
C111	C	1.237244	-0.784724	0.411076
C112	C	1.737244	-0.284724	0.911076
C113	C	1.181356	-0.808043	0.461517
C114	C	1.681356	-0.308043	0.961517
C115	C	1.125439	-0.784445	0.511947
C116	C	1.625439	-0.284445	1.011947
C117	C	1.181379	-0.854961	0.461525
C118	C	1.681379	-0.354961	0.961525
C119	C	1.237296	-0.878559	0.411095
C120	C	1.737296	-0.378559	0.911095
C121	C	1.293190	-0.855238	0.360658
C122	C	1.793190	-0.355238	0.860658
C123	C	1.293161	-0.808322	0.360646
C124	C	1.793161	-0.308322	0.860646
C125	C	1.069544	-0.807766	0.562384
C126	C	1.569544	-0.307766	1.062384
C127	C	1.069577	-0.854683	0.562391
C128	C	1.569577	-0.354683	1.062391
C129	C	1.125494	-0.878280	0.511962
C130	C	1.625494	-0.378280	1.011962
C131	C	1.398145	-0.267601	0.472474
C132	C	1.898145	0.232399	0.972474
C133	C	1.490571	-0.270262	0.477165
C134	C	1.990571	0.229738	0.977165
C135	C	1.170302	-0.266955	0.678360
C136	C	1.670302	0.233045	1.178360
C137	C	1.165636	-0.269341	0.770787
C138	C	1.665636	0.230659	1.270787
C139	C	1.181423	-0.144185	0.461535
C140	C	1.681423	0.355815	0.961535
C141	C	1.181496	-0.094253	0.461564
C142	C	1.681496	0.405747	0.961564
C143	C	1.192208	-0.255748	0.245419
C144	C	1.692208	0.244252	0.745419
C145	C	1.197036	-0.253240	0.153001
C146	C	1.697036	0.246760	0.653001
C147	C	1.157086	-0.273687	0.940011
C148	C	1.657086	0.226313	1.440011
C149	C	1.205584	-0.248896	0.983782
C150	C	1.705584	0.251104	1.483782
C151	C	1.200826	-0.251314	1.077944
C152	C	1.700826	0.248686	1.577944
C153	C	1.161842	-0.271269	0.845840
C154	C	1.661842	0.228731	1.345840
H155	H	1.282547	-0.432622	0.369916
H156	H	1.782547	0.067378	0.869916
H157	H	1.111997	-0.296725	0.973252
H158	H	1.611997	0.203275	1.473252
H159	H	0.693051	-0.300650	0.530658
H160	H	1.193051	0.199350	1.030658
N161	N	1.294204	-0.522618	0.359486
N162	N	1.794204	-0.022618	0.859486
N163	N	1.344094	-0.501784	0.314453
N164	N	1.844094	-0.001784	0.814453
H165	H	1.384442	-0.518798	0.278060
H166	H	1.884442	-0.018798	0.778060
H167	H	1.080058	-1.089637	0.553064
H168	H	1.580058	-0.589637	1.053064
H169	H	1.250676	-0.225857	0.950538
H170	H	1.750676	0.274143	1.450538
H171	H	1.338589	-0.648588	0.319534
H172	H	1.838589	-0.148588	0.819534
H173	H	1.338643	-0.733697	0.319556
H174	H	1.838643	-0.233697	0.819556
N175	N	0.661823	-0.215600	0.380900
N176	N	1.161823	0.284400	0.880900
N177	N	0.584280	-0.213430	0.377084
N178	N	1.084280	0.286570	0.877084
H179	H	0.554800	-0.190804	0.337243
H180	H	1.054800	0.309196	0.837243
H181	H	1.282879	-1.005029	0.370033
H182	H	1.782879	-0.505029	0.870033
H183	H	1.282924	-1.090153	0.370061
H184	H	1.782924	-0.590153	0.870061
H185	H	1.080020	-1.004527	0.553060
H186	H	1.580020	-0.504527	1.053060
N187	N	1.350307	-0.879341	0.309133
N188	N	1.850307	-0.379341	0.809133
N189	N	1.348727	-0.871986	0.232119
N190	N	1.848727	-0.371986	0.732119
H191	H	1.389065	-0.889010	0.195732
H192	H	1.889065	-0.389010	0.695732
N193	N	1.012391	-0.737734	0.613914
N194	N	1.512391	-0.237734	1.113914
N195	N	0.962479	-0.716650	0.658937
N196	N	1.462479	-0.216650	1.158937
H197	H	0.922149	-0.733461	0.695339
H198	H	1.422149	-0.233461	1.195339
H199	H	1.023940	-0.647797	0.603443
H200	H	1.523940	-0.147797	1.103443
N201	N	1.068144	-0.522065	0.563399
N202	N	1.568144	-0.022065	1.063399
N203	N	1.018216	-0.500988	0.608415
N204	N	1.518216	-0.000988	1.108415
H205	H	0.977883	-0.517804	0.644804
H206	H	1.477883	-0.017804	1.144804
H207	H	1.079691	-0.432113	0.552930
H208	H	1.579691	0.067887	1.052930
N209	N	1.350247	-0.784508	0.309102
N210	N	1.850247	-0.284508	0.809102
N211	N	1.348663	-0.787637	0.232093
N212	N	1.848663	-0.287637	0.732093
H213	H	1.388982	-0.770822	0.195685
H214	H	1.888982	-0.270822	0.695685
N215	N	1.012468	-0.878492	0.613923
N216	N	1.512468	-0.378492	1.113923
N217	N	0.962549	-0.857411	0.658944
N218	N	1.462549	-0.357411	1.158944
H219	H	0.922220	-0.874225	0.695342
H220	H	1.422220	-0.374225	1.195342
H221	H	1.024011	-0.788557	0.603451
H222	H	1.524011	-0.288557	1.103451
