data_functionalizedCrystal
_audit_creation_method	'MofGen! by Chris Wilmer'
_symmetry_space_group_name_H-M	'P1'
_symmetry_Int_Tables_number	1
_symmetry_cell_setting	triclinic
loop_
_symmetry_equiv_pos_as_xyz
  x,y,z
_cell_length_a	10.908937
_cell_length_b	11.026607
_cell_length_c	16.776229
_cell_angle_alpha	89.997876
_cell_angle_beta	90.008123
_cell_angle_gamma	84.335986
loop_
_atom_site_label
_atom_site_type_symbol
_atom_site_fract_x
_atom_site_fract_y
_atom_site_fract_z
O1	O	1.662452	-0.179067	0.066313
O2	O	1.309520	-0.088531	0.066308
O3	O	1.456735	-0.304549	0.066307
O4	O	1.515237	0.036951	0.066314
O5	O	1.456710	-0.304534	-0.066269
O6	O	1.309494	-0.088516	-0.066268
O7	O	1.662427	-0.179052	-0.066264
Zn8	Zn	1.485957	-0.133782	-0.087315
Zn9	Zn	1.485990	-0.133801	0.087360
O10	O	1.515211	0.036966	-0.066263
C11	C	1.263622	-0.080062	0.000019
C12	C	1.126895	-0.054865	0.000018
C13	C	0.915317	-0.120775	0.000031
C14	C	1.056631	-0.146820	0.000020
C15	C	1.445930	-0.347575	0.000020
C16	C	1.413757	-0.475796	0.000022
C17	C	1.502592	-0.567529	0.000024
C18	C	1.469342	-0.700053	0.000027
C19	C	1.708325	-0.187521	0.000027
C20	C	1.845052	-0.212718	0.000034
C21	C	1.526016	0.079992	0.000026
C22	C	1.558189	0.208213	0.000029
N23	N	1.485943	-0.133771	-0.206527
C24	C	1.551215	-0.229450	-0.751692
C25	C	1.551211	-0.229441	-0.668240
C26	C	1.485995	-0.133808	-0.626526
C27	C	1.420790	-0.038172	-0.668269
C28	C	1.420802	-0.038178	-0.751720
C29	C	1.420741	-0.038144	-0.331722
C30	C	1.420731	-0.038147	-0.248265
C31	C	1.551151	-0.229407	-0.248242
C32	C	1.551163	-0.229413	-0.331693
C33	C	1.485963	-0.133775	-0.373428
C34	C	1.485970	-0.133785	-0.463916
C35	C	1.485980	-0.133801	-0.536039
N36	N	1.486011	-0.133823	0.206571
H37	H	1.603262	-0.547952	0.000021
C38	C	1.333331	-0.726477	0.000027
C39	C	1.247879	-0.680011	0.068869
C40	C	1.111872	-0.706437	0.068869
C41	C	1.061316	-0.779329	0.000027
C42	C	1.146770	-0.825800	-0.068820
C43	C	1.282777	-0.799374	-0.068820
H44	H	1.285302	-0.626047	0.119835
H45	H	1.048614	-0.672035	0.119835
H46	H	0.960636	-0.798891	0.000027
H47	H	1.109347	-0.879764	-0.119786
H48	H	1.346035	-0.833776	-0.119786
C49	C	1.116677	-0.279221	0.000013
C50	C	1.091077	-0.365592	0.068856
C51	C	1.151124	-0.497989	0.068849
C52	C	1.236770	-0.544015	-0.000002
C53	C	1.262374	-0.457642	-0.068850
C54	C	1.202327	-0.325245	-0.068842
H55	H	1.027673	-0.331523	0.119828
H56	H	1.132170	-0.561928	0.119815
H57	H	1.281221	-0.642023	-0.000007
H58	H	1.325778	-0.491711	-0.119822
H59	H	1.221281	-0.261306	-0.119809
H60	H	1.658866	-0.772219	0.000090
C61	C	1.349049	0.067028	-0.622388
C62	C	1.381623	0.198646	-0.633862
C63	C	1.309877	0.303847	-0.587984
C64	C	1.205556	0.277430	-0.530633
C65	C	1.172977	0.145806	-0.519156
C66	C	1.244724	0.040605	-0.565034
H67	H	1.458852	0.218207	-0.676319
H68	H	1.333994	0.401284	-0.596480
H69	H	1.152445	0.355306	-0.496671
H70	H	1.095749	0.126245	-0.476699
H71	H	1.220606	-0.056832	-0.556538
H72	H	0.870855	-0.022779	0.000041
C73	C	1.622956	-0.334650	-0.797573
C74	C	1.694702	-0.439822	-0.751658
C75	C	1.766448	-0.545023	-0.797536
C76	C	1.766448	-0.545052	-0.889328
C77	C	1.694699	-0.439876	-0.935248
C78	C	1.622953	-0.334675	-0.889370
H79	H	1.694705	-0.439804	-0.683703
H80	H	1.819562	-0.622881	-0.763542
H81	H	1.819559	-0.622928	-0.923290
H82	H	1.694697	-0.439894	-1.003203
H83	H	1.569839	-0.256817	-0.923364
H84	H	0.889514	-0.310715	0.000033
H85	H	1.082440	0.043139	0.000025
C86	C	1.622929	-0.334632	-0.622325
C87	C	1.590349	-0.466249	-0.633791
C88	C	1.662070	-0.571444	-0.587875
C89	C	1.766371	-0.545021	-0.530492
C90	C	1.798956	-0.413397	-0.519023
C91	C	1.727235	-0.308203	-0.564939
H92	H	1.513134	-0.485815	-0.676272
H93	H	1.637947	-0.668880	-0.596365
H94	H	1.819463	-0.622892	-0.496502
H95	H	1.876171	-0.393832	-0.476542
H96	H	1.751358	-0.210767	-0.556449
H97	H	1.604262	-0.307289	-0.365653
H98	H	1.313087	-0.495373	0.000026
H99	H	1.604245	-0.307278	-0.214252
H100	H	1.367623	0.039733	-0.214303
H101	H	1.367650	0.039726	-0.365696
H102	H	1.367708	0.039692	-0.785701
