data_functionalizedCrystal
_audit_creation_method	'MofGen! by Chris Wilmer'
_symmetry_space_group_name_H-M	'P1'
_symmetry_Int_Tables_number	1
_symmetry_cell_setting	triclinic
loop_
_symmetry_equiv_pos_as_xyz
  x,y,z
_cell_length_a	11.792254
_cell_length_b	14.044220
_cell_length_c	12.503572
_cell_angle_alpha	86.156832
_cell_angle_beta	93.542595
_cell_angle_gamma	88.693738
loop_
_atom_site_label
_atom_site_type_symbol
_atom_site_fract_x
_atom_site_fract_y
_atom_site_fract_z
O1	O	1.525101	0.124591	0.089323
O2	O	1.775101	0.374591	0.339323
O3	O	2.025101	0.624591	0.589323
O4	O	2.275101	0.874591	0.839323
O5	O	1.196019	0.137975	0.089326
O6	O	1.446019	0.387975	0.339326
O7	O	1.696019	0.637975	0.589326
O8	O	1.946019	0.887975	0.839326
O9	O	1.355620	-0.006726	0.089314
O10	O	1.605620	0.243274	0.339314
O11	O	1.855620	0.493274	0.589314
O12	O	2.105620	0.743274	0.839314
O13	O	1.365500	0.269293	0.089335
O14	O	1.615500	0.519293	0.339335
O15	O	1.865500	0.769293	0.589335
O16	O	2.115500	1.019293	0.839335
O17	O	1.343619	0.004174	-0.089327
O18	O	1.593619	0.254174	0.160673
O19	O	1.843619	0.504174	0.410673
O20	O	2.093619	0.754174	0.660673
O21	O	1.184018	0.148876	-0.089316
O22	O	1.434018	0.398876	0.160684
O23	O	1.684018	0.648876	0.410684
O24	O	1.934018	0.898876	0.660684
O25	O	1.513100	0.135492	-0.089318
O26	O	1.763100	0.385492	0.160682
O27	O	2.013100	0.635492	0.410682
O28	O	2.263100	0.885492	0.660682
Cu29	Cu	1.347463	0.143179	-0.105628
Cu30	Cu	1.597463	0.393179	0.144372
Cu31	Cu	1.847463	0.643179	0.394372
Cu32	Cu	2.097463	0.893179	0.644372
Cu33	Cu	1.361656	0.130288	0.105636
Cu34	Cu	1.611656	0.380288	0.355636
Cu35	Cu	1.861656	0.630288	0.605636
Cu36	Cu	2.111656	0.880288	0.855636
O37	O	1.353499	0.280193	-0.089306
O38	O	1.603499	0.530193	0.160694
O39	O	1.853499	0.780193	0.410694
O40	O	2.103499	1.030193	0.660694
C41	C	1.147648	0.142582	0.000005
C42	C	1.397648	0.392582	0.250005
C43	C	1.647648	0.642582	0.500005
C44	C	1.897648	0.892582	0.750005
C45	C	1.021398	0.140059	0.000006
C46	C	1.271398	0.390059	0.250006
C47	C	1.521398	0.640059	0.500006
C48	C	1.771398	0.890059	0.750006
C49	C	0.918870	0.138008	0.000010
C50	C	1.168870	0.388008	0.250010
C51	C	1.418870	0.638008	0.500010
C52	C	1.668870	0.888008	0.750010
C53	C	0.790242	0.135444	0.000011
C54	C	1.040242	0.385444	0.250011
C55	C	1.290242	0.635444	0.500011
C56	C	1.540242	0.885444	0.750011
C57	C	1.345295	-0.036613	-0.000007
C58	C	1.595295	0.213387	0.249993
C59	C	1.845295	0.463387	0.499993
C60	C	2.095295	0.713387	0.749993
C61	C	1.332396	-0.141905	-0.000009
C62	C	1.582396	0.108095	0.249991
C63	C	1.832396	0.358095	0.499991
C64	C	2.082396	0.608095	0.749991
C65	C	1.308815	-0.334690	0.000007
C66	C	1.558815	-0.084690	0.250007
C67	C	1.808815	0.165310	0.500007
C68	C	2.058815	0.415310	0.750007
C69	C	1.400300	-0.391849	0.000010
C70	C	1.650300	-0.141849	0.250010
C71	C	1.900300	0.108151	0.500010
C72	C	2.150300	0.358151	0.750010
C73	C	1.387179	-0.499121	0.000018
C74	C	1.637179	-0.249121	0.250018
C75	C	1.887179	0.000879	0.500018
C76	C	2.137179	0.250879	0.750018
C77	C	1.321934	-0.227408	-0.000002
C78	C	1.571934	0.022592	0.249998
C79	C	1.821934	0.272592	0.499998
C80	C	2.071934	0.522592	0.749998
C81	C	1.561471	0.130885	0.000004
C82	C	1.811471	0.380885	0.250004
C83	C	2.061471	0.630885	0.500004
C84	C	2.311471	0.880885	0.750004
C85	C	1.687721	0.133408	0.000011
C86	C	1.937721	0.383408	0.250011
C87	C	2.187721	0.633408	0.500011
C88	C	2.437721	0.883408	0.750011
C89	C	1.363824	0.310080	0.000017
C90	C	1.613824	0.560080	0.250017
C91	C	1.863824	0.810080	0.500017
C92	C	2.113824	1.060080	0.750017
C93	C	1.376724	0.415372	0.000025
C94	C	1.626724	0.665372	0.250025
C95	C	1.876724	0.915372	0.500025
C96	C	2.126724	1.165372	0.750025
N97	N	1.337489	0.152245	-0.254220
N98	N	1.587489	0.402245	-0.004220
N99	N	1.837489	0.652245	0.245780
N100	N	2.087489	0.902245	0.495780
C101	C	1.322817	0.165591	-0.473334
C102	C	1.572817	0.415591	-0.223334
C103	C	1.822817	0.665591	0.026666
C104	C	2.072817	0.915591	0.276666
C105	C	1.386306	0.107872	-0.526666
C106	C	1.636306	0.357872	-0.276666
C107	C	1.886306	0.607872	-0.026666
C108	C	2.136306	0.857872	0.223334
C109	C	1.378143	0.115298	-0.648588
C110	C	1.628143	0.365298	-0.398588
C111	C	1.878143	0.615298	-0.148588
C112	C	2.128143	0.865298	0.101412
C113	C	1.330979	0.158166	-0.351400
C114	C	1.580979	0.408166	-0.101400
C115	C	1.830979	0.658166	0.148600
C116	C	2.080979	0.908166	0.398600
N117	N	1.371638	0.121214	0.254227
N118	N	1.621638	0.371214	0.504227
N119	N	1.871638	0.621214	0.754227
N120	N	2.121638	0.871214	1.004227
H121	H	1.488481	-0.360226	0.000081
H122	H	1.738481	-0.110226	0.250081
H123	H	1.988481	0.139774	0.500081
H124	H	2.238481	0.389774	0.750081
H125	H	1.220645	-0.366316	0.000010
H126	H	1.470645	-0.116316	0.250010
H127	H	1.720645	0.133684	0.500010
H128	H	1.970645	0.383684	0.750010
H129	H	1.446793	0.052882	-0.480757
H130	H	1.696793	0.302882	-0.230757
H131	H	1.946793	0.552882	0.019243
H132	H	2.196793	0.802882	0.269243
H133	H	1.262336	0.220578	-0.519237
H134	H	1.512336	0.470578	-0.269237
H135	H	1.762336	0.720578	-0.019237
H136	H	2.012336	0.970578	0.230763
