data_functionalizedCrystal
_audit_creation_method	'MofGen! by Chris Wilmer'
_symmetry_space_group_name_H-M	'P1'
_symmetry_Int_Tables_number	1
_symmetry_cell_setting	triclinic
loop_
_symmetry_equiv_pos_as_xyz
  x,y,z
_cell_length_a	14.044220
_cell_length_b	15.538191
_cell_length_c	14.185569
_cell_angle_alpha	82.124202
_cell_angle_beta	75.620253
_cell_angle_gamma	109.769514
loop_
_atom_site_label
_atom_site_type_symbol
_atom_site_fract_x
_atom_site_fract_y
_atom_site_fract_z
O1	O	-0.271175	-1.205756	-0.083422
O2	O	-0.164802	-0.940435	-0.083425
O3	O	-0.354606	-1.069115	-0.083414
O4	O	-0.081371	-1.077076	-0.083433
O5	O	-0.410672	-1.107129	0.083424
O6	O	-0.220867	-0.978449	0.083413
O7	O	-0.327240	-1.243770	0.083415
Cu8	Cu	-0.279173	-1.114580	0.098648
Cu9	Cu	-0.212869	-1.069625	-0.098657
O10	O	-0.137436	-1.115089	0.083404
C11	C	-0.416754	-1.084636	0.000006
C12	C	-0.518402	-1.074236	0.000007
C13	C	-0.181705	-0.925281	-0.000006
C14	C	-0.148554	-0.823493	-0.000006
N15	N	-0.325810	-1.146206	0.237422
C16	C	-0.704517	-1.055220	-0.000008
C17	C	-0.787527	-1.128978	-0.000010
C18	C	-0.891087	-1.118398	-0.000018
C19	C	-0.600946	-1.065800	0.000000
C20	C	-0.075288	-1.099568	-0.000017
C21	C	0.026363	-1.109966	-0.000025
C22	C	-0.310336	-1.258923	-0.000005
C23	C	-0.343485	-1.360709	-0.000012
C24	C	-0.477901	-0.508030	0.000002
C25	C	-0.446726	-0.412383	-0.000001
C26	C	-0.271379	-0.404671	-0.000014
C27	C	-0.302540	-0.500321	-0.000006
C28	C	-0.405802	-0.551993	0.000001
C29	C	-0.230442	-0.544283	-0.000007
C30	C	-0.261599	-0.639923	-0.000004
C31	C	-0.364855	-0.691600	-0.000001
C32	C	-0.436960	-0.647632	0.000003
C33	C	-0.127178	-0.492608	-0.000020
C34	C	-0.055080	-0.536570	-0.000021
C35	C	-0.086239	-0.632213	-0.000012
C36	C	-0.189495	-0.683891	-0.000008
C37	C	-0.014135	-0.676181	-0.000016
C38	C	-0.045293	-0.771821	-0.000013
C39	C	-0.220653	-0.779531	-0.000005
N40	N	-0.166242	-1.038005	-0.237431
C41	C	-0.029261	-0.945085	0.605054
C42	C	-0.064584	-0.969048	0.710078
C43	C	-0.232618	-1.083023	0.710049
C44	C	-0.197311	-1.059066	0.605023
C45	C	-0.095631	-0.990097	0.552534
C46	C	-0.263681	-1.104079	0.552503
C47	C	-0.228374	-1.080128	0.447486
C48	C	-0.126697	-1.011163	0.394990
C49	C	-0.060324	-0.966146	0.447518
C50	C	-0.365358	-1.173053	0.604994
C51	C	-0.431728	-1.218065	0.552473
C52	C	-0.396424	-1.194109	0.447455
C53	C	-0.294747	-1.125145	0.394959
C54	C	-0.462797	-1.239127	0.394927
C55	C	-0.427490	-1.215175	0.289911
C56	C	-0.259440	-1.101193	0.289942
H57	H	-0.780793	-1.200055	-0.000077
O58	O	-0.712321	-0.970335	-0.000051
C59	C	-0.614755	-0.903834	-0.000017
H60	H	-0.547594	-0.927673	-0.031601
H61	H	-0.619342	-0.897734	0.080026
C62	C	-0.675197	-0.777951	-0.026648
C63	C	-0.592707	-0.807227	-0.065448
H64	H	-0.661598	-0.718358	-0.067005
H65	H	-0.740931	-0.822753	-0.026667
H66	H	-0.679011	-0.772875	0.040054
H67	H	-0.588903	-0.812314	-0.132144
H68	H	-0.526971	-0.762422	-0.065441
H69	H	-0.304741	-0.821607	0.000006
O70	O	0.069541	-0.878185	0.553945
C71	C	0.129975	-0.918135	0.493203
H72	H	0.073974	-0.983109	0.477461
H73	H	0.182333	-0.939292	0.533667
C74	C	0.269695	-0.765623	0.412788
C75	C	0.200913	-0.845421	0.393448
H76	H	0.313457	-0.720770	0.351256
H77	H	0.228982	-0.738708	0.453714
H78	H	0.313316	-0.783267	0.446511
H79	H	0.157284	-0.827779	0.359738
H80	H	0.241621	-0.872332	0.352514
O81	O	-0.395119	-0.784468	-0.000175
C82	C	-0.424614	-0.798851	-0.086564
H83	H	-0.384812	-0.729909	-0.146961
H84	H	-0.514936	-0.823705	-0.067023
C85	C	-0.437471	-0.958794	-0.051564
C86	C	-0.388579	-0.874120	-0.125746
H87	H	-0.415249	-1.005226	-0.075731
H88	H	-0.417604	-0.949105	0.006641
H89	H	-0.512737	-0.979493	-0.035286
H90	H	-0.313316	-0.853416	-0.142014
H91	H	-0.408433	-0.883807	-0.183955
O92	O	-0.578236	-0.558085	-0.000036
C93	C	-0.635209	-0.498784	-0.000004
H94	H	-0.576686	-0.422279	-0.031589
H95	H	-0.685756	-0.508040	0.080038
C96	C	-0.780094	-0.618813	-0.026636
C97	C	-0.708216	-0.524849	-0.065437
H98	H	-0.825132	-0.634893	-0.066993
H99	H	-0.741713	-0.658767	-0.026653
H100	H	-0.822206	-0.626514	0.040066
H101	H	-0.666097	-0.517152	-0.132132
H102	H	-0.746592	-0.484894	-0.065432
H103	H	-0.521047	-0.689708	0.000015
H104	H	0.069944	-0.634094	-0.000031
O105	O	-0.516671	-0.369594	-0.000172
C106	C	-0.474844	-0.294801	-0.086567
H107	H	-0.414183	-0.307677	-0.146963
H108	H	-0.434237	-0.225734	-0.067033
C109	C	-0.640453	-0.273193	-0.051562
C110	C	-0.565955	-0.289011	-0.125744
H111	H	-0.696654	-0.269618	-0.075727
H112	H	-0.668632	-0.323580	0.006646
H113	H	-0.606601	-0.215638	-0.035291
H114	H	-0.599804	-0.346571	-0.142005
H115	H	-0.537783	-0.238633	-0.183956
O116	O	-0.171131	-0.354347	0.000027
C117	C	-0.159079	-0.260498	-0.000003
H118	H	-0.240791	-0.257943	0.031580
H119	H	-0.119177	-0.214941	-0.080045
C120	C	0.010924	-0.226116	0.026634
C121	C	-0.089436	-0.222978	0.065433
H122	H	0.053887	-0.202969	0.066994
H123	H	0.002806	-0.289342	0.026651
H124	H	0.044161	-0.188152	-0.040067
H125	H	-0.122677	-0.260951	0.132127
H126	H	-0.081322	-0.159757	0.065429
H127	H	-0.101812	-0.414731	-0.000026
H128	H	0.028997	-0.494485	-0.000031
H129	H	0.013414	-0.807618	-0.000005
O130	O	-0.160638	-1.034294	0.238832
C131	C	-0.100204	-1.074244	0.178090
H132	H	-0.156206	-1.139218	0.162349
H133	H	-0.047847	-1.095401	0.218554
C134	C	0.039516	-0.921732	0.097676
C135	C	-0.029266	-1.001530	0.078335
H136	H	0.083278	-0.876878	0.036144
H137	H	-0.001197	-0.894816	0.138601
H138	H	0.083137	-0.939375	0.131398
H139	H	-0.072895	-0.983888	0.044625
H140	H	0.011441	-1.028441	0.037402
H141	H	-0.545582	-1.295289	0.437677
H142	H	-0.097950	-0.991666	0.309479
H143	H	0.022469	-0.909977	0.404779
O144	O	0.000006	-0.925188	0.760941
C145	C	0.097327	-0.859196	0.692089
H146	H	0.085079	-0.837924	0.617228
H147	H	0.159318	-0.892117	0.680917
C148	C	0.151485	-0.797501	0.825040
C149	C	0.136440	-0.771368	0.733097
H150	H	0.175615	-0.743326	0.850337
H151	H	0.085920	-0.841964	0.871429
H152	H	0.203141	-0.824937	0.815718
H153	H	0.084775	-0.743944	0.742423
H154	H	0.201997	-0.726899	0.686712
H155	H	-0.315406	-1.139181	0.752797
O156	O	-0.530484	-1.285008	0.603620
C157	C	-0.547406	-1.296517	0.707574
H158	H	-0.492797	-1.229899	0.721937
H159	H	-0.529016	-1.359015	0.737359
C160	C	-0.731569	-1.396475	0.743848
C161	C	-0.664505	-1.314650	0.761490
H162	H	-0.803802	-1.407665	0.777108
H163	H	-0.720169	-1.388725	0.673813
H164	H	-0.716232	-1.448547	0.768669
H165	H	-0.679834	-1.262578	0.736658
H166	H	-0.675911	-1.322392	0.831522
O167	O	-0.492113	-1.258958	0.239041
C168	C	-0.589419	-1.324982	0.307887
H169	H	-0.602743	-1.304437	0.382758
H170	H	-0.586615	-1.398050	0.319037
C171	C	-0.665133	-1.351386	0.174934
C172	C	-0.681503	-1.326148	0.266890
H173	H	-0.721936	-1.352110	0.149644
H174	H	-0.599576	-1.306908	0.128550
H175	H	-0.662795	-1.412274	0.184238
H176	H	-0.683828	-1.265257	0.257582
H177	H	-0.747064	-1.370617	0.313271
H178	H	-0.394098	-1.192555	0.690505
