data_functionalizedCrystal
_audit_creation_method	'MofGen! by Chris Wilmer'
_symmetry_space_group_name_H-M	'P1'
_symmetry_Int_Tables_number	1
_symmetry_cell_setting	triclinic
loop_
_symmetry_equiv_pos_as_xyz
  x,y,z
_cell_length_a	10.540539
_cell_length_b	17.699083
_cell_length_c	16.776229
_cell_angle_alpha	89.998886
_cell_angle_beta	90.003688
_cell_angle_gamma	96.095747
loop_
_atom_site_label
_atom_site_type_symbol
_atom_site_fract_x
_atom_site_fract_y
_atom_site_fract_z
O1	O	-0.160520	1.005122	-0.066171
O2	O	0.339480	1.505122	0.433829
O3	O	-0.181404	0.784880	-0.066197
O4	O	0.318596	1.284880	0.433803
O5	O	0.013836	0.900026	-0.066184
O6	O	0.513836	1.400026	0.433816
O7	O	-0.355761	0.889976	-0.066184
O8	O	0.144239	1.389976	0.433816
O9	O	0.013848	0.900010	0.066392
O10	O	0.513848	1.400010	0.566392
O11	O	-0.181392	0.784864	0.066380
O12	O	0.318608	1.284864	0.566380
O13	O	-0.160508	1.005107	0.066405
O14	O	0.339492	1.505107	0.566405
Zn15	Zn	-0.170948	0.894983	0.087442
Zn16	Zn	0.329052	1.394983	0.587442
Zn17	Zn	-0.170964	0.895003	-0.087233
Zn18	Zn	0.329036	1.395003	0.412767
O19	O	-0.355749	0.889961	0.066393
O20	O	0.144251	1.389961	0.566393
C21	C	-0.180650	0.756670	0.000088
C22	C	0.319350	1.256670	0.500088
C23	C	-0.178405	0.672637	0.000078
C24	C	0.321595	1.172637	0.500078
C25	C	-0.293007	0.624761	0.000079
C26	C	0.206993	1.124761	0.500079
C27	C	-0.290890	0.545804	0.000089
C28	C	0.209110	1.045804	0.500089
C29	C	-0.174170	0.514725	0.000093
C30	C	0.325830	1.014725	0.500093
C31	C	-0.059559	0.562607	0.000095
C32	C	0.440441	1.062607	0.500095
C33	C	-0.061677	0.641562	0.000091
C34	C	0.438323	1.141562	0.500091
C35	C	-0.051014	0.244188	0.000115
C36	C	0.448986	0.744188	0.500115
C37	C	-0.048904	0.165226	0.000117
C38	C	0.451096	0.665226	0.500117
C39	C	-0.280227	0.148430	0.000113
C40	C	0.219773	0.648430	0.500113
C41	C	-0.282345	0.227386	0.000109
C42	C	0.217655	0.727386	0.500109
C43	C	-0.167735	0.275261	0.000115
C44	C	0.332265	0.775261	0.500115
C45	C	-0.170032	0.360875	0.000105
C46	C	0.329968	0.860875	0.500105
C47	C	-0.171872	0.429112	0.000097
C48	C	0.328128	0.929112	0.500097
C49	C	-0.403044	0.890722	0.000105
C50	C	0.096956	1.390722	0.500105
C51	C	-0.543951	0.892977	0.000105
C52	C	-0.043951	1.392977	0.500105
C53	C	-0.725797	0.979376	-0.000192
C54	C	-0.225797	1.479376	0.499808
C55	C	-0.579221	0.977090	0.000113
C56	C	-0.079221	1.477090	0.500113
C57	C	-0.606350	0.852489	0.075806
C58	C	-0.106350	1.352489	0.575806
C59	C	-0.752842	0.855360	0.075863
C60	C	-0.252842	1.355360	0.575863
C61	C	-0.753389	0.853666	-0.074901
C62	C	-0.253389	1.353666	0.425099
C63	C	-0.606421	0.852892	-0.075896
C64	C	-0.106421	1.352892	0.424104
C65	C	0.061131	0.899264	0.000102
C66	C	0.561131	1.399264	0.500102
C67	C	0.202038	0.897009	0.000097
C68	C	0.702038	1.397009	0.500097
C69	C	-0.161263	1.033316	0.000119
C70	C	0.338737	1.533316	0.500119
C71	C	-0.163508	1.117349	0.000123
C72	C	0.336492	1.617349	0.500123
N73	N	-0.170937	0.894974	0.206653
N74	N	0.329063	1.394974	0.706653
N75	N	-0.170966	0.895018	-0.206445
N76	N	0.329034	1.395018	0.293555
C77	C	-0.084520	0.945977	0.248376
C78	C	0.415480	1.445977	0.748376
C79	C	-0.084519	0.945981	0.331828
C80	C	0.415481	1.445981	0.831828
C81	C	-0.170942	0.894986	0.373556
C82	C	0.329058	1.394986	0.873556
C83	C	-0.257363	0.843978	0.331827
C84	C	0.242637	1.343978	0.831827
C85	C	-0.257357	0.843971	0.248377
C86	C	0.242643	1.343971	0.748377
C87	C	-0.257388	0.844005	0.668375
C88	C	0.242612	1.344005	1.168375
C89	C	-0.257390	0.844018	0.751831
C90	C	0.242610	1.344018	1.251831
C91	C	-0.084550	0.946016	0.751826
C92	C	0.415450	1.446016	1.251826
C93	C	-0.084544	0.946009	0.668375
C94	C	0.415456	1.446009	1.168375
C95	C	-0.170960	0.894998	0.626654
C96	C	0.329040	1.394998	1.126654
C97	C	-0.170958	0.894993	0.536166
C98	C	0.329042	1.394993	1.036166
C99	C	-0.170950	0.894994	0.464043
C100	C	0.329050	1.394994	0.964043
H101	H	-0.536033	1.008952	-0.054149
H102	H	-0.036033	1.508952	0.445851
F103	F	-0.412866	0.494854	0.000086
F104	F	0.087134	0.994854	0.500086
F105	F	-0.349377	0.789739	0.796240
F106	F	0.150623	1.289739	1.296240
F107	F	-0.349331	0.789684	0.203974
F108	F	0.150669	1.289684	0.703974
F109	F	0.060298	0.692515	0.000093
F110	F	0.560298	1.192515	0.500093
H111	H	-0.377390	0.252686	0.000101
H112	H	0.122610	0.752686	0.500101
H113	H	-0.373548	0.109440	0.000112
H114	H	0.126452	0.609440	0.500112
F115	F	-0.816562	0.774255	-0.075577
F116	F	-0.316562	1.274255	0.424423
H117	H	-0.388054	0.650060	0.000074
H118	H	0.111946	1.150060	0.500074
H119	H	0.035477	0.537295	0.000110
H120	H	0.535477	1.037295	0.500110
H121	H	-0.753773	1.012605	-0.054487
H122	H	-0.253773	1.512605	0.445513
H123	H	-0.014150	0.987506	0.214406
H124	H	0.485850	1.487506	0.714406
F125	F	-0.550011	0.889237	0.149453
F126	F	-0.050011	1.389237	0.649453
F127	F	0.070965	0.295130	0.000122
F128	F	0.570965	0.795130	0.500122
F129	F	0.007457	1.000263	0.376233
F130	F	0.507457	1.500263	0.876233
H131	H	-0.327753	0.802472	0.634412
H132	H	0.172247	1.302472	1.134412
H133	H	-0.014181	0.987549	0.785804
H134	H	0.485819	1.487549	1.285804
F135	F	0.007434	1.000287	0.623969
F136	F	0.507434	1.500287	1.123969
H137	H	0.046149	0.139925	0.000122
H138	H	0.546149	0.639925	0.500122
F139	F	-0.816990	0.776293	0.080357
F140	F	-0.316990	1.276293	0.580357
F141	F	-0.349336	0.789700	0.376238
F142	F	0.150664	1.289700	0.876238
H143	H	-0.564944	0.882478	-0.131899
H144	H	-0.064944	1.382478	0.368101
H145	H	-0.755518	1.012492	0.053745
H146	H	-0.255518	1.512492	0.553745
F147	F	-0.523873	1.019001	0.071176
F148	F	-0.023873	1.519001	0.571176
H149	H	-0.780495	0.885270	0.132457
H150	H	-0.280495	1.385270	0.632457
H151	H	-0.585126	0.790718	0.078615
H152	H	-0.085126	1.290718	0.578615
H153	H	-0.784449	0.880894	-0.132281
H154	H	-0.284449	1.380894	0.367719
F155	F	-0.576123	0.772758	-0.081924
F156	F	-0.076123	1.272758	0.418076
