data_functionalizedCrystal
_audit_creation_method	'MofGen! by Chris Wilmer'
_symmetry_space_group_name_H-M	'P1'
_symmetry_Int_Tables_number	1
_symmetry_cell_setting	triclinic
loop_
_symmetry_equiv_pos_as_xyz
  x,y,z
_cell_length_a	13.032831
_cell_length_b	13.032721
_cell_length_c	13.033388
_cell_angle_alpha	76.692903
_cell_angle_beta	89.094871
_cell_angle_gamma	90.902885
loop_
_atom_site_label
_atom_site_type_symbol
_atom_site_fract_x
_atom_site_fract_y
_atom_site_fract_z
Zn1	Zn	1.399151	-0.703158	0.857486
Zn2	Zn	1.399091	-0.858177	0.702419
Zn3	Zn	1.255201	-0.659617	0.658986
Zn4	Zn	1.206084	-0.852598	0.851929
O5	O	1.314882	-0.768387	0.767705
O6	O	1.540161	-0.744279	0.857418
O7	O	1.400534	-0.815950	0.551014
O8	O	1.294877	-0.519753	0.669466
O9	O	1.540117	-0.858171	0.743491
O10	O	1.400637	-0.551743	0.815303
O11	O	1.294819	-0.670069	0.519104
O12	O	1.107667	-0.664658	0.664078
O13	O	1.211164	-0.848662	0.998309
O14	O	1.071582	-0.806441	0.805833
O15	O	1.353010	-0.738869	1.002392
O16	O	1.352908	-1.003076	0.738103
O17	O	1.211106	-0.998977	0.847947
C18	C	1.053060	-0.730220	0.729640
C19	C	0.941044	-0.713920	0.713383
C20	C	0.873276	-0.776895	0.776189
C21	C	0.757502	-0.760049	0.759389
C22	C	1.276695	-1.038796	0.797162
C23	C	1.260446	-1.154494	0.809811
C24	C	1.323409	-1.208083	0.761157
C25	C	1.306617	-1.327664	0.774230
C26	C	1.577726	-0.806705	0.805919
C27	C	1.689734	-0.823033	0.822203
C28	C	1.276615	-0.798000	1.039170
C29	C	1.260308	-0.810619	1.154852
C30	C	1.353242	-0.496930	0.738160
C31	C	1.369589	-0.381251	0.725570
C32	C	1.306380	-0.774972	1.328014
C33	C	1.323230	-0.761920	1.208448
C34	C	1.352988	-0.738909	1.497296
C35	C	1.369293	-0.726280	1.381612
H36	H	0.913352	-0.647530	0.647179
H37	H	1.194111	-1.197145	0.861149
H38	H	1.389567	-0.710561	1.165821
H39	H	1.240041	-0.826318	1.370643
H40	H	1.193958	-0.861961	1.197474
H41	H	1.389751	-1.165437	0.709828
O42	O	1.448315	-0.664927	1.330627
C43	C	1.409230	-0.582512	1.252118
H44	H	1.329940	-0.606337	1.228830
H45	H	1.462949	-0.566248	1.180078
H46	H	1.403195	-0.508311	1.283960
H47	H	0.900969	-0.843278	0.842401
H48	H	0.717420	-0.889419	0.888422
O49	O	0.724307	-0.680932	0.680407
C50	C	0.616103	-0.681720	0.681219
H51	H	0.585707	-0.763733	0.721891
H52	H	0.588003	-0.660264	0.596712
H53	H	0.587101	-0.621802	0.725708
H54	H	1.435935	-1.338607	0.674237
O55	O	1.227494	-1.378686	0.835402
C56	C	1.228352	-1.486726	0.834853
H57	H	1.270682	-1.497531	0.760968
H58	H	1.146097	-1.517951	0.835377
H59	H	1.268969	-1.532059	0.907768
