data_functionalizedCrystal
_audit_creation_method	'MofGen! by Chris Wilmer'
_symmetry_space_group_name_H-M	'P1'
_symmetry_Int_Tables_number	1
_symmetry_cell_setting	triclinic
loop_
_symmetry_equiv_pos_as_xyz
  x,y,z
_cell_length_a	16.120297
_cell_length_b	16.120490
_cell_length_c	12.827892
_cell_angle_alpha	87.107930
_cell_angle_beta	92.875882
_cell_angle_gamma	90.129683
loop_
_atom_site_label
_atom_site_type_symbol
_atom_site_fract_x
_atom_site_fract_y
_atom_site_fract_z
Zn1	Zn	-0.534559	1.247506	-0.529523
Zn2	Zn	-0.395508	1.254475	-0.695884
Zn3	Zn	-0.388479	1.115493	-0.511855
Zn4	Zn	-0.527481	1.108430	-0.694911
O5	O	-0.461507	1.181476	-0.608043
O6	O	-0.522017	1.364798	-0.559392
O7	O	-0.278210	1.241911	-0.664485
O8	O	-0.407877	1.133044	-0.367966
O9	O	-0.419857	1.369918	-0.681616
O10	O	-0.515201	1.230033	-0.380947
O11	O	-0.273046	1.139802	-0.529280
O12	O	-0.401014	0.998189	-0.528337
O13	O	-0.644786	1.121006	-0.679959
O14	O	-0.503139	0.992999	-0.662827
O15	O	-0.649986	1.223184	-0.558449
O16	O	-0.412995	1.235062	-0.841987
O17	O	-0.509955	1.127764	-0.841273
C18	C	-0.450546	0.965421	-0.593560
C19	C	-0.445877	0.872991	-0.587391
C20	C	-0.485729	0.660035	-0.640038
C21	C	-0.437351	0.703765	-0.576136
C22	C	-0.442096	0.797931	-0.582400
C23	C	-0.480984	0.565860	-0.633775
C24	C	-0.678402	1.170530	-0.621067
C25	C	-0.770830	1.165866	-0.626616
C26	C	-0.940055	1.157319	-0.636724
C27	C	-0.983819	1.205797	-0.579060
C28	C	-1.077982	1.201041	-0.584684
C29	C	-0.845884	1.162073	-0.631101
C30	C	-0.245458	1.192427	-0.594998
C31	C	-0.153039	1.197252	-0.589165
C32	C	-0.461489	1.181425	-0.879549
C33	C	-0.461513	1.181477	-0.995707
C34	C	-0.472511	1.398374	-0.622584
C35	C	-0.477200	1.490804	-0.628780
C36	C	-0.514664	1.229446	-1.053832
C37	C	-0.514690	1.229501	-1.173888
C38	C	-0.461544	1.181549	-0.335480
C39	C	-0.461560	1.181580	-0.219330
H40	H	-0.392369	0.670482	-0.516724
H41	H	-0.530706	0.693315	-0.699446
H42	H	-0.950568	1.250870	-0.525469
H43	H	-0.973304	1.112249	-0.690311
Cl44	Cl	-0.584903	1.292781	-0.993448
H45	H	-0.560193	1.270572	-1.223850
H46	H	-0.416031	1.140447	-1.034824
H47	H	-0.416049	1.140514	-1.169375
