data_functionalizedCrystal
_audit_creation_method	'MofGen! by Chris Wilmer'
_symmetry_space_group_name_H-M	'P1'
_symmetry_Int_Tables_number	1
_symmetry_cell_setting	triclinic
loop_
_symmetry_equiv_pos_as_xyz
  x,y,z
_cell_length_a	23.532356
_cell_length_b	14.519731
_cell_length_c	13.596369
_cell_angle_alpha	90.005416
_cell_angle_beta	90.002163
_cell_angle_gamma	96.741694
loop_
_atom_site_label
_atom_site_type_symbol
_atom_site_fract_x
_atom_site_fract_y
_atom_site_fract_z
O1	O	-0.074713	1.222950	0.081775
O2	O	0.258620	1.556283	0.415108
O3	O	0.591953	1.889617	0.748442
O4	O	-0.083492	0.954369	0.081774
O5	O	0.249841	1.287703	0.415108
O6	O	0.583174	1.621036	0.748441
O7	O	0.003794	1.096783	0.081789
O8	O	0.337127	1.430117	0.415122
O9	O	0.670461	1.763450	0.748455
O10	O	-0.162000	1.080536	0.081761
O11	O	0.171334	1.413869	0.415094
O12	O	0.504667	1.747203	0.748427
O13	O	0.003799	1.096769	-0.081794
O14	O	0.337132	1.430103	0.251539
O15	O	0.670465	1.763436	0.584872
O16	O	-0.083488	0.954355	-0.081809
O17	O	0.249846	1.287689	0.251525
O18	O	0.583179	1.621022	0.584858
O19	O	-0.074709	1.222936	-0.081808
O20	O	0.258625	1.556269	0.251525
O21	O	0.591958	1.889603	0.584859
Zn22	Zn	-0.079097	1.088643	-0.107780
Zn23	Zn	0.254236	1.421977	0.225553
Zn24	Zn	0.587569	1.755310	0.558886
Zn25	Zn	-0.079104	1.088662	0.107747
Zn26	Zn	0.254230	1.421995	0.441080
Zn27	Zn	0.587563	1.755329	0.774414
O28	O	-0.161995	1.080522	-0.081822
O29	O	0.171338	1.413855	0.251511
O30	O	0.504672	1.747189	0.584845
C31	C	-0.083079	0.920008	-0.000017
C32	C	0.250255	1.253341	0.333317
C33	C	0.583588	1.586675	0.666650
C34	C	-0.081846	0.817643	-0.000016
C35	C	0.251487	1.150976	0.333317
C36	C	0.584821	1.484309	0.666651
C37	C	-0.080844	0.734511	-0.000012
C38	C	0.252489	1.067844	0.333321
C39	C	0.585822	1.401177	0.666655
C40	C	-0.079593	0.630217	-0.000011
C41	C	0.253740	0.963550	0.333322
C42	C	0.587074	1.296884	0.666655
C43	C	-0.078600	0.547090	-0.000011
C44	C	0.254734	0.880423	0.333322
C45	C	0.588067	1.213757	0.666655
C46	C	-0.077348	0.442790	-0.000009
C47	C	0.255985	0.776123	0.333324
C48	C	0.589318	1.109457	0.666658
C49	C	-0.183216	1.080935	-0.000034
C50	C	0.150118	1.414269	0.333299
C51	C	0.483451	1.747602	0.666632
C52	C	-0.246440	1.082157	-0.000045
C53	C	0.086893	1.415490	0.333289
C54	C	0.420227	1.748823	0.666622
C55	C	-0.638491	1.089836	0.089172
C56	C	-0.305158	1.423169	0.422505
C57	C	0.028175	1.756502	0.755839
C58	C	-0.697896	1.090997	0.089177
C59	C	-0.364563	1.424331	0.422510
C60	C	-0.031229	1.757664	0.755844
O61	O	-0.728620	1.091636	0.165011
O62	O	-0.395286	1.424969	0.498345
O63	O	-0.061953	1.758303	0.831678
N64	N	-0.727605	1.091566	0.000009
N65	N	-0.394271	1.424899	0.333342
N66	N	-0.060938	1.758232	0.666675
C67	C	-0.697905	1.090982	-0.089170
C68	C	-0.364571	1.424315	0.244163
C69	C	-0.031238	1.757648	0.577496
O70	O	-0.728629	1.091573	-0.165014
O71	O	-0.395296	1.424906	0.168319
O72	O	-0.061962	1.758239	0.501652
C73	C	-0.638500	1.089827	-0.089174
C74	C	-0.305167	1.423160	0.244159
C75	C	0.028166	1.756493	0.577493
C76	C	-0.608796	1.089249	0.000000
C77	C	-0.275462	1.422582	0.333333
C78	C	0.057871	1.755916	0.666667
C79	C	-0.608786	1.089259	0.178339
C80	C	-0.275453	1.422592	0.511672
C81	C	0.057880	1.755926	0.845006
C82	C	-0.549386	1.088096	0.178334
C83	C	-0.216052	1.421429	0.511667
C84	C	0.117281	1.754763	0.845000
C85	C	-0.519690	1.087509	0.089162
C86	C	-0.186357	1.420843	0.422495
C87	C	0.146976	1.754176	0.755828
C88	C	-0.549395	1.088086	-0.000005
C89	C	-0.216062	1.421419	0.333328
C90	C	0.117271	1.754753	0.666662
C91	C	-0.608801	1.089250	-0.178352
C92	C	-0.275468	1.422583	0.154982
C93	C	0.057866	1.755916	0.488315
C94	C	-0.549393	1.088095	-0.178348
C95	C	-0.216060	1.421428	0.154985
C96	C	0.117274	1.754762	0.488319
C97	C	-0.519688	1.087517	-0.089174
C98	C	-0.186355	1.420851	0.244160
C99	C	0.146979	1.754184	0.577493
C100	C	-0.460299	1.086336	-0.089182
C101	C	-0.126966	1.419669	0.244151
C102	C	0.206368	1.753003	0.577484
N103	N	-0.430591	1.085768	-0.000014
N104	N	-0.097257	1.419101	0.333319
N105	N	0.236076	1.752434	0.666653
C106	C	-0.460286	1.086354	0.089158
C107	C	-0.126953	1.419688	0.422491
C108	C	0.206381	1.753021	0.755825
C109	C	-0.822657	1.093409	-0.089155
C110	C	-0.489324	1.426742	0.244178
C111	C	-0.155991	1.760076	0.577511
C112	C	-0.882061	1.094557	-0.089153
C113	C	-0.548728	1.427891	0.244181
C114	C	-0.215394	1.761224	0.577514
C115	C	-0.882048	1.094575	0.089195
C116	C	-0.548715	1.427908	0.422528
C117	C	-0.215381	1.761241	0.755861
C118	C	-0.822644	1.093420	0.089191
C119	C	-0.489310	1.426753	0.422524
C120	C	-0.155977	1.760086	0.755858
C121	C	-0.792949	1.092841	0.000013
C122	C	-0.459615	1.426174	0.333346
C123	C	-0.126282	1.759507	0.666679
C124	C	-0.335541	1.083910	0.089140
C125	C	-0.002208	1.417244	0.422474
C126	C	0.331126	1.750577	0.755807
C127	C	-0.276135	1.082743	0.089127
C128	C	0.057198	1.416076	0.422461
C129	C	0.390531	1.749410	0.755794
C130	C	-0.276153	1.082731	-0.089219
C131	C	0.057180	1.416064	0.244114
C132	C	0.390514	1.749398	0.577447
C133	C	-0.335554	1.083893	-0.089207
C134	C	-0.002220	1.417226	0.244126
C135	C	0.331113	1.750560	0.577460
C136	C	-0.365246	1.084486	-0.000019
C137	C	-0.031913	1.417819	0.333314
C138	C	0.301421	1.751153	0.666648
O139	O	-0.429538	1.085700	-0.164978
O140	O	-0.096204	1.419034	0.168355
O141	O	0.237129	1.752367	0.501689
O142	O	-0.429554	1.085775	0.164989
O143	O	-0.096220	1.419109	0.498323
O144	O	0.237113	1.752442	0.831656
C145	C	0.025015	1.096370	0.000003
C146	C	0.358348	1.429704	0.333336
C147	C	0.691681	1.763037	0.666670
C148	C	0.088239	1.095149	0.000020
C149	C	0.421572	1.428482	0.333353
C150	C	0.754905	1.761816	0.666687
C151	C	-0.075122	1.257298	-0.000014
C152	C	0.258211	1.590631	0.333319
C153	C	0.591544	1.923964	0.666652
C154	C	-0.076355	1.359663	-0.000009
C155	C	0.256978	1.692996	0.333325
C156	C	0.590312	2.026329	0.666658
N157	N	-0.079093	1.088638	-0.254872
N158	N	0.254240	1.421971	0.078461
N159	N	0.587574	1.755304	0.411794
C160	C	-0.079104	1.088661	-0.656163
C161	C	0.254229	1.421994	-0.322830
C162	C	0.587562	1.755327	0.010503
C163	C	-0.079103	1.088652	-0.544512
C164	C	0.254230	1.421985	-0.211179
C165	C	0.587564	1.755318	0.122155
C166	C	-0.079099	1.088650	-0.455521
C167	C	0.254234	1.421983	-0.122188
C168	C	0.587568	1.755316	0.211145
C169	C	-0.079097	1.088640	-0.343863
C170	C	0.254236	1.421973	-0.010530
C171	C	0.587570	1.755306	0.322804
N172	N	-0.079104	1.088675	0.254839
N173	N	0.254230	1.422009	0.588172
N174	N	0.587563	1.755342	0.921506
H175	H	-0.359709	1.084394	0.161766
H176	H	-0.026376	1.417727	0.495099
H177	H	0.306958	1.751061	0.828432
O178	O	-0.790628	1.092773	-0.185344
O179	O	-0.457295	1.426107	0.147989
O180	O	-0.123961	1.759440	0.481323
H181	H	-0.807043	1.030122	-0.228095
H182	H	-0.473709	1.363455	0.105238
H183	H	-0.140376	1.696789	0.438572
H184	H	-0.906237	1.095049	0.161803
H185	H	-0.572904	1.428383	0.495137
H186	H	-0.239570	1.761716	0.828470
H187	H	-0.798462	1.092947	0.161804
H188	H	-0.465129	1.426281	0.495138
H189	H	-0.131795	1.759614	0.828471
O190	O	-0.517367	1.087482	-0.274539
O191	O	-0.184034	1.420815	0.058794
O192	O	0.149300	1.754149	0.392127
H193	H	-0.471068	1.086590	-0.259570
H194	H	-0.137734	1.419923	0.073763
H195	H	0.195599	1.753256	0.407096
O196	O	-0.367597	1.084517	-0.185385
O197	O	-0.034264	1.417850	0.147949
O198	O	0.299070	1.751184	0.481282
H199	H	-0.361213	1.021431	-0.228154
H200	H	-0.027880	1.354764	0.105179
H201	H	0.305453	1.688097	0.438513
H202	H	-0.525205	1.087632	0.250948
H203	H	-0.191872	1.420965	0.584282
H204	H	0.141462	1.754299	0.917615
O205	O	-0.914092	1.095175	-0.185338
O206	O	-0.580759	1.428508	0.147995
O207	O	-0.247426	1.761842	0.481329
H208	H	-0.946169	1.032837	-0.189617
H209	H	-0.612835	1.366171	0.143716
H210	H	-0.279502	1.699504	0.477049
H211	H	-0.632976	1.089730	-0.250967
H212	H	-0.299642	1.423063	0.082366
H213	H	0.033691	1.756396	0.415700
H214	H	-0.251965	1.082249	-0.161821
H215	H	0.081369	1.415583	0.171512
H216	H	0.414702	1.748916	0.504846
O217	O	-0.244097	1.082100	0.185311
O218	O	0.089237	1.415433	0.518644
O219	O	0.422570	1.748766	0.851977
H220	H	-0.274730	1.082704	0.247316
H221	H	0.058604	1.416038	0.580649
H222	H	0.391937	1.749371	0.913982
H223	H	-0.632958	1.089740	0.250957
H224	H	-0.299625	1.423073	0.584291
H225	H	0.033709	1.756406	0.917624
