data_functionalizedCrystal
_audit_creation_method	'MofGen! by Chris Wilmer'
_symmetry_space_group_name_H-M	'P1'
_symmetry_Int_Tables_number	1
_symmetry_cell_setting	triclinic
loop_
_symmetry_equiv_pos_as_xyz
  x,y,z
_cell_length_a	6.817900
_cell_length_b	14.858565
_cell_length_c	10.943624
_cell_angle_alpha	93.396226
_cell_angle_beta	108.838799
_cell_angle_gamma	104.523916
loop_
_atom_site_label
_atom_site_type_symbol
_atom_site_fract_x
_atom_site_fract_y
_atom_site_fract_z
V1	V	-4.093440	-0.128646	-0.402911
O2	O	-4.074268	0.006207	-0.394871
O3	O	-4.049710	-0.255107	-0.400512
O4	O	-4.071744	-0.126656	-0.578472
O5	O	-4.052082	-0.123133	-0.215679
V6	V	-4.573003	-0.112517	-0.380473
O7	O	-4.363386	-0.164025	-0.452130
O8	O	-4.753254	-0.077137	-0.331254
O9	O	-4.393526	0.013944	-0.382873
O10	O	-4.709572	-0.247370	-0.388514
O11	O	-4.731758	-0.118029	-0.567706
O12	O	-4.371493	-0.114507	-0.204912
C13	C	-3.894983	-0.285936	-0.394248
C14	C	-3.940693	-0.389319	-0.393456
C15	C	-3.923088	-0.122082	-0.621252
C16	C	-3.986663	-0.121292	-0.764776
C17	C	-4.108001	-0.767890	-0.390576
C18	C	-4.061442	-0.662560	-0.391376
C19	C	-4.024347	-0.578608	-0.392015
C20	C	-3.977788	-0.473271	-0.392818
C21	C	-3.832405	-0.115971	-0.841909
C22	C	-4.008224	-0.194950	-0.948120
C23	C	-3.924150	-0.040915	-0.914302
C24	C	-4.161680	-0.200345	-0.869111
C25	C	-4.077537	-0.046240	-0.835269
C26	C	-4.253489	-0.125241	-0.941451
C27	C	-4.211595	0.044768	-0.389133
C28	C	-4.145124	0.148151	-0.389933
C29	C	-4.183490	-0.119083	-0.162126
C30	C	-4.099153	-0.119869	-0.018600
H31	H	-3.653858	-0.112158	-0.798450
C32	C	-4.619166	-0.214045	-0.977567
C33	C	-4.494641	-0.130554	-0.999860
H34	H	-4.768042	-0.217329	-1.013638
H35	H	-4.580076	-0.215094	-0.886235
H36	H	-4.593855	-0.266335	-1.017728
H37	H	-4.519940	-0.078263	-0.959690
H38	H	-4.533746	-0.129496	-1.091209
C39	C	-3.990663	0.122012	-0.790866
C40	C	-4.116078	0.038632	-0.768888
H41	H	-4.014434	0.174412	-0.749874
H42	H	-4.030422	0.123472	-0.882131
H43	H	-3.842070	0.124704	-0.755477
H44	H	-4.264673	0.035937	-0.804286
H45	H	-4.076332	0.037171	-0.677605
C46	C	-4.158384	-0.341507	-0.773433
C47	C	-4.296431	-0.291411	-0.841649
H48	H	-4.241572	-0.397730	-0.756487
H49	H	-4.061410	-0.304005	-0.693111
H50	H	-4.078573	-0.356773	-0.824452
H51	H	-4.376231	-0.276139	-0.790626
H52	H	-4.393443	-0.328921	-0.921985
C53	C	-3.852209	0.050234	-1.077083
C54	C	-3.789424	0.050051	-0.942011
H55	H	-3.769013	0.106388	-1.094183
H56	H	-4.001170	0.047059	-1.111303
H57	H	-3.828987	-0.002613	-1.117363
H58	H	-3.812661	0.102895	-0.901732
H59	H	-3.640428	0.053236	-0.907776
H60	H	-3.979584	-0.257819	-0.997245
