data_functionalizedCrystal
_audit_creation_method	'MofGen! by Chris Wilmer'
_symmetry_space_group_name_H-M	'P1'
_symmetry_Int_Tables_number	1
_symmetry_cell_setting	triclinic
loop_
_symmetry_equiv_pos_as_xyz
  x,y,z
_cell_length_a	29.839131
_cell_length_b	25.639242
_cell_length_c	29.839135
_cell_angle_alpha	89.983173
_cell_angle_beta	90.000668
_cell_angle_gamma	89.963053
loop_
_atom_site_label
_atom_site_type_symbol
_atom_site_fract_x
_atom_site_fract_y
_atom_site_fract_z
Zn1	Zn	-0.179046	-0.799187	0.254113
Zn2	Zn	0.154288	-0.465854	0.587447
Zn3	Zn	0.487621	-0.132521	0.920780
Zn4	Zn	-0.254135	-0.799115	0.178983
Zn5	Zn	0.079198	-0.465782	0.512317
Zn6	Zn	0.412531	-0.132448	0.845650
Zn7	Zn	-0.179014	-0.711772	0.178984
Zn8	Zn	0.154319	-0.378439	0.512318
Zn9	Zn	0.487653	-0.045105	0.845651
Zn10	Zn	-0.254143	-0.711705	0.254073
Zn11	Zn	0.079190	-0.378371	0.587406
Zn12	Zn	0.412523	-0.045038	0.920740
O13	O	-0.216585	-0.755445	0.216539
O14	O	0.116749	-0.422111	0.549872
O15	O	0.450082	-0.088778	0.883205
O16	O	-0.189016	-0.872343	0.244164
O17	O	0.144317	-0.539010	0.577497
O18	O	0.477651	-0.205676	0.910830
O19	O	-0.244154	-0.787527	0.116116
O20	O	0.089180	-0.454193	0.449450
O21	O	0.422513	-0.120860	0.782783
O22	O	-0.116151	-0.723426	0.188968
O23	O	0.217182	-0.390093	0.522301
O24	O	0.550515	-0.056760	0.855634
O25	O	-0.244184	-0.872290	0.188966
O26	O	0.089149	-0.538956	0.522299
O27	O	0.422483	-0.205623	0.855633
O28	O	-0.116174	-0.787650	0.244165
O29	O	0.217159	-0.454317	0.577498
O30	O	0.550492	-0.120983	0.910831
O31	O	-0.188963	-0.723356	0.116117
O32	O	0.144371	-0.390023	0.449450
O33	O	0.477704	-0.056689	0.782784
O34	O	-0.188970	-0.638598	0.188928
O35	O	0.144363	-0.305265	0.522262
O36	O	0.477696	0.028069	0.855595
O37	O	-0.244198	-0.723312	0.316945
O38	O	0.089135	-0.389978	0.650279
O39	O	0.422469	-0.056645	0.983612
O40	O	-0.244168	-0.638548	0.244096
O41	O	0.089166	-0.305215	0.577429
O42	O	0.422499	0.028118	0.910762
O43	O	-0.189024	-0.787585	0.316975
O44	O	0.144309	-0.454252	0.650309
O45	O	0.477643	-0.120918	0.983642
O46	O	-0.317003	-0.787461	0.188927
O47	O	0.016330	-0.454128	0.522260
O48	O	0.349663	-0.120795	0.855594
O49	O	-0.317009	-0.723241	0.244095
O50	O	0.016324	-0.389908	0.577428
O51	O	0.349657	-0.056575	0.910762
C52	C	-0.216567	-0.619602	0.216508
C53	C	0.116767	-0.286269	0.549841
C54	C	0.450100	0.047064	0.883175
C55	C	-0.216570	-0.561488	0.216506
C56	C	0.116763	-0.228155	0.549839
C57	C	0.450097	0.105178	0.883172
C58	C	-0.333307	-0.755350	0.216516
C59	C	0.000026	-0.422017	0.549850
C60	C	0.333360	-0.088684	0.883183
C61	C	-0.383242	-0.755358	0.216522
C62	C	-0.049908	-0.422024	0.549855
C63	C	0.283425	-0.088691	0.883188
C64	C	-0.216615	-0.755449	0.333717
C65	C	0.116718	-0.422116	0.667050
C66	C	0.450051	-0.088782	1.000384
C67	C	-0.216628	-0.755451	0.383651
C68	C	0.116705	-0.422117	0.716985
C69	C	0.450038	-0.088784	1.050318
C70	C	-0.692869	-0.788945	0.187855
C71	C	-0.359536	-0.455612	0.521188
C72	C	-0.026203	-0.122278	0.854521
C73	C	-0.880542	-0.789009	0.187872
C74	C	-0.547209	-0.455676	0.521205
C75	C	-0.213876	-0.122343	0.854539
O76	O	-0.904794	-0.817491	0.163481
O77	O	-0.571460	-0.484158	0.496814
O78	O	-0.238127	-0.150825	0.830148
N79	N	-0.904027	-0.755553	0.216572
N80	N	-0.570693	-0.422220	0.549906
N81	N	-0.237360	-0.088887	0.883239
C82	C	-0.880590	-0.722081	0.245273
C83	C	-0.547257	-0.388748	0.578606
C84	C	-0.213923	-0.055414	0.911939
O85	O	-0.904871	-0.693630	0.269688
O86	O	-0.571538	-0.360296	0.603021
O87	O	-0.238204	-0.026963	0.936354
C88	C	-0.692918	-0.722019	0.245257
C89	C	-0.359584	-0.388686	0.578590
C90	C	-0.026251	-0.055353	0.911924
C91	C	-0.669436	-0.755474	0.216552
C92	C	-0.336102	-0.422141	0.549885
C93	C	-0.002769	-0.088807	0.883218
C94	C	-0.669387	-0.822397	0.159152
C95	C	-0.336054	-0.489064	0.492485
C96	C	-0.002721	-0.155731	0.825818
C97	C	-0.622472	-0.822379	0.159146
C98	C	-0.289138	-0.489045	0.492479
C99	C	0.044195	-0.155712	0.825813
C100	C	-0.599038	-0.788908	0.187843
C101	C	-0.265705	-0.455575	0.521176
C102	C	0.067628	-0.122241	0.854510
C103	C	-0.622520	-0.755456	0.216546
C104	C	-0.289187	-0.422122	0.549879
C105	C	0.044146	-0.088789	0.883212
C106	C	-0.669482	-0.688550	0.273959
C107	C	-0.336148	-0.355217	0.607293
C108	C	-0.002815	-0.021883	0.940626
C109	C	-0.622561	-0.688539	0.273954
C110	C	-0.289227	-0.355205	0.607287
C111	C	0.044106	-0.021872	0.940620
C112	C	-0.599079	-0.721993	0.245248
C113	C	-0.265745	-0.388660	0.578581
C114	C	0.067588	-0.055327	0.911915
C115	C	-0.552171	-0.721966	0.245237
C116	C	-0.218838	-0.388633	0.578570
C117	C	0.114495	-0.055300	0.911904
N118	N	-0.528687	-0.755422	0.216537
N119	N	-0.195354	-0.422089	0.549870
N120	N	0.137980	-0.088756	0.883203
C121	C	-0.552120	-0.788893	0.187840
C122	C	-0.218787	-0.455560	0.521173
C123	C	0.114546	-0.122227	0.854506
C124	C	-0.979120	-0.722115	0.245278
C125	C	-0.645787	-0.388781	0.578611
C126	C	-0.312454	-0.055448	0.911945
C127	C	-1.026038	-0.722129	0.245282
C128	C	-0.692705	-0.388796	0.578615
C129	C	-0.359372	-0.055463	0.911948
C130	C	-1.025987	-0.789059	0.187881
C131	C	-0.692654	-0.455725	0.521215
C132	C	-0.359321	-0.122392	0.854548
C133	C	-0.979069	-0.789041	0.187876
C134	C	-0.645735	-0.455708	0.521209
C135	C	-0.312402	-0.122374	0.854543
C136	C	-0.955636	-0.755571	0.216578
C137	C	-0.622303	-0.422238	0.549911
C138	C	-0.288969	-0.088904	0.883244
C139	C	-0.453595	-0.788852	0.187829
C140	C	-0.120261	-0.455518	0.521163
C141	C	0.213072	-0.122185	0.854496
C142	C	-0.406675	-0.788829	0.187825
C143	C	-0.073342	-0.455495	0.521158
C144	C	0.259992	-0.122162	0.854491
C145	C	-0.406730	-0.721901	0.245226
C146	C	-0.073397	-0.388568	0.578560
C147	C	0.259937	-0.055235	0.911893
C148	C	-0.453645	-0.721922	0.245229
C149	C	-0.120312	-0.388589	0.578563
C150	C	0.213021	-0.055256	0.911896
C151	C	-0.477077	-0.755402	0.216529
C152	C	-0.143743	-0.422068	0.549863
C153	C	0.189590	-0.088735	0.883196
O154	O	-0.527891	-0.693503	0.269619
O155	O	-0.194558	-0.360170	0.602952
O156	O	0.138776	-0.026837	0.936286
O157	O	-0.527831	-0.817349	0.163435
O158	O	-0.194498	-0.484015	0.496768
O159	O	0.138835	-0.150682	0.830102
C160	C	-0.739785	-0.788963	0.187860
C161	C	-0.406451	-0.455630	0.521194
C162	C	-0.073118	-0.122297	0.854527
C163	C	-0.763267	-0.755511	0.216563
C164	C	-0.429933	-0.422178	0.549897
C165	C	-0.096600	-0.088844	0.883230
C166	C	-0.739833	-0.722040	0.245260
C167	C	-0.406500	-0.388707	0.578594
C168	C	-0.073166	-0.055374	0.911927
C169	C	-0.810184	-0.755526	0.216567
C170	C	-0.476851	-0.422192	0.549900
C171	C	-0.143518	-0.088859	0.883233
C172	C	-0.833618	-0.788996	0.187870
C173	C	-0.500285	-0.455663	0.521203
C174	C	-0.166951	-0.122330	0.854536
C175	C	-0.810134	-0.822453	0.159169
C176	C	-0.476800	-0.489119	0.492502
C177	C	-0.143467	-0.155786	0.825836
C178	C	-0.763218	-0.822434	0.159163
C179	C	-0.429885	-0.489101	0.492497
C180	C	-0.096551	-0.155768	0.825830
C181	C	-0.763318	-0.688584	0.273961
C182	C	-0.429984	-0.355251	0.607294
C183	C	-0.096651	-0.021917	0.940627
C184	C	-0.810233	-0.688605	0.273964
C185	C	-0.476900	-0.355271	0.607297
C186	C	-0.143566	-0.021938	0.940630
C187	C	-0.833666	-0.722076	0.245267
C188	C	-0.500333	-0.388742	0.578600
C189	C	-0.167000	-0.055409	0.911933
C190	C	-0.099406	-0.755554	0.216571
C191	C	0.233927	-0.422220	0.549904
C192	C	0.567260	-0.088887	0.883237
C193	C	-0.049472	-0.755600	0.216584
C194	C	0.283862	-0.422267	0.549918
C195	C	0.617195	-0.088934	0.883251
C196	C	-0.216603	-0.891818	0.216569
C197	C	0.116731	-0.558484	0.549903
C198	C	0.450064	-0.225151	0.883236
C199	C	-0.216610	-0.949932	0.216582
C200	C	0.116723	-0.616598	0.549916
C201	C	0.450056	-0.283265	0.883249
C202	C	-0.245374	-0.201108	0.245237
C203	C	0.087960	0.132225	0.578570
C204	C	0.421293	0.465558	0.911904
C205	C	-0.245376	-0.146504	0.245244
C206	C	0.087957	0.186829	0.578577
C207	C	0.421290	0.520163	0.911911
O208	O	-0.269844	-0.118253	0.269647
O209	O	0.063489	0.215080	0.602980
O210	O	0.396822	0.548414	0.936313
N211	N	-0.216597	-0.119206	0.216568
N212	N	0.116736	0.214128	0.549901
N213	N	0.450070	0.547461	0.883234
C214	C	-0.187810	-0.146515	0.187886
C215	C	0.145524	0.186819	0.521219
C216	C	0.478857	0.520152	0.854553
O217	O	-0.163330	-0.118281	0.163495
O218	O	0.170003	0.215052	0.496829
O219	O	0.503336	0.548385	0.830162
C220	C	-0.187805	-0.201118	0.187881
C221	C	0.145528	0.132215	0.521215
C222	C	0.478862	0.465549	0.854548
C223	C	-0.216590	-0.228413	0.216556
C224	C	0.116744	0.104920	0.549890
C225	C	0.450077	0.438253	0.883223
C226	C	-0.274156	-0.228404	0.273910
C227	C	0.059178	0.104930	0.607243
C228	C	0.392511	0.438263	0.940577
C229	C	-0.274153	-0.283004	0.273902
C230	C	0.059180	0.050329	0.607235
C231	C	0.392513	0.383662	0.940569
C232	C	-0.245369	-0.310309	0.245221
C233	C	0.087964	0.023024	0.578555
C234	C	0.421298	0.356357	0.911888
C235	C	-0.216587	-0.283014	0.216548
C236	C	0.116746	0.050319	0.549882
C237	C	0.450079	0.383653	0.883215
C238	C	-0.159016	-0.228426	0.159202
C239	C	0.174318	0.104908	0.492535
C240	C	0.507651	0.438241	0.825869
C241	C	-0.159013	-0.283033	0.159200
C242	C	0.174320	0.050301	0.492534
C243	C	0.507653	0.383634	0.825867
C244	C	-0.187798	-0.310328	0.187875
C245	C	0.145536	0.023005	0.521208
C246	C	0.478869	0.356338	0.854542
C247	C	-0.187801	-0.364919	0.187860
C248	C	0.145533	-0.031586	0.521193
C249	C	0.478866	0.301747	0.854527
N250	N	-0.216580	-0.392218	0.216536
N251	N	0.116753	-0.058884	0.549870
N252	N	0.450086	0.274449	0.883203
C253	C	-0.245364	-0.364913	0.245217
C254	C	0.087969	-0.031579	0.578550
C255	C	0.421302	0.301754	0.911884
C256	C	-0.187821	-0.031844	0.187898
C257	C	0.145512	0.301489	0.521231
C258	C	0.478846	0.634823	0.854565
C259	C	-0.187828	0.022758	0.187900
C260	C	0.145506	0.356092	0.521233
C261	C	0.478839	0.689425	0.854567
C262	C	-0.245394	0.022765	0.245259
C263	C	0.087939	0.356099	0.578592
C264	C	0.421273	0.689432	0.911925
C265	C	-0.245389	-0.031838	0.245254
C266	C	0.087944	0.301495	0.578588
C267	C	0.421277	0.634829	0.911921
C268	C	-0.216601	-0.059142	0.216574
C269	C	0.116733	0.274191	0.549908
C270	C	0.450066	0.607524	0.883241
C271	C	-0.245358	-0.479578	0.245198
C272	C	0.087976	-0.146244	0.578531
C273	C	0.421309	0.187089	0.911865
C274	C	-0.245354	-0.534183	0.245186
C275	C	0.087979	-0.200850	0.578520
C276	C	0.421312	0.132484	0.911853
C277	C	-0.187786	-0.534185	0.187829
C278	C	0.145547	-0.200852	0.521163
C279	C	0.478880	0.132481	0.854496
C280	C	-0.187791	-0.479585	0.187839
C281	C	0.145542	-0.146251	0.521173
C282	C	0.478875	0.187082	0.854506
C283	C	-0.216579	-0.452282	0.216527
C284	C	0.116755	-0.118949	0.549860
C285	C	0.450088	0.214384	0.883194
O286	O	-0.163344	-0.393205	0.163471
O287	O	0.169989	-0.059872	0.496805
O288	O	0.503323	0.273461	0.830138
O289	O	-0.269835	-0.393153	0.269607
O290	O	0.063498	-0.059819	0.602941
O291	O	0.396831	0.273514	0.936274
C292	C	-0.245323	-0.721978	0.740223
C293	C	0.088011	-0.388644	1.073556
C294	C	0.421344	-0.055311	1.406890
C295	C	-0.245339	-0.721981	0.552550
C296	C	0.087995	-0.388648	0.885883
C297	C	0.421328	-0.055314	1.219217
O298	O	-0.269757	-0.693508	0.528272
O299	O	0.063576	-0.360175	0.861606
O300	O	0.396909	-0.026842	1.194939
N301	N	-0.216615	-0.755445	0.529096
N302	N	0.116719	-0.422112	0.862430
N303	N	0.450052	-0.088778	1.195763
C304	C	-0.187883	-0.788908	0.552564
C305	C	0.145451	-0.455575	0.885897
C306	C	0.478784	-0.122241	1.219231
O307	O	-0.163448	-0.817367	0.528309
O308	O	0.169885	-0.484034	0.861642
O309	O	0.503218	-0.150701	1.194976
C310	C	-0.187865	-0.788901	0.740236
C311	C	0.145469	-0.455568	1.073570
C312	C	0.478802	-0.122235	1.406903
C313	C	-0.216594	-0.755439	0.763687
C314	C	0.116740	-0.422106	1.097021
C315	C	0.450073	-0.088772	1.430354
C316	C	-0.274049	-0.688517	0.763674
C317	C	0.059284	-0.355184	1.097008
C318	C	0.392618	-0.021851	1.430341
C319	C	-0.274046	-0.688519	0.810590
C320	C	0.059287	-0.355186	1.143923
C321	C	0.392620	-0.021852	1.477256
C322	C	-0.245318	-0.721980	0.834054
C323	C	0.088016	-0.388647	1.167387
C324	C	0.421349	-0.055314	1.500721
C325	C	-0.216591	-0.755441	0.810603
C326	C	0.116742	-0.422107	1.143936
C327	C	0.450075	-0.088774	1.477269
C328	C	-0.159131	-0.822361	0.763703
C329	C	0.174203	-0.489028	1.097036
C330	C	0.507536	-0.155695	1.430370
C331	C	-0.159128	-0.822356	0.810624
C332	C	0.174205	-0.489023	1.143957
C333	C	0.507539	-0.155689	1.477291
C334	C	-0.187857	-0.788894	0.834075
C335	C	0.145476	-0.455560	1.167408
C336	C	0.478810	-0.122227	1.500742
C337	C	-0.187860	-0.788904	0.880983
C338	C	0.145474	-0.455570	1.214316
C339	C	0.478807	-0.122237	1.547649
N340	N	-0.216584	-0.755440	0.904436
N341	N	0.116750	-0.422106	1.237769
N342	N	0.450083	-0.088773	1.571103
C343	C	-0.245313	-0.721978	0.880972
C344	C	0.088021	-0.388645	1.214305
C345	C	0.421354	-0.055311	1.547638
C346	C	-0.187895	-0.788910	0.454033
C347	C	0.145439	-0.455577	0.787367
C348	C	0.478772	-0.122243	1.120700
C349	C	-0.187900	-0.788912	0.407116
C350	C	0.145434	-0.455579	0.740449
C351	C	0.478767	-0.122246	1.073782
C352	C	-0.245355	-0.721984	0.407105
C353	C	0.087978	-0.388651	0.740438
C354	C	0.421312	-0.055318	1.073771
C355	C	-0.245352	-0.721985	0.454023
C356	C	0.087981	-0.388652	0.787357
C357	C	0.421315	-0.055318	1.120690
C358	C	-0.216619	-0.755446	0.477487
C359	C	0.116715	-0.422113	0.810820
C360	C	0.450048	-0.088779	1.144154
C361	C	-0.245305	-0.721984	0.979498
C362	C	0.088028	-0.388651	1.312831
C363	C	0.421361	-0.055317	1.646164
C364	C	-0.245302	-0.721990	1.026417
C365	C	0.088032	-0.388657	1.359751
C366	C	0.421365	-0.055323	1.693084
C367	C	-0.187845	-0.788916	1.026424
C368	C	0.145489	-0.455582	1.359757
C369	C	0.478822	-0.122249	1.693091
C370	C	-0.187850	-0.788912	0.979508
C371	C	0.145483	-0.455578	1.312842
C372	C	0.478817	-0.122245	1.646175
C373	C	-0.216582	-0.755442	0.956046
C374	C	0.116752	-0.422108	1.289380
C375	C	0.450085	-0.088775	1.622713
O376	O	-0.163450	-0.817357	0.905289
O377	O	0.169883	-0.484024	1.238623
O378	O	0.503217	-0.150690	1.571956
O379	O	-0.269736	-0.693515	0.905235
O380	O	0.063597	-0.360181	1.238568
O381	O	0.396930	-0.026848	1.571901
C382	C	-0.245325	-0.721976	0.693308
C383	C	0.088008	-0.388643	1.026641
C384	C	0.421341	-0.055309	1.359974
C385	C	-0.216599	-0.755436	0.669856
C386	C	0.116734	-0.422103	1.003190
C387	C	0.450068	-0.088769	1.336523
C388	C	-0.187870	-0.788898	0.693321
C389	C	0.145463	-0.455564	1.026654
C390	C	0.478797	-0.122231	1.359987
C391	C	-0.216604	-0.755439	0.622939
C392	C	0.116730	-0.422105	0.956272
C393	C	0.450063	-0.088772	1.289605
C394	C	-0.245333	-0.721977	0.599474
C395	C	0.088001	-0.388644	0.932808
C396	C	0.421334	-0.055310	1.266141
C397	C	-0.274057	-0.688513	0.622928
C398	C	0.059277	-0.355180	0.956261
C399	C	0.392610	-0.021846	1.289594
C400	C	-0.274054	-0.688514	0.669843
C401	C	0.059279	-0.355181	1.003177
C402	C	0.392613	-0.021848	1.336510
C403	C	-0.159146	-0.822362	0.669867
C404	C	0.174187	-0.489028	1.003201
C405	C	0.507521	-0.155695	1.336534
C406	C	-0.159151	-0.822358	0.622952
C407	C	0.174182	-0.489025	0.956285
C408	C	0.507515	-0.155691	1.289618
C409	C	-0.187880	-0.788896	0.599487
C410	C	0.145453	-0.455563	0.932821
C411	C	0.478786	-0.122230	1.266154
C412	C	-0.216569	-0.755441	1.099816
C413	C	0.116764	-0.422108	1.433149
C414	C	0.450097	-0.088774	1.766483
C415	C	-0.216573	-0.755451	1.049882
C416	C	0.116761	-0.422118	1.383215
C417	C	0.450094	-0.088785	1.716548
H418	H	-0.472667	-0.816115	0.164460
H419	H	-0.139333	-0.482781	0.497793
H420	H	0.194000	-0.149448	0.831127
H421	H	-0.959952	-0.816283	0.164502
H422	H	-0.626619	-0.482950	0.497835
H423	H	-0.293286	-0.149616	0.831168
N424	N	-1.050015	-0.687945	0.274599
N425	N	-0.716681	-0.354611	0.607932
N426	N	-0.383348	-0.021278	0.941266
N427	N	-1.029081	-0.658064	0.300218
N428	N	-0.695747	-0.324731	0.633551
N429	N	-0.362414	0.008603	0.966884
H430	H	-1.046012	-0.633920	0.320926
H431	H	-0.712679	-0.300587	0.654259
H432	H	-0.379345	0.032746	0.987592
H433	H	-0.603484	-0.661284	0.297328
H434	H	-0.270151	-0.327950	0.630661
H435	H	0.063183	0.005383	0.963994
H436	H	-0.164354	-0.457360	0.164489
H437	H	0.168980	-0.124026	0.497822
H438	H	0.502313	0.209307	0.831156
N439	N	-0.303395	-0.654324	0.598955
N440	N	0.029938	-0.320990	0.932288
N441	N	0.363272	0.012343	1.265621
N442	N	-0.300406	-0.606081	0.604179
N443	N	0.032928	-0.272748	0.937512
N444	N	0.366261	0.060586	1.270845
H445	H	-0.321123	-0.581933	0.587246
H446	H	0.012211	-0.248600	0.920579
H447	H	0.345544	0.084733	1.253912
N448	N	-0.955186	-0.687917	0.274591
N449	N	-0.621853	-0.354583	0.607924
N450	N	-0.288520	-0.021250	0.941258
N451	N	-0.929034	-0.654603	0.258754
N452	N	-0.595701	-0.321270	0.592088
N453	N	-0.262368	0.012064	0.925421
H454	H	-0.912131	-0.630450	0.279456
H455	H	-0.578798	-0.297116	0.612789
H456	H	-0.245465	0.036217	0.946122
H457	H	-0.135757	-0.849612	0.603862
H458	H	0.197576	-0.516279	0.937195
H459	H	0.530909	-0.182945	1.270528
H460	H	-0.268748	-0.694739	0.387992
H461	H	0.064585	-0.361406	0.721325
H462	H	0.397919	-0.028073	1.054659
N463	N	-0.129611	-0.200561	0.129906
N464	N	0.203722	0.132772	0.463239
N465	N	0.537055	0.466105	0.796573
N466	N	-0.103914	-0.224958	0.104305
N467	N	0.229419	0.108375	0.437638
N468	N	0.562752	0.441709	0.770972
H469	H	-0.083145	-0.205280	0.083613
H470	H	0.250188	0.128053	0.416946
H471	H	0.583521	0.461387	0.750279
N472	N	-0.739383	-0.654386	0.303269
N473	N	-0.406050	-0.321053	0.636603
N474	N	-0.072716	0.012280	0.969936
N475	N	-0.713234	-0.621071	0.287430
N476	N	-0.379901	-0.287738	0.620763
N477	N	-0.046568	0.045596	0.954097
H478	H	-0.696331	-0.596916	0.308130
H479	H	-0.362998	-0.263582	0.641463
H480	H	-0.029665	0.069751	0.974796
N481	N	-0.382696	-0.823004	0.158496
N482	N	-0.049363	-0.489671	0.491829
N483	N	0.283970	-0.156337	0.825163
N484	N	-0.403628	-0.852886	0.132877
N485	N	-0.070295	-0.519552	0.466210
N486	N	0.263038	-0.186219	0.799543
H487	H	-0.386695	-0.877022	0.112164
H488	H	-0.053362	-0.543688	0.445497
H489	H	0.279971	-0.210355	0.778830
H490	H	-0.829221	-0.849704	0.135802
H491	H	-0.495888	-0.516371	0.469135
H492	H	-0.162555	-0.183038	0.802468
H493	H	-0.135751	-0.849610	0.688967
H494	H	0.197583	-0.516277	1.022300
H495	H	0.530916	-0.182944	1.355634
N496	N	-0.274697	-0.687797	0.477969
N497	N	0.058636	-0.354464	0.811302
N498	N	0.391970	-0.021130	1.144636
N499	N	-0.300343	-0.657924	0.457008
N500	N	0.032990	-0.324590	0.790341
N501	N	0.366323	0.008743	1.123674
H502	H	-0.321068	-0.633774	0.473917
H503	H	0.012265	-0.300441	0.807250
H504	H	0.345599	0.032893	1.140583
H505	H	-0.688462	-0.849656	0.135783
H506	H	-0.355128	-0.516323	0.469116
H507	H	-0.021795	-0.182989	0.802450
N508	N	-0.598496	-0.856556	0.129821
N509	N	-0.265163	-0.523223	0.463155
N510	N	0.068171	-0.189890	0.796488
N511	N	-0.619432	-0.886437	0.104204
N512	N	-0.286099	-0.553103	0.437538
N513	N	0.047234	-0.219770	0.770871
H514	H	-0.602502	-0.910578	0.083493
H515	H	-0.269169	-0.577245	0.416826
H516	H	0.064164	-0.243911	0.750160
H517	H	-0.297595	-0.206178	0.297268
H518	H	0.035738	0.127156	0.630601
H519	H	0.369071	0.460489	0.963934
N520	N	-0.274771	-0.451703	0.274499
N521	N	0.058562	-0.118370	0.607832
N522	N	0.391896	0.214964	0.941166
N523	N	-0.316219	-0.457780	0.271438
N524	N	0.017115	-0.124447	0.604771
N525	N	0.350448	0.208886	0.938105
H526	H	-0.336994	-0.438094	0.292130
H527	H	-0.003661	-0.104761	0.625463
H528	H	0.329672	0.228572	0.958796
N529	N	-0.693461	-0.654386	0.303289
N530	N	-0.360128	-0.321053	0.636623
N531	N	-0.026795	0.012281	0.969956
N532	N	-0.719620	-0.672767	0.331939
N533	N	-0.386287	-0.339433	0.665272
N534	N	-0.052953	-0.006100	0.998606
H535	H	-0.736556	-0.648638	0.352656
H536	H	-0.403222	-0.315304	0.685989
H537	H	-0.069889	0.018029	1.019323
N538	N	-0.158563	-0.823097	0.383156
N539	N	0.174771	-0.489764	0.716490
N540	N	0.508104	-0.156430	1.049823
N541	N	-0.174372	-0.856402	0.356986
N542	N	0.158961	-0.523069	0.690319
N543	N	0.492294	-0.189736	1.023653
H544	H	-0.153651	-0.880545	0.340065
H545	H	0.179682	-0.547211	0.673399
H546	H	0.513015	-0.213878	1.006732
H547	H	-0.268698	-0.694725	0.960400
H548	H	0.064636	-0.361391	1.293734
H549	H	0.397969	-0.028058	1.627067
N550	N	-1.049936	-0.823244	0.158568
N551	N	-0.716602	-0.489910	0.491902
N552	N	-0.383269	-0.156577	0.825235
N553	N	-1.091826	-0.823248	0.158580
N554	N	-0.758493	-0.489914	0.491913
N555	N	-0.425159	-0.156581	0.825246
H556	H	-1.108742	-0.847391	0.137880
H557	H	-0.775409	-0.514058	0.471214
H558	H	-0.442076	-0.180724	0.804547
H559	H	-0.297592	-0.305223	0.297253
H560	H	0.035742	0.028110	0.630586
H561	H	0.369075	0.361443	0.963920
H562	H	-0.387643	-0.694648	0.268590
H563	H	-0.054310	-0.361315	0.601923
H564	H	0.279024	-0.027982	0.935257
N565	N	-0.477627	-0.687738	0.274546
N566	N	-0.144294	-0.354405	0.607879
N567	N	0.189039	-0.021071	0.941212
N568	N	-0.456697	-0.657852	0.300162
N569	N	-0.123363	-0.324519	0.633496
N570	N	0.209970	0.008815	0.966829
H571	H	-0.473631	-0.633710	0.320870
H572	H	-0.140297	-0.300377	0.654203
H573	H	0.193036	0.032957	0.987536
H574	H	-0.268828	-0.054058	0.268605
H575	H	0.064506	0.279275	0.601938
H576	H	0.397839	0.612608	0.935271
N577	N	-0.274788	0.050664	0.274565
N578	N	0.058546	0.383997	0.607898
N579	N	0.391879	0.717331	0.941232
N580	N	-0.271879	0.044549	0.316025
N581	N	0.061454	0.377882	0.649358
N582	N	0.394788	0.711215	0.982691
H583	H	-0.292636	0.064254	0.336721
H584	H	0.040697	0.397587	0.670055
H585	H	0.374030	0.730921	1.003388
H586	H	-0.744102	-0.849676	0.135789
H587	H	-0.410769	-0.516343	0.469122
H588	H	-0.077436	-0.183010	0.802455
N589	N	-0.303398	-0.654328	0.739718
N590	N	0.029935	-0.320995	1.073051
N591	N	0.363268	0.012338	1.406384
N592	N	-0.329041	-0.624458	0.760671
N593	N	0.004293	-0.291124	1.094004
N594	N	0.337626	0.042209	1.427337
H595	H	-0.349773	-0.600311	0.743755
H596	H	-0.016439	-0.266978	1.077088
H597	H	0.316894	0.066355	1.410421
N598	N	-0.158382	-0.562072	0.158531
N599	N	0.174952	-0.228739	0.491864
N600	N	0.508285	0.104595	0.825197
N601	N	-0.161278	-0.555955	0.117070
N602	N	0.172055	-0.222622	0.450404
N603	N	0.505388	0.110712	0.783737
H604	H	-0.140508	-0.575650	0.096380
H605	H	0.192825	-0.242316	0.429713
H606	H	0.526159	0.091017	0.763046
N607	N	-0.834209	-0.654421	0.303287
N608	N	-0.500876	-0.321088	0.636621
N609	N	-0.167543	0.012246	0.969954
N610	N	-0.813275	-0.624541	0.328906
N611	N	-0.479942	-0.291208	0.662240
N612	N	-0.146609	0.042126	0.995573
H613	H	-0.830207	-0.600401	0.349618
H614	H	-0.496873	-0.267068	0.682951
H615	H	-0.163540	0.066265	1.016284
N616	N	-0.274764	-0.562056	0.274479
N617	N	0.058570	-0.228723	0.607812
N618	N	0.391903	0.104611	0.941146
N619	N	-0.300461	-0.537666	0.300084
N620	N	0.032872	-0.204332	0.633417
N621	N	0.366206	0.129001	0.966751
H622	H	-0.321231	-0.557349	0.320772
H623	H	0.012102	-0.224015	0.654105
H624	H	0.345436	0.109318	0.987438
N625	N	-0.274653	-0.687805	1.050364
N626	N	0.058680	-0.354472	1.383698
N627	N	0.392014	-0.021139	1.717031
N628	N	-0.300300	-0.657931	1.029405
N629	N	0.033033	-0.324598	1.362738
N630	N	0.366367	0.008736	1.696071
H631	H	-0.321029	-0.633788	1.046316
H632	H	0.012305	-0.300454	1.379649
H633	H	0.345638	0.032879	1.712982
N634	N	-0.303401	-0.654341	0.834534
N635	N	0.029932	-0.321007	1.167867
N636	N	0.363265	0.012326	1.501200
N637	N	-0.329051	-0.624473	0.813570
N638	N	0.004282	-0.291140	1.146903
N639	N	0.337616	0.042193	1.480237
H640	H	-0.349786	-0.600335	0.830478
H641	H	-0.016453	-0.267001	1.163811
H642	H	0.316880	0.066332	1.497144
N643	N	-0.158429	0.050628	0.158599
N644	N	0.174904	0.383962	0.491933
N645	N	0.508238	0.717295	0.825266
N646	N	-0.132734	0.026236	0.132993
N647	N	0.200599	0.359569	0.466327
N648	N	0.533932	0.692902	0.799660
H649	H	-0.111969	0.045917	0.112300
H650	H	0.221364	0.379250	0.445633
H651	H	0.554698	0.712584	0.778966
H652	H	-0.164378	-0.054072	0.164540
H653	H	0.168955	0.279262	0.497873
H654	H	0.502289	0.612595	0.831207
H655	H	-0.135567	-0.305261	0.135848
H656	H	0.197767	0.028072	0.469181
H657	H	0.531100	0.361406	0.802514
H658	H	-0.164496	-0.816160	0.473133
H659	H	0.168838	-0.482827	0.806466
H660	H	0.502171	-0.149493	1.139800
N661	N	-0.129783	-0.856549	0.739763
N662	N	0.203550	-0.523216	1.073096
N663	N	0.536883	-0.189882	1.406430
N664	N	-0.104136	-0.886418	0.760728
N665	N	0.229197	-0.553084	1.094061
N666	N	0.562531	-0.219751	1.427395
H667	H	-0.083407	-0.910565	0.743821
H668	H	0.249926	-0.577232	1.077155
H669	H	0.583259	-0.243898	1.410488
N670	N	-0.129770	-0.856536	0.834584
N671	N	0.203563	-0.523202	1.167917
N672	N	0.536897	-0.189869	1.501250
N673	N	-0.104122	-0.886405	0.813636
N674	N	0.229211	-0.553072	1.146969
N675	N	0.562544	-0.219739	1.480302
H676	H	-0.083388	-0.910545	0.830556
H677	H	0.249945	-0.577212	1.163889
H678	H	0.583279	-0.243878	1.497223
H679	H	-0.164460	-0.816163	0.960414
H680	H	0.168874	-0.482830	1.293747
H681	H	0.502207	-0.149497	1.627080
N682	N	-0.158506	-0.823094	1.050404
N683	N	0.174828	-0.489761	1.383737
N684	N	0.508161	-0.156427	1.717071
N685	N	-0.158510	-0.823085	1.092295
N686	N	0.174823	-0.489752	1.425628
N687	N	0.508156	-0.156418	1.758961
H688	H	-0.137788	-0.847222	1.109232
H689	H	0.195545	-0.513889	1.442566
H690	H	0.528879	-0.180555	1.775899
H691	H	-0.297448	-0.661266	0.688933
H692	H	0.035885	-0.327932	1.022266
H693	H	0.369219	0.005401	1.355600
