data_functionalizedCrystal
_audit_creation_method	'MofGen! by Chris Wilmer'
_symmetry_space_group_name_H-M	'P1'
_symmetry_Int_Tables_number	1
_symmetry_cell_setting	triclinic
loop_
_symmetry_equiv_pos_as_xyz
  x,y,z
_cell_length_a	23.196402
_cell_length_b	15.698487
_cell_length_c	23.196401
_cell_angle_alpha	60.008297
_cell_angle_beta	90.011712
_cell_angle_gamma	59.999178
loop_
_atom_site_label
_atom_site_type_symbol
_atom_site_fract_x
_atom_site_fract_y
_atom_site_fract_z
Zr1	Zr	0.555343	0.932412	-0.075659
O2	O	0.463271	1.110123	-0.167705
O3	O	0.583568	0.754702	-0.047444
O4	O	0.583539	0.932415	-0.167712
O5	O	0.463322	0.932407	0.047434
O6	O	0.678409	0.932417	-0.167715
O7	O	0.463299	0.932410	-0.047437
O8	O	0.678461	0.614520	0.047422
O9	O	0.463270	1.250304	-0.167703
O10	O	0.666406	0.827798	-0.035411
O11	O	0.595623	0.827795	0.035393
O12	O	0.595589	1.037030	-0.106207
O13	O	0.524805	1.037026	-0.035403
Zr14	Zr	0.706686	0.932412	0.075644
Zr15	Zr	0.706650	0.932416	-0.075665
Zr16	Zr	0.555379	0.932409	0.075649
Zr17	Zr	0.555343	1.155985	-0.075656
Zr18	Zr	0.706686	0.708839	0.075641
O19	O	0.678460	1.110123	0.047429
O20	O	0.678409	1.110128	-0.167713
O21	O	0.463322	1.110118	0.047437
O22	O	0.798758	0.754702	0.167690
O23	O	0.798707	0.754707	-0.047452
O24	O	0.583620	0.754697	0.167697
O25	O	0.798706	0.932417	-0.047449
O26	O	0.678489	0.932410	0.167697
O27	O	0.583619	0.932407	0.167700
O28	O	0.798729	0.932415	0.047422
O29	O	0.583539	1.250307	-0.167707
O30	O	0.678490	0.614518	0.167692
O31	O	0.798758	0.614520	0.167688
O32	O	0.798729	0.614523	0.047417
O33	O	0.463299	1.250302	-0.047433
O34	O	0.583568	1.250304	-0.047437
O35	O	0.666440	0.827795	0.106192
O36	O	0.737223	0.827798	0.035388
O37	O	0.666406	1.037030	-0.035408
O38	O	0.595623	1.037026	0.035396
C39	C	0.441753	0.932408	-0.000001
C40	C	0.377519	0.932407	0.000001
C41	C	0.631015	0.652757	-0.000012
C42	C	0.631015	0.557844	-0.000013
C43	C	0.384310	0.823193	0.036949
C44	C	0.323956	0.823192	0.036952
C45	C	0.256811	0.932410	-0.000007
C46	C	0.250023	1.041637	-0.036956
C47	C	0.310377	1.041636	-0.036952
C48	C	0.132867	1.016086	-0.061916
C49	C	0.072515	1.016083	-0.061922
C50	C	0.070657	0.932419	-0.000018
C51	C	0.129164	0.848737	0.061892
C52	C	0.189519	0.848735	0.061896
C53	C	0.191363	0.932423	-0.000015
C54	C	0.012007	0.823196	0.036937
C55	C	-0.048350	0.823199	0.036942
C56	C	-0.122283	1.041648	-0.036973
C57	C	-0.061926	1.041642	-0.036971
C58	C	0.005217	0.932413	-0.000018
C59	C	0.631013	0.384061	-0.000001
C60	C	0.631012	0.480766	-0.000006
C61	C	0.820276	0.932417	-0.000014
C62	C	0.884509	0.932418	-0.000016
C63	C	0.630969	0.932417	-0.189272
C64	C	0.630954	0.932418	-0.253507
C65	C	0.631014	1.212068	-0.000003
C66	C	0.631014	1.306981	-0.000002
C67	C	0.593991	1.041631	-0.320634
C68	C	0.594009	1.041633	-0.380990
C69	C	0.630980	0.932415	-0.374213
C70	C	0.667951	0.823187	-0.307073
C71	C	0.667937	0.823189	-0.246720
C72	C	0.625730	0.848738	-0.441531
C73	C	0.625738	0.848741	-0.501885
C74	C	0.631025	0.932406	-0.560361
C75	C	0.636289	1.016088	-0.558482
C76	C	0.636275	1.016089	-0.498129
C77	C	0.630999	0.932401	-0.439652
C78	C	0.594080	1.041628	-0.692935
C79	C	0.594103	1.041626	-0.753290
C80	C	0.668040	0.823177	-0.679371
C81	C	0.668021	0.823183	-0.619018
C82	C	0.631038	0.932412	-0.625805
C83	C	0.631060	0.932408	0.189257
C84	C	0.631075	0.932407	0.253491
C85	C	0.820276	0.652761	-0.000018
C86	C	0.884510	0.557850	-0.000022
C87	C	0.631060	0.652752	0.189252
C88	C	0.631075	0.557838	0.253486
C89	C	0.820321	0.652757	0.189246
C90	C	0.884570	0.557844	0.253477
C91	C	0.441707	1.212068	-0.189261
C92	C	0.377458	1.306981	-0.253492
C93	C	0.441753	1.212064	0.000003
C94	C	0.377519	1.306975	0.000007
C95	C	0.630969	1.212072	-0.189268
C96	C	0.630953	1.306986	-0.253501
C97	C	0.877709	0.513279	-0.036987
C98	C	0.938057	0.424112	-0.037004
C99	C	1.005206	0.379512	-0.000053
C100	C	1.012006	0.424092	0.036913
C101	C	0.951658	0.513263	0.036926
C102	C	0.668048	0.513266	0.320613
C103	C	0.668060	0.424096	0.380973
C104	C	0.631103	0.379495	0.374203
C105	C	0.594125	0.424076	0.307069
C106	C	0.594109	0.513250	0.246711
C107	C	0.951697	0.513274	0.246681
C108	C	1.012072	0.424106	0.307027
C109	C	1.005318	0.379503	0.374168
C110	C	0.938184	0.424083	0.380962
C111	C	0.877811	0.513255	0.320617
C112	C	0.310332	1.351562	-0.246697
C113	C	0.249957	1.440757	-0.307043
C114	C	0.256711	1.485364	-0.374183
C115	C	0.323844	1.440780	-0.380977
C116	C	0.384217	1.351592	-0.320632
C117	C	0.384320	1.351555	0.036965
C118	C	0.323971	1.440747	0.036966
C119	C	0.256822	1.485350	0.000013
C120	C	0.250023	1.440766	-0.036950
C121	C	0.310371	1.351582	-0.036955
C122	C	0.667918	1.351559	-0.246709
C123	C	0.667917	1.440729	-0.307057
C124	C	0.630947	1.485331	-0.374196
C125	C	0.593981	1.440749	-0.380987
C126	C	0.593987	1.351575	-0.320639
H127	H	0.438977	0.734250	0.067035
C128	C	0.708671	0.703047	-0.545176
H129	H	0.730688	0.637999	-0.549782
H130	H	0.743639	0.698503	-0.520079
H131	H	0.676759	0.698511	-0.520113
H132	H	0.823156	0.549533	0.326160
C133	C	1.071730	0.281418	0.440544
H134	H	1.058099	0.261239	0.481507
H135	H	1.099036	0.211843	0.440541
H136	H	1.099024	0.310675	0.440535
H137	H	0.329335	1.477110	-0.435650
H138	H	0.304823	1.315287	-0.067049
H139	H	0.564006	1.130564	-0.807950
C140	C	0.553442	0.562263	0.172875
H141	H	0.531442	0.522915	0.177495
H142	H	0.518460	0.646458	0.147786
H143	H	0.585341	0.547628	0.147796
H144	H	0.957205	0.549542	0.067031
C145	C	0.619911	0.756706	-0.377213
H146	H	0.616766	0.706883	-0.386979
H147	H	0.660499	0.708315	-0.337283
H148	H	0.578865	0.798152	-0.367707
H149	H	0.932507	0.387826	-0.067106
H150	H	0.438873	1.315294	-0.326173
C151	C	0.553478	0.375006	0.299628
H152	H	0.531449	0.414323	0.251006
H153	H	0.585390	0.290810	0.321643
H154	H	0.518509	0.389630	0.321640
C155	C	0.553313	1.302568	-0.328119
H156	H	0.531291	1.341918	-0.376749
H157	H	0.585205	1.218373	-0.306117
H158	H	0.518337	1.317207	-0.306117
C159	C	-0.040878	0.703058	0.077585
H160	H	0.007754	0.638010	0.099586
H161	H	-0.062876	0.698506	0.112561
H162	H	-0.062894	0.698530	0.045676
C163	C	0.630941	1.583430	-0.440572
H164	H	0.658247	1.603591	-0.426905
H165	H	0.650721	1.554214	-0.467883
H166	H	0.583846	1.653021	-0.467871
H167	H	0.698024	1.315259	-0.192046
C168	C	0.959136	0.562328	0.172833
H169	H	0.913570	0.621815	0.137860
H170	H	0.984208	0.597124	0.167540
H171	H	0.984215	0.498301	0.167538
H172	H	0.932696	0.387754	0.435636
C173	C	0.553267	1.489889	-0.454840
H174	H	0.531239	1.450592	-0.450249
H175	H	0.518303	1.574080	-0.479874
H176	H	0.585133	1.475311	-0.479957
H177	H	-0.067459	1.130575	-0.067063
H178	H	0.134366	1.084234	-0.112327
H179	H	0.329485	0.734254	0.067040
H180	H	0.698144	0.549570	0.326138
C181	C	0.708574	1.489766	-0.299579
H182	H	0.703287	1.549254	-0.345132
H183	H	0.690322	1.524557	-0.274503
H184	H	0.757203	1.425732	-0.274496
C185	C	0.253868	0.756707	0.129993
H186	H	0.244120	0.706881	0.166865
H187	H	0.293788	0.708318	0.122153
H188	H	0.263384	0.798155	0.142982
C189	C	0.803851	0.562330	-0.077638
H190	H	0.768877	0.621816	-0.072337
H191	H	0.798547	0.597126	-0.126259
H192	H	0.798562	0.498302	-0.059387
H193	H	0.127662	0.780590	0.112297
H194	H	0.066678	0.734255	0.067041
C195	C	0.631130	0.281398	0.440601
H196	H	0.658451	0.261238	0.481547
H197	H	0.584047	0.310616	0.440616
H198	H	0.650926	0.211806	0.440610
H199	H	0.563966	1.130569	-0.698461
C200	C	0.708706	0.703039	-0.671910
H201	H	0.703418	0.718678	-0.717468
H202	H	0.757329	0.658160	-0.646819
H203	H	0.690450	0.658166	-0.646849
H204	H	1.066729	0.387818	0.301483
C205	C	0.619946	0.756702	-0.503952
H206	H	0.620701	0.768693	-0.548273
H207	H	0.658593	0.677415	-0.467229
H208	H	0.576958	0.767235	-0.497639
H209	H	1.066687	0.387766	0.066997
C210	C	0.302889	1.302523	-0.172850
H211	H	0.254260	1.341871	-0.177456
H212	H	0.324896	1.218329	-0.147765
H213	H	0.324906	1.317148	-0.147776
C214	C	0.458176	1.302507	0.077618
H215	H	0.453573	1.341849	0.099621
H216	H	0.483265	1.218313	0.112592
H217	H	0.483249	1.317127	0.045714
C218	C	1.071583	0.281415	-0.000066
H219	H	1.057909	0.261254	-0.027368
H220	H	1.098888	0.310631	-0.019853
H221	H	1.098894	0.211823	0.047021
C222	C	0.708744	0.375062	0.454811
H223	H	0.730761	0.414386	0.450192
H224	H	0.676858	0.389683	0.479899
H225	H	0.743726	0.290862	0.479890
C226	C	0.708615	0.703051	-0.299617
H227	H	0.703323	0.718691	-0.345176
H228	H	0.757239	0.658173	-0.274529
H229	H	0.690360	0.658177	-0.274554
C230	C	0.708592	0.703049	-0.172876
H231	H	0.730611	0.638000	-0.177481
H232	H	0.743558	0.698509	-0.147779
H233	H	0.676679	0.698513	-0.147815
H234	H	0.207545	1.557987	-0.423315
C235	C	-0.196134	1.161786	-0.077625
H236	H	-0.231107	1.146147	-0.072338
H237	H	-0.201424	1.206660	-0.059372
H238	H	-0.201438	1.206663	-0.126250
C239	C	0.008165	1.108128	-0.130019
H240	H	0.017909	1.157971	-0.166883
H241	H	-0.001364	1.066706	-0.143019
H242	H	-0.031752	1.156515	-0.122168
H243	H	0.195300	1.477043	-0.301497
C244	C	0.331464	1.489762	0.077634
H245	H	0.380099	1.450404	0.099650
H246	H	0.309460	1.573954	0.045744
H247	H	0.309464	1.475139	0.112611
H248	H	0.195349	1.130563	-0.067048
H249	H	0.304842	1.130573	-0.067038
H250	H	0.195342	1.477095	-0.067037
C251	C	0.553320	1.161775	-0.328097
H252	H	0.558602	1.146138	-0.282539
H253	H	0.571569	1.206652	-0.353162
H254	H	0.504693	1.206649	-0.353185
C255	C	0.553341	1.161772	-0.454838
H256	H	0.531309	1.226823	-0.450236
H257	H	0.585239	1.166325	-0.479913
H258	H	0.518373	1.166292	-0.479922
H259	H	0.640563	1.084224	-0.496603
C260	C	0.190446	1.583446	0.000026
H261	H	0.204120	1.603595	0.027336
H262	H	0.163128	1.653034	-0.047056
H263	H	0.163147	1.554212	0.019822
H264	H	0.640590	1.084219	-0.606096
