data_functionalizedCrystal
_audit_creation_method	'MofGen! by Chris Wilmer'
_symmetry_space_group_name_H-M	'P1'
_symmetry_Int_Tables_number	1
_symmetry_cell_setting	triclinic
loop_
_symmetry_equiv_pos_as_xyz
  x,y,z
_cell_length_a	19.077105
_cell_length_b	12.759400
_cell_length_c	19.077314
_cell_angle_alpha	87.679098
_cell_angle_beta	89.892247
_cell_angle_gamma	87.711155
loop_
_atom_site_label
_atom_site_type_symbol
_atom_site_fract_x
_atom_site_fract_y
_atom_site_fract_z
Zn1	Zn	1.058331	-0.455462	-0.440445
Zn2	Zn	1.558331	0.044538	0.059555
Zn3	Zn	1.062989	-0.638478	-0.322944
Zn4	Zn	1.562989	-0.138478	0.177056
Zn5	Zn	0.945547	-0.456042	-0.318236
Zn6	Zn	1.445547	0.043958	0.181764
Zn7	Zn	0.940812	-0.624324	-0.435698
Zn8	Zn	1.440812	-0.124324	0.064302
O9	O	1.001920	-0.543577	-0.379331
O10	O	1.501920	-0.043577	0.120669
O11	O	1.157282	-0.485420	-0.428815
O12	O	1.657282	0.014580	0.071185
O13	O	1.051341	-0.620444	-0.223987
O14	O	1.551341	-0.120444	0.276013
O15	O	0.960540	-0.308945	-0.334464
O16	O	1.460540	0.191055	0.165536
O17	O	1.160704	-0.619882	-0.342488
O18	O	1.660704	-0.119882	0.157512
O19	O	1.043402	-0.308519	-0.424250
O20	O	1.543402	0.191481	0.075750
O21	O	0.965056	-0.486408	-0.220528
O22	O	1.465056	0.013592	0.279472
O23	O	0.846586	-0.472684	-0.329861
O24	O	1.346586	0.027316	0.170139
O25	O	0.952470	-0.595758	-0.534660
O26	O	1.452470	-0.095758	-0.034660
O27	O	0.843107	-0.596320	-0.416160
O28	O	1.343107	-0.096320	0.083840
O29	O	1.038811	-0.471695	-0.538148
O30	O	1.538811	0.028305	-0.038148
O31	O	1.046750	-0.783621	-0.337885
O32	O	1.546750	-0.283621	0.162115
O33	O	0.956987	-0.773222	-0.420725
O34	O	1.456987	-0.273222	0.079275
C35	C	0.819350	-0.533030	-0.371985
C36	C	1.319350	-0.033030	0.128015
C37	C	0.741245	-0.528542	-0.368859
C38	C	1.241245	-0.028542	0.131141
C39	C	1.001879	-0.816542	-0.379317
C40	C	1.501879	-0.316542	0.120683
C41	C	1.001924	-0.933320	-0.379337
C42	C	1.501924	-0.433320	0.120663
C43	C	0.702762	-0.590911	-0.412251
C44	C	1.202762	-0.090911	0.087749
C45	C	0.629374	-0.586680	-0.409317
C46	C	1.129374	-0.086680	0.090683
C47	C	0.594471	-0.520086	-0.362987
C48	C	1.094471	-0.020086	0.137013
C49	C	0.632960	-0.457710	-0.319594
C50	C	1.132960	0.042290	0.180406
C51	C	0.706346	-0.461936	-0.322531
C52	C	1.206346	0.038064	0.177469
C53	C	0.375181	-0.500528	-0.349393
C54	C	0.875181	-0.000528	0.150607
C55	C	0.301790	-0.496309	-0.346457
C56	C	0.801790	0.003691	0.153543
C57	C	0.298209	-0.625278	-0.436182
C58	C	0.798209	-0.125278	0.063818
C59	C	0.371597	-0.629502	-0.439113
C60	C	0.871597	-0.129502	0.060887
C61	C	0.410079	-0.567123	-0.395722
C62	C	0.910079	-0.067123	0.104278
N63	N	0.519457	-0.515762	-0.359986
N64	N	1.019457	-0.015762	0.140014
N65	N	0.485092	-0.571442	-0.398727
N66	N	0.985092	-0.071442	0.101273
C67	C	1.045050	-0.987867	-0.426126
C68	C	1.545050	-0.487867	0.073874
C69	C	1.045088	-1.097592	-0.426147
C70	C	1.545088	-0.597592	0.073853
C71	C	0.958875	-1.098215	-0.332583
C72	C	1.458875	-0.598215	0.167417
C73	C	0.958833	-0.988491	-0.332566
C74	C	1.458833	-0.488491	0.167434
C75	C	1.066873	-1.243715	-0.510069
C76	C	1.566873	-0.743715	-0.010069
C77	C	1.110009	-1.298266	-0.556853
C78	C	1.610009	-0.798266	-0.056853
C79	C	1.178119	-1.265837	-0.570449
C80	C	1.678119	-0.765837	-0.070449
C81	C	1.203106	-1.178859	-0.537252
C82	C	1.703106	-0.678859	-0.037252
C83	C	1.159973	-1.124313	-0.490464
C84	C	1.659973	-0.624313	0.009536
C85	C	1.091853	-1.156740	-0.476881
C86	C	1.591853	-0.656740	0.023119
C87	C	0.937056	-0.842367	-0.248643
C88	C	1.437056	-0.342367	0.251357
C89	C	0.893927	-0.787820	-0.201851
C90	C	1.393927	-0.287820	0.298149
C91	C	0.825816	-0.820248	-0.188247
C92	C	1.325816	-0.320248	0.311753
C93	C	0.800832	-0.907231	-0.221431
C94	C	1.300832	-0.407231	0.278569
C95	C	0.843962	-0.961777	-0.268224
C96	C	1.343962	-0.461777	0.231776
C97	C	0.912071	-0.929342	-0.281828
C98	C	1.412071	-0.429342	0.218172
C99	C	1.185202	-0.554165	-0.386706
C100	C	1.685202	-0.054165	0.113294
C101	C	1.263306	-0.558677	-0.389849
C102	C	1.763306	-0.058677	0.110151
C103	C	0.994593	-0.532083	-0.562614
C104	C	1.494593	-0.032083	-0.062614
C105	C	0.991471	-0.527186	-0.640718
C106	C	1.491471	-0.027186	-0.140718
C107	C	1.001979	-0.269545	-0.379361
C108	C	1.501979	0.230455	0.120639
C109	C	1.002005	-0.152769	-0.379374
C110	C	1.502005	0.347231	0.120626
C111	C	1.034924	-0.594666	-0.679215
C112	C	1.534924	-0.094666	-0.179215
C113	C	1.031990	-0.590051	-0.752602
C114	C	1.531990	-0.090051	-0.252602
C115	C	0.985599	-0.517960	-0.787491
C116	C	1.485599	-0.017960	-0.287491
C117	C	0.942144	-0.450473	-0.748988
C118	C	1.442144	0.049527	-0.248988
C119	C	0.945082	-0.455083	-0.675603
C120	C	1.445082	0.044917	-0.175603
C121	C	0.971999	-0.496684	-1.006777
C122	C	1.471999	0.003316	-0.506777
C123	C	0.969063	-0.492081	-1.080168
C124	C	1.469063	0.007919	-0.580168
C125	C	1.058911	-0.631659	-1.083776
C126	C	1.558911	-0.131659	-0.583776
C127	C	1.061842	-0.636267	-1.010389
C128	C	1.561842	-0.136267	-0.510389
C129	C	1.018389	-0.568775	-0.971893
C130	C	1.518389	-0.068775	-0.471893
N131	N	0.982598	-0.513244	-0.862504
N132	N	1.482598	-0.013244	-0.362504
N133	N	1.021395	-0.573488	-0.896881
N134	N	1.521395	-0.073488	-0.396881
C135	C	1.009258	-0.554952	-0.196763
C136	C	1.509258	-0.054952	0.303237
C137	C	1.012517	-0.559561	-0.118665
C138	C	1.512517	-0.059561	0.381335
H139	H	0.731174	-0.645143	-0.449975
H140	H	1.231174	-0.145143	0.050025
H141	H	0.406505	-0.449742	-0.314056
H142	H	0.906505	0.050258	0.185944
C143	C	0.918028	-0.412771	-1.118543
C144	C	1.418028	0.087229	-0.618543
N145	N	0.879588	-0.353039	-1.147448
N146	N	1.379588	0.146961	-0.647448
H147	H	1.011410	-1.270120	-0.499010
H148	H	1.511410	-0.770120	0.000990
C149	C	1.106597	-0.706050	-1.126123
C150	C	1.606597	-0.206050	-0.626123
N151	N	1.142477	-0.762140	-1.158017
N152	N	1.642477	-0.262140	-0.658017
H153	H	0.936614	-0.441732	-0.975442
H154	H	1.436614	0.058268	-0.475442
C155	C	1.082519	-1.393935	-0.593371
C156	C	1.582519	-0.893935	-0.093371
N157	N	1.061817	-1.465994	-0.620876
N158	N	1.561817	-0.965994	-0.120876
H159	H	0.923792	-1.143148	-0.294503
H160	H	1.423792	-0.643148	0.205497
H161	H	0.604536	-0.403483	-0.281874
H162	H	1.104536	0.096517	0.218126
H163	H	0.823614	-1.032603	-0.295244
H164	H	1.323614	-0.532603	0.204756
C165	C	0.587046	-0.655312	-0.457038
C166	C	1.087046	-0.155312	0.042962
N167	N	0.555165	-0.707015	-0.492980
N168	N	1.055165	-0.207015	0.007020
H169	H	1.180318	-1.053499	-0.463435
H170	H	1.680318	-0.553499	0.036565
C171	C	0.725907	-0.942904	-0.206468
C172	C	1.225907	-0.442904	0.293532
N173	N	0.669472	-0.969771	-0.195195
N174	N	1.169472	-0.469771	0.304805
H175	H	0.992513	-0.815944	-0.259726
H176	H	1.492513	-0.315944	0.240274
H177	H	0.790702	-0.775827	-0.150143
H178	H	1.290702	-0.275827	0.349857
C179	C	1.278055	-1.143252	-0.552162
C180	C	1.778055	-0.643252	-0.052162
N181	N	1.334516	-1.116449	-0.563377
N182	N	1.834516	-0.616449	-0.063377
H183	H	1.072703	-0.653367	-0.650814
H184	H	1.572703	-0.153367	-0.150814
C185	C	0.921414	-0.692142	-0.165342
C186	C	1.421414	-0.192142	0.334658
N187	N	0.942118	-0.620077	-0.137845
N188	N	1.442118	-0.120077	0.362155
H189	H	1.213241	-1.310260	-0.608542
H190	H	1.713241	-0.810260	-0.108542
H191	H	0.904374	-0.391771	-0.777401
H192	H	1.404374	0.108229	-0.277401
H193	H	0.737679	-0.411143	-0.287201
H194	H	1.237679	0.088857	0.212799
H195	H	1.067375	-0.645001	-0.783943
H196	H	1.567375	-0.145001	-0.283943
C197	C	1.112917	-0.715514	-0.972019
C198	C	1.612917	-0.215514	-0.472019
N199	N	1.151400	-0.775185	-0.943119
N200	N	1.651400	-0.275185	-0.443119
C201	C	0.897278	-0.380851	-0.633256
C202	C	1.397278	0.119149	-0.133256
N203	N	0.861271	-0.324936	-0.601362
N204	N	1.361271	0.175064	-0.101362
C205	C	0.409984	-0.702766	-0.490076
C206	C	0.909984	-0.202766	0.009924
N207	N	0.438898	-0.757955	-0.528459
N208	N	0.938898	-0.257955	-0.028459
C209	C	0.263399	-0.423046	-0.295490
C210	C	0.763399	0.076954	0.204510
N211	N	0.234482	-0.367868	-0.257102
N212	N	0.734482	0.132132	0.242898
C213	C	0.255872	-0.693882	-0.483914
C214	C	0.755872	-0.193882	0.016086
N215	N	0.223984	-0.745554	-0.519870
N216	N	0.723984	-0.245554	-0.019870
H217	H	1.080137	-0.942950	-0.464210
H218	H	1.580137	-0.442950	0.035790
