data_functionalizedCrystal
_audit_creation_method	'MofGen! by Chris Wilmer'
_symmetry_space_group_name_H-M	'P1'
_symmetry_Int_Tables_number	1
_symmetry_cell_setting	triclinic
loop_
_symmetry_equiv_pos_as_xyz
  x,y,z
_cell_length_a	12.759401
_cell_length_b	21.295417
_cell_length_c	12.759393
_cell_angle_alpha	89.961905
_cell_angle_beta	89.979062
_cell_angle_gamma	90.032032
loop_
_atom_site_label
_atom_site_type_symbol
_atom_site_fract_x
_atom_site_fract_y
_atom_site_fract_z
Zn1	Zn	1.606151	-0.250553	-0.593965
Zn2	Zn	1.605994	-0.355835	-0.418261
Zn3	Zn	1.430450	-0.250587	-0.418300
Zn4	Zn	1.430393	-0.355791	-0.593899
O5	O	1.518247	-0.303192	-0.506106
O6	O	1.753151	-0.264523	-0.570669
O7	O	1.582665	-0.341906	-0.271245
O8	O	1.453846	-0.162493	-0.441646
O9	O	1.753035	-0.341874	-0.441580
O10	O	1.582933	-0.162468	-0.570706
O11	O	1.453694	-0.264581	-0.271274
O12	O	1.283421	-0.264538	-0.441582
O13	O	1.453750	-0.341799	-0.740929
O14	O	1.283380	-0.341831	-0.570594
O15	O	1.582879	-0.264481	-0.740977
O16	O	1.582610	-0.443919	-0.441516
O17	O	1.453597	-0.443886	-0.570556
C18	C	1.245279	-0.303184	-0.506085
C19	C	1.128503	-0.303196	-0.506101
C20	C	1.073647	-0.343504	-0.573172
C21	C	0.963923	-0.343506	-0.573193
C22	C	0.963921	-0.262891	-0.439063
C23	C	1.073643	-0.262886	-0.439048
C24	C	1.518109	-0.466743	-0.506048
C25	C	1.518146	-0.536711	-0.506058
C26	C	1.585383	-0.569574	-0.438936
C27	C	1.585432	-0.635316	-0.438960
C28	C	1.518226	-0.668194	-0.506094
C29	C	1.450985	-0.635323	-0.573230
C30	C	1.450945	-0.569582	-0.573212
N31	N	1.426319	-0.771460	-0.514097
N32	N	1.426360	-0.833912	-0.514108
C33	C	1.518344	-0.866268	-0.506155
N34	N	1.610287	-0.833814	-0.498169
N35	N	1.610245	-0.771357	-0.498153
C36	C	1.518262	-0.739479	-0.506122
C37	C	1.585640	-0.970417	-0.439054
C38	C	1.585691	-1.036160	-0.439085
C39	C	1.451233	-1.036166	-0.573350
C40	C	1.451192	-0.970423	-0.573325
C41	C	1.518393	-0.937553	-0.506171
C42	C	1.792280	-0.303200	-0.506128
C43	C	1.909057	-0.303203	-0.506137
C44	C	1.518325	-0.303131	-0.780140
C45	C	1.518359	-0.303105	-0.896916
C46	C	1.518414	-0.139001	-0.506188
C47	C	1.518485	-0.069033	-0.506222
C48	C	1.585601	-0.262839	-0.951805
C49	C	1.585619	-0.262812	-1.061529
C50	C	1.451149	-0.343322	-1.061466
C51	C	1.451127	-0.343346	-0.951744
C52	C	1.518229	-0.303206	-0.233139
C53	C	1.518399	-0.303055	-0.116363
H54	H	1.118311	-0.376325	-0.627773
N55	N	1.378736	-1.071613	-0.645758
H56	H	1.395005	-1.060124	-0.720836
H57	H	1.388992	-1.118236	-0.635501
N58	N	1.658110	-0.219439	-0.892667
H59	H	1.700709	-0.193926	-0.944093
H60	H	1.615367	-0.190315	-0.847149
H61	H	0.919264	-0.376328	-0.627810
N62	N	0.904750	-0.219432	-0.366717
H63	H	0.826917	-0.225557	-0.376892
H64	H	0.923900	-0.229191	-0.291660
H65	H	1.640449	-1.062916	-0.384429
H66	H	1.396437	-0.943665	-0.627977
N67	N	1.658132	-0.219376	-1.120732
H68	H	1.700713	-0.193887	-1.069346
H69	H	1.706736	-0.244986	-1.166260
N70	N	1.378493	-0.670776	-0.645641
H71	H	1.421178	-0.698006	-0.694372
H72	H	1.329855	-0.698061	-0.602834
H73	H	1.118308	-0.230058	-0.384431
H74	H	1.640188	-0.662078	-0.384301
N75	N	1.378576	-0.386772	-0.892549
H76	H	1.394837	-0.431748	-0.911617
H77	H	1.388782	-0.380627	-0.814738
N78	N	1.657877	-0.534120	-0.366525
H79	H	1.700484	-0.564919	-0.324011
H80	H	1.706456	-0.506801	-0.409339
N81	N	1.378641	-0.386731	-1.120588
H82	H	1.303584	-0.376952	-1.101481
H83	H	1.388939	-0.380595	-1.198410
N84	N	1.378421	-0.534133	-0.645609
H85	H	1.335853	-0.564933	-0.688146
H86	H	1.329805	-0.506907	-0.602788
H87	H	1.640363	-0.943652	-0.384377
