data_functionalizedCrystal
_audit_creation_method	'MofGen! by Chris Wilmer'
_symmetry_space_group_name_H-M	'P1'
_symmetry_Int_Tables_number	1
_symmetry_cell_setting	triclinic
loop_
_symmetry_equiv_pos_as_xyz
  x,y,z
_cell_length_a	10.723024
_cell_length_b	13.596369
_cell_length_c	14.519731
_cell_angle_alpha	90.005054
_cell_angle_beta	95.921639
_cell_angle_gamma	90.005655
loop_
_atom_site_label
_atom_site_type_symbol
_atom_site_fract_x
_atom_site_fract_y
_atom_site_fract_z
O1	O	1.655996	0.081772	-0.129342
O2	O	2.155996	0.581772	0.370658
O3	O	1.292729	0.081774	-0.141723
O4	O	1.792729	0.581774	0.358277
O5	O	1.483980	0.081780	-0.001345
O6	O	1.983980	0.581780	0.498655
O7	O	1.464745	0.081766	-0.269721
O8	O	1.964745	0.581766	0.230279
O9	O	1.483956	-0.081803	-0.001352
O10	O	1.983956	0.418197	0.498648
O11	O	1.292705	-0.081809	-0.141731
O12	O	1.792705	0.418191	0.358269
O13	O	1.655972	-0.081811	-0.129350
O14	O	2.155972	0.418189	0.370650
Zn15	Zn	1.474335	-0.107782	-0.135542
Zn16	Zn	1.974335	0.392218	0.364458
Zn17	Zn	1.474366	0.107745	-0.135531
Zn18	Zn	1.974366	0.607745	0.364469
O19	O	1.464721	-0.081817	-0.269728
O20	O	1.964721	0.418183	0.230272
C21	C	1.246226	-0.000017	-0.140826
C22	C	1.746226	0.499983	0.359174
C23	C	1.107697	-0.000015	-0.138130
C24	C	1.607697	0.499985	0.361870
N25	N	1.474323	-0.254874	-0.135548
N26	N	1.974323	0.245126	0.364452
C27	C	1.031987	-0.000019	-0.216679
C28	C	1.531987	0.499981	0.283321
C29	C	0.888810	-0.000018	-0.213894
C30	C	1.388810	0.499982	0.286106
C31	C	1.474329	-0.343872	-0.135550
C32	C	1.974329	0.156128	0.364450
C33	C	1.474341	-0.455523	-0.135544
C34	C	1.974341	0.044477	0.364456
C35	C	1.474358	-0.544514	-0.135533
C36	C	1.974358	-0.044514	0.364467
C37	C	1.474372	-0.656172	-0.135528
C38	C	1.974372	-0.156172	0.364472
C39	C	1.702475	-0.000018	-0.130247
C40	C	2.202475	0.499982	0.369753
C41	C	1.841005	-0.000013	-0.132943
C42	C	2.341005	0.499987	0.367057
N43	N	1.474388	0.254837	-0.135518
N44	N	1.974388	0.754837	0.364482
C45	C	1.465634	-0.000027	-0.304089
C46	C	1.965634	0.499973	0.195911
C47	C	1.468335	-0.000032	-0.406483
C48	C	1.968335	0.499968	0.093517
C49	C	1.470530	-0.000029	-0.489638
C50	C	1.970530	0.499971	0.010362
C51	C	1.473272	-0.000019	-0.593961
C52	C	1.973272	0.499981	-0.093961
C53	C	1.475448	-0.000011	-0.677111
C54	C	1.975448	0.499989	-0.177111
C55	C	1.478190	-0.000004	-0.781440
C56	C	1.978190	0.499996	-0.281440
C57	C	1.483067	-0.000007	0.033016
C58	C	1.983067	0.499993	0.533016
C59	C	1.480366	0.000004	0.135410
C60	C	1.980366	0.500004	0.635410
H61	H	0.823755	-0.000017	-0.281138
H62	H	1.323755	0.499983	0.218862
O63	O	0.918419	0.000035	-0.052626
O64	O	1.418419	0.500035	0.447374
C65	C	0.846160	0.000014	0.023182
C66	C	1.346160	0.500014	0.523182
H67	H	0.749050	0.030981	0.000475
H68	H	1.249050	0.530981	0.500475
H69	H	0.836868	-0.078464	0.049264
H70	H	1.336868	0.421536	0.549264
C71	C	1.030230	0.026136	0.129322
C72	C	1.530230	0.526136	0.629322
C73	C	0.910962	0.064178	0.101435
C74	C	1.410962	0.564178	0.601435
H75	H	1.070204	0.065712	0.177594
H76	H	1.570204	0.565712	0.677594
H77	H	1.078914	0.026147	0.078250
H78	H	1.578914	0.526147	0.578250
H79	H	1.022470	-0.039261	0.151051
H80	H	1.522470	0.460739	0.651051
H81	H	0.918724	0.129569	0.079696
H82	H	1.418724	0.629569	0.579696
H83	H	0.862281	0.064180	0.152506
H84	H	1.362281	0.564180	0.652506
O85	O	1.080896	-0.000066	-0.299448
O86	O	1.580896	0.499934	0.200552
C87	C	0.982703	-0.000042	-0.371942
C88	C	1.482703	0.499958	0.128058
H89	H	0.894159	-0.031009	-0.345626
H90	H	1.394159	0.468991	0.154374
H91	H	0.964403	0.078437	-0.397485
H92	H	1.464403	0.578437	0.102515
C93	C	1.128522	-0.026161	-0.484498
C94	C	1.628522	0.473839	0.015502
C95	C	1.019774	-0.064203	-0.452177
C96	C	1.519774	0.435797	0.047823
H97	H	1.151390	-0.065735	-0.533993
H98	H	1.651390	0.434265	-0.033993
H99	H	1.194678	-0.026174	-0.435658
H100	H	1.694678	0.473826	0.064342
H101	H	1.113258	0.039237	-0.505776
H102	H	1.613258	0.539237	-0.005776
H103	H	1.035044	-0.129595	-0.430888
H104	H	1.535044	0.370405	0.069112
H105	H	0.953621	-0.064203	-0.501015
H106	H	1.453621	0.435797	-0.001015
H107	H	1.066515	0.000013	-0.068821
H108	H	1.566515	0.500013	0.431179
