data_functionalizedCrystal
_audit_creation_method	'MofGen! by Chris Wilmer'
_symmetry_space_group_name_H-M	'P1'
_symmetry_Int_Tables_number	1
_symmetry_cell_setting	triclinic
loop_
_symmetry_equiv_pos_as_xyz
  x,y,z
_cell_length_a	14.519709
_cell_length_b	13.339070
_cell_length_c	12.996460
_cell_angle_alpha	90.005393
_cell_angle_beta	90.000052
_cell_angle_gamma	80.345280
loop_
_atom_site_label
_atom_site_type_symbol
_atom_site_fract_x
_atom_site_fract_y
_atom_site_fract_z
O1	O	-0.462554	1.343121	0.085548
O2	O	0.037446	1.843121	0.585548
O3	O	-0.401841	1.048484	0.085550
O4	O	0.098159	1.548484	0.585550
O5	O	-0.299946	1.203614	0.085558
O6	O	0.200054	1.703614	0.585558
O7	O	-0.564449	1.187990	0.085540
O8	O	-0.064449	1.687990	0.585540
O9	O	-0.299934	1.203598	-0.085575
O10	O	0.200066	1.703598	0.414425
O11	O	-0.401829	1.048468	-0.085584
O12	O	0.098171	1.548468	0.414416
O13	O	-0.462542	1.343105	-0.085585
O14	O	0.037458	1.843105	0.414415
Cu15	Cu	-0.432185	1.195785	-0.101211
Cu16	Cu	0.067815	1.695785	0.398789
Cu17	Cu	-0.432199	1.195804	0.101175
Cu18	Cu	0.067801	1.695804	0.601175
O19	O	-0.564437	1.187974	-0.085594
O20	O	-0.064437	1.687974	0.414406
C21	C	-0.391580	1.010768	-0.000017
C22	C	0.108420	1.510768	0.499983
C23	C	-0.361010	0.898411	-0.000016
C24	C	0.138990	1.398411	0.499984
C25	C	-0.598702	0.534048	-0.000016
C26	C	-0.098702	1.034048	0.499984
C27	C	-0.627426	0.639613	-0.000014
C28	C	-0.127426	1.139613	0.499986
C29	C	-0.560825	0.704317	-0.000015
C30	C	-0.060825	1.204317	0.499985
C31	C	-0.465494	0.663447	-0.000017
C32	C	0.034506	1.163447	0.499983
C33	C	-0.436767	0.557872	-0.000011
C34	C	0.063233	1.057872	0.499989
C35	C	-0.398889	0.728141	-0.000010
C36	C	0.101111	1.228141	0.499990
C37	C	-0.303559	0.687271	-0.000012
C38	C	0.196441	1.187271	0.499988
C39	C	-0.274836	0.581706	-0.000007
C40	C	0.225164	1.081706	0.499993
C41	C	-0.341438	0.517002	-0.000006
C42	C	0.158562	1.017002	0.499994
C43	C	-0.427617	0.833716	-0.000016
C44	C	0.072383	1.333716	0.499984
C45	C	-0.265682	0.857541	-0.000010
C46	C	0.234318	1.357541	0.499990
C47	C	-0.236957	0.751976	-0.000013
C48	C	0.263043	1.251976	0.499987
C49	C	-0.598988	1.188711	-0.000030
C50	C	-0.098988	1.688711	0.499970
C51	C	-0.701924	1.190892	-0.000036
C52	C	-0.201924	1.690892	0.499964
C53	C	-1.078863	1.198925	0.000004
C54	C	-0.578863	1.698925	0.500004
C55	C	-0.973988	1.196695	-0.000007
C56	C	-0.473988	1.696695	0.499993
C57	C	-0.890397	1.194909	-0.000017
C58	C	-0.390397	1.694909	0.499983
C59	C	-0.785515	1.192678	-0.000027
C60	C	-0.285515	1.692678	0.499973
C61	C	-0.265395	1.202878	-0.000004
C62	C	0.234605	1.702878	0.499996
C63	C	-0.162459	1.200696	0.000010
C64	C	0.337541	1.700696	0.500010
C65	C	-0.472804	1.380820	-0.000017
C66	C	0.027196	1.880820	0.499983
C67	C	-0.503373	1.493178	-0.000011
C68	C	-0.003373	1.993178	0.499989
N69	N	-0.432176	1.195779	-0.243558
N70	N	0.067824	1.695779	0.256442
C71	C	-0.432199	1.195802	-0.663372
C72	C	0.067801	1.695802	-0.163372
C73	C	-0.432195	1.195793	-0.546567
C74	C	0.067805	1.695793	-0.046567
C75	C	-0.432188	1.195791	-0.453469
C76	C	0.067812	1.695791	0.046531
C77	C	-0.432183	1.195780	-0.336656
C78	C	0.067817	1.695780	0.163344
N79	N	-0.432202	1.195818	0.243522
N80	N	0.067798	1.695818	0.743522
H81	H	-0.505235	0.866982	-0.000018
H82	H	-0.005235	1.366982	0.499982
O83	O	-0.201064	0.920486	0.000125
O84	O	0.298936	1.420486	0.500125
C85	C	-0.212828	0.982260	0.088766
C86	C	0.287172	1.482260	0.588766
H87	H	-0.287430	0.987733	0.118309
H88	H	0.212570	1.487733	0.618309
H89	H	-0.198760	1.061536	0.068830
H90	H	0.301240	1.561536	0.568830
H91	H	-0.161806	0.947464	0.150834
H92	H	0.338194	1.447464	0.650834
O93	O	-0.182244	0.541958	0.000184
O94	O	0.317756	1.041958	0.500184
C95	C	-0.160794	0.481600	0.088808
C96	C	0.339206	0.981600	0.588808
H97	H	-0.215403	0.506662	0.150751
H98	H	0.284597	1.006662	0.650751
H99	H	-0.088862	0.490946	0.118564
H100	H	0.411138	0.990946	0.618564
H101	H	-0.160772	0.398386	0.068775
H102	H	0.339228	0.898386	0.568775
O103	O	-0.663423	0.471237	0.000172
O104	O	-0.163423	0.971237	0.500172
C105	C	-0.719716	0.489815	0.088789
C106	C	-0.219716	0.989815	0.588789
H107	H	-0.680244	0.525826	0.150733
H108	H	-0.180244	1.025826	0.650733
H109	H	-0.737543	0.414987	0.118549
H110	H	-0.237543	0.914987	0.618549
H111	H	-0.786878	0.543653	0.068745
H112	H	-0.286878	1.043653	0.568745
O113	O	-0.588884	0.806839	-0.000065
O114	O	-0.088884	1.306839	0.499935
C115	C	-0.687305	0.829038	-0.000039
C116	C	-0.187305	1.329038	0.499961
H117	H	-0.716600	0.761447	-0.032429
H118	H	-0.216600	1.261447	0.467571
H119	H	-0.711441	0.898931	-0.049731
H120	H	-0.211441	1.398931	0.450269
H121	H	-0.713460	0.844687	0.082062
H122	H	-0.213460	1.344687	0.582062
O123	O	-0.313485	0.414460	-0.000185
O124	O	0.186515	0.914460	0.499815
C125	C	-0.259447	0.385719	-0.088798
C126	C	0.240553	0.885719	0.411202
H127	H	-0.277424	0.446338	-0.150750
H128	H	0.222576	0.946338	0.349250
H129	H	-0.275109	0.309954	-0.118549
H130	H	0.224891	0.809954	0.381451
H131	H	-0.182113	0.377622	-0.068752
H132	H	0.317887	0.877622	0.431248
H133	H	-0.705044	0.672881	-0.000004
H134	H	-0.205044	1.172881	0.499996
O135	O	-0.144367	0.712220	0.000175
O136	O	0.355633	1.212220	0.500175
C137	C	-0.122920	0.651856	0.088796
C138	C	0.377080	1.151856	0.588796
H139	H	-0.177525	0.676923	0.150742
H140	H	0.322475	1.176923	0.650742
H141	H	-0.050984	0.661192	0.118550
H142	H	0.449016	1.161192	0.618550
H143	H	-0.122908	0.568646	0.068760
H144	H	0.377092	1.068646	0.568760
