data_functionalizedCrystal
_audit_creation_method	'MofGen! by Chris Wilmer'
_symmetry_space_group_name_H-M	'P1'
_symmetry_Int_Tables_number	1
_symmetry_cell_setting	triclinic
loop_
_symmetry_equiv_pos_as_xyz
  x,y,z
_cell_length_a	10.654544
_cell_length_b	10.654541
_cell_length_c	18.366186
_cell_angle_alpha	89.994034
_cell_angle_beta	89.989908
_cell_angle_gamma	84.484390
loop_
_atom_site_label
_atom_site_type_symbol
_atom_site_fract_x
_atom_site_fract_y
_atom_site_fract_z
O1	O	1.667849	0.176400	-0.060568
O2	O	1.302370	0.193206	-0.060565
O3	O	1.493514	0.002064	-0.060562
O4	O	1.476705	0.367543	-0.060571
O5	O	1.493481	0.002054	0.060537
O6	O	1.302337	0.193197	0.060534
O7	O	1.667816	0.176390	0.060532
Zn8	Zn	1.485071	0.184792	0.079760
Zn9	Zn	1.485115	0.184805	-0.079793
O10	O	1.476672	0.367533	0.060529
C11	C	1.255556	0.191968	-0.000015
C12	C	1.116112	0.188276	-0.000014
C13	C	1.116051	0.188280	0.132012
C14	C	1.050511	0.186551	0.198023
C15	C	0.919493	0.183080	0.198020
C16	C	0.854012	0.181334	0.131999
C17	C	0.919552	0.183063	0.065988
C18	C	1.050573	0.186538	0.065998
C19	C	0.919614	0.183050	-0.066037
C20	C	1.050631	0.186530	-0.066035
C21	C	0.854133	0.181304	-0.132058
C22	C	0.919672	0.183042	-0.198070
C23	C	1.050698	0.186515	-0.198064
C24	C	1.116172	0.188259	-0.132046
C25	C	1.492264	-0.044739	-0.000013
C26	C	1.488573	-0.184183	-0.000014
C27	C	1.717138	-0.212154	-0.000006
C28	C	1.829681	-0.291648	-0.000001
C29	C	1.826206	-0.422666	-0.000003
C30	C	1.710174	-0.474191	-0.000013
C31	C	1.597631	-0.394697	-0.000018
C32	C	1.601119	-0.263677	-0.000014
C33	C	1.369069	-0.366726	-0.000031
C34	C	1.372542	-0.235708	-0.000024
C35	C	1.253038	-0.418251	-0.000041
C36	C	1.140492	-0.338757	-0.000041
C37	C	1.143973	-0.207731	-0.000038
C38	C	1.259999	-0.156214	-0.000029
C39	C	1.714630	0.177629	-0.000020
C40	C	1.854074	0.181321	-0.000026
C41	C	1.477922	0.414336	-0.000022
C42	C	1.481613	0.553779	-0.000026
N43	N	1.485051	0.184782	0.188651
N44	N	1.485145	0.184804	-0.188685
C45	C	1.569718	0.100187	0.226753
C46	C	1.569726	0.100181	0.302981
C47	C	1.485079	0.184793	0.341104
C48	C	1.400396	0.269395	0.302993
C49	C	1.400382	0.269390	0.226767
C50	C	1.469620	0.299032	0.461862
C51	C	1.469642	0.299039	0.538087
C52	C	1.485115	0.184809	0.576212
C53	C	1.500591	0.070568	0.538102
C54	C	1.500577	0.070562	0.461876
C55	C	1.485084	0.184808	0.423759
C56	C	1.569795	0.100200	0.696968
C57	C	1.569794	0.100193	0.773197
C58	C	1.400470	0.269418	0.773208
C59	C	1.400465	0.269414	0.696980
C60	C	1.485134	0.184807	0.658865
H61	H	1.104054	0.187919	-0.251818
C62	C	1.706358	-0.618316	-0.000018
N63	N	1.703482	-0.726872	-0.000020
C64	C	0.709889	0.177506	0.131999
N65	N	0.601334	0.174625	0.131999
H66	H	1.513175	-0.022457	0.430850
H67	H	1.638734	0.031304	0.665933
C68	C	1.249219	-0.562375	-0.000038
N69	N	1.246339	-0.670931	-0.000031
H70	H	1.103841	0.187968	0.251776
H71	H	1.924152	-0.249682	0.000013
C72	C	1.452606	0.424705	0.580000
N73	N	1.439766	0.519360	0.611567
C74	C	1.720972	-0.068032	0.000003
N75	N	1.723862	0.040523	0.000008
C76	C	0.710009	0.177489	-0.132059
N77	N	0.601451	0.174622	-0.132062
H78	H	1.638674	0.031290	0.334009
H79	H	0.866129	0.181681	0.251772
H80	H	1.262844	-0.049534	-0.000022
C81	C	1.260296	0.192076	-0.132033
N82	N	1.368852	0.194945	-0.132020
C83	C	1.452598	0.424701	0.419932
N84	N	1.439778	0.519353	0.388351
H85	H	1.638657	0.031291	0.195722
H86	H	0.866348	0.181613	-0.251819
H87	H	1.917848	-0.487392	-0.000005
H88	H	1.046029	-0.380720	-0.000054
C89	C	1.020163	-0.120297	-0.000045
N90	N	0.926907	-0.054445	-0.000050
C91	C	1.517608	-0.055095	0.580034
N92	N	1.530427	-0.149741	0.611620
C93	C	1.662918	0.007104	0.815109
N94	N	1.733055	-0.063017	0.846678
C95	C	1.307358	0.362494	0.815139
N96	N	1.237223	0.432600	0.846725
H97	H	1.331526	0.338305	0.665956
H98	H	1.331473	0.338285	0.334037
C99	C	1.307293	0.362511	0.184854
N100	N	1.237197	0.432672	0.153283
H101	H	1.222732	0.191123	0.132022
