data_functionalizedCrystal
_audit_creation_method	'MofGen! by Chris Wilmer'
_symmetry_space_group_name_H-M	'P1'
_symmetry_Int_Tables_number	1
_symmetry_cell_setting	triclinic
loop_
_symmetry_equiv_pos_as_xyz
  x,y,z
_cell_length_a	27.732048
_cell_length_b	10.540539
_cell_length_c	9.016244
_cell_angle_alpha	90.000067
_cell_angle_beta	89.998181
_cell_angle_gamma	96.415927
loop_
_atom_site_label
_atom_site_type_symbol
_atom_site_fract_x
_atom_site_fract_y
_atom_site_fract_z
O1	O	0.641880	-0.151021	-0.123143
O2	O	0.501231	-0.173985	-0.123187
O3	O	0.574765	0.022343	-0.123162
O4	O	0.568347	-0.347349	-0.123168
O5	O	0.574754	0.022338	0.123519
O6	O	0.501221	-0.173990	0.123494
O7	O	0.641869	-0.151026	0.123538
Cu8	Cu	0.571544	-0.162508	0.146040
Cu9	Cu	0.571557	-0.162503	-0.145689
O10	O	0.568336	-0.347354	0.123513
C11	C	0.483216	-0.173505	0.000148
C12	C	0.429552	-0.172054	0.000131
N13	N	0.571539	-0.162511	0.351226
C14	C	0.574278	0.069623	0.000175
C15	C	0.572838	0.210508	0.000167
C16	C	0.091410	-0.278933	0.000194
C17	C	-0.110284	-0.273547	0.000207
O18	O	-0.140924	-0.371280	0.000270
N19	N	-0.130140	-0.157133	0.000206
C20	C	-0.099570	-0.042057	0.000212
O21	O	-0.121088	0.057084	0.000226
C22	C	0.102122	-0.047444	0.000209
C23	C	0.121976	-0.163865	0.000195
C24	C	0.111264	-0.395345	0.000181
C25	C	0.161685	-0.396690	0.000170
C26	C	0.192251	-0.281623	0.000171
C27	C	0.172396	-0.165211	0.000183
C28	C	0.132691	0.067631	0.000225
C29	C	0.183117	0.066274	0.000228
C30	C	0.202971	-0.050148	0.000214
C31	C	0.253383	-0.051489	0.000173
N32	N	0.273240	-0.167903	0.000174
C33	C	0.242674	-0.282970	0.000173
C34	C	-0.205462	-0.039237	0.000210
C35	C	-0.255885	-0.037890	0.000208
C36	C	-0.266595	-0.269381	0.000206
C37	C	-0.216171	-0.270726	0.000198
C38	C	-0.185605	-0.155651	0.000211
C39	C	0.348561	-0.285786	0.000147
C40	C	0.398986	-0.287121	0.000130
C41	C	0.409691	-0.055631	0.000140
C42	C	0.359270	-0.054295	0.000149
C43	C	0.328706	-0.169383	0.000158
O44	O	0.284052	0.046192	0.000127
O45	O	0.264200	-0.382096	0.000191
C46	C	0.040990	-0.277587	0.000205
C47	C	0.021135	-0.161175	0.000217
C48	C	0.051701	-0.046108	0.000219
C49	C	-0.029288	-0.159828	0.000216
C50	C	-0.059854	-0.274895	0.000214
C51	C	-0.039997	-0.391310	0.000215
C52	C	0.010423	-0.392655	0.000204
C53	C	0.031845	0.070306	0.000218
C54	C	-0.018576	0.071642	0.000227
C55	C	-0.049142	-0.043425	0.000226
C56	C	0.659885	-0.151506	0.000200
C57	C	0.713549	-0.152957	0.000207
C58	C	0.568823	-0.394633	0.000172
C59	C	0.570263	-0.535519	0.000171
C60	C	0.517663	0.391539	-0.000404
C61	C	0.519123	0.244984	0.000152
C62	C	0.598682	0.273286	0.141042
C63	C	0.596849	0.419750	0.141160
C64	C	0.597954	0.420322	-0.139362
C65	C	0.598449	0.273361	-0.141224
N66	N	0.571566	-0.162489	-0.350875
C67	C	0.532082	-0.267192	0.586245
C68	C	0.532170	-0.267574	0.414354
C69	C	0.622071	-0.190450	0.413580
C70	C	0.621856	-0.191189	0.585525
C71	C	0.560964	-0.029532	0.585767
C72	C	0.559805	-0.030447	0.413813
H73	H	0.415148	-0.381929	0.000117
H74	H	0.586657	0.051040	0.370846
H75	H	-0.272045	0.056912	0.000196
H76	H	0.323680	-0.379502	0.000159
H77	H	0.177845	-0.491492	0.000157
H78	H	0.086382	-0.489052	0.000185
C79	C	0.574420	0.214699	0.282656
H80	H	0.590317	0.253308	0.367317
H81	H	0.541221	0.229163	0.283911
H82	H	0.576759	0.125475	0.284116
H83	H	0.631551	-0.286276	0.370504
C84	C	0.650364	0.486403	-0.140641
H85	H	0.655366	0.540650	-0.056604
H86	H	0.672418	0.423676	-0.137545
H87	H	0.655637	0.535682	-0.228555
C88	C	0.489103	0.431102	0.135274
H89	H	0.457364	0.386602	0.134067
H90	H	0.505301	0.410717	0.223503
H91	H	0.487016	0.520406	0.131936
H92	H	0.589752	0.048373	0.626429
H93	H	-0.200010	-0.365527	0.000194
C94	C	0.541378	-0.400888	0.358759
H95	H	0.545085	-0.455020	0.441261
H96	H	0.514654	-0.435899	0.300278
H97	H	0.570087	-0.393992	0.300457
H98	H	0.635480	0.469396	0.147563
C99	C	0.488999	0.428923	-0.136873
H100	H	0.457360	0.383863	-0.135149
H101	H	0.486667	0.518139	-0.135010
H102	H	0.505284	0.407810	-0.224666
H103	H	0.580573	0.451122	-0.246135
H104	H	0.524894	-0.002419	0.629204
H105	H	-0.180579	0.054477	0.000221
C106	C	0.110863	0.195697	0.000261
H107	H	0.136295	0.264022	0.000284
H108	H	0.091415	0.201064	-0.085753
H109	H	0.091419	0.201026	0.086304
H110	H	0.498635	0.202337	0.101293
H111	H	0.652178	-0.117883	0.627117
C112	C	0.571029	0.456727	0.283389
H113	H	0.561754	0.382271	0.340549
H114	H	0.592420	0.514709	0.339719
H115	H	0.542973	0.495992	0.257637
H116	H	0.208002	0.159985	0.000240
C117	C	0.481446	-0.245308	0.357397
H118	H	0.460600	-0.235953	0.439346
H119	H	0.483837	-0.170050	0.298660
H120	H	0.468602	-0.316211	0.299069
C121	C	-0.300224	-0.395952	0.000215
H122	H	-0.333096	-0.378465	0.000228
H123	H	-0.294164	-0.443744	-0.085800
H124	H	-0.294163	-0.443720	0.086257
H125	H	0.638129	0.252644	0.146292
H126	H	0.579539	0.231683	-0.245439
H127	H	0.637612	0.250841	-0.149718
H128	H	0.056727	0.164010	0.000222
C129	C	0.509585	-0.001768	0.358769
H130	H	0.495824	-0.069980	0.297891
H131	H	0.488997	0.007184	0.441429
H132	H	0.512956	0.075180	0.302996
H133	H	0.494418	-0.250975	0.627627
H134	H	0.538809	-0.365324	0.629439
H135	H	0.631128	-0.288124	0.625615
H136	H	-0.034736	0.166453	0.000227
C137	C	0.662736	-0.090132	0.358338
H138	H	0.692970	-0.108831	0.397357
H139	H	0.663894	-0.091905	0.253069
H140	H	0.656435	-0.007763	0.390536
C141	C	0.337430	0.073764	0.000149
H142	H	0.362858	0.142100	0.000152
H143	H	0.317979	0.079105	-0.085864
H144	H	0.317987	0.079100	0.086193
C145	C	0.491644	0.186231	-0.136253
H146	H	0.479485	0.251922	-0.192503
H147	H	0.513092	0.143763	-0.195851
H148	H	0.465392	0.126775	-0.104548
H149	H	0.026583	-0.487457	0.000194
C150	C	-0.073626	-0.517880	0.000219
H151	H	-0.106498	-0.500392	0.000238
H152	H	-0.067568	-0.565666	-0.085801
H153	H	-0.067565	-0.565654	0.086255
H154	H	0.434587	0.038054	0.000135
