data_functionalizedCrystal
_audit_creation_method	'MofGen! by Chris Wilmer'
_symmetry_space_group_name_H-M	'P1'
_symmetry_Int_Tables_number	1
_symmetry_cell_setting	triclinic
loop_
_symmetry_equiv_pos_as_xyz
  x,y,z
_cell_length_a	14.446369
_cell_length_b	14.446369
_cell_length_c	17.917603
_cell_angle_alpha	63.035152
_cell_angle_beta	90.003104
_cell_angle_gamma	60.000221
loop_
_atom_site_label
_atom_site_type_symbol
_atom_site_fract_x
_atom_site_fract_y
_atom_site_fract_z
Zr1	Zr	0.897096	1.002566	-0.093844
O2	O	0.755734	1.182793	-0.208058
O3	O	0.940427	0.813403	-0.058831
O4	O	0.948848	0.989670	-0.208052
O5	O	0.740675	1.019814	0.058871
O6	O	1.101185	0.989662	-0.208048
O7	O	0.747313	1.006526	-0.058837
O8	O	1.086121	0.674353	0.058882
O9	O	0.755739	1.335124	-0.208059
O10	O	1.072600	0.894512	-0.043895
O11	O	0.953959	0.904435	0.043946
O12	O	0.963873	1.111966	-0.131743
O13	O	0.845233	1.121889	-0.043903
Zr14	Zr	1.129470	1.023746	0.093894
Zr15	Zr	1.140056	1.002553	-0.093837
Zr16	Zr	0.886510	1.023759	0.093887
Zr17	Zr	0.897104	1.245516	-0.093845
Zr18	Zr	1.129462	0.780796	0.093894
O19	O	1.086139	1.212909	0.058880
O20	O	1.101191	1.182775	-0.208049
O21	O	0.740682	1.212927	0.058870
O22	O	1.270832	0.843519	0.208108
O23	O	1.285884	0.813385	-0.058821
O24	O	0.925375	0.843537	0.208098
O25	O	1.285891	1.006498	-0.058822
O26	O	1.077718	1.036642	0.208102
O27	O	0.925381	1.036650	0.208097
O28	O	1.279253	1.019786	0.058886
O29	O	0.948859	1.335114	-0.208053
O30	O	1.077706	0.691199	0.208103
O31	O	1.270827	0.691189	0.208109
O32	O	1.279242	0.674343	0.058888
O33	O	0.747324	1.351969	-0.058838
O34	O	0.940445	1.351959	-0.058833
O35	O	1.062692	0.914346	0.131793
O36	O	1.181333	0.904423	0.043952
O37	O	1.072607	1.121877	-0.043896
O38	O	0.953966	1.131800	0.043945
C39	C	1.013273	0.709263	0.000026
C40	C	1.013269	0.606124	0.000026
C41	C	0.938437	0.573095	0.055435
C42	C	0.938750	0.465492	0.055729
C43	C	1.134595	0.375930	0.040148
C44	C	1.134162	0.483223	0.040569
C45	C	0.967806	0.643059	-0.095539
C46	C	0.965318	0.536901	-0.095396
C47	C	0.709377	1.013172	0.000016
C48	C	0.606235	1.013177	0.000013
C49	C	0.390979	1.150342	-0.055113
C50	C	0.498228	1.150404	-0.055423
C51	C	0.605187	0.937386	-0.040399
C52	C	0.497441	0.938250	-0.040803
C53	C	0.491112	0.950698	0.095622
C54	C	0.597090	0.953384	0.095471
C55	C	1.317189	1.013140	0.000033
C56	C	1.420331	1.013135	0.000036
C57	C	1.026525	0.986647	-0.234797
C58	C	1.031019	0.977649	-0.314494
C59	C	1.013293	1.317049	0.000024
C60	C	1.013296	1.420188	0.000023
C61	C	1.039251	0.961215	-0.460426
C62	C	0.987317	1.065092	-0.539527
C63	C	0.991898	1.055948	-0.620729
C64	C	1.034672	0.970357	-0.379215
C65	C	1.000041	1.039666	0.234847
C66	C	0.995547	1.048663	0.314544
C67	C	1.317178	0.709247	0.000035
C68	C	1.420318	0.606103	0.000038
C69	C	1.000031	0.735772	0.234848
C70	C	0.995534	0.641631	0.314545
C71	C	1.303937	0.735757	0.234857
C72	C	1.402582	0.641610	0.314557
C73	C	0.722629	1.290556	-0.234807
C74	C	0.623984	1.384702	-0.314507
C75	C	0.709387	1.317065	0.000015
C76	C	0.606248	1.420209	0.000012
C77	C	1.026535	1.290540	-0.234799
C78	C	1.031032	1.384681	-0.314496
C79	C	1.050179	0.602595	0.397835
C80	C	1.045948	0.514154	0.472726
C81	C	0.987078	0.464742	0.464325
C82	C	0.932426	0.503787	0.381027
C83	C	0.936651	0.592233	0.306138
C84	C	1.510846	0.592218	0.306133
C85	C	1.603544	0.503769	0.381012
C86	C	1.587974	0.464708	0.464315
C87	C	1.479699	0.514109	0.472737
C88	C	1.387004	0.602563	0.397859
C89	C	0.515720	1.434106	-0.306083
C90	C	0.423022	1.522585	-0.380962
C91	C	0.438592	1.561651	-0.464265
C92	C	0.546867	1.512243	-0.472687
C93	C	0.639562	1.423773	-0.397809
C94	C	1.089912	1.434065	-0.306067
C95	C	1.094160	1.522509	-0.380943
C96	C	1.039520	1.561574	-0.464248
C97	C	0.980639	1.512181	-0.472675
C98	C	0.976398	1.423732	-0.397799
C99	C	1.635573	0.466005	0.055159
C100	C	1.528327	0.572966	0.055472
C101	C	1.421363	0.483810	0.040449
C102	C	1.529106	0.376476	0.040849
C103	C	1.535432	0.536048	-0.095576
C104	C	1.429457	0.644540	-0.095422
H105	H	0.970079	0.384502	0.126223
H106	H	1.192541	0.343081	0.001710
Cl107	Cl	0.529896	0.794757	0.159359
Cl108	Cl	0.867953	0.641287	0.201433
H109	H	1.663462	0.392683	0.525278
H110	H	0.681296	0.836202	-0.002164
H111	H	1.531472	0.659254	0.028369
H112	H	0.727714	1.383548	-0.404678
Cl113	Cl	1.530449	0.641313	0.201418
Cl114	Cl	0.902358	1.361672	-0.408411
Cl115	Cl	0.614548	1.001624	-0.147966
H116	H	1.142106	1.562716	-0.374065
Cl117	Cl	0.305323	1.241964	-0.013479
Cl118	Cl	0.410939	1.027426	0.147749
H119	H	1.042982	1.633596	-0.525209
Cl120	Cl	0.496117	1.385013	-0.201369
Cl121	Cl	1.739648	0.441677	0.370404
Cl122	Cl	1.460144	0.464989	0.577467
H123	H	0.521973	0.837257	-0.003231
Cl124	Cl	1.412008	0.436414	0.148018
Cl125	Cl	1.250903	0.664637	0.408464
Cl126	Cl	1.113196	0.813317	-0.450025
H127	H	1.171648	0.291348	0.109780
H128	H	0.339948	1.198449	-0.125198
H129	H	1.575484	0.293661	0.111186
H130	H	0.884495	0.463543	0.374199
Cl131	Cl	1.124198	0.664691	0.408419
H132	H	1.691052	0.500198	0.028190
Cl133	Cl	1.158614	1.384972	-0.201350
Cl134	Cl	0.911942	1.561317	-0.577408
Cl135	Cl	0.286918	1.584674	-0.370354
Cl136	Cl	1.714344	0.339789	0.163369
Cl137	Cl	0.500590	1.224946	-0.164287
Cl138	Cl	0.322048	1.672871	-0.558391
Cl139	Cl	1.114665	0.465084	0.577433
Cl140	Cl	0.566422	1.561364	-0.577418
H141	H	1.526808	0.543459	0.125985
Cl142	Cl	1.041421	0.496330	-0.164467
H143	H	1.504570	0.342282	0.003273
Cl144	Cl	1.303853	0.511491	-0.018575
Cl145	Cl	1.615590	0.591267	-0.147693
H146	H	1.192654	0.501207	0.002800
Cl147	Cl	1.432878	0.778993	-0.142038
H148	H	0.880055	0.732861	-0.129085
Cl149	Cl	0.593692	1.038808	0.142094
H150	H	1.352812	0.671640	-0.139968
H151	H	1.510310	0.506600	-0.136860
Cl152	Cl	0.913355	1.213000	-0.549933
H153	H	0.983647	0.392724	0.525312
Cl154	Cl	0.493381	1.241409	-0.013575
H155	H	0.673733	0.853732	0.140019
H156	H	0.849291	0.499003	0.028841
H157	H	0.848728	0.658789	0.028692
H158	H	0.451065	0.980929	-0.111141
Cl159	Cl	0.827379	0.592594	-0.141684
H160	H	1.170879	0.450343	0.110882
Cl161	Cl	1.051747	0.676212	-0.159539
Cl162	Cl	0.986314	0.529928	0.163630
