data_functionalizedCrystal
_audit_creation_method	'MofGen! by Chris Wilmer'
_symmetry_space_group_name_H-M	'P1'
_symmetry_Int_Tables_number	1
_symmetry_cell_setting	triclinic
loop_
_symmetry_equiv_pos_as_xyz
  x,y,z
_cell_length_a	10.654555
_cell_length_b	15.455313
_cell_length_c	10.654549
_cell_angle_alpha	87.308023
_cell_angle_beta	95.514124
_cell_angle_gamma	87.295451
loop_
_atom_site_label
_atom_site_type_symbol
_atom_site_fract_x
_atom_site_fract_y
_atom_site_fract_z
O1	O	-1.673290	0.072076	0.170988
O2	O	-1.307813	0.072089	0.187786
O3	O	-1.498955	0.072079	-0.003352
O4	O	-1.482149	0.072086	0.362126
O5	O	-1.488024	-0.072183	0.007533
O6	O	-1.296883	-0.072172	0.198671
O7	O	-1.662359	-0.072185	0.181872
Cu8	Cu	-1.478623	-0.085351	0.191266
Cu9	Cu	-1.491550	0.085255	0.178393
O10	O	-1.471218	-0.072175	0.373010
C11	C	-1.255550	-0.000040	0.191994
C12	C	-1.116108	-0.000035	0.188299
C13	C	-0.925520	0.078598	0.177164
C14	C	-1.056543	0.078601	0.180627
C15	C	-1.044644	-0.078680	0.192494
C16	C	-0.913625	-0.078683	0.189022
N17	N	-1.469540	-0.205346	0.200319
C18	C	-1.550772	-0.250745	0.119147
C19	C	-1.543915	-0.341552	0.126005
C20	C	-1.455831	-0.386960	0.214042
C21	C	-1.374590	-0.341555	0.295217
C22	C	-1.381442	-0.250749	0.288352
C23	C	-1.426254	-0.658539	0.243640
C24	C	-1.419410	-0.749352	0.250502
C25	C	-1.588735	-0.749343	0.081287
C26	C	-1.595584	-0.658535	0.074435
C27	C	-1.514339	-0.613138	0.155606
N28	N	-1.448822	-0.479779	0.221057
N29	N	-1.521343	-0.520320	0.148584
C30	C	-0.714623	-0.000052	0.177666
C31	C	-0.854066	-0.000042	0.181363
C32	C	-1.492256	-0.000051	-0.044708
C33	C	-1.488564	-0.000048	-0.184151
N34	N	-1.500643	0.205250	0.169330
C35	C	-1.597627	-0.000046	-0.394664
C36	C	-1.601105	-0.000053	-0.263643
C37	C	-1.372537	-0.000045	-0.235686
C38	C	-1.369060	-0.000044	-0.366704
C39	C	-1.477917	-0.000043	0.414366
C40	C	-1.481609	-0.000040	0.553809
H41	H	-0.855445	-0.142725	0.192441
F42	F	-1.675193	-0.797663	-0.005098
F43	F	-0.862138	0.162295	0.169009
F44	F	-1.252761	-0.000044	-0.151081
F45	F	-1.245571	-0.000043	-0.421545
F46	F	-1.644531	-0.202427	0.025451
F47	F	-1.132585	0.162300	0.176153
H48	H	-1.347678	-0.786318	0.322197
H49	H	-1.360103	-0.621584	0.309735
F50	F	-1.630370	-0.389869	0.039612
F51	F	-1.280836	-0.389881	0.388908
F52	F	-1.724588	-0.000057	-0.208811
F53	F	-1.689334	-0.610211	-0.019262
H54	H	-1.315292	-0.213786	0.354449
F55	F	-1.717412	-0.000045	-0.479255
H56	H	-1.093153	-0.142708	0.198733
