data_functionalizedCrystal
_audit_creation_method	'MofGen! by Chris Wilmer'
_symmetry_space_group_name_H-M	'P1'
_symmetry_Int_Tables_number	1
_symmetry_cell_setting	triclinic
loop_
_symmetry_equiv_pos_as_xyz
  x,y,z
_cell_length_a	14.809374
_cell_length_b	20.875641
_cell_length_c	20.875625
_cell_angle_alpha	59.251205
_cell_angle_beta	92.935033
_cell_angle_gamma	55.463662
loop_
_atom_site_label
_atom_site_type_symbol
_atom_site_fract_x
_atom_site_fract_y
_atom_site_fract_z
Zr1	Zr	1.020914	0.542514	-0.024283
O2	O	0.855963	0.702121	-0.145455
O3	O	1.066313	0.401597	0.015834
O4	O	1.062648	0.535992	-0.123205
O5	O	0.868398	0.566354	0.099879
O6	O	1.231562	0.509586	-0.109033
O7	O	0.859629	0.567727	-0.006417
O8	O	1.238119	0.269179	0.139681
O9	O	0.861841	0.806761	-0.148835
O10	O	1.217977	0.432930	0.039930
O11	O	1.098463	0.451612	0.108681
O12	O	1.094147	0.609844	-0.055019
O13	O	0.974633	0.628526	0.013733
Zr14	Zr	1.304299	0.498210	0.167850
Zr15	Zr	1.290313	0.500400	-0.001681
Zr16	Zr	1.034900	0.540325	0.145247
Zr17	Zr	1.030289	0.709403	-0.029673
Zr18	Zr	1.294925	0.331322	0.173240
O19	O	1.258900	0.639127	0.127733
O20	O	1.239013	0.642240	-0.113317
O21	O	0.875849	0.699008	0.095595
O22	O	1.469250	0.338603	0.289022
O23	O	1.449364	0.341716	0.047972
O24	O	1.086200	0.398484	0.256884
O25	O	1.456815	0.474370	0.043687
O26	O	1.262565	0.504732	0.266771
O27	O	1.093651	0.531138	0.252599
O28	O	1.465584	0.472997	0.149983
O29	O	1.075977	0.773286	-0.130869
O30	O	1.249236	0.267439	0.274435
O31	O	1.463372	0.233963	0.292401
O32	O	1.452255	0.235703	0.157648
O33	O	0.872958	0.805021	-0.014081
O34	O	1.087094	0.771545	0.003885
O35	O	1.231066	0.430881	0.198585
O36	O	1.350581	0.412199	0.129834
O37	O	1.226750	0.589113	0.034885
O38	O	1.107236	0.607795	0.103637
C39	C	1.150881	0.311610	0.078526
C40	C	1.146901	0.240762	0.080814
C41	C	0.825630	0.573041	0.043511
C42	C	0.711263	0.590920	0.033916
C43	C	1.207413	0.197726	0.046001
C44	C	1.203678	0.131151	0.048159
C45	C	1.139422	0.107619	0.085125
C46	C	1.078908	0.150658	0.119943
C47	C	1.082652	0.217226	0.117790
C48	C	1.121542	-0.090430	0.095417
C49	C	1.117800	-0.157001	0.097566
C50	C	1.242572	-0.176505	0.025783
C51	C	1.246304	-0.109930	0.023629
C52	C	1.185796	-0.066902	0.058451
N53	N	1.135598	0.039571	0.087329
N54	N	1.189627	0.001139	0.056251
C55	C	0.721703	0.511129	0.076739
C56	C	0.603500	0.529606	0.066822
C57	C	1.499583	0.467683	0.100056
C58	C	1.613950	0.449805	0.109651
C59	C	1.145112	0.523101	-0.140273
C60	C	1.139175	0.524030	-0.212243
C61	C	1.174333	0.729114	0.065041
C62	C	1.178312	0.799963	0.062753
C63	C	1.229441	0.509921	-0.238247
C64	C	1.223865	0.510785	-0.305866
C65	C	1.128017	0.525767	-0.347484
C66	C	1.037746	0.539875	-0.321474
C67	C	1.043328	0.539003	-0.253852
C68	C	1.101349	0.529929	-0.550558
C69	C	1.095772	0.530804	-0.618186
C70	C	1.281893	0.501712	-0.602573
C71	C	1.287462	0.500847	-0.534954
C72	C	1.197195	0.514949	-0.508947
N73	N	1.122313	0.526655	-0.416603
N74	N	1.202905	0.514054	-0.439825
C75	C	1.180101	0.517623	0.283840
C76	C	1.186038	0.516694	0.355810
C77	C	1.487857	0.258931	0.106798
C78	C	1.598245	0.170204	0.118682
C79	C	1.168375	0.308871	0.290582
C80	C	1.170333	0.237093	0.364840
C81	C	1.505352	0.256193	0.318854
C82	C	1.621676	0.166536	0.402708
C83	C	0.819861	0.784532	-0.175288
C84	C	0.703537	0.874188	-0.259141
C85	C	0.837356	0.781793	0.036769
C86	C	0.726969	0.870520	0.024885
C87	C	1.156838	0.731853	-0.147015
C88	C	1.154880	0.803631	-0.221274
C89	C	1.580865	0.139358	0.077326
C90	C	1.684575	0.056001	0.088475
C91	C	1.805662	0.003486	0.140985
C92	C	1.823039	0.034338	0.182341
C93	C	1.719331	0.117699	0.171187
C94	C	1.240470	0.192564	0.446649
C95	C	1.242306	0.125131	0.516428
C96	C	1.174011	0.102223	0.504398
C97	C	1.103865	0.146760	0.422581
C98	C	1.102023	0.214198	0.352802
C99	C	1.738700	0.114679	0.406200
C100	C	1.848010	0.030444	0.484984
C101	C	1.840293	-0.001936	0.560274
C102	C	1.723256	0.049930	0.556779
C103	C	1.613950	0.134168	0.477997
C104	C	0.586513	0.926054	-0.262634
C105	C	0.477205	1.010309	-0.341418
C106	C	0.484922	1.042692	-0.416709
C107	C	0.601958	0.990822	-0.413214
C108	C	0.711264	0.906573	-0.334431
C109	C	0.744348	0.901373	0.066233
C110	C	0.640638	0.984749	0.055065
C111	C	0.519550	1.037267	0.002553
C112	C	0.502173	1.006411	-0.038800
C113	C	0.605882	0.923041	-0.027636
C114	C	1.223189	0.826516	-0.209216
C115	C	1.221375	0.893946	-0.278981
C116	C	1.151243	0.938496	-0.360803
C117	C	1.082931	0.915605	-0.372859
C118	C	1.084754	0.848170	-0.303094
H119	H	1.259731	0.216885	0.015895
H120	H	1.149769	0.993404	-0.417603
F121	F	0.587366	0.890210	-0.071644
H122	H	0.614817	0.672910	-0.010086
F123	F	1.956638	-0.091592	0.644117
H124	H	1.890098	-0.064391	0.150060
F125	F	1.175984	0.030447	0.578671
F126	F	1.268061	0.085368	0.011090
F127	F	1.746942	0.149127	0.326079
F128	F	1.314687	-0.084886	-0.015720
F129	F	1.031186	0.122369	0.409790
F130	F	1.737847	0.150513	0.215212
F131	F	0.610152	1.025297	-0.493352
F132	F	0.477440	0.636782	0.009306
H133	H	1.943295	-0.011777	0.487814
H134	H	1.044913	0.250445	0.286193
F135	F	1.012035	0.823831	-0.315941
F136	F	0.740009	0.342628	0.167167
H137	H	0.435115	1.105150	-0.006530
H138	H	0.403570	1.049183	-0.081555
H139	H	1.280299	0.790252	-0.142599
H140	H	1.716992	0.023554	0.618092
H141	H	0.395909	1.111294	-0.480853
F142	F	0.947257	0.554016	-0.226176
H143	H	0.818150	0.429139	0.120745
H144	H	1.518668	0.176381	0.475165
H145	H	0.806547	0.864345	-0.331597
F146	F	1.306968	-0.222306	-0.011271
F147	F	1.049403	-0.182041	0.136909
H148	H	0.842935	0.858619	0.108998
H149	H	1.072278	-0.055408	0.123775
H150	H	0.580206	0.899695	-0.201337
F151	F	1.010539	0.125598	0.159297
F152	F	1.018249	0.263026	0.154844
F153	F	1.331452	0.493982	-0.193965
H154	H	1.921643	-0.008431	0.225094
F155	F	0.352660	1.065496	-0.345119
H156	H	1.297368	0.499295	-0.327038
F157	F	1.666055	0.023178	0.044457
H158	H	0.959708	0.552067	-0.355360
H159	H	1.027848	0.541415	-0.529390
H160	H	1.365509	0.488648	-0.501069
F161	F	1.313170	0.216928	0.459472
H162	H	1.355386	0.490229	-0.623753
H163	H	1.017715	0.543005	-0.652070
F164	F	0.659158	1.017569	0.099086
F165	F	1.316971	0.077740	0.603497
F166	F	1.452004	0.195237	0.021435
F167	F	1.294078	0.918300	-0.266133
H168	H	1.025832	0.951888	-0.439488
