data_functionalizedCrystal
_audit_creation_method	'MofGen! by Chris Wilmer'
_symmetry_space_group_name_H-M	'P1'
_symmetry_Int_Tables_number	1
_symmetry_cell_setting	triclinic
loop_
_symmetry_equiv_pos_as_xyz
  x,y,z
_cell_length_a	27.731994
_cell_length_b	10.654550
_cell_length_c	9.730223
_cell_angle_alpha	89.995747
_cell_angle_beta	90.002801
_cell_angle_gamma	83.552732
loop_
_atom_site_label
_atom_site_type_symbol
_atom_site_fract_x
_atom_site_fract_y
_atom_site_fract_z
O1	O	0.641872	0.149091	-0.114094
O2	O	0.501217	0.171881	-0.114139
O3	O	0.574778	-0.022390	-0.114107
O4	O	0.568310	0.343363	-0.114126
O5	O	0.574774	-0.022395	0.114473
O6	O	0.501212	0.171876	0.114440
O7	O	0.641867	0.149086	0.114486
Zn8	Zn	0.571539	0.160481	0.150755
Zn9	Zn	0.571545	0.160487	-0.150409
O10	O	0.568306	0.343358	0.114454
C11	C	0.483204	0.171411	0.000145
C12	C	0.429539	0.170002	0.000128
C13	C	0.574301	-0.069171	0.000182
C14	C	0.572880	-0.208553	0.000180
C15	C	0.616192	-0.289882	0.000193
C16	C	0.614854	-0.420846	0.000176
C17	C	0.526889	-0.389140	0.000137
C18	C	0.528227	-0.258179	0.000145
C19	C	0.096763	0.161126	0.124780
C20	C	-0.104929	0.155771	0.124796
O21	O	-0.131008	0.155022	0.230762
N22	N	-0.130145	0.155108	0.000197
C23	C	-0.104935	0.155777	-0.124415
O24	O	-0.131011	0.155077	-0.230393
C25	C	0.096756	0.161123	-0.124429
C26	C	0.121969	0.161798	0.000178
C27	C	0.121976	0.161800	0.249377
C28	C	0.172395	0.163146	0.249371
C29	C	0.197602	0.163818	0.124769
C30	C	0.172388	0.163144	0.000173
C31	C	0.121965	0.161782	-0.249039
C32	C	0.172391	0.163116	-0.249032
C33	C	0.197604	0.163791	-0.124425
C34	C	0.248014	0.165162	-0.124435
N35	N	0.273231	0.165824	0.000164
C36	C	0.248024	0.165152	0.124766
C37	C	-0.210826	0.152972	-0.124398
C38	C	-0.261249	0.151638	-0.124395
C39	C	-0.261239	0.151629	0.124816
C40	C	-0.210816	0.152973	0.124811
C41	C	-0.185610	0.153634	0.000201
C42	C	0.353909	0.167979	0.124746
C43	C	0.404333	0.169330	0.124730
C44	C	0.404319	0.169332	-0.124480
C45	C	0.353899	0.167987	-0.124465
C46	C	0.328696	0.167307	0.000159
O47	O	0.274125	0.165897	-0.230345
O48	O	0.274110	0.165823	0.230729
C49	C	0.046343	0.159780	0.124785
C50	C	0.021130	0.159107	0.000188
C51	C	0.046336	0.159779	-0.124414
C52	C	-0.029293	0.157772	0.000192
C53	C	-0.054499	0.157100	0.124794
C54	C	-0.029283	0.157763	0.249392
C55	C	0.021137	0.159108	0.249387
C56	C	0.021120	0.159116	-0.249012
C57	C	-0.029300	0.157772	-0.248997
C58	C	-0.054506	0.157100	-0.124395
C59	C	0.659880	0.149557	0.000199
C60	C	0.713545	0.150966	0.000207
C61	C	0.568783	0.390139	0.000161
C62	C	0.570204	0.529521	0.000155
N63	N	0.571538	0.160475	0.356292
N64	N	0.571550	0.160483	-0.355945
C65	C	0.604122	0.074487	0.428232
C66	C	0.604127	0.074487	0.572115
C67	C	0.538962	0.246475	0.572105
C68	C	0.538955	0.246468	0.428224
H69	H	0.652551	-0.249482	0.000218
H70	H	0.650123	-0.487059	0.000184
C71	C	0.477773	-0.443741	0.000126
N72	N	0.440777	-0.484865	0.000128
C73	C	0.639969	-0.020116	0.651243
N74	N	0.666964	-0.091381	0.710841
H75	H	0.512434	0.316490	0.630686
C76	C	-0.288978	0.150905	-0.261472
N77	N	-0.309861	0.150344	-0.364724
H78	H	0.041638	0.159660	-0.350481
C79	C	0.200124	0.163869	0.386450
N80	N	0.221007	0.164407	0.489706
H81	H	0.512419	0.316490	0.369646
H82	H	0.492955	-0.191957	0.000130
H83	H	0.041661	0.159658	0.350855
H84	H	0.424859	0.169884	0.226204
H85	H	0.101458	0.161250	0.350848
C86	C	-0.183085	0.153703	0.261887
N87	N	-0.162201	0.154248	0.365139
C88	C	0.326192	0.167243	0.261839
N89	N	0.305315	0.166700	0.365098
H90	H	-0.281770	0.151085	0.226272
H91	H	0.101445	0.161231	-0.350508
C92	C	-0.183106	0.153699	-0.261489
N93	N	-0.162229	0.154249	-0.364748
H94	H	0.630653	0.004465	0.369668
C95	C	0.326163	0.167259	-0.261538
N96	N	0.305276	0.166699	-0.364784
C97	C	0.432056	0.170063	-0.261536
N98	N	0.452949	0.170601	-0.364767
H99	H	0.192911	0.163655	-0.350507
C100	C	-0.057019	0.157020	0.386455
N101	N	-0.077912	0.156453	0.489685
H102	H	-0.049825	0.157233	-0.350475
