data_functionalizedCrystal
_audit_creation_method	'MofGen! by Chris Wilmer'
_symmetry_space_group_name_H-M	'P1'
_symmetry_Int_Tables_number	1
_symmetry_cell_setting	triclinic
loop_
_symmetry_equiv_pos_as_xyz
  x,y,z
_cell_length_a	13.897449
_cell_length_b	18.101395
_cell_length_c	13.897441
_cell_angle_alpha	90.033542
_cell_angle_beta	90.020733
_cell_angle_gamma	90.033231
loop_
_atom_site_label
_atom_site_type_symbol
_atom_site_fract_x
_atom_site_fract_y
_atom_site_fract_z
Zn1	Zn	1.474607	-0.294781	0.545361
Zn2	Zn	1.974607	0.205219	1.045361
Zn3	Zn	1.474461	-0.418636	0.384055
Zn4	Zn	1.974461	0.081364	0.884055
Zn5	Zn	1.313296	-0.294816	0.384080
Zn6	Zn	1.813296	0.205184	0.884080
Zn7	Zn	1.313238	-0.418588	0.545307
Zn8	Zn	1.813238	0.081412	1.045307
O9	O	1.393900	-0.356705	0.464701
O10	O	1.893900	0.143295	0.964701
O11	O	1.609569	-0.311216	0.523976
O12	O	2.109569	0.188784	1.023976
O13	O	1.453045	-0.402246	0.249076
O14	O	1.953045	0.097754	0.749076
O15	O	1.334780	-0.191178	0.405507
O16	O	1.834780	0.308822	0.905507
O17	O	1.609462	-0.402212	0.405464
O18	O	2.109462	0.097788	0.905464
O19	O	1.453294	-0.191152	0.524000
O20	O	1.953294	0.308848	1.024000
O21	O	1.334638	-0.311276	0.249095
O22	O	1.834638	0.188724	0.749095
O23	O	1.178307	-0.311229	0.405455
O24	O	1.678307	0.188771	0.905455
O25	O	1.334680	-0.402129	0.680296
O26	O	1.834680	0.097871	1.180296
O27	O	1.178264	-0.402164	0.523908
O28	O	1.678264	0.097836	1.023908
O29	O	1.453238	-0.311169	0.680336
O30	O	1.953238	0.188831	1.180336
O31	O	1.452989	-0.522263	0.405412
O32	O	1.952989	-0.022263	0.905412
O33	O	1.334539	-0.522227	0.523883
O34	O	1.834539	-0.022227	1.023883
C35	C	1.143286	-0.356695	0.464679
C36	C	1.643286	0.143305	0.964679
C37	C	1.036072	-0.356709	0.464692
C38	C	1.536072	0.143291	0.964692
C39	C	1.393768	-0.549116	0.464660
C40	C	1.893768	-0.049116	0.964660
C41	C	1.393799	-0.631430	0.464675
C42	C	1.893799	-0.131430	0.964675
C43	C	0.839777	-0.356712	0.464717
C44	C	1.339777	0.143288	0.964717
C45	C	0.949010	-0.356708	0.464701
C46	C	1.449010	0.143292	0.964701
C47	C	1.393910	-0.782138	0.464713
C48	C	1.893910	-0.282138	0.964713
C49	C	1.319346	-0.813501	0.539195
C50	C	1.819346	-0.313501	1.039195
C51	C	1.319628	-0.899119	0.539509
C52	C	1.819628	-0.399119	1.039509
C53	C	1.394017	-0.930521	0.464751
C54	C	1.894017	-0.430521	0.964751
C55	C	1.495711	-0.899335	0.492096
C56	C	1.995711	-0.399335	0.992096
C57	C	1.495218	-0.813690	0.492615
C58	C	1.995218	-0.313690	0.992615
C59	C	1.367692	-0.813781	0.362708
C60	C	1.867692	-0.313781	0.862708
C61	C	1.365511	-0.899433	0.363273
C62	C	1.865511	-0.399433	0.863273
C63	C	1.394084	-1.014380	0.464771
C64	C	1.894084	-0.514380	0.964771
C65	C	1.393850	-0.698279	0.464696
C66	C	1.893850	-0.198279	0.964696
C67	C	1.645493	-0.356716	0.464723
C68	C	2.145493	0.143284	0.964723
C69	C	1.752707	-0.356720	0.464733
C70	C	2.252707	0.143280	0.964733
C71	C	1.393969	-0.356640	0.716294
C72	C	1.893969	0.143360	1.216294
C73	C	1.393998	-0.356612	0.823508
C74	C	1.893998	0.143388	1.323508
C75	C	1.394060	-0.163543	0.464763
C76	C	1.894060	0.336457	0.964763
C77	C	1.394128	-0.081229	0.464789
C78	C	1.894128	0.418771	0.964789
C79	C	1.393888	-0.356717	0.214086
C80	C	1.893888	0.143283	0.714086
C81	C	1.394046	-0.356536	0.106873
C82	C	1.894046	0.143464	0.606873
C83	C	1.394024	-0.356562	1.019803
C84	C	1.894024	0.143438	1.519803
C85	C	1.394007	-0.356592	0.910571
C86	C	1.894007	0.143408	1.410571
H87	H	1.244229	-0.920209	0.522417
H88	H	1.744229	-0.420209	1.022417
H89	H	1.552684	-0.792937	0.440712
H90	H	2.052684	-0.292937	0.940712
H91	H	1.290671	-0.919827	0.342646
H92	H	1.790671	-0.419827	0.842646
H93	H	1.421993	-0.793491	0.307215
H94	H	1.921993	-0.293491	0.807215
H95	H	1.336511	-0.791926	0.614348
H96	H	1.836511	-0.291926	1.114348
Br97	Br	1.590890	-0.933207	0.404463
Br98	Br	2.090890	-0.433207	0.904463
Br99	Br	1.533396	-0.934985	0.615017
Br100	Br	2.033396	-0.434985	1.115017
Br101	Br	1.246144	-0.777906	0.321128
Br102	Br	1.746144	-0.277906	0.821128
Br103	Br	1.449446	-0.935061	0.265874
Br104	Br	1.949446	-0.435061	0.765874
H105	H	1.243678	-0.792983	0.522295
H106	H	1.743678	-0.292983	1.022295
Br107	Br	1.348587	-0.933183	0.665514
Br108	Br	1.848587	-0.433183	1.165514
H109	H	1.517409	-0.793655	0.567173
H110	H	2.017409	-0.293655	1.067173
