data_functionalizedCrystal
_audit_creation_method	'MofGen! by Chris Wilmer'
_symmetry_space_group_name_H-M	'P1'
_symmetry_Int_Tables_number	1
_symmetry_cell_setting	triclinic
loop_
_symmetry_equiv_pos_as_xyz
  x,y,z
_cell_length_a	15.995292
_cell_length_b	15.995350
_cell_length_c	9.730223
_cell_angle_alpha	89.997793
_cell_angle_beta	90.003992
_cell_angle_gamma	83.480495
loop_
_atom_site_label
_atom_site_type_symbol
_atom_site_fract_x
_atom_site_fract_y
_atom_site_fract_z
O1	O	1.111014	0.107689	0.114320
O2	O	0.867233	0.121068	0.114314
O3	O	0.995787	-0.007511	0.114316
O4	O	0.982460	0.236267	0.114318
O5	O	0.995779	-0.007503	-0.114264
O6	O	0.867224	0.121075	-0.114266
O7	O	1.111006	0.107696	-0.114260
Zn8	Zn	0.989114	0.114387	-0.150555
Zn9	Zn	0.989125	0.114377	0.150609
O10	O	0.982451	0.236275	-0.114262
C11	C	0.836033	0.120527	0.000023
C12	C	0.743080	0.118894	0.000021
C13	C	0.405341	0.112893	0.000037
C14	C	0.428654	0.205697	0.000548
C15	C	0.525329	0.207461	0.000027
C16	C	0.572897	0.115871	0.000030
C17	C	0.543791	0.069477	-0.130496
C18	C	0.447000	0.068360	-0.130600
C19	C	0.447154	0.066457	0.129338
C20	C	0.543647	0.069896	0.131057
C21	C	0.667593	0.117549	0.000021
C22	C	0.310646	0.111212	0.000036
C23	C	0.995232	-0.038702	0.000029
C24	C	0.993580	-0.131652	0.000036
C25	C	0.987648	-0.469398	0.000032
C26	C	0.896094	-0.421945	0.000542
C27	C	0.897746	-0.325255	0.000027
C28	C	0.990591	-0.301838	0.000035
C29	C	1.035744	-0.342921	-0.130492
C30	C	1.033444	-0.439556	-0.130601
C31	C	1.035345	-0.439923	0.129337
C32	C	1.035323	-0.342978	0.131062
C33	C	0.992259	-0.207141	0.000032
C34	C	0.985983	-0.564095	0.000025
C35	C	1.142206	0.108237	0.000034
C36	C	1.235159	0.109870	0.000045
C37	C	0.983006	0.267466	0.000029
C38	C	0.984658	0.360416	0.000030
N39	N	0.989113	0.114393	-0.356091
C40	C	1.039893	0.165191	-0.428029
C41	C	1.039905	0.165175	-0.571912
C42	C	0.938351	0.063560	-0.571907
C43	C	0.938343	0.063573	-0.428027
C44	C	1.090662	0.216011	-0.356093
C45	C	1.141446	0.266814	-0.428031
C46	C	1.141458	0.266798	-0.571913
C47	C	1.090687	0.215979	-0.643859
N48	N	0.989133	0.114365	0.356145
H49	H	0.420180	0.100496	-0.228173
H50	H	1.182815	0.308159	-0.630481
Cl51	Cl	0.842945	-0.281363	0.144485
H52	H	1.090710	0.215962	-0.761018
H53	H	0.859504	-0.440472	0.094145
Cl54	Cl	0.403438	0.111247	0.282083
H55	H	1.103954	-0.328809	-0.135340
Cl56	Cl	0.839684	-0.452537	-0.142747
Cl57	Cl	0.574750	0.119226	-0.280477
Cl58	Cl	0.385435	0.260926	0.145070
H59	H	0.897014	0.022187	-0.630497
H60	H	1.004376	-0.314530	-0.227631
Cl61	Cl	0.383846	0.260628	-0.143156
H62	H	1.103030	-0.327630	0.138949
H63	H	0.544359	0.243790	0.093596
Cl64	Cl	0.553745	0.263899	-0.144686
Cl65	Cl	0.424530	-0.036689	-0.139833
H66	H	0.896992	0.022209	-0.369454
H67	H	1.102847	-0.471698	0.130220
H68	H	1.000511	-0.457848	-0.228178
H69	H	0.562220	0.103675	0.227620
H70	H	1.005415	-0.460459	0.228268
Cl71	Cl	0.592982	-0.034585	-0.137986
Cl72	Cl	0.594542	-0.033324	0.143230
Cl73	Cl	1.205276	0.330689	-0.337588
Cl74	Cl	0.842565	-0.282211	-0.144680
H75	H	1.100662	-0.471818	-0.136518
H76	H	1.090655	0.216032	-0.238936
Cl77	Cl	0.425555	-0.039010	0.130702
Cl78	Cl	0.984772	-0.300412	0.280169
