data_functionalizedCrystal
_audit_creation_method	'MofGen! by Chris Wilmer'
_symmetry_space_group_name_H-M	'P1'
_symmetry_Int_Tables_number	1
_symmetry_cell_setting	triclinic
loop_
_symmetry_equiv_pos_as_xyz
  x,y,z
_cell_length_a	13.596369
_cell_length_b	14.853567
_cell_length_c	14.853567
_cell_angle_alpha	96.365070
_cell_angle_beta	89.997779
_cell_angle_gamma	89.997993
loop_
_atom_site_label
_atom_site_type_symbol
_atom_site_fract_x
_atom_site_fract_y
_atom_site_fract_z
O1	O	-0.081715	-1.196360	0.117706
O2	O	0.418285	-0.696360	0.617706
O3	O	-0.081731	-0.933900	0.131728
O4	O	0.418269	-0.433900	0.631728
O5	O	-0.081726	-1.072141	-0.006513
O6	O	0.418274	-0.572141	0.493487
O7	O	-0.081720	-1.058119	0.255947
O8	O	0.418280	-0.558119	0.755947
O9	O	0.081857	-1.072139	-0.006521
O10	O	0.581857	-0.572139	0.493479
O11	O	0.081852	-0.933898	0.131719
O12	O	0.581852	-0.433898	0.631719
O13	O	0.081868	-1.196358	0.117698
O14	O	0.581868	-0.696358	0.617698
Zn15	Zn	0.107832	-1.065128	0.124707
Zn16	Zn	0.607832	-0.565128	0.624707
Zn17	Zn	-0.107695	-1.065131	0.124718
Zn18	Zn	0.392305	-0.565131	0.624718
O19	O	0.081862	-1.058117	0.255938
O20	O	0.581862	-0.558117	0.755938
C21	C	0.000058	-0.900311	0.131088
C22	C	0.500058	-0.400311	0.631088
C23	C	0.000052	-0.800227	0.129184
C24	C	0.500052	-0.300227	0.629184
N25	N	-0.254787	-1.065133	0.124720
N26	N	0.245213	-0.565133	0.624720
C27	C	0.000063	-1.071504	-0.040106
C28	C	0.500063	-0.571504	0.459894
C29	C	0.000054	-1.069601	-0.140189
C30	C	0.500054	-0.569601	0.359811
C31	C	-0.656078	-1.065128	0.124710
C32	C	-0.156078	-0.565128	0.624710
C33	C	-0.544427	-1.065127	0.124715
C34	C	-0.044427	-0.565127	0.624715
C35	C	-0.455436	-1.065130	0.124714
C36	C	0.044564	-0.565130	0.624714
C37	C	-0.343778	-1.065130	0.124721
C38	C	0.156222	-0.565130	0.624721
N39	N	0.254924	-1.065132	0.124699
N40	N	0.754924	-0.565132	0.624699
C41	C	0.000076	-1.229947	0.118337
C42	C	0.500076	-0.729947	0.618337
C43	C	0.000076	-1.330031	0.120241
C44	C	0.500076	-0.830031	0.620241
C45	C	0.000072	-0.387693	0.039019
C46	C	0.500072	0.112307	0.539019
C47	C	0.000074	-0.366412	0.203251
C48	C	0.500074	0.133588	0.703251
C49	C	0.000071	-0.460446	0.205041
C50	C	0.500071	0.039554	0.705041
C51	C	0.000067	-0.518108	0.123819
C52	C	0.500067	-0.018108	0.623819
C53	C	0.000066	-0.481736	0.040806
C54	C	0.500066	0.018264	0.540806
C55	C	0.000062	-0.496825	0.288053
C56	C	0.500062	0.003175	0.788053
C57	C	0.000058	-0.590864	0.289846
C58	C	0.500058	-0.090864	0.789846
C59	C	0.000061	-0.648528	0.208623
C60	C	0.500061	-0.148528	0.708623
C61	C	0.000061	-0.612150	0.125607
C62	C	0.500061	-0.112150	0.625607
C63	C	0.000057	-0.669812	0.044384
C64	C	0.500057	-0.169812	0.544384
C65	C	0.000064	-0.633437	-0.038633
C66	C	0.500064	-0.133437	0.461367
C67	C	0.000069	-0.539399	-0.040417
C68	C	0.500069	-0.039399	0.459583
C69	C	0.000056	-0.742565	0.210407
C70	C	0.500056	-0.242565	0.710407
C71	C	0.000051	-0.763855	0.046172
C72	C	0.500051	-0.263855	0.546172
C73	C	0.000068	-0.979435	-0.552723
C74	C	0.500068	-0.479435	-0.052723
C75	C	0.000077	-1.143668	-0.574004
C76	C	0.500077	-0.643668	-0.074004
C77	C	0.000072	-1.145458	-0.479971
C78	C	0.500072	-0.645458	0.020029
C79	C	0.000066	-1.064235	-0.422309
C80	C	0.500066	-0.564235	0.077691
C81	C	0.000065	-0.981223	-0.458680
C82	C	0.500065	-0.481223	0.041320
C83	C	0.000082	-1.228469	-0.443591
C84	C	0.500082	-0.728469	0.056409
C85	C	0.000078	-1.230262	-0.349552
C86	C	0.500078	-0.730262	0.150448
C87	C	0.000064	-1.149039	-0.291889
C88	C	0.500064	-0.649039	0.208111
C89	C	0.000063	-1.066023	-0.328266
C90	C	0.500063	-0.566023	0.171734
C91	C	0.000056	-0.984800	-0.270604
C92	C	0.500056	-0.484800	0.229396
C93	C	0.000048	-0.901783	-0.306979
C94	C	0.500048	-0.401783	0.193021
C95	C	0.000052	-0.899999	-0.401017
C96	C	0.500052	-0.399999	0.098983
C97	C	0.000061	-1.150823	-0.197851
C98	C	0.500061	-0.650823	0.302149
C99	C	0.000054	-0.986588	-0.176561
C100	C	0.500054	-0.486588	0.323439
C101	C	0.000072	-1.058754	0.289531
C102	C	0.500072	-0.558754	0.789531
C103	C	0.000074	-1.060657	0.389615
C104	C	0.500074	-0.560657	0.889615
H105	H	0.000051	-0.810798	-0.019971
H106	H	0.500051	-0.310798	0.480029
Br107	Br	0.000075	-0.490027	-0.153073
Br108	Br	0.500075	0.009973	0.346927
H109	H	0.000052	-0.772178	0.277998
H110	H	0.500052	-0.272178	0.777998
Br111	Br	0.000049	-0.640223	0.402509
Br112	Br	0.500049	-0.140223	0.902509
Br113	Br	0.000033	-0.787343	-0.450389
Br114	Br	0.500033	-0.287343	0.049611
H115	H	0.000082	-0.358072	-0.028572
H116	H	0.500082	0.141928	0.471428
Br117	Br	0.000047	-0.711703	-0.148859
Br118	Br	0.500047	-0.211703	0.351141
H119	H	0.000044	-0.920445	-0.129618
H120	H	0.500044	-0.420445	0.370382
H121	H	0.000056	-0.449870	0.354180
H122	H	0.500056	0.050130	0.854180
Br123	Br	0.000052	-0.791557	-0.228714
Br124	Br	0.500052	-0.291557	0.271286
Br125	Br	0.000062	-0.288157	0.313477
Br126	Br	0.500062	0.211843	0.813477
Br127	Br	0.000096	-1.263479	-0.148487
Br128	Br	0.500096	-0.763479	0.351513
Br129	Br	0.000042	-0.866774	-0.602086
Br130	Br	0.500042	-0.366774	-0.102086
Br131	Br	0.000118	-1.338693	-0.521849
Br132	Br	0.500118	-0.838693	-0.021849
Br133	Br	0.000075	-1.342925	-0.300193
Br134	Br	0.500075	-0.842925	0.199807
H135	H	0.000090	-1.209795	-0.620958
H136	H	0.500090	-0.709795	-0.120958
