data_functionalizedCrystal
_audit_creation_method	'MofGen! by Chris Wilmer'
_symmetry_space_group_name_H-M	'P1'
_symmetry_Int_Tables_number	1
_symmetry_cell_setting	triclinic
loop_
_symmetry_equiv_pos_as_xyz
  x,y,z
_cell_length_a	19.188933
_cell_length_b	18.266242
_cell_length_c	11.792241
_cell_angle_alpha	89.993537
_cell_angle_beta	96.330508
_cell_angle_gamma	90.007623
loop_
_atom_site_label
_atom_site_type_symbol
_atom_site_fract_x
_atom_site_fract_y
_atom_site_fract_z
O1	O	0.926951	0.060857	-0.141706
O2	O	1.426951	0.560857	0.358294
O3	O	0.723748	0.060864	-0.160778
O4	O	1.223748	0.560864	0.339222
O5	O	0.830281	0.060855	0.014002
O6	O	1.330281	0.560855	0.514002
O7	O	0.820418	0.060866	-0.316486
O8	O	1.320418	0.560866	0.183514
O9	O	0.830262	-0.060907	0.014011
O10	O	1.330262	0.439093	0.514011
O11	O	0.723730	-0.060898	-0.160769
O12	O	1.223730	0.439102	0.339231
O13	O	0.926933	-0.060905	-0.141697
O14	O	1.426933	0.439095	0.358303
Zn15	Zn	0.825328	-0.080234	-0.151232
Zn16	Zn	1.325328	0.419766	0.348768
Zn17	Zn	0.825352	0.080193	-0.151243
Zn18	Zn	1.325352	0.580193	0.348757
O19	O	0.820400	-0.060896	-0.316477
O20	O	1.320400	0.439104	0.183523
C21	C	0.697724	-0.000016	-0.160155
C22	C	1.197724	0.499984	0.339845
C23	C	0.620209	-0.000014	-0.158300
C24	C	1.120209	0.499986	0.341700
C25	C	0.066889	0.066350	-0.145065
C26	C	0.566889	0.566350	0.354935
C27	C	0.139723	0.066353	-0.146801
C28	C	0.639723	0.566353	0.353199
C29	C	0.176135	-0.000019	-0.147670
C30	C	0.676135	0.499981	0.352330
C31	C	0.139709	-0.066399	-0.146773
C32	C	0.639709	0.433601	0.353227
C33	C	0.066877	-0.066400	-0.145025
C34	C	0.566877	0.433600	0.354975
N35	N	0.285529	-0.049421	-0.214993
N36	N	0.785529	0.450579	0.285007
N37	N	0.354716	-0.049415	-0.216656
N38	N	0.854716	0.450585	0.283344
C39	C	0.395573	-0.000020	-0.152933
C40	C	0.895573	0.499980	0.347067
N41	N	0.364629	0.049381	-0.087499
N42	N	0.864629	0.549381	0.412501
N43	N	0.295435	0.049377	-0.085841
N44	N	0.795435	0.549377	0.414159
C45	C	0.255109	-0.000025	-0.149564
C46	C	0.755109	0.499975	0.350436
C47	C	0.510966	0.066359	-0.155704
C48	C	1.010966	0.566359	0.344296
C49	C	0.583802	0.066359	-0.157434
C50	C	1.083802	0.566359	0.342566
C51	C	0.583786	-0.066395	-0.157417
C52	C	1.083786	0.433605	0.342583
C53	C	0.510952	-0.066393	-0.155676
C54	C	1.010952	0.433607	0.344324
C55	C	0.474546	-0.000014	-0.154825
C56	C	0.974546	0.499986	0.345175
N57	N	0.825317	-0.189721	-0.151223
N58	N	1.325317	0.310279	0.348777
C59	C	0.872505	-0.228034	-0.073868
C60	C	1.372505	0.271966	0.426132
C61	C	0.872510	-0.304679	-0.073863
C62	C	1.372510	0.195321	0.426137
C63	C	0.825333	-0.343008	-0.151232
C64	C	1.325333	0.156992	0.348768
C65	C	0.778135	-0.304686	-0.228593
C66	C	1.278135	0.195314	0.271407
C67	C	0.778128	-0.228042	-0.228588
C68	C	1.278128	0.271958	0.271412
N69	N	0.816826	-0.463337	-0.251702
N70	N	1.316826	0.036663	0.248298
N71	N	0.816838	-0.536145	-0.251702
N72	N	1.316838	-0.036145	0.248298
C73	C	0.825352	-0.573930	-0.151248
C74	C	1.325352	-0.073930	0.348752
N75	N	0.833869	-0.536157	-0.050790
N76	N	1.333869	-0.036157	0.449210
N77	N	0.833861	-0.463342	-0.050790
N78	N	1.333861	0.036658	0.449210
C79	C	0.825336	-0.426115	-0.151245
C80	C	1.325336	0.073885	0.348755
C81	C	0.872548	-0.695350	-0.073881
C82	C	1.372548	-0.195350	0.426119
C83	C	0.872548	-0.771997	-0.073874
C84	C	1.372548	-0.271997	0.426126
C85	C	0.778176	-0.772002	-0.228614
C86	C	1.278176	-0.272002	0.271386
C87	C	0.778174	-0.695357	-0.228611
C88	C	1.278174	-0.195357	0.271389
C89	C	0.825363	-0.657036	-0.151246
C90	C	1.325363	-0.157036	0.348754
C91	C	0.952956	-0.000023	-0.142319
C92	C	1.452956	0.499977	0.357681
C93	C	1.030471	-0.000021	-0.144174
C94	C	1.530471	0.499979	0.355826
C95	C	0.829652	-0.000026	0.056289
C96	C	1.329652	0.499974	0.556289
C97	C	0.827798	-0.000025	0.182275
C98	C	1.327798	0.499975	0.682275
N99	N	0.825369	0.189680	-0.151243
N100	N	1.325369	0.689680	0.348757
C101	C	0.821029	-0.000014	-0.358763
C102	C	1.321029	0.499986	0.141237
C103	C	0.822883	-0.000010	-0.484749
C104	C	1.322883	0.499990	0.015251
C105	C	0.824388	-0.000013	0.412936
C106	C	1.324388	0.499987	0.912936
C107	C	0.826283	-0.000019	0.284579
C108	C	1.326283	0.499981	0.784579
H109	H	0.481301	-0.120440	-0.154955
H110	H	0.981301	0.379560	0.345045
H111	H	0.169380	0.120402	-0.147533
H112	H	0.669380	0.620402	0.352467
H113	H	0.481323	0.120409	-0.155008
H114	H	0.981323	0.620409	0.344992
N115	N	0.923398	-0.186701	0.009576
N116	N	1.423398	0.313299	0.509576
H117	H	0.953292	-0.222607	0.058582
H118	H	1.453292	0.277393	0.558582
H119	H	0.896479	-0.154915	0.059649
H120	H	1.396479	0.345085	0.559649
N121	N	0.623087	0.137949	-0.158376
N122	N	1.123087	0.637949	0.341624
H123	H	0.588969	0.179996	-0.157571
H124	H	1.088969	0.679996	0.342429
H125	H	0.647916	0.140841	-0.229437
H126	H	1.147916	0.640841	0.270563
H127	H	0.613432	-0.120437	-0.158120
H128	H	1.113432	0.379563	0.341880
N129	N	0.027594	-0.137989	-0.144063
N130	N	0.527594	0.362011	0.355937
H131	H	0.061769	-0.180036	-0.144088
H132	H	0.561769	0.319964	0.355912
H133	H	-0.007688	-0.141101	-0.214079
H134	H	0.492312	0.358899	0.285921
N135	N	0.178977	-0.137987	-0.147706
N136	N	0.678977	0.362013	0.352294
H137	H	0.230642	-0.127916	-0.148953
H138	H	0.730642	0.372084	0.351047
H139	H	0.160846	-0.166972	-0.217737
H140	H	0.660846	0.333028	0.282263
H141	H	0.739700	-0.196848	-0.291581
H142	H	1.239700	0.303152	0.208419
N143	N	0.923406	-0.346014	0.009576
N144	N	1.423406	0.153986	0.509576
H145	H	0.953297	-0.310108	0.058588
H146	H	1.453297	0.189892	0.558588
H147	H	0.954432	-0.377801	-0.033763
H148	H	1.454432	0.122199	0.466237
H149	H	0.739722	-0.335897	-0.291586
H150	H	1.239722	0.164103	0.208414
N151	N	0.923440	-0.654011	0.009560
N152	N	1.423440	-0.154011	0.509560
H153	H	0.953332	-0.689915	0.058573
H154	H	1.453332	-0.189915	0.558573
H155	H	0.896522	-0.622220	0.059628
H156	H	1.396522	-0.122220	0.559628
H157	H	0.910972	-0.803191	-0.010877
H158	H	1.410972	-0.303191	0.489123
H159	H	0.037252	0.120401	-0.144368
H160	H	0.537252	0.620401	0.355632
N161	N	0.727286	-0.813332	-0.312056
N162	N	1.227286	-0.313332	0.187944
H163	H	0.734448	-0.867699	-0.300320
H164	H	1.234448	-0.367699	0.199680
H165	H	0.735649	-0.799926	-0.392540
H166	H	1.235649	-0.299926	0.107460
H167	H	0.739751	-0.664161	-0.291605
H168	H	1.239751	-0.164161	0.208395
