data_functionalizedCrystal
_audit_creation_method	'MofGen! by Chris Wilmer'
_symmetry_space_group_name_H-M	'P1'
_symmetry_Int_Tables_number	1
_symmetry_cell_setting	triclinic
loop_
_symmetry_equiv_pos_as_xyz
  x,y,z
_cell_length_a	14.853567
_cell_length_b	13.330367
_cell_length_c	14.853567
_cell_angle_alpha	89.999156
_cell_angle_beta	96.365070
_cell_angle_gamma	90.004582
loop_
_atom_site_label
_atom_site_type_symbol
_atom_site_fract_x
_atom_site_fract_y
_atom_site_fract_z
O1	O	1.196369	0.083346	-0.117704
O2	O	1.696369	0.583346	0.382296
O3	O	0.933909	0.083362	-0.131725
O4	O	1.433909	0.583362	0.368275
O5	O	1.072150	0.083356	0.006515
O6	O	1.572150	0.583356	0.506515
O7	O	1.058128	0.083351	-0.255944
O8	O	1.558128	0.583351	0.244056
O9	O	1.072130	-0.083491	0.006519
O10	O	1.572130	0.416509	0.506519
O11	O	0.933889	-0.083485	-0.131722
O12	O	1.433889	0.416515	0.368278
O13	O	1.196349	-0.083501	-0.117700
O14	O	1.696349	0.416499	0.382300
Cu15	Cu	1.065117	-0.098728	-0.124711
Cu16	Cu	1.565117	0.401272	0.375289
Cu17	Cu	1.065141	0.098588	-0.124715
Cu18	Cu	1.565141	0.598588	0.375285
O19	O	1.058108	-0.083496	-0.255941
O20	O	1.558108	0.416504	0.244059
C21	C	0.900311	-0.000060	-0.131088
C22	C	1.400311	0.499940	0.368912
C23	C	0.800227	-0.000053	-0.129184
C24	C	1.300227	0.499947	0.370816
N25	N	1.065107	-0.237509	-0.124708
N26	N	1.565107	0.262491	0.375292
C27	C	0.387693	-0.000074	-0.039019
C28	C	0.887693	0.499926	0.460981
C29	C	0.366412	-0.000076	-0.203251
C30	C	0.866412	0.499924	0.296749
C31	C	0.460446	-0.000073	-0.205042
C32	C	0.960446	0.499927	0.294958
C33	C	0.518108	-0.000069	-0.123819
C34	C	1.018108	0.499931	0.376181
C35	C	0.481736	-0.000067	-0.040806
C36	C	0.981736	0.499933	0.459194
C37	C	0.496825	-0.000064	-0.288053
C38	C	0.996825	0.499936	0.211947
C39	C	0.590864	-0.000059	-0.289846
C40	C	1.090864	0.499941	0.210154
C41	C	0.648528	-0.000062	-0.208623
C42	C	1.148528	0.499938	0.291377
C43	C	0.612150	-0.000062	-0.125607
C44	C	1.112150	0.499938	0.374393
C45	C	0.669812	-0.000058	-0.044384
C46	C	1.169812	0.499942	0.455616
C47	C	0.633437	-0.000065	0.038633
C48	C	1.133437	0.499935	0.538633
C49	C	0.539399	-0.000070	0.040417
C50	C	1.039399	0.499930	0.540417
C51	C	0.742565	-0.000057	-0.210407
C52	C	1.242565	0.499943	0.289593
C53	C	0.763855	-0.000052	-0.046172
C54	C	1.263855	0.499948	0.453828
C55	C	1.003925	-0.710130	-0.185903
C56	C	1.503925	-0.210130	0.314097
C57	C	1.126381	-0.710103	-0.063519
C58	C	1.626381	-0.210103	0.436481
C59	C	1.126371	-0.605084	-0.063516
C60	C	1.626371	-0.105084	0.436484
C61	C	1.065138	-0.552584	-0.124709
C62	C	1.565138	-0.052584	0.375291
C63	C	1.003915	-0.605102	-0.185904
C64	C	1.503915	-0.105102	0.314096
C65	C	1.187598	-0.552559	-0.002328
C66	C	1.687598	-0.052559	0.497672
C67	C	1.187591	-0.447534	-0.002323
C68	C	1.687591	0.052466	0.497677
C69	C	1.126353	-0.395031	-0.063512
C70	C	1.626353	0.104969	0.436488
C71	C	1.065127	-0.447556	-0.124710
C72	C	1.565127	0.052444	0.375290
C73	C	1.003895	-0.395055	-0.185902
C74	C	1.503895	0.104945	0.314098
C75	C	0.942664	-0.447578	-0.247096
C76	C	1.442664	0.052422	0.252904
C77	C	0.942677	-0.552599	-0.247093
C78	C	1.442677	-0.052599	0.252907
C79	C	1.126340	-0.290010	-0.063515
C80	C	1.626340	0.209990	0.436485
C81	C	1.003884	-0.290027	-0.185903
C82	C	1.503884	0.209973	0.314097
C83	C	1.229947	-0.000078	-0.118337
C84	C	1.729947	0.499922	0.381663
C85	C	1.330031	-0.000078	-0.120241
C86	C	1.830031	0.499922	0.379759
C87	C	1.071504	-0.000064	0.040106
C88	C	1.571504	0.499936	0.540106
C89	C	1.069601	-0.000055	0.140189
C90	C	1.569601	0.499945	0.640189
N91	N	1.065158	0.237370	-0.124711
N92	N	1.565158	0.737370	0.375289
C93	C	1.058754	-0.000073	-0.289531
C94	C	1.558754	0.499927	0.210469
C95	C	1.060657	-0.000075	-0.389615
C96	C	1.560657	0.499925	0.110385
C97	C	0.979435	-0.000069	0.552723
C98	C	1.479435	0.499931	1.052723
C99	C	1.143668	-0.000079	0.574004
C100	C	1.643668	0.499921	1.074004
C101	C	1.145458	-0.000073	0.479971
C102	C	1.645458	0.499927	0.979971
C103	C	1.064235	-0.000067	0.422309
C104	C	1.564235	0.499933	0.922309
C105	C	0.981223	-0.000066	0.458680
C106	C	1.481223	0.499934	0.958680
C107	C	1.228469	-0.000084	0.443591
C108	C	1.728469	0.499916	0.943591
C109	C	1.230262	-0.000079	0.349552
C110	C	1.730262	0.499921	0.849552
C111	C	1.149039	-0.000066	0.291889
C112	C	1.649039	0.499934	0.791889
C113	C	1.066023	-0.000064	0.328266
C114	C	1.566023	0.499936	0.828266
C115	C	0.984800	-0.000058	0.270604
C116	C	1.484800	0.499942	0.770604
C117	C	0.901783	-0.000049	0.306979
C118	C	1.401783	0.499951	0.806979
C119	C	0.899999	-0.000053	0.401017
C120	C	1.399999	0.499947	0.901017
C121	C	1.150823	-0.000062	0.197851
C122	C	1.650823	0.499938	0.697851
C123	C	0.986588	-0.000055	0.176561
C124	C	1.486588	0.499945	0.676561
H125	H	0.810798	-0.000052	0.019971
H126	H	1.310798	0.499948	0.519971
Br127	Br	0.711703	-0.000048	0.148859
Br128	Br	1.211703	0.499952	0.648859
Br129	Br	0.920824	-0.781403	-0.268943
Br130	Br	1.420824	-0.281403	0.231057
H131	H	0.954018	-0.247288	-0.235731
H132	H	1.454018	0.252712	0.264269
H133	H	0.911844	-0.000058	0.582344
H134	H	1.411844	0.499942	1.082344
H135	H	0.319459	-0.000071	-0.269379
H136	H	0.819459	0.499929	0.230621
Br137	Br	1.270706	-0.623805	0.080709
Br138	Br	1.770706	-0.123805	0.580709
H139	H	1.218414	-0.000076	0.168238
H140	H	1.718414	0.499924	0.668238
H141	H	0.892811	-0.404820	-0.296924
H142	H	1.392811	0.095180	0.203076
Br143	Br	1.338693	-0.000120	0.521849
Br144	Br	1.838693	0.499880	1.021849
H145	H	1.176239	-0.752852	-0.013702
H146	H	1.676239	-0.252852	0.486298
Br147	Br	1.270685	-0.376259	0.080723
Br148	Br	1.770685	0.123741	0.580723
H149	H	1.176197	-0.247251	-0.013696
H150	H	1.676197	0.252749	0.486304
Br151	Br	0.876351	-0.000034	0.098312
Br152	Br	1.376351	0.499966	0.598312
H153	H	1.297860	-0.000085	0.319944
H154	H	1.797860	0.499915	0.819944
H155	H	0.509774	-0.000100	0.108005
H156	H	1.009774	0.499900	0.608005
H157	H	0.358072	-0.000083	0.028572
H158	H	0.858072	0.499917	0.528572
Br159	Br	0.418568	-0.000048	-0.398276
Br160	Br	0.918568	0.499952	0.101724
Br161	Br	0.859586	-0.623881	-0.330137
Br162	Br	1.359586	-0.123881	0.169863
Br163	Br	0.791930	-0.000036	-0.323063
Br164	Br	1.291930	0.499964	0.176937
Br165	Br	0.640223	-0.000050	-0.402509
Br166	Br	1.140223	0.499950	0.097491
Br167	Br	0.791557	-0.000053	0.228714
Br168	Br	1.291557	0.499947	0.728714
H169	H	1.209795	-0.000092	0.620958
H170	H	1.709795	0.499908	1.120958
Br171	Br	0.787343	-0.000034	0.450389
Br172	Br	1.287343	0.499966	0.950389
