data_functionalizedCrystal
_audit_creation_method	'MofGen! by Chris Wilmer'
_symmetry_space_group_name_H-M	'P1'
_symmetry_Int_Tables_number	1
_symmetry_cell_setting	triclinic
loop_
_symmetry_equiv_pos_as_xyz
  x,y,z
_cell_length_a	17.699083
_cell_length_b	9.616153
_cell_length_c	17.699083
_cell_angle_alpha	90.008362
_cell_angle_beta	83.283015
_cell_angle_gamma	89.990722
loop_
_atom_site_label
_atom_site_type_symbol
_atom_site_fract_x
_atom_site_fract_y
_atom_site_fract_z
O1	O	-1.004067	-0.115440	-0.095715
O2	O	-0.783689	-0.115489	-0.108168
O3	O	-0.900104	-0.115450	0.008248
O4	O	-0.887652	-0.115478	-0.212131
O5	O	-0.900111	0.115841	0.008259
O6	O	-0.783696	0.115803	-0.108156
O7	O	-1.004074	0.115852	-0.095704
Zn8	Zn	-0.893886	0.152550	-0.101928
Zn9	Zn	-0.893877	-0.152187	-0.101943
O10	O	-0.887659	0.115814	-0.212119
C11	C	-0.755495	0.000151	-0.107716
C12	C	-0.671477	0.000133	-0.106377
C13	C	-0.622856	0.000124	-0.174710
C14	C	-0.543913	0.000141	-0.173448
C15	C	-0.513592	0.000157	-0.103852
C16	C	-0.562219	0.000170	-0.035513
C17	C	-0.641161	0.000163	-0.036776
C18	C	-0.243856	0.000200	-0.030418
C19	C	-0.164908	0.000203	-0.029160
C20	C	-0.146608	0.000179	-0.167090
C21	C	-0.225550	0.000172	-0.168353
C22	C	-0.274170	0.000192	-0.100015
C23	C	-0.359769	0.000176	-0.101384
C24	C	-0.427995	0.000163	-0.102481
N25	N	-0.893871	-0.360161	-0.101948
C26	C	-0.831672	-0.580551	-0.164280
C27	C	-0.831436	-0.419384	-0.164138
C28	C	-0.876975	-0.418630	-0.022942
C29	C	-0.876544	-0.579848	-0.023290
C30	C	-0.973203	-0.580033	-0.117857
C31	C	-0.972655	-0.418806	-0.119671
C32	C	-0.032268	0.000206	-0.096156
C33	C	-0.116286	0.000205	-0.097494
C34	C	-0.899662	0.000195	0.036451
C35	C	-0.898323	0.000196	0.120469
N36	N	-0.893898	0.360524	-0.101917
C37	C	-0.888102	0.000165	-0.240322
C38	C	-0.889440	0.000155	-0.324340
C39	C	-0.966656	0.000213	0.169090
C40	C	-0.965394	0.000200	0.248033
C41	C	-0.895798	0.000180	0.278354
C42	C	-0.827459	0.000159	0.229727
C43	C	-0.828722	0.000162	0.150785
C44	C	-0.822364	0.000147	0.548090
C45	C	-0.821106	0.000148	0.627038
C46	C	-0.959036	0.000185	0.645338
C47	C	-0.960299	0.000188	0.566396
C48	C	-0.891961	0.000159	0.517776
C49	C	-0.893330	0.000170	0.432177
C50	C	-0.894427	0.000179	0.363951
H51	H	-0.107012	0.000170	-0.222734
C52	C	-0.844977	-0.632970	-0.243873
N53	N	-0.854999	-0.672460	-0.303824
H54	H	-0.504328	0.000132	-0.229092
C55	C	-0.747189	0.000108	0.494617
N56	N	-0.690564	0.000074	0.454339
H57	H	-0.920160	-0.618823	0.024512
C58	C	-1.038101	-0.364350	-0.062299
N59	N	-1.087394	-0.323336	-0.019080
H60	H	-0.537526	0.000203	0.021154
H61	H	-0.772572	-0.380833	-0.153957
C62	C	-0.936581	-0.366790	0.041254
N63	N	-0.981477	-0.327738	0.089605
C64	C	-0.750902	0.000149	0.263082
N65	N	-0.693238	0.000152	0.288205
H66	H	-1.023330	0.000237	0.144409
C67	C	-0.131558	0.000238	0.047405
N68	N	-0.106439	0.000266	0.105071
H69	H	-1.021038	0.000217	0.287618
C70	C	-0.799738	-0.364114	-0.003527
N71	N	-0.741560	-0.323057	0.011091
C72	C	-0.844931	-0.365980	-0.243484
N73	N	-0.855082	-0.325763	-0.303254
C74	C	-0.258898	0.000163	-0.244914
N75	N	-0.284014	0.000166	-0.302582
H76	H	-0.818717	-0.617465	-0.009252
H77	H	-1.019505	-0.618140	-0.072382
H78	H	-0.680748	0.000169	0.018868
H79	H	-0.647537	0.000110	-0.231384
H80	H	-0.989531	-0.620720	-0.174231
H81	H	-1.016971	0.000211	0.541714
H82	H	-1.014680	0.000201	0.684934
H83	H	-0.283434	0.000218	0.025228
H84	H	-0.764429	0.000135	0.651721
H85	H	-0.985478	-0.380618	-0.177796
H86	H	-0.773145	-0.621080	-0.154237
H87	H	-0.773078	0.000148	0.111198
