data_functionalizedCrystal
_audit_creation_method	'MofGen! by Chris Wilmer'
_symmetry_space_group_name_H-M	'P1'
_symmetry_Int_Tables_number	1
_symmetry_cell_setting	triclinic
loop_
_symmetry_equiv_pos_as_xyz
  x,y,z
_cell_length_a	10.723023
_cell_length_b	10.723024
_cell_length_c	16.176319
_cell_angle_alpha	89.994397
_cell_angle_beta	89.992747
_cell_angle_gamma	84.467709
loop_
_atom_site_label
_atom_site_type_symbol
_atom_site_fract_x
_atom_site_fract_y
_atom_site_fract_z
O1	O	1.657194	0.175026	-0.068742
O2	O	1.294042	0.191780	-0.068744
O3	O	1.483994	0.001827	-0.068740
O4	O	1.467241	0.364979	-0.068746
O5	O	1.483968	0.001814	0.068753
O6	O	1.294015	0.191768	0.068749
O7	O	1.657168	0.175013	0.068751
Cu8	Cu	1.475589	0.183389	0.081304
Cu9	Cu	1.475620	0.183404	-0.081297
O10	O	1.467215	0.364967	0.068747
C11	C	1.247529	0.190555	0.000002
C12	C	1.108974	0.186908	0.000002
C13	C	1.047216	0.185288	-0.071224
C14	C	0.904013	0.181518	-0.071227
C15	C	1.482762	-0.044679	0.000006
C16	C	1.479114	-0.183233	0.000003
C17	C	1.585402	-0.258216	0.000002
C18	C	1.581634	-0.401420	-0.000001
C19	C	1.703680	0.176239	0.000003
C20	C	1.842235	0.179886	-0.000002
C21	C	1.468447	0.411473	-0.000000
C22	C	1.472095	0.550027	-0.000003
N23	N	1.475576	0.183378	0.195670
N24	N	1.475643	0.183405	-0.195662
C25	C	1.559713	0.099302	0.238936
C26	C	1.559719	0.099301	0.325483
C27	C	1.475594	0.183383	0.368762
C28	C	1.391448	0.267463	0.325490
C29	C	1.391436	0.267457	0.238945
C30	C	1.391491	0.267487	0.674518
C31	C	1.391511	0.267489	0.761070
C32	C	1.559774	0.099330	0.761056
C33	C	1.559762	0.099324	0.674511
C34	C	1.475612	0.183400	0.631247
C35	C	1.475605	0.183399	0.537402
C36	C	1.475606	0.183391	0.462605
H37	H	1.679188	-0.216394	0.000008
O38	O	0.840779	0.180030	-0.144031
C39	C	0.787451	0.286952	-0.272095
C40	C	0.859148	0.288780	-0.189681
H41	H	0.802255	0.374880	-0.309019
H42	H	0.823673	0.200510	-0.309135
H43	H	0.683260	0.284147	-0.259114
H44	H	0.963350	0.291630	-0.202587
H45	H	0.822823	0.375213	-0.152666
H46	H	1.628269	0.030861	0.639275
H47	H	0.895338	0.181273	0.060981
O48	O	1.641584	0.017597	0.367383
C49	C	1.808465	-0.149217	0.358236
C50	C	1.715830	-0.056737	0.310683
H51	H	1.868499	-0.209359	0.312415
H52	H	1.871342	-0.094812	0.398714
H53	H	1.754062	-0.212007	0.398795
H54	H	1.770132	0.006075	0.270079
H55	H	1.652954	-0.111221	0.270257
H56	H	1.385328	-0.225055	-0.000003
H57	H	1.055829	0.185510	0.060979
O58	O	1.110484	0.186799	-0.144028
C59	C	1.163862	0.079920	-0.272095
C60	C	1.092138	0.078061	-0.189681
H61	H	1.149076	-0.007997	-0.309021
H62	H	1.127648	0.166373	-0.309133
H63	H	1.268048	0.082727	-0.259115
H64	H	0.987941	0.075210	-0.202586
H65	H	1.128455	-0.008382	-0.152669
H66	H	1.322922	0.335919	0.203718
H67	H	1.672625	-0.465852	0.000002
H68	H	1.381099	-0.385548	0.000003
H69	H	1.628223	0.030838	0.203703
O70	O	1.641452	0.017473	0.802996
C71	C	1.712675	-0.198854	0.829519
C72	C	1.620127	-0.106294	0.781959
H73	H	1.695449	-0.298939	0.812542
H74	H	1.812785	-0.181784	0.812474
H75	H	1.698247	-0.184351	0.898805
H76	H	1.634441	-0.120743	0.712662
H77	H	1.520051	-0.123387	0.799073
O78	O	1.309658	0.349209	0.802985
C79	C	1.142789	0.516039	0.793871
C80	C	1.235392	0.423546	0.746299
H81	H	1.082739	0.576182	0.748061
H82	H	1.079925	0.461644	0.834383
H83	H	1.197219	0.578825	0.834397
H84	H	1.181065	0.360736	0.705728
H85	H	1.298256	0.478018	0.705840
O86	O	1.309935	0.349226	0.632412
C87	C	1.284821	0.519486	0.534744
C88	C	1.377319	0.426955	0.582365
H89	H	1.339264	0.582371	0.494283
H90	H	1.222021	0.465123	0.494182
H91	H	1.224687	0.579525	0.580567
H92	H	1.437534	0.366893	0.536601
H93	H	1.440032	0.481394	0.622939
H94	H	1.322945	0.335920	0.360733
