data_functionalizedCrystal
_audit_creation_method	'MofGen! by Chris Wilmer'
_symmetry_space_group_name_H-M	'P1'
_symmetry_Int_Tables_number	1
_symmetry_cell_setting	triclinic
loop_
_symmetry_equiv_pos_as_xyz
  x,y,z
_cell_length_a	18.101398
_cell_length_b	19.121063
_cell_length_c	18.101389
_cell_angle_alpha	92.419391
_cell_angle_beta	89.975673
_cell_angle_gamma	92.464489
loop_
_atom_site_label
_atom_site_type_symbol
_atom_site_fract_x
_atom_site_fract_y
_atom_site_fract_z
Zn1	Zn	1.119554	-0.279777	-0.431404
Zn2	Zn	1.114175	-0.397213	-0.312837
Zn3	Zn	0.995713	-0.279770	-0.307565
Zn4	Zn	0.990390	-0.397183	-0.436624
O5	O	1.054958	-0.338486	-0.372107
O6	O	1.222473	-0.295371	-0.415698
O7	O	1.098437	-0.381644	-0.208505
O8	O	1.016620	-0.181486	-0.319601
O9	O	1.218521	-0.381651	-0.328587
O10	O	1.107605	-0.181491	-0.410586
O11	O	1.011404	-0.295359	-0.204632
O12	O	0.891375	-0.295330	-0.324663
O13	O	1.007547	-0.381599	-0.539564
O14	O	0.887464	-0.381592	-0.419482
O15	O	1.102443	-0.295342	-0.535729
O16	O	1.093276	-0.495494	-0.333648
O17	O	1.002331	-0.495472	-0.424594
C18	C	0.862549	-0.338457	-0.372067
C19	C	0.780234	-0.338462	-0.372069
C20	C	0.481141	-0.338506	-0.372133
C21	C	0.514915	-0.283961	-0.312742
C22	C	0.600526	-0.284107	-0.312506
C23	C	0.629525	-0.338484	-0.372101
C24	C	0.595084	-0.412466	-0.354099
C25	C	0.509452	-0.412163	-0.353690
C26	C	0.513600	-0.319712	-0.449688
C27	C	0.599325	-0.318065	-0.449186
C28	C	0.713385	-0.338476	-0.372084
C29	C	0.397281	-0.338519	-0.372148
C30	C	1.046662	-0.520967	-0.380276
C31	C	1.043181	-0.599034	-0.383795
C32	C	1.088932	-0.635698	-0.338137
C33	C	1.085662	-0.709049	-0.341451
C34	C	1.036637	-0.745735	-0.390420
C35	C	0.990884	-0.709066	-0.436083
C36	C	0.994158	-0.635716	-0.432772
C37	C	1.024385	-0.967206	-0.402788
C38	C	1.021113	-1.040562	-0.406094
C39	C	1.115892	-1.040539	-0.311462
C40	C	1.119159	-0.967188	-0.308152
C41	C	1.073408	-0.930525	-0.353818
C42	C	1.033292	-0.820713	-0.393807
C43	C	1.076758	-0.855549	-0.350434
C44	C	1.248119	-0.338515	-0.372148
C45	C	1.330432	-0.338528	-0.372165
C46	C	1.055002	-0.338468	-0.565269
C47	C	1.055020	-0.338461	-0.647582
C48	C	1.063306	-0.155292	-0.363923
C49	C	1.066864	-0.077226	-0.360436
C50	C	1.055069	-0.338329	-0.946668
C51	C	0.995174	-0.392427	-0.917747
C52	C	0.995318	-0.392678	-0.832140
C53	C	1.055044	-0.338394	-0.798288
C54	C	1.132167	-0.358491	-0.830296
C55	C	1.131831	-0.358846	-0.915957
C56	C	1.038526	-0.264013	-0.911754
C57	C	1.036771	-0.264443	-0.826122
C58	C	1.055035	-0.338430	-0.714430
C59	C	1.055084	-0.338295	-1.030526
C60	C	1.054959	-0.338453	-0.179695
C61	C	1.055093	-0.338263	-0.097373
H62	H	0.496816	-0.228932	-0.323490
C63	C	0.623022	-0.434372	-0.278487
N64	N	0.644063	-0.450867	-0.221533
H65	H	0.993375	-0.850591	-0.433677
C66	C	0.917916	-0.375685	-0.802961
N67	N	0.859613	-0.362889	-0.780987
C68	C	1.009694	-0.467099	-0.807809
N69	N	1.020509	-0.523159	-0.789483
H70	H	0.956904	-0.605865	-0.469953
H71	H	0.937700	-0.379979	-0.937774
C72	C	0.481448	-0.433688	-0.277225
N73	N	0.460360	-0.449898	-0.219629
C74	C	0.487682	-0.248096	-0.472661
N75	N	0.468162	-0.194151	-0.489954
H76	H	0.987132	-0.937361	-0.439969
H77	H	1.153140	-1.070398	-0.274285
C78	C	1.091755	-0.207095	-0.794645
N79	N	1.133171	-0.163901	-0.770931
H80	H	1.005710	-0.447176	-0.941732
C81	C	0.632282	-0.209989	-0.327224
N82	N	0.656197	-0.154159	-0.338306
C83	C	0.485046	-0.300543	-0.235464
N84	N	0.462547	-0.313035	-0.177258
H85	H	0.950970	-0.738942	-0.475958
C86	C	0.478906	-0.468927	-0.409819
N87	N	0.455902	-0.511684	-0.452092
H88	H	0.620422	-0.296530	-0.254971
C89	C	1.193931	-0.307939	-0.941692
N90	N	1.240709	-0.269601	-0.961073
C91	C	0.967184	-1.080915	-0.459971
N92	N	0.926567	-1.111310	-0.500549
C93	C	1.173071	-0.926838	-0.254263
N94	N	1.213670	-0.896447	-0.213665
C95	C	1.130682	-0.815192	-0.296568
N96	N	1.171295	-0.784789	-0.255993
C97	C	0.630103	-0.244510	-0.467603
N98	N	0.653287	-0.189107	-0.481470
H99	H	1.128850	-0.605832	-0.298258
C100	C	1.097518	-0.209562	-0.936698
N101	N	1.141953	-0.168555	-0.955488
C102	C	0.620072	-0.468844	-0.410897
N103	N	0.638898	-0.511307	-0.453676
C104	C	1.151297	-0.432240	-0.946252
N105	N	1.165957	-0.487522	-0.969066
H106	H	0.980032	-0.249287	-0.805110
H107	H	0.619076	-0.354899	-0.495539
C108	C	1.193882	-0.306937	-0.800491
N109	N	1.240365	-0.268106	-0.778039
H110	H	0.491559	-0.359441	-0.493899
H111	H	1.122917	-0.738898	-0.304271
C112	C	1.152068	-0.431106	-0.804596
N113	N	1.167052	-0.485801	-0.785240
H114	H	0.983441	-0.245705	-0.932518
