data_functionalizedCrystal
_audit_creation_method	'MofGen! by Chris Wilmer'
_symmetry_space_group_name_H-M	'P1'
_symmetry_Int_Tables_number	1
_symmetry_cell_setting	triclinic
loop_
_symmetry_equiv_pos_as_xyz
  x,y,z
_cell_length_a	18.215407
_cell_length_b	12.759400
_cell_length_c	18.215399
_cell_angle_alpha	90.023429
_cell_angle_beta	90.019833
_cell_angle_gamma	90.013614
loop_
_atom_site_label
_atom_site_type_symbol
_atom_site_fract_x
_atom_site_fract_y
_atom_site_fract_z
Zn1	Zn	1.125132	-0.418264	0.416139
Zn2	Zn	1.125065	-0.593962	0.293082
Zn3	Zn	1.002064	-0.418299	0.293086
Zn4	Zn	1.002056	-0.593903	0.416107
O5	O	1.063579	-0.506107	0.354604
O6	O	1.228107	-0.441581	0.399827
O7	O	1.108725	-0.570699	0.190099
O8	O	1.018421	-0.271273	0.309424
O9	O	1.228059	-0.570665	0.309418
O10	O	1.108838	-0.271248	0.399831
O11	O	1.018357	-0.441640	0.190102
O12	O	0.899079	-0.441583	0.309394
O13	O	1.018406	-0.570566	0.519096
O14	O	0.899072	-0.570599	0.399777
O15	O	1.108830	-0.441525	0.519119
O16	O	1.108716	-0.740975	0.309387
O17	O	1.018341	-0.740932	0.399773
C18	C	0.872373	-0.506089	0.354583
C19	C	0.790574	-0.506107	0.354591
C20	C	1.063541	-0.779075	0.354592
C21	C	1.063592	-0.895851	0.354612
C22	C	0.602396	-0.573391	0.401594
C23	C	0.525537	-0.573394	0.401604
C24	C	0.525515	-0.438842	0.307629
C25	C	0.602372	-0.438835	0.307624
C26	C	0.640811	-0.506115	0.354606
C27	C	0.487095	-0.506126	0.354620
C28	C	0.403761	-0.506129	0.354630
C29	C	0.724150	-0.506111	0.354597
C30	C	1.110648	-0.950620	0.401725
C31	C	1.110682	-1.060344	0.401743
C32	C	1.016601	-1.060520	0.307528
C33	C	1.016564	-0.950798	0.307515
C34	C	1.157676	-0.895673	0.448822
C35	C	1.204737	-0.950442	0.495938
C36	C	1.204771	-1.060166	0.495956
C37	C	1.157744	-1.115121	0.448858
C38	C	1.255532	-0.506126	0.354625
C39	C	1.337331	-0.506134	0.354635
C40	C	1.063624	-0.506035	0.546557
C41	C	1.063643	-0.506004	0.628356
C42	C	1.063638	-0.232074	0.354632
C43	C	1.063663	-0.115297	0.354643
C44	C	1.063577	-0.506103	0.163398
C45	C	1.063700	-0.505838	0.081599
C46	C	1.110744	-0.438749	0.816563
C47	C	1.110753	-0.438719	0.893422
C48	C	1.016595	-0.573096	0.893386
C49	C	1.016583	-0.573120	0.816529
C50	C	1.063662	-0.505949	0.778119
C51	C	1.063682	-0.505894	0.931835
C52	C	1.063691	-0.505861	1.015169
C53	C	1.063652	-0.505980	0.694780
H54	H	0.494264	-0.628176	0.439868
H55	H	0.494208	-0.384067	0.269377
O56	O	1.157771	-1.233468	0.448871
H57	H	1.172678	-1.262422	0.393377
O58	O	1.161517	-0.366294	0.775139
H59	H	1.198951	-0.413330	0.740130
O60	O	1.161529	-0.366226	0.934883
H61	H	1.153621	-0.377477	0.994780
H62	H	0.633650	-0.384044	0.269360
O63	O	0.643859	-0.645941	0.452273
H64	H	0.604231	-0.692713	0.484954
O65	O	1.157637	-0.777329	0.448801
H66	H	1.198240	-0.748319	0.489467
H67	H	0.978267	-0.627787	0.924669
O68	O	0.965776	-0.645583	0.775067
H69	H	0.978369	-0.728045	0.789798
O70	O	1.255458	-0.891180	0.546735
H71	H	1.247536	-0.805681	0.538804
H72	H	1.243085	-1.104757	0.534326
O73	O	0.965897	-1.119795	0.256721
H74	H	0.928458	-1.169810	0.289626
O75	O	0.965817	-0.891713	0.256696
H76	H	0.933131	-0.948353	0.223940
