data_functionalizedCrystal
_audit_creation_method	'MofGen! by Chris Wilmer'
_symmetry_space_group_name_H-M	'P1'
_symmetry_Int_Tables_number	1
_symmetry_cell_setting	triclinic
loop_
_symmetry_equiv_pos_as_xyz
  x,y,z
_cell_length_a	14.519731
_cell_length_b	14.519709
_cell_length_c	9.482900
_cell_angle_alpha	99.350820
_cell_angle_beta	80.692239
_cell_angle_gamma	83.684499
loop_
_atom_site_label
_atom_site_type_symbol
_atom_site_fract_x
_atom_site_fract_y
_atom_site_fract_z
O1	O	1.238206	0.106569	-0.120901
O2	O	0.969732	0.120785	-0.120904
O3	O	1.111086	-0.020559	-0.120889
O4	O	1.096852	0.247913	-0.120915
O5	O	1.082374	0.008266	0.120900
O6	O	0.941020	0.149610	0.120886
O7	O	1.209494	0.135395	0.120889
Cu8	Cu	1.072635	0.145135	0.142965
Cu9	Cu	1.106591	0.111045	-0.142980
O10	O	1.068140	0.276739	0.120874
C11	C	0.921017	0.134531	-0.000009
C12	C	0.818637	0.132535	-0.000010
C13	C	1.096066	-0.040506	0.000006
C14	C	1.094078	-0.142888	0.000007
C15	C	0.735493	0.130913	-0.000015
C16	C	0.631184	0.128886	-0.000016
C17	C	0.548045	0.127278	-0.000015
C18	C	0.443730	0.125251	-0.000018
C19	C	1.086763	-0.517789	-0.000031
C20	C	1.088794	-0.413479	-0.000020
C21	C	1.090420	-0.330341	-0.000011
C22	C	1.092452	-0.226026	-0.000003
C23	C	1.258210	0.121648	-0.000009
C24	C	1.360591	0.123643	-0.000018
C25	C	1.083160	0.296685	-0.000024
C26	C	1.085150	0.399066	-0.000034
N27	N	1.048760	0.169111	0.344082
N28	N	1.130473	0.087061	-0.344097
C29	C	1.099542	0.118112	0.416287
C30	C	1.079684	0.138068	0.583702
H31	H	1.157717	0.059672	0.354165
Br32	Br	0.982702	0.235465	0.687228
Br33	Br	1.227665	-0.010127	0.552382
H34	H	0.990579	0.227543	0.406206
