data_functionalizedCrystal
_audit_creation_method	'MofGen! by Chris Wilmer'
_symmetry_space_group_name_H-M	'P1'
_symmetry_Int_Tables_number	1
_symmetry_cell_setting	triclinic
loop_
_symmetry_equiv_pos_as_xyz
  x,y,z
_cell_length_a	10.489741
_cell_length_b	17.038272
_cell_length_c	8.965430
_cell_angle_alpha	90.000179
_cell_angle_beta	89.998843
_cell_angle_gamma	87.825365
loop_
_atom_site_label
_atom_site_type_symbol
_atom_site_fract_x
_atom_site_fract_y
_atom_site_fract_z
O1	O	1.704377	0.110369	-0.123948
O2	O	1.334150	0.120730	-0.123972
O3	O	1.517063	0.001722	-0.123948
O4	O	1.521464	0.229378	-0.123972
O5	O	1.517047	0.001729	0.124130
O6	O	1.334134	0.120738	0.124107
O7	O	1.704361	0.110377	0.124130
Cu8	Cu	1.519246	0.115558	0.146770
Cu9	Cu	1.519265	0.115549	-0.146612
O10	O	1.521448	0.229386	0.124107
C11	C	1.286537	0.119951	0.000065
C12	C	1.144689	0.117610	0.000056
C13	C	1.069466	0.041889	0.000078
C14	C	0.980693	0.077655	-0.122238
C15	C	0.980713	0.077681	0.122348
C16	C	1.057784	0.153408	-0.122361
C17	C	1.057813	0.153423	0.122335
C18	C	0.969072	0.189244	-0.000011
C19	C	1.513053	-0.027426	0.000091
C20	C	1.501111	-0.114288	0.000089
C21	C	1.610749	-0.163767	0.000098
C22	C	1.599521	-0.245383	0.000083
C23	C	1.478654	-0.277518	0.000070
C24	C	1.369007	-0.228032	0.000057
C25	C	1.380237	-0.146418	0.000062
C26	C	1.438983	-0.523505	0.000047
C27	C	1.427762	-0.605126	0.000048
C28	C	1.658277	-0.622471	0.000071
C29	C	1.669495	-0.540855	0.000084
C30	C	1.559849	-0.491376	0.000063
C31	C	1.467174	-0.360942	0.000060
C32	C	1.571330	-0.407954	0.000063
C33	C	1.751974	0.111156	0.000091
C34	C	1.893822	0.113497	0.000089
C35	C	1.525458	0.258533	0.000065
C36	C	1.537400	0.345395	0.000056
N37	N	1.519243	0.115564	0.353119
N38	N	1.519278	0.115537	-0.352961
C39	C	1.434622	0.170583	0.450415
C40	C	1.551599	0.186413	0.549834
C41	C	1.402315	0.099741	0.549828
C42	C	1.636282	0.131430	0.450350
C43	C	1.486918	0.044727	0.450335
C44	C	1.603976	0.060527	0.549709
H45	H	1.091613	0.185419	-0.225887
H46	H	1.113334	-0.020359	-0.000069
H47	H	1.363135	0.217154	0.406817
H48	H	1.459520	-0.015148	0.406596
O49	O	1.754221	0.147643	0.398422
C50	C	1.879934	0.234685	0.252147
C51	C	1.746312	0.216396	0.310859
H52	H	1.873580	0.290262	0.181316
H53	H	1.946887	0.243815	0.350272
H54	H	1.918249	0.183475	0.181302
H55	H	1.707882	0.267581	0.381681
H56	H	1.679444	0.207236	0.212668
O57	O	1.689633	0.005087	0.601340
C58	C	1.909631	-0.040887	0.608881
C59	C	1.812762	0.021955	0.550335
H60	H	2.009197	-0.027281	0.567642
H61	H	1.908537	-0.040843	0.736034
H62	H	1.882845	-0.101101	0.566224
H63	H	1.839479	0.082200	0.592882
H64	H	1.813872	0.021841	0.423183
H65	H	0.946731	0.045631	0.225757
H66	H	1.578963	0.246307	0.593538
O67	O	1.332346	-0.475561	0.000113
C68	C	1.102523	-0.466978	0.000030
C69	C	1.223189	-0.521368	-0.000017
H70	H	1.014239	-0.503991	-0.000107
H71	H	1.101922	-0.428351	0.103877
H72	H	1.102085	-0.428316	-0.103764
H73	H	1.223706	-0.560079	0.103706
H74	H	1.223743	-0.559942	-0.103933
O75	O	1.688764	-0.376778	-0.000191
C76	C	1.889259	-0.366658	-0.128640
C77	C	1.756295	-0.402011	-0.128562
H78	H	1.943906	-0.387058	-0.232400
H79	H	1.878515	-0.299824	-0.128737
H80	H	1.943827	-0.386964	-0.024764
H81	H	1.701654	-0.381766	-0.232420
H82	H	1.767130	-0.468841	-0.128387
H83	H	1.709172	-0.137610	0.000117
H84	H	0.946688	0.045612	-0.225643
O85	O	1.705928	-0.293530	0.000289
C86	C	1.827051	-0.395720	0.128847
C87	C	1.706476	-0.341250	0.128790
H88	H	1.827548	-0.434304	0.232745
H89	H	1.827574	-0.434412	0.025090
H90	H	1.915352	-0.358721	0.128791
H91	H	1.618111	-0.378188	0.128899
H92	H	1.706066	-0.302555	0.232539
H93	H	1.767918	-0.514697	0.000094
H94	H	1.091846	0.185439	0.225745
H95	H	1.368763	-0.387115	0.000053
H96	H	1.303416	0.086371	0.593528
H97	H	1.270594	-0.254202	0.000038
H98	H	0.925476	0.251558	-0.000084
H99	H	1.747544	-0.662765	0.000085
O100	O	1.273604	-0.098463	0.000120
C101	C	1.043781	-0.089867	-0.000004
C102	C	1.164440	-0.144264	-0.000023
H103	H	0.955492	-0.126875	-0.000152
H104	H	1.043172	-0.051237	0.103838
H105	H	1.043362	-0.051210	-0.103803
H106	H	1.164939	-0.182970	0.103705
H107	H	1.165002	-0.182842	-0.103934
H108	H	1.329333	-0.631286	0.000062
