data_functionalizedCrystal
_audit_creation_method	'MofGen! by Chris Wilmer'
_symmetry_space_group_name_H-M	'P1'
_symmetry_Int_Tables_number	1
_symmetry_cell_setting	triclinic
loop_
_symmetry_equiv_pos_as_xyz
  x,y,z
_cell_length_a	10.540539
_cell_length_b	10.540539
_cell_length_c	9.016244
_cell_angle_alpha	90.005301
_cell_angle_beta	89.999933
_cell_angle_gamma	95.474508
loop_
_atom_site_label
_atom_site_type_symbol
_atom_site_fract_x
_atom_site_fract_y
_atom_site_fract_z
O1	O	0.178895	-1.685893	-0.123263
O2	O	0.195751	-1.316480	-0.123280
O3	O	0.002617	-1.509614	-0.123269
O4	O	0.372030	-1.492759	-0.123274
O5	O	0.002621	-1.509586	0.123411
O6	O	0.195755	-1.316452	0.123400
O7	O	0.178900	-1.685865	0.123418
Cu8	Cu	0.187328	-1.501156	0.145933
Cu9	Cu	0.187323	-1.501189	-0.145795
O10	O	0.372034	-1.492730	0.123407
C11	C	0.194489	-1.269163	0.000058
C12	C	0.190707	-1.128215	0.000051
C13	C	-0.044684	-1.508336	0.000068
C14	C	-0.185632	-1.504554	0.000060
C15	C	0.180161	-1.733182	0.000077
C16	C	0.183943	-1.874130	0.000074
C17	C	-0.369059	-1.359637	-0.000500
C18	C	-0.222441	-1.363471	0.000055
C19	C	-0.247287	-1.572434	0.140930
C20	C	-0.393832	-1.567619	0.141049
C21	C	-0.394355	-1.570520	-0.139473
C22	C	-0.247373	-1.571820	-0.141336
C23	C	0.419335	-1.494008	0.000066
C24	C	0.560283	-1.497790	0.000064
N25	N	0.187331	-1.501141	0.351119
C26	C	0.045790	-0.944788	0.000628
C27	C	0.049624	-1.091406	0.000057
C28	C	0.258600	-1.066558	-0.140811
C29	C	0.253785	-0.920014	-0.140914
C30	C	0.256660	-0.919493	0.139608
C31	C	0.257960	-1.066475	0.141455
N32	N	0.187310	-1.501213	-0.350982
C33	C	0.290298	-1.397510	0.586146
C34	C	0.290684	-1.397739	0.414255
C35	C	0.217464	-1.633864	0.413464
C36	C	0.218193	-1.633298	0.585409
C37	C	0.053892	-1.473367	0.585663
C38	C	0.054757	-1.470322	0.413709
H39	H	-0.179839	-1.310059	-0.100926
N40	N	0.344939	-1.666849	0.356404
H41	H	0.413809	-1.599556	0.389363
H42	H	0.363362	-1.752436	0.397152
N43	N	0.187297	-0.882646	-0.280370
H44	H	0.247005	-0.821983	-0.340288
H45	H	0.161389	-0.961400	-0.341089
H46	H	0.211004	-0.887935	0.246381
N47	N	-0.027734	-0.904801	-0.132436
H48	H	-0.116364	-0.950629	-0.131237
H49	H	-0.033492	-0.809753	-0.128888
N50	N	0.420670	-1.420942	0.643335
H51	H	0.457612	-1.344277	0.701558
H52	H	0.413183	-1.498466	0.709721
H53	H	-0.397661	-1.303918	-0.101521
H54	H	-0.204686	-1.525258	0.245756
H55	H	0.208362	-1.107425	0.245664
H56	H	0.315531	-1.657653	0.625498
N57	N	0.120833	-1.738590	0.359275
H58	H	0.142066	-1.823041	0.400708
H59	H	0.032986	-1.720924	0.393473
N60	N	0.266711	-1.267102	0.358415
H61	H	0.266928	-1.266999	0.246395
H62	H	0.181253	-1.244721	0.395605
N63	N	0.421886	-1.421109	0.359733
H64	H	0.479685	-1.431347	0.447397
H65	H	0.416108	-1.501178	0.297592
N66	N	0.015929	-1.347851	0.643156
H67	H	0.004177	-1.288850	0.557016
H68	H	-0.066628	-1.362946	0.700128
N69	N	0.388179	-0.856467	-0.149420
H70	H	0.386101	-0.760867	-0.149558
H71	H	0.438364	-0.882483	-0.060881
N72	N	0.394214	-1.098546	0.152724
H73	H	0.406119	-1.145958	0.248298
H74	H	0.414279	-1.153754	0.065869
N75	N	0.266666	-1.266465	0.640967
H76	H	0.188974	-1.273044	0.707095
H77	H	0.343216	-1.228882	0.698924
H78	H	-0.399265	-1.304121	0.099949
H79	H	-0.425910	-1.524871	-0.246244
H80	H	-0.180683	-1.309661	0.101200
H81	H	0.358564	-0.872266	0.140559
N82	N	-0.217667	-1.709669	0.147855
H83	H	-0.169494	-1.724287	0.242199
H84	H	-0.299836	-1.767398	0.146400
H85	H	0.146204	-1.712941	0.626995
N86	N	-0.021641	-1.146718	-0.133929
H87	H	0.019836	-1.109269	-0.227121
H88	H	-0.019437	-1.242297	-0.134727
H89	H	-0.422030	-1.517429	0.246347
H90	H	0.031916	-1.372684	0.372962
N91	N	-0.051645	-1.563748	0.356814
H92	H	-0.015255	-1.627662	0.289360
H93	H	-0.096164	-1.609710	0.443325
H94	H	-0.022762	-1.548979	0.626319
H95	H	-0.441800	-1.669083	0.147444
N96	N	0.395835	-1.096176	-0.147784
H97	H	0.415364	-1.149975	-0.059486
H98	H	0.410335	-1.144297	-0.242200
H99	H	0.211434	-1.109159	-0.245643
H100	H	-0.206517	-1.522153	-0.245547
H101	H	-0.223152	-1.674681	-0.149837
H102	H	-0.441581	-1.672424	-0.140416
H103	H	-0.003797	-1.134008	0.101034
N104	N	-0.028039	-0.906919	0.134446
H105	H	0.027345	-0.843589	0.196010
H106	H	-0.106445	-0.866888	0.100729
