data_functionalizedCrystal
_audit_creation_method	'MofGen! by Chris Wilmer'
_symmetry_space_group_name_H-M	'P1'
_symmetry_Int_Tables_number	1
_symmetry_cell_setting	triclinic
loop_
_symmetry_equiv_pos_as_xyz
  x,y,z
_cell_length_a	11.295483
_cell_length_b	12.837943
_cell_length_c	12.837942
_cell_angle_alpha	94.828940
_cell_angle_beta	85.469583
_cell_angle_gamma	94.538773
loop_
_atom_site_label
_atom_site_type_symbol
_atom_site_fract_x
_atom_site_fract_y
_atom_site_fract_z
O1	O	-0.099003	-1.408689	-0.265788
O2	O	-0.099010	-1.105556	-0.252345
O3	O	-0.098999	-1.250401	-0.107500
O4	O	-0.099013	-1.263845	-0.410633
O5	O	0.099051	-1.237676	-0.120201
O6	O	0.099040	-1.092832	-0.265045
O7	O	0.099047	-1.395965	-0.278489
Cu8	Cu	0.117127	-1.243237	-0.272927
Cu9	Cu	-0.117090	-1.258285	-0.257907
O10	O	0.099037	-1.251121	-0.423333
C11	C	0.000014	-1.060125	-0.254153
C12	C	0.000012	-0.943710	-0.240609
C13	C	0.000025	-1.239497	-0.074781
C14	C	0.000023	-1.225953	0.041634
N15	N	0.281863	-1.232661	-0.283491
N16	N	-0.281825	-1.268868	-0.247335
C17	C	0.531161	-1.344996	-0.171231
C18	C	0.655824	-1.337012	-0.179223
C19	C	0.655854	-1.208702	-0.307459
C20	C	0.531191	-1.216687	-0.299467
C21	C	0.468849	-1.284837	-0.231353
C22	C	0.344183	-1.292826	-0.223367
C23	C	0.344216	-1.164512	-0.351597
C24	C	0.468879	-1.156528	-0.359589
C25	C	0.000021	-1.441396	-0.276680
C26	C	0.000015	-1.557812	-0.290224
C27	C	0.000021	-0.718835	-0.403439
C28	C	0.000020	-0.609453	-0.390717
C29	C	0.000016	-0.615561	-0.202446
C30	C	0.000017	-0.724943	-0.215167
C31	C	0.000018	-0.776576	-0.315667
C32	C	0.000011	-0.885961	-0.328387
C33	C	0.000016	-0.892066	-0.140117
C34	C	0.000015	-0.782684	-0.127396
C35	C	0.000010	-1.262024	-0.456052
C36	C	0.000004	-1.275569	-0.572467
C37	C	0.000002	-1.388784	0.266509
C38	C	-0.000000	-1.376062	0.375892
C39	C	0.000008	-1.187791	0.369784
C40	C	0.000010	-1.200512	0.260402
C41	C	0.000009	-1.301011	0.208768
C42	C	0.000020	-1.313731	0.099383
C43	C	0.000019	-1.125461	0.093278
C44	C	0.000017	-1.112740	0.202660
H45	H	0.480401	-1.400494	-0.115777
C46	C	0.000017	-1.028908	0.029761
H47	H	0.000010	-1.050876	-0.042779
H48	H	0.069078	-0.983707	0.042008
H49	H	-0.069059	-0.992587	0.050859
H50	H	0.000006	-0.939091	-0.068646
C51	C	0.000014	-1.424274	0.042587
H52	H	-0.000002	-1.474726	0.092647
H53	H	0.069078	-1.428722	-0.004382
H54	H	-0.069059	-1.437581	0.004472
C55	C	0.000007	-0.725882	-0.016855
H56	H	-0.000001	-0.652468	-0.021847
H57	H	0.069066	-0.740627	0.015320
H58	H	-0.069071	-0.749500	0.024156
H59	H	0.706630	-1.153209	-0.362909
C60	C	0.275608	-1.367783	-0.148441
H61	H	0.330578	-1.402459	-0.113772
H62	H	0.226964	-1.418198	-0.187302
H63	H	0.226990	-1.328924	-0.098005
H64	H	0.293468	-1.115530	-0.400555
H65	H	0.519653	-1.101038	-0.415044
C66	C	0.724369	-1.403185	-0.113092
H67	H	0.807543	-1.388665	-0.127599
H68	H	0.703922	-1.475484	-0.130084
H69	H	0.703941	-1.386212	-0.040784
C70	C	0.000015	-0.942757	-0.438930
H71	H	0.000029	-0.892698	-0.489381
H72	H	-0.069047	-0.989738	-0.443386
H73	H	0.069090	-0.980861	-0.452229
C74	C	0.000012	-0.775636	-0.513979
H75	H	0.000015	-0.725580	-0.564433
H76	H	-0.069052	-0.822617	-0.518423
H77	H	0.069085	-0.813741	-0.527285
H78	H	0.000013	-1.470613	0.224468
C79	C	-0.000001	-1.472611	0.439404
H80	H	0.000007	-1.534282	0.392982
H81	H	-0.069065	-1.475998	0.486629
H82	H	0.069073	-1.467126	0.477771
C83	C	0.000018	-0.545937	-0.487262
H84	H	0.000026	-0.473396	-0.465296
H85	H	-0.069043	-0.567045	-0.523602
H86	H	0.069094	-0.558171	-0.532448
H87	H	0.000013	-1.030916	0.244716
C88	C	0.000008	-1.077254	0.426593
H89	H	0.000011	-1.082253	0.500007
H90	H	-0.069051	-1.045089	0.411838
H91	H	0.069086	-1.036228	0.402993
C92	C	0.000028	-0.558751	-0.091910
H93	H	0.000025	-0.485337	-0.096909
H94	H	0.069092	-0.573498	-0.059744
H95	H	-0.069046	-0.582358	-0.050886
