data_functionalizedCrystal
_audit_creation_method	'MofGen! by Chris Wilmer'
_symmetry_space_group_name_H-M	'P1'
_symmetry_Int_Tables_number	1
_symmetry_cell_setting	triclinic
loop_
_symmetry_equiv_pos_as_xyz
  x,y,z
_cell_length_a	10.654562
_cell_length_b	14.519731
_cell_length_c	9.130313
_cell_angle_alpha	89.997760
_cell_angle_beta	89.996930
_cell_angle_gamma	84.089478
loop_
_atom_site_label
_atom_site_type_symbol
_atom_site_fract_x
_atom_site_fract_y
_atom_site_fract_z
O1	O	1.666592	0.129583	-0.121899
O2	O	1.300999	0.141911	-0.121881
O3	O	1.493475	0.001560	-0.121878
O4	O	1.474116	0.269934	-0.121903
O5	O	1.493472	0.001564	0.121721
O6	O	1.300996	0.141915	0.121717
O7	O	1.666590	0.129586	0.121700
Cu8	Cu	1.483793	0.135751	0.143951
Cu9	Cu	1.483796	0.135747	-0.144133
O10	O	1.474114	0.269937	0.121696
C11	C	1.254208	0.141006	-0.000080
C12	C	1.114792	0.138290	-0.000072
C13	C	1.049272	0.137025	0.132702
C14	C	0.918274	0.134481	0.132678
C15	C	0.918326	0.134470	-0.132907
C16	C	1.049323	0.137008	-0.132881
C17	C	1.049240	0.137036	0.286036
C18	C	0.918241	0.134491	0.286011
C19	C	1.492566	-0.032802	-0.000078
C20	C	1.489848	-0.135196	-0.000077
C21	C	1.487640	-0.218352	-0.000080
C22	C	1.484880	-0.322675	-0.000091
C23	C	1.482690	-0.405826	-0.000100
C24	C	1.479930	-0.510155	-0.000109
C25	C	1.713380	0.130492	-0.000106
C26	C	1.852797	0.133208	-0.000122
C27	C	1.475022	0.304300	-0.000107
C28	C	1.477740	0.406694	-0.000118
N29	N	1.483800	0.135754	0.346574
N30	N	1.483798	0.135737	-0.346756
C31	C	1.569050	0.073628	0.423227
C32	C	1.569047	0.073617	0.576564
C33	C	1.398539	0.197866	0.576580
C34	C	1.398537	0.197872	0.423246
C35	C	1.667495	0.001896	0.423219
C36	C	1.667492	0.001885	0.576556
H37	H	0.865006	0.133426	-0.241035
C38	C	1.088343	0.227893	0.350308
C39	C	0.986885	0.303133	0.405354
C40	C	1.025990	0.393992	0.469621
C41	C	1.166553	0.409610	0.478843
C42	C	1.268020	0.334368	0.423796
C43	C	1.228915	0.243509	0.359528
H44	H	0.882824	0.291574	0.398529
H45	H	0.950876	0.449691	0.510371
H46	H	1.195500	0.476869	0.526418
H47	H	1.372081	0.345927	0.430621
H48	H	1.304028	0.187810	0.318779
H49	H	0.889292	0.067234	0.333597
H50	H	1.646727	-0.068989	0.381607
H51	H	0.871349	0.198228	0.344870
H52	H	1.763853	0.017689	0.618166
H53	H	1.329120	0.248440	0.639023
C54	C	1.112565	0.050938	0.365579
C55	C	1.080690	0.033401	0.527050
C56	C	1.144015	-0.052694	0.606589
C57	C	1.239215	-0.121253	0.524658
C58	C	1.271095	-0.103718	0.363178
C59	C	1.207770	-0.017623	0.283639
H60	H	1.010213	0.084155	0.587708
H61	H	1.120415	-0.065674	0.726127
H62	H	1.286092	-0.184986	0.583537
H63	H	1.341572	-0.154471	0.302519
H64	H	1.231370	-0.004643	0.164101
C65	C	1.627137	-0.088606	0.640817
C66	C	1.592559	-0.166135	0.537903
C67	C	1.552201	-0.256621	0.602167
C68	C	1.546420	-0.269578	0.769344
C69	C	1.580998	-0.192046	0.872268
C70	C	1.621357	-0.101560	0.808005
H71	H	1.596838	-0.156546	0.414139
H72	H	1.526603	-0.314015	0.525975
H73	H	1.516544	-0.336561	0.816916
H74	H	1.576720	-0.201635	0.996032
H75	H	1.646954	-0.044166	0.884197
H76	H	1.102667	0.138023	-0.240999
H77	H	1.329109	0.248451	0.360836
H78	H	1.758465	0.024360	0.375654
