data_functionalizedCrystal
_audit_creation_method	'MofGen! by Chris Wilmer'
_symmetry_space_group_name_H-M	'P1'
_symmetry_Int_Tables_number	1
_symmetry_cell_setting	triclinic
loop_
_symmetry_equiv_pos_as_xyz
  x,y,z
_cell_length_a	16.120530
_cell_length_b	12.645330
_cell_length_c	16.120297
_cell_angle_alpha	87.123238
_cell_angle_beta	89.871860
_cell_angle_gamma	87.113442
loop_
_atom_site_label
_atom_site_type_symbol
_atom_site_fract_x
_atom_site_fract_y
_atom_site_fract_z
Zn1	Zn	1.247482	-0.537081	0.534595
Zn2	Zn	1.497482	-0.287081	0.784595
Zn3	Zn	1.747482	-0.037081	1.034595
Zn4	Zn	1.997482	0.212919	1.284595
Zn5	Zn	1.254445	-0.705843	0.395547
Zn6	Zn	1.504445	-0.455843	0.645547
Zn7	Zn	1.754445	-0.205843	0.895547
Zn8	Zn	2.004445	0.044157	1.145547
Zn9	Zn	1.115471	-0.519167	0.388512
Zn10	Zn	1.365471	-0.269167	0.638512
Zn11	Zn	1.615471	-0.019167	0.888512
Zn12	Zn	1.865471	0.230833	1.138512
Zn13	Zn	1.108402	-0.704866	0.527517
Zn14	Zn	1.358402	-0.454866	0.777517
Zn15	Zn	1.608402	-0.204866	1.027517
Zn16	Zn	1.858402	0.045134	1.277517
O17	O	1.181450	-0.616739	0.461543
O18	O	1.431450	-0.366739	0.711543
O19	O	1.681450	-0.116739	0.961543
O20	O	1.931450	0.133261	1.211543
O21	O	1.364772	-0.567373	0.522057
O22	O	1.614772	-0.317373	0.772057
O23	O	1.864772	-0.067373	1.022057
O24	O	2.114772	0.182627	1.272057
O25	O	1.241883	-0.673991	0.278248
O26	O	1.491883	-0.423991	0.528248
O27	O	1.741883	-0.173991	0.778248
O28	O	1.991883	0.076009	1.028248
O29	O	1.133026	-0.373200	0.407909
O30	O	1.383026	-0.123200	0.657909
O31	O	1.633026	0.126800	0.907909
O32	O	1.883026	0.376800	1.157909
O33	O	1.369888	-0.691362	0.419899
O34	O	1.619888	-0.441362	0.669899
O35	O	1.869888	-0.191362	0.919899
O36	O	2.119888	0.058638	1.169899
O37	O	1.230014	-0.386361	0.515235
O38	O	1.480014	-0.136361	0.765235
O39	O	1.730014	0.113639	1.015235
O40	O	1.980014	0.363639	1.265235
O41	O	1.139779	-0.536842	0.273080
O42	O	1.389779	-0.286842	0.523080
O43	O	1.639779	-0.036842	0.773080
O44	O	1.889779	0.213158	1.023080
O45	O	0.998166	-0.535895	0.401045
O46	O	1.248166	-0.285895	0.651045
O47	O	1.498166	-0.035895	0.901045
O48	O	1.748166	0.214105	1.151045
O49	O	1.120978	-0.689698	0.644821
O50	O	1.370978	-0.439698	0.894821
O51	O	1.620978	-0.189698	1.144821
O52	O	1.870978	0.060302	1.394821
O53	O	0.992972	-0.672327	0.503171
O54	O	1.242972	-0.422327	0.753171
O55	O	1.492972	-0.172327	1.003171
O56	O	1.742972	0.077673	1.253171
O57	O	1.223160	-0.566427	0.650022
O58	O	1.473160	-0.316427	0.900022
O59	O	1.723160	-0.066427	1.150022
O60	O	1.973160	0.183573	1.400022
O61	O	1.235028	-0.854056	0.413035
O62	O	1.485028	-0.604056	0.663035
O63	O	1.735028	-0.354056	0.913035
O64	O	1.985028	-0.104056	1.163035
O65	O	1.127731	-0.853339	0.509992
O66	O	1.377731	-0.603339	0.759992
O67	O	1.627731	-0.353339	1.009992
O68	O	1.877731	-0.103339	1.259992
C69	C	0.965397	-0.602062	0.450577
C70	C	1.215397	-0.352062	0.700577
C71	C	1.465397	-0.102062	0.950577
C72	C	1.715397	0.147938	1.200577
C73	C	0.872967	-0.595810	0.445905
C74	C	1.122967	-0.345810	0.695905
C75	C	1.372967	-0.095810	0.945905
C76	C	1.622967	0.154190	1.195905
C77	C	1.181390	-0.892164	0.461528
C78	C	1.431390	-0.642164	0.711528
C79	C	1.681390	-0.392164	0.961528
C80	C	1.931390	-0.142164	1.211528
C81	C	1.181439	-1.009999	0.461554
C82	C	1.431439	-0.759999	0.711554
C83	C	1.681439	-0.509999	0.961554
C84	C	1.931439	-0.259999	1.211554
C85	C	0.703737	-0.584371	0.437383
C86	C	0.953737	-0.334371	0.687383
C87	C	1.203737	-0.084371	0.937383
C88	C	1.453737	0.165629	1.187383
C89	C	0.660000	-0.649190	0.485763
C90	C	0.910000	-0.399190	0.735763
C91	C	1.160000	-0.149190	0.985763
C92	C	1.410000	0.100810	1.235763
C93	C	0.565835	-0.642825	0.481022
C94	C	0.815835	-0.392825	0.731022
C95	C	1.065835	-0.142825	0.981022
C96	C	1.315835	0.107175	1.231022
C97	C	0.797911	-0.590734	0.442124
C98	C	1.047911	-0.340734	0.692124
C99	C	1.297911	-0.090734	0.942124
C100	C	1.547911	0.159266	1.192124
C101	C	1.114193	-1.177186	0.522761
C102	C	1.364193	-0.927186	0.772761
C103	C	1.614193	-0.677186	1.022761
C104	C	1.864193	-0.427186	1.272761
C105	C	1.113876	-1.054592	0.522537
C106	C	1.363876	-0.804592	0.772537
C107	C	1.613876	-0.554592	1.022537
C108	C	1.863876	-0.304592	1.272537
C109	C	1.162161	-1.047614	0.372717
C110	C	1.412161	-0.797614	0.622717
C111	C	1.662161	-0.547614	0.872717
C112	C	1.912161	-0.297614	1.122717
C113	C	1.161751	-1.170210	0.373088
C114	C	1.411751	-0.920210	0.623088
C115	C	1.661751	-0.670210	0.873088
C116	C	1.911751	-0.420210	1.123088
C117	C	1.268390	-1.184441	0.488492
C118	C	1.518390	-0.934441	0.738492
C119	C	1.768390	-0.684441	0.988492
C120	C	2.018390	-0.434441	1.238492
C121	C	1.267753	-1.061915	0.490381
C122	C	1.517753	-0.811915	0.740381
C123	C	1.767753	-0.561915	0.990381
C124	C	2.017753	-0.311915	1.240381
C125	C	1.398347	-0.631475	0.472552
C126	C	1.648347	-0.381475	0.722552
C127	C	1.898347	-0.131475	0.972552
C128	C	2.148347	0.118525	1.222552
C129	C	1.490775	-0.637754	0.477244
C130	C	1.740775	-0.387754	0.727244
C131	C	1.990775	-0.137754	0.977244
C132	C	2.240775	0.112246	1.227244
C133	C	1.170504	-0.629952	0.678438
C134	C	1.420504	-0.379952	0.928438
C135	C	1.670504	-0.129952	1.178438
C136	C	1.920504	0.120048	1.428438
C137	C	1.165839	-0.635582	0.770865
C138	C	1.415839	-0.385582	1.020865
C139	C	1.665839	-0.135582	1.270865
C140	C	1.915839	0.114418	1.520865
C141	C	1.181532	-0.340242	0.461577
C142	C	1.431532	-0.090242	0.711577
C143	C	1.681532	0.159758	0.961577
C144	C	1.931532	0.409758	1.211577
C145	C	1.181567	-0.222415	0.461592
C146	C	1.431567	0.027585	0.711592
C147	C	1.681567	0.277585	0.961592
C148	C	1.931567	0.527585	1.211592
C149	C	1.192401	-0.603505	0.245494
C150	C	1.442401	-0.353505	0.495494
C151	C	1.692401	-0.103505	0.745494
C152	C	1.942401	0.146495	0.995494
C153	C	1.197227	-0.597587	0.153075
C154	C	1.447227	-0.347587	0.403075
C155	C	1.697227	-0.097587	0.653075
C156	C	1.947227	0.152413	0.903075
C157	C	1.157292	-0.645836	0.940091
C158	C	1.407292	-0.395836	1.190091
C159	C	1.657292	-0.145836	1.440091
C160	C	1.907292	0.104164	1.690091
C161	C	1.205771	-0.587337	0.983855
C162	C	1.455771	-0.337337	1.233855
C163	C	1.705771	-0.087337	1.483855
C164	C	1.955771	0.162663	1.733855
C165	C	1.201016	-0.593042	1.078018
C166	C	1.451016	-0.343042	1.328018
C167	C	1.701016	-0.093042	1.578018
C168	C	1.951016	0.156958	1.828018
C169	C	1.162047	-0.640132	0.845919
C170	C	1.412047	-0.390132	1.095919
C171	C	1.662047	-0.140132	1.345919
C172	C	1.912047	0.109868	1.595919
H173	H	0.693277	-0.709462	0.530745
H174	H	0.943277	-0.459462	0.780745
H175	H	1.193277	-0.209462	1.030745
H176	H	1.443277	0.040538	1.280745
Br177	Br	1.133185	-1.234530	0.632668
Br178	Br	1.383185	-0.984530	0.882668
Br179	Br	1.633185	-0.734530	1.132668
Br180	Br	1.883185	-0.484530	1.382668
Br181	Br	1.006442	-0.996964	0.492254
Br182	Br	1.256442	-0.746964	0.742254
Br183	Br	1.506442	-0.496964	0.992254
Br184	Br	1.756442	-0.246964	1.242254
Br185	Br	0.648276	-0.483916	0.362416
Br186	Br	0.898276	-0.233916	0.612416
Br187	Br	1.148276	0.016084	0.862416
Br188	Br	1.398276	0.266084	1.112416
H189	H	1.286844	-1.220602	0.552405
H190	H	1.536844	-0.970602	0.802405
H191	H	1.786844	-0.720602	1.052405
H192	H	2.036844	-0.470602	1.302405
Br193	Br	1.280921	-0.496745	0.928441
Br194	Br	1.530921	-0.246745	1.178441
Br195	Br	1.780921	0.003255	1.428441
Br196	Br	2.030921	0.253255	1.678441
H197	H	1.125422	-1.029426	0.588270
H198	H	1.375422	-0.779426	0.838270
H199	H	1.625422	-0.529426	1.088270
H200	H	1.875422	-0.279426	1.338270
Br201	Br	1.007425	-1.219892	0.492845
Br202	Br	1.257425	-0.969892	0.742845
Br203	Br	1.507425	-0.719892	0.992845
Br204	Br	1.757425	-0.469892	1.242845
Br205	Br	1.355237	-1.012063	0.422129
Br206	Br	1.605237	-0.762063	0.672129
Br207	Br	1.855237	-0.512063	0.922129
Br208	Br	2.105237	-0.262063	1.172129
H209	H	1.112221	-0.700199	0.973339
H210	H	1.362221	-0.450199	1.223339
H211	H	1.612221	-0.200199	1.473339
H212	H	1.862221	0.049801	1.723339
H213	H	1.098415	-1.193374	0.350817
H214	H	1.348415	-0.943374	0.600817
H215	H	1.598415	-0.693374	0.850817
H216	H	1.848415	-0.443374	1.100817
Br217	Br	1.240383	-1.219627	0.294131
Br218	Br	1.490383	-0.969627	0.544131
Br219	Br	1.740383	-0.719627	0.794131
Br220	Br	1.990383	-0.469627	1.044131
H221	H	1.282372	-1.037930	0.555782
H222	H	1.532372	-0.787930	0.805782
H223	H	1.782372	-0.537930	1.055782
H224	H	2.032372	-0.287930	1.305782
Br225	Br	1.241684	-0.999097	0.294348
Br226	Br	1.491684	-0.749097	0.544348
Br227	Br	1.741684	-0.499097	0.794348
Br228	Br	1.991684	-0.249097	1.044348
Br229	Br	1.057741	-0.987430	0.335078
Br230	Br	1.307741	-0.737430	0.585078
Br231	Br	1.557741	-0.487430	0.835078
Br232	Br	1.807741	-0.237430	1.085078
H233	H	1.318531	-1.213794	0.443994
H234	H	1.568531	-0.963794	0.693994
H235	H	1.818531	-0.713794	0.943994
H236	H	2.068531	-0.463794	1.193994
