data_functionalizedCrystal
_audit_creation_method	'MofGen! by Chris Wilmer'
_symmetry_space_group_name_H-M	'P1'
_symmetry_Int_Tables_number	1
_symmetry_cell_setting	triclinic
loop_
_symmetry_equiv_pos_as_xyz
  x,y,z
_cell_length_a	23.532355
_cell_length_b	23.532407
_cell_length_c	16.776229
_cell_angle_alpha	89.988688
_cell_angle_beta	89.998671
_cell_angle_gamma	82.838088
loop_
_atom_site_label
_atom_site_type_symbol
_atom_site_fract_x
_atom_site_fract_y
_atom_site_fract_z
O1	O	0.755281	0.068995	-0.066188
O2	O	1.255281	0.568995	0.433812
O3	O	0.589413	0.079030	-0.066214
O4	O	1.089413	0.579030	0.433786
O5	O	0.677349	-0.008920	-0.066186
O6	O	1.177349	0.491080	0.433814
O7	O	0.667345	0.156945	-0.066216
O8	O	1.167345	0.656945	0.433784
O9	O	0.677337	-0.008925	0.066391
O10	O	1.177337	0.491075	0.566391
O11	O	0.589402	0.079024	0.066362
O12	O	1.089402	0.579024	0.566362
O13	O	0.755269	0.068990	0.066389
O14	O	1.255269	0.568990	0.566389
Zn15	Zn	0.672333	0.074006	0.087425
Zn16	Zn	1.172333	0.574006	0.587425
Zn17	Zn	0.672349	0.074013	-0.087250
Zn18	Zn	1.172349	0.574013	0.412750
O19	O	0.667334	0.156940	0.066360
O20	O	1.167334	0.656940	0.566360
C21	C	0.568191	0.078776	0.000071
C22	C	1.068191	0.578776	0.500071
C23	C	0.504972	0.078022	0.000061
C24	C	1.004972	0.578022	0.500061
C25	C	0.112952	0.073281	0.072363
C26	C	0.612952	0.573281	0.572363
C27	C	0.053553	0.072564	0.072366
C28	C	0.553553	0.572564	0.572366
O29	O	0.022829	0.072171	0.133826
O30	O	0.522829	0.572171	0.633826
N31	N	0.023850	0.072211	0.000099
N32	N	0.523850	0.572211	0.500099
C33	C	0.053552	0.072570	-0.072176
C34	C	0.553552	0.572570	0.427824
O35	O	0.022833	0.072203	-0.133644
O36	O	0.522833	0.572203	0.366356
C37	C	0.112950	0.073283	-0.072178
C38	C	0.612950	0.573283	0.427822
C39	C	0.142649	0.073641	0.000093
C40	C	0.642649	0.573641	0.500093
C41	C	0.142650	0.073639	0.144629
C42	C	0.642650	0.573639	0.644629
C43	C	0.202046	0.074357	0.144625
C44	C	0.702046	0.574357	0.644625
C45	C	0.231742	0.074718	0.072356
C46	C	0.731742	0.574718	0.572356
C47	C	0.202044	0.074360	0.000090
C48	C	0.702044	0.574360	0.500090
C49	C	0.142651	0.073638	-0.144453
C50	C	0.642651	0.573638	0.355547
C51	C	0.202054	0.074351	-0.144449
C52	C	0.702054	0.574351	0.355551
C53	C	0.231752	0.074709	-0.072177
C54	C	0.731752	0.574709	0.427823
C55	C	0.291136	0.075439	-0.072183
C56	C	0.791136	0.575439	0.427817
N57	N	0.320838	0.075792	0.000084
N58	N	0.820838	0.575792	0.500084
C59	C	0.291141	0.075431	0.072354
C60	C	0.791141	0.575431	0.572354
C61	C	-0.071190	0.071070	-0.072165
C62	C	0.428810	0.571070	0.427835
C63	C	-0.130588	0.070361	-0.072164
C64	C	0.369412	0.570361	0.427836
C65	C	-0.130583	0.070354	0.072379
C66	C	0.369417	0.570354	0.572379
C67	C	-0.071184	0.071068	0.072376
C68	C	0.428816	0.571068	0.572376
C69	C	-0.041488	0.071423	0.000102
C70	C	0.458512	0.571423	0.500102
C71	C	0.415875	0.076941	0.072341
C72	C	0.915875	0.576941	0.572341
C73	C	0.475275	0.077662	0.072331
C74	C	0.975275	0.577662	0.572331
C75	C	0.475265	0.077665	-0.072211
C76	C	0.975265	0.577665	0.427789
C77	C	0.415870	0.076948	-0.072202
C78	C	0.915870	0.576948	0.427798
C79	C	0.386177	0.076583	0.000081
C80	C	0.886177	0.576583	0.500081
O81	O	0.321898	0.075830	-0.133612
O82	O	0.821898	0.575830	0.366388
O83	O	0.321868	0.075790	0.133812
O84	O	0.821868	0.575790	0.633812
C85	C	0.677088	-0.030139	0.000105
C86	C	1.177088	0.469861	0.500105
C87	C	0.676322	-0.093356	0.000111
C88	C	1.176322	0.406644	0.500111
C89	C	0.723557	-0.492468	0.000074
C90	C	1.223557	0.007532	0.500074
C91	C	0.722845	-0.551868	0.000068
C92	C	1.222845	-0.051868	0.500068
O93	O	0.766632	-0.588620	0.000046
O94	O	1.266632	-0.088620	0.500046
N95	N	0.670568	-0.574484	0.000061
N96	N	1.170568	-0.074484	0.500061
C97	C	0.618998	-0.537697	0.000051
C98	C	1.118998	-0.037697	0.500051
O99	O	0.574467	-0.562388	0.000043
O100	O	1.074467	-0.062388	0.500043
C101	C	0.619710	-0.478298	0.000051
C102	C	1.119710	0.021702	0.500051
C103	C	0.671991	-0.455685	0.000067
C104	C	1.171991	0.044315	0.500067
C105	C	0.775834	-0.469854	0.000089
C106	C	1.275834	0.030146	0.500089
C107	C	0.776545	-0.410458	0.000097
C108	C	1.276545	0.089542	0.500097
C109	C	0.724979	-0.373676	0.000090
C110	C	1.224979	0.126324	0.500090
C111	C	0.672703	-0.396289	0.000075
C112	C	1.172703	0.103711	0.500075
C113	C	0.568141	-0.441512	0.000036
C114	C	1.068141	0.058488	0.500036
C115	C	0.568858	-0.382110	0.000036
C116	C	1.068858	0.117890	0.500036
C117	C	0.621139	-0.359497	0.000052
C118	C	1.121139	0.140503	0.500052
C119	C	0.621848	-0.300110	0.000075
C120	C	1.121848	0.199890	0.500075
N121	N	0.674126	-0.277494	0.000083
N122	N	1.174126	0.222506	0.500083
C123	C	0.725691	-0.314277	0.000090
C124	C	1.225691	0.185723	0.500090
C125	C	0.617507	-0.662439	0.000048
C126	C	1.117507	-0.162439	0.500048
C127	C	0.616794	-0.721837	0.000054
C128	C	1.116794	-0.221837	0.500054
C129	C	0.720642	-0.736004	0.000070
C130	C	1.220642	-0.236004	0.500070
C131	C	0.721354	-0.676605	0.000070
C132	C	1.221354	-0.176605	0.500070
C133	C	0.669784	-0.639823	0.000056
C134	C	1.169784	-0.139823	0.500056
C135	C	0.727181	-0.189540	0.000107
C136	C	1.227181	0.310460	0.500107
C137	C	0.727888	-0.130138	0.000118
C138	C	1.227888	0.369862	0.500118
C139	C	0.624041	-0.115977	0.000098
C140	C	1.124041	0.384023	0.500098
C141	C	0.623334	-0.175373	0.000091
C142	C	1.123334	0.324627	0.500091
C143	C	0.674909	-0.212154	0.000093
C144	C	1.174909	0.287846	0.500093
O145	O	0.578084	-0.263323	0.000094
O146	O	1.078084	0.236677	0.500094
O147	O	0.770216	-0.289577	0.000088
O148	O	1.270216	0.210423	0.500088
C149	C	0.776491	0.069244	0.000102
C150	C	1.276491	0.569244	0.500102
C151	C	0.839710	0.069998	0.000106
C152	C	1.339710	0.569998	0.500106
C153	C	0.667594	0.178158	0.000068
C154	C	1.167594	0.678158	0.500068
C155	C	0.668360	0.241375	0.000057
C156	C	1.168360	0.741375	0.500057
N157	N	0.672327	0.074001	0.206636
N158	N	1.172327	0.574001	0.706636
N159	N	0.672360	0.074014	-0.206462
N160	N	1.172360	0.574014	0.293538
C161	C	0.711277	0.035073	0.248366
C162	C	1.211277	0.535073	0.748366
C163	C	0.711280	0.035072	0.331818
C164	C	1.211280	0.535072	0.831818
C165	C	0.672336	0.074003	0.373539
C166	C	1.172336	0.574003	0.873539
C167	C	0.633382	0.112933	0.331803
C168	C	1.133382	0.612933	0.831803
C169	C	0.633377	0.112931	0.248353
C170	C	1.133377	0.612931	0.748353
C171	C	0.633403	0.112945	0.668351
C172	C	1.133403	0.612945	1.168351
C173	C	0.633412	0.112945	0.751807
C174	C	1.133412	0.612945	1.251807
C175	C	0.711306	0.035086	0.751816
C176	C	1.211306	0.535086	1.251816
C177	C	0.711301	0.035083	0.668365
C178	C	1.211301	0.535083	1.168365
C179	C	0.672345	0.074011	0.626637
C180	C	1.172345	0.574011	1.126637
C181	C	0.672341	0.074011	0.536149
C182	C	1.172341	0.574011	1.036149
C183	C	0.672342	0.074007	0.464026
C184	C	1.172342	0.574007	0.964026
H185	H	0.391705	0.076649	0.131200
H186	H	0.891705	0.576649	0.631200
Br187	Br	0.554062	-0.066047	0.000088
Br188	Br	1.054062	0.433953	0.500088
Br189	Br	0.764175	-0.017747	0.808451
Br190	Br	1.264175	0.482253	1.308451
Br191	Br	0.764137	-0.017761	0.191753
Br192	Br	1.264137	0.482239	0.691753
H193	H	0.118481	0.073345	-0.203304
H194	H	0.618481	0.573345	0.296696
Br195	Br	0.580556	0.165784	0.808429
Br196	Br	1.080556	0.665784	1.308429
H197	H	0.743014	0.003384	0.634399
H198	H	1.243014	0.503384	1.134399
Br199	Br	0.242353	0.074830	-0.242541
Br200	Br	0.742353	0.574830	0.257459
H201	H	0.118478	0.073344	0.203483
H202	H	0.618478	0.573344	0.703483
H203	H	0.762629	-0.765963	0.000073
H204	H	1.262629	-0.265963	0.500073
H205	H	0.499453	0.077955	0.131186
H206	H	0.999453	0.577955	0.631186
Br207	Br	0.375562	0.076473	-0.170285
Br208	Br	0.875562	0.576473	0.329715
H209	H	0.742995	0.003374	0.365794
H210	H	1.242995	0.503374	0.865794
H211	H	0.499455	0.077961	-0.131051
H212	H	0.999455	0.577961	0.368949
H213	H	0.601685	0.144642	0.634382
H214	H	1.101685	0.644642	1.134382
H215	H	0.575510	-0.632494	0.000044
H216	H	1.075510	-0.132494	0.500044
H217	H	-0.154773	0.070060	0.131224
H218	H	0.345227	0.570060	0.631224
H219	H	0.601670	0.144630	0.365777
H220	H	1.101670	0.644630	0.865777
H221	H	0.601659	0.144629	0.214377
H222	H	1.101659	0.644629	0.714377
H223	H	-0.047008	0.071360	0.131226
H224	H	0.452992	0.571360	0.631226
Br225	Br	0.242342	0.074842	0.242714
Br226	Br	0.742342	0.574842	0.742714
H227	H	-0.154765	0.070078	-0.131015
H228	H	0.345235	0.570078	0.368985
Br229	Br	-0.030894	0.071558	-0.170262
Br230	Br	0.469106	0.571558	0.329738
H231	H	0.770463	-0.111731	0.000133
H232	H	1.270463	0.388269	0.500133
H233	H	0.769178	-0.219481	0.000105
H234	H	1.269178	0.280519	0.500105
H235	H	0.817827	-0.499797	0.000092
H236	H	1.317827	0.000203	0.500092
Br237	Br	0.847502	-0.379779	0.000096
Br238	Br	1.347502	0.120221	0.500096
H239	H	0.525569	-0.459912	0.000018
H240	H	1.025569	0.040088	0.500018
H241	H	0.574222	-0.740243	0.000055
H242	H	1.074222	-0.240243	0.500055
Br243	Br	0.792309	-0.645922	0.000093
Br244	Br	1.292309	-0.145922	0.500093
H245	H	0.526863	-0.352164	0.000023
H246	H	1.026863	0.147836	0.500023
H247	H	0.580762	-0.193785	0.000100
H248	H	1.080762	0.306215	0.500100
