data_functionalizedCrystal
_audit_creation_method	'MofGen! by Chris Wilmer'
_symmetry_space_group_name_H-M	'P1'
_symmetry_Int_Tables_number	1
_symmetry_cell_setting	triclinic
loop_
_symmetry_equiv_pos_as_xyz
  x,y,z
_cell_length_a	12.811445
_cell_length_b	16.098692
_cell_length_c	12.811415
_cell_angle_alpha	92.380974
_cell_angle_beta	83.528277
_cell_angle_gamma	92.388069
loop_
_atom_site_label
_atom_site_type_symbol
_atom_site_fract_x
_atom_site_fract_y
_atom_site_fract_z
O1	O	1.382171	0.183471	0.130257
O2	O	1.077970	0.161760	0.146942
O3	O	1.238415	0.161755	-0.013499
O4	O	1.221727	0.183476	0.290699
O5	O	1.246720	0.024502	-0.005161
O6	O	1.086276	0.024507	0.155280
O7	O	1.390477	0.046218	0.138595
Zn8	Zn	1.239695	0.013571	0.148261
Zn9	Zn	1.228752	0.194407	0.137276
O10	O	1.230032	0.046223	0.299036
C11	C	1.043196	0.090142	0.150431
C12	C	0.927208	0.081229	0.148390
N13	N	1.247171	-0.109844	0.155757
C14	C	1.186454	-0.162630	0.094987
C15	C	1.191710	-0.249022	0.100243
C16	C	1.257689	-0.282629	0.166265
C17	C	1.318408	-0.229837	0.227043
C18	C	1.313146	-0.143445	0.221791
C19	C	1.276741	-0.542994	0.185298
C20	C	1.282001	-0.629392	0.190542
C21	C	1.155301	-0.648572	0.063743
C22	C	1.150050	-0.562179	0.058493
C23	C	1.210764	-0.509394	0.119275
C24	C	1.263065	-0.370936	0.171637
C25	C	1.205382	-0.421089	0.113908
C26	C	0.700192	0.214130	0.135485
C27	C	0.591210	0.205760	0.133568
C28	C	0.600258	0.056118	0.142646
C29	C	0.709240	0.064489	0.144563
C30	C	0.759203	0.143498	0.140981
C31	C	0.868188	0.151867	0.142891
C32	C	0.877234	0.002227	0.151976
C33	C	0.768252	-0.006144	0.150059
C34	C	1.425250	0.117837	0.135107
C35	C	1.541239	0.126756	0.137147
N36	N	1.221284	0.317822	0.129772
C37	C	1.241887	0.090138	-0.048256
C38	C	1.239847	0.081227	-0.164244
C39	C	1.226940	0.214130	-0.391277
C40	C	1.225023	0.205761	-0.500258
C41	C	1.234089	0.056120	-0.491189
C42	C	1.236006	0.064489	-0.382208
C43	C	1.232433	0.143497	-0.332256
C44	C	1.234357	0.151865	-0.223274
C45	C	1.243416	0.002225	-0.214206
C46	C	1.241499	-0.006144	-0.323187
C47	C	1.226560	0.117842	0.333794
C48	C	1.228599	0.126759	0.449781
H49	H	1.132730	-0.135275	0.041221
H50	H	1.236990	-0.008205	-0.531878
F51	F	1.127082	-0.305197	0.035566
H52	H	1.224039	0.278462	-0.350607
H53	H	0.543166	0.263277	0.129095
F54	F	0.940048	-0.072952	0.157812
F55	F	1.079793	-0.526419	-0.011744
H56	H	0.727556	-0.070470	0.152979
H57	H	1.105869	-0.691558	0.014260
F58	F	1.230558	0.235951	-0.170113
F59	F	1.135160	-0.385321	0.043649
H60	H	1.220546	0.263278	-0.548309
F61	F	1.352232	-0.665156	0.260811
F62	F	1.341334	-0.486828	0.250014
H63	H	0.908867	0.216200	0.139973
F64	F	0.547064	-0.027961	0.146475
F65	F	0.753370	0.298215	0.131659
H66	H	1.244404	-0.070471	-0.363872
H67	H	1.247893	-0.055290	-0.166139
H68	H	1.372125	-0.257205	0.280804
F69	F	1.333281	-0.406710	0.241904
F70	F	1.377771	-0.087267	0.286470
