data_functionalizedCrystal
_audit_creation_method	'MofGen! by Chris Wilmer'
_symmetry_space_group_name_H-M	'P1'
_symmetry_Int_Tables_number	1
_symmetry_cell_setting	triclinic
loop_
_symmetry_equiv_pos_as_xyz
  x,y,z
_cell_length_a	14.908558
_cell_length_b	16.625539
_cell_length_c	16.625546
_cell_angle_alpha	89.969603
_cell_angle_beta	86.717541
_cell_angle_gamma	86.687248
loop_
_atom_site_label
_atom_site_type_symbol
_atom_site_fract_x
_atom_site_fract_y
_atom_site_fract_z
Zn1	Zn	1.379215	-0.526886	-0.392262
Zn2	Zn	1.712548	-0.193553	-0.058928
Zn3	Zn	2.045881	0.139781	0.274405
Zn4	Zn	1.379106	-0.392043	-0.527099
Zn5	Zn	1.712440	-0.058709	-0.193766
Zn6	Zn	2.045773	0.274624	0.139567
Zn7	Zn	1.228348	-0.384301	-0.384495
Zn8	Zn	1.561681	-0.050968	-0.051162
Zn9	Zn	1.895014	0.282365	0.282172
Zn10	Zn	1.228314	-0.519071	-0.519259
Zn11	Zn	1.561648	-0.185738	-0.185926
Zn12	Zn	1.894981	0.147595	0.147407
O13	O	1.303746	-0.455575	-0.455779
O14	O	1.637079	-0.122242	-0.122446
O15	O	1.970412	0.211091	0.210888
O16	O	1.505445	-0.515509	-0.416680
O17	O	1.838779	-0.182176	-0.083346
O18	O	2.172112	0.151158	0.249987
O19	O	1.359076	-0.278182	-0.508213
O20	O	1.692410	0.055152	-0.174880
O21	O	2.025743	0.388485	0.158454
O22	O	1.248420	-0.403246	-0.272696
O23	O	1.581753	-0.069913	0.060637
O24	O	1.915086	0.263420	0.393971
O25	O	1.505366	-0.416440	-0.515744
O26	O	1.838699	-0.083107	-0.182411
O27	O	2.172032	0.250226	0.150922
O28	O	1.359261	-0.508003	-0.278402
O29	O	1.692594	-0.174669	0.054931
O30	O	2.025928	0.158664	0.388265
O31	O	1.248315	-0.272494	-0.403442
O32	O	1.581648	0.060839	-0.070109
O33	O	1.914981	0.394172	0.263224
O34	O	1.102098	-0.395669	-0.395840
O35	O	1.435431	-0.062335	-0.062507
O36	O	1.768765	0.270998	0.270826
O37	O	1.248363	-0.632942	-0.502382
O38	O	1.581696	-0.299609	-0.169049
O39	O	1.915030	0.033725	0.164284
O40	O	1.102074	-0.494684	-0.494851
O41	O	1.435407	-0.161350	-0.161518
O42	O	1.768740	0.171983	0.171816
O43	O	1.359229	-0.638683	-0.409078
O44	O	1.692562	-0.305350	-0.075744
O45	O	2.025895	0.027983	0.257589
O46	O	1.359044	-0.408863	-0.638889
O47	O	1.692378	-0.075529	-0.305555
O48	O	2.025711	0.257804	0.027778
O49	O	1.248258	-0.502190	-0.633129
O50	O	1.581591	-0.168857	-0.299795
O51	O	1.914925	0.164477	0.033538
C52	C	1.069352	-0.443489	-0.443653
C53	C	1.402685	-0.110155	-0.110319
C54	C	1.736018	0.223178	0.223014
C55	C	0.969077	-0.438337	-0.438484
C56	C	1.302410	-0.105004	-0.105151
C57	C	1.635744	0.228330	0.228182
C58	C	0.827731	-0.379609	-0.379575
C59	C	1.161064	-0.046275	-0.046242
C60	C	1.494397	0.287058	0.287092
C61	C	0.921948	-0.384446	-0.384427
C62	C	1.255281	-0.051113	-0.051094
C63	C	1.588614	0.282221	0.282240
C64	C	0.921983	-0.487396	-0.487692
C65	C	1.255316	-0.154063	-0.154359
C66	C	1.588649	0.179271	0.178975
C67	C	0.827765	-0.482559	-0.482840
C68	C	1.161099	-0.149225	-0.149507
C69	C	1.494432	0.184108	0.183827
C70	C	0.780643	-0.428663	-0.428781
C71	C	1.113976	-0.095329	-0.095447
C72	C	1.447310	0.238004	0.237886
C73	C	0.686424	-0.423822	-0.423933
C74	C	1.019757	-0.090488	-0.090600
C75	C	1.353091	0.242845	0.242733
C76	C	0.686461	-0.526775	-0.527194
C77	C	1.019794	-0.193442	-0.193860
C78	C	1.353127	0.139891	0.139473
C79	C	0.780678	-0.531612	-0.532046
C80	C	1.114011	-0.198279	-0.198712
C81	C	1.447344	0.135054	0.134621
C82	C	1.303804	-0.665887	-0.455722
C83	C	1.637138	-0.332554	-0.122388
C84	C	1.970471	0.000779	0.210945
C85	C	1.303829	-0.755510	-0.455698
C86	C	1.637163	-0.422177	-0.122364
C87	C	1.970496	-0.088843	0.210969
C88	C	1.303871	-1.083688	-0.455609
C89	C	1.637204	-0.750355	-0.122276
C90	C	1.970538	-0.417021	0.211057
C91	C	1.303857	-0.992379	-0.455636
C92	C	1.637190	-0.659045	-0.122303
C93	C	1.970524	-0.325712	0.211030
C94	C	1.303851	-0.919602	-0.455654
C95	C	1.637184	-0.586268	-0.122321
C96	C	1.970517	-0.252935	0.211013
C97	C	1.303836	-0.828287	-0.455680
C98	C	1.637169	-0.494953	-0.122346
C99	C	1.970502	-0.161620	0.210987
C100	C	1.539055	-0.467710	-0.467953
C101	C	1.872388	-0.134377	-0.134620
C102	C	2.205722	0.198957	0.198714
C103	C	1.639330	-0.472881	-0.473141
C104	C	1.972663	-0.139548	-0.139807
C105	C	2.305996	0.193786	0.193526
C106	C	1.303660	-0.455537	-0.665265
C107	C	1.636994	-0.122204	-0.331932
C108	C	1.970327	0.211129	0.001401
C109	C	1.303706	-0.455552	-0.754889
C110	C	1.637040	-0.122219	-0.421555
C111	C	1.970373	0.211115	-0.088222
C112	C	1.303739	-0.246084	-0.455780
C113	C	1.637072	0.087249	-0.122447
C114	C	1.970406	0.420582	0.210887
C115	C	1.303889	-0.156471	-0.455586
C116	C	1.637222	0.176862	-0.122253
C117	C	1.970556	0.510195	0.211080
C118	C	1.303864	-0.455644	-1.083072
C119	C	1.637197	-0.122311	-0.749739
C120	C	1.970530	0.211022	-0.416406
C121	C	1.303817	-0.455621	-0.991762
C122	C	1.637150	-0.122287	-0.658428
C123	C	1.970484	0.211046	-0.325095
C124	C	1.303784	-0.455598	-0.918983
C125	C	1.637118	-0.122264	-0.585650
C126	C	1.970451	0.211069	-0.252317
C127	C	1.303739	-0.455575	-0.827667
C128	C	1.637072	-0.122242	-0.494334
C129	C	1.970406	0.211092	-0.161000
C130	C	1.303856	-0.455633	-0.245476
C131	C	1.637189	-0.122299	0.087858
C132	C	1.970523	0.211034	0.421191
C133	C	1.303903	-0.455657	-0.155857
C134	C	1.637236	-0.122324	0.177476
C135	C	1.970570	0.211010	0.510810
H136	H	0.819058	-0.575495	-0.576057
H137	H	1.152391	-0.242162	-0.242724
H138	H	1.485724	0.091172	0.090610
Cl139	Cl	0.768488	-0.311845	-0.311628
Cl140	Cl	1.101821	0.021488	0.021706
Cl141	Cl	1.435154	0.354821	0.355039
Cl142	Cl	0.627259	-0.588452	-0.589050
Cl143	Cl	0.960592	-0.255119	-0.255717
Cl144	Cl	1.293926	0.078214	0.077617
H145	H	0.648058	-0.379937	-0.379915
H146	H	0.981392	-0.046604	-0.046581
H147	H	1.314725	0.286729	0.286752
H148	H	0.960366	-0.531279	-0.531700
H149	H	1.293699	-0.197946	-0.198367
H150	H	1.627033	0.135387	0.134966
Cl151	Cl	0.981141	-0.322778	-0.322564
Cl152	Cl	1.314475	0.010556	0.010769
Cl153	Cl	1.647808	0.343889	0.344103
