data_functionalizedCrystal
_audit_creation_method	'MofGen! by Chris Wilmer'
_symmetry_space_group_name_H-M	'P1'
_symmetry_Int_Tables_number	1
_symmetry_cell_setting	triclinic
loop_
_symmetry_equiv_pos_as_xyz
  x,y,z
_cell_length_a	13.032831
_cell_length_b	29.839125
_cell_length_c	13.032721
_cell_angle_alpha	97.166862
_cell_angle_beta	90.902885
_cell_angle_gamma	82.818235
loop_
_atom_site_label
_atom_site_type_symbol
_atom_site_fract_x
_atom_site_fract_y
_atom_site_fract_z
Zn1	Zn	1.520117	-0.370139	-0.609602
Zn2	Zn	1.498182	-0.303203	-0.781539
Zn3	Zn	1.348164	-0.284455	-0.587718
Zn4	Zn	1.326266	-0.367740	-0.759648
O5	O	1.423182	-0.331384	-0.684627
O6	O	1.661118	-0.370110	-0.650731
O7	O	1.478266	-0.237848	-0.755832
O8	O	1.389319	-0.288979	-0.446711
O9	O	1.645002	-0.320932	-0.777052
O10	O	1.515652	-0.351931	-0.462789
O11	O	1.368049	-0.224075	-0.613432
O12	O	1.201349	-0.286653	-0.592204
O13	O	1.351996	-0.430926	-0.739741
O14	O	1.185261	-0.347843	-0.718520
O15	O	1.494418	-0.432688	-0.629503
O16	O	1.457032	-0.318606	-0.922545
O17	O	1.330727	-0.366022	-0.906461
C18	C	1.155991	-0.314954	-0.650613
C19	C	1.041682	-0.307936	-0.636086
C20	C	0.982774	-0.335047	-0.692208
C21	C	0.864629	-0.327795	-0.677196
C22	C	1.423211	-0.448564	-0.684621
C23	C	1.423224	-0.498499	-0.684619
C24	C	1.497474	-0.809059	-0.627054
C25	C	1.497536	-0.996731	-0.626973
O26	O	1.560577	-1.021775	-0.578118
N27	N	1.423395	-1.019280	-0.684361
C28	C	1.349229	-0.994906	-0.741767
O29	O	1.286163	-1.018391	-0.790568
C30	C	1.349163	-0.807235	-0.741842
C31	C	1.423316	-0.784690	-0.684459
C32	C	1.571619	-0.786514	-0.569675
C33	C	1.571606	-0.739599	-0.569701
C34	C	1.497448	-0.715230	-0.627105
C35	C	1.423303	-0.737775	-0.684484
C36	C	1.274994	-0.782862	-0.799241
C37	C	1.274983	-0.735941	-0.799253
C38	C	1.349135	-0.713396	-0.741870
C39	C	1.349132	-0.666491	-0.741914
N40	N	1.423273	-0.643942	-0.684527
C41	C	1.497431	-0.668312	-0.627122
C42	C	1.349270	-1.093437	-0.741725
C43	C	1.349288	-1.140355	-0.741708
C44	C	1.497593	-1.142176	-0.626913
C45	C	1.497580	-1.095258	-0.626936
C46	C	1.423411	-1.070889	-0.684338
C47	C	1.497399	-0.569787	-0.627180
C48	C	1.497382	-0.522869	-0.627214
C49	C	1.349073	-0.521051	-0.742005
C50	C	1.349093	-0.567966	-0.741976
C51	C	1.423260	-0.592333	-0.684556
O52	O	1.286117	-0.641417	-0.790735
O53	O	1.560474	-0.644818	-0.578310
C54	C	1.497486	-0.855974	-0.627029
C55	C	1.423341	-0.878519	-0.684408
C56	C	1.349183	-0.854150	-0.741813
C57	C	1.423359	-0.925437	-0.684391
C58	C	1.497517	-0.949807	-0.626987
C59	C	1.571657	-0.927258	-0.569599
C60	C	1.571645	-0.880344	-0.569625
C61	C	1.275042	-0.876698	-0.799200
C62	C	1.275062	-0.923613	-0.799171
C63	C	1.349220	-0.947983	-0.741766
C64	C	1.691417	-0.347880	-0.718775
C65	C	1.805723	-0.354909	-0.733326
C66	C	1.389151	-0.344100	-0.951821
C67	C	1.374686	-0.349560	-1.066140
C68	C	1.423222	-0.214661	-0.684566
C69	C	1.423446	-0.164724	-0.684304
C70	C	1.430786	-0.328558	-1.125037
C71	C	1.415838	-0.334201	-1.243192
C72	C	1.457375	-0.318631	-0.416393
C73	C	1.471945	-0.313196	-0.302087
H74	H	1.557769	-0.504515	-0.580486
H75	H	1.214679	-0.941966	-0.845909
H76	H	1.315594	-0.371720	-1.103189
F77	F	1.338594	-0.363168	-1.291608
H78	H	1.531050	-0.291039	-1.265044
H79	H	1.288721	-0.586324	-0.788712
H80	H	1.019807	-0.363627	-0.751368
H81	H	0.827602	-0.299215	-0.618025
F82	F	0.854116	-0.392273	-0.810650
H83	H	1.288698	-0.501201	-0.788746
F84	F	0.993284	-0.270582	-0.558749
F85	F	1.196107	-0.850768	-0.860299
F86	F	1.576331	-0.595713	-0.566062
F87	F	1.650525	-0.715610	-0.508619
H88	H	1.632008	-0.806351	-0.522924
H89	H	1.557959	-1.076905	-0.580208
H90	H	1.557976	-1.162026	-0.580172
F91	F	1.650567	-0.856355	-0.508548
H92	H	1.288915	-1.158708	-0.788448
F93	F	1.270325	-1.067507	-0.802825
H94	H	1.214611	-0.801210	-0.845969
H95	H	1.214575	-0.716100	-0.845985
H96	H	1.632043	-0.947109	-0.522862
H97	H	1.489887	-0.306402	-1.087991
