data_functionalizedCrystal
_audit_creation_method	'MofGen! by Chris Wilmer'
_symmetry_space_group_name_H-M	'P1'
_symmetry_Int_Tables_number	1
_symmetry_cell_setting	triclinic
loop_
_symmetry_equiv_pos_as_xyz
  x,y,z
_cell_length_a	23.096457
_cell_length_b	23.096457
_cell_length_c	23.096457
_cell_angle_alpha	59.998903
_cell_angle_beta	90.003973
_cell_angle_gamma	59.998275
loop_
_atom_site_label
_atom_site_type_symbol
_atom_site_fract_x
_atom_site_fract_y
_atom_site_fract_z
Zr1	Zr	0.557738	0.633774	-0.075996
O2	O	0.465270	0.754578	-0.168448
O3	O	0.586086	0.512979	-0.047656
O4	O	0.586061	0.633790	-0.168454
O5	O	0.465312	0.633751	0.047640
O6	O	0.681341	0.633791	-0.168458
O7	O	0.465294	0.633767	-0.047650
O8	O	0.681385	0.417683	0.047628
O9	O	0.465268	0.849859	-0.168446
O10	O	0.669280	0.562661	-0.035571
O11	O	0.598187	0.562648	0.035545
O12	O	0.598158	0.704887	-0.106679
O13	O	0.527064	0.704874	-0.035563
Zr14	Zr	0.709726	0.633750	0.075974
Zr15	Zr	0.709699	0.633776	-0.076002
Zr16	Zr	0.557765	0.633748	0.075979
Zr17	Zr	0.557734	0.785736	-0.075993
Zr18	Zr	0.709730	0.481788	0.075971
O19	O	0.681378	0.754545	0.047634
O20	O	0.681339	0.754581	-0.168456
O21	O	0.465309	0.754541	0.047642
O22	O	0.802194	0.512946	0.168425
O23	O	0.802155	0.512983	-0.047664
O24	O	0.586125	0.512943	0.168433
O25	O	0.802152	0.633773	-0.047662
O26	O	0.681403	0.633734	0.168432
O27	O	0.586122	0.633733	0.168435
O28	O	0.802170	0.633757	0.047627
O29	O	0.586057	0.849861	-0.168450
O30	O	0.681407	0.417663	0.168428
O31	O	0.802196	0.417665	0.168423
O32	O	0.802174	0.417685	0.047623
O33	O	0.465290	0.849838	-0.047646
O34	O	0.586079	0.849841	-0.047650
O35	O	0.669306	0.562637	0.106656
O36	O	0.740400	0.562650	0.035540
O37	O	0.669277	0.704876	-0.035568
O38	O	0.598184	0.704863	0.035548
C39	C	0.633736	0.443680	-0.000015
C40	C	0.633737	0.379168	-0.000016
C41	C	0.670843	-0.081343	-0.037121
C42	C	0.670842	-0.020723	-0.037128
C43	C	0.633733	0.009582	-0.000006
C44	C	0.596608	-0.020722	0.037111
C45	C	0.596605	-0.081335	0.037110
N46	N	0.638896	0.071966	0.060404
N47	N	0.638903	0.129544	0.060403
C48	C	0.633738	0.192208	-0.000004
N49	N	0.628580	0.195110	-0.060409
N50	N	0.628577	0.137523	-0.060406
C51	C	0.633731	0.075308	-0.000002
C52	C	0.670855	0.288240	-0.037129
C53	C	0.670848	0.348865	-0.037137
C54	C	0.596618	0.348859	0.037108
C55	C	0.596621	0.288242	0.037109
C56	C	0.633743	0.257933	-0.000007
C57	C	0.443652	0.633759	-0.000004
C58	C	0.379140	0.633758	-0.000002
C59	C	0.385960	0.559520	0.037109
C60	C	0.325344	0.559518	0.037112
C61	C	0.257910	0.633760	-0.000010
C62	C	0.251092	0.708007	-0.037122
C63	C	0.311708	0.708006	-0.037118
N64	N	0.135102	0.689027	-0.060424
N65	N	0.077522	0.689023	-0.060427
C66	C	0.075277	0.633767	-0.000022
N67	N	0.132792	0.578503	0.060384
N68	N	0.190378	0.578505	0.060385
C69	C	0.192178	0.633769	-0.000018
C70	C	0.016373	0.559522	0.037095
C71	C	-0.044245	0.559524	0.037100
C72	C	-0.118497	0.708015	-0.037141
C73	C	-0.057879	0.708011	-0.037139
C74	C	0.009553	0.633763	-0.000022
C75	C	0.823812	0.633765	-0.000018
C76	C	0.888324	0.633766	-0.000021
C77	C	0.633697	0.633794	-0.190109
C78	C	0.633686	0.633805	-0.254627
C79	C	0.633728	0.823844	-0.000008
C80	C	0.633727	0.888356	-0.000006
C81	C	0.686178	0.633807	-0.284922
C82	C	0.686194	0.633791	-0.345530
C83	C	0.633706	0.633788	-0.375848
C84	C	0.581209	0.633781	-0.345543
C85	C	0.581199	0.633790	-0.284932
N86	N	0.571469	0.680133	-0.494204
N87	N	0.571481	0.680127	-0.551782
C88	C	0.633735	0.633761	-0.558464
N89	N	0.695980	0.587413	-0.505397
N90	N	0.695967	0.587422	-0.447815
C91	C	0.633712	0.633779	-0.441570
C92	C	0.686250	0.633744	-0.654476
C93	C	0.686266	0.633723	-0.715083
C94	C	0.581276	0.633722	-0.715098
C95	C	0.581265	0.633735	-0.654489
C96	C	0.633751	0.633750	-0.624184
C97	C	0.633767	0.633730	0.190087
C98	C	0.633778	0.633719	0.254604
C99	C	0.823816	0.443683	-0.000022
C100	C	0.888329	0.379172	-0.000025
C101	C	0.633771	0.443648	0.190083
C102	C	0.633784	0.379125	0.254599
C103	C	0.823851	0.443651	0.190076
C104	C	0.888376	0.379129	0.254590
C105	C	0.443613	0.823873	-0.190099
C106	C	0.379088	0.888395	-0.254613
C107	C	0.443648	0.823841	-0.000001
C108	C	0.379135	0.888352	0.000003
C109	C	0.633693	0.823876	-0.190106
C110	C	0.633680	0.888399	-0.254622
C111	C	0.881501	0.348883	-0.037152
C112	C	0.942112	0.288276	-0.037170
C113	C	1.009550	0.257956	-0.000056
C114	C	1.016377	0.288251	0.037072
C115	C	0.955766	0.348861	0.037085
C116	C	0.670914	0.348818	0.322022
C117	C	0.670923	0.288200	0.382648
C118	C	0.633807	0.257886	0.375849
C119	C	0.596672	0.288198	0.308419
C120	C	0.596659	0.348819	0.247795
C121	C	0.955794	0.348836	0.247765
C122	C	1.016427	0.288219	0.308377
C123	C	1.009641	0.257892	0.375813
C124	C	0.942216	0.288191	0.382637
C125	C	0.881584	0.348811	0.322026
C126	C	0.311670	0.918696	-0.247787
C127	C	0.251037	0.979331	-0.308399
C128	C	0.257823	1.009661	-0.375836
C129	C	0.325248	0.979358	-0.382660
C130	C	0.385880	0.918727	-0.322049
C131	C	0.385963	0.918648	0.037124
C132	C	0.325352	0.979271	0.037124
C133	C	0.257914	1.009593	0.000008
C134	C	0.251087	0.979295	-0.037117
C135	C	0.311698	0.918677	-0.037122
C136	C	0.670804	0.918695	-0.247801
C137	C	0.670806	0.979313	-0.308415
C138	C	0.633679	1.009639	-0.375850
C139	C	0.596554	0.979338	-0.382670
C140	C	0.596557	0.918716	-0.322056
H141	H	0.566378	-0.106005	0.067334
H142	H	0.566426	0.373487	0.192899
H143	H	0.566326	1.004038	-0.437583
Br144	Br	0.721296	0.389942	0.331269
H145	H	0.440773	0.894057	-0.327614
H146	H	0.633682	1.059001	-0.425199
Br147	Br	0.477478	0.877512	0.087499
H148	H	0.701036	1.003978	-0.302848
Br149	Br	0.477472	0.458754	0.087484
Br150	Br	0.546244	0.389993	0.087478
Br151	Br	0.107890	0.458759	0.087469
H152	H	0.330897	0.499063	0.067333
H153	H	0.633823	0.208525	0.425219
H154	H	-0.173402	0.768464	-0.067366
H155	H	1.059017	0.208532	0.425161
Br156	Br	0.546248	0.247113	0.087485
Br157	Br	0.159541	1.020443	-0.299121
H158	H	-0.038686	0.499068	0.067326
Br159	Br	0.175663	1.091862	0.000022
H160	H	0.701165	0.263527	0.437547
H161	H	0.701068	0.003952	-0.067352
Br162	Br	0.302418	0.877565	-0.087501
H163	H	0.208447	1.059030	-0.425184
Br164	Br	0.721240	0.247097	-0.087493
H165	H	0.538518	0.633738	-0.629823
Br166	Br	0.965023	0.389984	0.156251
H167	H	0.306132	0.894004	-0.192883
Br168	Br	0.546303	0.247048	0.299204
H169	H	0.729015	0.633719	-0.739747
H170	H	1.071322	0.263555	0.302808
H171	H	0.701037	0.894012	-0.192897
H172	H	0.936701	0.263491	0.437552
H173	H	0.330765	1.004060	-0.437574
Br174	Br	0.757441	0.633792	-0.386652
Br175	Br	0.790090	0.389913	0.331302
H176	H	0.330924	1.003930	0.067359
H177	H	0.196171	1.003993	-0.067336
Br178	Br	0.159575	0.808764	-0.087495
H179	H	0.566323	0.894057	-0.327620
H180	H	0.728917	0.633817	-0.260248
Br181	Br	0.510048	0.633705	-0.756233
Br182	Br	0.721206	-0.122457	-0.087511
Br183	Br	0.546239	0.020411	0.087485
Br184	Br	0.789986	0.390020	-0.087530
Br185	Br	1.091801	0.175699	-0.000081
Br186	Br	0.721216	0.389998	-0.087521
H187	H	0.306150	0.768462	-0.067337
H188	H	-0.063435	0.768464	-0.067364
H189	H	0.538452	0.633788	-0.260265
Br190	Br	0.757483	0.633761	-0.613344
Br191	Br	0.509979	0.633769	-0.386682
Br192	Br	0.932831	0.247172	-0.087560
H193	H	1.071293	0.263556	0.067289
H194	H	0.961336	0.373515	0.067323
