data_functionalizedCrystal
_audit_creation_method	'MofGen! by Chris Wilmer'
_symmetry_space_group_name_H-M	'P1'
_symmetry_Int_Tables_number	1
_symmetry_cell_setting	triclinic
loop_
_symmetry_equiv_pos_as_xyz
  x,y,z
_cell_length_a	16.992694
_cell_length_b	11.792241
_cell_length_c	16.053802
_cell_angle_alpha	92.583059
_cell_angle_beta	87.249047
_cell_angle_gamma	87.430819
loop_
_atom_site_label
_atom_site_type_symbol
_atom_site_fract_x
_atom_site_fract_y
_atom_site_fract_z
O1	O	1.044699	0.236280	-0.069325
O2	O	1.544699	0.736280	0.430675
O3	O	0.816403	0.233637	-0.069350
O4	O	1.316403	0.733637	0.430650
O5	O	0.936091	0.070242	-0.069331
O6	O	1.436091	0.570242	0.430669
O7	O	0.925011	0.399675	-0.069344
O8	O	1.425011	0.899675	0.430656
O9	O	0.929503	0.079196	0.069527
O10	O	1.429503	0.579196	0.569527
O11	O	0.809815	0.242591	0.069508
O12	O	1.309815	0.742591	0.569508
O13	O	1.038111	0.245234	0.069533
O14	O	1.538111	0.745234	0.569533
Zn15	Zn	0.922917	0.245334	0.091567
Zn16	Zn	1.422917	0.745334	0.591567
Zn17	Zn	0.931597	0.233537	-0.091384
Zn18	Zn	1.431597	0.733537	0.408616
O19	O	0.918423	0.408630	0.069514
O20	O	1.418423	0.908630	0.569514
C21	C	0.783882	0.234716	0.000076
C22	C	1.283882	0.734716	0.500076
C23	C	0.696796	0.224578	0.000067
C24	C	1.196796	0.724578	0.500067
C25	C	0.646971	0.322395	0.000064
C26	C	1.146971	0.822395	0.500064
C27	C	0.565143	0.312864	0.000076
C28	C	1.065143	0.812864	0.500076
C29	C	0.533142	0.205513	0.000085
C30	C	1.033142	0.705513	0.500085
C31	C	0.582973	0.107688	0.000091
C32	C	1.082973	0.607688	0.500091
C33	C	0.664799	0.117221	0.000085
C34	C	1.164799	0.617221	0.500085
C35	C	0.289375	0.166002	0.000109
C36	C	0.789375	0.666002	0.500109
C37	C	0.207543	0.156476	0.000112
C38	C	0.707543	0.656476	0.500112
C39	C	0.189719	0.361652	0.000099
C40	C	0.689719	0.861652	0.500099
C41	C	0.271548	0.371176	0.000088
C42	C	0.771548	0.871176	0.500088
C43	C	0.321371	0.273351	0.000098
C44	C	0.821371	0.773351	0.500098
N45	N	0.449501	0.195767	0.000094
N46	N	0.949501	0.695767	0.500094
N47	N	0.405010	0.283098	0.000095
N48	N	0.905010	0.783098	0.500095
C49	C	0.932101	0.032371	0.000098
C50	C	1.432101	0.532371	0.500098
C51	C	0.930018	-0.093813	0.000097
C52	C	1.430018	0.406187	0.500097
C53	C	0.926188	-0.324840	0.000082
C54	C	1.426188	0.175160	0.500082
C55	C	0.928316	-0.196280	0.000090
C56	C	1.428316	0.303720	0.500090
C57	C	1.070632	0.244155	0.000105
C58	C	1.570632	0.744155	0.500105
C59	C	1.157719	0.254293	0.000109
C60	C	1.657719	0.754293	0.500109
C61	C	0.922413	0.446500	0.000084
C62	C	1.422413	0.946500	0.500084
C63	C	0.924497	0.572684	0.000079
C64	C	1.424497	1.072684	0.500079
N65	N	0.916999	0.253386	0.216427
N66	N	1.416999	0.753386	0.716427
N67	N	0.937521	0.225477	-0.216243
N68	N	1.437521	0.725477	0.283757
C69	C	0.967945	0.183889	0.260129
C70	C	1.467945	0.683889	0.760129
C71	C	0.963812	0.189532	0.347535
C72	C	1.463812	0.689532	0.847535
C73	C	0.908737	0.264679	0.391237
C74	C	1.408737	0.764679	0.891237
C75	C	0.857785	0.334179	0.347529
C76	C	1.357785	0.834179	0.847529
C77	C	0.861915	0.328529	0.260125
C78	C	1.361915	0.828529	0.760125
C79	C	0.890699	0.289327	0.652644
C80	C	1.390699	0.789327	1.152644
C81	C	0.886575	0.294974	0.740055
C82	C	1.386575	0.794974	1.240055
C83	C	0.992602	0.150325	0.740054
C84	C	1.492602	0.650325	1.240054
C85	C	0.996729	0.144687	0.652648
C86	C	1.496729	0.644687	1.152648
C87	C	0.945775	0.214182	0.608948
C88	C	1.445775	0.714182	1.108948
N89	N	0.904513	0.270452	0.480580
N90	N	1.404513	0.770452	0.980580
N91	N	0.949996	0.208403	0.519606
N92	N	1.449996	0.708403	1.019606
H93	H	0.673020	0.409812	0.000056
H94	H	1.173020	0.909812	0.500056
H95	H	0.705366	0.037567	0.000087
H96	H	1.205366	0.537567	0.500087
H97	H	0.329932	0.086345	0.000118
H98	H	0.829932	0.586345	0.500118
C99	C	0.825983	0.377641	0.788126
C100	C	1.325983	0.877641	1.288126
N101	N	0.780348	0.439904	0.824333
N102	N	1.280348	0.939904	1.324333
C103	C	0.547768	-0.010399	0.000102
C104	C	1.047768	0.489601	0.500102
N105	N	0.521254	-0.099345	0.000108
N106	N	1.021254	0.400655	0.500108
C107	C	1.028532	0.101220	0.212064
C108	C	1.528532	0.601220	0.712064
N109	N	1.074166	0.038947	0.175864
N110	N	1.574166	0.538947	0.675864
C111	C	1.019838	0.113051	0.395603
C112	C	1.519838	0.613051	0.895603
N113	N	1.062033	0.055430	0.431807
N114	N	1.562033	0.555430	0.931807
C115	C	0.805876	0.404991	0.212053
C116	C	1.305876	0.904991	0.712053
N117	N	0.763666	0.462585	0.175847
N118	N	1.263666	0.962585	0.675847
H119	H	1.041576	0.083496	0.617067
H120	H	1.541576	0.583496	1.117067
C121	C	0.172345	0.038376	0.000121
C122	C	0.672345	0.538376	0.500121
N123	N	0.145833	-0.050572	0.000126
N124	N	0.645833	0.449428	0.500126
H125	H	1.034085	0.093744	0.775643
H126	H	1.534085	0.593744	1.275643
H127	H	0.849212	0.345915	0.617070
H128	H	1.349212	0.845915	1.117070
H129	H	0.812938	0.395361	0.383117
H130	H	1.312938	0.895361	0.883117
H131	H	0.524579	0.392517	0.000072
H132	H	1.024579	0.892517	0.500072
H133	H	0.297597	0.458591	0.000071
H134	H	0.797597	0.958591	0.500071
C135	C	0.134907	0.469252	0.000098
C136	C	0.634907	0.969252	0.500098
N137	N	0.093622	0.550301	0.000102
N138	N	0.593622	1.050301	0.500102
