data_functionalizedCrystal
_audit_creation_method	'MofGen! by Chris Wilmer'
_symmetry_space_group_name_H-M	'P1'
_symmetry_Int_Tables_number	1
_symmetry_cell_setting	triclinic
loop_
_symmetry_equiv_pos_as_xyz
  x,y,z
_cell_length_a	27.732064
_cell_length_b	27.732048
_cell_length_c	14.750779
_cell_angle_alpha	77.459753
_cell_angle_beta	102.543239
_cell_angle_gamma	82.646040
loop_
_atom_site_label
_atom_site_type_symbol
_atom_site_fract_x
_atom_site_fract_y
_atom_site_fract_z
O1	O	0.630371	0.068100	-0.079670
O2	O	0.963704	0.401433	0.253664
O3	O	1.297038	0.734767	0.586997
O4	O	0.489573	0.076842	-0.079711
O5	O	0.822907	0.410176	0.253623
O6	O	1.156240	0.743509	0.586956
O7	O	0.564348	0.002072	-0.079671
O8	O	0.897681	0.335405	0.253663
O9	O	1.231014	0.668739	0.586996
O10	O	0.555597	0.142870	-0.079710
O11	O	0.888930	0.476204	0.253624
O12	O	1.222264	0.809537	0.586957
O13	O	0.585485	-0.019062	0.079991
O14	O	0.918819	0.314271	0.413324
O15	O	1.252152	0.647604	0.746658
O16	O	0.510711	0.055708	0.079951
O17	O	0.844044	0.389041	0.413284
O18	O	1.177378	0.722375	0.746618
O19	O	0.651509	0.046966	0.079992
O20	O	0.984842	0.380299	0.413325
O21	O	1.318176	0.713632	0.746659
Zn22	Zn	0.584466	0.047981	0.105321
Zn23	Zn	0.917799	0.381315	0.438655
Zn24	Zn	1.251133	0.714648	0.771988
Zn25	Zn	0.556616	0.075827	-0.105040
Zn26	Zn	0.889950	0.409160	0.228293
Zn27	Zn	1.223283	0.742493	0.561627
O28	O	0.576735	0.121736	0.079952
O29	O	0.910068	0.455069	0.413285
O30	O	1.243401	0.788402	0.746619
C31	C	0.482135	0.066091	0.000115
C32	C	0.815468	0.399425	0.333449
C33	C	1.148802	0.732758	0.666782
C34	C	0.428478	0.065537	0.000100
C35	C	0.761812	0.398871	0.333434
C36	C	1.095145	0.732204	0.666767
C37	C	0.574733	-0.026502	0.000163
C38	C	0.908067	0.306831	0.333496
C39	C	1.241400	0.640164	0.666829
C40	C	0.574181	-0.080158	0.000171
C41	C	0.907515	0.253175	0.333504
C42	C	1.240848	0.586508	0.666837
C43	C	0.051415	0.017561	0.000168
C44	C	0.384748	0.350894	0.333502
C45	C	0.718081	0.684228	0.666835
C46	C	0.253072	0.019611	0.000143
C47	C	0.586405	0.352944	0.333476
C48	C	0.919738	0.686277	0.666809
O49	O	0.284330	-0.017616	0.000189
O50	O	0.617664	0.315717	0.333522
O51	O	0.950997	0.649050	0.666856
N52	N	0.272197	0.063947	0.000126
N53	N	0.605530	0.397281	0.333460
N54	N	0.938864	0.730614	0.666793
C55	C	0.240905	0.107774	0.000122
C56	C	0.574239	0.441107	0.333456
C57	C	0.907572	0.774440	0.666789
O58	O	0.261801	0.145530	0.000118
O59	O	0.595134	0.478863	0.333451
O60	O	0.928468	0.812197	0.666784
C61	C	0.039250	0.105722	0.000155
C62	C	0.372584	0.439056	0.333488
C63	C	0.705917	0.772389	0.666821
C64	C	0.020127	0.061384	0.000162
C65	C	0.353460	0.394718	0.333495
C66	C	0.686793	0.728051	0.666828
C67	C	0.032291	-0.026774	0.000176
C68	C	0.365624	0.306560	0.333510
C69	C	0.698957	0.639893	0.666843
C70	C	-0.018121	-0.027285	0.000177
C71	C	0.315212	0.306049	0.333511
C72	C	0.648545	0.639382	0.666844
C73	C	-0.049409	0.016539	0.000171
C74	C	0.283924	0.349872	0.333504
C75	C	0.617257	0.683205	0.666837
C76	C	-0.030285	0.060873	0.000163
C77	C	0.303048	0.394207	0.333496
C78	C	0.636381	0.727540	0.666829
C79	C	0.007961	0.149547	0.000158
C80	C	0.341294	0.482881	0.333491
C81	C	0.674627	0.816214	0.666824
C82	C	-0.042456	0.149030	0.000168
C83	C	0.290878	0.482364	0.333502
C84	C	0.624211	0.815697	0.666835
C85	C	-0.061579	0.104692	0.000175
C86	C	0.271754	0.438026	0.333508
C87	C	0.605088	0.771359	0.666842
C88	C	-0.111985	0.104185	0.000157
C89	C	0.221348	0.437519	0.333490
C90	C	0.554681	0.770852	0.666824
N91	N	-0.131110	0.059849	0.000174
N92	N	0.202223	0.393182	0.333507
N93	N	0.535556	0.726516	0.666840
C94	C	-0.099822	0.016025	0.000180
C95	C	0.233511	0.349359	0.333514
C96	C	0.566844	0.682692	0.666847
C97	C	0.346777	0.108847	0.000103
C98	C	0.680111	0.442181	0.333437
C99	C	1.013444	0.775514	0.666770
C100	C	0.397190	0.109361	0.000094
C101	C	0.730524	0.442694	0.333427
C102	C	1.063857	0.776027	0.666760
C103	C	0.409354	0.021197	0.000116
C104	C	0.742687	0.354531	0.333449
C105	C	1.076020	0.687864	0.666783
C106	C	0.358938	0.020686	0.000119
C107	C	0.692272	0.354019	0.333452
C108	C	1.025605	0.687352	0.666786
C109	C	0.327652	0.064511	0.000120
C110	C	0.660985	0.397844	0.333453
C111	C	0.994319	0.731178	0.666787
C112	C	-0.205692	0.014955	0.000182
C113	C	0.127642	0.348289	0.333515
C114	C	0.460975	0.681622	0.666849
C115	C	-0.256109	0.014448	0.000179
C116	C	0.077224	0.347782	0.333513
C117	C	0.410557	0.681115	0.666846
C118	C	-0.268267	0.102611	0.000162
C119	C	0.065066	0.435944	0.333495
C120	C	0.398399	0.769277	0.666829
C121	C	-0.217855	0.103119	0.000160
C122	C	0.115478	0.436452	0.333493
C123	C	0.448812	0.769785	0.666826
C124	C	-0.186567	0.059286	0.000173
C125	C	0.146766	0.392620	0.333506
C126	C	0.480099	0.725953	0.666840
O127	O	-0.143271	0.141391	0.000122
O128	O	0.190062	0.474724	0.333455
O129	O	0.523396	0.808058	0.666788
O130	O	-0.120725	-0.021728	0.000207
O131	O	0.212609	0.311605	0.333540
O132	O	0.545942	0.644938	0.666873
C133	C	0.101827	0.018072	0.000167
C134	C	0.435160	0.351406	0.333501
C135	C	0.768493	0.684739	0.666834
C136	C	0.120951	0.062407	0.000159
C137	C	0.454284	0.395740	0.333493
C138	C	0.787617	0.729074	0.666826
C139	C	0.089663	0.106230	0.000153
C140	C	0.422996	0.439564	0.333486
C141	C	0.756329	0.772897	0.666819
C142	C	0.171364	0.062920	0.000149
C143	C	0.504697	0.396253	0.333483
C144	C	0.838031	0.729587	0.666816
C145	C	0.202652	0.019097	0.000156
C146	C	0.535985	0.352430	0.333490
C147	C	0.869319	0.685763	0.666823
C148	C	0.183527	-0.025240	0.000173
C149	C	0.516860	0.308094	0.333506
C150	C	0.850193	0.641427	0.666840
C151	C	0.133115	-0.025751	0.000174
C152	C	0.466448	0.307582	0.333507
C153	C	0.799781	0.640916	0.666841
C154	C	0.108788	0.150567	0.000136
C155	C	0.442121	0.483900	0.333469
C156	C	0.775455	0.817233	0.666803
C157	C	0.159200	0.151075	0.000134
C158	C	0.492534	0.484408	0.333467
C159	C	0.825867	0.817741	0.666800
C160	C	0.190488	0.107251	0.000140
C161	C	0.523822	0.440585	0.333474
C162	C	0.857155	0.773918	0.666807
C163	C	0.614880	-0.418966	0.000133
C164	C	0.948213	-0.085633	0.333466
C165	C	1.281547	0.247701	0.666800
C166	C	0.612827	-0.620624	0.000119
C167	C	0.946160	-0.287291	0.333452
C168	C	1.279494	0.046043	0.666786
O169	O	0.650043	-0.651873	0.000088
O170	O	0.983377	-0.318540	0.333421
O171	O	1.316710	0.014793	0.666755
N172	N	0.568491	-0.639749	0.000107
N173	N	0.901824	-0.306415	0.333440
N174	N	1.235157	0.026918	0.666774
C175	C	0.524663	-0.608455	0.000092
C176	C	0.857997	-0.275121	0.333426
C177	C	1.191330	0.058212	0.666759
O178	O	0.486904	-0.629347	0.000072
O179	O	0.820238	-0.296014	0.333405
O180	O	1.153571	0.037319	0.666739
C181	C	0.526716	-0.406797	0.000099
C182	C	0.860049	-0.073464	0.333433
C183	C	1.193383	0.259870	0.666766
C184	C	0.571057	-0.387676	0.000121
C185	C	0.904390	-0.054343	0.333454
C186	C	1.237723	0.278990	0.666788
C187	C	0.659217	-0.399845	0.000154
C188	C	0.992550	-0.066511	0.333487
C189	C	1.325883	0.266822	0.666820
C190	C	0.659730	-0.349434	0.000162
C191	C	0.993064	-0.016101	0.333496
C192	C	1.326397	0.317233	0.666829
C193	C	0.615907	-0.318144	0.000151
C194	C	0.949240	0.015189	0.333484
C195	C	1.282573	0.348522	0.666817
C196	C	0.571570	-0.337266	0.000130
C197	C	0.904903	-0.003932	0.333463
C198	C	1.238237	0.329401	0.666797
C199	C	0.482888	-0.375503	0.000078
C200	C	0.816222	-0.042170	0.333411
C201	C	1.149555	0.291164	0.666744
C202	C	0.483405	-0.325085	0.000077
C203	C	0.816738	0.008248	0.333410
C204	C	1.150072	0.341581	0.666744
C205	C	0.527746	-0.305965	0.000099
C206	C	0.861079	0.027368	0.333432
C207	C	1.194412	0.360702	0.666765
C208	C	0.528260	-0.255565	0.000127
C209	C	0.861593	0.077768	0.333460
C210	C	1.194927	0.411102	0.666793
N211	N	0.572596	-0.236440	0.000139
N212	N	0.905930	0.096893	0.333472
N213	N	1.239263	0.430226	0.666805
C214	C	0.616420	-0.267730	0.000151
C215	C	0.949753	0.065603	0.333484
C216	C	1.283086	0.398937	0.666817
C217	C	0.523589	-0.714329	0.000090
C218	C	0.856923	-0.380995	0.333424
C219	C	1.190256	-0.047662	0.666757
C220	C	0.523076	-0.764743	0.000090
C221	C	0.856410	-0.431410	0.333424
C222	C	1.189743	-0.098076	0.666757
C223	C	0.611240	-0.776909	0.000115
C224	C	0.944573	-0.443575	0.333449
C225	C	1.277907	-0.110242	0.666782
C226	C	0.611753	-0.726494	0.000122
C227	C	0.945087	-0.393161	0.333456
C228	C	1.278420	-0.059827	0.666789
C229	C	0.567926	-0.695204	0.000102
C230	C	0.901259	-0.361870	0.333436
C231	C	1.234592	-0.028537	0.666769
C232	C	0.617495	-0.161863	0.000170
C233	C	0.950828	0.171470	0.333503
C234	C	1.284161	0.504803	0.666836
C235	C	0.618005	-0.111448	0.000182
C236	C	0.951338	0.221885	0.333516
C237	C	1.284672	0.555219	0.666849
C238	C	0.529841	-0.099286	0.000152
C239	C	0.863174	0.234047	0.333486
C240	C	1.196508	0.567380	0.666819
C241	C	0.529331	-0.149698	0.000145
C242	C	0.862665	0.183636	0.333478
C243	C	1.195998	0.516969	0.666811
C244	C	0.573162	-0.180985	0.000150
C245	C	0.906495	0.152348	0.333483
C246	C	1.239828	0.485682	0.666817
O247	O	0.491062	-0.224286	0.000147
O248	O	0.824396	0.109047	0.333480
O249	O	1.157729	0.442381	0.666814
O250	O	0.654171	-0.246825	0.000150
O251	O	0.987504	0.086508	0.333483
O252	O	1.320837	0.419842	0.666816
C253	C	0.614366	-0.469377	0.000124
C254	C	0.947700	-0.136043	0.333458
C255	C	1.281033	0.197290	0.666791
C256	C	0.570030	-0.488498	0.000104
C257	C	0.903363	-0.155165	0.333437
C258	C	1.236696	0.178169	0.666770
C259	C	0.526206	-0.457208	0.000092
C260	C	0.859540	-0.123875	0.333425
C261	C	1.192873	0.209458	0.666758
C262	C	0.569517	-0.538912	0.000104
C263	C	0.902850	-0.205579	0.333437
C264	C	1.236183	0.127754	0.666770
C265	C	0.613340	-0.570202	0.000116
C266	C	0.946673	-0.236869	0.333449
C267	C	1.280007	0.096465	0.666782
C268	C	0.657676	-0.551077	0.000128
C269	C	0.991010	-0.217744	0.333461
C270	C	1.324343	0.115589	0.666794
C271	C	0.658190	-0.500666	0.000136
C272	C	0.991523	-0.167333	0.333470
C273	C	1.324857	0.166000	0.666803
C274	C	0.481870	-0.476333	0.000080
C275	C	0.815203	-0.143000	0.333413
C276	C	1.148536	0.190334	0.666746
C277	C	0.481360	-0.526745	0.000072
C278	C	0.814693	-0.193411	0.333405
C279	C	1.148027	0.139922	0.666739
C280	C	0.525184	-0.558034	0.000084
C281	C	0.858517	-0.224701	0.333417
C282	C	1.191850	0.108632	0.666751
C283	C	0.658947	0.057717	0.000164
C284	C	0.992280	0.391050	0.333497
C285	C	1.325614	0.724384	0.666831
C286	C	0.712603	0.058272	0.000172
C287	C	1.045936	0.391605	0.333506
C288	C	1.379269	0.724938	0.666839
C289	C	0.566349	0.150311	0.000116
C290	C	0.899682	0.483644	0.333450
C291	C	1.233015	0.816977	0.666783
C292	C	0.566900	0.203967	0.000102
C293	C	0.900233	0.537301	0.333436
C294	C	1.233566	0.870634	0.666769
N295	N	0.603476	0.028977	0.248887
N296	N	0.936810	0.362310	0.582220
N297	N	1.270143	0.695644	0.915554
N298	N	0.537610	0.094827	-0.248606
N299	N	0.870943	0.428160	0.084728
N300	N	1.204276	0.761494	0.418061
C301	C	0.484517	0.147881	0.600642
C302	C	0.817850	0.481215	0.933975
C303	C	1.151183	0.814548	1.267308
C304	C	0.497841	0.134568	0.701148
C305	C	0.831175	0.467901	1.034481
C306	C	1.164508	0.801234	1.367814
C307	C	0.564067	0.068383	0.701146
C308	C	0.897401	0.401716	1.034479
C309	C	1.230734	0.735049	1.367813
C310	C	0.550747	0.081689	0.600638
C311	C	0.884080	0.415023	0.933971
C312	C	1.217413	0.748356	1.267304
C313	C	0.510971	0.121439	0.550393
C314	C	0.844305	0.454773	0.883727
C315	C	1.177638	0.788106	1.217060
C316	C	0.577201	0.055247	0.550389
C317	C	0.910534	0.388580	0.883723
C318	C	1.243868	0.721914	1.217056
C319	C	0.563883	0.068554	0.449890
C320	C	0.897216	0.401888	0.783223
C321	C	1.230550	0.735221	1.116557
C322	C	0.524110	0.108304	0.399639
C323	C	0.857444	0.441637	0.732972
C324	C	1.190777	0.774971	1.066305
C325	C	0.497653	0.134747	0.449894
C326	C	0.830986	0.468080	0.783227
C327	C	1.164320	0.801413	1.116561
C328	C	0.616979	0.015500	0.600636
C329	C	0.950312	0.348833	0.933969
C330	C	1.283645	0.682166	1.267302
C331	C	0.643433	-0.010943	0.550387
C332	C	0.976766	0.322391	0.883721
C333	C	1.310100	0.655724	1.217054
C334	C	0.630113	0.002362	0.449886
C335	C	0.963446	0.335696	0.783219
C336	C	1.296779	0.669029	1.116553
C337	C	0.590340	0.042112	0.399635
C338	C	0.923673	0.375445	0.732968
C339	C	1.257007	0.708778	1.066301
C340	C	0.656570	-0.024080	0.399631
C341	C	0.989903	0.309253	0.732964
C342	C	1.323237	0.642586	1.066297
C343	C	0.643252	-0.010773	0.299131
C344	C	0.976585	0.322560	0.632465
C345	C	1.309918	0.655894	0.965798
C346	C	0.577022	0.055419	0.299135
C347	C	0.910355	0.388752	0.632469
C348	C	1.243689	0.722086	0.965802
H349	H	-0.271677	-0.021658	0.000182
H350	H	0.061656	0.311675	0.333516
H351	H	0.394990	0.645009	0.666849
O352	O	-0.171950	-0.032318	0.000190
O353	O	0.161383	0.301015	0.333523
O354	O	0.494717	0.634348	0.666856
H355	H	-0.193726	-0.063228	0.000186
H356	H	0.139607	0.270106	0.333520
H357	H	0.472940	0.603439	0.666853
H358	H	0.465261	0.167112	0.408983
H359	H	0.798594	0.500445	0.742316
H360	H	1.131927	0.833778	1.075650
O361	O	0.534117	0.098287	0.244917
O362	O	0.867450	0.431620	0.578250
O363	O	1.200784	0.764953	0.911583
H364	H	0.542540	0.133382	0.264177
H365	H	0.875873	0.466715	0.597510
H366	H	1.209207	0.800049	0.930844
H367	H	0.694297	-0.485104	0.000154
H368	H	1.027630	-0.151770	0.333487
H369	H	1.360963	0.181563	0.666820
H370	H	0.057762	-0.062462	0.000185
H371	H	0.391095	0.270871	0.333518
H372	H	0.724428	0.604204	0.666852
H373	H	0.513269	0.119140	0.317805
H374	H	0.846602	0.452473	0.651139
H375	H	1.179935	0.785806	0.984472
O376	O	0.665831	-0.090824	0.000205
O377	O	0.999164	0.242509	0.333538
O378	O	1.332498	0.575842	0.666871
H379	H	0.659557	-0.059524	-0.064863
H380	H	0.992890	0.273810	0.268470
H381	H	1.326223	0.607143	0.601804
H382	H	0.452124	0.180246	0.559731
H383	H	0.785458	0.513580	0.893064
H384	H	1.118791	0.846913	1.226397
H385	H	0.646923	-0.802393	0.000126
H386	H	0.980256	-0.469060	0.333459
H387	H	1.313589	-0.135727	0.666792
H388	H	0.653185	-0.187332	0.000170
H389	H	0.986519	0.146002	0.333504
H390	H	1.319852	0.479335	0.666837
H391	H	0.664794	-0.032305	0.258219
H392	H	0.998128	0.301029	0.591552
H393	H	1.331461	0.634362	0.924886
H394	H	0.476296	0.156104	0.742055
H395	H	0.809629	0.489437	1.075388
H396	H	1.142963	0.822771	1.408722
H397	H	-0.033686	-0.063390	0.000187
H398	H	0.299647	0.269943	0.333520
H399	H	0.632981	0.603277	0.666854
H400	H	0.695836	-0.333871	0.000176
H401	H	1.029170	-0.000537	0.333510
H402	H	1.362503	0.332796	0.666843
O403	O	0.217281	-0.072509	0.000193
O404	O	0.550614	0.260825	0.333526
O405	O	0.883948	0.594158	0.666859
H406	H	0.231926	-0.065769	-0.064876
H407	H	0.565259	0.267565	0.268457
H408	H	0.898593	0.600898	0.601790
H409	H	0.343372	-0.015418	0.000125
H410	H	0.676705	0.317915	0.333458
H411	H	1.010039	0.651248	0.666792
O412	O	0.179824	0.198900	0.000123
O413	O	0.513157	0.532233	0.333457
O414	O	0.846491	0.865566	0.666790
H415	H	0.211123	0.192622	0.065198
H416	H	0.544457	0.525956	0.398531
H417	H	0.877790	0.859289	0.731864
O418	O	0.704945	-0.584830	0.000141
O419	O	1.038278	-0.251496	0.333474
O420	O	1.371612	0.081837	0.666807
H421	H	0.697133	-0.623095	0.000126
H422	H	1.030466	-0.289762	0.333459
H423	H	1.363799	0.043572	0.666792
O424	O	0.028583	0.197366	0.000175
O425	O	0.361916	0.530700	0.333508
O426	O	0.695250	0.864033	0.666841
H427	H	-0.001648	0.227745	0.000191
H428	H	0.331686	0.561079	0.333524
H429	H	0.665019	0.894412	0.666858
H430	H	0.647859	-0.710930	0.000139
H431	H	0.981193	-0.377597	0.333473
H432	H	1.314526	-0.044263	0.666806
H433	H	0.694905	-0.425316	0.000160
H434	H	1.028238	-0.091983	0.333493
H435	H	1.361571	0.241351	0.666827
O436	O	0.476314	-0.680589	0.000083
O437	O	0.809647	-0.347255	0.333416
O438	O	1.142981	-0.013922	0.666750
H439	H	0.465812	-0.648711	-0.064995
H440	H	0.799145	-0.315378	0.268338
H441	H	1.132478	0.017956	0.601671
O442	O	0.075043	0.197836	0.000124
O443	O	0.408377	0.531169	0.333458
O444	O	0.741710	0.864503	0.666791
H445	H	0.096816	0.228749	0.000106
H446	H	0.430149	0.562082	0.333440
H447	H	0.763483	0.895415	0.666773
H448	H	0.434837	-0.014485	0.000118
H449	H	0.768170	0.318848	0.333451
H450	H	1.101503	0.652182	0.666785
H451	H	0.627822	0.004668	0.682469
H452	H	0.961155	0.338001	1.015802
H453	H	1.294489	0.671335	1.349135
O454	O	0.417815	0.157182	0.000087
O455	O	0.751149	0.490515	0.333420
O456	O	1.084482	0.823848	0.666753
H457	H	0.387586	0.187564	0.000097
H458	H	0.720920	0.520897	0.333430
H459	H	1.054253	0.854231	0.666764
H460	H	0.596454	0.036019	0.742066
H461	H	0.929787	0.369352	1.075400
H462	H	1.263121	0.702685	1.408733
O463	O	0.475254	-0.785366	0.000080
O464	O	0.808587	-0.452033	0.333413
O465	O	1.141921	-0.118700	0.666746
H466	H	0.444869	-0.755133	0.000062
H467	H	0.778202	-0.421800	0.333396
H468	H	1.111535	-0.088466	0.666729
H469	H	0.321307	0.144538	0.000103
H470	H	0.654640	0.477871	0.333436
H471	H	0.987974	0.811204	0.666770
H472	H	0.446781	-0.391061	0.000054
H473	H	0.780114	-0.057727	0.333388
H474	H	1.113447	0.275606	0.666721
H475	H	-0.067927	0.184719	0.000174
H476	H	0.265407	0.518052	0.333507
H477	H	0.598740	0.851385	0.666840
H478	H	-0.202284	0.139222	0.000153
H479	H	0.131049	0.472556	0.333486
H480	H	0.464383	0.805889	0.666820
H481	H	-0.293752	0.138291	0.000152
H482	H	0.039582	0.471625	0.333485
H483	H	0.372915	0.804958	0.666818
H484	H	0.688958	-0.056442	0.440553
H485	H	1.022292	0.276891	0.773886
H486	H	1.355625	0.610225	1.107219
H487	H	0.445251	-0.542308	0.000063
H488	H	0.778584	-0.208975	0.333396
H489	H	1.111918	0.124358	0.666729
O490	O	0.436134	-0.291339	0.000070
O491	O	0.769467	0.041994	0.333403
O492	O	1.102800	0.375327	0.666736
H493	H	0.406281	-0.289481	-0.065010
H494	H	0.739614	0.043852	0.268324
H495	H	1.072948	0.377186	0.601657
H496	H	0.675820	-0.043306	0.591308
H497	H	1.009153	0.290027	0.924641
H498	H	1.342486	0.623360	1.257974
O499	O	0.481509	-0.170326	0.000124
O500	O	0.814843	0.163007	0.333458
O501	O	1.148176	0.496340	0.666791
H502	H	0.451122	-0.140096	0.000113
H503	H	0.784456	0.193237	0.333447
H504	H	1.117789	0.526570	0.666780
H505	H	0.117549	-0.061856	0.000180
H506	H	0.450883	0.271478	0.333513
H507	H	0.784216	0.604811	0.666847
O508	O	0.482576	-0.065534	0.000143
O509	O	0.815909	0.267799	0.333476
O510	O	1.149242	0.601132	0.666810
H511	H	0.472088	-0.033658	-0.064935
H512	H	0.805421	0.299676	0.268398
H513	H	1.138754	0.633009	0.601731
O514	O	0.434603	-0.442590	0.000084
O515	O	0.767937	-0.109256	0.333418
O516	O	1.101270	0.224077	0.666751
H517	H	0.403693	-0.464364	0.000086
H518	H	0.737026	-0.131031	0.333419
H519	H	1.070359	0.202302	0.666752
