data_functionalizedCrystal
_audit_creation_method	'MofGen! by Chris Wilmer'
_symmetry_space_group_name_H-M	'P1'
_symmetry_Int_Tables_number	1
_symmetry_cell_setting	triclinic
loop_
_symmetry_equiv_pos_as_xyz
  x,y,z
_cell_length_a	11.792254
_cell_length_b	11.792241
_cell_length_c	10.868271
_cell_angle_alpha	90.001559
_cell_angle_beta	90.005560
_cell_angle_gamma	84.196007
loop_
_atom_site_label
_atom_site_type_symbol
_atom_site_fract_x
_atom_site_fract_y
_atom_site_fract_z
O1	O	-1.506901	-0.155631	-0.102357
O2	O	-1.173567	0.177703	0.230976
O3	O	-0.840234	0.511036	0.564309
O4	O	-1.176561	-0.171649	-0.102352
O5	O	-0.843228	0.161685	0.230981
O6	O	-0.509895	0.495018	0.564314
O7	O	-1.349747	0.001530	-0.102346
O8	O	-1.016414	0.334864	0.230987
O9	O	-0.683081	0.668197	0.564320
O10	O	-1.333715	-0.328810	-0.102363
O11	O	-1.000381	0.004523	0.230970
O12	O	-0.667048	0.337857	0.564303
O13	O	-1.349732	0.001525	0.102298
O14	O	-1.016398	0.334858	0.435632
O15	O	-0.683065	0.668192	0.768965
O16	O	-1.176546	-0.171654	0.102292
O17	O	-0.843212	0.161679	0.435626
O18	O	-0.509879	0.495012	0.768959
O19	O	-1.506885	-0.155636	0.102287
O20	O	-1.173551	0.177697	0.435621
O21	O	-0.840218	0.511030	0.768954
Zn22	Zn	-1.341713	-0.163646	0.134781
Zn23	Zn	-1.008379	0.169687	0.468115
Zn24	Zn	-0.675046	0.503020	0.801448
Zn25	Zn	-1.341733	-0.163639	-0.134847
Zn26	Zn	-1.008400	0.169694	0.198487
Zn27	Zn	-0.675067	0.503028	0.531820
O28	O	-1.333699	-0.328815	0.102281
O29	O	-1.000365	0.004518	0.435615
O30	O	-0.667032	0.337851	0.768948
C31	C	-1.134263	-0.170642	-0.000029
C32	C	-0.800929	0.162691	0.333304
C33	C	-0.467596	0.496024	0.666637
C34	C	-1.008250	-0.167622	-0.000027
C35	C	-0.674916	0.165711	0.333306
C36	C	-0.341583	0.499044	0.666639
N37	N	-1.341707	-0.163651	0.318796
N38	N	-1.008373	0.169683	0.652129
N39	N	-0.675040	0.503016	0.985462
C40	C	-1.348732	0.043819	-0.000024
C41	C	-1.015399	0.377152	0.333309
C42	C	-0.682066	0.710485	0.666642
C43	C	-1.345718	0.169832	-0.000026
C44	C	-1.012385	0.503166	0.333308
C45	C	-0.679051	0.836499	0.666641
C46	C	-0.905913	-0.165168	-0.000030
C47	C	-0.572580	0.168165	0.333303
C48	C	-0.239247	0.501498	0.666637
C49	C	-0.777527	-0.162100	-0.000027
C50	C	-0.444193	0.171233	0.333306
C51	C	-0.110860	0.504567	0.666639
C52	C	-0.549183	-0.156643	-0.000033
C53	C	-0.215850	0.176691	0.333301
C54	C	0.117483	0.510024	0.666634
C55	C	-0.675196	-0.159663	-0.000025
C56	C	-0.341863	0.173671	0.333308
C57	C	-0.008530	0.507004	0.666642
C58	C	-1.334714	-0.371104	-0.000043
C59	C	-1.001380	-0.037770	0.333290
C60	C	-0.668047	0.295563	0.666623
C61	C	-1.337728	-0.497118	-0.000050
C62	C	-1.004395	-0.163784	0.333283
C63	C	-0.671061	0.169549	0.666616
C64	C	-1.340175	0.400545	-0.000046
C65	C	-1.006842	0.733878	0.333287
C66	C	-0.673508	1.067212	0.666621
C67	C	-1.343255	0.272160	-0.000035
C68	C	-1.009922	0.605493	0.333298
C69	C	-0.676588	0.938826	0.666632
N70	N	-1.341748	-0.163626	-0.318861
N71	N	-1.008415	0.169708	0.014473
N72	N	-0.675082	0.503041	0.347806
C73	C	-1.341716	-0.163651	0.430133
C74	C	-1.008382	0.169682	0.763467
C75	C	-0.675049	0.503016	1.096800
C76	C	-1.341730	-0.163640	0.569811
C77	C	-1.008397	0.169693	0.903144
C78	C	-0.675064	0.503026	1.236477
