data_functionalizedCrystal
_audit_creation_method	'MofGen! by Chris Wilmer'
_symmetry_space_group_name_H-M	'P1'
_symmetry_Int_Tables_number	1
_symmetry_cell_setting	triclinic
loop_
_symmetry_equiv_pos_as_xyz
  x,y,z
_cell_length_a	15.186229
_cell_length_b	14.971486
_cell_length_c	14.971486
_cell_angle_alpha	83.614129
_cell_angle_beta	89.996046
_cell_angle_gamma	90.001599
loop_
_atom_site_label
_atom_site_type_symbol
_atom_site_fract_x
_atom_site_fract_y
_atom_site_fract_z
O1	O	0.073128	-1.186943	-0.116562
O2	O	0.073152	-0.926543	-0.130520
O3	O	0.073133	-1.063723	0.006659
O4	O	0.073147	-1.049764	-0.253741
O5	O	-0.073324	-1.063713	0.006661
O6	O	-0.073305	-0.926534	-0.130518
O7	O	-0.073330	-1.186934	-0.116560
Zn8	Zn	-0.096571	-1.056733	-0.123539
Zn9	Zn	0.096393	-1.056745	-0.123541
O10	O	-0.073311	-1.049755	-0.253739
C11	C	-0.000074	-0.893214	-0.129895
C12	C	-0.000065	-0.793917	-0.128024
C13	C	-0.000095	-1.063094	0.039985
C14	C	-0.000095	-1.061223	0.139282
N15	N	-0.228263	-1.056731	-0.123536
C16	C	-0.453995	-1.117495	-0.062814
C17	C	-0.546184	-1.117498	-0.062812
C18	C	-0.546177	-0.995983	-0.184262
C19	C	-0.453989	-0.995977	-0.184259
C20	C	-0.407900	-1.056738	-0.123536
C21	C	-0.592278	-1.056747	-0.123537
C22	C	-0.692234	-1.056749	-0.123535
C23	C	-0.307938	-1.056734	-0.123536
N24	N	0.228086	-1.056754	-0.123536
C25	C	-0.000102	-1.220263	-0.117185
C26	C	-0.000105	-1.319561	-0.119056
C27	C	-0.000062	-0.736692	-0.208614
C28	C	-0.000075	-0.643392	-0.206850
C29	C	-0.000085	-0.607320	-0.124497
C30	C	-0.000091	-0.664552	-0.043902
C31	C	-0.000084	-0.757850	-0.045666
C32	C	-0.000103	-0.470090	-0.040231
C33	C	-0.000108	-0.376786	-0.038466
C34	C	-0.000094	-0.355632	-0.201415
C35	C	-0.000087	-0.448930	-0.203179
C36	C	-0.000091	-0.506156	-0.122584
C37	C	-0.000080	-1.050384	-0.287065
C38	C	-0.000076	-1.052254	-0.386362
C39	C	-0.000103	-1.141812	0.196507
C40	C	-0.000094	-1.140049	0.289807
C41	C	-0.000083	-1.057696	0.325879
C42	C	-0.000072	-0.977101	0.268646
C43	C	-0.000075	-0.978865	0.175349
C44	C	-0.000069	-0.973430	0.463109
C45	C	-0.000067	-0.971665	0.556413
C46	C	-0.000087	-1.134614	0.577567
C47	C	-0.000090	-1.136378	0.484269
C48	C	-0.000081	-1.055782	0.427043
H49	H	-0.416471	-1.166969	-0.013368
Br50	Br	-0.000098	-1.243995	0.655229
Br51	Br	-0.608740	-1.199952	0.019604
Br52	Br	-0.000096	-0.835515	0.063710
Br53	Br	-0.000151	-0.327830	0.073300
Br54	Br	-0.000113	-0.547754	0.069150
H55	H	-0.000058	-0.910047	0.298024
Br56	Br	-0.000104	-1.249425	0.367467
Br57	Br	-0.000113	-0.615598	0.067865
H58	H	-0.000053	-0.766054	-0.275675
H59	H	-0.000105	-1.203437	0.454903
H60	H	-0.583711	-0.946514	-0.233703
Br61	Br	-0.000130	-1.253584	0.147562
H62	H	-0.416456	-0.946497	-0.233707
Br63	Br	-0.000057	-0.859899	0.605368
Br64	Br	-0.000053	-0.864048	0.385445
Br65	Br	-0.000068	-0.565731	-0.316227
H66	H	-0.000071	-0.478296	-0.270239
H67	H	-0.000095	-0.309033	-0.267039
H68	H	-0.000068	-0.913240	0.128756
