data_functionalizedCrystal
_audit_creation_method	'MofGen! by Chris Wilmer'
_symmetry_space_group_name_H-M	'P1'
_symmetry_Int_Tables_number	1
_symmetry_cell_setting	triclinic
loop_
_symmetry_equiv_pos_as_xyz
  x,y,z
_cell_length_a	13.185408
_cell_length_b	17.699083
_cell_length_c	16.776229
_cell_angle_alpha	90.007545
_cell_angle_beta	89.994715
_cell_angle_gamma	112.371743
loop_
_atom_site_label
_atom_site_type_symbol
_atom_site_fract_x
_atom_site_fract_y
_atom_site_fract_z
O1	O	1.447494	0.197280	-0.066222
O2	O	1.129794	0.120521	-0.066238
O3	O	1.297620	0.270906	-0.066223
O4	O	1.279668	0.046894	-0.066238
O5	O	1.297597	0.270909	0.066354
O6	O	1.129771	0.120523	0.066338
O7	O	1.447472	0.197283	0.066355
Zn8	Zn	1.288618	0.158903	0.087396
Zn9	Zn	1.288647	0.158900	-0.087279
O10	O	1.279646	0.046897	0.066339
C11	C	1.089133	0.112740	0.000048
C12	C	0.968012	0.089562	0.000042
C13	C	0.897923	0.007036	0.000034
C14	C	0.784123	-0.014744	0.000040
C15	C	0.740400	0.046001	0.000047
C16	C	0.810489	0.128529	0.000048
C17	C	0.924300	0.150310	0.000049
C18	C	0.766777	0.189275	0.000061
C19	C	0.836866	0.271803	0.000063
C20	C	0.950666	0.293581	0.000063
C21	C	0.994389	0.232836	0.000056
C22	C	0.652965	0.167493	0.000061
C23	C	0.679343	0.310768	0.000075
C24	C	0.793143	0.332547	0.000069
C25	C	1.296965	0.298975	0.000066
C26	C	1.295036	0.382602	0.000066
C27	C	1.488132	0.205063	0.000067
C28	C	1.609254	0.228241	0.000068
N29	N	1.288606	0.158908	0.206607
C30	C	1.280300	0.018829	0.000049
C31	C	1.282230	-0.064799	0.000043
C32	C	1.393546	0.451163	0.000072
C33	C	1.391726	0.529738	0.000065
C34	C	1.291395	0.539750	0.000057
C35	C	1.192877	0.471182	0.000049
C36	C	1.194698	0.392608	0.000050
C37	C	1.185532	0.788058	0.000042
C38	C	1.183718	0.866639	0.000043
C39	C	1.382560	0.925187	0.000057
C40	C	1.384381	0.846614	0.000058
C41	C	1.285864	0.778053	0.000045
C42	C	1.287838	0.692853	0.000052
C43	C	1.289420	0.624948	0.000057
N44	N	1.288668	0.158903	-0.206491
C45	C	1.362942	0.225482	0.248331
C46	C	1.362948	0.225484	0.331783
C47	C	1.288623	0.158908	0.373510
C48	C	1.214279	0.092330	0.331780
C49	C	1.214268	0.092331	0.248329
C50	C	1.214318	0.092323	0.668327
C51	C	1.214336	0.092326	0.751784
C52	C	1.362998	0.225476	0.751781
C53	C	1.362988	0.225477	0.668331
C54	C	1.288640	0.158901	0.626608
C55	C	1.288633	0.158901	0.536120
C56	C	1.288634	0.158906	0.463997
H57	H	1.087053	0.250565	0.000054
Br58	Br	1.113460	0.001966	0.808413
H59	H	1.423477	0.279694	0.365755
Br60	Br	1.045785	0.405583	0.000084
H61	H	1.102012	0.874784	0.000038
H62	H	1.153784	0.038114	0.634363
H63	H	1.114480	0.336784	0.000045
Br64	Br	0.957266	-0.075393	0.000033
Br65	Br	0.620015	0.393212	0.000092
H66	H	1.105312	0.732243	0.000032
Br67	Br	0.888275	0.444546	0.000072
Br68	Br	0.585954	0.016442	0.000053
H69	H	1.423514	0.279688	0.634359
Br70	Br	1.056711	0.484768	0.000025
H71	H	1.475247	0.443020	0.000084
H72	H	1.471944	0.585560	0.000072
H73	H	1.466081	0.838469	0.000069
H74	H	1.153756	0.038124	0.365759
H75	H	1.462778	0.981021	0.000063
Br76	Br	1.463827	0.315837	0.191711
Br77	Br	1.463899	0.315832	0.808408
H78	H	0.595910	0.100298	0.000061
Br79	Br	0.689010	-0.126740	0.000036
H80	H	1.153735	0.038121	0.214358
