data_functionalizedCrystal
_audit_creation_method	'MofGen! by Chris Wilmer'
_symmetry_space_group_name_H-M	'P1'
_symmetry_Int_Tables_number	1
_symmetry_cell_setting	triclinic
loop_
_symmetry_equiv_pos_as_xyz
  x,y,z
_cell_length_a	19.077068
_cell_length_b	19.077142
_cell_length_c	19.076919
_cell_angle_alpha	90.074357
_cell_angle_beta	85.529249
_cell_angle_gamma	89.885450
loop_
_atom_site_label
_atom_site_type_symbol
_atom_site_fract_x
_atom_site_fract_y
_atom_site_fract_z
Zn1	Zn	-0.340467	-1.044046	0.453535
Zn2	Zn	0.159533	-0.544046	0.953535
Zn3	Zn	-0.453617	-1.043960	0.340376
Zn4	Zn	0.046383	-0.543960	0.840376
Zn5	Zn	-0.331038	-0.931658	0.330962
Zn6	Zn	0.168962	-0.431658	0.830962
Zn7	Zn	-0.453191	-0.921799	0.453108
Zn8	Zn	0.046809	-0.421799	0.953108
O9	O	-0.394578	-0.985366	0.394495
O10	O	0.105422	-0.485366	0.894495
O11	O	-0.359601	-1.142194	0.442642
O12	O	0.140399	-0.642194	0.942642
O13	O	-0.433589	-1.033152	0.240651
O14	O	0.066411	-0.533152	0.740651
O15	O	-0.233814	-0.950729	0.343461
O16	O	0.266186	-0.450729	0.843461
O17	O	-0.442732	-1.142130	0.359505
O18	O	0.057268	-0.642130	0.859505
O19	O	-0.240742	-1.033300	0.433514
O20	O	0.259258	-0.533300	0.933514
O21	O	-0.343531	-0.950645	0.233735
O22	O	0.156469	-0.450645	0.733735
O23	O	-0.343117	-0.832191	0.343047
O24	O	0.156883	-0.332191	0.843047
O25	O	-0.442005	-0.933926	0.551640
O26	O	0.057995	-0.433926	1.051640
O27	O	-0.432862	-0.824948	0.432787
O28	O	0.067138	-0.324948	0.932787
O29	O	-0.359188	-1.023740	0.551954
O30	O	0.140812	-0.523740	1.051954
O31	O	-0.552035	-1.023592	0.359091
O32	O	-0.052035	-0.523592	0.859091
O33	O	-0.551722	-0.933842	0.441915
O34	O	-0.051722	-0.433842	0.941915
C35	C	-0.577413	-0.977656	0.401494
C36	C	-0.077413	-0.477656	0.901494
C37	C	-0.655634	-0.974421	0.404515
C38	C	-0.155634	-0.474421	0.904515
C39	C	-0.386921	-0.803118	0.386849
C40	C	0.113079	-0.303118	0.886849
C41	C	-0.383663	-0.725150	0.383596
C42	C	0.116337	-0.225150	0.883596
C43	C	-0.692526	-1.019663	0.362850
C44	C	-0.192526	-0.519663	0.862850
C45	C	-0.766023	-1.016624	0.365696
C46	C	-0.266023	-0.516624	0.865696
C47	C	-0.802628	-0.968340	0.410202
C48	C	-0.302628	-0.468340	0.910202
C49	C	-0.765732	-0.923096	0.451871
C50	C	-0.265732	-0.423096	0.951871
C51	C	-0.692236	-0.926139	0.449029
C52	C	-0.192236	-0.426139	0.949029
C53	C	-1.022422	-0.954229	0.423325
C54	C	-0.522422	-0.454229	0.923325
C55	C	-1.095922	-0.951188	0.426162
C56	C	-0.595922	-0.451188	0.926162
C57	C	-1.096209	-1.044718	0.339988
C58	C	-0.596209	-0.544718	0.839988
C59	C	-1.022711	-1.047753	0.337147
C60	C	-0.522711	-0.547753	0.837147
C61	C	-0.985822	-1.002512	0.378818
C62	C	-0.485822	-0.502512	0.878818
N63	N	-0.877754	-0.965231	0.413109
N64	N	-0.377754	-0.465231	0.913109
N65	N	-0.910697	-1.005625	0.375914
N66	N	-0.410697	-0.505625	0.875914
C67	C	-0.428922	-0.684768	0.428722
C68	C	0.071078	-0.184768	0.928722
C69	C	-0.425852	-0.611509	0.425668
C70	C	0.074148	-0.111509	0.925668
C71	C	-0.377525	-0.578633	0.377484
C72	C	0.122475	-0.078633	0.877484
C73	C	-0.332260	-0.619021	0.332356
C74	C	0.167740	-0.119021	0.832356
C75	C	-0.335328	-0.692278	0.335414
C76	C	0.164672	-0.192278	0.835414
C77	C	-0.363329	-0.359939	0.363338
C78	C	0.136671	0.140061	0.863338
C79	C	-0.360266	-0.286676	0.360282
C80	C	0.139734	0.213324	0.860282
C81	C	-0.453858	-0.279169	0.453596
C82	C	0.046142	0.220831	0.953596
C83	C	-0.456924	-0.352428	0.456647
C84	C	0.043076	0.147572	0.956647
C85	C	-0.411657	-0.392810	0.411521
C86	C	0.088343	0.107190	0.911521
N87	N	-0.374386	-0.503751	0.374359
N88	N	0.125614	-0.003751	0.874359
N89	N	-0.414792	-0.467691	0.414650
N90	N	0.085208	0.032309	0.914650
C91	C	-0.211031	-0.993124	0.387485
C92	C	0.288969	-0.493124	0.887485
C93	C	-0.132814	-0.996430	0.384498
C94	C	0.367186	-0.496430	0.884498
C95	C	-0.401601	-0.977743	0.578045
C96	C	0.098399	-0.477743	1.078045
C97	C	-0.404593	-0.974495	0.656263
C98	C	0.095407	-0.474495	1.156263
C99	C	-0.402262	-0.168326	0.402163
C100	C	0.097738	0.331674	0.902163
C101	C	-0.405526	-0.246294	0.405409
C102	C	0.094474	0.253706	0.905409
C103	C	-0.387534	-0.993001	0.211659
C104	C	0.112466	-0.493001	0.711659
C105	C	-0.384349	-0.996394	0.133440
C106	C	0.115651	-0.496394	0.633440
C107	C	-0.362883	-1.019728	0.693174
C108	C	0.137117	-0.519728	1.193174
C109	C	-0.365691	-1.016667	0.766668
C110	C	0.134309	-0.516667	1.266668
C111	C	-0.410215	-0.968376	0.803249
C112	C	0.089785	-0.468376	1.303249
C113	C	-0.451927	-0.923138	0.766332
C114	C	0.048073	-0.423138	1.266332
C115	C	-0.449114	-0.926196	0.692840
C116	C	0.050886	-0.426196	1.192840
C117	C	-0.423248	-0.954214	1.023031
C118	C	0.076752	-0.454214	1.523031
C119	C	-0.426060	-0.951161	1.096528
C120	C	0.073940	-0.451161	1.596528
C121	C	-0.339822	-1.044689	1.096859
C122	C	0.160178	-0.544689	1.596859
C123	C	-0.337016	-1.047745	1.023365
C124	C	0.162984	-0.547745	1.523365
C125	C	-0.378726	-1.002505	0.986454
C126	C	0.121274	-0.502505	1.486454
N127	N	-0.413089	-0.965248	0.878372
N128	N	0.086911	-0.465248	1.378372
N129	N	-0.375848	-1.005630	0.911333
N130	N	0.124152	-0.505630	1.411333
H131	H	-0.796056	-1.053465	0.331768
H132	H	-0.296056	-0.553465	0.831768
C133	C	-0.510108	-0.388590	0.509623
C134	C	-0.010108	0.111410	1.009623
H135	H	-0.505465	-0.438003	0.504968
H136	H	-0.005465	0.061997	1.004968
H137	H	-0.501220	-0.375075	0.556041
H138	H	-0.001220	0.124925	1.056041
H139	H	-0.556465	-0.375008	0.500521
H140	H	-0.056465	0.124992	1.000521
H141	H	-0.326629	-1.059053	0.663395
H142	H	0.173371	-0.559053	1.163395
C143	C	-0.319813	-1.066427	0.807268
C144	C	0.180187	-0.566427	1.307268
H145	H	-0.292901	-1.095631	0.774956
H146	H	0.207099	-0.595631	1.274956
H147	H	-0.289118	-1.039702	0.833639
H148	H	0.210882	-0.539702	1.333639
H149	H	-0.349120	-1.094659	0.838249
H150	H	0.150880	-0.594659	1.338249
C151	C	-1.136786	-1.094484	0.294156
C152	C	-0.636786	-0.594484	0.794156
H153	H	-1.104458	-1.123672	0.267240
H154	H	-0.604458	-0.623672	0.767240
H155	H	-1.167732	-1.122721	0.323487
H156	H	-0.667732	-0.622721	0.823487
H157	H	-1.163191	-1.067758	0.263454
H158	H	-0.663191	-0.567758	0.763454
H159	H	-0.305864	-1.081520	1.126919
H160	H	0.194136	-0.581520	1.626919
C161	C	-0.313542	-0.404352	0.313701
C162	C	0.186458	0.095648	0.813701
H163	H	-0.322281	-0.452691	0.322425
H164	H	0.177719	0.047309	0.822425
H165	H	-0.321453	-0.393871	0.266292
H166	H	0.178547	0.106129	0.766292
H167	H	-0.266169	-0.393905	0.321773
H168	H	0.233831	0.106095	0.821773
H169	H	-1.125725	-0.911877	0.462417
H170	H	-0.625725	-0.411877	0.962417
H171	H	-0.292908	-0.592248	0.293126
H172	H	0.207092	-0.092248	0.793126
H173	H	-0.298469	-0.725157	0.298671
H174	H	0.201531	-0.225157	0.798671
C175	C	-0.503640	-0.234749	0.503236
C176	C	-0.003640	0.265251	1.003236
H177	H	-0.494890	-0.186411	0.494520
H178	H	0.005110	0.313589	0.994520
H179	H	-0.551013	-0.245191	0.495174
H180	H	-0.051013	0.254809	0.995174
H181	H	-0.495719	-0.245234	0.550646
H182	H	0.004281	0.254766	1.050646
C183	C	-0.500903	-0.870020	0.806570
C184	C	-0.000903	-0.370020	1.306570
H185	H	-0.496611	-0.874682	0.855627
H186	H	0.003389	-0.374682	1.355627
H187	H	-0.488165	-0.823826	0.792153
H188	H	0.011835	-0.323826	1.292153
H189	H	-0.548157	-0.878794	0.796760
H190	H	-0.048157	-0.378794	1.296760
C191	C	-0.981851	-0.904454	0.469149
C192	C	-0.481851	-0.404454	0.969149
H193	H	-1.014179	-0.875256	0.496052
H194	H	-0.514179	-0.375256	0.996052
H195	H	-0.955440	-0.931166	0.499851
H196	H	-0.455440	-0.431166	0.999851
H197	H	-0.950909	-0.876216	0.439806
H198	H	-0.450909	-0.376216	0.939806
H199	H	-0.992909	-1.087070	0.300906
H200	H	-0.492909	-0.587070	0.800906
H201	H	-0.483072	-0.889356	0.662787
H202	H	0.016928	-0.389356	1.162787
H203	H	-0.320904	-0.259912	0.321049
H204	H	0.179096	0.240088	0.821049
H205	H	-0.795541	-0.883785	0.488112
H206	H	-0.295541	-0.383785	0.988112
H207	H	-0.662727	-1.058978	0.326606
H208	H	-0.162727	-0.558978	0.826606
H209	H	-0.662200	-0.889299	0.482957
H210	H	-0.162200	-0.389299	0.982957
H211	H	-0.462318	-0.911834	1.126311
H212	H	0.037682	-0.411834	1.626311
H213	H	-0.300762	-1.087071	0.993586
H214	H	0.199238	-0.587071	1.493586
H215	H	-0.468278	-0.711529	0.467956
H216	H	0.031722	-0.211529	0.967956
C217	C	-0.475679	-0.567091	0.475265
C218	C	0.024321	-0.067091	0.975265
H219	H	-0.504918	-0.597163	0.504381
H220	H	-0.004918	-0.097163	1.004381
H221	H	-0.448827	-0.538354	0.503767
H222	H	0.051173	-0.038354	1.003767
H223	H	-0.504056	-0.538361	0.448231
H224	H	-0.004056	-0.038361	0.948231
H225	H	-0.457222	-0.917386	0.992988
H226	H	0.042778	-0.417386	1.492988
