data_functionalizedCrystal
_audit_creation_method	'MofGen! by Chris Wilmer'
_symmetry_space_group_name_H-M	'P1'
_symmetry_Int_Tables_number	1
_symmetry_cell_setting	triclinic
loop_
_symmetry_equiv_pos_as_xyz
  x,y,z
_cell_length_a	14.519731
_cell_length_b	16.109301
_cell_length_c	15.186229
_cell_angle_alpha	90.000638
_cell_angle_beta	89.995270
_cell_angle_gamma	96.424833
loop_
_atom_site_label
_atom_site_type_symbol
_atom_site_fract_x
_atom_site_fract_y
_atom_site_fract_z
O1	O	0.118539	-1.103344	-0.073175
O2	O	0.368539	-0.853344	0.176825
O3	O	0.618539	-0.603344	0.426825
O4	O	0.868539	-0.353344	0.676825
O5	O	0.133291	-0.861309	-0.073189
O6	O	0.383291	-0.611309	0.176811
O7	O	0.633291	-0.361309	0.426811
O8	O	0.883291	-0.111309	0.676811
O9	O	-0.008336	-0.988734	-0.073174
O10	O	0.241664	-0.738734	0.176826
O11	O	0.491664	-0.488734	0.426826
O12	O	0.741664	-0.238734	0.676826
O13	O	0.260165	-0.975918	-0.073190
O14	O	0.510165	-0.725918	0.176810
O15	O	0.760165	-0.475918	0.426810
O16	O	1.010165	-0.225918	0.676810
O17	O	-0.008338	-0.988726	0.073284
O18	O	0.241662	-0.738726	0.323284
O19	O	0.491662	-0.488726	0.573284
O20	O	0.741662	-0.238726	0.823284
O21	O	0.133289	-0.861300	0.073268
O22	O	0.383289	-0.611300	0.323268
O23	O	0.633289	-0.361300	0.573268
O24	O	0.883289	-0.111300	0.823268
O25	O	0.118537	-1.103335	0.073282
O26	O	0.368537	-0.853335	0.323282
O27	O	0.618537	-0.603335	0.573282
O28	O	0.868537	-0.353335	0.823282
Zn29	Zn	0.125912	-0.982316	0.096529
Zn30	Zn	0.375912	-0.732316	0.346529
Zn31	Zn	0.625912	-0.482316	0.596529
Zn32	Zn	0.875912	-0.232316	0.846529
Zn33	Zn	0.125915	-0.982328	-0.096435
Zn34	Zn	0.375915	-0.732328	0.153565
Zn35	Zn	0.625915	-0.482328	0.403565
Zn36	Zn	0.875915	-0.232328	0.653565
O37	O	0.260163	-0.975910	0.073267
O38	O	0.510163	-0.725910	0.323267
O39	O	0.760163	-0.475910	0.573267
O40	O	1.010163	-0.225910	0.823267
C41	C	0.132692	-0.830328	0.000038
C42	C	0.382692	-0.580328	0.250038
C43	C	0.632692	-0.330328	0.500038
C44	C	0.882692	-0.080328	0.750038
C45	C	0.130901	-0.738030	0.000033
C46	C	0.380901	-0.488030	0.250033
C47	C	0.630901	-0.238030	0.500033
C48	C	0.880901	0.011970	0.750033
C49	C	-0.042695	-0.988129	0.000055
C50	C	0.207305	-0.738129	0.250055
C51	C	0.457305	-0.488129	0.500055
C52	C	0.707305	-0.238129	0.750055
C53	C	-0.145072	-0.986330	0.000056
C54	C	0.104928	-0.736330	0.250056
C55	C	0.354928	-0.486330	0.500056
C56	C	0.604928	-0.236330	0.750056
C57	C	0.119135	-1.134316	0.000054
C58	C	0.369135	-0.884316	0.250054
C59	C	0.619135	-0.634316	0.500054
C60	C	0.869135	-0.384316	0.750054
C61	C	0.120927	-1.226614	0.000053
C62	C	0.370927	-0.976614	0.250053
C63	C	0.620927	-0.726614	0.500053
C64	C	0.870927	-0.476614	0.750053
C65	C	-0.228213	-0.984868	0.000054
C66	C	0.021787	-0.734868	0.250054
C67	C	0.271787	-0.484868	0.500054
C68	C	0.521787	-0.234868	0.750054
C69	C	-0.332518	-0.983041	0.000047
C70	C	-0.082518	-0.733041	0.250047
C71	C	0.167482	-0.483041	0.500047
C72	C	0.417482	-0.233041	0.750047
C73	C	-0.415654	-0.981591	0.000041
C74	C	-0.165654	-0.731591	0.250041
C75	C	0.084346	-0.481591	0.500041
C76	C	0.334346	-0.231591	0.750041
C77	C	-0.519965	-0.979764	0.000036
C78	C	-0.269965	-0.729764	0.250036
C79	C	-0.019965	-0.479764	0.500036
C80	C	0.230035	-0.229764	0.750036
C81	C	0.294523	-0.976515	0.000036
C82	C	0.544523	-0.726515	0.250036
C83	C	0.794523	-0.476515	0.500036
C84	C	1.044523	-0.226515	0.750036
C85	C	0.396899	-0.978314	0.000030
C86	C	0.646899	-0.728314	0.250030
C87	C	0.896899	-0.478314	0.500030
C88	C	1.146899	-0.228314	0.750030
N89	N	0.125910	-0.982315	0.228221
N90	N	0.375910	-0.732315	0.478221
N91	N	0.625910	-0.482315	0.728221
N92	N	0.875910	-0.232315	0.978221
C93	C	0.210773	-0.515901	0.000038
C94	C	0.460773	-0.265901	0.250038
C95	C	0.710773	-0.015901	0.500038
C96	C	0.960773	0.234099	0.750038
C97	C	0.209083	-0.429178	0.000044
C98	C	0.459083	-0.179178	0.250044
C99	C	0.709083	0.070822	0.500044
C100	C	0.959083	0.320822	0.750044
C101	C	0.041048	-0.448750	0.000050
C102	C	0.291048	-0.198750	0.250050
C103	C	0.541048	0.051250	0.500050
C104	C	0.791048	0.301250	0.750050
C105	C	0.042739	-0.535471	0.000051
C106	C	0.292739	-0.285471	0.250051
C107	C	0.542739	-0.035471	0.500051
C108	C	0.792739	0.214529	0.750051
C109	C	0.127605	-0.569045	0.000040
C110	C	0.377605	-0.319045	0.250040
C111	C	0.627605	-0.069045	0.500040
C112	C	0.877605	0.180955	0.750040
C113	C	0.124223	-0.395599	0.000045
C114	C	0.374223	-0.145599	0.250045
C115	C	0.624223	0.104401	0.500045
C116	C	0.874223	0.354401	0.750045
C117	C	0.122389	-0.301570	0.000052
C118	C	0.372389	-0.051570	0.250052
C119	C	0.622389	0.198430	0.500052
C120	C	0.872389	0.448430	0.750052
C121	C	0.129439	-0.663080	0.000036
C122	C	0.379439	-0.413080	0.250036
C123	C	0.629439	-0.163080	0.500036
C124	C	0.879439	0.086920	0.750036
N125	N	0.125910	-0.982336	-0.228128
N126	N	0.375910	-0.732336	0.021872
N127	N	0.625910	-0.482336	0.271872
N128	N	0.875910	-0.232336	0.521872
C129	C	0.063219	-1.038758	0.453951
C130	C	0.313219	-0.788758	0.703951
C131	C	0.563219	-0.538758	0.953951
C132	C	0.813219	-0.288758	1.203951
C133	C	0.063217	-1.038761	0.546141
C134	C	0.313217	-0.788761	0.796141
C135	C	0.563217	-0.538761	1.046141
C136	C	0.813217	-0.288761	1.296141
C137	C	0.188604	-0.925886	0.546136
C138	C	0.438604	-0.675886	0.796136
C139	C	0.688604	-0.425886	1.046136
C140	C	0.938604	-0.175886	1.296136
C141	C	0.188601	-0.925880	0.453948
C142	C	0.438601	-0.675880	0.703948
C143	C	0.688601	-0.425880	0.953948
C144	C	0.938601	-0.175880	1.203948
C145	C	0.125910	-0.982321	0.407858
C146	C	0.375910	-0.732321	0.657858
C147	C	0.625910	-0.482321	0.907858
C148	C	0.875910	-0.232321	1.157858
C149	C	0.125910	-0.982330	0.592235
C150	C	0.375910	-0.732330	0.842235
C151	C	0.625910	-0.482330	1.092235
C152	C	0.875910	-0.232330	1.342235
C153	C	0.125908	-0.982332	0.692192
C154	C	0.375908	-0.732332	0.942192
C155	C	0.625908	-0.482332	1.192192
C156	C	0.875908	-0.232332	1.442192
C157	C	0.125910	-0.982318	0.307895
C158	C	0.375910	-0.732318	0.557895
C159	C	0.625910	-0.482318	0.807895
C160	C	0.875910	-0.232318	1.057895
H161	H	0.279876	-0.543233	0.000036
H162	H	0.529876	-0.293233	0.250036
H163	H	0.779876	-0.043233	0.500036
H164	H	1.029876	0.206767	0.750036
O165	O	0.298785	-0.371856	0.000038
O166	O	0.548785	-0.121856	0.250038
O167	O	0.798785	0.128144	0.500038
O168	O	1.048785	0.378144	0.750038
H169	H	0.358077	-0.409774	0.000026
H170	H	0.608077	-0.159774	0.250026
H171	H	0.858077	0.090226	0.500026
H172	H	1.108077	0.340226	0.750026
O173	O	-0.046971	-0.592797	0.000062
O174	O	0.203029	-0.342797	0.250062
O175	O	0.453029	-0.092797	0.500062
O176	O	0.703029	0.157203	0.750062
H177	H	-0.050216	-0.632785	-0.059625
H178	H	0.199784	-0.382785	0.190375
H179	H	0.449784	-0.132785	0.440375
H180	H	0.699784	0.117215	0.690375
H181	H	-0.028047	-0.421403	0.000064
H182	H	0.221953	-0.171403	0.250064
H183	H	0.471953	0.078597	0.500064
H184	H	0.721953	0.328597	0.750064
H185	H	0.012170	-1.084714	0.416427
H186	H	0.262170	-0.834714	0.666427
H187	H	0.512170	-0.584714	0.916427
H188	H	0.762170	-0.334714	1.166427
H189	H	0.012167	-1.084716	0.583667
H190	H	0.262167	-0.834716	0.833667
H191	H	0.512167	-0.584716	1.083667
H192	H	0.762167	-0.334716	1.333667
H193	H	0.239648	-0.879935	0.583672
H194	H	0.489648	-0.629935	0.833672
H195	H	0.739648	-0.379935	1.083672
H196	H	0.989648	-0.129935	1.333672
O197	O	0.256224	-0.865009	0.404223
O198	O	0.506224	-0.615009	0.654223
O199	O	0.756224	-0.365009	0.904223
O200	O	1.006224	-0.115009	1.154223
H201	H	0.299828	-0.825773	0.451758
H202	H	0.549828	-0.575773	0.701758
H203	H	0.799828	-0.325773	0.951758
H204	H	1.049828	-0.075773	1.201758
