data_functionalizedCrystal
_audit_creation_method	'MofGen! by Chris Wilmer'
_symmetry_space_group_name_H-M	'P1'
_symmetry_Int_Tables_number	1
_symmetry_cell_setting	triclinic
loop_
_symmetry_equiv_pos_as_xyz
  x,y,z
_cell_length_a	29.839134
_cell_length_b	29.839131
_cell_length_c	29.839125
_cell_angle_alpha	90.011606
_cell_angle_beta	90.025965
_cell_angle_gamma	90.034165
loop_
_atom_site_label
_atom_site_type_symbol
_atom_site_fract_x
_atom_site_fract_y
_atom_site_fract_z
Zn1	Zn	0.686727	-0.179030	0.254153
Zn2	Zn	0.686657	-0.254134	0.179023
Zn3	Zn	0.611608	-0.179010	0.179019
Zn4	Zn	0.611557	-0.254124	0.254108
O5	O	0.649137	-0.216575	0.216576
O6	O	0.749585	-0.189006	0.244207
O7	O	0.676693	-0.244164	0.116155
O8	O	0.621623	-0.116145	0.189003
O9	O	0.749533	-0.244184	0.189009
O10	O	0.676812	-0.116160	0.244204
O11	O	0.621555	-0.188971	0.116153
O12	O	0.548734	-0.188961	0.188960
O13	O	0.621537	-0.244168	0.316981
O14	O	0.548697	-0.244148	0.244127
O15	O	0.676764	-0.188996	0.317014
O16	O	0.676645	-0.317000	0.188966
O17	O	0.621469	-0.316993	0.244131
C18	C	0.532415	-0.216551	0.216539
C19	C	0.482480	-0.216552	0.216534
C20	C	0.125900	-0.187797	0.187909
C21	C	0.313573	-0.187784	0.187882
O22	O	0.337843	-0.163297	0.163502
N23	N	0.337035	-0.216559	0.216556
C24	C	0.313576	-0.245338	0.245242
O25	O	0.337839	-0.269810	0.269634
C26	C	0.125904	-0.245348	0.245271
C27	C	0.102444	-0.216574	0.216591
C28	C	0.102440	-0.159024	0.159232
C29	C	0.055524	-0.159030	0.159237
C30	C	0.032069	-0.187807	0.187920
C31	C	0.055529	-0.216579	0.216597
C32	C	0.102446	-0.274124	0.273958
C33	C	0.055525	-0.274123	0.273964
C34	C	0.032065	-0.245349	0.245284
C35	C	-0.014842	-0.245362	0.245284
N36	N	-0.038305	-0.216586	0.216610
C37	C	-0.014849	-0.187809	0.187927
C38	C	0.412107	-0.245331	0.245224
C39	C	0.459025	-0.245330	0.245216
C40	C	0.459018	-0.187775	0.187856
C41	C	0.412099	-0.187779	0.187862
C42	C	0.388645	-0.216556	0.216549
C43	C	-0.113375	-0.187822	0.187941
C44	C	-0.160294	-0.187831	0.187947
C45	C	-0.160284	-0.245384	0.245308
C46	C	-0.113368	-0.245377	0.245300
C47	C	-0.089915	-0.216592	0.216615
O48	O	-0.039141	-0.269832	0.269654
O49	O	-0.039120	-0.163334	0.163546
C50	C	0.172815	-0.187791	0.187904
C51	C	0.196275	-0.216564	0.216580
C52	C	0.172820	-0.245341	0.245263
C53	C	0.243193	-0.216562	0.216573
C54	C	0.266648	-0.187784	0.187890
C55	C	0.243186	-0.159009	0.159216
C56	C	0.196271	-0.159014	0.159221
C57	C	0.196282	-0.274117	0.273937
C58	C	0.243197	-0.274109	0.273929
C59	C	0.266653	-0.245332	0.245247
C60	C	0.649056	-0.333297	0.216554
C61	C	0.649062	-0.383232	0.216559
C62	C	0.677919	-0.692866	0.187894
C63	C	0.677975	-0.880539	0.187911
O64	O	0.702445	-0.904797	0.163521
N65	N	0.649230	-0.904017	0.216610
C66	C	0.620472	-0.880573	0.245308
O67	O	0.596028	-0.904848	0.269722
C68	C	0.620419	-0.692901	0.245293
C69	C	0.649162	-0.669426	0.216589
C70	C	0.706660	-0.669391	0.159192
C71	C	0.706644	-0.622476	0.159187
C72	C	0.677887	-0.599035	0.187882
C73	C	0.649146	-0.622510	0.216583
C74	C	0.591664	-0.669458	0.273993
C75	C	0.591654	-0.622537	0.273988
C76	C	0.620397	-0.599062	0.245284
C77	C	0.620374	-0.552155	0.245273
N78	N	0.649118	-0.528677	0.216574
C79	C	0.677875	-0.552117	0.187879
C80	C	0.620501	-0.979104	0.245314
C81	C	0.620514	-1.026022	0.245317
C82	C	0.678017	-1.025984	0.187920
C83	C	0.678002	-0.979066	0.187915
C84	C	0.649246	-0.955626	0.216615
C85	C	0.677839	-0.453592	0.187868
C86	C	0.677819	-0.406672	0.187864
C87	C	0.620318	-0.406713	0.245262
C88	C	0.620336	-0.453629	0.245265
C89	C	0.649100	-0.477067	0.216567
O90	O	0.595919	-0.527868	0.269653
O91	O	0.702322	-0.527834	0.163475
C92	C	0.677935	-0.739782	0.187899
C93	C	0.649194	-0.763257	0.216601
C94	C	0.620437	-0.739816	0.245296
C95	C	0.649207	-0.810175	0.216604
C96	C	0.677963	-0.833615	0.187909
C97	C	0.706708	-0.810137	0.159210
C98	C	0.706692	-0.763222	0.159204
C99	C	0.591693	-0.763294	0.273995
C100	C	0.591711	-0.810209	0.273998
C101	C	0.620468	-0.833650	0.245302
C102	C	0.766316	-0.216598	0.216613
C103	C	0.816250	-0.216609	0.216629
C104	C	0.649153	-0.216583	0.333754
C105	C	0.649159	-0.216587	0.383689
C106	C	0.649231	-0.099396	0.216608
C107	C	0.649271	-0.049462	0.216622
C108	C	0.649148	-0.216534	0.099853
C109	C	0.649228	-0.216404	0.049919
C110	C	0.620434	-0.245211	0.740259
C111	C	0.620418	-0.245263	0.552586
O112	O	0.595950	-0.269686	0.528307
N113	N	0.649169	-0.216545	0.529134
C114	C	0.677925	-0.187810	0.552603
O115	O	0.702376	-0.163381	0.528350
C116	C	0.677938	-0.187756	0.740275
C117	C	0.649188	-0.216479	0.763725
C118	C	0.591686	-0.273932	0.763708
C119	C	0.591692	-0.273920	0.810624
C120	C	0.620446	-0.245188	0.834090
C121	C	0.649194	-0.216468	0.810640
C122	C	0.706691	-0.159019	0.763744
C123	C	0.706691	-0.159008	0.810665
C124	C	0.677941	-0.187731	0.834114
C125	C	0.677954	-0.187724	0.881022
N126	N	0.649203	-0.216443	0.904474
C127	C	0.620449	-0.245175	0.881008
C128	C	0.677916	-0.187841	0.454073
C129	C	0.677914	-0.187855	0.407155
C130	C	0.620406	-0.245307	0.407141
C131	C	0.620411	-0.245296	0.454059
C132	C	0.649165	-0.216559	0.477524
C133	C	0.620464	-0.245148	0.979534
C134	C	0.620474	-0.245136	1.026453
C135	C	0.677980	-0.187682	1.026463
C136	C	0.677972	-0.187696	0.979548
C137	C	0.649210	-0.216431	0.956084
O138	O	0.702406	-0.163311	0.905330
O139	O	0.595994	-0.269592	0.905269
C140	C	0.620428	-0.245223	0.693343
C141	C	0.649176	-0.216502	0.669894
C142	C	0.677930	-0.187771	0.693360
C143	C	0.649173	-0.216516	0.622976
C144	C	0.620419	-0.245248	0.599510
C145	C	0.591668	-0.273966	0.622962
C146	C	0.591674	-0.273955	0.669878
C147	C	0.706682	-0.159052	0.669908
C148	C	0.706674	-0.159067	0.622993
C149	C	0.677919	-0.187799	0.599527
H150	H	0.262292	-0.135579	0.135860
H151	H	0.568256	-0.688564	0.297365
H152	H	0.730050	-0.603365	0.135815
C153	C	0.738317	-0.127445	0.695714
N154	N	0.762149	-0.103638	0.715149
H155	H	0.730103	-0.135630	0.744659
H156	H	0.393001	-0.164347	0.164510
C157	C	0.738325	-0.127395	0.836474
N158	N	0.762152	-0.103587	0.855912
C159	C	0.709601	-0.156102	0.953753
N160	N	0.733423	-0.132303	0.934327
C161	C	0.709552	-0.156229	0.479878
N162	N	0.733383	-0.132420	0.499313
C163	C	-0.087583	-0.156160	0.156383
N164	N	-0.068157	-0.132315	0.132611
C165	C	0.560037	-0.305570	0.597140
N166	N	0.536211	-0.329371	0.577689
C167	C	0.709622	-0.953248	0.156340
N168	N	0.733441	-0.933804	0.132557
C169	C	0.128234	-0.127366	0.127675
N170	N	0.147658	-0.103521	0.103901
H171	H	0.597040	-0.268543	0.960435
C172	C	0.560088	-0.836027	0.305576
N173	N	0.536274	-0.855471	0.329363
H174	H	-0.094266	-0.268811	0.268650
C175	C	0.560059	-0.305513	0.836412
N176	N	0.536229	-0.329308	0.855833
H177	H	0.701432	-1.045078	0.164556
C178	C	0.128241	-0.305778	0.305509
N179	N	0.147670	-0.329622	0.329275
H180	H	0.596933	-0.472743	0.268640
H181	H	0.730090	-0.135677	0.603904
H182	H	-0.179390	-0.268816	0.268659
C183	C	0.268998	-0.305767	0.305480
N184	N	0.288429	-0.329608	0.329246
H185	H	0.177174	-0.135583	0.135868
C186	C	0.738295	-0.695168	0.127620
N187	N	0.762122	-0.714580	0.103834
H188	H	0.568262	-0.297344	0.688966
C189	C	0.709544	-0.156260	0.381366
N190	N	0.733366	-0.132459	0.361943
C191	C	0.029725	-0.127369	0.127694
N192	N	0.010295	-0.103518	0.103936
H193	H	0.568268	-0.297329	0.744607
C194	C	0.484828	-0.156117	0.156308
N195	N	0.504270	-0.132270	0.132550
H196	H	0.597000	-0.268684	0.473149
H197	H	0.730097	-0.744112	0.135831
H198	H	0.177189	-0.297551	0.297295
C199	C	0.588689	-0.380920	0.276827
N200	N	0.564868	-0.361491	0.300605
H201	H	0.701225	-0.387560	0.164488
H202	H	0.701392	-0.164290	1.045578
H203	H	0.596994	-0.268703	0.388027
C204	C	0.738340	-0.835931	0.127644
N205	N	0.762165	-0.855361	0.103872
H206	H	0.597104	-1.045131	0.268687
C207	C	-0.186098	-0.156174	0.156398
N208	N	-0.205531	-0.132329	0.132638
C209	C	0.588877	-0.953326	0.276900
N210	N	0.565061	-0.933913	0.300695
C211	C	0.560019	-0.596757	0.305561
N212	N	0.536191	-0.577340	0.329341
C213	C	0.484825	-0.276988	0.276761
N214	N	0.504257	-0.300833	0.300523
C215	C	0.560068	-0.737516	0.305576
N216	N	0.536250	-0.718102	0.329368
H217	H	0.393014	-0.268767	0.268585
C218	C	0.029728	-0.305783	0.305521
N219	N	0.010298	-0.329630	0.329288
H220	H	0.597062	-0.268527	1.045544
H221	H	0.701263	-0.472669	0.164500
