data_functionalizedCrystal
_audit_creation_method	'MofGen! by Chris Wilmer'
_symmetry_space_group_name_H-M	'P1'
_symmetry_Int_Tables_number	1
_symmetry_cell_setting	triclinic
loop_
_symmetry_equiv_pos_as_xyz
  x,y,z
_cell_length_a	12.827893
_cell_length_b	13.897447
_cell_length_c	12.827885
_cell_angle_alpha	90.031004
_cell_angle_beta	90.019272
_cell_angle_gamma	90.019501
loop_
_atom_site_label
_atom_site_type_symbol
_atom_site_fract_x
_atom_site_fract_y
_atom_site_fract_z
Zn1	Zn	1.597640	-0.383969	0.590840
Zn2	Zn	1.597521	-0.545295	0.416096
Zn3	Zn	1.422881	-0.384016	0.416113
Zn4	Zn	1.422854	-0.545224	0.590796
O5	O	1.510224	-0.464626	0.503462
O6	O	1.743860	-0.405380	0.567671
O7	O	1.574316	-0.523951	0.269863
O8	O	1.446124	-0.249028	0.439317
O9	O	1.743773	-0.523905	0.439288
O10	O	1.574518	-0.248994	0.567687
O11	O	1.446009	-0.405460	0.269875
O12	O	1.276641	-0.405390	0.439274
O13	O	1.446077	-0.523783	0.737038
O14	O	1.276621	-0.523829	0.567613
O15	O	1.574492	-0.405310	0.737070
O16	O	1.574290	-0.680267	0.439245
O17	O	1.445963	-0.680215	0.567597
C18	C	1.238714	-0.464607	0.503442
C19	C	1.122561	-0.464623	0.503458
C20	C	1.070794	-0.523321	0.566866
C21	C	0.950743	-0.523338	0.566884
C22	C	1.510139	-0.715240	0.503437
C23	C	1.510198	-0.822454	0.503462
C24	C	1.510249	-0.909524	0.503486
C25	C	1.510322	-1.018756	0.503513
C26	C	1.782794	-0.464645	0.503482
C27	C	1.898947	-0.464654	0.503491
C28	C	1.510295	-0.464533	0.776032
C29	C	1.510325	-0.464494	0.892185
C30	C	1.510338	-0.213033	0.503509
C31	C	1.510386	-0.105819	0.503529
C32	C	1.510213	-0.464649	0.231952
C33	C	1.510385	-0.464416	0.115799
C34	C	1.573876	-0.405858	0.943986
C35	C	1.573908	-0.405816	1.064036
H36	H	1.628255	-0.355686	0.899457
C37	C	1.436875	-0.532241	1.055635
C38	C	1.354897	-0.490402	0.980576
C39	C	1.281387	-0.558226	0.920404
C40	C	1.289855	-0.667889	0.935290
C41	C	1.371836	-0.709734	1.010353
C42	C	1.445346	-0.641910	1.070526
H43	H	1.348626	-0.409217	0.969553
H44	H	1.220699	-0.527249	0.864837
H45	H	1.235438	-0.718097	0.890747
H46	H	1.378107	-0.790919	1.021376
H47	H	1.506034	-0.672887	1.126092
H48	H	1.115351	-0.573559	0.621142
H49	H	1.628320	-0.355619	1.108583
H50	H	1.455935	-0.514656	0.936713
C51	C	0.959072	-0.396756	0.430146
C52	C	0.944193	-0.287100	0.438866
C53	C	1.004327	-0.219202	0.365521
C54	C	1.079340	-0.260962	0.283455
C55	C	1.094222	-0.370624	0.274731
C56	C	1.034089	-0.438521	0.348077
H57	H	0.888661	-0.256182	0.499619
H58	H	0.993309	-0.138023	0.371979
H59	H	1.123855	-0.210700	0.229161
H60	H	1.149755	-0.401542	0.213978
H61	H	1.045106	-0.519701	0.341618
C62	C	0.890611	-0.591233	0.640227
C63	C	0.770566	-0.591154	0.640140
C64	C	0.710432	-0.659051	0.713485
C65	C	0.770343	-0.727028	0.786916
C66	C	0.890395	-0.727110	0.787005
C67	C	0.950529	-0.659213	0.713660
H68	H	0.726210	-0.540831	0.585780
H69	H	0.621561	-0.658990	0.713419
H70	H	0.725828	-0.777290	0.841210
H71	H	0.934751	-0.777433	0.841366
H72	H	1.039400	-0.659274	0.713727
H73	H	1.078004	-0.414377	0.449190
