data_functionalizedCrystal
_audit_creation_method	'MofGen! by Chris Wilmer'
_symmetry_space_group_name_H-M	'P1'
_symmetry_Int_Tables_number	1
_symmetry_cell_setting	triclinic
loop_
_symmetry_equiv_pos_as_xyz
  x,y,z
_cell_length_a	19.805407
_cell_length_b	18.050589
_cell_length_c	19.805399
_cell_angle_alpha	89.977706
_cell_angle_beta	89.980427
_cell_angle_gamma	90.028221
loop_
_atom_site_label
_atom_site_type_symbol
_atom_site_fract_x
_atom_site_fract_y
_atom_site_fract_z
Zn1	Zn	1.034727	-0.295677	-0.382745
Zn2	Zn	1.034638	-0.419869	-0.269567
Zn3	Zn	0.921542	-0.295697	-0.269569
Zn4	Zn	0.921502	-0.419829	-0.382713
O5	O	0.978102	-0.357768	-0.326148
O6	O	1.129432	-0.312159	-0.367743
O7	O	1.019616	-0.403422	-0.174850
O8	O	0.936610	-0.191770	-0.284596
O9	O	1.129367	-0.403402	-0.284592
O10	O	1.019767	-0.191755	-0.367746
O11	O	0.936524	-0.312194	-0.174852
O12	O	0.826820	-0.312156	-0.284566
O13	O	0.936542	-0.403335	-0.477434
O14	O	0.826791	-0.403355	-0.367693
O15	O	1.019728	-0.312121	-0.477457
O16	O	1.019577	-0.523788	-0.284562
O17	O	0.936456	-0.523759	-0.367690
C18	C	0.802246	-0.357754	-0.326127
C19	C	0.727014	-0.357766	-0.326133
C20	C	0.691673	-0.405325	-0.369347
C21	C	0.620984	-0.405326	-0.369357
C22	C	0.585639	-0.357771	-0.326148
C23	C	0.620985	-0.310207	-0.282933
C24	C	0.691673	-0.310203	-0.282927
C25	C	0.335912	-0.310224	-0.282955
C26	C	0.265220	-0.310233	-0.282962
C27	C	0.265224	-0.405347	-0.369385
C28	C	0.335911	-0.405342	-0.369379
C29	C	0.371251	-0.357776	-0.326166
C30	C	0.447900	-0.357774	-0.326157
C31	C	0.508992	-0.357776	-0.326153
C32	C	0.978021	-0.550720	-0.326137
C33	C	0.978048	-0.633266	-0.326155
C34	C	0.932891	-0.832728	-0.371344
C35	C	0.916392	-0.882167	-0.309581
C36	C	0.978114	-0.784396	-0.326164
C37	C	0.994646	-0.882039	-0.387934
C38	C	0.978177	-0.930381	-0.326178
C39	C	0.961583	-0.832748	-0.264368
C40	C	1.039865	-0.832616	-0.342762
C41	C	1.023390	-0.882033	-0.280957
C42	C	0.978076	-0.700298	-0.326157
C43	C	0.978215	-1.014478	-0.326178
C44	C	1.154645	-0.357783	-0.326171
C45	C	1.229877	-0.357789	-0.326180
C46	C	0.978140	-0.357721	-0.502691
C47	C	0.978156	-0.357701	-0.577923
C48	C	0.978203	-0.164062	-0.326175
C49	C	0.978246	-0.081517	-0.326186
C50	C	1.021472	-0.310204	-0.613280
C51	C	1.021479	-0.310182	-0.683969
C52	C	0.978173	-0.357662	-0.719299
C53	C	0.934852	-0.405162	-0.683937
C54	C	0.934843	-0.405180	-0.613250
C55	C	0.934891	-0.405093	-0.969010
C56	C	0.934905	-0.405074	-1.039702
C57	C	1.021527	-0.310096	-1.039729
C58	C	1.021518	-0.310113	-0.969042
C59	C	0.978195	-0.357609	-0.933686
C60	C	0.978187	-0.357631	-0.857038
C61	C	0.978184	-0.357645	-0.795946
C62	C	0.978103	-0.357761	-0.150292
C63	C	0.978218	-0.357572	-0.075061
H64	H	0.720446	-0.444052	-0.404530
H65	H	0.899624	-0.443779	-0.940232
N66	N	0.582865	-0.456632	-0.415956
H67	H	0.615982	-0.486764	-0.443321
H68	H	0.553515	-0.490955	-0.388342
N69	N	0.888186	-0.456273	-1.077816
H70	H	0.915675	-0.490686	-1.107146
H71	H	0.860742	-0.486314	-1.044655
H72	H	0.947565	-0.811186	-0.212121
H73	H	1.061661	-0.903545	-0.242711
N74	N	0.729789	-0.258901	-0.236319
H75	H	0.717464	-0.270364	-0.187940
H76	H	0.779920	-0.266132	-0.242929
N77	N	1.108984	-0.803764	-0.361375
H78	H	1.121408	-0.821661	-0.408063
H79	H	1.108503	-0.747820	-0.360755
H80	H	1.008603	-0.903691	-0.440167
N81	N	0.582861	-0.258926	-0.236323
H82	H	0.595178	-0.205874	-0.246911
H83	H	0.532731	-0.266218	-0.242906
H84	H	0.899589	-0.443819	-0.712708
H85	H	1.056753	-0.271506	-0.712754
N86	N	1.068243	-0.258852	-1.077866
H87	H	1.095676	-0.228778	-1.044757
H88	H	1.099555	-0.289073	-1.107200
H89	H	1.056784	-0.271452	-0.940280
N90	N	1.068186	-0.258997	-0.575177
H91	H	1.095627	-0.228903	-0.608304
H92	H	1.040650	-0.224633	-0.545847
N93	N	0.882157	-0.804041	-0.421876
H94	H	0.882796	-0.748092	-0.421816
H95	H	0.894166	-0.822792	-0.468391
N96	N	0.227098	-0.258939	-0.236356
H97	H	0.197789	-0.224571	-0.263919
H98	H	0.197788	-0.289135	-0.204954
N99	N	0.888117	-0.456402	-0.575111
H100	H	0.860683	-0.486478	-0.608217
H101	H	0.915641	-0.490782	-0.545779
H102	H	0.236441	-0.444075	-0.404574
N103	N	0.374033	-0.456637	-0.415978
H104	H	0.340918	-0.486766	-0.443357
H105	H	0.403388	-0.426450	-0.447345
N106	N	0.374024	-0.258911	-0.236359
H107	H	0.340905	-0.228785	-0.208991
H108	H	0.403336	-0.289078	-0.204982
H109	H	0.864201	-0.903948	-0.295555
