data_functionalizedCrystal
_audit_creation_method	'MofGen! by Chris Wilmer'
_symmetry_space_group_name_H-M	'P1'
_symmetry_Int_Tables_number	1
_symmetry_cell_setting	triclinic
loop_
_symmetry_equiv_pos_as_xyz
  x,y,z
_cell_length_a	14.519709
_cell_length_b	17.699077
_cell_length_c	16.176319
_cell_angle_alpha	89.993140
_cell_angle_beta	89.992256
_cell_angle_gamma	83.480361
loop_
_atom_site_label
_atom_site_type_symbol
_atom_site_fract_x
_atom_site_fract_y
_atom_site_fract_z
O1	O	0.116598	1.004415	-0.068737
O2	O	0.131777	0.784080	-0.068742
O3	O	-0.010076	0.900090	-0.068732
O4	O	0.258451	0.888406	-0.068747
O5	O	-0.010085	0.900074	0.068761
O6	O	0.131768	0.784064	0.068752
O7	O	0.116589	1.004399	0.068756
Cu8	Cu	0.124178	0.894230	0.081308
Cu9	Cu	0.124188	0.894249	-0.081294
O10	O	0.258442	0.888390	0.068746
C11	C	0.131230	0.755873	0.000005
C12	C	0.129601	0.671850	0.000003
C13	C	0.128828	0.632372	0.074952
C14	C	0.127283	0.553425	0.074953
C15	C	0.126517	0.513957	0.000004
C16	C	0.127287	0.553441	-0.074950
C17	C	0.128825	0.632387	-0.074950
C18	C	0.121081	0.235060	-0.074951
C19	C	0.119545	0.156108	-0.074945
C20	C	0.119538	0.156098	0.074951
C21	C	0.121077	0.235044	0.074951
C22	C	0.121842	0.274522	-0.000002
C23	C	0.123515	0.360125	-0.000003
C24	C	0.124850	0.428354	0.000003
C25	C	-0.044438	0.899537	0.000015
C26	C	-0.146812	0.897905	0.000015
C27	C	-0.521682	0.891898	-0.000006
C28	C	-0.417381	0.893566	-0.000000
C29	C	-0.334250	0.894902	0.000005
C30	C	-0.229943	0.896570	0.000010
C31	C	0.292804	0.888942	-0.000002
C32	C	0.395178	0.890574	-0.000008
C33	C	0.117137	1.032606	0.000008
C34	C	0.118766	1.116629	0.000004
N35	N	0.124170	0.894222	0.195673
N36	N	0.124189	0.894263	-0.195659
C37	C	0.061383	0.945607	0.238942
C38	C	0.061382	0.945611	0.325489
C39	C	0.124173	0.894233	0.368766
C40	C	0.186963	0.842843	0.325491
C41	C	0.186959	0.842836	0.238946
C42	C	0.186980	0.842869	0.674519
C43	C	0.186981	0.842881	0.761071
C44	C	0.061403	0.945644	0.761062
C45	C	0.061399	0.945637	0.674517
C46	C	0.124185	0.894244	0.631250
C47	C	0.124184	0.894240	0.537406
C48	C	0.124179	0.894241	0.462608
H49	H	0.126656	0.521301	-0.135974
H50	H	0.238085	0.801006	0.360732
O51	O	0.000364	0.995632	0.802965
C52	C	-0.055070	1.040964	0.746208
H53	H	-0.017257	1.041866	0.684512
H54	H	-0.069239	1.101387	0.771203
H55	H	-0.123540	1.016297	0.737013
H56	H	0.010256	0.987452	0.360718
H57	H	0.238115	0.801040	0.796306
H58	H	0.238104	0.801025	0.639298
H59	H	0.118920	0.123976	-0.135981
H60	H	0.126639	0.521287	0.135983
O61	O	0.121777	0.273270	0.147830
C62	C	0.120786	0.221493	0.213984
H63	H	0.090507	0.168314	0.192014
H64	H	0.076468	0.249046	0.266404
H65	H	0.194577	0.205252	0.237027
H66	H	0.010272	0.987476	0.639284
H67	H	0.238085	0.800993	0.203717
H68	H	0.129460	0.664500	0.135983
H69	H	0.118911	0.123946	0.135982
O70	O	0.129417	0.670789	-0.147735
C71	C	0.050478	0.724936	-0.152207
H72	H	-0.005791	0.707059	-0.109671
H73	H	0.023700	0.728679	-0.218495
H74	H	0.069693	0.782851	-0.132074
O75	O	0.121864	0.273281	-0.147832
C76	C	0.120836	0.221516	-0.213980
H77	H	0.148930	0.162145	-0.192006
H78	H	0.166033	0.239584	-0.266407
H79	H	0.046715	0.220960	-0.237015
H80	H	0.010255	0.987448	0.203711
