data_functionalizedCrystal
_audit_creation_method	'MofGen! by Chris Wilmer'
_symmetry_space_group_name_H-M	'P1'
_symmetry_Int_Tables_number	1
_symmetry_cell_setting	triclinic
loop_
_symmetry_equiv_pos_as_xyz
  x,y,z
_cell_length_a	9.483290
_cell_length_b	10.967904
_cell_length_c	10.723023
_cell_angle_alpha	95.410787
_cell_angle_beta	79.660457
_cell_angle_gamma	88.419226
loop_
_atom_site_label
_atom_site_type_symbol
_atom_site_fract_x
_atom_site_fract_y
_atom_site_fract_z
O1	O	0.517202	-1.581947	0.100111
O2	O	0.429424	-1.231563	0.129582
O3	O	0.475332	-1.414839	-0.067022
O4	O	0.471294	-1.398672	0.296715
O5	O	0.242058	-1.448771	-0.033261
O6	O	0.196150	-1.265496	0.163342
O7	O	0.283928	-1.615880	0.133872
Cu8	Cu	0.218739	-1.443786	0.151690
Cu9	Cu	0.494613	-1.403657	0.111764
O10	O	0.238020	-1.432604	0.330476
C11	C	0.301548	-1.203665	0.146871
C12	C	0.268058	-1.069982	0.148075
N13	N	0.024707	-1.472020	0.179771
C14	C	0.358402	-1.430629	-0.096599
C15	C	0.357525	-1.427109	-0.235026
C16	C	-0.062567	-1.411970	0.120041
C17	C	-0.224080	-1.435491	0.143412
N18	N	0.688647	-1.375432	0.083673
C19	C	0.373970	-0.992804	0.131123
C20	C	0.339359	-0.854635	0.132367
C21	C	0.411802	-0.643778	0.116591
C22	C	0.445286	-0.777458	0.115413
C23	C	0.477977	-1.407962	-0.314224
C24	C	0.477073	-1.404323	-0.457297
C25	C	0.354953	-1.416814	0.360052
C26	C	0.355840	-1.420332	0.498478
H27	H	-0.017714	-1.343142	0.051606
H28	H	0.490268	-1.029018	0.115695
H29	H	-0.266509	-1.306597	0.015236
Br30	Br	0.639141	-0.837792	0.089709
H31	H	-0.020148	-1.540837	0.248217
Br32	Br	0.145504	-0.794293	0.158110
Br33	Br	0.650988	-1.385154	-0.250715
Br34	Br	0.074211	-1.009633	0.173817
H35	H	0.580196	-1.387930	-0.525339
Br36	Br	-0.298819	-1.550200	0.257502
H37	H	0.252714	-1.436738	-0.433489
H38	H	0.253731	-1.440800	-0.273141
