data_functionalizedCrystal
_audit_creation_method	'MofGen! by Chris Wilmer'
_symmetry_space_group_name_H-M	'P1'
_symmetry_Int_Tables_number	1
_symmetry_cell_setting	triclinic
loop_
_symmetry_equiv_pos_as_xyz
  x,y,z
_cell_length_a	13.635800
_cell_length_b	11.353959
_cell_length_c	9.582906
_cell_angle_alpha	102.010489
_cell_angle_beta	68.792474
_cell_angle_gamma	72.473377
loop_
_atom_site_label
_atom_site_type_symbol
_atom_site_fract_x
_atom_site_fract_y
_atom_site_fract_z
V1	V	2.082928	-0.180304	-0.513585
O2	O	2.049939	0.009225	-0.455317
O3	O	2.082661	-0.358053	-0.556710
O4	O	2.077905	-0.177285	-0.716300
O5	O	2.054728	-0.172794	-0.294622
V6	V	2.319156	-0.157664	-0.481730
O7	O	2.225696	-0.229969	-0.583462
O8	O	2.401487	-0.107999	-0.411853
O9	O	2.207820	0.020085	-0.438605
O10	O	2.410844	-0.347193	-0.539998
O11	O	2.406055	-0.165174	-0.700693
O12	O	2.212576	-0.160683	-0.279015
V13	V	2.582928	-0.180304	-0.513585
O14	O	2.549939	0.009225	-0.455317
O15	O	2.582661	-0.358053	-0.556710
O16	O	2.577905	-0.177285	-0.716300
O17	O	2.554728	-0.172794	-0.294622
V18	V	2.819156	-0.157664	-0.481730
O19	O	2.725696	-0.229969	-0.583462
O20	O	2.901487	-0.107999	-0.411853
O21	O	2.707820	0.020085	-0.438605
O22	O	2.910844	-0.347193	-0.539998
O23	O	2.906055	-0.165174	-0.700693
O24	O	2.712576	-0.160683	-0.279015
C25	C	2.010363	-0.401392	-0.560642
C26	C	2.050916	-0.546701	-0.597254
C27	C	2.034932	-0.593898	-0.478752
C28	C	2.076845	-0.744083	-0.516588
C29	C	2.004295	-0.170803	-0.764213
C30	C	2.040988	-0.169510	-0.930239
C31	C	2.111789	0.063417	-0.434670
C32	C	2.060856	0.208725	-0.398069
C33	C	2.117856	-0.167170	-0.231096
C34	C	2.070782	-0.168456	-0.065066
C35	C	2.510363	-0.401392	-0.560642
C36	C	2.550916	-0.546701	-0.597254
C37	C	2.504295	-0.170803	-0.764213
C38	C	2.540988	-0.169510	-0.930239
C39	C	2.611789	0.063417	-0.434670
C40	C	2.560856	0.208725	-0.398069
C41	C	2.617856	-0.167170	-0.231096
C42	C	2.570782	-0.168456	-0.065066
C43	C	2.662656	-0.621597	-0.623658
C44	C	2.700780	-0.758135	-0.658082
C45	C	2.627160	-0.819773	-0.666090
C46	C	2.515412	-0.744869	-0.639687
C47	C	2.477292	-0.608335	-0.605275
C48	C	2.621611	0.283620	-0.371669
C49	C	2.573760	0.420157	-0.337253
C50	C	2.465157	0.481795	-0.329248
C51	C	2.404398	0.406891	-0.355647
C52	C	2.452246	0.270358	-0.390052
H53	H	1.990225	-0.523120	-0.349287
C54	C	2.743662	-0.553822	-0.614868
N55	N	2.804687	-0.502785	-0.608261
C56	C	2.412533	0.631990	-0.291382
N57	N	2.372900	0.745119	-0.262857
H58	H	2.710043	0.233452	-0.378182
C59	C	2.385404	0.187986	-0.419111
N60	N	2.335053	0.125949	-0.441000
H61	H	2.386301	-0.547363	-0.583769
C62	C	2.284932	0.474716	-0.346835
N63	N	2.194952	0.525804	-0.340204
C64	C	2.000450	-0.695667	-0.223153
N65	N	1.954950	-0.623654	-0.091408
C66	C	2.137248	-0.839693	-0.691503
N67	N	2.182740	-0.911708	-0.823245
C68	C	2.111318	-0.642315	-0.772159
N69	N	2.156810	-0.714330	-0.903902
C70	C	2.640636	0.502518	-0.308285
N71	N	2.691016	0.564545	-0.286489
C72	C	2.823702	-0.840503	-0.687103
N73	N	2.916286	-0.902538	-0.708956
H74	H	2.658213	-0.930949	-0.694112
H75	H	2.455479	-0.795076	-0.646212
