data_functionalizedCrystal
_audit_creation_method	'MofGen! by Chris Wilmer'
_symmetry_space_group_name_H-M	'P1'
_symmetry_Int_Tables_number	1
_symmetry_cell_setting	triclinic
loop_
_symmetry_equiv_pos_as_xyz
  x,y,z
_cell_length_a	16.625546
_cell_length_b	16.120566
_cell_length_c	16.625539
_cell_angle_alpha	92.920705
_cell_angle_beta	89.969603
_cell_angle_gamma	92.881503
loop_
_atom_site_label
_atom_site_type_symbol
_atom_site_fract_x
_atom_site_fract_y
_atom_site_fract_z
Zn1	Zn	-0.383577	-1.274562	-0.518393
Zn2	Zn	-0.050244	-0.941229	-0.185060
Zn3	Zn	0.283089	-0.607895	0.148273
Zn4	Zn	-0.518415	-1.274462	-0.383551
Zn5	Zn	-0.185082	-0.941128	-0.050217
Zn6	Zn	0.148251	-0.607795	0.283116
Zn7	Zn	-0.376760	-1.135142	-0.376738
Zn8	Zn	-0.043427	-0.801809	-0.043404
Zn9	Zn	0.289906	-0.468476	0.289929
Zn10	Zn	-0.511525	-1.135112	-0.511508
Zn11	Zn	-0.178192	-0.801779	-0.178174
Zn12	Zn	0.155142	-0.468445	0.155159
O13	O	-0.447569	-1.204819	-0.447547
O14	O	-0.114236	-0.871486	-0.114214
O15	O	0.219097	-0.538153	0.219119
O16	O	-0.407200	-1.391215	-0.506239
O17	O	-0.073867	-1.057881	-0.172906
O18	O	0.259466	-0.724548	0.160428
O19	O	-0.499655	-1.255952	-0.269813
O20	O	-0.166322	-0.922618	0.063520
O21	O	0.167011	-0.589285	0.396854
O22	O	-0.264835	-1.153691	-0.395559
O23	O	0.068498	-0.820358	-0.062225
O24	O	0.401832	-0.487025	0.271108
O25	O	-0.506265	-1.391141	-0.407171
O26	O	-0.172932	-1.057808	-0.073837
O27	O	0.160401	-0.724474	0.259496
O28	O	-0.269843	-1.256122	-0.499633
O29	O	0.063490	-0.922789	-0.166299
O30	O	0.396823	-0.589456	0.167034
O31	O	-0.395582	-1.153594	-0.264807
O32	O	-0.062249	-0.820261	0.068526
O33	O	0.271085	-0.486928	0.401859
O34	O	-0.388901	-1.018472	-0.388882
O35	O	-0.055567	-0.685139	-0.055549
O36	O	0.277766	-0.351806	0.277784
O37	O	-0.494522	-1.153639	-0.625255
O38	O	-0.161188	-0.820306	-0.291922
O39	O	0.172145	-0.486973	0.041412
O40	O	-0.487912	-1.018450	-0.487897
O41	O	-0.154578	-0.685117	-0.154564
O42	O	0.178755	-0.351783	0.178769
O43	O	-0.400519	-1.256093	-0.630314
O44	O	-0.067186	-0.922759	-0.296980
O45	O	0.266148	-0.589426	0.036353
O46	O	-0.630331	-1.255922	-0.400494
O47	O	-0.296998	-0.922589	-0.067161
O48	O	0.036336	-0.589255	0.266173
O49	O	-0.625269	-1.153542	-0.494504
O50	O	-0.291935	-0.820209	-0.161170
O51	O	0.041398	-0.486876	0.172163
C52	C	-0.657056	-1.204741	-0.447510
C53	C	-0.323723	-0.871407	-0.114176
C54	C	0.009610	-0.538074	0.219157
C55	C	-0.746680	-1.204783	-0.447524
C56	C	-0.413346	-0.871450	-0.114191
C57	C	-0.080013	-0.538116	0.219142
C58	C	-0.436919	-0.988211	-0.436904
C59	C	-0.103586	-0.654878	-0.103570
C60	C	0.229747	-0.321544	0.229763
C61	C	-0.432382	-0.895545	-0.432370
C62	C	-0.099049	-0.562212	-0.099036
C63	C	0.234284	-0.228878	0.234297
C64	C	-1.074862	-1.204929	-0.447615
C65	C	-0.741529	-0.871595	-0.114282
C66	C	-0.408196	-0.538262	0.219051
C67	C	-0.983552	-1.204885	-0.447592
C68	C	-0.650218	-0.871552	-0.114259
C69	C	-0.316885	-0.538219	0.219075
C70	C	-0.910774	-1.204855	-0.447569
C71	C	-0.577441	-0.871522	-0.114236
C72	C	-0.244107	-0.538188	0.219097
C73	C	-0.819458	-1.204813	-0.447547
C74	C	-0.486124	-0.871480	-0.114214
C75	C	-0.152791	-0.538147	0.219120
C76	C	-0.424081	-0.725883	-0.424098
C77	C	-0.090747	-0.392550	-0.090765
C78	C	0.242586	-0.059216	0.242568
C79	C	-0.471128	-0.684596	-0.471003
C80	C	-0.137794	-0.351263	-0.137669
C81	C	0.195539	-0.017930	0.195664
C82	C	-0.466509	-0.590191	-0.466401
C83	C	-0.133175	-0.256857	-0.133067
C84	C	0.200158	0.076476	0.200266
C85	C	-0.428699	-0.820297	-0.428699
C86	C	-0.095365	-0.486964	-0.095366
C87	C	0.237968	-0.153631	0.237967
C88	C	-0.237266	-1.204921	-0.447604
C89	C	0.096068	-0.871588	-0.114270
C90	C	0.429401	-0.538255	0.219063
C91	C	-0.147647	-1.204965	-0.447628
C92	C	0.185687	-0.871632	-0.114295
C93	C	0.519020	-0.538298	0.219039
C94	C	-0.447512	-1.204874	-0.657859
C95	C	-0.114179	-0.871540	-0.324526
C96	C	0.219155	-0.538207	0.008808
C97	C	-0.447488	-1.204897	-0.747481
C98	C	-0.114154	-0.871563	-0.414148
C99	C	0.219179	-0.538230	-0.080815
C100	C	-0.458264	-0.422274	-0.458220
C101	C	-0.124931	-0.088940	-0.124886
C102	C	0.208402	0.244393	0.208447
C103	C	-0.462828	-0.514940	-0.462734
C104	C	-0.129495	-0.181606	-0.129401
C105	C	0.203838	0.151727	0.203933
C106	C	-0.447399	-1.204935	-1.075659
C107	C	-0.114066	-0.871602	-0.742326
C108	C	0.219267	-0.538269	-0.408992
C109	C	-0.447426	-1.204922	-0.984350
C110	C	-0.114093	-0.871589	-0.651016
C111	C	0.219240	-0.538256	-0.317683
C112	C	-0.447444	-1.204916	-0.911573
C113	C	-0.114111	-0.871583	-0.578240
C114	C	0.219223	-0.538250	-0.244906
C115	C	-0.447470	-1.204903	-0.820258
C116	C	-0.114136	-0.871569	-0.486925
C117	C	0.219197	-0.538236	-0.153591
C118	C	-0.447571	-1.204813	-0.238056
C119	C	-0.114237	-0.871480	0.095277
C120	C	0.219096	-0.538147	0.428611
C121	C	-0.447376	-1.204952	-0.148442
C122	C	-0.114043	-0.871619	0.184891
C123	C	0.219291	-0.538285	0.518224
H124	H	-0.514874	-0.720151	-0.514616
H125	H	-0.181541	-0.386818	-0.181283
H126	H	0.151793	-0.053484	0.152050
H127	H	-0.380337	-0.690331	-0.380489
H128	H	-0.047004	-0.356997	-0.047155
H129	H	0.286329	-0.023664	0.286178
