data_functionalizedCrystal
_audit_creation_method	'MofGen! by Chris Wilmer'
_symmetry_space_group_name_H-M	'P1'
_symmetry_Int_Tables_number	1
_symmetry_cell_setting	triclinic
loop_
_symmetry_equiv_pos_as_xyz
  x,y,z
_cell_length_a	11.169416
_cell_length_b	11.169417
_cell_length_c	11.169409
_cell_angle_alpha	89.980487
_cell_angle_beta	89.968635
_cell_angle_gamma	90.011398
loop_
_atom_site_label
_atom_site_type_symbol
_atom_site_fract_x
_atom_site_fract_y
_atom_site_fract_z
Zn1	Zn	-0.477670	1.834964	-0.678541
Zn2	Zn	-0.227670	2.084964	-0.428541
Zn3	Zn	0.022330	2.334964	-0.178541
Zn4	Zn	0.272330	2.584964	0.071459
Zn5	Zn	-0.678410	1.834854	-0.477861
Zn6	Zn	-0.428410	2.084854	-0.227861
Zn7	Zn	-0.178410	2.334854	0.022139
Zn8	Zn	0.071590	2.584854	0.272139
Zn9	Zn	-0.477744	1.634250	-0.477876
Zn10	Zn	-0.227744	1.884250	-0.227876
Zn11	Zn	0.022256	2.134250	0.022124
Zn12	Zn	0.272256	2.384250	0.272124
Zn13	Zn	-0.678314	1.634258	-0.678507
Zn14	Zn	-0.428314	1.884258	-0.428507
Zn15	Zn	-0.178314	2.134258	-0.178507
Zn16	Zn	0.071686	2.384258	0.071493
O17	O	-0.578035	1.734581	-0.578196
O18	O	-0.328035	1.984581	-0.328196
O19	O	-0.078035	2.234581	-0.078196
O20	O	0.171965	2.484581	0.171804
O21	O	-0.504308	2.002899	-0.651928
O22	O	-0.254308	2.252899	-0.401928
O23	O	-0.004308	2.502899	-0.151928
O24	O	0.245692	2.752899	0.098072
O25	O	-0.651863	1.808194	-0.309913
O26	O	-0.401863	2.058194	-0.059913
O27	O	-0.151863	2.308194	0.190087
O28	O	0.098137	2.558194	0.440087
O29	O	-0.309785	1.660918	-0.504515
O30	O	-0.059785	1.910918	-0.254515
O31	O	0.190215	2.160918	-0.004515
O32	O	0.440215	2.410918	0.245485
O33	O	-0.651791	2.002818	-0.504490
O34	O	-0.401791	2.252818	-0.254490
O35	O	-0.151791	2.502818	-0.004490
O36	O	0.098209	2.752818	0.245510
O37	O	-0.309730	1.808381	-0.651943
O38	O	-0.059730	2.058381	-0.401943
O39	O	0.190270	2.308381	-0.151943
O40	O	0.440270	2.558381	0.098057
O41	O	-0.504435	1.660811	-0.309925
O42	O	-0.254435	1.910811	-0.059925
O43	O	-0.004435	2.160811	0.190075
O44	O	0.245565	2.410811	0.440075
O45	O	-0.504341	1.466301	-0.504483
O46	O	-0.254341	1.716301	-0.254483
O47	O	-0.004341	1.966301	-0.004483
O48	O	0.245659	2.216301	0.245517
O49	O	-0.651627	1.660931	-0.846461
O50	O	-0.401627	1.910931	-0.596461
O51	O	-0.151627	2.160931	-0.346461
O52	O	0.098373	2.410931	-0.096461
O53	O	-0.651699	1.466307	-0.651885
O54	O	-0.401699	1.716307	-0.401885
O55	O	-0.151699	1.966307	-0.151885
O56	O	0.098301	2.216307	0.098115
O57	O	-0.504214	1.808389	-0.846486
O58	O	-0.254214	2.058389	-0.596486
O59	O	-0.004214	2.308389	-0.346486
O60	O	0.245786	2.558389	-0.096486
O61	O	-0.846347	1.808202	-0.504457
O62	O	-0.596347	2.058202	-0.254457
O63	O	-0.346347	2.308202	-0.004457
O64	O	-0.096347	2.558202	0.245543
O65	O	-0.846277	1.660825	-0.651871
O66	O	-0.596277	1.910825	-0.401871
O67	O	-0.346277	2.160825	-0.151871
O68	O	-0.096277	2.410825	0.098129
C69	C	-0.578019	1.422757	-0.578183
C70	C	-0.328019	1.672757	-0.328183
C71	C	-0.078019	1.922757	-0.078183
C72	C	0.171981	2.172757	0.171817
C73	C	-0.578041	1.289357	-0.578205
C74	C	-0.328041	1.539357	-0.328205
C75	C	-0.078041	1.789357	-0.078205
C76	C	0.171959	2.039357	0.171795
C77	C	-0.889859	1.734535	-0.578185
C78	C	-0.639859	1.984535	-0.328185
C79	C	-0.389859	2.234535	-0.078185
C80	C	-0.139859	2.484535	0.171815
C81	C	-1.023259	1.734625	-0.578220
C82	C	-0.773259	1.984625	-0.328220
C83	C	-0.523259	2.234625	-0.078220
C84	C	-0.273259	2.484625	0.171780
C85	C	-0.264992	1.734661	-0.578235
C86	C	-0.014992	1.984661	-0.328235
C87	C	0.235008	2.234661	-0.078235
C88	C	0.485008	2.484661	0.171765
C89	C	-0.131592	1.734695	-0.578251
C90	C	0.118408	1.984695	-0.328251
C91	C	0.368408	2.234695	-0.078251
C92	C	0.618408	2.484695	0.171749
C93	C	-0.577901	1.734674	-0.891239
C94	C	-0.327901	1.984674	-0.641239
C95	C	-0.077901	2.234674	-0.391239
C96	C	0.172099	2.484674	-0.141239
C97	C	-0.577845	1.734713	-1.024639
C98	C	-0.327845	1.984713	-0.774639
C99	C	-0.077845	2.234713	-0.524639
C100	C	0.172155	2.484713	-0.274639
C101	C	-0.578052	2.047624	-0.578211
C102	C	-0.328052	2.297624	-0.328211
C103	C	-0.078052	2.547624	-0.078211
C104	C	0.171948	2.797624	0.171789
C105	C	-0.578059	2.181024	-0.578217
C106	C	-0.328059	2.431024	-0.328217
C107	C	-0.078059	2.681024	-0.078217
C108	C	0.171941	2.931024	0.171783
C109	C	-0.578081	1.734559	-0.266372
C110	C	-0.328081	1.984559	-0.016372
C111	C	-0.078081	2.234559	0.233628
C112	C	0.171919	2.484559	0.483628
C113	C	-0.577800	1.734752	-0.132972
C114	C	-0.327800	1.984752	0.117028
C115	C	-0.077800	2.234752	0.367028
C116	C	0.172200	2.484752	0.617028
