data_functionalizedCrystal
_audit_creation_method	'MofGen! by Chris Wilmer'
_symmetry_space_group_name_H-M	'P1'
_symmetry_Int_Tables_number	1
_symmetry_cell_setting	triclinic
loop_
_symmetry_equiv_pos_as_xyz
  x,y,z
_cell_length_a	21.395362
_cell_length_b	13.032721
_cell_length_c	21.395355
_cell_angle_alpha	97.165964
_cell_angle_beta	89.956060
_cell_angle_gamma	97.222741
loop_
_atom_site_label
_atom_site_type_symbol
_atom_site_fract_x
_atom_site_fract_y
_atom_site_fract_z
Zn1	Zn	0.926247	-0.415745	-0.386233
Zn2	Zn	0.912862	-0.590486	-0.294757
Zn3	Zn	0.821458	-0.415794	-0.281438
Zn4	Zn	0.808142	-0.590507	-0.399463
O5	O	0.867177	-0.503133	-0.340473
O6	O	1.012151	-0.438895	-0.374135
O7	O	0.900708	-0.567324	-0.205313
O8	O	0.846533	-0.269539	-0.284228
O9	O	1.002318	-0.567277	-0.306928
O10	O	0.923520	-0.269504	-0.361220
O11	O	0.833554	-0.438978	-0.195527
O12	O	0.732011	-0.438999	-0.297057
O13	O	0.823837	-0.567313	-0.485385
O14	O	0.722228	-0.567361	-0.383770
O15	O	0.910608	-0.438916	-0.475665
O16	O	0.887796	-0.736737	-0.319757
O17	O	0.810859	-0.736753	-0.396685
C18	C	0.704385	-0.503188	-0.340404
C19	C	0.634740	-0.503237	-0.340392
C20	C	0.846447	-0.774665	-0.361116
C21	C	0.837636	-0.890828	-0.369968
C22	C	0.596943	-0.570163	-0.385490
C23	C	0.531509	-0.570138	-0.385516
C24	C	0.503875	-0.503197	-0.340433
C25	C	0.541681	-0.436257	-0.295331
C26	C	0.607114	-0.436278	-0.295311
C27	C	0.400790	-0.494778	-0.283387
C28	C	0.335358	-0.494765	-0.283407
C29	C	0.302059	-0.503129	-0.340497
C30	C	0.334199	-0.511527	-0.397570
C31	C	0.399631	-0.511547	-0.397549
C32	C	0.432925	-0.503167	-0.340451
C33	C	0.193311	-0.570031	-0.385627
C34	C	0.127877	-0.569998	-0.385654
C35	C	0.138050	-0.436123	-0.295464
C36	C	0.203483	-0.436150	-0.295443
C37	C	0.231110	-0.503110	-0.340524
C38	C	0.871809	-0.942574	-0.335881
C39	C	0.862703	-1.062634	-0.345029
C40	C	1.030605	-0.503078	-0.340542
C41	C	1.100248	-0.503055	-0.340571
C42	C	0.867231	-0.503112	-0.503894
C43	C	0.867254	-0.503103	-0.573535
C44	C	0.888005	-0.230541	-0.319763
C45	C	0.896880	-0.114378	-0.310937
C46	C	0.912434	-0.436244	-0.601188
C47	C	0.912436	-0.436199	-0.666620
C48	C	0.867264	-0.503032	-0.704398
C49	C	0.822076	-0.569895	-0.676738
C50	C	0.822070	-0.569931	-0.611306
C51	C	0.855132	-0.597135	-0.815225
C52	C	0.855142	-0.597102	-0.880656
C53	C	0.867276	-0.502921	-0.906210
C54	C	0.879414	-0.408772	-0.866327
C55	C	0.879409	-0.408807	-0.800895
C56	C	0.867264	-0.503000	-0.775348
C57	C	0.912462	-0.436008	-1.004811
C58	C	0.912460	-0.435961	-1.070245
C59	C	0.822102	-0.569667	-1.080362
C60	C	0.822101	-0.569704	-1.014930
C61	C	0.867284	-0.502876	-0.977158
C62	C	0.867165	-0.503079	-0.177681
C63	C	0.867286	-0.502793	-0.108018
H64	H	0.619432	-0.624686	-0.422199
Br65	Br	0.802705	-1.136925	-0.404969
Br66	Br	0.956889	-1.040090	-0.251007
H67	H	0.949251	-0.381510	-1.092757
Br68	Br	0.931816	-0.868279	-0.275955
Br69	Br	0.777641	-0.965122	-0.429905
H70	H	0.785314	-0.624155	-0.992416
Br71	Br	0.291747	-0.483369	-0.205953
Br72	Br	0.973751	-0.345545	-0.549929
Br73	Br	0.973743	-0.345429	-0.704156
H74	H	0.785316	-0.624073	-1.111120
H75	H	0.889291	-0.332148	-0.768424
H76	H	0.500729	-0.624637	-0.422242
H77	H	0.889296	-0.332081	-0.887131
H78	H	0.949249	-0.381586	-0.974056
Br79	Br	0.838677	-0.724874	-0.934777
Br80	Br	0.838681	-0.724966	-0.780551
H81	H	0.785294	-0.624308	-0.707501
Br82	Br	0.760749	-0.660674	-0.573775
Br83	Br	0.289016	-0.522876	-0.475055
Br84	Br	0.443248	-0.522941	-0.475001
H85	H	0.215806	-0.624548	-0.422338
H86	H	0.097103	-0.624495	-0.422382
Br87	Br	0.445975	-0.483427	-0.205901
Br88	Br	0.100555	-0.345263	-0.234284
H89	H	0.234259	-0.381657	-0.258716
Br90	Br	0.504180	-0.345400	-0.234152
H91	H	0.637889	-0.381775	-0.258586
