data_functionalizedCrystal
_audit_creation_method	'MofGen! by Chris Wilmer'
_symmetry_space_group_name_H-M	'P1'
_symmetry_Int_Tables_number	1
_symmetry_cell_setting	triclinic
loop_
_symmetry_equiv_pos_as_xyz
  x,y,z
_cell_length_a	10.654545
_cell_length_b	26.210047
_cell_length_c	10.654550
_cell_angle_alpha	90.008814
_cell_angle_beta	95.515995
_cell_angle_gamma	90.008663
loop_
_atom_site_label
_atom_site_type_symbol
_atom_site_fract_x
_atom_site_fract_y
_atom_site_fract_z
O1	O	1.667855	0.042419	-0.176354
O2	O	1.302375	0.042420	-0.193166
O3	O	1.493518	0.042422	-0.002021
O4	O	1.476712	0.042417	-0.367499
O5	O	1.493481	-0.042437	-0.002050
O6	O	1.302338	-0.042438	-0.193196
O7	O	1.667818	-0.042439	-0.176384
Cu8	Cu	1.485075	-0.050187	-0.184792
Cu9	Cu	1.485118	0.050168	-0.184757
O10	O	1.476675	-0.042441	-0.367529
C11	C	1.255559	-0.000008	-0.191948
C12	C	1.116115	-0.000008	-0.188258
N13	N	1.485053	-0.120771	-0.184817
C14	C	1.050591	-0.046264	-0.186537
C15	C	0.919571	-0.046264	-0.183050
C16	C	0.919612	0.046253	-0.183009
C17	C	1.050630	0.046252	-0.186487
C18	C	1.569748	-0.473284	-0.100137
C19	C	1.569775	-0.686943	-0.100120
O20	O	1.641738	-0.714564	-0.028128
N21	N	1.485125	-0.713665	-0.184730
C22	C	1.400456	-0.686969	-0.269344
O23	O	1.328447	-0.714600	-0.341301
C24	C	1.400423	-0.473311	-0.269354
C25	C	1.485088	-0.446592	-0.184748
C26	C	1.654405	-0.446565	-0.015537
C27	C	1.654402	-0.393154	-0.015547
C28	C	1.569742	-0.366461	-0.100157
C29	C	1.485085	-0.393180	-0.184758
C30	C	1.315749	-0.446616	-0.353962
C31	C	1.315747	-0.393198	-0.353955
C32	C	1.400411	-0.366479	-0.269348
C33	C	1.400422	-0.313077	-0.269378
N34	N	1.485072	-0.286355	-0.184768
C35	C	1.569732	-0.313047	-0.100158
C36	C	1.400481	-0.799142	-0.269335
C37	C	1.400490	-0.852556	-0.269334
C38	C	1.569808	-0.852527	-0.100108
C39	C	1.569804	-0.799111	-0.100116
C40	C	1.485131	-0.772420	-0.184725
C41	C	1.569720	-0.200879	-0.100185
C42	C	1.569713	-0.147463	-0.100206
C43	C	1.400391	-0.147497	-0.269427
C44	C	1.400402	-0.200909	-0.269411
C45	C	1.485071	-0.227598	-0.184780
O46	O	1.328488	-0.285422	-0.341323
O47	O	1.641711	-0.285407	-0.028193
C48	C	1.569751	-0.526696	-0.100128
C49	C	1.485094	-0.553415	-0.184728
C50	C	1.400434	-0.526722	-0.269339
C51	C	1.485104	-0.606829	-0.184727
C52	C	1.569763	-0.633521	-0.100117
C53	C	1.654414	-0.606799	-0.015507
C54	C	1.654411	-0.553388	-0.015517
C55	C	1.315784	-0.553444	-0.353948
C56	C	1.315795	-0.606856	-0.353933
C57	C	1.400455	-0.633548	-0.269322
C58	C	1.714634	-0.000010	-0.177602
C59	C	1.854078	-0.000007	-0.181292
N60	N	1.485150	0.120752	-0.184723
C61	C	1.477927	-0.000012	-0.414312
C62	C	1.481619	-0.000014	-0.553755
C63	C	1.369078	-0.000012	-0.633243
C64	C	1.372554	-0.000004	-0.764264
C65	C	1.601124	-0.000001	-0.736297
C66	C	1.597646	-0.000006	-0.605279
C67	C	1.492266	-0.000006	0.044762
C68	C	1.488574	-0.000001	0.184206
H69	H	1.103905	-0.083932	-0.187979
H70	H	1.638744	-0.874268	-0.031216
C71	C	0.847576	0.097138	-0.181072
C72	C	0.852294	0.135300	-0.290397
C73	C	0.780263	0.186186	-0.288463
C74	C	0.703514	0.198910	-0.177205
C75	C	0.698793	0.160746	-0.067872
C76	C	0.770825	0.109860	-0.069805
H77	H	0.909111	0.125882	-0.372764
H78	H	0.783757	0.214438	-0.369399
H79	H	0.650192	0.236579	-0.175773
H80	H	0.641976	0.170164	0.014496
H81	H	0.767330	0.081609	0.011131
C82	C	1.122716	0.097138	-0.188381
C83	C	1.118038	0.135301	-0.079023
C84	C	1.190124	0.186184	-0.080910
C85	C	1.266887	0.198905	-0.192156
C86	C	1.271568	0.160742	-0.301523
C87	C	1.199482	0.109859	-0.299636
H88	H	1.061211	0.125885	0.003336
H89	H	1.186659	0.214435	0.000051
H90	H	1.320250	0.236572	-0.193554
H91	H	1.328396	0.170158	-0.383882
H92	H	1.202947	0.081608	-0.380597
H93	H	1.274601	-0.000020	-0.591298
C94	C	0.847495	-0.097147	-0.181160
C95	C	0.852167	-0.135308	-0.290523
C96	C	0.780093	-0.186194	-0.288630
C97	C	0.703347	-0.198919	-0.177373
C98	C	0.698672	-0.160758	-0.068002
C99	C	0.770746	-0.109872	-0.069895
H100	H	0.908982	-0.125889	-0.372889
H101	H	0.783555	-0.214444	-0.369594
H102	H	0.649994	-0.236588	-0.175972
H103	H	0.641857	-0.170177	0.014364
H104	H	0.767285	-0.081622	0.011069
H105	H	1.638661	-0.125710	-0.031309
C106	C	1.747539	-0.636167	0.077568
C107	C	1.697622	-0.672884	0.174069
C108	C	1.790736	-0.702255	0.267144
C109	C	1.933768	-0.694909	0.263719
C110	C	1.983692	-0.658191	0.167215
C111	C	1.890578	-0.628820	0.074139
H112	H	1.591735	-0.678324	0.176607
H113	H	1.753778	-0.729437	0.338583
H114	H	2.002696	-0.716651	0.332619
H115	H	2.089579	-0.652751	0.164676
H116	H	1.927537	-0.601638	0.002701
C117	C	1.248757	-0.000004	-0.851702
C118	C	1.219705	-0.044064	-0.945653
C119	C	1.095902	-0.044063	-1.033091
C120	C	1.001151	-0.000003	-1.026579
C121	C	1.030200	0.044061	-0.932624
C122	C	1.154003	0.044060	-0.845186
H123	H	1.289847	-0.076683	-0.950477
H124	H	1.074398	-0.076682	-1.102643
H125	H	0.909505	-0.000002	-1.091307
H126	H	0.960058	0.076680	-0.927800
H127	H	1.175507	0.076679	-0.775634
H128	H	1.331562	-0.874307	-0.338241
H129	H	1.695589	0.000000	-0.778263
C130	C	1.721451	-0.000008	-0.517832
C131	C	1.816198	-0.044071	-0.524328
C132	C	1.939996	-0.044071	-0.436882
C133	C	1.969048	-0.000007	-0.342941
C134	C	1.874299	0.044059	-0.336442
C135	C	1.750501	0.044059	-0.423887
H136	H	1.794694	-0.076692	-0.593872
H137	H	2.010136	-0.076692	-0.441694
H138	H	2.060691	-0.000007	-0.278209
H139	H	1.895803	0.076680	-0.266898
H140	H	1.680361	0.076680	-0.419076
C141	C	1.747521	-0.363765	0.077534
C142	C	1.744162	-0.371106	0.220570
C143	C	1.837281	-0.341721	0.313659
C144	C	1.933759	-0.304996	0.263713
C145	C	1.937122	-0.297654	0.120670
C146	C	1.844003	-0.327039	0.027580
H147	H	1.672740	-0.398293	0.257549
H148	H	1.834791	-0.347156	0.419549
H149	H	2.002691	-0.283243	0.332623
H150	H	2.008544	-0.270466	0.083690
H151	H	1.846492	-0.321603	-0.078310
C152	C	1.222609	-0.475999	-0.447022
C153	C	1.079585	-0.468659	-0.443562
C154	C	0.986436	-0.498042	-0.536625
C155	C	1.036311	-0.534766	-0.633148
C156	C	1.179342	-0.542108	-0.636612
C157	C	1.272491	-0.512725	-0.543549
H158	H	1.042658	-0.441472	-0.372107
H159	H	0.880555	-0.492607	-0.534061
H160	H	0.967357	-0.556518	-0.702039
H161	H	1.216269	-0.569295	-0.708067
H162	H	1.378372	-0.518160	-0.546113
H163	H	1.638664	-0.222604	-0.031269
C164	C	1.307277	-0.230301	-0.362486
C165	C	1.164251	-0.222960	-0.359050
C166	C	1.071115	-0.252347	-0.452118
C167	C	1.121004	-0.289075	-0.548622
C168	C	1.264038	-0.296418	-0.552063
C169	C	1.357174	-0.267031	-0.458995
H170	H	1.127313	-0.195770	-0.287608
H171	H	0.965232	-0.246911	-0.449570
H172	H	1.052059	-0.310829	-0.617517
H173	H	1.300976	-0.323608	-0.623505
H174	H	1.463058	-0.272467	-0.461542
C175	C	1.307263	-0.118130	-0.362493
C176	C	1.307257	-0.059377	-0.362487
C177	C	1.214120	-0.030009	-0.455547
C178	C	1.120988	-0.059395	-0.548611
C179	C	1.120991	-0.118152	-0.548620
C180	C	1.214128	-0.147519	-0.455561
H181	H	1.376201	-0.037621	-0.293592
H182	H	1.214119	0.013487	-0.455540
H183	H	1.052043	-0.037655	-0.617499
H184	H	1.052046	-0.139908	-0.617515
H185	H	1.214129	-0.191015	-0.455568
C186	C	1.747537	-0.524001	0.077559
C187	C	1.697638	-0.487279	0.174071
C188	C	1.790766	-0.457895	0.267155
C189	C	1.933794	-0.465235	0.263726
C190	C	1.983701	-0.501959	0.167210
C191	C	1.890572	-0.531342	0.074127
H192	H	1.591753	-0.481844	0.176613
H193	H	1.753822	-0.430710	0.338602
H194	H	2.002734	-0.443483	0.332632
H195	H	2.089585	-0.507393	0.164669
H196	H	1.927517	-0.558527	0.002679
H197	H	1.723345	-0.468293	0.053369
H198	H	1.638744	-0.777360	-0.031221
H199	H	1.331528	-0.777413	-0.338237
H200	H	1.246792	-0.371468	-0.422852
H201	H	1.246853	-0.628607	-0.422840
H202	H	1.246842	-0.531716	-0.422847
