data_functionalizedCrystal
_audit_creation_method	'MofGen! by Chris Wilmer'
_symmetry_space_group_name_H-M	'P1'
_symmetry_Int_Tables_number	1
_symmetry_cell_setting	triclinic
loop_
_symmetry_equiv_pos_as_xyz
  x,y,z
_cell_length_a	19.805405
_cell_length_b	17.077404
_cell_length_c	17.077396
_cell_angle_alpha	89.981638
_cell_angle_beta	89.968350
_cell_angle_gamma	90.024381
loop_
_atom_site_label
_atom_site_type_symbol
_atom_site_fract_x
_atom_site_fract_y
_atom_site_fract_z
Zn1	Zn	-0.269500	1.200035	-0.443802
Zn2	Zn	-0.019500	1.450035	-0.193802
Zn3	Zn	0.230500	1.700035	0.056198
Zn4	Zn	0.480500	1.950035	0.306198
Zn5	Zn	-0.382693	1.199934	-0.312528
Zn6	Zn	-0.132693	1.449934	-0.062528
Zn7	Zn	0.117307	1.699934	0.187472
Zn8	Zn	0.367307	1.949934	0.437472
Zn9	Zn	-0.269519	1.068767	-0.312552
Zn10	Zn	-0.019519	1.318767	-0.062552
Zn11	Zn	0.230481	1.568767	0.187448
Zn12	Zn	0.480481	1.818767	0.437448
Zn13	Zn	-0.382648	1.068727	-0.443754
Zn14	Zn	-0.132648	1.318727	-0.193754
Zn15	Zn	0.117352	1.568727	0.056246
Zn16	Zn	0.367352	1.818727	0.306246
O17	O	-0.326090	1.134366	-0.378159
O18	O	-0.076090	1.384366	-0.128159
O19	O	0.173910	1.634366	0.121841
O20	O	0.423910	1.884366	0.371841
O21	O	-0.284526	1.309869	-0.426398
O22	O	-0.034526	1.559869	-0.176398
O23	O	0.215474	1.809869	0.073602
O24	O	0.465474	2.059869	0.323602
O25	O	-0.367707	1.182509	-0.202684
O26	O	-0.117707	1.432509	0.047316
O27	O	0.132293	1.682509	0.297316
O28	O	0.382293	1.932509	0.547316
O29	O	-0.174800	1.086239	-0.329992
O30	O	0.075200	1.336239	-0.079992
O31	O	0.325200	1.586239	0.170008
O32	O	0.575200	1.836239	0.420008
O33	O	-0.367688	1.309795	-0.329952
O34	O	-0.117688	1.559795	-0.079952
O35	O	0.132312	1.809795	0.170048
O36	O	0.382312	2.059795	0.420048
O37	O	-0.174786	1.182681	-0.426421
O38	O	0.075214	1.432681	-0.176421
O39	O	0.325214	1.682681	0.073579
O40	O	0.575214	1.932681	0.323579
O41	O	-0.284559	1.086141	-0.202702
O42	O	-0.034559	1.336141	0.047298
O43	O	0.215441	1.586141	0.297298
O44	O	0.465441	1.836141	0.547298
O45	O	-0.284515	0.958915	-0.329947
O46	O	-0.034515	1.208915	-0.079947
O47	O	0.215485	1.458915	0.170053
O48	O	0.465485	1.708915	0.420053
O49	O	-0.367612	1.086171	-0.553608
O50	O	-0.117612	1.336171	-0.303608
O51	O	0.132388	1.586171	-0.053608
O52	O	0.382388	1.836171	0.196392
O53	O	-0.367631	0.958886	-0.426340
O54	O	-0.117631	1.208886	-0.176340
O55	O	0.132369	1.458886	0.073660
O56	O	0.382369	1.708886	0.323660
O57	O	-0.284482	1.182643	-0.553642
O58	O	-0.034482	1.432643	-0.303642
O59	O	0.215518	1.682643	-0.053642
O60	O	0.465518	1.932643	0.196358
O61	O	-0.477404	1.182470	-0.329906
O62	O	-0.227404	1.432470	-0.079906
O63	O	0.022596	1.682470	0.170094
O64	O	0.272596	1.932470	0.420094
O65	O	-0.477371	1.086073	-0.426317
O66	O	-0.227371	1.336073	-0.176317
O67	O	0.022629	1.586073	0.073683
O68	O	0.272629	1.836073	0.323683
C69	C	-0.326071	0.930418	-0.378141
C70	C	-0.076071	1.180418	-0.128141
C71	C	0.173929	1.430418	0.121859
C72	C	0.423929	1.680418	0.371859
C73	C	-0.326079	0.843168	-0.378153
C74	C	-0.076079	1.093168	-0.128153
C75	C	0.173921	1.343168	0.121847
C76	C	0.423921	1.593168	0.371847
C77	C	-0.282853	0.802218	-0.428449
C78	C	-0.032853	1.052218	-0.178449
C79	C	0.217147	1.302218	0.071551
C80	C	0.467147	1.552218	0.321551
C81	C	-0.282858	0.720237	-0.428452
C82	C	-0.032858	0.970237	-0.178452
C83	C	0.217142	1.220237	0.071548
C84	C	0.467142	1.470237	0.321548
C85	C	-0.326092	0.679209	-0.378163
C86	C	-0.076092	0.929209	-0.128163
C87	C	0.173908	1.179209	0.121837
C88	C	0.423908	1.429209	0.371837
C89	C	-0.369319	0.720165	-0.327862
C90	C	-0.119319	0.970165	-0.077862
C91	C	0.130681	1.220165	0.172138
C92	C	0.380681	1.470165	0.422138
C93	C	-0.369311	0.802144	-0.327855
C94	C	-0.119311	1.052144	-0.077855
C95	C	0.130689	1.302144	0.172145
C96	C	0.380689	1.552144	0.422145
C97	C	-0.369335	0.549295	-0.327881
C98	C	-0.119335	0.799295	-0.077881
C99	C	0.130665	1.049295	0.172119
C100	C	0.380665	1.299295	0.422119
C101	C	-0.369344	0.467311	-0.327889
C102	C	-0.119344	0.717311	-0.077889
C103	C	0.130656	0.967311	0.172111
C104	C	0.380656	1.217311	0.422111
C105	C	-0.282881	0.467388	-0.428479
C106	C	-0.032881	0.717388	-0.178479
C107	C	0.217119	0.967388	0.071521
C108	C	0.467119	1.217388	0.321521
C109	C	-0.282873	0.549367	-0.428472
C110	C	-0.032873	0.799367	-0.178472
C111	C	0.217127	1.049367	0.071528
C112	C	0.467127	1.299367	0.321528
C113	C	-0.326102	0.590318	-0.378171
C114	C	-0.076102	0.840318	-0.128171
C115	C	0.173898	1.090318	0.121829
C116	C	0.423898	1.340318	0.371829
C117	C	-0.501946	1.134278	-0.378121
C118	C	-0.251946	1.384278	-0.128121
C119	C	-0.001946	1.634278	0.121879
C120	C	0.248054	1.884278	0.371879
C121	C	-0.577178	1.134312	-0.378131
C122	C	-0.327178	1.384312	-0.128131
C123	C	-0.077178	1.634312	0.121869
C124	C	0.172822	1.884312	0.371869
C125	C	-0.612517	1.184555	-0.327982
C126	C	-0.362517	1.434555	-0.077982
C127	C	-0.112517	1.684555	0.172018
C128	C	0.137483	1.934555	0.422018
C129	C	-0.683205	1.184588	-0.328000
C130	C	-0.433205	1.434588	-0.078000
C131	C	-0.183205	1.684588	0.172000
C132	C	0.066795	1.934588	0.422000
C133	C	-0.718554	1.134374	-0.378162
C134	C	-0.468554	1.384374	-0.128162
C135	C	-0.218554	1.634374	0.121838
C136	C	0.031446	1.884374	0.371838
C137	C	-0.683210	1.084129	-0.428317
C138	C	-0.433210	1.334129	-0.178317
C139	C	-0.183210	1.584129	0.071683
C140	C	0.066790	1.834129	0.321683
C141	C	-0.612523	1.084100	-0.428303
C142	C	-0.362523	1.334100	-0.178303
C143	C	-0.112523	1.584100	0.071697
C144	C	0.137477	1.834100	0.321697
C145	C	-0.968283	1.084245	-0.428375
C146	C	-0.718283	1.334245	-0.178375
C147	C	-0.468283	1.584245	0.071625
C148	C	-0.218283	1.834245	0.321625
C149	C	-1.038975	1.084276	-0.428383
C150	C	-0.788975	1.334276	-0.178383
C151	C	-0.538975	1.584276	0.071617
C152	C	-0.288975	1.834276	0.321617
C153	C	-1.038966	1.184733	-0.328072
C154	C	-0.788966	1.434733	-0.078072
C155	C	-0.538966	1.684733	0.171928
C156	C	-0.288966	1.934733	0.421928
C157	C	-0.968278	1.184704	-0.328058
C158	C	-0.718278	1.434704	-0.078058
C159	C	-0.468278	1.684704	0.171942
C160	C	-0.218278	1.934704	0.421942
C161	C	-0.932941	1.134462	-0.378215
C162	C	-0.682941	1.384462	-0.128215
C163	C	-0.432941	1.634462	0.121785
C164	C	-0.182941	1.884462	0.371785
C165	C	-0.856293	1.134427	-0.378196
C166	C	-0.606293	1.384427	-0.128196
C167	C	-0.356293	1.634427	0.121804
C168	C	-0.106293	1.884427	0.371804
C169	C	-0.795201	1.134404	-0.378177
C170	C	-0.545201	1.384404	-0.128177
C171	C	-0.295201	1.634404	0.121823
C172	C	-0.045201	1.884404	0.371823
C173	C	-0.149547	1.134476	-0.378214
C174	C	0.100453	1.384476	-0.128214
C175	C	0.350453	1.634476	0.121786
C176	C	0.600453	1.884476	0.371786
C177	C	-0.074315	1.134523	-0.378238
C178	C	0.175685	1.384523	-0.128238
C179	C	0.425685	1.634523	0.121762
C180	C	0.675685	1.884523	0.371762
C181	C	-0.326040	1.134414	-0.582903
C182	C	-0.076040	1.384414	-0.332903
C183	C	0.173960	1.634414	-0.082903
C184	C	0.423960	1.884414	0.167097
C185	C	-0.326019	1.134434	-0.670153
C186	C	-0.076019	1.384434	-0.420153
C187	C	0.173981	1.634434	-0.170153
C188	C	0.423981	1.884434	0.079847
C189	C	-0.326110	1.339110	-0.378177
C190	C	-0.076110	1.589110	-0.128177
C191	C	0.173890	1.839110	0.121823
C192	C	0.423890	2.089110	0.371823
C193	C	-0.326118	1.426360	-0.378185
C194	C	-0.076118	1.676360	-0.128185
C195	C	0.173882	1.926360	0.121815
C196	C	0.423882	2.176360	0.371815
C197	C	-0.282730	1.184668	-0.711163
C198	C	-0.032730	1.434668	-0.461163
C199	C	0.217270	1.684668	-0.211163
C200	C	0.467270	1.934668	0.038837
C201	C	-0.282707	1.184678	-0.793143
C202	C	-0.032707	1.434678	-0.543143
C203	C	0.217293	1.684678	-0.293143
C204	C	0.467293	1.934678	-0.043143
C205	C	-0.325978	1.134456	-0.834113
C206	C	-0.075978	1.384456	-0.584113
C207	C	0.174022	1.634456	-0.334113
C208	C	0.424022	1.884456	-0.084113
C209	C	-0.369269	1.084216	-0.793098
C210	C	-0.119269	1.334216	-0.543098
C211	C	0.130731	1.584216	-0.293098
C212	C	0.380731	1.834216	-0.043098
C213	C	-0.369287	1.084203	-0.711119
C214	C	-0.119287	1.334203	-0.461119
C215	C	0.130713	1.584203	-0.211119
C216	C	0.380713	1.834203	0.038881
C217	C	-0.369228	1.084247	-0.963968
C218	C	-0.119228	1.334247	-0.713968
C219	C	0.130772	1.584247	-0.463968
C220	C	0.380772	1.834247	-0.213968
C221	C	-0.369211	1.084261	-1.045952
C222	C	-0.119211	1.334261	-0.795952
C223	C	0.130789	1.584261	-0.545952
C224	C	0.380789	1.834261	-0.295952
C225	C	-0.282648	1.184722	-1.045992
C226	C	-0.032648	1.434722	-0.795992
C227	C	0.217352	1.684722	-0.545992
C228	C	0.467352	1.934722	-0.295992
C229	C	-0.282666	1.184709	-0.964013
C230	C	-0.032666	1.434709	-0.714013
C231	C	0.217334	1.684709	-0.464013
C232	C	0.467334	1.934709	-0.214013
C233	C	-0.325959	1.134470	-0.923004
C234	C	-0.075959	1.384470	-0.673004
C235	C	0.174041	1.634470	-0.423004
C236	C	0.424041	1.884470	-0.173004
C237	C	-0.326091	1.134364	-0.174211
C238	C	-0.076091	1.384364	0.075789
C239	C	0.173909	1.634364	0.325789
C240	C	0.423909	1.884364	0.575789
C241	C	-0.325921	1.134496	-0.086962
C242	C	-0.075921	1.384496	0.163038
C243	C	0.174079	1.634496	0.413038
C244	C	0.424079	1.884496	0.663038
H245	H	-0.247672	0.582770	-0.469426
H246	H	0.002328	0.832770	-0.219426
H247	H	0.252328	1.082770	0.030574
H248	H	0.502328	1.332770	0.280574
H249	H	-0.939517	1.043334	-0.469213
H250	H	-0.689517	1.293334	-0.219213
H251	H	-0.439517	1.543334	0.030787
H252	H	-0.189517	1.793334	0.280787
H253	H	-0.404471	1.043325	-0.930580
H254	H	-0.154471	1.293325	-0.680580
H255	H	0.095529	1.543325	-0.430580
H256	H	0.345529	1.793325	-0.180580
F257	F	-0.415371	0.423647	-0.274381
F258	F	-0.165371	0.673647	-0.024381
F259	F	0.084629	0.923647	0.225619
F260	F	0.334629	1.173647	0.475619
F261	F	-1.076580	1.238209	-0.274693
F262	F	-0.826580	1.488209	-0.024693
F263	F	-0.576580	1.738209	0.225307
F264	F	-0.326580	1.988209	0.475307
H265	H	-0.247682	0.434042	-0.469434
H266	H	0.002318	0.684042	-0.219434
H267	H	0.252318	0.934042	0.030566
H268	H	0.502318	1.184042	0.280566
F269	F	-0.415329	0.676498	-0.274336
F270	F	-0.165329	0.926498	-0.024336
F271	F	0.084671	1.176498	0.225664
F272	F	0.334671	1.426498	0.475664
H273	H	-0.711975	1.225500	-0.287163
H274	H	-0.461975	1.475500	-0.037163
H275	H	-0.211975	1.725500	0.212837
H276	H	0.038025	1.975500	0.462837
H277	H	-0.247496	1.225567	-0.677811
H278	H	0.002504	1.475567	-0.427811
H279	H	0.252504	1.725567	-0.177811
H280	H	0.502504	1.975567	0.072189
F281	F	-0.236840	0.845876	-0.481978
F282	F	0.013160	1.095876	-0.231978
F283	F	0.263160	1.345876	0.018022
F284	F	0.513160	1.595876	0.268022
F285	F	-0.415346	0.592876	-0.274348
F286	F	-0.165346	0.842876	-0.024348
F287	F	0.084654	1.092876	0.225652
F288	F	0.334654	1.342876	0.475652
H289	H	-0.404509	0.835485	-0.286898
H290	H	-0.154509	1.085485	-0.036898
H291	H	0.095491	1.335485	0.213102
H292	H	0.345491	1.585485	0.463102
F293	F	-0.236573	1.238192	-1.089638
F294	F	0.013427	1.488192	-0.839638
F295	F	0.263427	1.738192	-0.589638
F296	F	0.513427	1.988192	-0.339638
H297	H	-0.404498	1.043322	-0.826462
H298	H	-0.154498	1.293322	-0.576462
H299	H	0.095502	1.543322	-0.326462
H300	H	0.345502	1.793322	-0.076462
F301	F	-0.574903	1.237995	-0.274586
F302	F	-0.324903	1.487995	-0.024586
F303	F	-0.074903	1.737995	0.225414
F304	F	0.175097	1.987995	0.475414
F305	F	-0.236617	1.238166	-0.920412
F306	F	0.013383	1.488166	-0.670412
F307	F	0.263383	1.738166	-0.420412
F308	F	0.513383	1.988166	-0.170412
F309	F	-0.930662	1.238148	-0.274667
F310	F	-0.680662	1.488148	-0.024667
F311	F	-0.430662	1.738148	0.225333
F312	F	-0.180662	1.988148	0.475333
F313	F	-0.720832	1.030691	-0.481709
F314	F	-0.470832	1.280691	-0.231709
F315	F	-0.220832	1.530691	0.018291
F316	F	0.029168	1.780691	0.268291
F317	F	-0.236852	0.676658	-0.481986
F318	F	0.013148	0.926658	-0.231986
F319	F	0.263148	1.176658	0.018014
F320	F	0.513148	1.426658	0.268014
F321	F	-1.076594	1.030829	-0.481777
F322	F	-0.826594	1.280829	-0.231777
F323	F	-0.576594	1.530829	0.018223
F324	F	-0.326594	1.780829	0.268223
F325	F	-0.574913	1.030627	-0.481680
F326	F	-0.324913	1.280627	-0.231680
F327	F	-0.074913	1.530627	0.018320
F328	F	0.175087	1.780627	0.268320
H329	H	-0.247458	1.225586	-0.826530
H330	H	0.002542	1.475586	-0.576530
H331	H	0.252542	1.725586	-0.326530
H332	H	0.502542	1.975586	-0.076530
F333	F	-0.415258	1.030803	-1.089554
F334	F	-0.165258	1.280803	-0.839554
F335	F	0.084742	1.530803	-0.589554
F336	F	0.334742	1.780803	-0.339554
F337	F	-0.415360	1.030735	-0.667474
F338	F	-0.165360	1.280735	-0.417474
F339	F	0.084640	1.530735	-0.167474
F340	F	0.334640	1.780735	0.082526
