data_functionalizedCrystal
_audit_creation_method	'MofGen! by Chris Wilmer'
_symmetry_space_group_name_H-M	'P1'
_symmetry_Int_Tables_number	1
_symmetry_cell_setting	triclinic
loop_
_symmetry_equiv_pos_as_xyz
  x,y,z
_cell_length_a	17.639181
_cell_length_b	25.639240
_cell_length_c	17.640968
_cell_angle_alpha	78.760674
_cell_angle_beta	87.836484
_cell_angle_gamma	78.841892
loop_
_atom_site_label
_atom_site_type_symbol
_atom_site_fract_x
_atom_site_fract_y
_atom_site_fract_z
Zn1	Zn	1.247402	-0.348839	-0.194173
Zn2	Zn	1.221607	-0.449813	-0.067187
Zn3	Zn	1.094769	-0.342006	-0.092922
Zn4	Zn	1.120380	-0.415841	-0.219844
O5	O	1.171039	-0.389125	-0.143531
O6	O	1.350221	-0.379310	-0.155814
O7	O	1.183268	-0.446870	0.035660
O8	O	1.115093	-0.269753	-0.106380
O9	O	1.331270	-0.453495	-0.062518
O10	O	1.227232	-0.274774	-0.180769
O11	O	1.090081	-0.367664	0.016753
O12	O	0.991925	-0.334723	-0.131273
O13	O	1.158743	-0.395595	-0.322699
O14	O	1.010741	-0.388970	-0.224521
O15	O	1.252066	-0.346369	-0.303839
O16	O	1.208101	-0.518465	-0.087410
O17	O	1.133731	-0.493506	-0.199566
C18	C	0.973786	-0.357419	-0.183475
C19	C	0.889404	-0.343866	-0.200582
C20	C	0.562497	-0.492202	-0.013586
C21	C	0.483209	-0.479459	-0.029666
C22	C	0.502971	-0.402302	-0.126960
C23	C	0.582263	-0.415037	-0.110885
C24	C	0.612019	-0.459988	-0.054198
C25	C	0.631784	-0.382823	-0.151496
C26	C	0.711069	-0.395559	-0.135425
C27	C	0.740832	-0.440508	-0.078742
C28	C	0.691304	-0.472724	-0.038126
C29	C	0.602027	-0.337874	-0.208187
C30	C	0.651549	-0.305660	-0.248799
C31	C	0.730834	-0.318394	-0.232724
C32	C	0.760597	-0.363344	-0.176041
C33	C	0.780363	-0.286179	-0.273340
C34	C	0.859648	-0.298915	-0.257269
C35	C	0.839882	-0.376080	-0.159970
C36	C	1.170920	-0.524956	-0.143494
C37	C	1.170944	-0.583074	-0.143489
C38	C	1.229472	-0.946014	-0.182348
C39	C	1.229497	-1.000620	-0.182359
O40	O	1.279120	-1.031034	-0.215363
N41	N	1.171159	-1.025373	-0.143583
C42	C	1.112788	-0.995514	-0.104801
O43	O	1.063169	-1.021582	-0.071821
C44	C	1.112760	-0.940908	-0.104795
C45	C	1.171106	-0.916160	-0.143567
C46	C	1.287812	-0.921266	-0.221117
C47	C	1.287788	-0.866664	-0.221105
C48	C	1.229422	-0.836810	-0.182323
C49	C	1.171081	-0.861558	-0.143554
C50	C	1.054386	-0.911049	-0.066018
C51	C	1.054363	-0.856440	-0.066016
C52	C	1.112709	-0.831692	-0.104787
C53	C	1.112691	-0.777102	-0.104761
N54	N	1.171028	-0.752349	-0.143536
C55	C	1.229394	-0.782203	-0.182318
C56	C	1.112850	-1.110191	-0.104817
C57	C	1.112881	-1.164797	-0.104818
C58	C	1.229589	-1.169899	-0.182377
C59	C	1.229561	-1.115293	-0.182372
C60	C	1.171188	-1.085439	-0.143593
C61	C	1.229338	-0.667535	-0.182288
C62	C	1.229309	-0.612928	-0.182270
C63	C	1.112599	-0.607830	-0.104714
C64	C	1.112629	-0.662432	-0.104729
C65	C	1.171002	-0.692283	-0.143522
O66	O	1.063091	-0.746654	-0.071776
O67	O	1.278999	-0.756127	-0.215300
C68	C	1.369063	-0.420954	-0.103432
C69	C	1.453449	-0.434518	-0.086344
C70	C	1.211139	-0.367955	-0.341592
C71	C	1.228227	-0.358933	-0.425993
C72	C	1.171183	-0.252764	-0.143582
C73	C	1.171244	-0.194655	-0.143603
C74	C	1.041515	-0.457421	-0.752671
C75	C	1.057588	-0.448940	-0.831976
C76	C	1.154757	-0.397685	-0.812328
C77	C	1.138689	-0.406159	-0.733020
C78	C	1.082069	-0.436028	-0.703199
C79	C	1.179243	-0.384766	-0.683548
C80	C	1.163179	-0.393243	-0.604246
C81	C	1.106563	-0.423112	-0.574418
C82	C	1.066005	-0.444504	-0.623897
C83	C	1.235867	-0.354901	-0.713370
C84	C	1.276420	-0.333508	-0.663898
C85	C	1.260353	-0.341981	-0.584596
C86	C	1.203737	-0.371850	-0.554767
C87	C	1.300911	-0.320588	-0.535116
C88	C	1.284847	-0.329064	-0.455815
C89	C	1.187673	-0.380326	-0.475466
C90	C	1.131140	-0.410181	0.053767
C91	C	1.114199	-0.419079	0.138198
H92	H	0.478733	-0.365704	-0.173117
H93	H	1.006875	-0.931189	-0.034446
Br94	Br	0.611159	-0.244661	-0.325735
Br95	Br	0.880274	-0.437087	-0.083039
Br96	Br	0.731696	-0.533731	0.038805
H97	H	0.586725	-0.528802	0.032579
H98	H	0.805390	-0.450873	-0.065652
H99	H	1.277113	-1.194216	-0.213957
H100	H	1.006826	-0.832134	-0.034439
Br101	Br	1.353264	-0.292976	-0.704377
Br102	Br	0.739971	-0.225184	-0.350282
Br103	Br	1.033625	-1.069680	-0.052179
Br104	Br	1.002544	-0.477976	-0.899118
H105	H	0.537468	-0.327508	-0.221273
H106	H	0.899969	-0.272682	-0.290337
H107	H	1.276824	-0.592781	-0.213842
H108	H	1.335296	-0.846517	-0.252678
H109	H	1.276866	-0.691832	-0.213883
H110	H	1.347016	-0.296274	-0.559409
H111	H	1.335342	-0.945567	-0.252702
Br112	Br	0.416005	-0.523194	0.025438
H113	H	1.277071	-1.095147	-0.213943
H114	H	0.995391	-0.481727	-0.728393
Br115	Br	1.033704	-1.198380	-0.052182
H116	H	1.317869	-0.311643	-0.415533
H117	H	1.065124	-0.682585	-0.073151
H118	H	1.200859	-0.373367	-0.836620
H119	H	1.065080	-0.583515	-0.073136
Br120	Br	1.110821	-0.420856	-0.434988
Br121	Br	1.257672	-0.343401	-0.820994
Br122	Br	0.989153	-0.485034	-0.583419
H123	H	1.093488	-0.430015	-0.509845
