data_functionalizedCrystal
_audit_creation_method	'MofGen! by Chris Wilmer'
_symmetry_space_group_name_H-M	'P1'
_symmetry_Int_Tables_number	1
_symmetry_cell_setting	triclinic
loop_
_symmetry_equiv_pos_as_xyz
  x,y,z
_cell_length_a	14.971486
_cell_length_b	14.971486
_cell_length_c	14.048226
_cell_angle_alpha	90.006640
_cell_angle_beta	90.001501
_cell_angle_gamma	83.614129
loop_
_atom_site_label
_atom_site_type_symbol
_atom_site_fract_x
_atom_site_fract_y
_atom_site_fract_z
O1	O	-1.186947	-0.116565	-0.079052
O2	O	-0.926547	-0.130523	-0.079078
O3	O	-1.063726	0.006656	-0.079057
O4	O	-1.049768	-0.253744	-0.079072
O5	O	-1.063710	0.006664	0.079264
O6	O	-0.926530	-0.130515	0.079244
O7	O	-1.186930	-0.116556	0.079270
Zn8	Zn	-1.056728	-0.123535	0.104394
Zn9	Zn	-1.056750	-0.123545	-0.104202
O10	O	-1.049751	-0.253736	0.079249
C11	C	-0.893214	-0.129895	0.000080
C12	C	-0.793917	-0.128024	0.000070
C13	C	-1.063094	0.039985	0.000103
C14	C	-1.061223	0.139282	0.000102
C15	C	-1.220263	-0.117185	0.000110
C16	C	-1.319561	-0.119056	0.000114
C17	C	-0.736692	-0.208614	0.000067
C18	C	-0.643392	-0.206850	0.000081
C19	C	-0.607320	-0.124497	0.000092
C20	C	-0.664552	-0.043902	0.000098
C21	C	-0.757850	-0.045666	0.000090
C22	C	-0.470090	-0.040231	0.000111
C23	C	-0.376786	-0.038466	0.000117
C24	C	-0.355632	-0.201415	0.000102
C25	C	-0.448930	-0.203179	0.000094
C26	C	-0.506156	-0.122584	0.000099
C27	C	-1.050384	-0.287065	0.000087
C28	C	-1.052254	-0.386362	0.000082
N29	N	-1.056719	-0.123527	0.246754
C30	C	-1.141812	0.196507	0.000111
C31	C	-1.140049	0.289807	0.000101
C32	C	-1.057696	0.325879	0.000089
C33	C	-0.977101	0.268646	0.000078
C34	C	-0.978865	0.175349	0.000081
C35	C	-0.973430	0.463109	0.000074
C36	C	-0.971665	0.556413	0.000073
C37	C	-1.134614	0.577567	0.000094
C38	C	-1.136378	0.484269	0.000097
C39	C	-1.055782	0.427043	0.000088
N40	N	-1.056765	-0.123546	-0.246562
C41	C	-1.117482	-0.062809	0.296581
C42	C	-1.117488	-0.062808	0.396239
C43	C	-1.056735	-0.123531	0.446068
C44	C	-0.995966	-0.184252	0.396234
C45	C	-0.995957	-0.184247	0.296578
C46	C	-0.995992	-0.184258	0.603948
C47	C	-0.996003	-0.184264	0.703611
C48	C	-1.117523	-0.062819	0.703609
C49	C	-1.117514	-0.062815	0.603953
C50	C	-1.056746	-0.123537	0.554126
H51	H	-0.766054	-0.275675	0.000057
O52	O	-0.587931	-0.285218	0.000034
C53	C	-0.639776	-0.358282	0.000042
H54	H	-0.709380	-0.335654	-0.029939
H55	H	-0.605417	-0.414756	-0.045925
H56	H	-0.646454	-0.383520	0.075992
H57	H	-0.478296	-0.270239	0.000077
O58	O	-0.936861	-0.243268	0.444487
C59	C	-0.883240	-0.296871	0.379134
H60	H	-0.882190	-0.260193	0.308103
H61	H	-0.811828	-0.310394	0.407935
H62	H	-0.912343	-0.363369	0.368520
H63	H	-0.904606	0.585780	0.000079
H64	H	-0.347419	0.028593	0.000127
H65	H	-1.167002	-0.013377	0.744184
O66	O	-1.176562	-0.003745	0.555695
C67	C	-1.230214	0.049835	0.621041
H68	H	-1.193554	0.050908	0.692087
H69	H	-1.243783	0.121245	0.592253
H70	H	-1.296687	0.020680	0.631622
H71	H	-1.203437	0.454903	0.000114
H72	H	-0.907800	0.416517	0.000064
H73	H	-0.910047	0.298024	0.000062
H74	H	-0.309033	-0.267039	0.000103
H75	H	-0.913240	0.128756	0.000074
O76	O	-0.525553	0.038142	0.000068
C77	C	-0.473711	0.111209	0.000097
H78	H	-0.404100	0.088578	-0.029867
H79	H	-0.508063	0.167674	-0.045874
H80	H	-0.467050	0.136458	0.076052
H81	H	-1.166957	-0.013365	0.256017
O82	O	-0.936846	-0.243108	0.248130
C83	C	-0.881628	-0.195109	0.190486
H84	H	-0.880051	-0.124567	0.220532
H85	H	-0.810574	-0.231485	0.189358
H86	H	-0.909608	-0.190464	0.114955
O87	O	-1.176609	-0.003803	0.444493
C88	C	-1.230221	0.049799	0.379144
H89	H	-1.231249	0.013128	0.308097
H90	H	-1.301641	0.063307	0.407925
H91	H	-1.201128	0.116304	0.368565
H92	H	-0.635175	0.023152	0.000120
O93	O	-0.936890	-0.243269	0.751869
C94	C	-0.883257	-0.296869	0.686523
H95	H	-0.882214	-0.260197	0.615487
H96	H	-0.811845	-0.310372	0.715326
H97	H	-0.912343	-0.363376	0.675916
H98	H	-0.946506	-0.233702	0.563382
O99	O	-0.813314	0.032702	0.000046
C100	C	-0.761472	0.105768	0.000079
H101	H	-0.691863	0.083140	-0.029891
H102	H	-0.795827	0.162238	-0.045885
H103	H	-0.754806	0.131011	0.076036
H104	H	-1.208874	0.167145	0.000126
O105	O	-1.218417	0.345267	0.000158
C106	C	-1.291481	0.293423	0.000154
H107	H	-1.268846	0.223819	0.030125
H108	H	-1.347944	0.327783	0.046130
H109	H	-1.316736	0.286743	-0.075795
O110	O	-1.212824	0.633279	0.000051
C111	C	-1.193612	0.723362	0.000061
H112	H	-1.123355	0.727007	-0.029920
H113	H	-1.244979	0.765565	-0.045904
H114	H	-1.196967	0.750355	0.076013
