data_functionalizedCrystal
_audit_creation_method	'MofGen! by Chris Wilmer'
_symmetry_space_group_name_H-M	'P1'
_symmetry_Int_Tables_number	1
_symmetry_cell_setting	triclinic
loop_
_symmetry_equiv_pos_as_xyz
  x,y,z
_cell_length_a	12.759395
_cell_length_b	19.121063
_cell_length_c	19.122683
_cell_angle_alpha	94.691379
_cell_angle_beta	92.362080
_cell_angle_gamma	92.470426
loop_
_atom_site_label
_atom_site_type_symbol
_atom_site_fract_x
_atom_site_fract_y
_atom_site_fract_z
Zn1	Zn	1.561707	-0.296698	-0.409637
Zn2	Zn	2.061707	0.203302	0.090363
Zn3	Zn	1.561384	-0.409451	-0.297012
Zn4	Zn	2.061384	0.090549	0.202988
Zn5	Zn	1.393648	-0.291812	-0.292020
Zn6	Zn	1.893648	0.208188	0.207980
Zn7	Zn	1.378142	-0.414324	-0.414612
Zn8	Zn	1.878142	0.085676	0.085388
O9	O	1.473720	-0.353071	-0.353320
O10	O	1.973720	0.146929	0.146680
O11	O	1.708684	-0.311660	-0.394704
O12	O	2.208684	0.188340	0.105296
O13	O	1.545487	-0.389761	-0.197911
O14	O	2.045487	0.110239	0.302089
O15	O	1.422567	-0.194001	-0.303451
O16	O	1.922567	0.305999	0.196549
O17	O	1.708447	-0.394499	-0.311959
O18	O	2.208447	0.105501	0.188041
O19	O	1.546038	-0.197591	-0.389863
O20	O	2.046038	0.302409	0.110137
O21	O	1.422253	-0.303333	-0.194243
O22	O	1.922253	0.196667	0.305757
O23	O	1.244571	-0.308059	-0.308275
O24	O	1.744571	0.191941	0.191725
O25	O	1.396138	-0.402806	-0.512391
O26	O	1.896138	0.097194	-0.012391
O27	O	1.233178	-0.398068	-0.398343
O28	O	1.733178	0.101932	0.101657
O29	O	1.531002	-0.316386	-0.508736
O30	O	2.031002	0.183614	-0.008736
O31	O	1.530451	-0.508556	-0.316783
O32	O	2.030451	-0.008556	0.183217
O33	O	1.395824	-0.512137	-0.403184
O34	O	1.895824	-0.012137	0.096816
C35	C	1.200754	-0.353062	-0.353308
C36	C	1.700754	0.146938	0.146692
C37	C	1.083976	-0.353076	-0.353320
C38	C	1.583976	0.146924	0.146680
C39	C	1.072151	-0.446942	-0.446968
C40	C	1.572151	0.053058	0.053032
C41	C	1.011377	-0.493881	-0.493795
C42	C	1.511377	0.006119	0.006205
C43	C	0.901654	-0.493890	-0.493804
C44	C	1.401654	0.006110	0.006196
C45	C	0.852703	-0.446953	-0.446982
C46	C	1.352703	0.053047	0.053018
C47	C	0.913477	-0.400015	-0.400156
C48	C	1.413477	0.099985	0.099844
C49	C	1.023202	-0.400012	-0.400151
C50	C	1.523202	0.099988	0.099849
C51	C	0.925302	-0.306147	-0.306512
C52	C	1.425302	0.193853	0.193488
C53	C	1.035025	-0.306140	-0.306499
C54	C	1.535025	0.193860	0.193501
C55	C	0.876351	-0.259210	-0.259691
C56	C	1.376351	0.240790	0.240309
C57	C	0.937125	-0.212274	-0.212860
C58	C	1.437125	0.287726	0.287140
C59	C	1.046854	-0.212268	-0.212853
C60	C	1.546854	0.287732	0.287147
C61	C	1.095799	-0.259201	-0.259672
C62	C	1.595799	0.240799	0.240328
C63	C	1.461448	-0.535876	-0.361080
C64	C	1.961448	-0.035876	0.138920
C65	C	1.456292	-0.614082	-0.364424
C66	C	1.956292	-0.114082	0.135576
C67	C	1.524013	-0.648937	-0.321048
C68	C	2.024013	-0.148937	0.178952
C69	C	1.519170	-0.722420	-0.324196
C70	C	2.019170	-0.222420	0.175804
C71	C	1.446600	-0.761046	-0.370718
C72	C	1.946600	-0.261046	0.129282
C73	C	1.378876	-0.726186	-0.414098
C74	C	1.878876	-0.226186	0.085902
C75	C	1.383725	-0.652705	-0.410953
C76	C	1.883725	-0.152705	0.089047
C77	C	1.428455	-0.983007	-0.382467
C78	C	1.928455	-0.483007	0.117533
C79	C	1.423610	-1.056494	-0.385608
C80	C	1.923610	-0.556494	0.114392
C81	C	1.563905	-1.052722	-0.295706
C82	C	2.063905	-0.552722	0.204294
C83	C	1.568743	-0.979240	-0.292562
C84	C	2.068743	-0.479240	0.207438
C85	C	1.501023	-0.944386	-0.335945
C86	C	2.001023	-0.444386	0.164055
C87	C	1.441646	-0.836158	-0.373936
C88	C	1.941646	-0.336158	0.126064
C89	C	1.505983	-0.869276	-0.332730
C90	C	2.005983	-0.369276	0.167270
C91	C	1.747752	-0.353081	-0.353333
C92	C	2.247752	0.146919	0.146667
C93	C	1.864528	-0.353085	-0.353339
C94	C	2.364528	0.146915	0.146661
C95	C	1.461876	-0.360685	-0.536801
C96	C	1.961876	0.139315	-0.036801
C97	C	1.456829	-0.363929	-0.614990
C98	C	1.956829	0.136071	-0.114990
C99	C	1.486068	-0.169553	-0.345545
C100	C	1.986068	0.330447	0.154455
C101	C	1.491330	-0.091349	-0.342232
C102	C	1.991330	0.408651	0.157768
C103	C	1.485582	-0.345437	-0.170551
C104	C	1.985582	0.154563	0.329449
C105	C	1.490846	-0.341994	-0.092354
C106	C	1.990846	0.158006	0.407646
C107	C	1.423584	-0.385687	-0.057342
C108	C	1.923584	0.114313	0.442658
C109	C	1.428524	-0.382446	0.016132
C110	C	1.928524	0.117554	0.516132
C111	C	1.500731	-0.335516	0.054593
C112	C	2.000731	0.164484	0.554593
C113	C	1.567996	-0.291818	0.019577
C114	C	2.067996	0.208182	0.519577
C115	C	1.563050	-0.295056	-0.053896
C116	C	2.063050	0.204944	0.446104
C117	C	1.519148	-0.323469	0.276521
C118	C	2.019148	0.176531	0.776521
C119	C	1.524091	-0.320236	0.349999
C120	C	2.024091	0.179764	0.849999
C121	C	1.384617	-0.410864	0.346548
C122	C	1.884617	0.089136	0.846548
C123	C	1.379682	-0.414101	0.273074
C124	C	1.879682	0.085899	0.773074
C125	C	1.446943	-0.370401	0.238064
C126	C	1.946943	0.129599	0.738064
C127	C	1.505784	-0.332203	0.129696
C128	C	2.005784	0.167797	0.629696
C129	C	1.441884	-0.373710	0.162963
C130	C	1.941884	0.126290	0.662963
H131	H	1.583102	-0.617492	-0.283162
H132	H	2.083102	-0.117492	0.216838
H133	H	0.852172	-0.532108	-0.531937
H134	H	1.352172	-0.032108	-0.031937
Cl135	Cl	1.287651	-0.774745	-0.472587
Cl136	Cl	1.787651	-0.274745	0.027413
Cl137	Cl	1.332360	-1.105051	-0.444087
Cl138	Cl	1.832360	-0.605051	0.055913
H139	H	1.617818	-0.259474	-0.082401
H140	H	2.117818	0.240526	0.417599
H141	H	1.328581	-0.624327	-0.446275
H142	H	1.828581	-0.124327	0.053725
Cl143	Cl	1.343319	-0.939201	-0.437005
Cl144	Cl	1.843319	-0.439201	0.062995
Cl145	Cl	1.597214	-0.820717	-0.274251
Cl146	Cl	2.097214	-0.320717	0.225749
H147	H	1.382558	-0.867615	-0.411812
H148	H	1.882558	-0.367615	0.088188
Cl149	Cl	1.233736	-0.259200	-0.259664
Cl150	Cl	1.733736	0.240800	0.240336
Cl151	Cl	1.332808	-0.444692	-0.105687
Cl152	Cl	1.832808	0.055308	0.394313
H153	H	0.763361	-0.446959	-0.447000
H154	H	1.263361	0.053041	0.053000
H155	H	1.373763	-0.418033	0.044634
H156	H	1.873763	0.081967	0.544634
Cl157	Cl	1.351109	-0.432704	0.114611
Cl158	Cl	1.851109	0.067296	0.614611
H159	H	1.320884	-0.452317	0.241763
H160	H	1.820884	0.047683	0.741763
H161	H	1.626784	-0.253603	0.050899
H162	H	2.126784	0.246397	0.550899
Cl163	Cl	1.596528	-0.273187	0.178055
Cl164	Cl	2.096528	0.226813	0.678055
Cl165	Cl	0.738413	-0.259218	-0.259706
Cl166	Cl	1.238413	0.240782	0.240294
Cl167	Cl	1.300061	-0.465794	0.390565
Cl168	Cl	1.800061	0.034206	0.890565
Cl169	Cl	0.875582	-0.153271	-0.154011
Cl170	Cl	1.375582	0.346729	0.345989
H171	H	1.627835	-0.947791	-0.254680
H172	H	2.127835	-0.447791	0.245320
H173	H	1.574314	-0.750796	-0.288874
H174	H	2.074314	-0.250796	0.211126
H175	H	1.582890	-0.282016	0.381312
H176	H	2.082890	0.217984	0.881312
H177	H	1.161492	-0.446945	-0.446961
H178	H	1.661492	0.053055	0.053039
H179	H	1.096330	-0.174039	-0.174725
H180	H	1.596330	0.325961	0.325275
Cl181	Cl	1.649039	-1.096543	-0.241175
Cl182	Cl	2.149039	-0.596543	0.258825
H183	H	1.573922	-0.287889	0.248025
H184	H	2.073922	0.212111	0.748025
H185	H	1.051245	-0.532094	-0.531916
H186	H	1.551245	-0.032094	-0.031916
