data_functionalizedCrystal
_audit_creation_method	'MofGen! by Chris Wilmer'
_symmetry_space_group_name_H-M	'P1'
_symmetry_Int_Tables_number	1
_symmetry_cell_setting	triclinic
loop_
_symmetry_equiv_pos_as_xyz
  x,y,z
_cell_length_a	11.804365
_cell_length_b	12.837943
_cell_length_c	12.837942
_cell_angle_alpha	85.171060
_cell_angle_beta	76.894514
_cell_angle_gamma	76.879533
loop_
_atom_site_label
_atom_site_type_symbol
_atom_site_fract_x
_atom_site_fract_y
_atom_site_fract_z
O1	O	0.099004	-1.421392	0.253097
O2	O	0.599004	-0.921392	0.753097
O3	O	0.099011	-1.118260	0.239652
O4	O	0.599011	-0.618260	0.739652
O5	O	0.099001	-1.263103	0.094809
O6	O	0.599001	-0.763103	0.594809
O7	O	0.099015	-1.276549	0.397940
O8	O	0.599015	-0.776549	0.897940
O9	O	-0.099053	-1.224967	0.132898
O10	O	0.400947	-0.724967	0.632898
O11	O	-0.099042	-1.080124	0.277741
O12	O	0.400958	-0.580124	0.777741
O13	O	-0.099049	-1.383256	0.291186
O14	O	0.400951	-0.883256	0.791186
Cu15	Cu	-0.117129	-1.228208	0.287942
Cu16	Cu	0.382871	-0.728208	0.787942
Cu17	Cu	0.117092	-1.273308	0.242897
Cu18	Cu	0.617092	-0.773308	0.742897
O19	O	-0.099038	-1.238413	0.436029
O20	O	0.400962	-0.738413	0.936029
C21	C	-0.000014	-1.060123	0.254155
C22	C	0.499986	-0.560123	0.754155
C23	C	-0.000012	-0.943709	0.240610
C24	C	0.499988	-0.443709	0.740610
N25	N	-0.281868	-1.196495	0.319624
N26	N	0.218132	-0.696495	0.819624
C27	C	-0.000025	-1.239494	0.074784
C28	C	0.499975	-0.739494	0.574784
C29	C	-0.000023	-1.225950	-0.041631
C30	C	0.499977	-0.725950	0.458369
C31	C	-0.655830	-1.381182	0.135107
C32	C	-0.155830	-0.881182	0.635107
C33	C	-0.531170	-1.405172	0.111135
C34	C	-0.031170	-0.905172	0.611135
C35	C	-0.468838	-1.353004	0.163255
C36	C	0.031162	-0.853004	0.663255
C37	C	-0.531179	-1.276844	0.239351
C38	C	-0.031179	-0.776844	0.739351
C39	C	-0.655851	-1.252858	0.263332
C40	C	-0.155851	-0.752858	0.763332
C41	C	-0.468859	-1.224680	0.291480
C42	C	0.031141	-0.724680	0.791480
C43	C	-0.531200	-1.148520	0.367576
C44	C	-0.031200	-0.648520	0.867576
C45	C	-0.655859	-1.124537	0.391552
C46	C	-0.155859	-0.624537	0.891552
C47	C	-0.718191	-1.176705	0.339432
C48	C	-0.218191	-0.676705	0.839432
C49	C	-0.344187	-1.248666	0.267499
C50	C	0.155813	-0.748666	0.767499
C51	C	-0.344208	-1.120341	0.395724
C52	C	0.155792	-0.620341	0.895724
C53	C	-0.468868	-1.096352	0.419696
C54	C	0.031132	-0.596352	0.919696
N55	N	0.281830	-1.305029	0.211207
N56	N	0.781830	-0.805029	0.711207
C57	C	-0.000021	-1.441394	0.276683
C58	C	0.499979	-0.941394	0.776683
C59	C	-0.000015	-1.557810	0.290226
C60	C	0.499985	-1.057810	0.790226
C61	C	-0.000021	-0.718833	0.403441
C62	C	0.499979	-0.218833	0.903441
C63	C	-0.000020	-0.609451	0.390720
C64	C	0.499980	-0.109451	0.890720
C65	C	-0.000016	-0.615558	0.202448
C66	C	0.499984	-0.115558	0.702448
C67	C	-0.000017	-0.724941	0.215170
C68	C	0.499983	-0.224941	0.715170
C69	C	-0.000018	-0.776574	0.315669
C70	C	0.499982	-0.276574	0.815669
C71	C	-0.000011	-0.885960	0.328388
C72	C	0.499989	-0.385960	0.828388
C73	C	-0.000016	-0.892064	0.140119
C74	C	0.499984	-0.392064	0.640119
C75	C	-0.000015	-0.782682	0.127397
C76	C	0.499985	-0.282682	0.627397
C77	C	-0.000002	-1.388783	-0.266509
C78	C	0.499998	-0.888783	0.233491
C79	C	0.000000	-1.376062	-0.375892
C80	C	0.500000	-0.876062	0.124108
C81	C	-0.000008	-1.187790	-0.369783
C82	C	0.499992	-0.687790	0.130217
C83	C	-0.000010	-1.200511	-0.260400
C84	C	0.499990	-0.700511	0.239600
C85	C	-0.000009	-1.301010	-0.208767
C86	C	0.499991	-0.801010	0.291233
C87	C	-0.000020	-1.313729	-0.099380
C88	C	0.499980	-0.813729	0.400620
C89	C	-0.000019	-1.125459	-0.093275
C90	C	0.499981	-0.625459	0.406725
C91	C	-0.000017	-1.112738	-0.202658
C92	C	0.499983	-0.612738	0.297342
C93	C	-0.000010	-1.262023	0.456053
C94	C	0.499990	-0.762023	0.956053
C95	C	-0.000004	-1.275568	0.572467
C96	C	0.499996	-0.775568	1.072467
H97	H	-0.367334	-1.372540	0.143733
H98	H	0.132666	-0.872540	0.643733
C99	C	-0.724437	-1.040772	0.475262
C100	C	-0.224437	-0.540772	0.975262
H101	H	-0.807609	-1.033966	0.482085
H102	H	-0.307609	-0.533966	0.982085
H103	H	-0.704023	-0.973711	0.453025
H104	H	-0.204023	-0.473711	0.953025
H105	H	-0.703998	-1.062976	0.542331
H106	H	-0.203998	-0.562976	1.042331
C107	C	-0.000031	-1.028900	-0.029761
C108	C	0.499969	-0.528900	0.470239
H109	H	-0.000042	-0.967226	-0.076179
H110	H	0.499958	-0.467226	0.423821
H111	H	0.069027	-1.043238	-0.000234
H112	H	0.569027	-0.543238	0.499766
H113	H	-0.069112	-1.016655	0.026310
H114	H	0.430888	-0.516655	0.526310
C115	C	-0.855318	-1.150322	0.365804
C116	C	-0.355318	-0.650322	0.865804
H117	H	-0.883506	-1.192302	0.323865
H118	H	-0.383506	-0.692302	0.823865
H119	H	-0.883536	-1.076572	0.350258
H120	H	-0.383536	-0.576572	0.850258
H121	H	-0.883512	-1.165839	0.439562
H122	H	-0.383512	-0.665839	0.939562
H123	H	-0.000014	-0.927998	0.410221
H124	H	0.499986	-0.427998	0.910221
H125	H	0.000004	-1.105970	-0.411845
H126	H	0.500004	-0.605970	0.088155
C127	C	-0.000018	-0.545934	0.487265
C128	C	0.499982	-0.045934	0.987265
H129	H	-0.000026	-0.473393	0.465299
H130	H	0.499974	0.026607	0.965299
H131	H	0.069045	-0.575904	0.514751
H132	H	0.569045	-0.075904	1.014751
H133	H	-0.069095	-0.549305	0.541306
H134	H	0.430905	-0.049305	1.041306
H135	H	-0.000013	-1.030914	-0.244714
H136	H	0.499987	-0.530914	0.255286
H137	H	-0.480417	-1.467182	0.049179
H138	H	0.019583	-0.967182	0.549179
H139	H	-0.000006	-0.939091	0.068647
H140	H	0.499994	-0.439091	0.568647
C141	C	-0.724395	-1.438559	0.077787
C142	C	-0.224395	-0.938559	0.577787
H143	H	-0.807568	-1.413361	0.102965
H144	H	-0.307568	-0.913361	0.602965
H145	H	-0.703951	-1.513480	0.092166
H146	H	-0.203951	-1.013480	0.592166
H147	H	-0.703978	-1.424217	0.002857
H148	H	-0.203978	-0.924217	0.502857
C149	C	-0.000012	-0.775635	0.513981
C150	C	0.499988	-0.275635	1.013981
H151	H	-0.000015	-0.725579	0.564435
H152	H	0.499985	-0.225579	1.064435
H153	H	0.069053	-0.831477	0.509571
H154	H	0.569053	-0.331477	1.009571
H155	H	-0.069086	-0.804877	0.536142
H156	H	0.430914	-0.304877	1.036142
H157	H	-0.519641	-1.034341	0.481656
H158	H	-0.019641	-0.534341	0.981656
C159	C	0.000001	-1.472611	-0.439404
C160	C	0.500001	-0.972611	0.060596
H161	H	-0.000007	-1.534281	-0.392982
H162	H	0.499993	-1.034281	0.107018
H163	H	0.069066	-1.484860	-0.495482
H164	H	0.569066	-0.984860	0.004518
H165	H	-0.069074	-1.458263	-0.468917
H166	H	0.430926	-0.958263	0.031083
H167	H	-0.000114	-0.573481	0.120645
H168	H	0.499886	-0.073481	0.620645
C169	C	-0.000011	-1.499320	-0.209702
C170	C	0.499989	-0.999320	0.290298
H171	H	-0.000022	-1.494323	-0.136286
H172	H	0.499978	-0.994323	0.363714
H173	H	0.069051	-1.549218	-0.242159
H174	H	0.569051	-1.049218	0.257841
H175	H	-0.069089	-1.522607	-0.215601
H176	H	0.430911	-1.022607	0.284399
H177	H	-0.293458	-1.077864	0.438167
H178	H	0.206542	-0.577864	0.938167
H179	H	-0.000028	-0.740624	0.045576
H180	H	0.499972	-0.240624	0.545576
H181	H	-0.000023	-1.395560	-0.057341
H182	H	0.499977	-0.895560	0.442659
H183	H	-0.293440	-1.310676	0.205542
H184	H	0.206560	-0.810676	0.705542
