data_functionalizedCrystal
_audit_creation_method	'MofGen! by Chris Wilmer'
_symmetry_space_group_name_H-M	'P1'
_symmetry_Int_Tables_number	1
_symmetry_cell_setting	triclinic
loop_
_symmetry_equiv_pos_as_xyz
  x,y,z
_cell_length_a	15.995350
_cell_length_b	12.837942
_cell_length_c	11.295483
_cell_angle_alpha	85.469583
_cell_angle_beta	85.900966
_cell_angle_gamma	90.839342
loop_
_atom_site_label
_atom_site_type_symbol
_atom_site_fract_x
_atom_site_fract_y
_atom_site_fract_z
O1	O	1.126720	-0.126650	-0.098846
O2	O	0.884263	-0.143147	-0.098887
O3	O	1.000115	0.016004	-0.098860
O4	O	1.010868	-0.285801	-0.098873
O5	O	0.989938	0.002047	0.099189
O6	O	0.874086	-0.157104	0.099162
O7	O	1.116543	-0.140607	0.099203
Cu8	Cu	0.994385	-0.150130	0.117266
Cu9	Cu	1.006421	-0.133624	-0.116950
O10	O	1.000691	-0.299758	0.099176
C11	C	0.847926	-0.149443	0.000132
C12	C	0.754813	-0.147397	0.000117
C13	C	0.991394	0.047646	0.000163
C14	C	0.980561	0.162723	0.000159
C15	C	1.152881	-0.134311	0.000181
C16	C	1.245994	-0.136356	0.000189
C17	C	1.584330	-0.143697	0.000140
C18	C	1.545916	-0.257074	0.000583
C19	C	1.449085	-0.254998	0.000149
C20	C	1.416477	-0.140056	0.000165
C21	C	1.458889	-0.076179	-0.112930
C22	C	1.555757	-0.079019	-0.113037
C23	C	1.544389	-0.092550	0.112181
C24	C	1.447369	-0.092683	0.113688
C25	C	1.321615	-0.137992	0.000175
C26	C	1.679193	-0.145758	0.000123
C27	C	1.009412	-0.331400	0.000150
C28	C	1.020246	-0.446477	0.000146
N29	N	0.985926	-0.161739	0.282000
C30	C	1.110799	0.403682	0.000156
C31	C	1.100624	0.511808	0.000153
C32	C	0.950038	0.487104	0.000140
C33	C	0.960213	0.378978	0.000143
C34	C	1.040596	0.337271	0.000154
C35	C	1.050769	0.229142	0.000166
C36	C	0.900184	0.204441	0.000144
C37	C	0.890009	0.312567	0.000141
N38	N	1.014886	-0.122007	-0.281684
C39	C	1.075776	-0.038384	0.531310
C40	C	1.069390	-0.047164	0.655972
C41	C	0.966764	-0.188073	0.655989
C42	C	0.973150	-0.179293	0.531327
C43	C	1.027659	-0.104447	0.468992
C44	C	1.034049	-0.095673	0.344327
C45	C	0.931419	-0.236576	0.344346
C46	C	0.925032	-0.245357	0.469008
H47	H	1.420016	-0.304662	0.081216
C48	C	1.139192	0.183267	0.000173
N49	N	1.205794	0.148717	0.000173
C50	C	0.865069	-0.327676	0.537591
N51	N	0.819903	-0.389680	0.589246
H52	H	0.843019	0.150357	0.000151
C53	C	1.590731	-0.126039	-0.227260
N54	N	1.617069	-0.161453	-0.313296
C55	C	1.578235	0.020275	0.113215
N56	N	1.603731	0.105253	0.113983
C57	C	1.177853	0.584856	0.000164
N58	N	1.236026	0.639877	0.000175
H59	H	1.437893	-0.109052	-0.197092
H60	H	1.120165	0.022552	0.480556
C61	C	1.430991	0.038302	-0.118605
N62	N	1.409975	0.124529	-0.122878
C63	C	1.582826	-0.310326	-0.108382
N64	N	1.610626	-0.350432	-0.190458
H65	H	1.563495	-0.135648	0.197894
H66	H	0.884594	0.521083	0.000119
H67	H	0.824564	0.346541	0.000128
C68	C	1.094007	-0.013338	0.275761
N69	N	1.139166	0.048682	0.224120
C70	C	1.122320	0.025515	0.724518
N71	N	1.162188	0.080261	0.776147
H72	H	0.922378	-0.249005	0.706758
C73	C	0.878486	-0.309251	0.275785
N74	N	0.838620	-0.363989	0.224144
C75	C	1.199219	0.357801	0.000174
N76	N	1.265820	0.323246	0.000186
H77	H	1.581630	0.004559	-0.118182
C78	C	1.570219	-0.326002	0.110142
N79	N	1.588529	-0.377918	0.192667
H80	H	1.428911	-0.293513	-0.081060
C81	C	1.409090	-0.155790	0.226721
N82	N	1.380252	-0.203321	0.311855
H83	H	1.424970	-0.009343	0.120526
