data_functionalizedCrystal
_audit_creation_method	'MofGen! by Chris Wilmer'
_symmetry_space_group_name_H-M	'P1'
_symmetry_Int_Tables_number	1
_symmetry_cell_setting	triclinic
loop_
_symmetry_equiv_pos_as_xyz
  x,y,z
_cell_length_a	10.489746
_cell_length_b	8.559649
_cell_length_c	7.088929
_cell_angle_alpha	95.344185
_cell_angle_beta	96.270458
_cell_angle_gamma	102.840017
loop_
_atom_site_label
_atom_site_type_symbol
_atom_site_fract_x
_atom_site_fract_y
_atom_site_fract_z
O1	O	1.655662	-0.241460	-0.158852
O2	O	1.282239	-0.262591	-0.158883
O3	O	1.501850	-0.019803	-0.158863
O4	O	1.436052	-0.484249	-0.158872
O5	O	1.531206	0.012717	0.159115
O6	O	1.311595	-0.230071	0.159095
O7	O	1.685018	-0.208940	0.159126
Cu8	Cu	1.500987	-0.216536	0.188144
Cu9	Cu	1.466270	-0.254995	-0.187902
O10	O	1.465408	-0.451729	0.159106
C11	C	1.249554	-0.244734	0.000102
C12	C	1.108427	-0.239956	0.000090
C13	C	0.972136	-0.082646	0.000120
C14	C	1.055721	-0.145260	0.156892
C15	C	1.026730	-0.177359	-0.156609
C16	C	0.940568	-0.294116	0.157039
C17	C	0.911561	-0.326208	-0.156604
C18	C	0.995090	-0.388927	0.000207
C19	C	1.521514	0.055929	0.000123
C20	C	1.536355	0.233137	0.000114
C21	C	1.717703	-0.226798	0.000137
C22	C	1.858829	-0.231577	0.000136
C23	C	1.445743	-0.527461	0.000116
C24	C	1.430901	-0.704671	0.000112
N25	N	1.525414	-0.189485	0.452634
N26	N	1.441854	-0.282034	-0.452392
H27	H	1.118055	-0.068832	0.289439
O28	O	0.957446	0.088904	0.000320
H29	H	1.015997	0.163703	0.130665
O30	O	1.296257	0.186296	0.000092
H31	H	1.305332	0.059548	0.000068
H32	H	1.638003	0.315474	0.000137
H33	H	0.849209	-0.402580	-0.289155
H34	H	1.355255	-0.377940	0.465954
O35	O	1.640141	-0.062437	0.560783
H36	H	1.638122	-0.064676	0.716740
H37	H	1.005927	-0.518518	0.000291
O38	O	0.890731	-0.359330	0.332837
H39	H	0.785627	-0.355206	0.331521
H40	H	1.064560	-0.128014	-0.289152
