data_functionalizedCrystal
_audit_creation_method	'MofGen! by Chris Wilmer'
_symmetry_space_group_name_H-M	'P1'
_symmetry_Int_Tables_number	1
_symmetry_cell_setting	triclinic
loop_
_symmetry_equiv_pos_as_xyz
  x,y,z
_cell_length_a	10.686220
_cell_length_b	16.120531
_cell_length_c	10.686551
_cell_angle_alpha	91.295135
_cell_angle_beta	90.307919
_cell_angle_gamma	82.921837
loop_
_atom_site_label
_atom_site_type_symbol
_atom_site_fract_x
_atom_site_fract_y
_atom_site_fract_z
Zn1	Zn	1.957884	0.203135	-0.579036
Zn2	Zn	1.930960	0.353949	-0.381633
Zn3	Zn	1.730491	0.224451	-0.387099
Zn4	Zn	1.737510	0.352261	-0.607272
O5	O	1.839211	0.283449	-0.488760
O6	O	2.130437	0.214927	-0.538745
O7	O	1.890162	0.346398	-0.207602
O8	O	1.768985	0.105019	-0.403030
O9	O	2.110656	0.325729	-0.393715
O10	O	1.936049	0.089358	-0.544045
O11	O	1.742878	0.251256	-0.211617
O12	O	1.555298	0.249619	-0.430410
O13	O	1.780948	0.322852	-0.778283
O14	O	1.560455	0.343520	-0.592170
O15	O	1.942856	0.213290	-0.757538
O16	O	1.896969	0.470329	-0.421095
O17	O	1.754842	0.469089	-0.586871
C18	C	1.512209	0.298700	-0.514948
C19	C	1.372317	0.305243	-0.526182
C20	C	1.823782	0.499941	-0.506478
C21	C	1.817300	0.592549	-0.514091
C22	C	1.805474	0.762104	-0.528014
C23	C	1.872990	0.803955	-0.449432
C24	C	1.866410	0.898301	-0.457179
C25	C	1.812052	0.667749	-0.520269
C26	C	2.167490	0.268139	-0.462471
C27	C	2.307383	0.261614	-0.451268
C28	C	1.865688	0.265505	-0.814490
C29	C	1.876971	0.257858	-0.953297
C30	C	1.854691	1.066112	-0.470978
C31	C	1.861168	0.973505	-0.463351
C32	C	1.812914	0.301260	-0.164286
C33	C	1.801891	0.308660	-0.025442
H34	H	1.935732	0.768929	-0.376336
O35	O	1.304209	0.361350	-0.622538
H36	H	1.201337	0.357851	-0.616548
O37	O	1.375498	0.205499	-0.354914
H38	H	1.478372	0.208987	-0.360915
O39	O	1.722340	0.808492	-0.624814
H40	H	1.730140	0.876390	-0.615763
O41	O	1.705299	0.374022	-0.966611
H42	H	1.711287	0.369968	-0.863163
H43	H	1.949892	0.208515	-0.997728
