data_functionalizedCrystal
_audit_creation_method	'MofGen! by Chris Wilmer'
_symmetry_space_group_name_H-M	'P1'
_symmetry_Int_Tables_number	1
_symmetry_cell_setting	triclinic
loop_
_symmetry_equiv_pos_as_xyz
  x,y,z
_cell_length_a	25.639239
_cell_length_b	14.908780
_cell_length_c	14.908308
_cell_angle_alpha	90.212689
_cell_angle_beta	93.262277
_cell_angle_gamma	86.672354
loop_
_atom_site_label
_atom_site_type_symbol
_atom_site_fract_x
_atom_site_fract_y
_atom_site_fract_z
Zn1	Zn	-0.182898	-1.345213	-0.587843
Zn2	Zn	-0.265024	-1.353749	-0.437473
Zn3	Zn	-0.182329	-1.203527	-0.428810
Zn4	Zn	-0.275033	-1.194770	-0.579089
O5	O	-0.226321	-1.274315	-0.508304
O6	O	-0.189841	-1.472175	-0.575184
O7	O	-0.249628	-1.341059	-0.310501
O8	O	-0.109238	-1.222415	-0.449944
O9	O	-0.250179	-1.478447	-0.464708
O10	O	-0.109655	-1.326511	-0.566785
O11	O	-0.188872	-1.230692	-0.304137
O12	O	-0.198577	-1.076536	-0.441456
O13	O	-0.267238	-1.207489	-0.706072
O14	O	-0.266687	-1.070102	-0.551865
O15	O	-0.199546	-1.318019	-0.712504
O16	O	-0.339519	-1.332568	-0.456220
O17	O	-0.346872	-1.215766	-0.560265
C18	C	-0.233657	-1.040692	-0.494771
C19	C	-0.236808	-0.940746	-0.489004
C20	C	-0.179999	-0.746395	-0.593380
C21	C	-0.182958	-0.652487	-0.587964
C22	C	-0.245684	-0.659020	-0.472751
C23	C	-0.242724	-0.752928	-0.478167
C24	C	-0.209881	-0.796612	-0.538485
C25	C	-0.206925	-0.890522	-0.543905
C26	C	-0.269647	-0.897054	-0.428688
C27	C	-0.272607	-0.803146	-0.423272
C28	C	-0.362167	-1.274166	-0.508254
C29	C	-0.420281	-1.274183	-0.508267
C30	C	-0.776798	-1.335278	-0.454234
C31	C	-0.831401	-1.335312	-0.454248
O32	O	-0.856371	-1.387103	-0.408253
N33	N	-0.862557	-1.274469	-0.508372
C34	C	-0.839107	-1.213595	-0.562493
O35	O	-0.870621	-1.161847	-0.608531
C36	C	-0.784504	-1.213566	-0.562483
C37	C	-0.753351	-1.274406	-0.508348
C38	C	-0.745645	-1.396114	-0.400105
C39	C	-0.691045	-1.396078	-0.400090
C40	C	-0.667598	-1.335207	-0.454204
C41	C	-0.698751	-1.274371	-0.508333
C42	C	-0.761054	-1.152696	-0.616607
C43	C	-0.706448	-1.152672	-0.616593
C44	C	-0.675295	-1.213513	-0.562459
C45	C	-0.620704	-1.213463	-0.562432
N46	N	-0.589548	-1.274306	-0.508308
C47	C	-0.612995	-1.335178	-0.454194
C48	C	-0.953776	-1.213662	-0.562510
C49	C	-1.008377	-1.213686	-0.562516
C50	C	-1.000668	-1.335404	-0.454273
C51	C	-0.946066	-1.335375	-0.454263
C52	C	-0.922620	-1.274504	-0.508386
C53	C	-0.498332	-1.335098	-0.454166
C54	C	-0.443728	-1.335054	-0.454153
C55	C	-0.451441	-1.213340	-0.562400
C56	C	-0.506041	-1.213379	-0.562409
C57	C	-0.529485	-1.274266	-0.508290
O58	O	-0.595698	-1.161701	-0.608407
O59	O	-0.581475	-1.386924	-0.408172
C60	C	-0.089944	-1.274488	-0.508375
C61	C	-0.031829	-1.274561	-0.508405
C62	C	-0.234572	-1.260825	-0.742825
C63	C	-0.238088	-1.255076	-0.842764
C64	C	-0.218952	-0.508850	-0.521882
C65	C	-0.215800	-0.608796	-0.527652
C66	C	-0.174196	-1.359367	-1.037258
C67	C	-0.177497	-1.353969	-1.131160
C68	C	-0.247990	-1.238877	-1.124470
C69	C	-0.244688	-1.244276	-1.030569
C70	C	-0.207791	-1.304524	-0.986966
C71	C	-0.204492	-1.309926	-0.893063
C72	C	-0.274982	-1.194831	-0.886375
C73	C	-0.278283	-1.189432	-0.980276
C74	C	-0.218063	-1.287804	-0.274698
C75	C	-0.214394	-1.293727	-0.174769
H76	H	-0.180183	-0.926088	-0.593020
Cl77	Cl	-0.800205	-1.076215	-0.684678
H78	H	-1.033738	-1.164135	-0.606589
Cl79	Cl	-0.135261	-1.422917	-1.194382
H80	H	-0.934689	-1.164086	-0.606581
Cl81	Cl	-0.324666	-1.113696	-1.035100
Cl82	Cl	-0.421955	-1.136824	-0.630430
H83	H	-0.272417	-0.623437	-0.423633
H84	H	-0.278031	-1.189826	-1.159988
Cl85	Cl	-0.317223	-1.125890	-0.823145
Cl86	Cl	-0.651889	-1.472581	-0.332046
H87	H	-0.764729	-1.445688	-0.356038
H88	H	-0.293984	-0.937951	-0.383995
Cl89	Cl	-0.138717	-0.801315	-0.669214
H90	H	-0.299345	-0.767565	-0.374160
H91	H	-0.920704	-1.384917	-0.410182
H92	H	-0.144154	-1.408428	-1.001756
H93	H	-0.158623	-0.611603	-0.632663
Cl94	Cl	-1.030155	-1.411928	-0.386241
H95	H	-0.418364	-1.384598	-0.410067
Cl96	Cl	-0.527795	-1.411641	-0.386127
Cl97	Cl	-0.676977	-1.076145	-0.684640
Cl98	Cl	-0.545206	-1.136876	-0.630445
H99	H	-0.174448	-1.358984	-0.857563
