data_functionalizedCrystal
_audit_creation_method	'MofGen! by Chris Wilmer'
_symmetry_space_group_name_H-M	'P1'
_symmetry_Int_Tables_number	1
_symmetry_cell_setting	triclinic
loop_
_symmetry_equiv_pos_as_xyz
  x,y,z
_cell_length_a	25.639242
_cell_length_b	18.050589
_cell_length_c	18.050582
_cell_angle_alpha	90.018205
_cell_angle_beta	89.976321
_cell_angle_gamma	89.976251
loop_
_atom_site_label
_atom_site_type_symbol
_atom_site_fract_x
_atom_site_fract_y
_atom_site_fract_z
Zn1	Zn	0.799271	0.295795	-0.420109
Zn2	Zn	1.299271	0.795795	0.079891
Zn3	Zn	0.799208	0.419978	-0.295928
Zn4	Zn	1.299208	0.919978	0.204072
Zn5	Zn	0.711845	0.295797	-0.295914
Zn6	Zn	1.211845	0.795797	0.204086
Zn7	Zn	0.711808	0.419938	-0.420058
Zn8	Zn	1.211808	0.919938	0.079942
O9	O	0.755533	0.357877	-0.358002
O10	O	1.255533	0.857877	0.141998
O11	O	0.872428	0.312284	-0.403663
O12	O	1.372428	0.812284	0.096337
O13	O	0.787608	0.403523	-0.192001
O14	O	1.287608	0.903523	0.307999
O15	O	0.723484	0.191872	-0.312404
O16	O	1.223484	0.691872	0.187596
O17	O	0.872382	0.403521	-0.312428
O18	O	1.372382	0.903521	0.187572
O19	O	0.787715	0.191871	-0.403649
O20	O	1.287715	0.691871	0.096351
O21	O	0.723423	0.312288	-0.191991
O22	O	1.223423	0.812288	0.308009
O23	O	0.638675	0.312249	-0.312354
O24	O	1.138675	0.812249	0.187646
O25	O	0.723421	0.403453	-0.523989
O26	O	1.223421	0.903453	-0.023989
O27	O	0.638648	0.403455	-0.403562
O28	O	1.138648	0.903455	0.096438
O29	O	0.787680	0.312245	-0.524026
O30	O	1.287680	0.812245	-0.024026
O31	O	0.787573	0.523898	-0.312379
O32	O	1.287573	1.023898	0.187621
O33	O	0.723360	0.523868	-0.403576
O34	O	1.223360	1.023868	0.096424
C35	C	0.619690	0.357848	-0.357952
C36	C	1.119690	0.857848	0.142048
C37	C	0.561576	0.357853	-0.357948
C38	C	1.061576	0.857853	0.142052
C39	C	0.755470	0.550829	-0.357990
C40	C	1.255470	1.050829	0.142010
C41	C	0.755491	0.633375	-0.358009
C42	C	1.255491	1.133375	0.141991
C43	C	0.755554	0.357844	-0.551708
C44	C	1.255554	0.857844	-0.051708
C45	C	0.755562	0.357830	-0.634253
C46	C	1.255562	0.857830	-0.134253
C47	C	0.201208	0.405448	-0.405449
C48	C	0.701208	0.905448	0.094551
C49	C	0.146604	0.405452	-0.405461
C50	C	0.646604	0.905452	0.094539
O51	O	0.118363	0.445882	-0.445805
O52	O	0.618363	0.945882	0.054195
N53	N	0.119294	0.357898	-0.358050
N54	N	0.619294	0.857898	0.141950
C55	C	0.146591	0.310330	-0.310631
C56	C	0.646591	0.810330	0.189369
O57	O	0.118348	0.269882	-0.270306
O58	O	0.618348	0.769882	0.229694
C59	C	0.201194	0.310323	-0.310623
C60	C	0.701194	0.810323	0.189377
C61	C	0.228502	0.357885	-0.358031
C62	C	0.728502	0.857885	0.141969
C63	C	0.228515	0.453006	-0.452854
C64	C	0.728515	0.953006	0.047146
C65	C	0.283116	0.453002	-0.452841
C66	C	0.783116	0.953002	0.047159
C67	C	0.310409	0.405440	-0.405423
C68	C	0.810409	0.905440	0.094577
C69	C	0.283102	0.357882	-0.358018
C70	C	0.783102	0.857882	0.141982
C71	C	0.228491	0.262752	-0.263208
C72	C	0.728491	0.762752	0.236792
C73	C	0.283098	0.262748	-0.263205
C74	C	0.783098	0.762748	0.236795
C75	C	0.310405	0.310311	-0.310613
C76	C	0.810405	0.810311	0.189387
C77	C	0.364996	0.310316	-0.310588
C78	C	0.864996	0.810316	0.189412
N79	N	0.392306	0.357870	-0.357998
N80	N	0.892306	0.857870	0.142002
C81	C	0.365013	0.405432	-0.405416
C82	C	0.865013	0.905432	0.094584
C83	C	0.031920	0.310349	-0.310651
C84	C	0.531920	0.810349	0.189349
C85	C	-0.022682	0.310360	-0.310654
C86	C	0.477318	0.810360	0.189346
C87	C	-0.022665	0.405481	-0.405485
C88	C	0.477335	0.905481	0.094515
C89	C	0.031938	0.405473	-0.405478
C90	C	0.531938	0.905473	0.094522
C91	C	0.059230	0.357904	-0.358061
C92	C	0.559230	0.857904	0.141939
C93	C	0.479678	0.405421	-0.405385
C94	C	0.979678	0.905421	0.094615
C95	C	0.534283	0.405415	-0.405365
C96	C	1.034283	0.905415	0.094635
C97	C	0.534262	0.310292	-0.310537
C98	C	1.034262	0.810292	0.189463
C99	C	0.479661	0.310300	-0.310553
C100	C	0.979661	0.810300	0.189447
C101	C	0.452370	0.357867	-0.357983
C102	C	0.952370	0.857867	0.142017
O103	O	0.393272	0.269904	-0.270266
O104	O	0.893272	0.769904	0.229734
O105	O	0.393263	0.445867	-0.445740
O106	O	0.893263	0.945867	0.054260
C107	C	0.891906	0.357907	-0.358053
C108	C	1.391906	0.857907	0.141947
C109	C	0.950020	0.357920	-0.358075
C110	C	1.450020	0.857920	0.141925
C111	C	0.755611	0.164172	-0.358031
C112	C	1.255611	0.664172	0.141969
C113	C	0.755644	0.081626	-0.358043
C114	C	1.255644	0.581626	0.141957
C115	C	0.720606	0.832837	-0.407585
C116	C	1.220606	1.332837	0.092415
C117	C	0.707865	0.882269	-0.339815
C118	C	1.207865	1.382269	0.160185
C119	C	0.755542	0.784506	-0.358019
C120	C	1.255542	1.284506	0.141981
C121	C	0.768309	0.882155	-0.425797
C122	C	1.268309	1.382155	0.074203
C123	C	0.755591	0.930491	-0.358034
C124	C	1.255591	1.430491	0.141966
C125	C	0.742776	0.832851	-0.290213
C126	C	1.242776	1.332851	0.209787
C127	C	0.803242	0.832732	-0.376240
C128	C	1.303242	1.332732	0.123760
C129	C	0.790519	0.882142	-0.308424
C130	C	1.290519	1.382142	0.191576
C131	C	0.755513	0.700407	-0.358011
C132	C	1.255513	1.200407	0.141989
C133	C	0.755620	1.014587	-0.358034
C134	C	1.255620	1.514587	0.141966
C135	C	0.720645	0.407361	-0.833684
C136	C	1.220645	0.907361	-0.333684
C137	C	0.768346	0.425520	-0.883087
C138	C	1.268346	0.925520	-0.383087
C139	C	0.755588	0.357774	-0.785384
C140	C	1.255588	0.857774	-0.285384
C141	C	0.707913	0.339594	-0.883063
C142	C	1.207913	0.839594	-0.383063
C143	C	0.755609	0.357720	-0.931369
C144	C	1.255609	0.857720	-0.431369
C145	C	0.803314	0.375968	-0.833700
C146	C	1.303314	0.875968	-0.333700
C147	C	0.742849	0.290011	-0.833671
C148	C	1.242849	0.790011	-0.333671
C149	C	0.790583	0.308144	-0.883052
C150	C	1.290583	0.808144	-0.383052
C151	C	0.755575	0.357806	-0.701286
C152	C	1.255575	0.857806	-0.201286
C153	C	0.755627	0.357688	-1.015466
C154	C	1.255627	0.857688	-0.515466
C155	C	0.755543	0.357856	-0.165050
C156	C	1.255543	0.857856	0.334950
C157	C	0.755635	0.357661	-0.082504
C158	C	1.255635	0.857661	0.417496
H159	H	0.556514	0.444150	-0.443971
H160	H	1.056514	0.944150	0.056029
H161	H	0.732047	0.232744	-0.811949
H162	H	1.232047	0.732744	-0.311949
H163	H	0.779134	0.482803	-0.904793
H164	H	1.279134	0.982803	-0.404793
O165	O	-0.049223	0.264276	-0.264504
O166	O	0.450777	0.764276	0.235496
C167	C	-0.080841	0.306500	-0.216482
C168	C	0.419159	0.806500	0.283518
H169	H	-0.064406	0.364987	-0.211813
H170	H	0.435594	0.864987	0.288187
H171	H	-0.122220	0.309081	-0.239432
H172	H	0.377780	0.809081	0.260568
C173	C	-0.101868	0.198295	-0.145066
C174	C	0.398132	0.698295	0.354934
C175	C	-0.081680	0.270129	-0.139326
C176	C	0.418320	0.770129	0.360674
H177	H	-0.102387	0.175859	-0.097473
H178	H	0.397613	0.675859	0.402527
H179	H	-0.080568	0.169847	-0.177420
H180	H	0.419432	0.669847	0.322580
H181	H	-0.136349	0.200456	-0.164193
H182	H	0.363651	0.700456	0.335807
H183	H	-0.047197	0.267967	-0.120208
H184	H	0.452803	0.767967	0.379792
H185	H	-0.102974	0.298576	-0.106967
H186	H	0.397026	0.798576	0.393033
H187	H	0.691123	0.449350	-0.812008
H188	H	1.191123	0.949350	-0.312008
H189	H	0.731950	0.811283	-0.232884
H190	H	1.231950	1.311283	0.267116
H191	H	0.667586	0.324240	-0.904747
H192	H	1.167586	0.824240	-0.404747
O193	O	0.851401	0.394390	-0.807822
O194	O	1.351401	0.894390	-0.307822
C195	C	0.850807	0.394209	-0.729717
C196	C	1.350807	0.894209	-0.229717
H197	H	0.809136	0.402465	-0.709260
H198	H	1.309136	0.902465	-0.209260
H199	H	0.866356	0.338946	-0.708572
H200	H	1.366356	0.838946	-0.208572
C201	C	0.936625	0.447368	-0.725719
C202	C	1.436625	0.947368	-0.225719
C203	C	0.885444	0.457515	-0.700594
C204	C	1.385444	0.957515	-0.200594
H205	H	0.957993	0.486416	-0.707753
H206	H	1.457993	0.986416	-0.207753
H207	H	0.937026	0.447488	-0.778340
H208	H	1.437026	0.947488	-0.278340
H209	H	0.949575	0.401314	-0.708097
H210	H	1.449575	0.901314	-0.208097
H211	H	0.872493	0.503564	-0.718224
H212	H	1.372493	1.003564	-0.218224
H213	H	0.885041	0.457405	-0.647974
H214	H	1.385041	0.957405	-0.147974
H215	H	0.820176	0.266186	-0.904591
H216	H	1.320176	0.766186	-0.404591
H217	H	0.054168	0.444202	-0.444083
H218	H	0.554168	0.944202	0.055917
H219	H	0.779088	0.903812	-0.483110
H220	H	1.279088	1.403812	0.016890
O221	O	0.202054	0.216475	-0.217135
O222	O	0.702054	0.716475	0.282865
C223	C	0.237863	0.174510	-0.175280
C224	C	0.737863	0.674510	0.324720
H225	H	0.276797	0.171991	-0.205702
H226	H	0.776797	0.671991	0.294298
H227	H	0.243643	0.201619	-0.118826
H228	H	0.743643	0.701619	0.381174
C229	C	0.168761	0.098542	-0.127358
C230	C	0.668761	0.598542	0.372642
C231	C	0.216578	0.095444	-0.164727
C232	C	0.716578	0.595444	0.335273
H233	H	0.155631	0.049772	-0.120845
H234	H	0.655631	0.549772	0.379155
H235	H	0.144635	0.126816	-0.155554
H236	H	0.644635	0.626816	0.344446
H237	H	0.173584	0.121137	-0.080317
H238	H	0.673584	0.621137	0.419683
H239	H	0.211753	0.072858	-0.211770
H240	H	0.711753	0.572858	0.288230
H241	H	0.240703	0.067164	-0.136538
H242	H	0.740703	0.567164	0.363462
H243	H	0.457427	0.271572	-0.271949
H244	H	0.957427	0.771572	0.228051
H245	H	0.457464	0.444153	-0.444008
H246	H	0.957464	0.944153	0.055992
H247	H	0.820083	0.903655	-0.266465
H248	H	1.320083	1.403655	0.233535
H249	H	0.054139	0.271613	-0.272033
H250	H	0.554139	0.771613	0.227967
H251	H	0.305345	0.491731	-0.491447
H252	H	0.805345	0.991731	0.008553
H253	H	-0.044897	0.444207	-0.444098
H254	H	0.455103	0.944207	0.055902
O255	O	0.202089	0.499284	-0.498941
O256	O	0.702089	0.999284	0.001059
C257	C	0.237910	0.541237	-0.540787
C258	C	0.737910	1.041237	-0.040787
H259	H	0.276820	0.543747	-0.510351
H260	H	0.776820	1.043747	-0.010351
H261	H	0.243745	0.514122	-0.597237
H262	H	0.743745	1.014122	-0.097237
C263	C	0.168809	0.617219	-0.588737
C264	C	0.668809	1.117219	-0.088737
C265	C	0.216597	0.620307	-0.551352
C266	C	0.716597	1.120307	-0.051352
H267	H	0.155661	0.665993	-0.595258
H268	H	0.655661	1.165993	-0.095258
H269	H	0.144675	0.588953	-0.560547
H270	H	0.644675	1.088953	-0.060547
H271	H	0.173677	0.594620	-0.635774
H272	H	0.673677	1.094620	-0.135774
H273	H	0.211727	0.642897	-0.504313
H274	H	0.711727	1.142897	-0.004313
H275	H	0.240730	0.648579	-0.579535
H276	H	0.740730	1.148579	-0.079535
H277	H	0.305316	0.224006	-0.224596
H278	H	0.805316	0.724006	0.275404
H279	H	0.556494	0.271571	-0.271929
H280	H	1.056494	0.771571	0.228071
O281	O	0.685241	0.807036	-0.457437
O282	O	1.185241	1.307036	0.042563
C283	C	0.635029	0.832297	-0.437960
C284	C	1.135029	1.332297	0.062040
H285	H	0.634076	0.846178	-0.376359
H286	H	1.134076	1.346178	0.123641
H287	H	0.625227	0.883979	-0.471475
H288	H	1.125227	1.383979	0.028525
C289	C	0.595879	0.754277	-0.530284
C290	C	1.095879	1.254277	-0.030284
C291	C	0.594708	0.771320	-0.454623
C292	C	1.094708	1.271320	0.045377
H293	H	0.571007	0.716666	-0.540565
H294	H	1.071007	1.216666	-0.040565
H295	H	0.629708	0.737260	-0.543408
H296	H	1.129708	1.237260	-0.043408
H297	H	0.587712	0.797350	-0.558204
H298	H	1.087712	1.297350	-0.058204
H299	H	0.602882	0.728250	-0.426705
H300	H	1.102882	1.228250	0.073295
H301	H	0.560880	0.788329	-0.441495
H302	H	1.060880	1.288329	0.058505
O303	O	0.659765	0.908144	-0.321325
O304	O	1.159765	1.408144	0.178675
C305	C	0.646063	0.881961	-0.250357
C306	C	1.146063	1.381961	0.249643
H307	H	0.669193	0.829562	-0.237544
H308	H	1.169193	1.329562	0.262456
H309	H	0.655350	0.926180	-0.207231
H310	H	1.155350	1.426180	0.292769
C311	C	0.558899	0.928766	-0.264138
C312	C	1.058899	1.428766	0.235862
C313	C	0.587304	0.864405	-0.248404
C314	C	1.087304	1.364405	0.251596
H315	H	0.522653	0.917940	-0.262931
H316	H	1.022653	1.417940	0.237069
H317	H	0.568130	0.946409	-0.311949
H318	H	1.068130	1.446409	0.188051
H319	H	0.566643	0.965610	-0.228197
H320	H	1.066643	1.465610	0.271803
H321	H	0.579564	0.827567	-0.284349
H322	H	1.079564	1.327567	0.215651
H323	H	0.578070	0.846755	-0.200598
H324	H	1.078070	1.346755	0.299402
O325	O	0.851310	0.806784	-0.394776
O326	O	1.351310	1.306784	0.105224
C327	C	0.864601	0.831874	-0.466294
C328	C	1.364601	1.331874	0.033706
H329	H	0.827540	0.845780	-0.498279
H330	H	1.327540	1.345780	0.001721
H331	H	0.889985	0.883505	-0.461651
H332	H	1.389985	1.383505	0.038349
C333	C	0.940408	0.753673	-0.468198
C334	C	1.440408	1.253673	0.031802
C335	C	0.894890	0.770746	-0.507485
C336	C	1.394890	1.270746	-0.007485
H337	H	0.959094	0.715968	-0.493606
H338	H	1.459094	1.215968	0.006394
H339	H	0.931456	0.736770	-0.420014
H340	H	1.431456	1.236770	0.079986
H341	H	0.961556	0.796704	-0.464332
H342	H	1.461556	1.296704	0.035668
H343	H	0.873740	0.727718	-0.511343
H344	H	1.373740	1.227718	-0.011343
H345	H	0.903839	0.787640	-0.555671
H346	H	1.403839	1.287640	-0.055671
