data_functionalizedCrystal
_audit_creation_method	'MofGen! by Chris Wilmer'
_symmetry_space_group_name_H-M	'P1'
_symmetry_Int_Tables_number	1
_symmetry_cell_setting	triclinic
loop_
_symmetry_equiv_pos_as_xyz
  x,y,z
_cell_length_a	19.121102
_cell_length_b	16.120507
_cell_length_c	16.120297
_cell_angle_alpha	84.388175
_cell_angle_beta	90.563713
_cell_angle_gamma	89.388254
loop_
_atom_site_label
_atom_site_type_symbol
_atom_site_fract_x
_atom_site_fract_y
_atom_site_fract_z
Zn1	Zn	1.032818	0.411926	-0.544470
Zn2	Zn	1.032714	0.544610	-0.411770
Zn3	Zn	0.922145	0.398949	-0.398820
Zn4	Zn	0.909609	0.545075	-0.544933
O5	O	0.974321	0.475140	-0.474998
O6	O	1.130641	0.434763	-0.532093
O7	O	1.023249	0.519663	-0.293368
O8	O	0.942116	0.283988	-0.412527
O9	O	1.130564	0.532246	-0.434599
O10	O	1.023427	0.293521	-0.519536
O11	O	0.942015	0.412646	-0.283853
O12	O	0.822645	0.413097	-0.412976
O13	O	0.920750	0.533037	-0.661556
O14	O	0.813435	0.520454	-0.520325
O15	O	1.011271	0.435213	-0.661216
O16	O	1.011094	0.661355	-0.435048
O17	O	0.920649	0.661696	-0.532882
C18	C	0.792672	0.465418	-0.465296
C19	C	0.714960	0.461280	-0.461166
C20	C	0.673674	0.515308	-0.515036
C21	C	0.600656	0.511410	-0.511159
C22	C	0.568924	0.453486	-0.453407
C23	C	0.610216	0.399453	-0.399534
C24	C	0.683233	0.403348	-0.403416
C25	C	0.348699	0.438921	-0.438898
C26	C	0.275676	0.435031	-0.435019
C27	C	0.266121	0.546988	-0.546646
C28	C	0.339140	0.550881	-0.550519
C29	C	0.380425	0.496845	-0.496649
C30	C	0.494288	0.449502	-0.449441
C31	C	0.455060	0.500826	-0.500620
C32	C	0.964518	0.691782	-0.485440
C33	C	0.960387	0.784467	-0.489938
C34	C	0.995810	0.995269	-0.451795
C35	C	0.952857	0.954159	-0.498160
C36	C	0.957048	0.859733	-0.493584
C37	C	0.991620	1.089703	-0.456370
C38	C	1.156680	0.484900	-0.484739
C39	C	1.234390	0.489059	-0.488890
C40	C	0.964624	0.485625	-0.692487
C41	C	0.960492	0.490093	-0.785168
C42	C	0.984155	1.257652	-0.464521
C43	C	0.988278	1.164966	-0.460020
C44	C	0.952922	0.498230	-0.954854
C45	C	0.995870	0.451807	-0.995989
C46	C	0.991658	0.456335	-1.090409
C47	C	0.957133	0.493703	-0.860426
C48	C	0.984024	0.464638	-0.258355
C49	C	0.988302	0.459942	-0.165670
H50	H	0.699504	0.562478	-0.562062
H51	H	0.716848	0.359349	-0.359553
N52	N	0.902824	0.552338	-0.999631
N53	N	0.857483	0.522892	-1.044447
H54	H	0.822102	0.561104	-1.076082
N55	N	0.558498	0.566616	-0.566187
N56	N	0.563431	0.643709	-0.564663
H57	H	0.533659	0.682703	-0.603530
N58	N	0.371539	0.610056	-0.609515
N59	N	0.334668	0.658292	-0.657611
H60	H	0.357549	0.700087	-0.699276
H61	H	0.232499	0.590980	-0.590505
N62	N	0.577816	0.340273	-0.340543
N63	N	0.589200	0.264049	-0.342928
H64	H	0.566320	0.222252	-0.301263
H65	H	0.480899	0.547983	-0.547645
H66	H	0.912936	0.989880	-0.541291
N67	N	1.045959	0.397683	-0.951205
N68	N	1.049352	0.394035	-0.873456
H69	H	1.084726	0.355812	-0.841822
N70	N	0.243274	0.375856	-0.376018
N71	N	0.280142	0.327613	-0.327926
H72	H	0.257258	0.285823	-0.286257
N73	N	0.390854	0.383725	-0.383863
N74	N	0.362511	0.332018	-0.332299
H75	H	0.392285	0.293034	-0.293424
H76	H	0.468444	0.402342	-0.402417
H77	H	1.035728	0.959551	-0.408666
