data_functionalizedCrystal
_audit_creation_method	'MofGen! by Chris Wilmer'
_symmetry_space_group_name_H-M	'P1'
_symmetry_Int_Tables_number	1
_symmetry_cell_setting	triclinic
loop_
_symmetry_equiv_pos_as_xyz
  x,y,z
_cell_length_a	19.077068
_cell_length_b	11.169417
_cell_length_c	11.169409
_cell_angle_alpha	90.021683
_cell_angle_beta	92.259065
_cell_angle_gamma	87.674073
loop_
_atom_site_label
_atom_site_type_symbol
_atom_site_fract_x
_atom_site_fract_y
_atom_site_fract_z
Zn1	Zn	-0.280162	-1.815627	-0.697726
Zn2	Zn	0.053171	-1.482294	-0.364393
Zn3	Zn	0.386504	-1.148960	-0.031060
Zn4	Zn	-0.397882	-1.807392	-0.505079
Zn5	Zn	-0.064549	-1.474059	-0.171746
Zn6	Zn	0.268784	-1.140725	0.161588
Zn7	Zn	-0.280201	-1.614910	-0.497057
Zn8	Zn	0.053132	-1.281577	-0.163724
Zn9	Zn	0.386465	-0.948244	0.169610
Zn10	Zn	-0.397821	-1.606800	-0.705713
Zn11	Zn	-0.064488	-1.273467	-0.372380
Zn12	Zn	0.268846	-0.940134	-0.039047
O13	O	-0.339017	-1.711182	-0.601394
O14	O	-0.005683	-1.377849	-0.268061
O15	O	0.327650	-1.044516	0.065273
O16	O	-0.295788	-1.982484	-0.672186
O17	O	0.037546	-1.649150	-0.338853
O18	O	0.370879	-1.315817	-0.005519
O19	O	-0.382314	-1.781807	-0.336068
O20	O	-0.048980	-1.448473	-0.002735
O21	O	0.284353	-1.115140	0.330599
O22	O	-0.181706	-1.648376	-0.516976
O23	O	0.151628	-1.315043	-0.183643
O24	O	0.484961	-0.981710	0.149690
O25	O	-0.382276	-1.976434	-0.530649
O26	O	-0.048942	-1.643100	-0.197316
O27	O	0.284391	-1.309767	0.136018
O28	O	-0.181677	-1.795842	-0.664407
O29	O	0.151656	-1.462509	-0.331074
O30	O	0.484990	-1.129175	0.002259
O31	O	-0.295854	-1.640391	-0.330174
O32	O	0.037479	-1.307058	0.003159
O33	O	0.370813	-0.973724	0.336493
O34	O	-0.295794	-1.445885	-0.524721
O35	O	0.037539	-1.112552	-0.191388
O36	O	0.370872	-0.779219	0.141946
O37	O	-0.382171	-1.634554	-0.872601
O38	O	-0.048838	-1.301221	-0.539267
O39	O	0.284495	-0.967887	-0.205934
O40	O	-0.382209	-1.439927	-0.678020
O41	O	-0.048876	-1.106594	-0.344686
O42	O	0.284458	-0.773260	-0.011353
O43	O	-0.295728	-1.787978	-0.866733
O44	O	0.037605	-1.454645	-0.533400
O45	O	0.370939	-1.121311	-0.200066
O46	O	-0.496365	-1.773943	-0.538393
O47	O	-0.163031	-1.440609	-0.205060
O48	O	0.170302	-1.107276	0.128273
O49	O	-0.496319	-1.626569	-0.685798
O50	O	-0.162986	-1.293236	-0.352465
O51	O	0.170347	-0.959902	-0.019132
C52	C	-0.339000	-1.399359	-0.601367
C53	C	-0.005667	-1.066026	-0.268034
C54	C	0.327667	-0.732692	0.065299
C55	C	-0.339010	-1.265958	-0.601385
C56	C	-0.005676	-0.932625	-0.268052
C57	C	0.327657	-0.599292	0.065281
C58	C	-0.521879	-1.698515	-0.613859
C59	C	-0.188546	-1.365181	-0.280526
C60	C	0.144787	-1.031848	0.052807
C61	C	-0.600109	-1.693205	-0.619232
C62	C	-0.266776	-1.359872	-0.285899
C63	C	0.066558	-1.026539	0.047435
C64	C	-0.636861	-1.767500	-0.545074
C65	C	-0.303528	-1.434167	-0.211741
C66	C	0.029805	-1.100833	0.121593
C67	C	-0.710366	-1.762513	-0.550135
C68	C	-0.377033	-1.429180	-0.216801
C69	C	-0.043700	-1.095847	0.116532
C70	C	-0.747117	-1.683225	-0.629348
C71	C	-0.413784	-1.349892	-0.296015
C72	C	-0.080451	-1.016558	0.037319
C73	C	-0.710360	-1.608927	-0.703514
C74	C	-0.377026	-1.275594	-0.370181
C75	C	-0.043693	-0.942260	-0.036847
C76	C	-0.636856	-1.613921	-0.698459
C77	C	-0.303523	-1.280587	-0.365125
C78	C	0.029810	-0.947254	-0.031792
C79	C	-0.966949	-1.660061	-0.652696
C80	C	-0.633616	-1.326728	-0.319362
C81	C	-0.300283	-0.993395	0.013971
C82	C	-1.040458	-1.655071	-0.657743
C83	C	-0.707125	-1.321737	-0.324409
C84	C	-0.373791	-0.988404	0.008924
C85	C	-1.040459	-1.808659	-0.504364
C86	C	-0.707126	-1.475326	-0.171031
C87	C	-0.373793	-1.141993	0.162303
C88	C	-0.966954	-1.813641	-0.499311
C89	C	-0.633621	-1.480307	-0.165978
C90	C	-0.300288	-1.146974	0.167356
C91	C	-0.930203	-1.739348	-0.573481
C92	C	-0.596870	-1.406014	-0.240148
C93	C	-0.263537	-1.072681	0.093185
N94	N	-0.822251	-1.678123	-0.634520
N95	N	-0.488918	-1.344790	-0.301186
N96	N	-0.155584	-1.011456	0.032147
N97	N	-0.855071	-1.744456	-0.568315
N98	N	-0.521738	-1.411123	-0.234981
N99	N	-0.188404	-1.077790	0.098352
C100	C	-0.155440	-1.723932	-0.588906
C101	C	0.177893	-1.390599	-0.255573
C102	C	0.511227	-1.057266	0.077760
C103	C	-0.077210	-1.729366	-0.583585
C104	C	0.256123	-1.396032	-0.250251
C105	C	0.589456	-1.062699	0.083082
C106	C	-0.338939	-1.711280	-0.914431
C107	C	-0.005605	-1.377947	-0.581098
C108	C	0.327728	-1.044613	-0.247764
C109	C	-0.338905	-1.711322	-1.047829
C110	C	-0.005572	-1.377988	-0.714496
C111	C	0.327761	-1.044655	-0.381162
C112	C	-0.339028	-1.024224	-0.601412
C113	C	-0.005695	-0.690891	-0.268078
C114	C	0.327638	-0.357557	0.065255
C115	C	-0.339018	-1.157625	-0.601394
C116	C	-0.005685	-0.824291	-0.268060
C117	C	0.327649	-0.490958	0.065273
C118	C	-0.339044	-1.711158	-0.289571
C119	C	-0.005710	-1.377825	0.043762
C120	C	0.327623	-1.044491	0.377096
C121	C	-0.338879	-1.711362	-0.156160
C122	C	-0.005545	-1.378029	0.177173
C123	C	0.327788	-1.044696	0.510506
H124	H	-0.740287	-1.823011	-0.489746
H125	H	-0.406953	-1.489678	-0.156413
H126	H	-0.073620	-1.156345	0.176920
C127	C	-0.596438	-1.854708	-0.457932
C128	C	-0.263105	-1.521375	-0.124599
C129	C	0.070228	-1.188041	0.208734
H130	H	-0.547398	-1.847034	-0.465530
H131	H	-0.214065	-1.513701	-0.132197
H132	H	0.119269	-1.180368	0.201137
H133	H	-0.608436	-1.934525	-0.476387
H134	H	-0.275102	-1.601192	-0.143053
H135	H	0.058231	-1.267859	0.190280
H136	H	-0.608537	-1.836348	-0.378108
H137	H	-0.275204	-1.503015	-0.044775
H138	H	0.058130	-1.169682	0.288559
C139	C	-0.926533	-1.900866	-0.412184
C140	C	-0.593200	-1.567532	-0.078850
C141	C	-0.259867	-1.234199	0.254483
H142	H	-0.958950	-1.944408	-0.368749
H143	H	-0.625616	-1.611075	-0.035416
H144	H	-0.292283	-1.277741	0.297918
H145	H	-0.897906	-1.856930	-0.357881
H146	H	-0.564572	-1.523597	-0.024548
H147	H	-0.231239	-1.190264	0.308786
H148	H	-0.897814	-1.955089	-0.456178
H149	H	-0.564481	-1.621756	-0.122844
H150	H	-0.231147	-1.288423	0.210489
C151	C	-1.080886	-1.567849	-0.744877
C152	C	-0.747553	-1.234516	-0.411543
C153	C	-0.414220	-0.901183	-0.078210
H154	H	-1.129926	-1.575507	-0.737249
H155	H	-0.796592	-1.242174	-0.403916
H156	H	-0.463259	-0.908840	-0.070583
H157	H	-1.068798	-1.586190	-0.824704
H158	H	-0.735465	-1.252857	-0.491370
H159	H	-0.402131	-0.919524	-0.158037
H160	H	-1.068885	-1.488031	-0.726407
H161	H	-0.735551	-1.154698	-0.393074
H162	H	-0.402218	-0.821364	-0.059741
H163	H	-0.740288	-1.544374	-0.768016
H164	H	-0.406955	-1.211040	-0.434683
H165	H	-0.073622	-0.877707	-0.101350
H166	H	-0.606933	-1.553423	-0.758848
H167	H	-0.273600	-1.220090	-0.425514
H168	H	0.059734	-0.886757	-0.092181
H169	H	-1.070390	-1.869146	-0.443980
H170	H	-0.737057	-1.535813	-0.110647
H171	H	-0.403723	-1.202480	0.222686
C172	C	-0.926532	-1.578321	-0.734259
C173	C	-0.593199	-1.244988	-0.400926
C174	C	-0.259865	-0.911654	-0.067592
H175	H	-0.958949	-1.530373	-0.782143
H176	H	-0.625616	-1.197040	-0.448810
H177	H	-0.292282	-0.863707	-0.115477
H178	H	-0.897807	-1.626139	-0.784626
H179	H	-0.564474	-1.292806	-0.451293
H180	H	-0.231140	-0.959473	-0.117959
H181	H	-0.897910	-1.527994	-0.686316
H182	H	-0.564577	-1.194661	-0.352982
H183	H	-0.231244	-0.861328	-0.019649
