data_functionalizedCrystal
_audit_creation_method	'MofGen! by Chris Wilmer'
_symmetry_space_group_name_H-M	'P1'
_symmetry_Int_Tables_number	1
_symmetry_cell_setting	triclinic
loop_
_symmetry_equiv_pos_as_xyz
  x,y,z
_cell_length_a	12.759401
_cell_length_b	17.637651
_cell_length_c	12.759393
_cell_angle_alpha	78.749835
_cell_angle_beta	89.980387
_cell_angle_gamma	101.219389
loop_
_atom_site_label
_atom_site_type_symbol
_atom_site_fract_x
_atom_site_fract_y
_atom_site_fract_z
Zn1	Zn	1.521691	-0.314718	-0.509340
Zn2	Zn	1.486052	-0.446957	-0.298082
Zn3	Zn	1.345981	-0.314760	-0.333665
Zn4	Zn	1.310465	-0.446896	-0.473737
O5	O	1.416047	-0.380833	-0.403706
O6	O	1.663982	-0.332268	-0.481325
O7	O	1.467421	-0.429463	-0.155770
O8	O	1.399068	-0.204112	-0.386760
O9	O	1.637799	-0.429423	-0.326115
O10	O	1.528161	-0.204082	-0.515828
O11	O	1.364511	-0.332339	-0.181912
O12	O	1.194251	-0.332280	-0.352237
O13	O	1.338536	-0.429320	-0.625492
O14	O	1.168158	-0.429360	-0.455147
O15	O	1.493722	-0.332209	-0.651650
O16	O	1.432982	-0.557591	-0.291592
O17	O	1.303979	-0.557546	-0.420644
C18	C	1.143084	-0.380818	-0.403690
C19	C	1.026304	-0.380831	-0.403703
C20	C	0.957834	-0.431339	-0.322816
C21	C	0.848106	-0.431353	-0.322830
C22	C	0.875330	-0.330344	-0.484625
C23	C	0.985055	-0.330335	-0.484614
C24	C	0.999083	-0.481835	-0.241905
C25	C	0.930611	-0.532346	-0.161010
C26	C	0.820884	-0.532360	-0.161025
C27	C	0.779627	-0.481863	-0.241934
C28	C	1.360788	-0.586257	-0.348416
C29	C	1.337243	-0.674138	-0.324798
C30	C	1.595593	-0.962794	-0.583460
C31	C	1.573436	-1.045372	-0.561249
C32	C	1.439101	-1.045511	-0.426721
C33	C	1.461251	-0.962932	-0.448917
C34	C	1.539497	-0.921580	-0.527289
C35	C	1.405154	-0.921717	-0.392746
C36	C	1.427298	-0.839145	-0.414944
C37	C	1.505538	-0.797787	-0.493314
C38	C	1.561641	-0.839007	-0.549487
C39	C	1.326903	-0.963071	-0.314380
C40	C	1.270807	-0.921856	-0.258208
C41	C	1.292956	-0.839282	-0.280401
C42	C	1.371196	-0.797925	-0.358771
C43	C	1.236853	-0.798062	-0.224228
C44	C	1.258997	-0.715490	-0.246427
C45	C	1.393340	-0.715352	-0.380970
C46	C	1.690077	-0.380848	-0.403722
C47	C	1.806852	-0.380854	-0.403729
C48	C	1.416142	-0.380753	-0.677761
C49	C	1.416183	-0.380719	-0.794547
C50	C	1.471552	-0.174607	-0.459235
C51	C	1.495204	-0.086726	-0.482898
C52	C	1.496999	-0.330149	-0.863032
C53	C	1.497032	-0.330120	-0.972764
C54	C	1.335427	-0.431239	-0.945514
C55	C	1.335391	-0.431263	-0.835785
C56	C	1.577791	-0.279605	-0.821794
C57	C	1.658614	-0.229031	-0.890280
C58	C	1.658647	-0.229002	-1.000012
C59	C	1.577856	-0.279548	-1.041258
C60	C	1.416029	-0.380855	-0.130733
C61	C	1.416251	-0.380666	-0.014007
H62	H	0.690277	-0.481883	-0.241945
O63	O	1.248294	-0.485756	-0.989992
H64	H	1.261902	-0.477248	-1.077798
H65	H	0.765135	-0.573494	-0.095162
O66	O	1.152456	-0.842672	-0.139711
H67	H	1.117162	-0.800139	-0.104385
H68	H	1.269571	-0.472430	-0.780025
O69	O	1.477746	-0.670742	-0.465489
H70	H	1.440788	-0.633111	-0.529011
O71	O	1.117430	-0.481825	-0.241880
H72	H	1.162384	-0.422167	-0.236825
H73	H	1.375391	-1.079191	-0.362914
O74	O	1.186425	-0.966469	-0.173678
H75	H	1.108193	-0.950661	-0.195867
H76	H	1.724451	-0.187817	-1.055773
O77	O	1.577759	-0.279645	-0.703439
H78	H	1.502809	-0.263672	-0.678794
H79	H	1.213316	-0.681933	-0.200687
H80	H	1.724386	-0.187874	-0.856692
O81	O	0.975100	-0.586808	-0.073743
H82	H	1.062905	-0.578309	-0.087313
O83	O	0.830842	-0.275870	-0.571877
H84	H	0.743042	-0.284355	-0.558287
O85	O	1.577876	-0.279517	-1.159612
H86	H	1.652820	-0.295500	-1.184253
O87	O	1.058915	-0.275852	-0.571848
H88	H	1.034228	-0.289481	-0.650611
O89	O	1.529436	-0.708726	-0.517254
H90	H	1.456016	-0.686974	-0.544255
H91	H	1.625364	-0.805337	-0.613298
H92	H	1.619108	-1.078926	-0.607012
O93	O	1.679991	-0.918182	-0.667987
H94	H	1.715281	-0.960711	-0.703323
H95	H	1.308867	-1.030306	-0.296319
