data_functionalizedCrystal
_audit_creation_method	'MofGen! by Chris Wilmer'
_symmetry_space_group_name_H-M	'P1'
_symmetry_Int_Tables_number	1
_symmetry_cell_setting	triclinic
loop_
_symmetry_equiv_pos_as_xyz
  x,y,z
_cell_length_a	12.759401
_cell_length_b	18.215404
_cell_length_c	12.759393
_cell_angle_alpha	90.034583
_cell_angle_beta	89.981425
_cell_angle_gamma	89.975751
loop_
_atom_site_label
_atom_site_type_symbol
_atom_site_fract_x
_atom_site_fract_y
_atom_site_fract_z
Zn1	Zn	1.606188	0.292932	-0.593963
Zn2	Zn	1.606055	0.416019	-0.418274
Zn3	Zn	1.430490	0.292971	-0.418302
Zn4	Zn	1.430451	0.415962	-0.593915
O5	O	1.518296	0.354471	-0.506114
O6	O	1.753192	0.309267	-0.570666
O7	O	1.582726	0.399736	-0.271257
O8	O	1.453870	0.189982	-0.441636
O9	O	1.753094	0.399698	-0.441588
O10	O	1.582954	0.189953	-0.570693
O11	O	1.453740	0.309334	-0.271277
O12	O	1.283464	0.309279	-0.441589
O13	O	1.453802	0.399602	-0.740943
O14	O	1.283435	0.399640	-0.570611
O15	O	1.582916	0.309212	-0.740978
O16	O	1.582688	0.518995	-0.441542
O17	O	1.453673	0.518954	-0.570584
C18	C	1.245329	0.354458	-0.506099
C19	C	1.128552	0.354471	-0.506117
C20	C	1.073742	0.307468	-0.573432
C21	C	0.964018	0.307476	-0.573439
C22	C	0.963924	0.401494	-0.438814
C23	C	1.073646	0.401483	-0.438802
C24	C	1.518190	0.545677	-0.506078
C25	C	1.518241	0.627476	-0.506097
C26	C	1.585582	0.815667	-0.439043
C27	C	1.585631	0.892526	-0.439074
C28	C	1.451171	0.892523	-0.573336
C29	C	1.451128	0.815666	-0.573309
C30	C	1.518332	0.777240	-0.506157
C31	C	1.518424	0.930956	-0.506214
C32	C	1.518477	1.014289	-0.506249
C33	C	1.518281	0.693901	-0.506123
C34	C	1.792329	0.354484	-0.506129
C35	C	1.909106	0.354490	-0.506136
C36	C	1.518370	0.354397	-0.780147
C37	C	1.518401	0.354365	-0.896924
C38	C	1.518438	1.162518	-0.506192
C39	C	1.518515	1.080719	-0.506274
C40	C	1.451262	0.307284	-0.951796
C41	C	1.451286	0.307261	-1.061520
C42	C	1.585598	0.401403	-1.061490
C43	C	1.585567	0.401429	-0.951768
C44	C	1.518284	0.354492	-0.233146
C45	C	1.518456	0.354317	-0.116370
H46	H	1.118274	0.439758	-0.383981
C47	C	1.659512	0.773398	-0.365185
C48	C	1.733491	0.815671	-0.291366
C49	C	1.807426	0.773404	-0.217509
C50	C	1.807383	0.688864	-0.217472
C51	C	1.733402	0.646586	-0.291293
C52	C	1.659467	0.688853	-0.365150
H53	H	1.733525	0.878257	-0.291391
H54	H	1.862192	0.804702	-0.162861
H55	H	1.862114	0.657576	-0.162798
H56	H	1.733367	0.584000	-0.291268
H57	H	1.604701	0.657556	-0.419798
H58	H	1.640394	0.923810	-0.384424
C59	C	1.659471	0.453171	-1.121830
C60	C	1.650814	0.536835	-1.106717
C61	C	1.724684	0.588605	-1.167058
C62	C	1.807212	0.556711	-1.242513
C63	C	1.815873	0.473043	-1.257630
C64	C	1.742002	0.421272	-1.197289
H65	H	1.589719	0.560449	-1.050858
H66	H	1.718272	0.650543	-1.155867
H67	H	1.861895	0.595035	-1.287182
H68	H	1.876968	0.449429	-1.313489
H69	H	1.748414	0.359335	-1.208479
H70	H	1.640243	0.439771	-0.907090
H71	H	1.396454	0.923819	-0.628007
C72	C	1.134140	0.255751	-0.647468
C73	C	1.073844	0.204046	-0.721508
C74	C	1.134239	0.152325	-0.795543
C75	C	1.254929	0.152309	-0.795539
C76	C	1.315231	0.204016	-0.721496
C77	C	1.254837	0.255737	-0.647461
H78	H	0.984496	0.204056	-0.721513
H79	H	1.089598	0.114048	-0.850354
H80	H	1.299636	0.114022	-0.850344
H81	H	1.404579	0.204006	-0.721490
H82	H	1.299477	0.294014	-0.592649
C83	C	1.377435	0.255469	-1.121881
C84	C	1.423025	0.197680	-1.197342
C85	C	1.349169	0.145887	-1.257703
C86	C	1.229725	0.151883	-1.242603
C87	C	1.184129	0.209674	-1.167138
C88	C	1.257985	0.261467	-1.106777
H89	H	1.511450	0.193240	-1.208523
H90	H	1.382923	0.103106	-1.313567
H91	H	1.175053	0.113542	-1.287286
H92	H	1.095704	0.214115	-1.155957
H93	H	1.224231	0.304248	-1.050914
C94	C	0.903729	0.255776	-0.647494
C95	C	0.828320	0.287745	-0.729901
C96	C	0.768033	0.236043	-0.803961
C97	C	0.783155	0.152372	-0.795614
C98	C	0.858568	0.120399	-0.713203
C99	C	0.918855	0.172102	-0.639143
H100	H	0.817122	0.349686	-0.736084
H101	H	0.712207	0.259711	-0.864967
H102	H	0.738527	0.114099	-0.850437
H103	H	0.869766	0.058458	-0.707021
H104	H	0.974681	0.148433	-0.578137
C105	C	1.377149	0.773389	-0.647141
C106	C	1.303220	0.815653	-0.720999
C107	C	1.229250	0.773376	-0.794831
C108	C	1.229210	0.688836	-0.794806
C109	C	1.303142	0.646568	-0.720945
C110	C	1.377112	0.688845	-0.647113
H111	H	1.303247	0.878239	-0.721020
H112	H	1.174520	0.804666	-0.849508
H113	H	1.174453	0.657540	-0.849461
H114	H	1.303114	0.583982	-0.720924
H115	H	1.431841	0.657554	-0.592436
H116	H	1.396570	0.268962	-0.907145
H117	H	0.919206	0.439771	-0.384009
