data_functionalizedCrystal
_audit_creation_method	'MofGen! by Chris Wilmer'
_symmetry_space_group_name_H-M	'P1'
_symmetry_Int_Tables_number	1
_symmetry_cell_setting	triclinic
loop_
_symmetry_equiv_pos_as_xyz
  x,y,z
_cell_length_a	17.639617
_cell_length_b	18.101395
_cell_length_c	17.640968
_cell_angle_alpha	101.231698
_cell_angle_beta	109.666032
_cell_angle_gamma	101.216463
loop_
_atom_site_label
_atom_site_type_symbol
_atom_site_fract_x
_atom_site_fract_y
_atom_site_fract_z
Zn1	Zn	1.354406	0.097961	0.721256
Zn2	Zn	1.854406	0.597961	1.221256
Zn3	Zn	1.326405	-0.057299	0.583394
Zn4	Zn	1.826405	0.442701	1.083394
Zn5	Zn	1.188683	0.035196	0.555519
Zn6	Zn	1.688683	0.535196	1.055519
Zn7	Zn	1.216495	-0.057226	0.693277
Zn8	Zn	1.716495	0.442774	1.193277
O9	O	1.271497	0.004658	0.638361
O10	O	1.771497	0.504658	1.138361
O11	O	1.466046	0.103603	0.726343
O12	O	1.966046	0.603603	1.226343
O13	O	1.284778	-0.071327	0.464349
O14	O	1.784778	0.428673	0.964349
O15	O	1.210745	0.147178	0.577548
O16	O	1.710745	0.647178	1.077548
O17	O	1.445474	-0.010466	0.625057
O18	O	1.945474	0.489534	1.125057
O19	O	1.332501	0.193291	0.699314
O20	O	1.832501	0.693291	1.199314
O21	O	1.183594	-0.003371	0.443869
O22	O	1.683594	0.496629	0.943869
O23	O	1.077018	-0.003301	0.550418
O24	O	1.577018	0.496699	1.050418
O25	O	1.258147	-0.010343	0.812336
O26	O	1.758147	0.489657	1.312336
O27	O	1.097452	-0.071204	0.651628
O28	O	1.597452	0.428796	1.151628
O29	O	1.359470	0.103673	0.832892
O30	O	1.859470	0.603673	1.332892
O31	O	1.311747	-0.160945	0.597927
O32	O	1.811747	0.339055	1.097927
O33	O	1.230996	-0.160892	0.678658
O34	O	1.730996	0.339108	1.178658
C35	C	1.057325	-0.044056	0.594963
C36	C	1.557325	0.455944	1.094963
C37	C	0.965705	-0.064909	0.576416
C38	C	1.465705	0.435091	1.076416
C39	C	0.717979	0.163141	0.779463
C40	C	1.217979	0.663141	1.279463
C41	C	0.631885	0.143524	0.762018
C42	C	1.131885	0.643524	1.262018
C43	C	0.610455	0.024867	0.656397
C44	C	1.110455	0.524867	1.156397
C45	C	0.696549	0.044472	0.673836
C46	C	1.196549	0.544472	1.173836
C47	C	0.750305	0.113611	0.735368
C48	C	1.250305	0.613611	1.235368
C49	C	0.728875	-0.005058	0.629741
C50	C	1.228875	0.494942	1.129741
C51	C	0.814962	0.014548	0.647175
C52	C	1.314962	0.514548	1.147175
C53	C	0.868723	0.083684	0.708703
C54	C	1.368723	0.583684	1.208703
C55	C	0.836392	0.133217	0.752802
C56	C	1.336392	0.633217	1.252802
C57	C	0.675117	-0.074194	0.568205
C58	C	1.175117	0.425806	1.068205
C59	C	0.707443	-0.123724	0.524110
C60	C	1.207443	0.376276	1.024110
C61	C	0.793532	-0.104121	0.541548
C62	C	1.293532	0.395879	1.041548
C63	C	0.847293	-0.034985	0.603076
C64	C	1.347293	0.465015	1.103076
C65	C	0.825863	-0.153654	0.497449
C66	C	1.325863	0.346346	0.997449
C67	C	0.911949	-0.134048	0.514883
C68	C	1.411949	0.365952	1.014883
C69	C	0.933379	-0.015379	0.620510
C70	C	1.433379	0.484621	1.120510
C71	C	1.271377	-0.187786	0.638304
C72	C	1.771377	0.312214	1.138304
C73	C	1.271406	-0.270091	0.638322
C74	C	1.771406	0.229909	1.138322
C75	C	1.271507	-0.420771	0.638374
C76	C	1.771507	0.079229	1.138374
C77	C	1.220658	-0.452141	0.689111
C78	C	1.720658	0.047859	1.189111
C79	C	1.220954	-0.537643	0.689429
C80	C	1.720954	-0.037643	1.189429
C81	C	1.271606	-0.569125	0.638425
C82	C	1.771606	-0.069125	1.138425
C83	C	1.363236	-0.512851	0.679393
C84	C	1.863236	-0.012851	1.179393
C85	C	1.362904	-0.427201	0.679751
C86	C	1.862904	0.072799	1.179751
C87	C	1.231474	-0.477352	0.546672
C88	C	1.731474	0.022648	1.046672
C89	C	1.229708	-0.563318	0.546778
C90	C	1.729708	-0.063318	1.046778
C91	C	1.271666	-0.652968	0.638453
C92	C	1.771666	-0.152968	1.138453
C93	C	1.271453	-0.336926	0.638348
C94	C	1.771453	0.163074	1.138348
C95	C	1.486506	0.053562	0.681930
C96	C	1.986506	0.553562	1.181930
C97	C	1.578130	0.074401	0.700497
C98	C	2.078130	0.574401	1.200497
C99	C	1.315034	0.053674	0.853358
C100	C	1.815034	0.553674	1.353358
C101	C	1.333587	0.074562	0.944977
C102	C	1.833587	0.574562	1.444977
C103	C	1.271644	0.197863	0.638442
C104	C	1.771644	0.697863	1.138442
C105	C	1.271707	0.280196	0.638477
C106	C	1.771707	0.780196	1.138477
C107	C	1.228177	-0.044103	0.424211
C108	C	1.728177	0.455897	0.924211
C109	C	1.209784	-0.064746	0.332625
C110	C	1.709784	0.435254	0.832625
C111	C	1.130870	-0.153549	1.192795
C112	C	1.630870	0.346451	1.692795
C113	C	1.148320	-0.133909	1.278889
C114	C	1.648320	0.366091	1.778889
C115	C	1.253819	-0.015194	1.300281
C116	C	1.753819	0.484806	1.800281
C117	C	1.236374	-0.034823	1.214187
C118	C	1.736374	0.465177	1.714187
C119	C	1.174899	-0.104002	1.160451
C120	C	1.674899	0.395998	1.660451
C121	C	1.280404	0.014724	1.181843
C122	C	1.780404	0.514724	1.681843
C123	C	1.262963	-0.004905	1.095757
C124	C	1.762963	0.495095	1.595757
C125	C	1.201493	-0.074082	1.042016
C126	C	1.701493	0.425918	1.542016
C127	C	1.157459	-0.123632	1.074365
C128	C	1.657459	0.376368	1.574365
C129	C	1.341882	0.083900	1.235581
C130	C	1.841882	0.583900	1.735581
C131	C	1.385912	0.133448	1.203237
C132	C	1.885912	0.633448	1.703237
C133	C	1.368468	0.113821	1.117149
C134	C	1.868468	0.613821	1.617149
C135	C	1.306998	0.044644	1.063408
C136	C	1.806998	0.544644	1.563408
C137	C	1.412502	0.163371	1.084800
C138	C	1.912502	0.663371	1.584800
C139	C	1.395062	0.143741	0.998714
C140	C	1.895062	0.643741	1.498714
C141	C	1.289557	0.025015	0.977322
C142	C	1.789557	0.525015	1.477322
H143	H	0.880164	0.189514	0.802911
H144	H	1.380164	0.689514	1.302911
O145	O	1.131136	-0.448793	0.652651
O146	O	1.631136	0.051207	1.152651
H147	H	1.121924	-0.424730	0.597980
H148	H	1.621924	0.075270	1.097980
H149	H	1.248315	-0.412612	0.756300
H150	H	1.748315	0.087388	1.256300
O151	O	1.223245	-0.049595	0.919350
O152	O	1.723245	0.450405	1.419350
H153	H	1.240682	-0.100753	0.938703
H154	H	1.740682	0.399247	1.438703
O155	O	0.946826	-0.187468	0.467332
O156	O	1.446826	0.312532	0.967332
H157	H	0.894985	-0.238842	0.421623
H158	H	1.394985	0.261158	0.921623
O159	O	0.961572	0.104839	0.727498
O160	O	1.461572	0.604839	1.227498
H161	H	0.993518	0.161240	0.777685
H162	H	1.493518	0.661240	1.277685
H163	H	1.430914	0.184088	0.972379
H164	H	1.930914	0.684088	1.472379
O165	O	1.257965	-0.540762	0.778978
O166	O	1.757965	-0.040762	1.278978
H167	H	1.275730	-0.481134	0.822225
H168	H	1.775730	0.018866	1.322225
O169	O	1.478810	0.237982	1.142754
O170	O	1.978810	0.737982	1.642754
H171	H	1.461365	0.289130	1.123383
H172	H	1.961365	0.789130	1.623383
H173	H	1.356082	0.099879	1.305678
H174	H	1.856082	0.599879	1.805678
H175	H	1.262638	-0.586283	0.505560
H176	H	1.762638	-0.086283	1.005560
H177	H	1.395300	-0.515502	0.746326
H178	H	1.895300	-0.015502	1.246326
O179	O	1.100814	-0.187350	1.313769
O180	O	1.600814	0.312650	1.813769
H181	H	1.123269	-0.162082	1.382658
H182	H	1.623269	0.337918	1.882658
H183	H	1.402951	-0.532310	0.644357
H184	H	1.902951	-0.032310	1.144357
O185	O	1.143212	-0.474055	0.501708
O186	O	1.643212	0.025945	1.001708
H187	H	1.104105	-0.492073	0.536425
H188	H	1.604105	0.007927	1.036425
H189	H	1.394753	-0.388350	0.747302
H190	H	1.894753	0.111650	1.247302
O191	O	1.131694	-0.589406	0.652808
O192	O	1.631694	-0.089406	1.152808
H193	H	1.087927	-0.553453	0.634715
H194	H	1.587927	-0.053453	1.134715
O195	O	1.140315	-0.615011	0.505591
O196	O	1.640315	-0.115011	1.005591
H197	H	1.133108	-0.659430	0.448627
H198	H	1.633108	-0.159430	0.948627
O199	O	1.280234	-0.450798	0.496305
O200	O	1.780234	0.049202	0.996305
H201	H	1.332719	-0.397572	0.536337
H202	H	1.832719	0.102428	1.036337
H203	H	1.435967	0.189772	1.247001
H204	H	1.935967	0.689772	1.747001
H205	H	1.303874	0.041130	1.344045
H206	H	1.803874	0.541130	1.844045
O207	O	0.991368	0.059194	0.686877
O208	O	1.491368	0.559194	1.186877
H209	H	0.987945	0.057389	0.748200
H210	H	1.487945	0.557389	1.248200
H211	H	0.605570	0.183866	0.797926
H212	H	1.105570	0.683866	1.297926
O213	O	0.767874	-0.228216	0.431078
O214	O	1.267874	0.271784	0.931078
H215	H	0.804814	-0.259362	0.403339
H216	H	1.304814	0.240638	0.903339
O217	O	1.416079	-0.398273	0.634192
O218	O	1.916079	0.101727	1.134192
H219	H	1.441923	-0.445462	0.612008
H220	H	1.941923	0.054538	1.112008
H221	H	1.187298	-0.090065	0.971920
H222	H	1.687298	0.409935	1.471920
O223	O	1.091150	-0.198244	1.016394
O224	O	1.591150	0.301756	1.516394
H225	H	1.063461	-0.229404	1.053345
H226	H	1.563461	0.270596	1.553345
O227	O	1.064561	-0.228162	1.134824
O228	O	1.564561	0.271838	1.634824
H229	H	1.036871	-0.259322	1.171776
H230	H	1.536871	0.240678	1.671776
O231	O	0.552474	-0.049700	0.590028
O232	O	1.052474	0.450300	1.090028
H233	H	0.520703	-0.087972	0.618901
H234	H	1.020703	0.412028	1.118901
O235	O	0.775971	0.237712	0.845831
O236	O	1.275971	0.737712	1.345831
H237	H	0.739032	0.268865	0.873565
H238	H	1.239032	0.768865	1.373565
H239	H	0.663663	-0.180015	0.474008
H240	H	1.163663	0.319985	0.974008
O241	O	0.582264	-0.095348	0.549392
O242	O	1.082264	0.404652	1.049392
H243	H	0.572147	-0.101416	0.606931
H244	H	1.072147	0.398584	1.106931
