data_functionalizedCrystal
_audit_creation_method	'MofGen! by Chris Wilmer'
_symmetry_space_group_name_H-M	'P1'
_symmetry_Int_Tables_number	1
_symmetry_cell_setting	triclinic
loop_
_symmetry_equiv_pos_as_xyz
  x,y,z
_cell_length_a	23.532407
_cell_length_b	26.210047
_cell_length_c	23.532407
_cell_angle_alpha	90.000177
_cell_angle_beta	82.848678
_cell_angle_gamma	90.003642
loop_
_atom_site_label
_atom_site_type_symbol
_atom_site_fract_x
_atom_site_fract_y
_atom_site_fract_z
O1	O	0.755264	0.042370	0.069127
O2	O	1.005264	0.292370	0.319127
O3	O	1.255264	0.542370	0.569127
O4	O	1.505264	0.792370	0.819127
O5	O	0.589401	0.042386	0.079130
O6	O	0.839401	0.292386	0.329130
O7	O	1.089401	0.542386	0.579130
O8	O	1.339401	0.792386	0.829130
O9	O	0.677334	0.042368	-0.008803
O10	O	0.927334	0.292368	0.241197
O11	O	1.177334	0.542368	0.491197
O12	O	1.427334	0.792368	0.741197
O13	O	0.667331	0.042388	0.157060
O14	O	0.917331	0.292388	0.407060
O15	O	1.167331	0.542388	0.657060
O16	O	1.417331	0.792388	0.907060
O17	O	0.677317	-0.042490	-0.008790
O18	O	0.927317	0.207510	0.241210
O19	O	1.177317	0.457510	0.491210
O20	O	1.427317	0.707510	0.741210
O21	O	0.589384	-0.042472	0.079144
O22	O	0.839384	0.207528	0.329144
O23	O	1.089384	0.457528	0.579144
O24	O	1.339384	0.707528	0.829144
O25	O	0.755247	-0.042488	0.069140
O26	O	1.005247	0.207512	0.319140
O27	O	1.255247	0.457512	0.569140
O28	O	1.505247	0.707512	0.819140
Cu29	Cu	0.672314	-0.050228	0.074143
Cu30	Cu	0.922314	0.199772	0.324143
Cu31	Cu	1.172314	0.449772	0.574143
Cu32	Cu	1.422314	0.699772	0.824143
Cu33	Cu	0.672334	0.050127	0.074127
Cu34	Cu	0.922334	0.300127	0.324127
Cu35	Cu	1.172334	0.550127	0.574127
Cu36	Cu	1.422334	0.800127	0.824127
O37	O	0.667314	-0.042470	0.157074
O38	O	0.917314	0.207530	0.407074
O39	O	1.167314	0.457530	0.657074
O40	O	1.417314	0.707530	0.907074
C41	C	0.568176	-0.000041	0.078882
C42	C	0.818176	0.249959	0.328882
C43	C	1.068176	0.499959	0.578882
C44	C	1.318176	0.749959	0.828882
C45	C	0.504959	-0.000035	0.078116
C46	C	0.754959	0.249965	0.328116
C47	C	1.004959	0.499965	0.578116
C48	C	1.254959	0.749965	0.828116
N49	N	0.672304	-0.120812	0.074154
N50	N	0.922304	0.129188	0.324154
N51	N	1.172304	0.379188	0.574154
N52	N	1.422304	0.629188	0.824154
C53	C	0.105856	-0.000053	0.125350
C54	C	0.355856	0.249947	0.375350
C55	C	0.605856	0.499947	0.625350
C56	C	0.855856	0.749947	0.875350
C57	C	0.046456	-0.000056	0.124638
C58	C	0.296456	0.249944	0.374638
C59	C	0.546456	0.499944	0.624638
C60	C	0.796456	0.749944	0.874638
O61	O	0.009711	-0.000069	0.168424
O62	O	0.259711	0.249931	0.418424
O63	O	0.509711	0.499931	0.668424
O64	O	0.759711	0.749931	0.918424
N65	N	0.023830	-0.000061	0.072362
N66	N	0.273830	0.249939	0.322362
N67	N	0.523830	0.499939	0.572362
N68	N	0.773830	0.749939	0.822362
C69	C	0.060607	-0.000069	0.020794
C70	C	0.310607	0.249931	0.270794
C71	C	0.560607	0.499931	0.520794
C72	C	0.810607	0.749931	0.770794
O73	O	0.035908	-0.000074	-0.023737
O74	O	0.285908	0.249926	0.226263
O75	O	0.535908	0.499926	0.476263
O76	O	0.785908	0.749926	0.726263
C77	C	0.120006	-0.000069	0.021506
C78	C	0.370006	0.249931	0.271506
C79	C	0.620006	0.499931	0.521506
C80	C	0.870006	0.749931	0.771506
C81	C	0.142629	-0.000059	0.073785
C82	C	0.392629	0.249941	0.323785
C83	C	0.642629	0.499941	0.573785
C84	C	0.892629	0.749941	0.823785
C85	C	0.128479	-0.000043	0.177625
C86	C	0.378479	0.249957	0.427625
C87	C	0.628479	0.499957	0.677625
C88	C	0.878479	0.749957	0.927625
C89	C	0.187876	-0.000039	0.178336
C90	C	0.437876	0.249961	0.428336
C91	C	0.687876	0.499961	0.678336
C92	C	0.937876	0.749961	0.928336
C93	C	0.224649	-0.000045	0.126772
C94	C	0.474649	0.249955	0.376772
C95	C	0.724649	0.499955	0.626772
C96	C	0.974649	0.749955	0.876772
C97	C	0.202025	-0.000055	0.074497
C98	C	0.452025	0.249945	0.324497
C99	C	0.702025	0.499945	0.574497
C100	C	0.952025	0.749945	0.824497
C101	C	0.156783	-0.000080	-0.030062
C102	C	0.406783	0.249920	0.219938
C103	C	0.656783	0.499920	0.469938
C104	C	0.906783	0.749920	0.719938
C105	C	0.216185	-0.000081	-0.029345
C106	C	0.466185	0.249919	0.220655
C107	C	0.716185	0.499919	0.470655
C108	C	0.966185	0.749919	0.720655
C109	C	0.238808	-0.000071	0.022934
C110	C	0.488808	0.249929	0.272934
C111	C	0.738808	0.499929	0.522934
C112	C	0.988808	0.749929	0.772934
C113	C	0.298194	-0.000056	0.023643
C114	C	0.548194	0.249944	0.273643
C115	C	0.798194	0.499944	0.523643
C116	C	1.048194	0.749944	0.773643
N117	N	0.320820	-0.000051	0.075920
N118	N	0.570820	0.249949	0.325920
N119	N	0.820820	0.499949	0.575920
N120	N	1.070820	0.749949	0.825920
C121	C	0.284048	-0.000045	0.127484
C122	C	0.534048	0.249955	0.377484
C123	C	0.784048	0.499955	0.627484
C124	C	1.034048	0.749955	0.877484
C125	C	-0.064135	-0.000069	0.019302
C126	C	0.185865	0.249931	0.269302
C127	C	0.435865	0.499931	0.519302
C128	C	0.685865	0.749931	0.769302
C129	C	-0.123533	-0.000065	0.018589
C130	C	0.126467	0.249935	0.268589
C131	C	0.376467	0.499935	0.518589
C132	C	0.626467	0.749935	0.768589
C133	C	-0.137680	-0.000053	0.122434
C134	C	0.112320	0.249947	0.372434
C135	C	0.362320	0.499947	0.622434
C136	C	0.612320	0.749947	0.872434
C137	C	-0.078281	-0.000053	0.123146
C138	C	0.171719	0.249947	0.373146
C139	C	0.421719	0.499947	0.623146
C140	C	0.671719	0.749947	0.873146
C141	C	-0.041509	-0.000063	0.071578
C142	C	0.208491	0.249937	0.321578
C143	C	0.458491	0.499937	0.571578
C144	C	0.708491	0.749937	0.821578
C145	C	0.408784	-0.000036	0.128974
C146	C	0.658784	0.249964	0.378974
C147	C	0.908784	0.499964	0.628974
C148	C	1.158784	0.749964	0.878974
C149	C	0.468186	-0.000030	0.129680
C150	C	0.718186	0.249970	0.379680
C151	C	0.968186	0.499970	0.629680
C152	C	1.218186	0.749970	0.879680
C153	C	0.482329	-0.000044	0.025836
C154	C	0.732329	0.249956	0.275836
C155	C	0.982329	0.499956	0.525836
C156	C	1.232329	0.749956	0.775836
C157	C	0.422932	-0.000048	0.025129
C158	C	0.672932	0.249952	0.275129
C159	C	0.922932	0.499952	0.525129
C160	C	1.172932	0.749952	0.775129
C161	C	0.386160	-0.000045	0.076702
C162	C	0.636160	0.249955	0.326702
C163	C	0.886160	0.499955	0.576702
C164	C	1.136160	0.749955	0.826702
O165	O	0.334974	-0.000045	-0.020119
O166	O	0.584974	0.249955	0.229881
O167	O	0.834974	0.499955	0.479881
O168	O	1.084974	0.749955	0.729881
O169	O	0.308755	-0.000046	0.172007
O170	O	0.558755	0.249954	0.422007
O171	O	0.808755	0.499954	0.672007
O172	O	1.058755	0.749954	0.922007
C173	C	0.711267	-0.473334	0.035199
C174	C	0.961267	-0.223334	0.285199
C175	C	1.211267	0.026666	0.535199
C176	C	1.461267	0.276666	0.785199
C177	C	0.711280	-0.686992	0.035191
C178	C	0.961280	-0.436992	0.285191
C179	C	1.211280	-0.186992	0.535191
C180	C	1.461280	0.063008	0.785191
O181	O	0.744385	-0.714621	0.002072
O182	O	0.994385	-0.464621	0.252072
O183	O	1.244385	-0.214621	0.502072
O184	O	1.494385	0.035379	0.752072
N185	N	0.672337	-0.713706	0.074114
N186	N	0.922337	-0.463706	0.324114
N187	N	1.172337	-0.213706	0.574114
N188	N	1.422337	0.036294	0.824114
C189	C	0.633386	-0.687001	0.113040
C190	C	0.883386	-0.437001	0.363040
C191	C	1.133386	-0.187001	0.613040
C192	C	1.383386	0.062999	0.863040
O193	O	0.600260	-0.714625	0.146143
O194	O	0.850260	-0.464625	0.396143
O195	O	1.100260	-0.214625	0.646143
O196	O	1.350260	0.035375	0.896143
C197	C	0.633372	-0.473344	0.113045
C198	C	0.883372	-0.223344	0.363045
C199	C	1.133372	0.026656	0.613045
C200	C	1.383372	0.276656	0.863045
C201	C	0.672320	-0.446633	0.074123
C202	C	0.922320	-0.196633	0.324123
C203	C	1.172320	0.053367	0.574123
C204	C	1.422320	0.303367	0.824123
C205	C	0.750212	-0.446623	-0.003721
C206	C	1.000212	-0.196623	0.246279
C207	C	1.250212	0.053377	0.496279
C208	C	1.500212	0.303377	0.746279
C209	C	0.750211	-0.393212	-0.003716
C210	C	1.000211	-0.143212	0.246284
C211	C	1.250211	0.106788	0.496284
C212	C	1.500211	0.356788	0.746284
C213	C	0.711264	-0.366511	0.035208
C214	C	0.961264	-0.116511	0.285208
C215	C	1.211264	0.133489	0.535208
C216	C	1.461264	0.383489	0.785208
C217	C	0.672319	-0.393222	0.074127
C218	C	0.922319	-0.143222	0.324127
C219	C	1.172319	0.106778	0.574127
C220	C	1.422319	0.356778	0.824127
C221	C	0.594419	-0.446640	0.151968
C222	C	0.844419	-0.196640	0.401968
C223	C	1.094419	0.053360	0.651968
C224	C	1.344419	0.303360	0.901968
C225	C	0.594417	-0.393222	0.151965
C226	C	0.844417	-0.143222	0.401965
C227	C	1.094417	0.106778	0.651965
C228	C	1.344417	0.356778	0.901965
C229	C	0.633366	-0.366512	0.113042
C230	C	0.883366	-0.116512	0.363042
C231	C	1.133366	0.133488	0.613042
C232	C	1.383366	0.383488	0.863042
C233	C	0.633371	-0.313109	0.113056
C234	C	0.883371	-0.063109	0.363056
C235	C	1.133371	0.186891	0.613056
C236	C	1.383371	0.436891	0.863056
N237	N	0.672313	-0.286396	0.074132
N238	N	0.922313	-0.036396	0.324132
N239	N	1.172313	0.213604	0.574132
N240	N	1.422313	0.463604	0.824132
C241	C	0.711260	-0.313097	0.035208
C242	C	0.961260	-0.063097	0.285208
C243	C	1.211260	0.186903	0.535208
C244	C	1.461260	0.436903	0.785208
C245	C	0.633398	-0.799175	0.113036
C246	C	0.883398	-0.549175	0.363036
C247	C	1.133398	-0.299175	0.613036
C248	C	1.383398	-0.049175	0.863036
C249	C	0.633402	-0.852589	0.113035
C250	C	0.883402	-0.602589	0.363035
C251	C	1.133402	-0.352589	0.613035
C252	C	1.383402	-0.102589	0.863035
C253	C	0.711295	-0.852576	0.035185
C254	C	0.961295	-0.602576	0.285185
C255	C	1.211295	-0.352576	0.535185
C256	C	1.461295	-0.102576	0.785185
C257	C	0.711293	-0.799161	0.035189
C258	C	0.961293	-0.549161	0.285189
C259	C	1.211293	-0.299161	0.535189
C260	C	1.461293	-0.049161	0.785189
C261	C	0.672340	-0.772461	0.074112
C262	C	0.922340	-0.522461	0.324112
C263	C	1.172340	-0.272461	0.574112
C264	C	1.422340	-0.022461	0.824112
C265	C	0.711254	-0.200929	0.035221
C266	C	0.961254	0.049071	0.285221
C267	C	1.211254	0.299071	0.535221
C268	C	1.461254	0.549071	0.785221
C269	C	0.711251	-0.147513	0.035230
C270	C	0.961251	0.102487	0.285230
C271	C	1.211251	0.352487	0.535230
C272	C	1.461251	0.602487	0.785230
C273	C	0.633356	-0.147530	0.113078
C274	C	0.883356	0.102470	0.363078
C275	C	1.133356	0.352470	0.613078
C276	C	1.383356	0.602470	0.863078
C277	C	0.633361	-0.200941	0.113071
C278	C	0.883361	0.049059	0.363071
C279	C	1.133361	0.299059	0.613071
C280	C	1.383361	0.549059	0.863071
C281	C	0.672312	-0.227640	0.074138
C282	C	0.922312	0.022360	0.324138
C283	C	1.172312	0.272360	0.574138
C284	C	1.422312	0.522360	0.824138
O285	O	0.600278	-0.285448	0.146153
O286	O	0.850278	-0.035448	0.396153
O287	O	1.100278	0.214552	0.646153
O288	O	1.350278	0.464552	0.896153
O289	O	0.744373	-0.285464	0.002102
O290	O	0.994373	-0.035464	0.252102
O291	O	1.244373	0.214536	0.502102
O292	O	1.494373	0.464536	0.752102
C293	C	0.711268	-0.526745	0.035194
C294	C	0.961268	-0.276745	0.285194
C295	C	1.211268	-0.026745	0.535194
C296	C	1.461268	0.223255	0.785194
C297	C	0.672323	-0.553456	0.074114
C298	C	0.922323	-0.303456	0.324114
C299	C	1.172323	-0.053456	0.574114
C300	C	1.422323	0.196544	0.824114
C301	C	0.633377	-0.526755	0.113038
C302	C	0.883377	-0.276755	0.363038
C303	C	1.133377	-0.026755	0.613038
C304	C	1.383377	0.223245	0.863038
C305	C	0.672328	-0.606870	0.074114
C306	C	0.922328	-0.356870	0.324114
C307	C	1.172328	-0.106870	0.574114
C308	C	1.422328	0.143130	0.824114
C309	C	0.711274	-0.633571	0.035190
C310	C	0.961274	-0.383571	0.285190
C311	C	1.211274	-0.133571	0.535190
C312	C	1.461274	0.116429	0.785190
C313	C	0.750217	-0.606857	-0.003734
C314	C	1.000217	-0.356857	0.246266
C315	C	1.250217	-0.106857	0.496266
C316	C	1.500217	0.143143	0.746266
C317	C	0.750215	-0.553446	-0.003730
C318	C	1.000215	-0.303446	0.246270
C319	C	1.250215	-0.053446	0.496270
C320	C	1.500215	0.196554	0.746270
C321	C	0.594434	-0.553469	0.151961
C322	C	0.844434	-0.303469	0.401961
C323	C	1.094434	-0.053469	0.651961
C324	C	1.344434	0.196531	0.901961
C325	C	0.594439	-0.606880	0.151954
C326	C	0.844439	-0.356880	0.401954
C327	C	1.094439	-0.106880	0.651954
C328	C	1.344439	0.143120	0.901954
C329	C	0.633386	-0.633581	0.113030
C330	C	0.883386	-0.383581	0.363030
C331	C	1.133386	-0.133581	0.613030
C332	C	1.383386	0.116419	0.863030
C333	C	0.776472	-0.000059	0.069388
C334	C	1.026472	0.249941	0.319388
C335	C	1.276472	0.499941	0.569388
C336	C	1.526472	0.749941	0.819388
C337	C	0.839689	-0.000062	0.070154
C338	C	1.089689	0.249938	0.320154
C339	C	1.339689	0.499938	0.570154
C340	C	1.589689	0.749938	0.820154
C341	C	0.677071	-0.000062	-0.030013
C342	C	0.927071	0.249938	0.219987
C343	C	1.177071	0.499938	0.469987
C344	C	1.427071	0.749938	0.719987
C345	C	0.676305	-0.000066	-0.093230
C346	C	0.926305	0.249934	0.156770
C347	C	1.176305	0.499934	0.406770
C348	C	1.426305	0.749934	0.656770
N349	N	0.672349	0.120710	0.074111
N350	N	0.922349	0.370710	0.324111
N351	N	1.172349	0.620710	0.574111
N352	N	1.422349	0.870710	0.824111
C353	C	0.723539	-0.000042	-0.492333
C354	C	0.973539	0.249958	-0.242333
C355	C	1.223539	0.499958	0.007667
C356	C	1.473539	0.749958	0.257667
C357	C	0.722827	-0.000038	-0.551733
C358	C	0.972827	0.249962	-0.301733
C359	C	1.222827	0.499962	-0.051733
C360	C	1.472827	0.749962	0.198267
O361	O	0.766613	-0.000024	-0.588478
O362	O	1.016613	0.249976	-0.338478
O363	O	1.266613	0.499976	-0.088478
O364	O	1.516613	0.749976	0.161522
N365	N	0.670551	-0.000034	-0.574359
N366	N	0.920551	0.249966	-0.324359
N367	N	1.170551	0.499966	-0.074359
N368	N	1.420551	0.749966	0.175641
C369	C	0.618983	-0.000028	-0.537582
C370	C	0.868983	0.249972	-0.287582
C371	C	1.118983	0.499972	-0.037582
C372	C	1.368983	0.749972	0.212418
O373	O	0.574452	-0.000023	-0.562281
O374	O	0.824452	0.249977	-0.312281
O375	O	1.074452	0.499977	-0.062281
O376	O	1.324452	0.749977	0.187719
C377	C	0.619695	-0.000028	-0.478182
C378	C	0.869695	0.249972	-0.228182
C379	C	1.119695	0.499972	0.021818
C380	C	1.369695	0.749972	0.271818
C381	C	0.671974	-0.000038	-0.455560
C382	C	0.921974	0.249962	-0.205560
C383	C	1.171974	0.499962	0.044440
C384	C	1.421974	0.749962	0.294440
C385	C	0.775814	-0.000051	-0.469710
C386	C	1.025814	0.249949	-0.219710
C387	C	1.275814	0.499949	0.030290
C388	C	1.525814	0.749949	0.280290
C389	C	0.776525	-0.000056	-0.410313
C390	C	1.026525	0.249944	-0.160313
C391	C	1.276525	0.499944	0.089687
C392	C	1.526525	0.749944	0.339687
C393	C	0.724961	-0.000052	-0.373540
C394	C	0.974961	0.249948	-0.123540
C395	C	1.224961	0.499948	0.126460
C396	C	1.474961	0.749948	0.376460
C397	C	0.672685	-0.000043	-0.396164
C398	C	0.922685	0.249957	-0.146164
C399	C	1.172685	0.499957	0.103836
C400	C	1.422685	0.749957	0.353836
C401	C	0.568127	-0.000019	-0.441406
C402	C	0.818127	0.249981	-0.191406
C403	C	1.068127	0.499981	0.058594
C404	C	1.318127	0.749981	0.308594
C405	C	0.568844	-0.000019	-0.382004
C406	C	0.818844	0.249981	-0.132004
C407	C	1.068844	0.499981	0.117996
C408	C	1.318844	0.749981	0.367996
C409	C	0.621123	-0.000028	-0.359381
C410	C	0.871123	0.249972	-0.109381
C411	C	1.121123	0.499972	0.140619
C412	C	1.371123	0.749972	0.390619
C413	C	0.621832	-0.000043	-0.299995
C414	C	0.871832	0.249957	-0.049995
C415	C	1.121832	0.499957	0.200005
C416	C	1.371832	0.749957	0.450005
N417	N	0.674109	-0.000048	-0.277368
N418	N	0.924109	0.249952	-0.027368
N419	N	1.174109	0.499952	0.222632
N420	N	1.424109	0.749952	0.472632
C421	C	0.725673	-0.000052	-0.314141
C422	C	0.975673	0.249948	-0.064141
C423	C	1.225673	0.499948	0.185859
C424	C	1.475673	0.749948	0.435859
C425	C	0.617491	-0.000026	-0.662324
C426	C	0.867491	0.249974	-0.412324
C427	C	1.117491	0.499974	-0.162324
C428	C	1.367491	0.749974	0.087676
C429	C	0.616778	-0.000030	-0.721722
C430	C	0.866778	0.249970	-0.471722
C431	C	1.116778	0.499970	-0.221722
C432	C	1.366778	0.749970	0.028278
C433	C	0.720623	-0.000039	-0.735869
C434	C	0.970623	0.249961	-0.485869
C435	C	1.220623	0.499961	-0.235869
C436	C	1.470623	0.749961	0.014131
C437	C	0.721335	-0.000039	-0.676470
C438	C	0.971335	0.249961	-0.426470
C439	C	1.221335	0.499961	-0.176470
C440	C	1.471335	0.749961	0.073530
C441	C	0.669767	-0.000031	-0.639698
C442	C	0.919767	0.249969	-0.389698
C443	C	1.169767	0.499969	-0.139698
C444	C	1.419767	0.749969	0.110302
C445	C	0.727163	-0.000063	-0.189405
C446	C	0.977163	0.249937	0.060595
C447	C	1.227163	0.499937	0.310595
C448	C	1.477163	0.749937	0.560595
C449	C	0.727869	-0.000070	-0.130003
C450	C	0.977869	0.249930	0.119997
C451	C	1.227869	0.499930	0.369997
C452	C	1.477869	0.749930	0.619997
C453	C	0.624025	-0.000058	-0.115860
C454	C	0.874025	0.249942	0.134140
C455	C	1.124025	0.499942	0.384140
C456	C	1.374025	0.749942	0.634140
C457	C	0.623318	-0.000054	-0.175257
C458	C	0.873318	0.249946	0.074743
C459	C	1.123318	0.499946	0.324743
C460	C	1.373318	0.749946	0.574743
C461	C	0.674891	-0.000054	-0.212029
C462	C	0.924891	0.249946	0.037971
C463	C	1.174891	0.499946	0.287971
C464	C	1.424891	0.749946	0.537971
O465	O	0.578070	-0.000056	-0.263215
O466	O	0.828070	0.249944	-0.013215
O467	O	1.078070	0.499944	0.236785
O468	O	1.328070	0.749944	0.486785
O469	O	0.770196	-0.000050	-0.289433
O470	O	1.020196	0.249950	-0.039433
O471	O	1.270196	0.499950	0.210567
O472	O	1.520196	0.749950	0.460567
C473	C	0.667577	-0.000038	0.178283
C474	C	0.917577	0.249962	0.428283
C475	C	1.167577	0.499962	0.678283
C476	C	1.417577	0.749962	0.928283
C477	C	0.668343	-0.000031	0.241500
C478	C	0.918343	0.249969	0.491500
C479	C	1.168343	0.499969	0.741500
C480	C	1.418343	0.749969	0.991500
H481	H	0.486602	-0.000021	0.172255
H482	H	0.736602	0.249979	0.422255
H483	H	0.986602	0.499979	0.672255
H484	H	1.236602	0.749979	0.922255
H485	H	0.743007	-0.874325	0.003492
H486	H	0.993007	-0.624325	0.253492
H487	H	1.243007	-0.374325	0.503492
H488	H	1.493007	-0.124325	0.753492
F489	F	-0.176828	-0.000049	0.177314
F490	F	0.073172	0.249951	0.427314
F491	F	0.323172	0.499951	0.677314
F492	F	0.573172	0.749951	0.927314
F493	F	0.552956	-0.364810	0.193393
F494	F	0.802956	-0.114810	0.443393
F495	F	1.052956	0.135190	0.693393
F496	F	1.302956	0.385190	0.943393
F497	F	0.369658	-0.000034	0.183864
F498	F	0.619658	0.249966	0.433864
F499	F	0.869658	0.499966	0.683864
F500	F	1.119658	0.749966	0.933864
F501	F	-0.147603	-0.000064	-0.037054
F502	F	0.102397	0.249936	0.212946
F503	F	0.352397	0.499936	0.462946
F504	F	0.602397	0.749936	0.712946
F505	F	0.591913	-0.229368	0.154503
F506	F	0.841913	0.020632	0.404503
F507	F	1.091913	0.270632	0.654503
F508	F	1.341913	0.520632	0.904503
F509	F	0.752708	-0.119088	-0.006197
F510	F	1.002708	0.130912	0.243803
F511	F	1.252708	0.380912	0.493803
F512	F	1.502708	0.630912	0.743803
H513	H	0.742971	-0.222660	0.003517
H514	H	0.992971	0.027340	0.253517
H515	H	1.242971	0.277340	0.503517
H516	H	1.492971	0.527340	0.753517
F517	F	0.830701	-0.000056	-0.508838
F518	F	1.080701	0.249944	-0.258838
F519	F	1.330701	0.499944	-0.008838
F520	F	1.580701	0.749944	0.241162
F521	F	0.591955	-0.881011	0.154468
F522	F	0.841955	-0.631011	0.404468
F523	F	1.091955	-0.381011	0.654468
F524	F	1.341955	-0.131011	0.904468
F525	F	0.591938	-0.770764	0.154467
F526	F	0.841938	-0.520764	0.404467
F527	F	1.091938	-0.270764	0.654467
F528	F	1.341938	-0.020764	0.904467
F529	F	0.591909	-0.119105	0.154503
F530	F	0.841909	0.130895	0.404503
F531	F	1.091909	0.380895	0.654503
F532	F	1.341909	0.630895	0.904503
H533	H	0.404512	-0.000049	-0.017441
H534	H	0.654512	0.249951	0.232559
H535	H	0.904512	0.499951	0.482559
H536	H	1.154512	0.749951	0.732559
H537	H	0.819097	-0.000062	-0.391900
H538	H	1.069097	0.249938	-0.141900
H539	H	1.319097	0.499938	0.108100
H540	H	1.569097	0.749938	0.358100
F541	F	0.782053	-0.000064	-0.228531
F542	F	1.032053	0.249936	0.021469
F543	F	1.282053	0.499936	0.271469
F544	F	1.532053	0.749936	0.521469
F545	F	0.569149	-0.000053	-0.076714
F546	F	0.819149	0.249947	0.173286
F547	F	1.069149	0.499947	0.423286
F548	F	1.319149	0.749947	0.673286
F549	F	0.132720	-0.000084	-0.085706
F550	F	0.382720	0.249916	0.164294
F551	F	0.632720	0.499916	0.414294
F552	F	0.882720	0.749916	0.664294
H553	H	0.781927	-0.468358	-0.035420
H554	H	1.031927	-0.218358	0.214580
H555	H	1.281927	0.031642	0.464580
H556	H	1.531927	0.281642	0.714580
H557	H	0.781931	-0.531702	-0.035424
H558	H	1.031931	-0.281702	0.214576
H559	H	1.281931	-0.031702	0.464576
H560	H	1.531931	0.218298	0.714576
H561	H	0.206289	-0.000030	0.220908
H562	H	0.456289	0.249970	0.470908
H563	H	0.706289	0.499970	0.720908
H564	H	0.956289	0.749970	0.970908
F565	F	0.089351	-0.000037	0.232512
F566	F	0.339351	0.249963	0.482512
F567	F	0.589351	0.499963	0.732512
F568	F	0.839351	0.749963	0.982512
F569	F	0.567676	-0.000052	-0.199335
F570	F	0.817676	0.249948	0.050665
F571	F	1.067676	0.499948	0.300665
F572	F	1.317676	0.749948	0.550665
H573	H	-0.034198	-0.000072	-0.022693
H574	H	0.215802	0.249928	0.227307
H575	H	0.465802	0.499928	0.477307
H576	H	0.715802	0.749928	0.727307
H577	H	0.781924	-0.371467	-0.035412
H578	H	1.031924	-0.121467	0.214588
H579	H	1.281924	0.128533	0.464588
H580	H	1.531924	0.378533	0.714588
F581	F	0.552963	-0.475058	0.193393
F582	F	0.802963	-0.225058	0.443393
F583	F	1.052963	0.024942	0.693393
F584	F	1.302963	0.274942	0.943393
F585	F	0.255318	-0.000093	-0.084233
F586	F	0.505318	0.249907	0.165767
F587	F	0.755318	0.499907	0.415767
F588	F	1.005318	0.749907	0.665767
F589	F	-0.054210	-0.000043	0.178789
F590	F	0.195790	0.249957	0.428789
F591	F	0.445790	0.499957	0.678789
F592	F	0.695790	0.749957	0.928789
F593	F	0.776978	-0.000050	-0.652399
F594	F	1.026978	0.249950	-0.402399
F595	F	1.276978	0.499950	-0.152399
F596	F	1.526978	0.749950	0.097601
F597	F	0.791668	-0.635283	-0.045158
F598	F	1.041668	-0.385283	0.204842
F599	F	1.291668	-0.135283	0.454842
F600	F	1.541668	0.114717	0.704842
F601	F	0.561135	-0.000028	-0.745792
F602	F	0.811135	0.249972	-0.495792
F603	F	1.061135	0.499972	-0.245792
F604	F	1.311135	0.749972	0.004208
H605	H	0.512280	-0.000047	-0.016146
H606	H	0.762280	0.249953	0.233854
H607	H	1.012280	0.499953	0.483854
H608	H	1.262280	0.749953	0.733854
H609	H	0.743008	-0.777416	0.003495
H610	H	0.993008	-0.527416	0.253495
H611	H	1.243008	-0.277416	0.503495
H612	H	1.493008	-0.027416	0.753495
H613	H	0.562724	-0.628624	0.183654
H614	H	0.812724	-0.378624	0.433654
H615	H	1.062724	-0.128624	0.683654
H616	H	1.312724	0.121376	0.933654
F617	F	0.552980	-0.525058	0.193391
F618	F	0.802980	-0.275058	0.443391
F619	F	1.052980	-0.025058	0.693391
F620	F	1.302980	0.224942	0.943391
F621	F	0.783515	-0.000080	-0.105930
F622	F	1.033515	0.249920	0.144070
F623	F	1.283515	0.499920	0.394070
F624	F	1.533515	0.749920	0.644070
H625	H	0.762610	-0.000041	-0.765821
H626	H	1.012610	0.249959	-0.515821
H627	H	1.262610	0.499959	-0.265821
H628	H	1.512610	0.749959	-0.015821
H629	H	0.575496	-0.000024	-0.632386
H630	H	0.825496	0.249976	-0.382386
H631	H	1.075496	0.499976	-0.132386
H632	H	1.325496	0.749976	0.117614
F633	F	0.512483	-0.000006	-0.465469
F634	F	0.762483	0.249994	-0.215469
F635	F	1.012483	0.499994	0.034531
F636	F	1.262483	0.749994	0.284531
H637	H	0.526850	-0.000011	-0.352066
H638	H	0.776850	0.249989	-0.102066
H639	H	1.026850	0.499989	0.147934
H640	H	1.276850	0.749989	0.397934
