data_functionalizedCrystal
_audit_creation_method	'MofGen! by Chris Wilmer'
_symmetry_space_group_name_H-M	'P1'
_symmetry_Int_Tables_number	1
_symmetry_cell_setting	triclinic
loop_
_symmetry_equiv_pos_as_xyz
  x,y,z
_cell_length_a	6.817900
_cell_length_b	17.253796
_cell_length_c	17.078481
_cell_angle_alpha	99.953167
_cell_angle_beta	99.306161
_cell_angle_gamma	102.657420
loop_
_atom_site_label
_atom_site_type_symbol
_atom_site_fract_x
_atom_site_fract_y
_atom_site_fract_z
V1	V	-3.979151	-0.111101	-0.254880
O2	O	-3.968069	0.005532	-0.242278
O3	O	-3.930514	-0.220480	-0.260591
O4	O	-3.910205	-0.109307	-0.362642
O5	O	-3.988520	-0.106411	-0.139521
V6	V	-4.465472	-0.097160	-0.240177
O7	O	-4.234272	-0.141681	-0.287134
O8	O	-4.660549	-0.066580	-0.207924
O9	O	-4.290902	0.012219	-0.234466
O10	O	-4.593951	-0.213793	-0.252779
O11	O	-4.573501	-0.101851	-0.355536
O12	O	-4.311212	-0.098954	-0.132415
C13	C	-3.776122	-0.247147	-0.258493
C14	C	-3.817506	-0.336566	-0.263881
C15	C	-4.053401	-0.841126	-0.302077
C16	C	-4.014507	-0.757108	-0.297015
C17	C	-3.968689	-0.703665	-0.221056
C18	C	-3.961785	-0.734244	-0.150154
C19	C	-4.000693	-0.818262	-0.155216
C20	C	-3.849510	-0.451163	-0.198041
C21	C	-3.810596	-0.367140	-0.192984
C22	C	-3.863324	-0.390010	-0.339846
C23	C	-3.902218	-0.474027	-0.344902
C24	C	-3.895322	-0.504600	-0.274000
N25	N	-3.928926	-0.617784	-0.215880
N26	N	-3.935098	-0.590479	-0.279177
C27	C	-3.750215	-0.105334	-0.388669
C28	C	-3.775125	-0.104591	-0.476813
C29	C	-3.968152	-0.108257	-0.522537
C30	C	-3.991546	-0.107559	-0.605358
C31	C	-3.821914	-0.103200	-0.642455
C32	C	-3.628871	-0.099531	-0.596724
C33	C	-3.605476	-0.100224	-0.513903
C34	C	-3.872435	-0.100692	-0.889688
C35	C	-3.895847	-0.100002	-0.972515
C36	C	-4.258520	-0.108029	-0.981143
C37	C	-4.235111	-0.108726	-0.898322
C38	C	-4.042069	-0.105053	-0.852597
N39	N	-3.845824	-0.102488	-0.727111
N40	N	-4.018159	-0.105759	-0.767941
C41	C	-4.108637	0.038882	-0.236562
C42	C	-4.046491	0.128300	-0.231180
C43	C	-4.134545	-0.102930	-0.106385
C44	C	-4.088873	-0.103669	-0.018239
H45	H	-3.843889	-0.476044	-0.140308
O46	O	-4.097968	-0.892926	-0.375932
C47	C	-4.095680	-0.847918	-0.437420
H48	H	-4.123190	-0.786094	-0.413751
H49	H	-3.940057	-0.838905	-0.455739
C50	C	-4.232455	-0.970377	-0.540884
C51	C	-4.266260	-0.894447	-0.511816
H52	H	-4.337669	-0.999079	-0.586777
H53	H	-4.233989	-1.000701	-0.499459
H54	H	-4.102764	-0.962855	-0.556144
H55	H	-4.395936	-0.901970	-0.496547
H56	H	-4.264751	-0.864125	-0.553240
O57	O	-3.917160	-0.682217	-0.076429
C58	C	-3.884343	-0.601505	-0.087162
H59	H	-3.838707	-0.598437	-0.148107
H60	H	-4.031645	-0.580713	-0.085968
C61	C	-3.767210	-0.549340	0.056684
C62	C	-3.711143	-0.545571	-0.018168
H63	H	-3.660380	-0.514836	0.099244
H64	H	-3.789327	-0.603717	0.063916
H65	H	-3.889965	-0.532015	0.057667
H66	H	-3.588406	-0.562905	-0.019154
H67	H	-3.689002	-0.491195	-0.025399
O68	O	-3.417944	-0.096528	-0.469418
C69	C	-3.357741	-0.026722	-0.405742
H70	H	-3.442630	0.020124	-0.422318
H71	H	-3.396843	-0.044147	-0.347639
C72	C	-3.020222	-0.047753	-0.371921
C73	C	-3.124473	0.009788	-0.392284
H74	H	-2.876331	-0.025233	-0.363617
H75	H	-3.060783	-0.094784	-0.414819
H76	H	-3.052829	-0.062268	-0.323504
H77	H	-3.091885	0.024294	-0.440705
H78	H	-3.083900	0.056822	-0.349394
O79	O	-3.947072	-0.525911	-0.418719
C80	C	-4.125862	-0.516202	-0.466183
H81	H	-4.220170	-0.489133	-0.424638
H82	H	-4.080762	-0.473680	-0.508117
C83	C	-4.138863	-0.632847	-0.568529
C84	C	-4.254702	-0.599606	-0.517503
H85	H	-4.218334	-0.684293	-0.600189
H86	H	-4.018404	-0.639387	-0.536553
H87	H	-4.101286	-0.597405	-0.603467
H88	H	-4.292254	-0.635043	-0.482559
H89	H	-4.375170	-0.593074	-0.549474
O90	O	-3.766346	-0.315144	-0.119248
C91	C	-3.914585	-0.269756	-0.115958
H92	H	-3.989076	-0.268402	-0.180300
H93	H	-4.037220	-0.299201	-0.084486
C94	C	-3.718734	-0.183889	0.011065
C95	C	-3.810213	-0.182221	-0.067962
H96	H	-3.654357	-0.129895	0.040674
H97	H	-3.618866	-0.214470	0.008850
H98	H	-3.820947	-0.208432	0.037281
H99	H	-3.707997	-0.157689	-0.094179
H100	H	-3.910062	-0.151634	-0.065750
O101	O	-3.993806	-0.847827	-0.086265
C102	C	-3.945072	-0.782644	-0.018136
H103	H	-3.862079	-0.724686	-0.034583
H104	H	-4.092424	-0.773786	0.001254
C105	C	-3.906831	-0.872881	0.072510
C106	C	-3.804882	-0.801698	0.052311
H107	H	-3.820364	-0.884636	0.115966
H108	H	-3.939672	-0.916797	0.026610
H109	H	-4.029621	-0.865491	0.088663
H110	H	-3.682109	-0.809093	0.036149
H111	H	-3.772018	-0.757784	0.098210
H112	H	-4.148723	-0.110540	-0.642582
H113	H	-3.490753	-0.095977	-0.626934
H114	H	-4.020118	-0.732218	-0.354747
O115	O	-4.399701	-0.112998	-0.862171
C116	C	-4.337651	-0.112808	-0.779263
H117	H	-4.191703	-0.135027	-0.769909
H118	H	-4.306429	-0.048375	-0.741605
C119	C	-4.688454	-0.142334	-0.763694
C120	C	-4.509208	-0.169631	-0.752206
H121	H	-4.794279	-0.177382	-0.747002
H122	H	-4.730259	-0.142459	-0.819549
H123	H	-4.662407	-0.088640	-0.732311
H124	H	-4.535249	-0.223319	-0.783596
H125	H	-4.467411	-0.169516	-0.696355
O126	O	-3.870044	-0.360177	-0.408638
C127	C	-3.825831	-0.274561	-0.387886
H128	H	-3.860829	-0.254677	-0.325556
H129	H	-3.656445	-0.247666	-0.386209
C130	C	-3.916083	-0.268651	-0.528232
C131	C	-3.959086	-0.244229	-0.451681
H132	H	-3.998272	-0.249939	-0.567585
H133	H	-3.945863	-0.326331	-0.542215
H134	H	-3.774926	-0.246236	-0.526824
H135	H	-4.100234	-0.266652	-0.453087
H136	H	-3.929332	-0.186551	-0.437700
O137	O	-3.730922	-0.095615	-1.008485
C138	C	-3.579046	-0.023369	-0.970118
H139	H	-3.653674	0.022998	-0.939040
H140	H	-3.460476	-0.037083	-0.922861
C141	C	-3.380843	-0.045510	-1.072196
C142	C	-3.472506	0.011442	-1.034031
H143	H	-3.315116	-0.024038	-1.111619
H144	H	-3.483160	-0.094185	-1.098043
H145	H	-3.282048	-0.056933	-1.032808
H146	H	-3.571316	0.022856	-1.073418
H147	H	-3.370202	0.060120	-1.008191
H148	H	-4.106292	-0.111812	-0.492341
H149	H	-4.415688	-0.111018	-1.018380
H150	H	-3.715267	-0.097730	-0.852476
