data_functionalizedCrystal
_audit_creation_method	'MofGen! by Chris Wilmer'
_symmetry_space_group_name_H-M	'P1'
_symmetry_Int_Tables_number	1
_symmetry_cell_setting	triclinic
loop_
_symmetry_equiv_pos_as_xyz
  x,y,z
_cell_length_a	6.817900
_cell_length_b	11.102188
_cell_length_c	16.255661
_cell_angle_alpha	93.854852
_cell_angle_beta	103.488922
_cell_angle_gamma	108.603875
loop_
_atom_site_label
_atom_site_type_symbol
_atom_site_fract_x
_atom_site_fract_y
_atom_site_fract_z
V1	V	-4.052929	-0.176865	-0.263871
O2	O	-4.013087	0.007443	-0.258848
O3	O	-4.030098	-0.349678	-0.262067
O4	O	-4.004157	-0.174608	-0.378954
O5	O	-4.039208	-0.168839	-0.141151
V6	V	-4.533292	-0.154765	-0.249193
O7	O	-4.321119	-0.225344	-0.296069
O8	O	-4.715300	-0.106287	-0.216995
O9	O	-4.332917	0.018048	-0.250997
O10	O	-4.690531	-0.339073	-0.254216
O11	O	-4.664411	-0.162792	-0.371913
O12	O	-4.358858	-0.157022	-0.134110
C13	C	-3.881331	-0.391792	-0.257904
C14	C	-3.943947	-0.533072	-0.257196
C15	C	-3.930405	-0.580995	-0.179361
C16	C	-3.989264	-0.713744	-0.178699
C17	C	-4.075197	-0.750636	-0.333712
C18	C	-4.016353	-0.617890	-0.334374
C19	C	-4.135732	-0.877166	-0.087394
C20	C	-4.122155	-0.925091	-0.009555
C21	C	-3.947437	-0.861553	0.061374
C22	C	-3.786246	-0.750090	0.054468
C23	C	-3.799809	-0.702171	-0.023372
C24	C	-3.974571	-0.765708	-0.094299
C25	C	-3.869864	-0.454464	-0.425673
C26	C	-3.883412	-0.406543	-0.503513
C27	C	-4.058120	-0.470079	-0.574449
C28	C	-4.219287	-0.581547	-0.567551
C29	C	-4.205739	-0.629468	-0.489710
C30	C	-4.031030	-0.565923	-0.418774
C31	C	-3.848239	-0.168471	-0.407005
C32	C	-3.889815	-0.167769	-0.501086
C33	C	-3.799128	-0.159385	-0.723905
C34	C	-3.971585	-0.267595	-0.793381
C35	C	-3.966004	-0.166453	-0.673335
C36	C	-3.867655	-0.057005	-0.771496
C37	C	-4.039583	-0.165176	-0.839718
C38	C	-4.137957	-0.274760	-0.741581
C39	C	-4.033950	-0.064074	-0.719680
C40	C	-4.206548	-0.172315	-0.789137
C41	C	-3.923612	-0.167190	-0.577485
C42	C	-4.081993	-0.164449	-0.935567
C43	C	-4.145028	0.060155	-0.255158
C44	C	-4.061649	0.201433	-0.255872
C45	C	-4.178119	-0.163164	-0.106055
C46	C	-4.115781	-0.163859	-0.011973
H47	H	-4.336978	-0.720236	-0.484098
O48	O	-3.643121	-0.594034	-0.030170
C49	C	-3.547796	-0.622778	-0.093595
H50	H	-3.573888	-0.730009	-0.102493
H51	H	-3.624274	-0.596011	-0.156596
C52	C	-3.273065	-0.413781	-0.054822
C53	C	-3.305096	-0.545482	-0.065746
H54	H	-3.123359	-0.366097	-0.037647
H55	H	-3.337291	-0.394412	-0.012093
H56	H	-3.336812	-0.391493	-0.107326
H57	H	-3.241374	-0.567770	-0.013240
H58	H	-3.240854	-0.564852	-0.108466
O59	O	-3.616278	-0.688458	0.123303
C60	C	-3.424252	-0.685213	0.103457
H61	H	-3.461134	-0.766373	0.049143
H62	H	-3.348459	-0.588885	0.082826
C63	C	-3.221756	-0.602473	0.249728
C64	C	-3.267054	-0.702163	0.183023
H65	H	-3.124783	-0.612923	0.298808
H66	H	-3.351126	-0.604655	0.263099
H67	H	-3.158606	-0.522210	0.232524
H68	H	-3.330227	-0.782423	0.200224
H69	H	-3.137690	-0.699996	0.169657
H70	H	-4.361543	-0.633286	-0.625314
O71	O	-4.278499	-1.033374	-0.002708
C72	C	-4.229069	-1.062031	0.081209
H73	H	-4.048818	-1.015944	0.111925
H74	H	-4.319459	-1.022601	0.120588
C75	C	-4.517847	-1.265457	0.040461
C76	C	-4.296457	-1.208862	0.078184
H77	H	-4.559422	-1.356029	0.038597
H78	H	-4.551155	-1.246149	-0.016075
H79	H	-4.593145	-1.232586	0.073282
H80	H	-4.221162	-1.241721	0.045357
H81	H	-4.263137	-1.228179	0.134715
H82	H	-3.871450	-0.511938	-0.116518
H83	H	-4.059790	0.021975	-0.687572
O84	O	-4.305622	-0.938711	-0.156275
C85	C	-4.416661	-0.854504	-0.182931
H86	H	-4.382379	-0.776154	-0.127121
H87	H	-4.360769	-0.808631	-0.237914
C88	C	-4.701868	-1.026554	-0.281710
C89	C	-4.659777	-0.930329	-0.213162
H90	H	-4.851833	-1.073326	-0.300362
H91	H	-4.627056	-1.083286	-0.263754
H92	H	-4.655276	-0.988312	-0.327520
H93	H	-4.706344	-0.968573	-0.167349
H94	H	-4.734603	-0.873605	-0.231110
O95	O	-3.940286	-0.370137	-0.831611
C96	C	-3.725896	-0.362999	-0.798174
H97	H	-3.621013	-0.258990	-0.770618
H98	H	-3.717674	-0.425410	-0.745461
C99	C	-3.773312	-0.539142	-0.903923
C100	C	-3.644490	-0.411394	-0.870085
H101	H	-3.723098	-0.568999	-0.948279
H102	H	-3.917754	-0.543955	-0.926449
H103	H	-3.766449	-0.591135	-0.859988
H104	H	-3.651376	-0.359401	-0.914017
H105	H	-3.500047	-0.406574	-0.847568
H106	H	-3.936387	-0.900583	0.124752
H107	H	-4.069125	-0.431056	-0.637833
O108	O	-4.145467	-0.833205	-0.408599
C109	C	-4.194545	-0.960650	-0.391328
H110	H	-4.102077	-0.960674	-0.323162
H111	H	-4.374404	-1.004905	-0.398531
C112	C	-4.243674	-1.040018	-0.538536
C113	C	-4.130088	-1.040049	-0.454816
H114	H	-4.203924	-1.088998	-0.577700
H115	H	-4.210617	-0.954157	-0.550174
H116	H	-4.393549	-1.076894	-0.544527
H117	H	-3.980219	-1.003158	-0.448824
H118	H	-4.163119	-1.125906	-0.443179
H119	H	-3.752156	-0.315786	-0.509129
O120	O	-3.700092	-0.392949	-0.356738
C121	C	-3.589014	-0.477147	-0.330105
H122	H	-3.701752	-0.580870	-0.353002
H123	H	-3.446129	-0.458726	-0.358520
C124	C	-3.369936	-0.326496	-0.203576
C125	C	-3.508409	-0.453891	-0.231693
H126	H	-3.320205	-0.312148	-0.142871
H127	H	-3.444765	-0.269768	-0.221520
H128	H	-3.250882	-0.311161	-0.227263
H129	H	-3.627472	-0.469219	-0.208015
H130	H	-3.433597	-0.510621	-0.213742
H131	H	-3.626585	-0.154059	-0.695424
H132	H	-4.251829	-0.366887	-0.728114
H133	H	-4.379235	-0.177810	-0.817484
H134	H	-3.753782	0.034998	-0.785106
