data_functionalizedCrystal
_audit_creation_method	'MofGen! by Chris Wilmer'
_symmetry_space_group_name_H-M	'P1'
_symmetry_Int_Tables_number	1
_symmetry_cell_setting	triclinic
loop_
_symmetry_equiv_pos_as_xyz
  x,y,z
_cell_length_a	9.065215
_cell_length_b	19.188928
_cell_length_c	7.540329
_cell_angle_alpha	90.010977
_cell_angle_beta	89.997574
_cell_angle_gamma	95.920745
loop_
_atom_site_label
_atom_site_type_symbol
_atom_site_fract_x
_atom_site_fract_y
_atom_site_fract_z
O1	O	1.956848	-0.102360	-0.147496
O2	O	2.456848	0.397640	0.352504
O3	O	1.527271	-0.110759	-0.147506
O4	O	2.027271	0.389241	0.352494
O5	O	1.754458	-0.005000	-0.147456
O6	O	2.254458	0.495000	0.352544
O7	O	1.729661	-0.208119	-0.147546
O8	O	2.229661	0.291881	0.352454
O9	O	1.754444	-0.004999	0.147509
O10	O	2.254444	0.495001	0.647509
O11	O	1.527257	-0.110758	0.147459
O12	O	2.027257	0.389242	0.647459
O13	O	1.956834	-0.102359	0.147469
O14	O	2.456834	0.397641	0.647469
Cu15	Cu	1.742045	-0.106558	0.174397
Cu16	Cu	2.242045	0.393442	0.674397
Cu17	Cu	1.742061	-0.106560	-0.174434
Cu18	Cu	2.242061	0.393440	0.325566
O19	O	1.729647	-0.208118	0.147419
O20	O	2.229647	0.291882	0.647419
C21	C	1.472306	-0.109952	-0.000025
C22	C	1.972306	0.390048	0.499975
C23	C	1.308546	-0.107539	-0.000027
C24	C	1.808546	0.392461	0.499973
C25	C	1.753649	0.021018	0.000034
C26	C	2.253649	0.521018	0.500034
C27	C	1.751240	0.098541	0.000057
C28	C	2.251240	0.598541	0.500057
C29	C	1.884545	0.142430	0.000073
C30	C	2.384545	0.642430	0.500073
C31	C	1.882282	0.215272	0.000052
C32	C	2.382282	0.715272	0.500052
C33	C	1.746706	0.244221	0.000051
C34	C	2.246706	0.744221	0.500051
C35	C	1.613383	0.200322	0.000025
C36	C	2.113383	0.700322	0.500025
C37	C	1.615650	0.127482	0.000028
C38	C	2.115650	0.627482	0.500028
N39	N	1.643072	0.353031	0.100442
N40	N	2.143072	0.853031	0.600442
N41	N	1.640927	0.422227	0.100442
N42	N	2.140927	0.922227	0.600442
C43	C	1.739868	0.463683	0.000037
C44	C	2.239868	0.963683	0.500037
N45	N	1.841057	0.433331	-0.100347
N46	N	2.341057	0.933331	0.399653
N47	N	1.843206	0.364130	-0.100339
N48	N	2.343206	0.864130	0.399661
C49	C	1.744233	0.323203	0.000046
C50	C	2.244233	0.823203	0.500046
C51	C	1.870729	0.586555	0.000028
C52	C	2.370729	1.086555	0.500028
C53	C	1.868461	0.659398	-0.000005
C54	C	2.368461	1.159398	0.499995
C55	C	1.599558	0.644447	-0.000014
C56	C	2.099558	1.144447	0.499986
C57	C	1.601830	0.571606	0.000000
C58	C	2.101830	1.071606	0.500000
C59	C	1.737420	0.542665	0.000029
C60	C	2.237420	1.042665	0.500029
C61	C	2.011800	-0.103166	-0.000016
C62	C	2.511800	0.396834	0.499984
C63	C	2.175559	-0.105578	-0.000026
C64	C	2.675559	0.394422	0.499974
N65	N	1.742044	-0.106556	0.419745
N66	N	2.242044	0.393444	0.919745
C67	C	1.730461	0.765865	-0.000050
C68	C	2.230461	1.265865	0.499950
C69	C	1.732883	0.688342	-0.000009
C70	C	2.232883	1.188342	0.499991
N71	N	1.742073	-0.106556	-0.419782
N72	N	2.242073	0.393444	0.080218
H73	H	1.994953	0.118871	0.000091
H74	H	2.494953	0.618871	0.500091
Cl75	Cl	2.049879	0.270457	0.000071
Cl76	Cl	2.549879	0.770457	0.500071
H77	H	1.502996	0.223897	0.000020
H78	H	2.002996	0.723897	0.500020
Cl79	Cl	1.429117	0.680833	-0.000026
Cl80	Cl	1.929117	1.180833	0.499974
Cl81	Cl	1.448052	0.072304	0.000009
Cl82	Cl	1.948052	0.572304	0.500009
H83	H	1.981135	0.562990	0.000043
H84	H	2.481135	1.062990	0.500043
H85	H	1.977019	0.695132	-0.000001
H86	H	2.477019	1.195132	0.499999
Cl87	Cl	1.434236	0.516428	-0.000012
Cl88	Cl	1.934236	1.016428	0.499988
