data_functionalizedCrystal
_audit_creation_method	'MofGen! by Chris Wilmer'
_symmetry_space_group_name_H-M	'P1'
_symmetry_Int_Tables_number	1
_symmetry_cell_setting	triclinic
loop_
_symmetry_equiv_pos_as_xyz
  x,y,z
_cell_length_a	21.295420
_cell_length_b	21.295417
_cell_length_c	21.295411
_cell_angle_alpha	89.978356
_cell_angle_beta	90.024592
_cell_angle_gamma	89.973711
loop_
_atom_site_label
_atom_site_type_symbol
_atom_site_fract_x
_atom_site_fract_y
_atom_site_fract_z
Zn1	Zn	0.962355	0.250752	0.355912
Zn2	Zn	1.295689	0.584085	0.689245
Zn3	Zn	1.629022	0.917418	1.022579
Zn4	Zn	0.962258	0.356004	0.250637
Zn5	Zn	1.295591	0.689337	0.583971
Zn6	Zn	1.628924	1.022670	0.917304
Zn7	Zn	0.857079	0.250744	0.250657
Zn8	Zn	1.190412	0.584078	0.583990
Zn9	Zn	1.523745	0.917411	0.917324
Zn10	Zn	0.857048	0.355979	0.355869
Zn11	Zn	1.190381	0.689313	0.689202
Zn12	Zn	1.523715	1.022646	1.022536
O13	O	0.909685	0.303370	0.303269
O14	O	1.243018	0.636703	0.636602
O15	O	1.576352	0.970036	0.969935
O16	O	1.050432	0.264727	0.341957
O17	O	1.383765	0.598060	0.675290
O18	O	1.717098	0.931394	1.008623
O19	O	0.948277	0.342048	0.162550
O20	O	1.281611	0.675381	0.495884
O21	O	1.614944	1.008715	0.829217
O22	O	0.871097	0.162656	0.264645
O23	O	1.204431	0.495989	0.597979
O24	O	1.537764	0.829323	0.931312
O25	O	1.050360	0.342055	0.264612
O26	O	1.383693	0.675388	0.597945
O27	O	1.717027	1.008722	0.931279
O28	O	0.948444	0.162661	0.341976
O29	O	1.281777	0.495995	0.675309
O30	O	1.615110	0.829328	1.008642
O31	O	0.871003	0.264714	0.162565
O32	O	1.204336	0.598048	0.495898
O33	O	1.537669	0.931381	0.829232
O34	O	0.768985	0.264691	0.264604
O35	O	1.102318	0.598024	0.597937
O36	O	1.435652	0.931358	0.931270
O37	O	0.871045	0.342014	0.443964
O38	O	1.204379	0.675347	0.777297
O39	O	1.537712	1.008680	1.110631
O40	O	0.768963	0.342006	0.341903
O41	O	1.102296	0.675340	0.675236
O42	O	1.435629	1.008673	1.008569
O43	O	0.948414	0.264703	0.443996
O44	O	1.281747	0.598037	0.777329
O45	O	1.615081	0.931370	1.110662
O46	O	0.948248	0.444090	0.264570
O47	O	1.281581	0.777423	0.597904
O48	O	1.614914	1.110756	0.931237
O49	O	0.870951	0.444072	0.341884
O50	O	1.204284	0.777405	0.675217
O51	O	1.537617	1.110739	1.008550
C52	C	0.746133	0.303346	0.303251
C53	C	1.079467	0.636679	0.636584
C54	C	1.412800	0.970012	0.969918
C55	C	0.676165	0.303351	0.303258
C56	C	1.009499	0.636684	0.636592
C57	C	1.342832	0.970017	0.969925
C58	C	0.176744	0.263200	0.343617
C59	C	0.510077	0.596533	0.676950
C60	C	0.843411	0.929867	1.010284
C61	C	0.242486	0.263195	0.343617
C62	C	0.575820	0.596529	0.676950
C63	C	0.909153	0.929862	1.010284
C64	C	0.275326	0.303389	0.303283
C65	C	0.608659	0.636722	0.636617
C66	C	0.941992	0.970056	0.969950
C67	C	0.242417	0.343602	0.262958
C68	C	0.575750	0.676935	0.596292
C69	C	0.909084	1.010268	0.929625
C70	C	0.176676	0.343610	0.262964
C71	C	0.510009	0.676943	0.596297
C72	C	0.843343	1.010276	0.929631
N73	N	0.378516	0.308125	0.248164
N74	N	0.711849	0.641458	0.581497
N75	N	1.045182	0.974791	0.914830
N76	N	0.440967	0.308113	0.248160
N77	N	0.774300	0.641447	0.581493
N78	N	1.107634	0.974780	0.914827
C79	C	0.473400	0.303368	0.303265
C80	C	0.806734	0.636702	0.636598
C81	C	1.140067	0.970035	0.969932
N82	N	0.441023	0.298623	0.358375
N83	N	0.774356	0.631956	0.691708
N84	N	1.107690	0.965289	1.025041
N85	N	0.378566	0.298631	0.358377
N86	N	0.711899	0.631964	0.691711
N87	N	1.045233	0.965297	1.025044
C88	C	0.346611	0.303385	0.303273
C89	C	0.679944	0.636718	0.636606
C90	C	1.013278	0.970052	0.969940
C91	C	0.577587	0.263156	0.343591
C92	C	0.910920	0.596489	0.676924
C93	C	1.244253	0.929823	1.010257
C94	C	0.643330	0.263156	0.343592
C95	C	0.976664	0.596489	0.676925
C96	C	1.309997	0.929822	1.010258
C97	C	0.643260	0.343559	0.262927
C98	C	0.976593	0.676892	0.596261
C99	C	1.309926	1.010226	0.929594
C100	C	0.577517	0.343562	0.262932
C101	C	0.910851	0.676896	0.596265
C102	C	1.244184	1.010229	0.929598
C103	C	0.544685	0.303358	0.303263
C104	C	0.878018	0.636691	0.636596
C105	C	1.211351	0.970024	0.969929
C106	C	0.909602	0.466921	0.303234
C107	C	1.242936	0.800255	0.636567
C108	C	1.576269	1.133588	0.969901
C109	C	0.909625	0.536890	0.303240
C110	C	1.242958	0.870223	0.636573
C111	C	1.576291	1.203556	0.969907
C112	C	0.909737	0.303357	0.467459
C113	C	1.243070	0.636690	0.800792
C114	C	1.576404	0.970023	1.134126
C115	C	0.909759	0.303351	0.537427
C116	C	1.243093	0.636684	0.870761
C117	C	1.576426	0.970018	1.204094
C118	C	1.073875	0.303394	0.303287
C119	C	1.407208	0.636728	0.636620
C120	C	1.740542	0.970061	0.969954
C121	C	1.143843	0.303405	0.303295
C122	C	1.477177	0.636738	0.636628
C123	C	1.810510	0.970072	0.969961
C124	C	0.909785	0.139180	0.303318
C125	C	1.243118	0.472513	0.636651
C126	C	1.576452	0.805846	0.969984
C127	C	0.909827	0.069211	0.303338
C128	C	1.243161	0.402545	0.636672
C129	C	1.576494	0.735878	0.970005
C130	C	0.949909	0.569745	0.263024
C131	C	1.283242	0.903078	0.596358
C132	C	1.616576	1.236411	0.929691
C133	C	0.949939	0.635487	0.263038
C134	C	1.283272	0.968820	0.596372
C135	C	1.616605	1.302154	0.929705
C136	C	0.909672	0.668372	0.303262
C137	C	1.243006	1.001705	0.636595
C138	C	1.576339	1.335039	0.969928
C139	C	0.869385	0.635509	0.343485
C140	C	1.202718	0.968842	0.676819
C141	C	1.536052	1.302176	1.010152
C142	C	0.869361	0.569768	0.343474
C143	C	1.202695	0.903101	0.676808
C144	C	1.536028	1.236434	1.010141
N145	N	0.854605	0.771635	0.308055
N146	N	1.187939	1.104968	0.641388
N147	N	1.521272	1.438301	0.974721
N148	N	0.854630	0.834086	0.308061
N149	N	1.187963	1.167419	0.641395
N150	N	1.521297	1.500753	0.974728
C151	C	0.909743	0.866447	0.303298
C152	C	1.243076	1.199780	0.636631
C153	C	1.576410	1.533113	0.969965
N154	N	0.964832	0.833997	0.298515
N155	N	1.298165	1.167330	0.631849
N156	N	1.631498	1.500663	0.965182
N157	N	0.964807	0.771540	0.298505
N158	N	1.298140	1.104873	0.631839
N159	N	1.631473	1.438206	0.965172
C160	C	0.909694	0.739657	0.303278
C161	C	1.243027	1.072991	0.636612
C162	C	1.576361	1.406324	0.969945
C163	C	0.950063	0.970587	0.263095
C164	C	1.283396	1.303921	0.596429
C165	C	1.616729	1.637254	0.929762
C166	C	0.950093	1.036331	0.263114
C167	C	1.283427	1.369664	0.596447
C168	C	1.616760	1.702998	0.929781
C169	C	0.869534	1.036352	0.343557
C170	C	1.202868	1.369685	0.676891
C171	C	1.536201	1.703018	1.010224
C172	C	0.869509	0.970609	0.343542
C173	C	1.202843	1.303943	0.676876
C174	C	1.536176	1.637276	1.010209
C175	C	0.909773	0.937731	0.303308
C176	C	1.243106	1.271064	0.636641
C177	C	1.576439	1.604398	0.969974
C178	C	0.909669	0.303338	0.139717
C179	C	1.243002	0.636671	0.473051
C180	C	1.576336	0.970004	0.806384
C181	C	0.909769	0.303166	0.069749
C182	C	1.243102	0.636499	0.403083
C183	C	1.576435	0.969833	0.736416
C184	C	0.950044	0.263094	0.570311
C185	C	1.283377	0.596427	0.903645
C186	C	1.616710	0.929760	1.236978
C187	C	0.950043	0.263066	0.636054
C188	C	1.283376	0.596400	0.969387
C189	C	1.616709	0.929733	1.302721
C190	C	0.909764	0.303308	0.668910
C191	C	1.243098	0.636641	1.002243
C192	C	1.576431	0.969974	1.335576
C193	C	0.869472	0.343568	0.636018
C194	C	1.202806	0.676901	0.969351
C195	C	1.536139	1.010234	1.302684
C196	C	0.869470	0.343589	0.570276
C197	C	1.202803	0.676923	0.903610
C198	C	1.536136	1.010256	1.236943
N199	N	0.904908	0.358375	0.772125
N200	N	1.238241	0.691708	1.105459
N201	N	1.571574	1.025042	1.438792
N202	N	0.904914	0.358353	0.834577
N203	N	1.238247	0.691686	1.167910
N204	N	1.571580	1.025019	1.501243
C205	C	0.909768	0.303244	0.866985
C206	C	1.243102	0.636577	1.200318
C207	C	1.576435	0.969910	1.533651
N208	N	0.914629	0.248157	0.834582
N209	N	1.247962	0.581490	1.167915
N210	N	1.581296	0.914823	1.501249
N211	N	0.914626	0.248180	0.772125
N212	N	1.247960	0.581513	1.105458
N213	N	1.581293	0.914847	1.438791
C214	C	0.909762	0.303288	0.740195
C215	C	1.243095	0.636622	1.073529
C216	C	1.576429	0.969955	1.406862
C217	C	0.950054	0.262953	0.971154
C218	C	1.283387	0.596287	1.304488
C219	C	1.616720	0.929620	1.637821
C220	C	0.950048	0.262925	1.036898
C221	C	1.283382	0.596258	1.370231
C222	C	1.616715	0.929592	1.703565
C223	C	0.869481	0.343432	1.036861
C224	C	1.202815	0.676765	1.370194
C225	C	1.536148	1.010099	1.703527
C226	C	0.869483	0.343455	0.971118
C227	C	1.202816	0.676788	1.304452
C228	C	1.536150	1.010121	1.637785
C229	C	0.909773	0.303216	0.938269
C230	C	1.243106	0.636550	1.271602
C231	C	1.576439	0.969883	1.604936
H232	H	0.269159	0.376329	0.230120
H233	H	0.602492	0.709663	0.563453
H234	H	0.935826	1.042996	0.896787
C235	C	0.838828	1.056554	0.450124
C236	C	1.172161	1.389887	0.783458
C237	C	1.505495	1.723221	1.116791
C238	C	0.825274	1.072491	0.387775
C239	C	1.158607	1.405824	0.721108
C240	C	1.491941	1.739157	1.054442
H241	H	0.811506	1.078870	0.477424
H242	H	1.144839	1.412203	0.810757
H243	H	1.478173	1.745537	1.144090
H244	H	0.833045	1.012704	0.455867
H245	H	1.166378	1.346037	0.789200
H246	H	1.499712	1.679370	1.122533
H247	H	0.881124	1.067291	0.459369
H248	H	1.214458	1.400624	0.792702
H249	H	1.547791	1.733957	1.126036
H250	H	0.782979	1.061750	0.378529
H251	H	1.116312	1.395083	0.711862
H252	H	1.449646	1.728416	1.045195
H253	H	0.831052	1.116351	0.382030
H254	H	1.164385	1.449684	0.715363
H255	H	1.497719	1.783018	1.048696
H256	H	0.836703	0.943857	0.376287
H257	H	1.170037	1.277190	0.709620
H258	H	1.503370	1.610524	1.042954
H259	H	0.982695	0.542977	0.230265
H260	H	1.316029	0.876310	0.563598
H261	H	1.649362	1.209644	0.896931
H262	H	0.550853	0.230419	0.376430
H263	H	0.884186	0.563752	0.709764
H264	H	1.217520	0.897086	1.043097
C265	C	1.029679	0.183514	0.576957
C266	C	1.363013	0.516847	0.910290
C267	C	1.696346	0.850180	1.243624
C268	C	0.994323	0.218857	0.534204
C269	C	1.327656	0.552191	0.867538
C270	C	1.660989	0.885524	1.200871
H271	H	1.057011	0.156201	0.554663
H272	H	1.390344	0.489534	0.887997
H273	H	1.723678	0.822868	1.221330
H274	H	1.053742	0.210937	0.602603
H275	H	1.387075	0.544270	0.935936
H276	H	1.720409	0.877603	1.269269
H277	H	1.002261	0.159426	0.602592
H278	H	1.335595	0.492759	0.935925
H279	H	1.668928	0.826092	1.269259
H280	H	1.021740	0.242949	0.508572
H281	H	1.355074	0.576282	0.841906
H282	H	1.688407	0.909616	1.175239
H283	H	0.970258	0.191431	0.508548
H284	H	1.303591	0.524764	0.841881
H285	H	1.636925	0.858098	1.175214
H286	H	0.982856	0.230185	0.944407
H287	H	1.316190	0.563519	1.277740
H288	H	1.649523	0.896852	1.611074
H289	H	0.670117	0.230418	0.376431
H290	H	1.003450	0.563751	0.709765
H291	H	1.336784	0.897085	1.043098
C292	C	1.029552	0.628870	0.183509
C293	C	1.362885	0.962203	0.516842
C294	C	1.696218	1.295537	0.850175
C295	C	0.994218	0.671612	0.218826
C296	C	1.327551	1.004945	0.552159
C297	C	1.660884	1.338278	0.885492
H298	H	1.056883	0.651172	0.156211
H299	H	1.390217	0.984505	0.489544
H300	H	1.723550	1.317838	0.822878
H301	H	1.053613	0.603198	0.210949
H302	H	1.386947	0.936531	0.544283
H303	H	1.720280	1.269864	0.877616
H304	H	1.002119	0.603260	0.159406
H305	H	1.335453	0.936594	0.492739
H306	H	1.668786	1.269927	0.826073
H307	H	1.021650	0.697218	0.242932
H308	H	1.354983	1.030552	0.576266
H309	H	1.688317	1.363885	0.909599
H310	H	0.970154	0.697295	0.191382
H311	H	1.303488	1.030628	0.524715
H312	H	1.636821	1.363961	0.858048
C313	C	0.833646	0.736296	0.379212
C314	C	1.166980	1.069629	0.712546
C315	C	1.500313	1.402963	1.045879
C316	C	0.825122	0.671654	0.387698
C317	C	1.158455	1.004987	0.721031
C318	C	1.491788	1.338320	1.054365
H319	H	0.806317	0.758608	0.406508
H320	H	1.139651	1.091942	0.739841
H321	H	1.472984	1.425275	1.073174
H322	H	0.875936	0.747028	0.388467
H323	H	1.209269	1.080361	0.721800
H324	H	1.542602	1.413695	1.055133
H325	H	0.824457	0.747092	0.336908
H326	H	1.157790	1.080425	0.670242
H327	H	1.491123	1.413759	1.003575
H328	H	0.834316	0.660857	0.430001
H329	H	1.167649	0.994190	0.763335
H330	H	1.500983	1.327524	1.096668
H331	H	0.782823	0.660917	0.378448
H332	H	1.116156	0.994251	0.711781
H333	H	1.449490	1.327584	1.045115
H334	H	0.550729	0.376299	0.230094
H335	H	0.884063	0.709632	0.563428
H336	H	1.217396	1.042966	0.896761
C337	C	0.958856	0.178372	0.710000
C338	C	1.292189	0.511706	1.043334
C339	C	1.625522	0.845039	1.376667
C340	C	0.994329	0.218816	0.672211
C341	C	1.327663	0.552149	1.005544
C342	C	1.660996	0.885483	1.338877
H343	H	0.986198	0.151053	0.732317
H344	H	1.319531	0.484387	1.065651
H345	H	1.652865	0.817720	1.398984
H346	H	0.934869	0.202334	0.738969
H347	H	1.268202	0.535667	1.072303
H348	H	1.601535	0.869001	1.405636
H349	H	0.931449	0.154293	0.684339
H350	H	1.264783	0.487626	1.017673
H351	H	1.598116	0.820960	1.351006
H352	H	1.021733	0.242899	0.697872
H353	H	1.355066	0.576232	1.031206
H354	H	1.688399	0.909566	1.364539
H355	H	1.018327	0.194852	0.643238
H356	H	1.351660	0.528185	0.976572
H357	H	1.684994	0.861518	1.309905
C358	C	0.833713	0.379289	0.736779
C359	C	1.167046	0.712622	1.070112
C360	C	1.500380	1.045956	1.403446
C361	C	0.825201	0.387805	0.672131
C362	C	1.158534	0.721138	1.005464
C363	C	1.491867	1.054472	1.338797
H364	H	0.806382	0.406603	0.759072
H365	H	1.139715	0.739936	1.092405
H366	H	1.473048	1.073269	1.425738
H367	H	0.824524	0.336995	0.747550
H368	H	1.157858	0.670328	1.080883
H369	H	1.491191	1.003661	1.414217
H370	H	0.876006	0.388505	0.747560
H371	H	1.209339	0.721838	1.080893
H372	H	1.542672	1.055171	1.414227
H373	H	0.782909	0.378585	0.661349
H374	H	1.116242	0.711918	0.994682
H375	H	1.449575	1.045251	1.328016
H376	H	0.834385	0.430109	0.661355
H377	H	1.167718	0.763442	0.994689
H378	H	1.501052	1.096776	1.328022
H379	H	0.836683	0.376240	0.944344
H380	H	1.170016	0.709574	1.277677
H381	H	1.503350	1.042907	1.611010
H382	H	0.982902	1.063080	0.230367
H383	H	1.316235	1.396414	0.563700
H384	H	1.649568	1.729747	0.897033
H385	H	0.836663	0.376371	0.543503
H386	H	1.169996	0.709704	0.876836
H387	H	1.503329	1.043037	1.210169
C388	C	0.789736	0.576393	0.422990
C389	C	1.123069	0.909726	0.756324
C390	C	1.456403	1.243060	1.089657
C391	C	0.825074	0.533650	0.387679
C392	C	1.158407	0.866983	0.721012
C393	C	1.491740	1.200316	1.054346
H394	H	0.762392	0.554093	0.450277
H395	H	1.095725	0.887426	0.783610
H396	H	1.429058	1.220760	1.116943
H397	H	0.817161	0.601995	0.447099
H398	H	1.150494	0.935328	0.780432
H399	H	1.483827	1.268662	1.113766
H400	H	0.765682	0.602073	0.395541
H401	H	1.099015	0.935406	0.728874
H402	H	1.432349	1.268740	1.062207
H403	H	0.849131	0.507973	0.415129
H404	H	1.182465	0.841306	0.748462
H405	H	1.515798	1.174639	1.081795
H406	H	0.797645	0.508037	0.363569
H407	H	1.130979	0.841370	0.696902
H408	H	1.464312	1.174703	1.030235
C409	C	0.183211	0.423083	0.183231
C410	C	0.516544	0.756416	0.516564
C411	C	0.849878	1.089749	0.849897
C412	C	0.140507	0.387802	0.218634
C413	C	0.473841	0.721135	0.551967
C414	C	0.807174	1.054468	0.885301
H415	H	0.160880	0.450361	0.155860
H416	H	0.494213	0.783694	0.489193
H417	H	0.827546	1.117028	0.822527
H418	H	0.208854	0.447198	0.210612
H419	H	0.542187	0.780532	0.543945
H420	H	0.875521	1.113865	0.877279
H421	H	0.208853	0.395613	0.159202
H422	H	0.542187	0.728947	0.492535
H423	H	0.875520	1.062280	0.825868
H424	H	0.114868	0.415271	0.242667
H425	H	0.448201	0.748604	0.576000
H426	H	0.781535	1.081938	0.909333
H427	H	0.114853	0.363684	0.191249
H428	H	0.448187	0.697017	0.524582
H429	H	0.781520	1.030351	0.857916
C430	C	0.744001	0.379247	0.227102
C431	C	1.077335	0.712580	0.560435
C432	C	1.410668	1.045914	0.893769
C433	C	0.679349	0.387742	0.218592
C434	C	1.012683	0.721076	0.551925
C435	C	1.346016	1.054409	0.885259
H436	H	0.766282	0.406524	0.199729
H437	H	1.099616	0.739858	0.533062
H438	H	1.432949	1.073191	0.866395
H439	H	0.754789	0.388519	0.269375
H440	H	1.088122	0.721853	0.602708
H441	H	1.421455	1.055186	0.936042
H442	H	0.754780	0.336936	0.217963
H443	H	1.088113	0.670269	0.551296
H444	H	1.421447	1.003603	0.884629
H445	H	0.668570	0.430052	0.227736
H446	H	1.001903	0.763386	0.561069
H447	H	1.335236	1.096719	0.894402
H448	H	0.668558	0.378474	0.176309
H449	H	1.001891	0.711807	0.509643
H450	H	1.335224	1.045141	0.842976
H451	H	0.982850	0.943817	0.230336
H452	H	1.316183	1.277150	0.563669
H453	H	1.649516	1.610483	0.897003
H454	H	0.982852	0.230139	1.063671
H455	H	1.316185	0.563472	1.397005
H456	H	1.649518	0.896806	1.730338
H457	H	0.836679	0.376191	1.063611
H458	H	1.170013	0.709524	1.396945
H459	H	1.503346	1.042857	1.730278
C460	C	0.235959	0.183712	0.423342
C461	C	0.569293	0.517045	0.756675
C462	C	0.902626	0.850379	1.090009
C463	C	0.278661	0.218998	0.387941
C464	C	0.611994	0.552331	0.721274
C465	C	0.945328	0.885664	1.054608
H466	H	0.258292	0.156425	0.450702
H467	H	0.591625	0.489758	0.784036
H468	H	0.924959	0.823091	1.117369
H469	H	0.210323	0.211173	0.447376
H470	H	0.543656	0.544507	0.780709
H471	H	0.876990	0.877840	1.114043
H472	H	0.210310	0.159600	0.395954
H473	H	0.543643	0.492933	0.729287
H474	H	0.876977	0.826266	1.062620
H475	H	0.304308	0.243114	0.415329
H476	H	0.637641	0.576447	0.748662
H477	H	0.970974	0.909780	1.081996
H478	H	0.304308	0.191533	0.363905
H479	H	0.637641	0.524866	0.697238
H480	H	0.970975	0.858200	1.030572
H481	H	0.150016	0.230465	0.376460
H482	H	0.483349	0.563798	0.709794
H483	H	0.816682	0.897131	1.043127
