data_functionalizedCrystal
_audit_creation_method	'MofGen! by Chris Wilmer'
_symmetry_space_group_name_H-M	'P1'
_symmetry_Int_Tables_number	1
_symmetry_cell_setting	triclinic
loop_
_symmetry_equiv_pos_as_xyz
  x,y,z
_cell_length_a	9.065215
_cell_length_b	12.784905
_cell_length_c	8.140239
_cell_angle_alpha	89.996744
_cell_angle_beta	89.997429
_cell_angle_gamma	79.061008
loop_
_atom_site_label
_atom_site_type_symbol
_atom_site_fract_x
_atom_site_fract_y
_atom_site_fract_z
O1	O	0.009230	1.410401	-0.136623
O2	O	0.342563	1.743734	0.196711
O3	O	0.675896	2.077068	0.530044
O4	O	0.072332	1.101553	-0.136623
O5	O	0.405666	1.434887	0.196710
O6	O	0.738999	1.768220	0.530044
O7	O	-0.174799	1.262363	-0.136616
O8	O	0.158534	1.595696	0.196717
O9	O	0.491867	1.929029	0.530051
O10	O	0.256361	1.249592	-0.136630
O11	O	0.589695	1.582925	0.196703
O12	O	0.923028	1.916258	0.530037
O13	O	-0.174801	1.262354	0.136611
O14	O	0.158533	1.595687	0.469945
O15	O	0.491866	1.929020	0.803278
O16	O	0.072331	1.101544	0.136604
O17	O	0.405664	1.434878	0.469937
O18	O	0.738998	1.768211	0.803271
O19	O	0.009228	1.410392	0.136604
O20	O	0.342562	1.743725	0.469938
O21	O	0.675895	2.077059	0.803271
Zn22	Zn	0.040779	1.255967	0.179985
Zn23	Zn	0.374113	1.589300	0.513318
Zn24	Zn	0.707446	1.922633	0.846652
Zn25	Zn	0.040781	1.255979	-0.180004
Zn26	Zn	0.374115	1.589312	0.153330
Zn27	Zn	0.707448	1.922645	0.486663
O28	O	0.256360	1.249583	0.136597
O29	O	0.589693	1.582916	0.469931
O30	O	0.923027	1.916249	0.803264
C31	C	0.076436	1.061989	-0.000009
C32	C	0.409769	1.395322	0.333324
C33	C	0.743102	1.728655	0.666657
C34	C	0.088647	0.944113	-0.000009
C35	C	0.421980	1.277446	0.333324
C36	C	0.755313	1.610779	0.666657
C37	C	-0.160139	0.745335	-0.000031
C38	C	0.173194	1.078669	0.333303
C39	C	0.506527	1.412002	0.666636
C40	C	-0.148673	0.634581	-0.000031
C41	C	0.184660	0.967914	0.333303
C42	C	0.517994	1.301247	0.666636
C43	C	0.123044	0.611847	-0.000021
C44	C	0.456378	0.945180	0.333312
C45	C	0.789711	1.278513	0.666645
C46	C	0.111578	0.722601	-0.000021
C47	C	0.444911	1.055935	0.333312
C48	C	0.778245	1.389268	0.666645
C49	C	-0.030019	0.789342	-0.000023
C50	C	0.303315	1.122675	0.333310
C51	C	0.636648	1.456009	0.666643
C52	C	-0.041484	0.900099	-0.000012
C53	C	0.291850	1.233432	0.333322
C54	C	0.625183	1.566765	0.666655
C55	C	0.230232	0.877363	-0.000014
C56	C	0.563566	1.210696	0.333319
C57	C	0.896899	1.544030	0.666653
C58	C	0.241699	0.766608	-0.000014
C59	C	0.575032	1.099942	0.333319
C60	C	0.908365	1.433275	0.666652
C61	C	-0.229607	1.261131	-0.000004
C62	C	0.103727	1.594465	0.333329
C63	C	0.437060	1.927798	0.666663
C64	C	-0.392911	1.257464	-0.000009
C65	C	-0.059578	1.590797	0.333324
C66	C	0.273756	1.924130	0.666658
C67	C	0.311167	1.250814	-0.000018
C68	C	0.644501	1.584147	0.333315
C69	C	0.977834	1.917481	0.666648
C70	C	0.474472	1.254482	-0.000024
C71	C	0.807805	1.587815	0.333309
C72	C	1.141138	1.921148	0.666643
C73	C	0.005125	1.449957	-0.000013
C74	C	0.338458	1.783290	0.333320
C75	C	0.671792	2.116623	0.666654
C76	C	-0.007086	1.567833	-0.000024
C77	C	0.326247	1.901166	0.333310
C78	C	0.659581	2.234499	0.666643
N79	N	0.040776	1.255966	0.425667
N80	N	0.374110	1.589300	0.759001
N81	N	0.707443	1.922633	1.092334
N82	N	0.040772	1.255987	-0.425686
N83	N	0.374105	1.589321	-0.092353
N84	N	0.707438	1.922654	0.240981
H85	H	-0.156779	0.954438	-0.000011
H86	H	0.176554	1.287771	0.333323
H87	H	0.509888	1.621105	0.666656
H88	H	0.238325	0.557488	-0.000041
H89	H	0.571658	0.890821	0.333292
H90	H	0.904992	1.224154	0.666625
H91	H	0.336187	0.913204	0.000000
H92	H	0.669520	1.246537	0.333333
H93	H	1.002853	1.579871	0.666667
H94	H	-0.275433	0.799677	-0.000021
H95	H	0.057900	1.133010	0.333312
H96	H	0.391234	1.466344	0.666645
H97	H	-0.254631	0.598755	-0.000040
H98	H	0.078702	0.932089	0.333294
H99	H	0.412036	1.265422	0.666627
H100	H	0.356982	0.712253	-0.000019
H101	H	0.690316	1.045586	0.333314
H102	H	1.023649	1.378920	0.666647
