data_functionalizedCrystal
_audit_creation_method	'MofGen! by Chris Wilmer'
_symmetry_space_group_name_H-M	'P1'
_symmetry_Int_Tables_number	1
_symmetry_cell_setting	triclinic
loop_
_symmetry_equiv_pos_as_xyz
  x,y,z
_cell_length_a	15.944551
_cell_length_b	15.944551
_cell_length_c	9.616153
_cell_angle_alpha	90.003212
_cell_angle_beta	90.002375
_cell_angle_gamma	83.498738
loop_
_atom_site_label
_atom_site_type_symbol
_atom_site_fract_x
_atom_site_fract_y
_atom_site_fract_z
O1	O	-1.114527	-0.108329	-0.115504
O2	O	-0.869978	-0.121685	-0.115539
O3	O	-0.998931	0.007268	-0.115508
O4	O	-0.985574	-0.237282	-0.115535
O5	O	-0.998913	0.007265	0.115784
O6	O	-0.869960	-0.121688	0.115753
O7	O	-1.114510	-0.108331	0.115788
Zn8	Zn	-0.992232	-0.115010	0.152493
Zn9	Zn	-0.992255	-0.115006	-0.152244
O10	O	-0.985557	-0.237284	0.115757
C11	C	-0.838675	-0.121132	0.000103
C12	C	-0.745429	-0.119470	0.000090
C13	C	-1.145813	-0.108885	0.000143
C14	C	-1.239059	-0.110547	0.000147
C15	C	-0.998367	0.038561	0.000138
C16	C	-0.996705	0.131807	0.000139
C17	C	-0.530572	-0.035565	0.000126
C18	C	-0.469561	-0.074526	-0.113917
C19	C	-0.574703	-0.116462	0.000107
C20	C	-0.469566	-0.074548	0.114118
C21	C	-0.409790	-0.113551	0.000129
C22	C	-0.514920	-0.155445	-0.114031
C23	C	-0.514931	-0.155456	0.114107
C24	C	-0.453937	-0.194476	0.000036
C25	C	-0.669705	-0.118137	0.000093
C26	C	-0.314789	-0.111883	0.000133
C27	C	-0.986120	-0.268577	0.000108
C28	C	-0.987782	-0.361823	0.000098
C29	C	-0.912801	0.346663	0.000108
C30	C	-0.951754	0.407679	0.114154
C31	C	-0.993698	0.302533	0.000128
C32	C	-0.951791	0.407665	-0.113881
C33	C	-0.990787	0.467445	0.000111
C34	C	-1.032674	0.362320	0.114268
C35	C	-1.032699	0.362300	-0.113870
C36	C	-1.071711	0.423298	0.000205
C37	C	-0.995372	0.207530	0.000139
C38	C	-0.989119	0.562446	0.000110
N39	N	-0.992222	-0.115012	0.360467
N40	N	-0.992272	-0.114998	-0.360218
C41	C	-0.923034	-0.183766	0.580821
C42	C	-0.923183	-0.184020	0.419653
C43	C	-1.079869	-0.134161	0.418927
C44	C	-1.079491	-0.134647	0.580145
C45	C	-0.974640	-0.026878	0.580385
C46	C	-0.972619	-0.027469	0.419158
H47	H	-0.563905	0.031573	-0.000008
O48	O	-1.100072	-0.219769	0.629943
H49	H	-1.051950	-0.269728	0.590053
H50	H	-1.095771	-0.197695	0.378532
H51	H	-0.917531	0.427786	0.210561
O52	O	-1.078026	0.335630	-0.241542
H53	H	-1.034615	0.290652	-0.303152
H54	H	-0.917571	0.427743	-0.210305
H55	H	-0.858034	-0.172610	0.380130
O56	O	-1.160729	0.467235	0.000294
H57	H	-1.194089	0.449080	0.095052
O58	O	-1.149789	-0.070831	0.631812
H59	H	-1.150044	-0.070698	0.747236
H60	H	-0.857680	-0.172542	0.619624
H61	H	-0.449458	-0.040309	-0.210325
H62	H	-0.912122	-0.008465	0.621116
O63	O	-0.823861	0.302531	0.000235
H64	H	-0.790474	0.320578	0.095042
H65	H	-0.934138	-0.248789	0.621314
H66	H	-0.449472	-0.040318	0.210529
O67	O	-1.035070	0.043495	0.365800
H68	H	-1.019414	0.104326	0.409194
H69	H	-0.534915	-0.189635	-0.210551
H70	H	-1.066854	0.342329	0.210791
O71	O	-0.938095	-0.270636	0.368522
H72	H	-0.945237	-0.312503	0.458947
O73	O	-1.149748	-0.069589	0.368150
H74	H	-1.122685	-0.023055	0.300540
H75	H	-0.908146	-0.012937	0.380951
O76	O	-1.041510	0.040917	0.630898
H77	H	-1.087087	0.012047	0.697981
O78	O	-0.410011	-0.283497	-0.000054
H79	H	-0.370371	-0.293655	0.094658
H80	H	-0.535055	-0.189645	0.210520
