data_functionalizedCrystal
_audit_creation_method	'MofGen! by Chris Wilmer'
_symmetry_space_group_name_H-M	'P1'
_symmetry_Int_Tables_number	1
_symmetry_cell_setting	triclinic
loop_
_symmetry_equiv_pos_as_xyz
  x,y,z
_cell_length_a	18.215407
_cell_length_b	12.759400
_cell_length_c	18.215384
_cell_angle_alpha	90.093053
_cell_angle_beta	89.937603
_cell_angle_gamma	89.977245
loop_
_atom_site_label
_atom_site_type_symbol
_atom_site_fract_x
_atom_site_fract_y
_atom_site_fract_z
Zn1	Zn	1.125394	0.417557	-0.416133
Zn2	Zn	1.625394	0.917557	0.083867
Zn3	Zn	1.125217	0.593463	-0.293073
Zn4	Zn	1.625217	1.093463	0.206927
Zn5	Zn	1.002236	0.417800	-0.293080
Zn6	Zn	1.502236	0.917800	0.206920
Zn7	Zn	1.002298	0.593196	-0.416098
Zn8	Zn	1.502298	1.093196	0.083902
O9	O	1.063786	0.505504	-0.354596
O10	O	1.563786	1.005504	0.145404
O11	O	1.228355	0.440901	-0.399820
O12	O	1.728355	0.940901	0.100180
O13	O	1.108803	0.570375	-0.190089
O14	O	1.608803	1.070375	0.309911
O15	O	1.018621	0.270747	-0.309421
O16	O	1.518621	0.770747	0.190579
O17	O	1.228225	0.570139	-0.309409
O18	O	1.728225	1.070139	0.190591
O19	O	1.109105	0.270568	-0.399827
O20	O	1.609105	0.770568	0.100173
O21	O	1.018449	0.441317	-0.190094
O22	O	1.518449	0.941317	0.309906
O23	O	0.899260	0.441057	-0.309387
O24	O	1.399260	0.941057	0.190613
O25	O	1.018728	0.569683	-0.519087
O26	O	1.518728	1.069683	-0.019087
O27	O	0.899306	0.569919	-0.399768
O28	O	1.399306	1.069919	0.100232
O29	O	1.109166	0.440642	-0.519113
O30	O	1.609166	0.940642	-0.019113
O31	O	1.108864	0.740449	-0.309375
O32	O	1.608864	1.240449	0.190625
O33	O	1.018556	0.740252	-0.399761
O34	O	1.518556	1.240252	0.100239
C35	C	0.872580	0.505486	-0.354575
C36	C	1.372580	1.005486	0.145425
C37	C	0.790781	0.505504	-0.354583
C38	C	1.290781	1.005504	0.145417
C39	C	1.063717	0.778472	-0.354580
C40	C	1.563717	1.278472	0.145420
C41	C	1.063755	0.895248	-0.354597
C42	C	1.563755	1.395248	0.145403
C43	C	1.063974	0.505105	-0.546550
C44	C	1.563974	1.005105	-0.046550
C45	C	1.064054	0.504935	-0.628349
C46	C	1.564054	1.004935	-0.128349
C47	C	0.602631	0.572708	-0.401586
C48	C	1.102631	1.072708	0.098414
C49	C	0.525772	0.572711	-0.401595
C50	C	1.025772	1.072711	0.098405
C51	C	0.525694	0.438319	-0.307622
C52	C	1.025694	0.938319	0.192378
C53	C	0.602552	0.438311	-0.307618
C54	C	1.102552	0.938311	0.192382
C55	C	0.641018	0.505512	-0.354598
C56	C	1.141018	1.005512	0.145402
C57	C	0.487302	0.505523	-0.354612
C58	C	0.987302	1.005523	0.145388
C59	C	0.403968	0.505526	-0.354622
C60	C	0.903968	1.005526	0.145378
C61	C	0.724357	0.505508	-0.354590
C62	C	1.224357	1.005508	0.145410
C63	C	1.255739	0.505523	-0.354618
C64	C	1.755739	1.005523	0.145382
C65	C	1.337538	0.505531	-0.354627
C66	C	1.837538	1.005531	0.145373
C67	C	1.110869	1.059664	-0.401725
C68	C	1.610869	1.559664	0.098275
C69	C	1.110843	0.949940	-0.401710
C70	C	1.610843	1.449940	0.098290
C71	C	1.016696	0.950286	-0.307491
C72	C	1.516696	1.450286	0.192509
C73	C	1.016727	1.060008	-0.307503
C74	C	1.516727	1.560008	0.192497
C75	C	1.063850	1.231471	-0.354624
C76	C	1.563850	1.731471	0.145376
C77	C	1.063813	1.114694	-0.354624
C78	C	1.563813	1.614694	0.145376
C79	C	1.063642	0.505826	-0.163389
C80	C	1.563642	1.005826	0.336611
C81	C	1.063705	0.505700	-0.081591
C82	C	1.563705	1.005700	0.418409
C83	C	1.017105	0.573050	0.106818
C84	C	1.517105	1.073050	0.606818
C85	C	1.017163	0.572920	0.183677
C86	C	1.517163	1.072920	0.683677
C87	C	1.110655	0.437577	0.183237
C88	C	1.610655	0.937577	0.683237
C89	C	1.110593	0.437704	0.106380
C90	C	1.610593	0.937704	0.606380
C91	C	1.063820	0.505446	0.068172
C92	C	1.563820	1.005446	0.568172
C93	C	1.063939	0.505189	0.221888
C94	C	1.563939	1.005189	0.721888
C95	C	1.064001	0.505046	0.305222
C96	C	1.564001	1.005046	0.805222
C97	C	1.063756	0.505588	-0.015166
C98	C	1.563756	1.005588	0.484834
H99	H	0.633947	0.627424	-0.439842
H100	H	1.133947	1.127424	0.060158
C101	C	0.964900	0.890128	-0.255669
C102	C	1.464900	1.390128	0.244331
H103	H	0.971614	0.816900	-0.262412
H104	H	1.471614	1.316900	0.237588
H105	H	0.975664	0.908220	-0.206233
H106	H	1.475664	1.408220	0.293767
H107	H	0.915458	0.908143	-0.266403
H108	H	1.415458	1.408143	0.233597
H109	H	1.148634	0.382646	0.074913
H110	H	1.648634	0.882646	0.574913
C111	C	0.644780	0.364393	-0.255928
C112	C	1.144780	0.864393	0.244072
H113	H	0.610865	0.324383	-0.227941
H114	H	1.110865	0.824383	0.272059
H115	H	0.674806	0.318618	-0.284132
H116	H	1.174806	0.818618	0.215868
H117	H	0.674716	0.404586	-0.223811
H118	H	1.174716	0.904586	0.276189
C119	C	0.483545	0.646627	-0.453279
C120	C	0.983545	1.146627	0.046721
H121	H	0.432262	0.637002	-0.446561
H122	H	0.932262	1.137002	0.053439
H123	H	0.496111	0.717215	-0.442424
H124	H	0.996111	1.217215	0.057576
H125	H	0.496205	0.631247	-0.502745
H126	H	0.996205	1.131247	-0.002745
H127	H	0.979121	0.627967	0.215139
H128	H	1.479121	1.127967	0.715139
H129	H	0.978407	1.104815	-0.269143
H130	H	1.478407	1.604815	0.230857
H131	H	0.494366	0.383609	-0.269372
H132	H	0.994366	0.883609	0.230628
C133	C	0.965650	0.647554	0.064793
C134	C	1.465650	1.147554	0.564793
H135	H	0.937833	0.687791	0.098820
H136	H	1.437833	1.187791	0.598820
H137	H	0.993990	0.693094	0.034844
H138	H	1.493990	1.193094	0.534844
H139	H	0.933369	0.607734	0.034796
H140	H	1.433369	1.107734	0.534796
H141	H	1.149206	1.104186	-0.440097
H142	H	1.649206	1.604186	0.059903
H143	H	1.149161	0.905137	-0.440064
H144	H	1.649161	1.405137	0.059936
C145	C	1.162109	0.363077	0.225267
C146	C	1.662109	0.863077	0.725267
H147	H	1.155462	0.372691	0.276576
H148	H	1.655462	0.872691	0.776576
H149	H	1.150998	0.292617	0.212558
H150	H	1.650998	0.792617	0.712558
H151	H	1.211619	0.377979	0.212604
H152	H	1.711619	0.877979	0.712604
