data_functionalizedCrystal
_audit_creation_method	'MofGen! by Chris Wilmer'
_symmetry_space_group_name_H-M	'P1'
_symmetry_Int_Tables_number	1
_symmetry_cell_setting	triclinic
loop_
_symmetry_equiv_pos_as_xyz
  x,y,z
_cell_length_a	15.297475
_cell_length_b	15.297327
_cell_length_c	15.296720
_cell_angle_alpha	107.319222
_cell_angle_beta	88.382886
_cell_angle_gamma	88.374454
loop_
_atom_site_label
_atom_site_type_symbol
_atom_site_fract_x
_atom_site_fract_y
_atom_site_fract_z
Zn1	Zn	1.116342	0.695081	0.823122
Zn2	Zn	1.116246	0.823682	0.694497
Zn3	Zn	1.005113	0.644908	0.644396
Zn4	Zn	0.946204	0.814903	0.814406
O5	O	1.045976	0.744644	0.744105
O6	O	1.234042	0.736812	0.830675
O7	O	1.126118	0.782644	0.562870
O8	O	1.044561	0.526600	0.650785
O9	O	1.233972	0.831295	0.736174
O10	O	1.126281	0.563461	0.782095
O11	O	1.044469	0.651299	0.526062
O12	O	0.879585	0.642787	0.642333
O13	O	0.944159	0.816332	0.940543
O14	O	0.836305	0.767682	0.767239
O15	O	1.069159	0.728299	0.946946
O16	O	1.068996	0.947482	0.727722
O17	O	0.944066	0.941032	0.815819
C18	C	0.827423	0.698838	0.698404
C19	C	0.733917	0.679267	0.678877
C20	C	1.000147	0.976666	0.776286
C21	C	0.980613	1.075946	0.790099
C22	C	0.380296	0.884531	0.883671
C23	C	0.468149	0.902925	0.902016
C24	C	0.534595	0.847012	0.846233
C25	C	0.513180	0.772701	0.772102
C26	C	0.425318	0.754309	0.753750
C27	C	0.579617	0.716791	0.716312
C28	C	0.558202	0.642480	0.642181
C29	C	0.470348	0.624091	0.623833
C30	C	0.403902	0.680004	0.679616
C31	C	0.667479	0.735183	0.734664
C32	C	0.712501	0.604961	0.604743
C33	C	0.624648	0.586567	0.586398
C34	C	1.000098	0.776933	0.977057
C35	C	0.980548	0.790693	1.076327
C36	C	1.265382	0.790629	0.789986
C37	C	1.358880	0.810225	0.809537
C38	C	1.092003	0.511723	0.711823
C39	C	1.111617	0.412466	0.698067
C40	C	1.185880	1.369169	0.645759
C41	C	1.204235	1.275889	0.632777
C42	C	1.148331	1.225899	0.672106
C43	C	1.074069	1.269198	0.724420
C44	C	1.055710	1.362485	0.737398
C45	C	1.018160	1.219215	0.763745
C46	C	0.943898	1.262513	0.816059
C47	C	0.925542	1.355791	0.829035
C48	C	0.981446	1.405781	0.789706
C49	C	1.036520	1.125928	0.750767
C50	C	0.906349	1.119243	0.842406
C51	C	0.887995	1.212523	0.855389
C52	C	1.091736	0.712426	0.512061
C53	C	1.111499	0.698449	0.412791
C54	C	1.185768	0.646151	1.369491
C55	C	1.204141	0.633225	1.276224
C56	C	1.148244	0.672591	1.226245
C57	C	1.073971	0.724884	1.269543
C58	C	1.055600	0.737817	1.362821
C59	C	1.018076	0.764257	1.219575
C60	C	0.943803	0.816551	1.262873
C61	C	0.925434	0.829480	1.356142
C62	C	0.981331	0.790115	1.406121
C63	C	1.036448	0.751324	1.126296
C64	C	0.906280	0.842991	1.119626
C65	C	0.887906	0.855916	1.212894
H66	H	0.606128	0.861993	0.861175
H67	H	0.684906	0.795687	0.795023
H68	H	1.231275	0.614111	1.410194
H69	H	0.485578	0.963431	0.962373
H70	H	1.096984	1.090683	0.708172
O71	O	0.851848	0.881180	1.071155
C72	C	0.705830	0.890541	1.018652
C73	C	0.767365	0.847241	1.073595
H74	H	0.637517	0.863104	1.020590
H75	H	0.702687	0.968188	1.050062
H76	H	0.731755	0.872339	0.944565
H77	H	0.741486	0.865372	1.147690
H78	H	0.770504	0.769603	1.042111
H79	H	0.326190	0.930052	0.929077
H80	H	1.096921	0.708746	1.091052
O81	O	0.603797	0.514494	0.514298
C82	C	0.530680	0.464812	0.371355
C83	C	0.554250	0.546515	0.452943
H84	H	0.490603	0.490669	0.321737
H85	H	0.593229	0.428004	0.334561
H86	H	0.490708	0.415260	0.397405
H87	H	0.594200	0.596131	0.426969
H88	H	0.491668	0.583252	0.489721
H89	H	0.865066	1.391038	0.871621
O90	O	1.240086	1.417863	0.607624
C91	C	1.269406	1.564502	0.586883
C92	C	1.207964	1.509476	0.630166
H93	H	1.243448	1.638578	0.605076
H94	H	1.337768	1.562582	0.614225
H95	H	1.272458	1.533058	0.509238
H96	H	1.204837	1.540880	0.707812
H97	H	1.139633	1.511394	0.602752
H98	H	0.864962	0.872070	1.391395
O99	O	0.963668	1.496433	0.802479
C100	C	0.941982	1.646619	0.911257
C101	C	0.962134	1.543982	0.896919
H102	H	0.940717	1.685089	0.987609
H103	H	0.994709	1.674965	0.874231
H104	H	0.875533	1.655773	0.882537
H105	H	1.028558	1.534748	0.925643
H106	H	0.909354	1.515684	0.933926
H107	H	0.332363	0.665029	0.664685
O108	O	1.166194	0.659908	1.135641
C109	C	1.264006	0.591098	1.005464
C110	C	1.243770	0.605379	1.108078
H111	H	1.326736	0.547028	0.983152
H112	H	1.207560	0.555344	0.963902
H113	H	1.272732	0.660417	0.993386
H114	H	1.235062	0.536100	1.120242
H115	H	1.300226	0.641177	1.149587
O116	O	1.276208	0.582278	1.234180
C117	C	1.352688	0.434988	1.193217
C118	C	1.271016	0.492587	1.240837
H119	H	1.348526	0.362467	1.198599
H120	H	1.356248	0.432414	1.117943
H121	H	1.413791	0.467470	1.227915
H122	H	1.209868	0.460149	1.206214
H123	H	1.267534	0.495162	1.316112
O124	O	1.276275	1.233757	0.581839
C125	C	1.332149	1.114123	0.449032
C126	C	1.250484	1.161767	0.506625
H127	H	1.311328	1.055897	0.388219
H128	H	1.368957	1.165824	0.423080
H129	H	1.376634	1.085339	0.493205
H130	H	1.205935	1.190551	0.462510
H131	H	1.213744	1.110031	0.532585
O132	O	1.166041	1.135249	0.659389
C133	C	1.116252	0.981385	0.600955
C134	C	1.096087	1.084018	0.615282
H135	H	1.059699	0.939937	0.565312
H136	H	1.178896	0.958964	0.556764
H137	H	1.125067	0.969282	0.670253
H138	H	1.087228	1.096198	0.546028
H139	H	1.033462	1.106389	0.659516
O140	O	0.963335	0.802732	1.496709
C141	C	0.865584	0.871632	1.626915
C142	C	0.885846	0.857399	1.524314
H143	H	0.802944	0.915846	1.649270
H144	H	0.856743	0.802352	1.639046
H145	H	0.922111	0.907286	1.668405
H146	H	0.829346	0.821776	1.482758
H147	H	0.894721	0.926705	1.512255
H148	H	0.766603	0.559433	0.559318
H149	H	0.827530	1.247790	0.897983
H150	H	0.827432	0.898494	1.248160
H151	H	0.452917	0.563590	0.563462
H152	H	0.860826	1.078541	0.874430
