data_functionalizedCrystal
_audit_creation_method	'MofGen! by Chris Wilmer'
_symmetry_space_group_name_H-M	'P1'
_symmetry_Int_Tables_number	1
_symmetry_cell_setting	triclinic
loop_
_symmetry_equiv_pos_as_xyz
  x,y,z
_cell_length_a	13.635800
_cell_length_b	19.452420
_cell_length_c	10.992410
_cell_angle_alpha	85.518272
_cell_angle_beta	108.764651
_cell_angle_gamma	78.303285
loop_
_atom_site_label
_atom_site_type_symbol
_atom_site_fract_x
_atom_site_fract_y
_atom_site_fract_z
V1	V	2.039301	-0.097183	0.401222
O2	O	2.037044	0.004670	0.392937
O3	O	2.010572	-0.192697	0.399100
O4	O	2.028371	-0.095688	0.575924
O5	O	2.019123	-0.093011	0.214888
V6	V	2.279982	-0.085000	0.378859
O7	O	2.172299	-0.123907	0.450276
O8	O	2.372081	-0.058276	0.329805
O9	O	2.197107	0.010514	0.380981
O10	O	2.340936	-0.186853	0.387144
O11	O	2.358858	-0.089172	0.565192
O12	O	2.179308	-0.086495	0.204156
V13	V	2.539301	-0.097183	0.401222
O14	O	2.537044	0.004670	0.392937
O15	O	2.510572	-0.192697	0.399100
O16	O	2.528371	-0.095688	0.575924
O17	O	2.519123	-0.093011	0.214888
V18	V	2.779982	-0.085000	0.378859
O19	O	2.672299	-0.123907	0.450276
O20	O	2.872081	-0.058276	0.329805
O21	O	2.697107	0.010514	0.380981
O22	O	2.840936	-0.186853	0.387144
O23	O	2.858858	-0.089172	0.565192
O24	O	2.679308	-0.086495	0.204156
C25	C	1.931542	-0.215982	0.392931
C26	C	1.948785	-0.294066	0.392360
C27	C	1.928321	-0.320695	0.274352
C28	C	1.944555	-0.394062	0.273777
C29	C	1.981235	-0.440796	0.391215
C30	C	2.001707	-0.414160	0.509239
C31	C	1.985482	-0.340795	0.509812
N32	N	1.970916	-0.561245	0.473924
N33	N	1.986325	-0.630938	0.473372
C34	C	2.030123	-0.661842	0.389496
N35	N	2.057913	-0.620418	0.306173
N36	N	2.042497	-0.550718	0.306721
C37	C	1.998832	-0.520350	0.390607
C38	C	2.027262	-0.768023	0.270856
C39	C	2.043504	-0.841392	0.270286
C40	C	2.100646	-0.861488	0.505751
C41	C	2.084413	-0.788121	0.506318
C42	C	2.047716	-0.741392	0.388867
C43	C	1.954245	-0.092236	0.618487
C44	C	1.985920	-0.091646	0.761311
C45	C	2.107808	0.033795	0.387147
C46	C	2.080184	0.111879	0.387725
C47	C	2.085105	-0.089950	0.161587
C48	C	2.043048	-0.090536	0.018762
C49	C	2.431542	-0.215982	0.392931
C50	C	2.448785	-0.294066	0.392360
C51	C	2.454245	-0.092236	0.618487
C52	C	2.485920	-0.091646	0.761311
C53	C	1.920468	-0.086268	0.956400
C54	C	1.887527	-0.087173	0.807922
C55	C	2.072226	-0.160903	0.838863
C56	C	2.104496	-0.160290	0.987426
C57	C	2.067974	-0.026184	0.948527
C58	C	2.032680	-0.025855	0.799512
C59	C	2.607808	0.033795	0.387147
C60	C	2.580184	0.111879	0.387725
C61	C	2.585105	-0.089950	0.161587
C62	C	2.543048	-0.090536	0.018762
C63	C	2.548274	-0.334317	0.398535
C64	C	2.564494	-0.407688	0.398019
C65	C	2.481223	-0.440805	0.391318
C66	C	2.381727	-0.400549	0.385147
C67	C	2.365510	-0.327181	0.385673
C68	C	2.653190	0.152129	0.381554
C69	C	2.627241	0.225499	0.382077
C70	C	2.528290	0.258617	0.388780
C71	C	2.455278	0.218361	0.394948
C72	C	2.481224	0.144993	0.394416
C73	C	2.420468	-0.086268	0.956400
C74	C	2.387527	-0.087173	0.807922
C75	C	2.572226	-0.160903	0.838863
C76	C	2.604496	-0.160290	0.987426
C77	C	2.567974	-0.026184	0.948527
C78	C	2.532680	-0.025855	0.799512
H79	H	1.898447	-0.282653	0.178714
H80	H	2.645514	-0.440454	0.403041
N81	N	2.498721	-0.519939	0.390751
H82	H	2.574386	-0.540407	0.395676
H83	H	2.447268	-0.529334	0.308029
N84	N	2.021433	-0.870108	0.142992
H85	H	1.943974	-0.850530	0.087257
H86	H	2.037344	-0.923674	0.160549
N87	N	2.638107	-0.298614	0.405777
H88	H	2.654876	-0.275154	0.486345
H89	H	2.615984	-0.261548	0.326169
H90	H	2.507176	0.318358	0.389211
N91	N	2.582358	-0.224832	1.049147
H92	H	2.551769	-0.253412	0.979783
H93	H	2.529509	-0.209153	1.094098
N94	N	2.140217	-0.911885	0.632421
H95	H	2.147395	-0.962403	0.614154
H96	H	2.087717	-0.901032	0.679559
N97	N	2.348563	0.254090	0.402194
H98	H	2.341538	0.232941	0.484979
H99	H	2.289496	0.246583	0.324803
H100	H	2.101070	-0.766440	0.602413
N101	N	2.706006	0.268905	0.375452
H102	H	2.673054	0.306325	0.295326
H103	H	2.772606	0.236735	0.371197
H104	H	2.733767	0.125175	0.376097
N105	N	1.801299	-0.021213	0.736828
H106	H	1.784393	0.008714	0.801880
H107	H	1.734997	-0.035328	0.683674
H108	H	2.371062	-0.036127	0.974905
N109	N	1.838264	-0.149265	0.775410
H110	H	1.762603	-0.131268	0.712744
H111	H	1.837956	-0.176143	0.857646
N112	N	2.670421	-0.168566	0.800763
H113	H	2.734372	-0.169391	0.879790
H114	H	2.659784	-0.127108	0.732673
H115	H	1.997380	-0.729974	0.175220
N116	N	2.223570	-0.168267	1.043961
H117	H	2.238500	-0.125437	1.086249
H118	H	2.254807	-0.172188	0.972291
H119	H	2.421772	0.112226	0.399452
H120	H	2.322433	-0.037374	0.754260
H121	H	2.399519	-0.132506	1.004691
N122	N	2.082358	-0.224832	1.049147
H123	H	2.051769	-0.253412	0.979783
H124	H	2.029509	-0.209153	1.094098
H125	H	2.526162	0.026409	0.968545
H126	H	1.871062	-0.036127	0.974905
H127	H	1.899519	-0.132506	1.004691
H128	H	2.313933	-0.427525	0.379692
H129	H	2.146355	-0.166677	0.810097
N130	N	2.723570	-0.168265	1.043952
H131	H	2.757103	-0.212544	1.111143
H132	H	2.738409	-0.125400	1.086168
H133	H	2.350339	-0.134053	0.783411
H134	H	2.284493	-0.294413	0.380638
N135	N	2.030057	-0.225606	0.805366
H136	H	1.963800	-0.223360	0.828808
H137	H	2.086235	-0.269867	0.855764
H138	H	2.540387	-0.209749	0.813574
H139	H	2.103885	-0.025042	0.766995
H140	H	2.470449	0.025378	0.746822
N141	N	2.626947	-0.024740	0.756351
H142	H	2.640749	-0.067060	0.711237
H143	H	2.692085	-0.026840	0.834705
N144	N	2.685898	-0.029503	1.002640
H145	H	2.727478	-0.075426	0.988120
H146	H	2.707699	-0.027251	1.098897
N147	N	2.012599	0.043482	0.975045
H148	H	1.962359	0.073405	0.890220
H149	H	2.067611	0.069624	1.019857
H150	H	1.927888	-0.415748	0.177677
H151	H	2.031574	-0.452216	0.604858
N152	N	2.007553	-0.312069	0.637097
H153	H	2.033256	-0.352805	0.711410
H154	H	1.939920	-0.279650	0.638085
N155	N	2.185898	-0.029505	1.002663
H156	H	2.201436	0.011966	0.957178
H157	H	2.227405	-0.075454	0.988143
N158	N	1.950247	0.042013	0.729750
H159	H	1.882894	0.030200	0.673628
H160	H	1.978929	0.069830	0.673315
