data_functionalizedCrystal
_audit_creation_method	'MofGen! by Chris Wilmer'
_symmetry_space_group_name_H-M	'P1'
_symmetry_Int_Tables_number	1
_symmetry_cell_setting	triclinic
loop_
_symmetry_equiv_pos_as_xyz
  x,y,z
_cell_length_a	23.096457
_cell_length_b	16.704486
_cell_length_c	16.704493
_cell_angle_alpha	60.347015
_cell_angle_beta	94.161359
_cell_angle_gamma	57.655998
loop_
_atom_site_label
_atom_site_type_symbol
_atom_site_fract_x
_atom_site_fract_y
_atom_site_fract_z
Zr1	Zr	0.498873	0.947534	-0.174331
O2	O	0.389520	1.128138	-0.315640
O3	O	0.539450	0.766933	-0.121895
O4	O	0.520484	0.947535	-0.302496
O5	O	0.415422	0.947534	-0.002950
O6	O	0.615766	0.947531	-0.302499
O7	O	0.408486	0.947536	-0.135040
O8	O	0.649693	0.624468	0.020563
O9	O	0.381496	1.270598	-0.326012
O10	O	0.619341	0.841213	-0.110549
O11	O	0.553409	0.841214	-0.011970
O12	O	0.531079	1.053849	-0.224604
O13	O	0.465148	1.053850	-0.126025
Zr14	Zr	0.661900	0.947525	0.036333
Zr15	Zr	0.650837	0.947528	-0.174335
Zr16	Zr	0.509936	0.947530	0.036337
Zr17	Zr	0.486075	1.174740	-0.190872
Zr18	Zr	0.674698	0.720318	0.052873
O19	O	0.621323	1.128126	-0.016103
O20	O	0.605594	1.128130	-0.315646
O21	O	0.405250	1.128133	-0.016098
O22	O	0.771253	0.766921	0.177642
O23	O	0.755523	0.766925	-0.121901
O24	O	0.555179	0.766928	0.177648
O25	O	0.745351	0.947524	-0.135049
O26	O	0.640289	0.947524	0.164497
O27	O	0.545007	0.947527	0.164500
O28	O	0.752287	0.947522	-0.002959
O29	O	0.502287	1.270593	-0.326015
O30	O	0.658486	0.624465	0.188016
O31	O	0.779277	0.624461	0.188013
O32	O	0.770484	0.624464	0.020560
O33	O	0.390289	1.270595	-0.158559
O34	O	0.511080	1.270591	-0.158562
O35	O	0.629694	0.841210	0.086605
O36	O	0.695625	0.841209	-0.011974
O37	O	0.607364	1.053845	-0.126029
O38	O	0.541432	1.053846	-0.027450
C39	C	0.596394	0.663328	-0.048309
C40	C	0.601827	0.566873	-0.041287
C41	C	0.490561	0.542615	-0.185088
C42	C	0.495662	0.451992	-0.178495
C43	C	0.617133	0.295003	-0.021516
C44	C	0.612032	0.385626	-0.028108
C45	C	0.548743	0.509432	-0.109896
C46	C	0.543640	0.600056	-0.116483
C47	C	0.665113	0.443066	0.040492
C48	C	0.670214	0.352443	0.047084
C49	C	0.390302	0.947536	-0.068994
C50	C	0.325789	0.947538	-0.068993
C51	C	0.291664	0.947548	-0.141767
C52	C	0.231053	0.947537	-0.141766
C53	C	0.204558	0.947541	-0.069000
C54	C	0.238694	0.947524	0.003788
C55	C	0.299310	0.947523	0.003792
N56	N	0.083459	1.016850	-0.052016
N57	N	0.025876	1.016854	-0.052025
C58	C	0.021929	0.947541	-0.069005
N59	N	0.077734	0.878240	-0.085994
N60	N	0.135320	0.878242	-0.085990
C61	C	0.138832	0.947541	-0.068995
C62	C	-0.077918	0.947538	-0.141783
C63	C	-0.138527	0.947519	-0.141775
C64	C	-0.130890	0.947518	0.003776
C65	C	-0.070276	0.947524	0.003772
C66	C	-0.043797	0.947540	-0.069012
C67	C	0.770471	0.947523	-0.069004
C68	C	0.834984	0.947520	-0.069006
C69	C	0.566549	0.947534	-0.332513
C70	C	0.561852	0.947535	-0.421947
C71	C	0.564379	1.231730	-0.089689
C72	C	0.558946	1.328185	-0.096711
C73	C	0.658033	0.947511	-0.589995
C74	C	0.653623	0.947513	-0.674027
C75	C	0.548627	0.947530	-0.674038
C76	C	0.553036	0.947529	-0.590006
C77	C	0.607741	0.947521	-0.547989
C78	C	0.612146	0.947529	-0.463961
C79	C	0.507154	0.947537	-0.463969
C80	C	0.502744	0.947538	-0.548000
C81	C	0.594224	0.947525	0.194514
C82	C	0.598921	0.947524	0.283948
C83	C	0.786479	0.663322	-0.048314
C84	C	0.856424	0.566864	-0.041294
C85	C	0.610232	0.663324	0.215204
C86	C	0.620362	0.566868	0.311660
C87	C	0.800317	0.663317	0.215199
C88	C	0.874959	0.566859	0.311654
C89	C	0.360456	1.231741	-0.353198
C90	C	0.285814	1.328200	-0.449652
C91	C	0.374294	1.231737	-0.089684
C92	C	0.304348	1.328194	-0.096705
C93	C	0.550541	1.231734	-0.353203
C94	C	0.540411	1.328191	-0.449659
C95	C	0.849451	0.521569	-0.089461
C96	C	0.915165	0.430949	-0.082886
C97	C	0.987852	0.385621	-0.028136
C98	C	0.994824	0.430925	0.020032
C99	C	0.929110	0.521549	0.013450
C100	C	0.664939	0.521568	0.408421
C101	C	0.674454	0.430950	0.499059
C102	C	0.639395	0.385626	0.492934
C103	C	0.594812	0.430934	0.396163
C104	C	0.585294	0.521557	0.305527
C105	C	0.944434	0.521560	0.305492
C106	C	1.014573	0.430939	0.396112
C107	C	1.015236	0.385613	0.492893
C108	C	0.945753	0.430920	0.499052
C109	C	0.875615	0.521545	0.408432
C110	C	0.216339	1.373510	-0.443492
C111	C	0.146198	1.464159	-0.534114
C112	C	0.145535	1.509490	-0.630895
C113	C	0.215018	1.464177	-0.637053
C114	C	0.285156	1.373536	-0.546433
C115	C	0.311320	1.373499	-0.048547
C116	C	0.245604	1.464144	-0.055147
C117	C	0.172917	1.509476	-0.109900
C118	C	0.165946	1.464167	-0.158064
C119	C	0.231661	1.373530	-0.151469
C120	C	0.575480	1.373486	-0.443501
C121	C	0.565978	1.464105	-0.534122
C122	C	0.521401	1.509434	-0.630902
C123	C	0.486331	1.464130	-0.637058
C124	C	0.495839	1.373506	-0.546437
H125	H	0.439018	0.643421	-0.251667
C126	C	0.336853	0.947501	0.083859
N127	N	0.365132	0.947482	0.144168
H128	H	0.448285	0.479020	-0.239726
C129	C	0.624524	1.323635	-0.337051
N130	N	0.661470	1.286087	-0.256876
H131	H	0.370501	1.336597	-0.003955
C132	C	1.060133	0.285923	-0.020897
N133	N	1.114574	0.210826	-0.015444
C134	C	-0.176055	0.947505	-0.221824
N135	N	-0.204318	0.947489	-0.282115
H136	H	0.088418	1.583295	-0.704676
H137	H	0.909475	0.394074	-0.122111
C138	C	0.769501	0.571420	-0.149700
N139	N	0.709283	0.608969	-0.195080
C140	C	0.946496	0.381037	0.605522
N141	N	0.947058	0.343456	0.685719
C142	C	0.209561	0.947498	0.083848
N143	N	0.187625	0.947464	0.144159
H144	H	0.694576	0.947502	-0.708225
H145	H	0.594536	1.500982	-0.529090
C146	C	1.090995	0.381106	0.389315
N147	N	1.148555	0.343572	0.384193
C148	C	-0.048781	0.947538	-0.221837
N149	N	-0.026835	0.947536	-0.282133
H150	H	0.702570	0.947518	-0.555791
H151	H	0.693490	0.558461	0.413428
C152	C	0.488475	0.947494	-0.720248
N153	N	0.443173	0.947456	-0.755048
C154	C	0.686749	0.158809	0.068439
N155	N	0.739183	0.056227	0.136194
H156	H	0.721744	0.251632	0.113670
H157	H	0.819050	0.558416	0.413464
C158	C	0.214276	1.514044	-0.743522
N159	N	0.213715	1.551598	-0.823717
C160	C	1.092397	0.285913	0.592569
N161	N	1.150517	0.210814	0.667642
H162	H	0.712487	0.416052	0.101723
H163	H	0.513665	1.583226	-0.704684
C164	C	0.649881	0.285926	0.592648
N165	N	0.657787	0.210826	0.667756
C166	C	0.320796	0.947548	-0.221823
N167	N	0.342741	0.947542	-0.282119
H168	H	0.216864	1.336606	-0.364696
C169	C	1.074788	0.381041	0.080263
N170	N	1.135019	0.343459	0.125635
C171	C	0.253290	1.513957	-0.002150
N172	N	0.259082	1.551470	0.037770
H173	H	0.119413	1.583278	-0.115262
C174	C	-0.160034	0.947530	0.083815
N175	N	-0.181988	0.947541	0.144103
C176	C	0.085984	1.514029	-0.218272
N177	N	0.025756	1.551577	-0.263611
H178	H	-0.042493	0.947523	0.063028
H179	H	0.656687	0.947527	-0.429754
C180	C	0.193501	0.947565	-0.221836
N181	N	0.165217	0.947592	-0.282149
C182	C	0.442579	0.947534	-0.594222
N183	N	0.397261	0.947529	-0.629035
C184	C	0.069776	1.513984	-0.527316
N185	N	0.012217	1.551511	-0.522193
H186	H	0.341724	1.336645	-0.551461
H187	H	0.450037	1.501050	-0.715868
C188	C	0.943723	0.571409	0.199042
N189	N	0.943193	0.608956	0.118865
H190	H	0.466201	0.947550	-0.429761
C191	C	0.723506	0.381116	0.605498
N192	N	0.760455	0.343581	0.685665
H193	H	0.225974	1.336646	-0.190683
H194	H	0.934798	0.558417	0.052680
C195	C	0.556256	0.381058	0.389443
N196	N	0.527221	0.343482	0.384386
H197	H	0.467277	1.336637	-0.551466
C198	C	0.474022	0.736242	-0.206453
N199	N	0.421586	0.838818	-0.274224
C200	C	0.536263	0.571363	0.199093
N201	N	0.499333	0.608871	0.118929
