data_functionalizedCrystal
_audit_creation_method	'MofGen! by Chris Wilmer'
_symmetry_space_group_name_H-M	'P1'
_symmetry_Int_Tables_number	1
_symmetry_cell_setting	triclinic
loop_
_symmetry_equiv_pos_as_xyz
  x,y,z
_cell_length_a	15.944499
_cell_length_b	15.944551
_cell_length_c	9.482900
_cell_angle_alpha	99.334197
_cell_angle_beta	80.709219
_cell_angle_gamma	83.488174
loop_
_atom_site_label
_atom_site_type_symbol
_atom_site_fract_x
_atom_site_fract_y
_atom_site_fract_z
O1	O	1.127652	0.094962	-0.120986
O2	O	0.883095	0.108365	-0.120970
O3	O	1.012051	-0.020611	-0.120965
O4	O	0.998697	0.223938	-0.120991
O5	O	0.985857	0.005692	0.120826
O6	O	0.856901	0.134668	0.120821
O7	O	1.101459	0.121265	0.120806
Cu8	Cu	0.976788	0.130368	0.142891
Cu9	Cu	1.007765	0.099262	-0.143056
O10	O	0.972503	0.250241	0.120801
C11	C	0.838703	0.120968	-0.000072
C12	C	0.745454	0.119324	-0.000066
C13	C	0.998399	-0.038753	-0.000069
C14	C	0.996737	-0.131999	-0.000068
C15	C	0.453921	0.194253	-0.000095
C16	C	0.527865	0.142333	-0.119310
C17	C	0.409821	0.113344	-0.000099
C18	C	0.502026	0.168244	0.119078
C19	C	0.574728	0.116287	-0.000080
C20	C	0.482548	0.061391	-0.119412
C21	C	0.456691	0.087325	0.119083
C22	C	0.530620	0.035342	-0.000161
C23	C	0.314822	0.111651	-0.000111
C24	C	0.669727	0.117973	-0.000079
C25	C	0.912832	-0.346842	-0.000083
C26	C	0.938880	-0.394897	0.119132
C27	C	0.993731	-0.302726	-0.000079
C28	C	0.964724	-0.420814	-0.119255
C29	C	0.990822	-0.467640	-0.000096
C30	C	1.019791	-0.349542	0.119234
C31	C	1.045635	-0.375464	-0.119260
C32	C	1.071739	-0.423499	-0.000016
C33	C	0.995404	-0.207722	-0.000068
C34	C	0.989153	-0.562640	-0.000097
C35	C	1.145851	0.108662	-0.000096
C36	C	1.239101	0.110305	-0.000112
C37	C	0.986155	0.268383	-0.000098
C38	C	0.987818	0.361628	-0.000109
N39	N	0.955007	0.152246	0.344010
N40	N	1.029554	0.077377	-0.344175
C41	C	1.001335	0.105710	0.416211
C42	C	0.983218	0.123920	0.583628
H43	H	0.558882	0.165593	-0.220097
O44	O	0.419500	0.059897	0.239514
C45	C	0.311574	0.093126	0.457567
C46	C	0.353631	0.124165	0.321108
H47	H	0.258323	0.145077	0.523590
H48	H	0.283308	0.032050	0.423639
H49	H	0.362007	0.079287	0.526550
H50	H	0.303249	0.138052	0.252064
H51	H	0.381917	0.185212	0.355138
H52	H	0.893744	-0.404035	0.219924
H53	H	0.563803	-0.031870	-0.000217
H54	H	1.054408	0.052385	0.354085
O55	O	0.919785	0.187447	0.657664
C56	C	0.768784	0.242095	0.704510
C57	C	0.840534	0.170088	0.620599
H58	H	0.704696	0.228095	0.674551
H59	H	0.765379	0.245448	0.826346
H60	H	0.783176	0.306091	0.674679
H61	H	0.826193	0.106054	0.650308
H62	H	0.843922	0.166810	0.498784
H63	H	1.090742	-0.366305	-0.220057
O64	O	0.471608	0.007569	-0.239743
C65	C	0.370905	-0.054431	-0.374706
C66	C	0.383173	0.006557	-0.238387
H67	H	0.299409	-0.055283	-0.373639
H68	H	0.400901	-0.031215	-0.476229
H69	H	0.403335	-0.121998	-0.375119
H70	H	0.350742	0.074140	-0.237833
H71	H	0.353200	-0.016731	-0.136926
H72	H	0.511183	0.213442	0.219860
O73	O	0.936801	-0.457731	-0.239451
C74	C	0.821438	-0.460242	-0.375197
C75	C	0.852970	-0.418352	-0.239042
H76	H	0.753651	-0.428433	-0.374895
H77	H	0.866217	-0.451716	-0.476845
H78	H	0.821088	-0.531642	-0.374597
H79	H	0.853318	-0.346940	-0.239501
H80	H	0.808182	-0.426947	-0.137455
O81	O	0.832668	-0.307080	0.000313
C82	C	0.685860	-0.271327	0.126410
C83	C	0.776605	-0.316375	0.126153
H84	H	0.640504	-0.278843	0.228126
H85	H	0.687923	-0.200181	0.125464
H86	H	0.661961	-0.301663	0.025759
H87	H	0.800558	-0.286111	0.226787
H88	H	0.774489	-0.387521	0.127023
O89	O	1.047485	-0.312471	0.239564
C90	C	1.080166	-0.182457	0.374522
C91	C	1.048777	-0.224329	0.238206
H92	H	1.081239	-0.111192	0.373454
H93	H	1.034916	-0.190417	0.476047
H94	H	1.147649	-0.214787	0.374931
H95	H	0.981309	-0.192028	0.237656
H96	H	1.094087	-0.216377	0.136743
H97	H	1.138941	-0.456663	0.000047
H98	H	1.082630	0.024048	0.593703
O99	O	0.891576	0.215770	0.418052
C100	C	0.740575	0.270418	0.464898
C101	C	0.812326	0.198411	0.380987
H102	H	0.676487	0.256418	0.434939
H103	H	0.737171	0.273772	0.586733
H104	H	0.754968	0.334414	0.435067
H105	H	0.797985	0.134377	0.410696
H106	H	0.815713	0.195133	0.259172
H107	H	0.420605	0.261386	-0.000218
