data_functionalizedCrystal
_audit_creation_method	'MofGen! by Chris Wilmer'
_symmetry_space_group_name_H-M	'P1'
_symmetry_Int_Tables_number	1
_symmetry_cell_setting	triclinic
loop_
_symmetry_equiv_pos_as_xyz
  x,y,z
_cell_length_a	15.995350
_cell_length_b	15.995292
_cell_length_c	15.072220
_cell_angle_alpha	89.993492
_cell_angle_beta	90.002153
_cell_angle_gamma	83.480495
loop_
_atom_site_label
_atom_site_type_symbol
_atom_site_fract_x
_atom_site_fract_y
_atom_site_fract_z
O1	O	1.110966	0.107919	0.073701
O2	O	0.867188	0.121247	0.073718
O3	O	0.995766	-0.007308	0.073711
O4	O	0.982388	0.236474	0.073709
O5	O	0.995749	-0.007291	-0.073855
O6	O	0.867171	0.121264	-0.073847
O7	O	1.110949	0.107936	-0.073864
Zn8	Zn	0.989058	0.114602	-0.097285
Zn9	Zn	0.989079	0.114581	0.097139
O10	O	0.982371	0.236491	-0.073856
C11	C	0.835985	0.120704	-0.000062
C12	C	0.743035	0.119053	-0.000055
C13	C	0.995213	-0.038495	-0.000070
C14	C	0.993581	-0.131448	-0.000063
C15	C	0.405288	0.113120	-0.000073
C16	C	0.452742	0.021566	-0.000402
C17	C	0.549431	0.023218	-0.000063
C18	C	0.572848	0.116063	-0.000065
C19	C	0.531761	0.161211	0.084198
C20	C	0.435126	0.158911	0.084263
C21	C	0.434768	0.160821	-0.083546
C22	C	0.531713	0.160800	-0.084654
C23	C	0.667546	0.117731	-0.000057
C24	C	0.310591	0.111455	-0.000075
C25	C	0.987580	-0.469186	-0.000071
C26	C	1.080384	-0.445874	-0.000407
C27	C	1.082148	-0.349199	-0.000071
C28	C	0.990557	-0.301631	-0.000067
C29	C	0.944169	-0.330741	0.084200
C30	C	0.943052	-0.427531	0.084268
C31	C	0.941138	-0.427370	-0.083541
C32	C	0.944577	-0.330877	-0.084652
C33	C	0.992235	-0.206934	-0.000062
C34	C	0.985899	-0.563882	-0.000069
C35	C	1.142152	0.108479	-0.000082
C36	C	1.235102	0.110130	-0.000083
C37	C	0.982924	0.267678	-0.000074
C38	C	0.984556	0.360631	-0.000075
N39	N	0.989049	0.114616	-0.229973
C40	C	0.989064	0.114597	-0.410971
C41	C	0.920254	0.183359	-0.448635
C42	C	0.920018	0.183171	-0.551461
C43	C	0.989079	0.114579	-0.589175
C44	C	0.970372	0.027106	-0.551830
C45	C	0.969870	0.027520	-0.448973
C46	C	1.076793	0.132519	-0.448866
C47	C	1.076213	0.134494	-0.551731
C48	C	0.989090	0.114564	-0.689888
C49	C	0.989052	0.114607	-0.310257
N50	N	0.989095	0.114560	0.229828
H51	H	0.577861	-0.012272	-0.060466
C52	C	0.832788	0.168070	-0.413742
H53	H	0.791585	0.209892	-0.436811
H54	H	0.820314	0.114043	-0.432098
H55	H	0.832503	0.170859	-0.350781
C56	C	1.095410	0.221423	-0.584699
H57	H	1.148195	0.233111	-0.561820
H58	H	1.097296	0.221511	-0.647692
H59	H	1.052581	0.263284	-0.564909
H60	H	0.434220	-0.015024	-0.060830
H61	H	1.018102	-0.025204	-0.424054
H62	H	0.854915	0.171679	-0.576080
H63	H	1.019180	-0.025313	-0.576256
H64	H	0.970357	-0.455452	-0.147416
C65	C	1.128452	-0.485065	0.080771
H66	H	1.184462	-0.470675	0.080057
H67	H	1.101111	-0.464173	0.133538
H68	H	1.129447	-0.544533	0.078789
C69	C	1.148606	0.071250	-0.586395
H70	H	1.200443	0.084797	-0.562721
H71	H	1.139651	0.016012	-0.568531
H72	H	1.150390	0.073932	-0.649322
C73	C	0.391844	0.252009	-0.084327
H74	H	0.409910	0.280515	-0.134913
H75	H	0.332528	0.251693	-0.086495
H76	H	0.406627	0.280081	-0.032051
C77	C	0.853124	-0.287687	0.088448
H78	H	0.842570	-0.251487	0.038750
H79	H	0.815176	-0.329258	0.087668
H80	H	0.845462	-0.255739	0.141545
C81	C	0.884952	0.005325	-0.586632
H82	H	0.860580	0.049420	-0.623910
H83	H	0.893058	-0.045636	-0.619474
H84	H	0.848509	-0.001227	-0.537975
H85	H	1.094853	0.194965	-0.422934
C86	C	1.131525	-0.324337	0.081672
H87	H	1.150576	-0.373350	0.114809
H88	H	1.178508	-0.297506	0.062885
H89	H	1.095941	-0.286825	0.117768
C90	C	1.145969	0.064791	-0.415957
H91	H	1.198831	0.075953	-0.439079
H92	H	1.147866	0.065632	-0.352974
H93	H	1.133886	0.011000	-0.435530
H94	H	0.577304	-0.012525	0.060446
C95	C	0.426291	-0.027661	0.080775
H96	H	0.386457	0.007341	0.114868
H97	H	0.401756	-0.075857	0.061397
H98	H	0.474345	-0.044822	0.116152
H99	H	0.416832	0.125973	0.147253
H100	H	0.545872	0.229422	0.087331
H101	H	0.931106	0.248182	-0.576712
H102	H	1.118478	-0.330167	-0.060476
C103	C	0.883454	0.006263	-0.416573
H104	H	0.848984	-0.002539	-0.466273
H105	H	0.890713	-0.043350	-0.381456
H106	H	0.857342	0.051579	-0.382015
H107	H	1.116148	-0.473865	-0.060839
C108	C	0.986429	-0.463767	0.169380
H109	H	1.004574	-0.419313	0.203584
H110	H	0.947825	-0.491783	0.203045
H111	H	1.033649	-0.502547	0.154023
C112	C	0.987629	-0.303550	0.168916
H113	H	1.034045	-0.274480	0.153112
H114	H	0.948666	-0.267488	0.202927
H115	H	1.006983	-0.351886	0.202965
H116	H	0.402864	0.226129	0.088086
C117	C	0.934960	0.271486	-0.415237
H118	H	0.892775	0.312077	-0.438720
H119	H	0.932406	0.272615	-0.352276
H120	H	0.988773	0.284142	-0.434125
H121	H	0.560149	0.129840	0.146910
H122	H	0.414232	0.130897	-0.147416
C123	C	0.848857	-0.446268	-0.084308
H124	H	0.838648	-0.479477	-0.034037
H125	H	0.812679	-0.394918	-0.082455
H126	H	0.838323	-0.476086	-0.136898
H127	H	0.547064	0.228506	-0.089745
C128	C	0.568607	0.116277	-0.168869
H129	H	0.608915	0.070617	-0.152556
H130	H	0.524714	0.095713	-0.201963
H131	H	0.594975	0.155036	-0.204036
C132	C	0.990178	-0.305759	-0.168874
H133	H	0.962063	-0.323618	-0.219816
H134	H	0.990008	-0.246369	-0.170409
H135	H	1.046594	-0.331799	-0.168362
C136	C	0.851137	-0.447198	0.089448
H137	H	0.849832	-0.506431	0.089519
H138	H	0.826046	-0.423950	0.142394
H139	H	0.820831	-0.423354	0.039616
C140	C	0.854268	-0.286335	-0.091533
H141	H	0.843371	-0.249158	-0.042687
H142	H	0.848250	-0.255268	-0.145316
H143	H	0.815462	-0.327101	-0.090820
