data_functionalizedCrystal
_audit_creation_method	'MofGen! by Chris Wilmer'
_symmetry_space_group_name_H-M	'P1'
_symmetry_Int_Tables_number	1
_symmetry_cell_setting	triclinic
loop_
_symmetry_equiv_pos_as_xyz
  x,y,z
_cell_length_a	21.295417
_cell_length_b	16.625548
_cell_length_c	16.625539
_cell_angle_alpha	90.020568
_cell_angle_beta	89.966627
_cell_angle_gamma	89.968425
loop_
_atom_site_label
_atom_site_type_symbol
_atom_site_fract_x
_atom_site_fract_y
_atom_site_fract_z
Zn1	Zn	-0.250590	-1.232635	-0.455881
Zn2	Zn	-0.000590	-0.982635	-0.205881
Zn3	Zn	0.249410	-0.732635	0.044119
Zn4	Zn	0.499410	-0.482635	0.294119
Zn5	Zn	-0.355864	-1.232520	-0.321036
Zn6	Zn	-0.105864	-0.982520	-0.071036
Zn7	Zn	0.144136	-0.732520	0.178964
Zn8	Zn	0.394136	-0.482520	0.428964
Zn9	Zn	-0.250614	-1.097797	-0.321061
Zn10	Zn	-0.000614	-0.847797	-0.071061
Zn11	Zn	0.249386	-0.597797	0.178939
Zn12	Zn	0.499386	-0.347797	0.428939
Zn13	Zn	-0.355827	-1.097749	-0.455826
Zn14	Zn	-0.105827	-0.847749	-0.205826
Zn15	Zn	0.144173	-0.597749	0.044174
Zn16	Zn	0.394173	-0.347749	0.294174
O17	O	-0.303224	-1.165175	-0.388451
O18	O	-0.053224	-0.915175	-0.138451
O19	O	0.196776	-0.665175	0.111549
O20	O	0.446776	-0.415175	0.361549
O21	O	-0.264560	-1.345452	-0.438006
O22	O	-0.014560	-1.095452	-0.188006
O23	O	0.235440	-0.845452	0.061994
O24	O	0.485440	-0.595452	0.311994
O25	O	-0.341927	-1.214620	-0.208207
O26	O	-0.091927	-0.964620	0.041793
O27	O	0.158073	-0.714620	0.291793
O28	O	0.408073	-0.464620	0.541793
O29	O	-0.162522	-1.115753	-0.338979
O30	O	0.087478	-0.865753	-0.088979
O31	O	0.337478	-0.615753	0.161021
O32	O	0.587478	-0.365753	0.411021
O33	O	-0.341904	-1.345367	-0.338936
O34	O	-0.091904	-1.095367	-0.088936
O35	O	0.158096	-0.845367	0.161064
O36	O	0.408096	-0.595367	0.411064
O37	O	-0.162504	-1.214818	-0.438030
O38	O	0.087496	-0.964818	-0.188030
O39	O	0.337496	-0.714818	0.061970
O40	O	0.587496	-0.464818	0.311970
O41	O	-0.264601	-1.115640	-0.208226
O42	O	-0.014601	-0.865640	0.041774
O43	O	0.235399	-0.615640	0.291774
O44	O	0.485399	-0.365640	0.541774
O45	O	-0.264566	-0.984958	-0.338926
O46	O	-0.014566	-0.734958	-0.088926
O47	O	0.235434	-0.484958	0.161074
O48	O	0.485434	-0.234958	0.411074
O49	O	-0.341842	-1.115670	-0.568666
O50	O	-0.091842	-0.865670	-0.318666
O51	O	0.158158	-0.615670	-0.068666
O52	O	0.408158	-0.365670	0.181334
O53	O	-0.341866	-0.984923	-0.437937
O54	O	-0.091866	-0.734923	-0.187937
O55	O	0.158134	-0.484923	0.062063
O56	O	0.408134	-0.234923	0.312063
O57	O	-0.264525	-1.214771	-0.568706
O58	O	-0.014525	-0.964771	-0.318706
O59	O	0.235475	-0.714771	-0.068706
O60	O	0.485475	-0.464771	0.181294
O61	O	-0.443948	-1.214573	-0.338883
O62	O	-0.193948	-0.964573	-0.088883
O63	O	0.056052	-0.714573	0.161117
O64	O	0.306052	-0.464573	0.411117
O65	O	-0.443922	-1.115558	-0.437912
O66	O	-0.193922	-0.865558	-0.187912
O67	O	0.056078	-0.615558	0.062088
O68	O	0.306078	-0.365558	0.312088
C69	C	-0.303215	-0.955684	-0.388429
C70	C	-0.053215	-0.705684	-0.138429
C71	C	0.196785	-0.455684	0.111571
C72	C	0.446785	-0.205684	0.361571
C73	C	-0.303226	-0.866063	-0.388438
C74	C	-0.053226	-0.616063	-0.138438
C75	C	0.196774	-0.366063	0.111562
C76	C	0.446774	-0.116063	0.361562
C77	C	-0.466775	-1.165070	-0.388407
C78	C	-0.216775	-0.915070	-0.138407
C79	C	0.033225	-0.665070	0.111593
C80	C	0.283225	-0.415070	0.361593
C81	C	-0.536744	-1.165098	-0.388414
C82	C	-0.286744	-0.915098	-0.138414
C83	C	-0.036744	-0.665098	0.111586
C84	C	0.213256	-0.415098	0.361586
C85	C	-0.303177	-1.165228	-0.598760
C86	C	-0.053177	-0.915228	-0.348760
C87	C	0.196823	-0.665228	-0.098760
C88	C	0.446823	-0.415228	0.151240
C89	C	-0.303157	-1.165250	-0.688381
C90	C	-0.053157	-0.915250	-0.438381
C91	C	0.196843	-0.665250	-0.188381
C92	C	0.446843	-0.415250	0.061619
C93	C	-0.569603	-1.216701	-0.336903
C94	C	-0.319603	-0.966701	-0.086903
C95	C	-0.069603	-0.716701	0.163097
C96	C	0.180397	-0.466701	0.413097
C97	C	-0.635346	-1.216739	-0.336921
C98	C	-0.385346	-0.966739	-0.086921
C99	C	-0.135346	-0.716739	0.163079
C100	C	0.114654	-0.466739	0.413079
C101	C	-0.668226	-1.165159	-0.388442
C102	C	-0.418226	-0.915159	-0.138442
C103	C	-0.168226	-0.665159	0.111558
C104	C	0.081774	-0.415159	0.361558
C105	C	-0.635359	-1.113552	-0.439964
C106	C	-0.385359	-0.863552	-0.189964
C107	C	-0.135359	-0.613552	0.060036
C108	C	0.114641	-0.363552	0.310036
C109	C	-0.569617	-1.113522	-0.439950
C110	C	-0.319617	-0.863522	-0.189950
C111	C	-0.069617	-0.613522	0.060050
C112	C	0.180383	-0.363522	0.310050
N113	N	-0.771493	-1.094624	-0.394581
N114	N	-0.521493	-0.844624	-0.144581
N115	N	-0.271493	-0.594624	0.105419
N116	N	-0.021493	-0.344624	0.355419
N117	N	-0.833944	-1.094656	-0.394590
N118	N	-0.583944	-0.844656	-0.144590
N119	N	-0.333944	-0.594656	0.105410
N120	N	-0.083944	-0.344656	0.355410
C121	C	-0.866301	-1.165250	-0.388488
C122	C	-0.616301	-0.915250	-0.138488
C123	C	-0.366301	-0.665250	0.111512
C124	C	-0.116301	-0.415250	0.361512
N125	N	-0.833847	-1.235813	-0.382362
N126	N	-0.583847	-0.985813	-0.132362
N127	N	-0.333847	-0.735813	0.117638
N128	N	-0.083847	-0.485813	0.367638
N129	N	-0.771389	-1.235780	-0.382350
N130	N	-0.521389	-0.985780	-0.132350
N131	N	-0.271389	-0.735780	0.117650
N132	N	-0.021389	-0.485780	0.367650
C133	C	-0.739511	-1.165187	-0.388463
C134	C	-0.489511	-0.915187	-0.138463
C135	C	-0.239511	-0.665187	0.111537
C136	C	0.010489	-0.415187	0.361537
C137	C	-0.970446	-1.216898	-0.336994
C138	C	-0.720446	-0.966898	-0.086994
C139	C	-0.470446	-0.716898	0.163006
C140	C	-0.220446	-0.466898	0.413006
C141	C	-1.036189	-1.216937	-0.337017
C142	C	-0.786189	-0.966937	-0.087017
C143	C	-0.536189	-0.716937	0.162983
C144	C	-0.286189	-0.466937	0.412983
C145	C	-1.036201	-1.113743	-0.440056
C146	C	-0.786201	-0.863743	-0.190056
C147	C	-0.536201	-0.613743	0.059944
C148	C	-0.286201	-0.363743	0.309944
C149	C	-0.970459	-1.113711	-0.440037
C150	C	-0.720459	-0.863711	-0.190037
C151	C	-0.470459	-0.613711	0.059963
C152	C	-0.220459	-0.363711	0.309963
C153	C	-0.937585	-1.165288	-0.388501
C154	C	-0.687585	-0.915288	-0.138501
C155	C	-0.437585	-0.665288	0.111499
C156	C	-0.187585	-0.415288	0.361499
C157	C	-0.139033	-1.165303	-0.388514
C158	C	0.110967	-0.915303	-0.138514
C159	C	0.360967	-0.665303	0.111486
C160	C	0.610967	-0.415303	0.361486
C161	C	-0.069065	-1.165358	-0.388540
C162	C	0.180935	-0.915358	-0.138540
C163	C	0.430935	-0.665358	0.111460
C164	C	0.680935	-0.415358	0.361460
C165	C	-0.303233	-1.375484	-0.388474
C166	C	-0.053233	-1.125484	-0.138474
C167	C	0.196767	-0.875484	0.111526
C168	C	0.446767	-0.625484	0.361526
C169	C	-0.303237	-1.465105	-0.388484
C170	C	-0.053237	-1.215105	-0.138484
C171	C	0.196763	-0.965105	0.111516
C172	C	0.446763	-0.715105	0.361516
C173	C	-0.303230	-0.537888	-0.388473
C174	C	-0.053230	-0.287888	-0.138473
C175	C	0.196770	-0.037888	0.111527
C176	C	0.446770	0.212112	0.361527
C177	C	-0.303227	-0.629196	-0.388460
C178	C	-0.053227	-0.379196	-0.138460
C179	C	0.196773	-0.129196	0.111540
C180	C	0.446773	0.120804	0.361540
C181	C	-0.303229	-0.701973	-0.388455
C182	C	-0.053229	-0.451973	-0.138455
C183	C	0.196771	-0.201973	0.111545
C184	C	0.446771	0.048027	0.361545
C185	C	-0.303225	-0.793287	-0.388444
C186	C	-0.053225	-0.543287	-0.138444
C187	C	0.196775	-0.293287	0.111556
C188	C	0.446775	-0.043287	0.361556
C189	C	-0.303086	-1.165287	-1.016557
C190	C	-0.053086	-0.915287	-0.766557
C191	C	0.196914	-0.665287	-0.516557
C192	C	0.446914	-0.415287	-0.266557
C193	C	-0.303108	-1.165275	-0.925249
C194	C	-0.053108	-0.915275	-0.675249
C195	C	0.196892	-0.665275	-0.425249
C196	C	0.446892	-0.415275	-0.175249
C197	C	-0.303122	-1.165269	-0.852472
C198	C	-0.053122	-0.915269	-0.602472
C199	C	0.196878	-0.665269	-0.352472
C200	C	0.446878	-0.415269	-0.102472
C201	C	-0.303143	-1.165256	-0.761158
C202	C	-0.053143	-0.915256	-0.511158
C203	C	0.196857	-0.665256	-0.261158
C204	C	0.446857	-0.415256	-0.011158
C205	C	-0.303225	-1.165169	-0.178960
C206	C	-0.053225	-0.915169	0.071040
C207	C	0.196775	-0.665169	0.321040
C208	C	0.446775	-0.415169	0.571040
C209	C	-0.303068	-1.165303	-0.089340
C210	C	-0.053068	-0.915303	0.160660
C211	C	0.196932	-0.665303	0.410660
C212	C	0.446932	-0.415303	0.660660
H213	H	-0.542839	-1.258700	-0.294941
H214	H	-0.292839	-1.008700	-0.044941
H215	H	-0.042839	-0.758700	0.205059
H216	H	0.207161	-0.508700	0.455059
N217	N	-0.670798	-1.272400	-0.281361
N218	N	-0.420798	-1.022400	-0.031361
N219	N	-0.170798	-0.772400	0.218639
N220	N	0.079202	-0.522400	0.468639
H221	H	-0.639997	-1.305069	-0.248713
H222	H	-0.389997	-1.055069	0.001287
H223	H	-0.139997	-0.805069	0.251287
H224	H	0.110003	-0.555069	0.501287
H225	H	-0.698119	-1.239606	-0.244027
H226	H	-0.448119	-0.989606	0.005973
H227	H	-0.198119	-0.739606	0.255973
H228	H	0.051881	-0.489606	0.505973
H229	H	-1.062972	-1.071750	-0.482010
H230	H	-0.812972	-0.821750	-0.232010
H231	H	-0.562972	-0.571750	0.017990
H232	H	-0.312972	-0.321750	0.267990
N233	N	-1.071637	-1.272598	-0.281458
N234	N	-0.821637	-1.022598	-0.031458
N235	N	-0.571637	-0.772598	0.218542
N236	N	-0.321637	-0.522598	0.468542
H237	H	-1.060146	-1.330196	-0.294024
H238	H	-0.810146	-1.080196	-0.044024
H239	H	-0.560146	-0.830196	0.205976
H240	H	-0.310146	-0.580196	0.455976
H241	H	-1.060228	-1.260026	-0.223856
H242	H	-0.810228	-1.010026	0.026144
H243	H	-0.560228	-0.760026	0.276144
H244	H	-0.310228	-0.510026	0.526144
N245	N	-0.534177	-1.057852	-0.495507
N246	N	-0.284177	-0.807852	-0.245507
N247	N	-0.034177	-0.557852	0.004493
N248	N	0.215823	-0.307852	0.254493
H249	H	-0.506949	-1.020492	-0.462696
H250	H	-0.256949	-0.770492	-0.212696
H251	H	-0.006949	-0.520492	0.037304
H252	H	0.243051	-0.270492	0.287304
H253	H	-0.506889	-1.090639	-0.532886
H254	H	-0.256889	-0.840639	-0.282886
H255	H	-0.006889	-0.590639	-0.032886
H256	H	0.243111	-0.340639	0.217114
N257	N	-0.934979	-1.272526	-0.281421
N258	N	-0.684979	-1.022526	-0.031421
N259	N	-0.434979	-0.772526	0.218579
N260	N	-0.184979	-0.522526	0.468579
H261	H	-0.946464	-1.260045	-0.223801
H262	H	-0.696464	-1.010045	0.026199
H263	H	-0.446464	-0.760045	0.276199
H264	H	-0.196464	-0.510045	0.526199
H265	H	-0.946380	-1.330114	-0.294069
H266	H	-0.696380	-1.080114	-0.044069
H267	H	-0.446380	-0.830114	0.205931
H268	H	-0.196380	-0.580114	0.455931
N269	N	-0.670818	-1.057921	-0.495537
N270	N	-0.420818	-0.807921	-0.245537
N271	N	-0.170818	-0.557921	0.004463
N272	N	0.079182	-0.307921	0.254463
H273	H	-0.717451	-1.065769	-0.487728
H274	H	-0.467451	-0.815769	-0.237728
H275	H	-0.217451	-0.565769	0.012272
H276	H	0.032549	-0.315769	0.262272
H277	H	-0.659373	-1.000338	-0.482933
H278	H	-0.409373	-0.750338	-0.232933
H279	H	-0.159373	-0.500338	0.017067
H280	H	0.090627	-0.250338	0.267067
N281	N	-0.935012	-1.058047	-0.495591
N282	N	-0.685012	-0.808047	-0.245591
N283	N	-0.435012	-0.558047	0.004409
N284	N	-0.185012	-0.308047	0.254409
H285	H	-0.965816	-1.025375	-0.528232
H286	H	-0.715816	-0.775375	-0.278232
H287	H	-0.465816	-0.525375	-0.028232
H288	H	-0.215816	-0.275375	0.221768
H289	H	-0.907783	-1.020740	-0.462726
H290	H	-0.657783	-0.770740	-0.212726
H291	H	-0.407783	-0.520740	0.037274
H292	H	-0.157783	-0.270740	0.287274
