data_functionalizedCrystal
_audit_creation_method	'MofGen! by Chris Wilmer'
_symmetry_space_group_name_H-M	'P1'
_symmetry_Int_Tables_number	1
_symmetry_cell_setting	triclinic
loop_
_symmetry_equiv_pos_as_xyz
  x,y,z
_cell_length_a	14.560438
_cell_length_b	23.196402
_cell_length_c	23.196401
_cell_angle_alpha	59.999265
_cell_angle_beta	90.007083
_cell_angle_gamma	60.002032
loop_
_atom_site_label
_atom_site_type_symbol
_atom_site_fract_x
_atom_site_fract_y
_atom_site_fract_z
Zr1	Zr	0.884758	0.631020	-0.075624
O2	O	0.738090	0.751300	-0.167680
O3	O	0.929716	0.510751	-0.047408
O4	O	0.929686	0.631037	-0.167683
O5	O	0.738148	0.630998	0.047474
O6	O	1.080824	0.631038	-0.167681
O7	O	0.738120	0.631014	-0.047405
O8	O	1.080878	0.415869	0.047468
O9	O	0.738094	0.846167	-0.167675
O10	O	1.061687	0.560217	-0.035369
O11	O	0.948915	0.560203	0.035437
O12	O	0.948880	0.701825	-0.106171
O13	O	0.836108	0.701811	-0.035365
Zr14	Zr	1.125851	0.630997	0.075699
Zr15	Zr	1.125806	0.631023	-0.075622
Zr16	Zr	0.884802	0.630994	0.075696
Zr17	Zr	0.884765	0.782323	-0.075618
Zr18	Zr	1.125844	0.479694	0.075692
O19	O	1.080893	0.751266	0.047483
O20	O	1.080829	0.751303	-0.167676
O21	O	0.738153	0.751263	0.047479
O22	O	1.272519	0.510717	0.167754
O23	O	1.272455	0.510754	-0.047405
O24	O	0.929779	0.510714	0.167751
O25	O	1.272460	0.631020	-0.047399
O26	O	1.080923	0.630981	0.167757
O27	O	0.929785	0.630979	0.167756
O28	O	1.272488	0.631003	0.047479
O29	O	0.929695	0.846169	-0.167674
O30	O	1.080913	0.415848	0.167748
O31	O	1.272514	0.415850	0.167750
O32	O	1.272479	0.415871	0.047470
O33	O	0.738129	0.846146	-0.047396
O34	O	0.929731	0.846148	-0.047394
O35	O	1.061729	0.560192	0.106245
O36	O	1.174501	0.560206	0.035439
O37	O	1.061693	0.701814	-0.035363
O38	O	0.948921	0.701800	0.035443
C39	C	1.005296	0.441752	0.000029
C40	C	1.005293	0.377520	0.000026
C41	C	1.064151	0.347357	-0.036936
C42	C	1.064162	0.286996	-0.036930
C43	C	1.005293	0.256812	0.000028
C44	C	0.946432	0.286980	0.036999
C45	C	0.946432	0.347334	0.036998
C46	C	0.906671	0.194783	-0.005248
C47	C	0.906668	0.134433	-0.005252
C48	C	1.005294	0.070657	0.000035
C49	C	1.103923	0.067246	0.005312
C50	C	1.103923	0.127600	0.005311
C51	C	1.005287	0.191368	0.000034
C52	C	1.064169	-0.024957	-0.036923
C53	C	1.064183	-0.085323	-0.036912
C54	C	0.946443	-0.085332	0.037013
C55	C	0.946440	-0.024973	0.037007
C56	C	1.005300	0.005213	0.000035
C57	C	0.703790	0.631005	0.000034
C58	C	0.601459	0.631004	0.000033
C59	C	0.612264	0.557088	0.036991
C60	C	0.516110	0.557092	0.036997
C61	C	0.398346	0.704935	-0.036918
C62	C	0.494500	0.704930	-0.036919
C63	C	0.680254	0.471732	0.079663
C64	C	0.584099	0.471735	0.079669
C65	C	1.306819	0.631012	0.000040
C66	C	1.409150	0.631013	0.000041
C67	C	1.005248	0.631041	-0.189242
C68	C	1.005230	0.631052	-0.253482
C69	C	1.005313	0.820265	0.000045
C70	C	1.005315	0.884497	0.000048
C71	C	1.088495	0.631054	-0.283644
C72	C	1.088521	0.631038	-0.343991
C73	C	1.005262	0.631036	-0.374181
C74	C	0.921989	0.631029	-0.344009
C75	C	0.921973	0.631037	-0.283659
C76	C	0.903652	0.678529	-0.493561
C77	C	0.903668	0.678526	-0.553912
C78	C	1.005312	0.631007	-0.560317
C79	C	1.106947	0.583501	-0.506368
C80	C	1.106931	0.583509	-0.446019
C81	C	1.005271	0.631026	-0.439619
C82	C	1.088612	0.630990	-0.655913
C83	C	1.088637	0.630969	-0.716259
C84	C	0.922097	0.630968	-0.716280
C85	C	0.922080	0.630981	-0.655932
C86	C	1.005337	0.630996	-0.625754
C87	C	1.005360	0.630976	0.189316
C88	C	1.005379	0.630965	0.253556
C89	C	1.306810	0.441756	0.000032
C90	C	1.409139	0.377525	0.000030
C91	C	1.005352	0.441720	0.189308
C92	C	1.005368	0.377477	0.253545
C93	C	1.306866	0.441723	0.189311
C94	C	1.409213	0.377481	0.253549
C95	C	0.703742	0.820294	-0.189237
C96	C	0.601395	0.884536	-0.253475
C97	C	0.703798	0.820262	0.000042
C98	C	0.601470	0.884492	0.000044
C99	C	1.005257	0.820297	-0.189234
C100	C	1.005241	0.884540	-0.253471
C101	C	1.398306	0.347367	-0.036938
C102	C	1.494445	0.287024	-0.036954
C103	C	1.601416	0.256835	0.000003
C104	C	1.612247	0.286999	0.036973
C105	C	1.516109	0.347345	0.036984
C106	C	1.064263	0.347302	0.320679
C107	C	1.064274	0.286948	0.381042
C108	C	1.005395	0.256765	0.374270
C109	C	0.946493	0.286946	0.307129
C110	C	0.946476	0.347303	0.246767
C111	C	1.516153	0.347320	0.246756
C112	C	1.612328	0.286966	0.307109
C113	C	1.601562	0.256771	0.374254
C114	C	1.494611	0.286939	0.381045
C115	C	1.398438	0.347295	0.320694
C116	C	0.494456	0.914705	-0.246682
C117	C	0.398280	0.975077	-0.307034
C118	C	0.409047	1.005275	-0.374179
C119	C	0.515997	0.975104	-0.380971
C120	C	0.612170	0.914737	-0.320619
C121	C	0.612303	0.914656	0.037006
C122	C	0.516164	0.975016	0.037005
C123	C	0.409192	1.005207	0.000046
C124	C	0.398362	0.975040	-0.036921
C125	C	0.494500	0.914686	-0.036923
C126	C	1.064130	0.914704	-0.246676
C127	C	1.064137	0.975059	-0.307027
C128	C	1.005247	1.005253	-0.374173
C129	C	0.946355	0.975084	-0.380967
C130	C	0.946356	0.914726	-0.320616
H131	H	1.184237	0.015312	0.009626
H132	H	1.112243	0.262381	0.435705
N133	N	0.832254	0.630997	-0.623406
H134	H	0.844876	0.631004	-0.580595
H135	H	0.835937	0.580726	-0.608817
H136	H	1.112086	0.890129	-0.192008
N137	N	1.178441	0.630980	-0.748800
H138	H	1.142095	0.681245	-0.798981
H139	H	1.222184	0.580675	-0.748648
N140	N	0.800299	0.138108	-0.010913
H141	H	0.739497	0.190533	-0.056596
H142	H	0.774988	0.136020	0.030214
N143	N	0.882999	0.254383	0.299830
H144	H	0.891961	0.211565	0.348260
H145	H	0.913916	0.229384	0.273146
H146	H	0.820873	0.717218	-0.488351
H147	H	0.330727	1.054430	-0.423316
H148	H	1.112209	0.371870	0.326207
H149	H	1.524945	0.371892	0.067092
H150	H	0.525004	0.999568	0.067110
H151	H	0.699242	0.890174	-0.326159
N152	N	0.584057	0.428361	0.048200
H153	H	0.514702	0.428348	0.048191
H154	H	0.653455	0.370319	0.077217
H155	H	1.112092	0.999617	-0.301482
H156	H	1.311213	0.371946	-0.067041
N157	N	0.882818	0.882210	-0.327958
H158	H	0.823566	0.892716	-0.304570
H159	H	0.936878	0.821633	-0.304580
H160	H	0.575397	0.445239	0.134319
H161	H	1.112102	-0.000381	-0.067025
N162	N	1.482749	0.254499	-0.076830
H163	H	1.400393	0.282778	-0.100232
H164	H	1.520086	0.193908	-0.042900
N165	N	1.283100	0.379806	0.328029
H166	H	1.223798	0.422622	0.279612
H167	H	1.274199	0.404793	0.354724
N168	N	0.482846	0.784654	-0.076781
H169	H	0.520132	0.787940	-0.042882
H170	H	0.400476	0.831435	-0.100188
N171	N	1.727626	0.254436	0.076831
H172	H	1.786876	0.211629	0.071212
H173	H	1.736556	0.229423	0.128521
H174	H	0.731152	0.445257	0.051497
H175	H	0.330920	1.054352	0.000054
N176	N	1.127656	0.379897	-0.076803
H177	H	1.186917	0.369388	-0.042904
H178	H	1.073580	0.440475	-0.113998
H179	H	0.820911	0.717212	-0.597836
H180	H	1.112120	-0.109886	-0.067008
H181	H	0.898521	0.371864	0.192106
N182	N	1.210296	0.123917	0.011005
H183	H	1.271066	0.071495	0.056702
H184	H	1.195228	0.171865	0.010171
H185	H	0.311251	0.765123	-0.067003
H186	H	0.732426	0.439006	0.136171
N187	N	0.882957	-0.117887	0.076881
H188	H	0.800586	-0.071843	0.057498
H189	H	0.913952	-0.142941	0.128575
H190	H	0.898507	-0.000411	0.067103
H191	H	0.311206	0.999633	-0.301490
H192	H	1.005255	1.054401	-0.423309
N193	N	1.178293	0.631067	-0.251093
H194	H	1.231047	0.631065	-0.279361
H195	H	1.221963	0.580799	-0.200912
H196	H	1.156328	0.631040	-0.368553
H197	H	0.898409	0.999677	-0.435645
H198	H	0.485663	0.890128	-0.067020
H199	H	1.524940	0.371895	0.192089
N200	N	1.005421	0.191663	0.439377
H201	H	1.051671	0.177130	0.482932
H202	H	1.038905	0.141623	0.439345
H203	H	1.679689	0.207697	-0.000011
N204	N	0.527601	1.007678	-0.453393
H205	H	0.450443	1.050494	-0.490589
H206	H	0.570101	0.961591	-0.458992
H207	H	1.189686	0.544827	-0.402095
N208	N	1.727672	0.254434	0.299774
H209	H	1.719890	0.282718	0.248079
H210	H	1.770141	0.193846	0.323207
H211	H	1.189716	0.544806	-0.511579
N212	N	0.727671	0.882102	0.076871
H213	H	0.719929	0.910380	0.100280
H214	H	0.770117	0.892610	0.042932
H215	H	0.826347	0.246719	-0.009568
H216	H	1.679881	0.207625	0.423390
H217	H	1.485862	0.262345	0.435723
H218	H	0.485668	0.890121	-0.192014
H219	H	0.311253	0.999631	-0.067012
N220	N	0.882938	0.379881	0.076858
H221	H	0.936947	0.369379	0.114049
H222	H	0.845647	0.351589	0.100231
N223	N	1.178406	0.631003	-0.623358
H224	H	1.231166	0.630996	-0.651622
H225	H	1.222070	0.580739	-0.573174
H226	H	0.898502	0.262400	0.067092
N227	N	1.127637	0.254451	-0.076800
H228	H	1.210010	0.229409	-0.057422
H229	H	1.096641	0.300541	-0.128497
N230	N	0.832301	0.630956	-0.748828
H231	H	0.844947	0.630948	-0.791636
H232	H	0.755889	0.681226	-0.763428
H233	H	0.854166	0.631035	-0.259100
N234	N	0.832192	0.631020	-0.376563
H235	H	0.844835	0.631017	-0.419373
H236	H	0.755780	0.681289	-0.391160
