data_functionalizedCrystal
_audit_creation_method	'MofGen! by Chris Wilmer'
_symmetry_space_group_name_H-M	'P1'
_symmetry_Int_Tables_number	1
_symmetry_cell_setting	triclinic
loop_
_symmetry_equiv_pos_as_xyz
  x,y,z
_cell_length_a	16.109301
_cell_length_b	19.188930
_cell_length_c	14.586319
_cell_angle_alpha	89.991095
_cell_angle_beta	89.999213
_cell_angle_gamma	83.303131
loop_
_atom_site_label
_atom_site_type_symbol
_atom_site_fract_x
_atom_site_fract_y
_atom_site_fract_z
O1	O	1.102833	0.089744	-0.076193
O2	O	0.860734	0.100912	-0.076209
O3	O	0.988770	-0.006311	-0.076182
O4	O	0.974797	0.196968	-0.076219
O5	O	0.988762	-0.006313	0.076298
O6	O	0.860726	0.100911	0.076272
O7	O	1.102825	0.089742	0.076288
Cu8	Cu	0.981774	0.095326	0.090203
Cu9	Cu	0.981785	0.095328	-0.090124
O10	O	0.974789	0.196966	0.076262
C11	C	0.829757	0.100459	0.000030
C12	C	0.737466	0.099103	0.000025
C13	C	0.988313	-0.032324	0.000061
C14	C	0.986955	-0.109832	0.000068
C15	C	0.514993	0.159573	0.000024
C16	C	0.428277	0.158294	0.000030
C17	C	0.448573	0.031076	0.000050
C18	C	0.535287	0.032357	0.000050
C19	C	0.568495	0.096608	0.000033
C20	C	0.395064	0.094047	0.000038
C21	C	0.301043	0.092659	0.000045
C22	C	0.662522	0.097996	0.000028
C23	C	1.062082	-0.154580	0.000078
C24	C	1.060806	-0.227407	0.000063
C25	C	0.984399	-0.255482	0.000057
C26	C	0.909261	-0.210724	0.000043
C27	C	0.910540	-0.137899	0.000048
N28	N	0.925991	-0.363624	0.051945
N29	N	0.924782	-0.432805	0.051942
C30	C	0.980543	-0.474900	0.000038
N31	N	1.037571	-0.445200	-0.051850
N32	N	1.038783	-0.376013	-0.051843
C33	C	0.983004	-0.334448	0.000051
C34	C	1.054292	-0.598616	0.000030
C35	C	1.053012	-0.671443	0.000010
C36	C	0.901465	-0.654759	-0.000001
C37	C	0.902747	-0.581933	0.000010
C38	C	0.979162	-0.553866	0.000030
C39	C	1.133802	0.090196	0.000047
C40	C	1.226093	0.091552	0.000046
C41	C	0.975246	0.222979	0.000017
C42	C	0.976604	0.300486	0.000003
N43	N	0.981773	0.095325	0.217034
N44	N	0.981793	0.095325	-0.216955
C45	C	1.038486	0.047862	0.452052
C46	C	1.038488	0.047860	0.548034
C47	C	0.925074	0.142790	0.548020
C48	C	0.925068	0.142787	0.452040
C49	C	0.981779	0.095324	0.404059
C50	C	0.981787	0.095325	0.596020
C51	C	0.981789	0.095323	0.700087
C52	C	0.981776	0.095325	0.299985
H53	H	0.542027	0.211890	0.000017
O54	O	1.134047	-0.719713	0.000016
H55	H	1.137075	-0.753307	0.062156
O56	O	1.099629	-0.003349	0.400304
H57	H	1.090099	0.004620	0.325500
H58	H	0.384719	0.209567	0.000025
O59	O	0.412757	-0.038221	0.000062
H60	H	0.343471	-0.028535	0.000051
H61	H	0.578851	-0.018920	0.000059
H62	H	1.124306	-0.131733	0.000091
H63	H	1.116514	-0.575763	0.000042
O64	O	0.826847	-0.240998	0.000047
H65	H	0.838579	-0.299156	0.000057
O66	O	0.821711	-0.533668	0.000017
H67	H	0.818663	-0.500083	-0.062132
O68	O	0.863920	0.193986	0.599777
H69	H	0.874316	0.248415	0.581330
H70	H	0.839253	-0.677617	-0.000010
O71	O	1.099661	-0.003322	0.599802
H72	H	1.139098	-0.036318	0.550309
H73	H	0.878886	0.181437	0.412962
H74	H	0.849360	-0.101464	0.000041
O75	O	1.141838	-0.275685	0.000085
H76	H	1.195188	-0.243934	0.000108
