data_functionalizedCrystal
_audit_creation_method	'MofGen! by Chris Wilmer'
_symmetry_space_group_name_H-M	'P1'
_symmetry_Int_Tables_number	1
_symmetry_cell_setting	triclinic
loop_
_symmetry_equiv_pos_as_xyz
  x,y,z
_cell_length_a	10.654562
_cell_length_b	12.837942
_cell_length_c	9.130313
_cell_angle_alpha	90.005198
_cell_angle_beta	90.003553
_cell_angle_gamma	89.659522
loop_
_atom_site_label
_atom_site_type_symbol
_atom_site_fract_x
_atom_site_fract_y
_atom_site_fract_z
O1	O	1.683734	0.145788	0.121896
O2	O	1.319771	0.159658	0.121878
O3	O	1.493682	0.001762	0.121877
O4	O	1.509823	0.303684	0.121896
O5	O	1.493678	0.001753	-0.121721
O6	O	1.319767	0.159649	-0.121721
O7	O	1.683730	0.145780	-0.121703
Cu8	Cu	1.501749	0.152714	-0.143954
Cu9	Cu	1.501753	0.152724	0.144129
O10	O	1.509819	0.303676	-0.121703
C11	C	1.272860	0.158632	0.000076
C12	C	1.133084	0.155577	0.000069
C13	C	1.067396	0.154148	-0.132706
C14	C	0.936061	0.151285	-0.132681
C15	C	0.936115	0.151287	0.132904
C16	C	1.067447	0.154142	0.132878
C17	C	1.067364	0.154151	-0.286039
C18	C	0.936030	0.151289	-0.286015
C19	C	1.488227	-0.036902	0.000079
C20	C	1.471965	-0.152097	0.000080
C21	C	1.667469	-0.391643	0.000121
C22	C	1.652195	-0.499879	0.000122
C23	C	1.426144	-0.476808	0.000096
C24	C	1.441418	-0.368572	0.000094
C25	C	1.562084	-0.325993	0.000104
C26	C	1.577357	-0.217755	0.000092
C27	C	1.351307	-0.194686	0.000076
C28	C	1.336033	-0.302922	0.000078
C29	C	1.730641	0.146805	0.000102
C30	C	1.870417	0.149860	0.000119
C31	C	1.515274	0.342340	0.000100
C32	C	1.531536	0.457534	0.000108
N33	N	1.501756	0.152723	0.346752
N34	N	1.501755	0.152706	-0.346577
C35	C	1.578937	0.082944	0.423404
C36	C	1.578941	0.082938	0.576741
C37	C	1.424570	0.222492	0.576760
C38	C	1.424574	0.222503	0.423426
C39	C	1.668059	0.002370	0.423394
C40	C	1.668062	0.002364	0.576731
H41	H	0.882657	0.150118	0.241032
H42	H	1.361738	0.279331	0.361018
H43	H	1.327902	-0.511495	0.000103
C44	C	0.884054	0.248147	-0.365515
H45	H	0.794932	0.246193	-0.365508
H46	H	0.911415	0.309198	-0.316477
H47	H	0.913737	0.248788	-0.463621
C48	C	1.139701	0.155704	0.278929
H49	H	1.081796	0.154450	0.358023
H50	H	1.193274	0.096423	0.284427
H51	H	1.188594	0.217221	0.284452
H52	H	1.237790	-0.337605	0.000075
H53	H	1.361731	0.279306	0.639205
C54	C	1.800192	-0.344802	0.000120
H55	H	1.860770	-0.399404	0.000133
H56	H	1.810844	-0.303064	-0.084828
H57	H	1.810851	-0.303054	0.085079
C58	C	1.119296	0.057287	-0.365572
H59	H	1.051531	0.015506	-0.398252
H60	H	1.168009	0.078488	-0.447324
H61	H	1.170373	0.018095	-0.300183
C62	C	1.235379	-0.122469	0.000070
H63	H	1.261754	-0.051909	0.000081
H64	H	1.186433	-0.135475	-0.084878
H65	H	1.186442	-0.135462	0.085029
C66	C	1.768118	-0.572090	0.000132
H67	H	1.842165	-0.531226	0.000127
H68	H	1.766858	-0.614788	0.085079
H69	H	1.766859	-0.614795	-0.084828
C70	C	1.118481	0.256358	-0.350323
H71	H	1.050364	0.299895	-0.378939
H72	H	1.167357	0.291014	-0.278455
H73	H	1.169244	0.241215	-0.433260
H74	H	1.766472	0.020297	0.381798
C75	C	1.615966	-0.099499	0.359101
H76	H	1.592770	-0.144873	0.436575
H77	H	1.544462	-0.084359	0.300531
H78	H	1.678546	-0.132125	0.300547
H79	H	1.638085	-0.077432	0.618323
H80	H	1.761953	0.027769	0.624303
H81	H	0.898184	0.075621	-0.333599
H82	H	1.675610	-0.183090	0.000095
