data_functionalizedCrystal
_audit_creation_method	'MofGen! by Chris Wilmer'
_symmetry_space_group_name_H-M	'P1'
_symmetry_Int_Tables_number	1
_symmetry_cell_setting	triclinic
loop_
_symmetry_equiv_pos_as_xyz
  x,y,z
_cell_length_a	14.044209
_cell_length_b	10.868271
_cell_length_c	11.792241
_cell_angle_alpha	90.001559
_cell_angle_beta	91.309316
_cell_angle_gamma	90.000974
loop_
_atom_site_label
_atom_site_type_symbol
_atom_site_fract_x
_atom_site_fract_y
_atom_site_fract_z
O1	O	-1.259115	0.102175	0.273752
O2	O	-0.925782	0.435508	0.607086
O3	O	-0.592448	0.768841	0.940419
O4	O	-0.983095	0.102210	0.263876
O5	O	-0.649762	0.435543	0.597209
O6	O	-0.316428	0.768876	0.930543
O7	O	-1.127803	0.102183	0.104272
O8	O	-0.794470	0.435516	0.437606
O9	O	-0.461137	0.768849	0.770939
O10	O	-1.114407	0.102202	0.433356
O11	O	-0.781073	0.435535	0.766689
O12	O	-0.447740	0.768868	1.100023
O13	O	-1.127790	-0.102462	0.104277
O14	O	-0.794457	0.230871	0.437610
O15	O	-0.461123	0.564205	0.770943
O16	O	-0.983082	-0.102435	0.263880
O17	O	-0.649748	0.230898	0.597214
O18	O	-0.316415	0.564232	0.930547
O19	O	-1.259102	-0.102470	0.273757
O20	O	-0.925769	0.230863	0.607090
O21	O	-0.592435	0.564197	0.940423
Zn22	Zn	-1.121090	-0.134944	0.268819
Zn23	Zn	-0.787756	0.198389	0.602152
Zn24	Zn	-0.454423	0.531722	0.935486
Zn25	Zn	-1.121107	0.134684	0.268813
Zn26	Zn	-0.787774	0.468017	0.602147
Zn27	Zn	-0.454440	0.801351	0.935480
O28	O	-1.114394	-0.102443	0.433360
O29	O	-0.781060	0.230890	0.766694
O30	O	-0.447727	0.564224	1.100027
C31	C	-0.947752	-0.000108	0.259554
C32	C	-0.614418	0.333225	0.592887
C33	C	-0.281085	0.666558	0.926221
C34	C	-0.842459	-0.000095	0.246656
C35	C	-0.509126	0.333238	0.579989
C36	C	-0.175793	0.666572	0.913323
N37	N	-1.121085	-0.318958	0.268823
N38	N	-0.787752	0.014375	0.602156
N39	N	-0.454418	0.347708	0.935490
C40	C	-1.121092	-0.430296	0.268824
C41	C	-0.787759	-0.096963	0.602157
C42	C	-0.454426	0.236371	0.935491
C43	C	-1.121105	-0.569974	0.268815
C44	C	-0.787771	-0.236640	0.602148
C45	C	-0.454438	0.096693	0.935481
C46	C	-0.649677	-0.000118	0.223076
C47	C	-0.316343	0.333215	0.556409
C48	C	0.016990	0.666549	0.889742
C49	C	-0.592514	-0.000117	0.314561
C50	C	-0.259180	0.333216	0.647895
C51	C	0.074153	0.666549	0.981228
C52	C	-0.485243	-0.000130	0.301441
C53	C	-0.151909	0.333203	0.634774
C54	C	0.181424	0.666537	0.968107
C55	C	-0.756958	-0.000105	0.236194
C56	C	-0.423624	0.333228	0.569528
C57	C	-0.090291	0.666561	0.902861
C58	C	-0.294445	-0.000146	0.278081
C59	C	0.038888	0.333187	0.611414
C60	C	0.372222	0.666521	0.944748
C61	C	-0.399736	-0.000140	0.290986
C62	C	-0.066403	0.333193	0.624319
C63	C	0.266930	0.666526	0.957653
C64	C	-1.126955	-0.000139	0.061905
C65	C	-0.793622	0.333194	0.395238
C66	C	-0.460289	0.666528	0.728571
C67	C	-1.124436	-0.000138	-0.064346
C68	C	-0.791103	0.333196	0.268988
C69	C	-0.457770	0.666529	0.602321
N70	N	-1.121120	0.318698	0.268801
N71	N	-0.787786	0.652031	0.602135
N72	N	-0.454453	0.985365	0.935468
C73	C	-1.119805	-0.000116	-0.295493
C74	C	-0.786472	0.333217	0.037841
C75	C	-0.453138	0.666550	0.371174
C76	C	-1.122378	-0.000128	-0.166866
C77	C	-0.789045	0.333205	0.166468
C78	C	-0.455712	0.666539	0.499801
C79	C	-1.115242	-0.000119	0.475728
C80	C	-0.781908	0.333215	0.809061
C81	C	-0.448575	0.666548	1.142395
C82	C	-1.117760	-0.000112	0.601978
C83	C	-0.784427	0.333221	0.935311
C84	C	-0.451094	0.666555	1.268645
H85	H	-0.624138	-0.000107	0.402738
H86	H	-0.290804	0.333227	0.736071
H87	H	0.042529	0.666560	1.069405
H88	H	-0.618054	-0.000129	0.134906
H89	H	-0.284721	0.333204	0.468239
H90	H	0.048612	0.666537	0.801573
