data_functionalizedCrystal
_audit_creation_method	'MofGen! by Chris Wilmer'
_symmetry_space_group_name_H-M	'P1'
_symmetry_Int_Tables_number	1
_symmetry_cell_setting	triclinic
loop_
_symmetry_equiv_pos_as_xyz
  x,y,z
_cell_length_a	13.033293
_cell_length_b	12.594516
_cell_length_c	13.032268
_cell_angle_alpha	82.849256
_cell_angle_beta	89.079182
_cell_angle_gamma	82.803173
loop_
_atom_site_label
_atom_site_type_symbol
_atom_site_fract_x
_atom_site_fract_y
_atom_site_fract_z
Zn1	Zn	1.498409	0.331152	-0.781495
Zn2	Zn	1.520127	0.484114	-0.609528
Zn3	Zn	1.348270	0.325531	-0.587671
Zn4	Zn	1.326371	0.528485	-0.759570
O5	O	1.423294	0.417321	-0.684566
O6	O	1.645211	0.335225	-0.777007
O7	O	1.515584	0.442155	-0.462720
O8	O	1.368262	0.177325	-0.613410
O9	O	1.661167	0.447606	-0.650663
O10	O	1.478568	0.181455	-0.755813
O11	O	1.389321	0.325646	-0.446661
O12	O	1.201444	0.368671	-0.592150
O13	O	1.330938	0.523231	-0.906388
O14	O	1.185354	0.517780	-0.718444
O15	O	1.457333	0.378251	-0.922496
O16	O	1.494349	0.638952	-0.629403
O17	O	1.351997	0.671551	-0.739638
C18	C	1.156082	0.447431	-0.650547
C19	C	1.041764	0.460342	-0.636018
C20	C	0.982890	0.410609	-0.692149
C21	C	0.864737	0.423952	-0.677134
C22	C	1.423178	0.693873	-0.684540
C23	C	1.423219	0.812178	-0.684575
C24	C	1.345780	0.899196	-0.744480
C25	C	1.332636	0.959211	-0.647455
C26	C	1.436417	0.962958	-0.781622
C27	C	1.410031	0.870633	-0.587493
C28	C	1.513848	0.874378	-0.721729
C29	C	1.500747	0.934348	-0.624644
C30	C	1.691550	0.387093	-0.718719
C31	C	1.805864	0.374212	-0.733273
C32	C	1.389270	0.456317	-0.952799
C33	C	1.374771	0.472935	-1.067104
C34	C	1.423390	1.139693	-0.684612
C35	C	1.423316	1.021397	-0.684613
C36	C	1.430845	0.408611	-1.126035
C37	C	1.415861	0.425785	-1.244176
C38	C	1.457245	0.378392	-0.417384
C39	C	1.471943	0.361452	-0.303105
H40	H	1.280216	0.883174	-0.795045
H41	H	1.489942	0.340823	-1.089025
H42	H	1.019959	0.358149	-0.751318
H43	H	0.827673	0.476409	-0.617955
H44	H	1.356750	0.493568	-1.281180
O45	O	1.542425	0.280641	-1.258804
C46	C	1.621522	0.189752	-1.100649
C47	C	1.541697	0.281334	-1.150688
H48	H	1.620944	0.190268	-1.013228
H49	H	1.701834	0.202099	-1.132176
H50	H	1.600831	0.109032	-1.119502
H51	H	1.562291	0.362095	-1.131855
H52	H	1.461407	0.268892	-1.119158
O53	O	1.578908	0.953413	-0.564225
C54	C	1.667169	1.086993	-0.496961
C55	C	1.578637	1.065550	-0.565440
H56	H	1.666966	1.177652	-0.497904
H57	H	1.744274	1.050642	-0.527899
H58	H	1.655763	1.048544	-0.414317
H59	H	1.589944	1.103996	-0.648100
H60	H	1.501565	1.101877	-0.534417
H61	H	1.315665	0.540714	-1.104114
H62	H	1.590422	0.837333	-0.753168
H63	H	1.398816	0.830569	-0.505403
O64	O	1.241248	1.003540	-0.610120
C65	C	1.089272	1.132784	-0.643612
C66	C	1.192758	1.082696	-0.686004
H67	H	1.050027	1.196774	-0.704952
H68	H	1.104128	1.171448	-0.571559
H69	H	1.037011	1.067142	-0.622960
H70	H	1.245070	1.148274	-0.706717
H71	H	1.177824	1.044005	-0.758020
O72	O	0.850100	0.311789	-0.803989
C73	C	0.953993	0.304250	-0.958147
C74	C	0.903933	0.375068	-0.878150
H75	H	0.997546	0.355377	-1.018114
H76	H	0.891323	0.268907	-0.998154
H77	H	1.010232	0.236007	-0.917344
H78	H	0.847701	0.443364	-0.918872
H79	H	0.966659	0.410329	-0.838146
O80	O	0.997381	0.522923	-0.565501
C81	C	0.839162	0.593195	-0.486167
C82	C	0.889285	0.522308	-0.566081
H83	H	0.751762	0.592702	-0.486594
H84	H	0.857850	0.679328	-0.506735
H85	H	0.870788	0.559968	-0.405948
H86	H	0.857688	0.555438	-0.646328
H87	H	0.870603	0.436184	-0.545423
O88	O	1.449567	1.010814	-0.879575
C89	C	1.382680	1.047907	-1.053377
C90	C	1.367687	0.993644	-0.942494
H91	H	1.316481	1.034064	-1.104272
H92	H	1.459228	1.011720	-1.085604
H93	H	1.383401	1.138185	-1.052321
H94	H	1.366918	0.903364	-0.943460
H95	H	1.291153	1.029916	-0.910311
