data_functionalizedCrystal
_audit_creation_method	'MofGen! by Chris Wilmer'
_symmetry_space_group_name_H-M	'P1'
_symmetry_Int_Tables_number	1
_symmetry_cell_setting	triclinic
loop_
_symmetry_equiv_pos_as_xyz
  x,y,z
_cell_length_a	17.077404
_cell_length_b	17.077402
_cell_length_c	17.077396
_cell_angle_alpha	90.029784
_cell_angle_beta	90.019699
_cell_angle_gamma	90.019951
loop_
_atom_site_label
_atom_site_type_symbol
_atom_site_fract_x
_atom_site_fract_y
_atom_site_fract_z
Zn1	Zn	-1.200055	0.312570	-0.443840
Zn2	Zn	-1.199962	0.443844	-0.312571
Zn3	Zn	-1.068786	0.312590	-0.312587
Zn4	Zn	-1.068754	0.443791	-0.443794
O5	O	-1.134389	0.378199	-0.378198
O6	O	-1.309889	0.329997	-0.426439
O7	O	-1.182536	0.426464	-0.202726
O8	O	-1.086252	0.202740	-0.330024
O9	O	-1.309821	0.426445	-0.329996
O10	O	-1.182694	0.202725	-0.426455
O11	O	-1.086162	0.330032	-0.202738
O12	O	-0.958935	0.329980	-0.329980
O13	O	-1.086197	0.426353	-0.553647
O14	O	-0.958912	0.426373	-0.426377
O15	O	-1.182663	0.329945	-0.553681
O16	O	-1.182505	0.553684	-0.329952
O17	O	-1.086107	0.553645	-0.426361
C18	C	-0.930441	0.378173	-0.378176
C19	C	-0.843192	0.378181	-0.378185
C20	C	-0.802238	0.328050	-0.428478
C21	C	-0.720257	0.328054	-0.428480
C22	C	-0.679232	0.378193	-0.378191
C23	C	-0.720192	0.428327	-0.327892
C24	C	-0.802171	0.428318	-0.327887
C25	C	-0.549322	0.428342	-0.327908
C26	C	-0.467337	0.428351	-0.327914
C27	C	-0.467408	0.328077	-0.428500
C28	C	-0.549387	0.328069	-0.428495
C29	C	-0.590341	0.378203	-0.378197
C30	C	-1.134314	0.582146	-0.378167
C31	C	-1.134353	0.669396	-0.378179
C32	C	-1.134437	0.378141	-0.582942
C33	C	-1.134457	0.378116	-0.670192
C34	C	-0.339134	0.378221	-0.378215
C35	C	-0.426383	0.378220	-0.378207
C36	C	-1.134487	0.173454	-0.378247
C37	C	-1.134528	0.086204	-0.378267
C38	C	-1.184598	0.710381	-0.328033
C39	C	-1.184637	0.792361	-0.328053
C40	C	-1.134425	0.833356	-0.378216
C41	C	-1.084178	0.792365	-0.428368
C42	C	-1.084144	0.710386	-0.428351
C43	C	-1.084250	0.963235	-0.428398
C44	C	-1.084283	1.045220	-0.428414
C45	C	-1.184743	1.045210	-0.328100
C46	C	-1.184709	0.963231	-0.328083
C47	C	-1.134461	0.922247	-0.378234
C48	C	-1.184689	0.327913	-0.711201
C49	C	-1.184698	0.327886	-0.793182
C50	C	-1.134479	0.378068	-0.834152
C51	C	-1.084242	0.428274	-0.793137
C52	C	-1.084229	0.428296	-0.711158
C53	C	-1.084274	0.428227	-0.964007
C54	C	-1.084288	0.428207	-1.045992
C55	C	-1.184742	0.327818	-1.046031
C56	C	-1.184730	0.327839	-0.964052
C57	C	-1.134493	0.378046	-0.923043
C58	C	-1.134387	0.378200	-0.174250
C59	C	-1.134519	0.378003	-0.087001
H60	H	-1.225483	0.677009	-0.287181
O61	O	-1.233393	0.832319	-0.279407
C62	C	-1.188844	0.879881	-0.228660
H63	H	-1.129291	0.892134	-0.256199
H64	H	-1.180356	0.848439	-0.170401
C65	C	-1.305240	0.942710	-0.180902
C66	C	-1.232097	0.957764	-0.214729
H67	H	-1.331921	0.990751	-0.172305
H68	H	-1.335253	0.910664	-0.215089
H69	H	-1.298156	0.916506	-0.132357
H70	H	-1.239182	0.983959	-0.263278
H71	H	-1.202085	0.989816	-0.180550
O72	O	-0.589193	0.477082	-0.279160
C73	C	-0.636603	0.527844	-0.323763
H74	H	-0.648912	0.500229	-0.383298
H75	H	-0.604998	0.586029	-0.332287
C76	C	-0.699337	0.575912	-0.207425
C77	C	-0.714461	0.541992	-0.280545
H78	H	-0.747362	0.584643	-0.180765
H79	H	-0.667395	0.541715	-0.177374
H80	H	-0.672998	0.624396	-0.214539
H81	H	-0.740791	0.493504	-0.273430
H82	H	-0.746410	0.576181	-0.310594
O83	O	-0.680379	0.476951	-0.278930
C84	C	-0.700396	0.459708	-0.200724
H85	H	-0.722942	0.396990	-0.196869
H86	H	-0.747964	0.501760	-0.180128
C87	C	-0.599856	0.545821	-0.153060
C88	C	-0.627541	0.468787	-0.148324
H89	H	-0.554918	0.551425	-0.120736
H90	H	-0.586371	0.557440	-0.205749
H91	H	-0.639503	0.580856	-0.135898
H92	H	-0.587898	0.433755	-0.165496
H93	H	-0.641018	0.457162	-0.095637
H94	H	-1.225591	0.929854	-0.287233
O95	O	-1.233525	0.279225	-0.833109
C96	C	-1.284220	0.323905	-0.880522
H97	H	-1.256512	0.383388	-0.892780
H98	H	-1.342389	0.332540	-0.848947
C99	C	-1.332479	0.207635	-0.943354
C100	C	-1.298445	0.280691	-0.958415
H101	H	-1.341257	0.180978	-0.991400
H102	H	-1.298327	0.177532	-0.911409
H103	H	-1.380950	0.214841	-0.917039
H104	H	-1.249971	0.273483	-0.984720
H105	H	-1.332589	0.310791	-0.990366
H106	H	-0.433937	0.469180	-0.286965
O107	O	-1.035528	0.477182	-0.671350
C108	C	-1.052643	0.555412	-0.691379
H109	H	-1.115353	0.559371	-0.713933
H110	H	-1.010552	0.575920	-0.738945
C111	C	-0.966467	0.602955	-0.590835
C112	C	-1.043490	0.607818	-0.618530
H113	H	-0.960817	0.635283	-0.545900
H114	H	-0.954933	0.550250	-0.577342
H115	H	-0.931400	0.620044	-0.630481
H116	H	-1.078554	0.590721	-0.578889
H117	H	-1.055029	0.660522	-0.632015
H118	H	-1.043393	0.469068	-1.079347
O119	O	-1.233459	0.279060	-1.085984
C120	C	-1.222711	0.289806	-1.167126
H121	H	-1.162124	0.315509	-1.178302
H122	H	-1.269258	0.331600	-1.190397
C123	C	-1.304351	0.178797	-1.195500
C124	C	-1.229933	0.210360	-1.209228
H125	H	-1.308809	0.129792	-1.221471
H126	H	-1.311594	0.171558	-1.140833
H127	H	-1.343132	0.213632	-1.214892
H128	H	-1.191154	0.175529	-1.189826
H129	H	-1.222683	0.217590	-1.263892
H130	H	-0.686916	0.287233	-0.469435
O131	O	-1.035481	0.923505	-0.477225
C132	C	-1.052614	0.943452	-0.555481
H133	H	-1.082809	1.002952	-0.557149
H134	H	-1.092942	0.897265	-0.581945
C135	C	-0.938979	0.874177	-0.600915
C136	C	-0.976059	0.947260	-0.602964
H137	H	-0.891757	0.876523	-0.630206
H138	H	-0.927437	0.860736	-0.548193
H139	H	-0.972593	0.835696	-0.622967
H140	H	-0.942448	0.985737	-0.580903
H141	H	-0.987593	0.960708	-0.655684
H142	H	-1.225660	1.078584	-0.287267
H143	H	-0.835514	0.469140	-0.286933
H144	H	-1.043411	1.078595	-0.469275
O145	O	-1.233497	0.279091	-0.671528
C146	C	-1.277847	0.234788	-0.725307
H147	H	-1.245704	0.232052	-0.783739
H148	H	-1.337452	0.263538	-0.734030
C149	C	-1.328674	0.154613	-0.621571
C150	C	-1.289192	0.151247	-0.693336
H151	H	-1.335675	0.103082	-0.601849
H152	H	-1.298797	0.184462	-0.585338
H153	H	-1.378340	0.178575	-0.628850
H154	H	-1.239523	0.127295	-0.686054
H155	H	-1.319061	0.121392	-0.729567
O156	O	-1.233428	0.278975	-0.924295
C157	C	-1.216319	0.200736	-0.944367
H158	H	-1.153614	0.196766	-0.966891
H159	H	-1.258419	0.180213	-0.991969
C160	C	-1.302482	0.153236	-0.843900
C161	C	-1.225464	0.148359	-0.871557
H162	H	-1.308126	0.120926	-0.798989
H163	H	-1.314011	0.205947	-0.830378
H164	H	-1.337556	0.136134	-0.883575
H165	H	-1.190392	0.165470	-0.831886
H166	H	-1.213929	0.095650	-0.885070
O167	O	-0.589119	0.279290	-0.477370
C168	C	-0.535396	0.235054	-0.521778
H169	H	-0.476943	0.232299	-0.489638
H170	H	-0.526697	0.263875	-0.581345
C171	C	-0.639212	0.154906	-0.572710
C172	C	-0.567422	0.151516	-0.533232
H173	H	-0.658968	0.103377	-0.579779
H174	H	-0.675408	0.184710	-0.542794
H175	H	-0.631954	0.178927	-0.622345
H176	H	-0.574683	0.127505	-0.483595
H177	H	-0.531228	0.121706	-0.563141
O178	O	-1.035463	0.477085	-0.924291
C179	C	-0.991136	0.521368	-0.978029
H180	H	-1.023288	0.524056	-1.036477
H181	H	-0.931522	0.492631	-0.986732
C182	C	-0.940319	0.601626	-0.874234
C183	C	-0.979813	0.604933	-0.946018
H184	H	-0.933331	0.653172	-0.854488
H185	H	-0.970181	0.571790	-0.838029
H186	H	-0.890646	0.577675	-0.881496
H187	H	-1.029489	0.628874	-0.938754
H188	H	-0.949960	0.634775	-0.982222
H189	H	-0.434060	0.287254	-0.469453
H190	H	-1.043350	0.469130	-0.826501
H191	H	-1.043230	0.677017	-0.469186
O192	O	-0.841965	0.279271	-0.477357
C193	C	-0.788234	0.235040	-0.521760
H194	H	-0.729785	0.232286	-0.489615
H195	H	-0.779530	0.263864	-0.581325
C196	C	-0.892041	0.154889	-0.572708
C197	C	-0.820255	0.151501	-0.533222
H198	H	-0.911794	0.103360	-0.579782
H199	H	-0.928242	0.184691	-0.542794
H200	H	-0.884778	0.178913	-0.622341
H201	H	-0.827521	0.127487	-0.483586
H202	H	-0.784057	0.121694	-0.563127
H203	H	-1.043298	0.825749	-0.469215
