data_functionalizedCrystal
_audit_creation_method	'MofGen! by Chris Wilmer'
_symmetry_space_group_name_H-M	'P1'
_symmetry_Int_Tables_number	1
_symmetry_cell_setting	triclinic
loop_
_symmetry_equiv_pos_as_xyz
  x,y,z
_cell_length_a	25.639243
_cell_length_b	25.639240
_cell_length_c	12.645323
_cell_angle_alpha	90.039057
_cell_angle_beta	90.025047
_cell_angle_gamma	90.035481
loop_
_atom_site_label
_atom_site_type_symbol
_atom_site_fract_x
_atom_site_fract_y
_atom_site_fract_z
Zn1	Zn	0.799294	-0.208109	0.599409
Zn2	Zn	1.299294	0.291891	1.099409
Zn3	Zn	0.799212	-0.295547	0.422105
Zn4	Zn	1.299212	0.204453	0.922105
Zn5	Zn	0.711856	-0.208132	0.422146
Zn6	Zn	1.211856	0.291868	0.922146
Zn7	Zn	0.711824	-0.295519	0.599313
Zn8	Zn	1.211824	0.204481	1.099313
O9	O	0.755546	-0.251827	0.510743
O10	O	1.255546	0.248173	1.010743
O11	O	0.872448	-0.219710	0.575912
O12	O	1.372448	0.280290	1.075912
O13	O	0.787604	-0.283973	0.273763
O14	O	1.287604	0.216027	0.773763
O15	O	0.723502	-0.134964	0.445717
O16	O	1.223502	0.365036	0.945717
O17	O	0.872388	-0.283951	0.445648
O18	O	1.372388	0.216049	0.945648
O19	O	0.787742	-0.134947	0.575952
O20	O	1.287742	0.365053	1.075952
O21	O	0.723423	-0.219750	0.273793
O22	O	1.223423	0.280250	0.773793
O23	O	0.638687	-0.219722	0.445625
O24	O	1.138687	0.280278	0.945625
O25	O	0.723448	-0.283902	0.747673
O26	O	1.223448	0.216098	1.247673
O27	O	0.638663	-0.283925	0.575788
O28	O	1.138663	0.216075	1.075788
O29	O	0.787711	-0.219682	0.747744
O30	O	1.287711	0.280318	1.247744
O31	O	0.787572	-0.368709	0.445555
O32	O	1.287572	0.131291	0.945555
O33	O	0.723369	-0.368688	0.575749
O34	O	1.223369	0.131312	1.075749
C35	C	0.619704	-0.251823	0.510701
C36	C	1.119704	0.248177	1.010701
C37	C	0.561590	-0.251834	0.510708
C38	C	1.061590	0.248166	1.010708
C39	C	0.201252	-0.218429	0.578685
C40	C	0.701252	0.281571	1.078685
C41	C	0.146648	-0.218429	0.578691
C42	C	0.646648	0.281571	1.078691
O43	O	0.118433	-0.190017	0.636435
O44	O	0.618433	0.309983	1.136435
N45	N	0.119307	-0.251825	0.510772
N46	N	0.619307	0.248175	1.010772
C47	C	0.146574	-0.285221	0.442835
C48	C	0.646574	0.214779	0.942835
O49	O	0.118305	-0.313627	0.385064
O50	O	0.618305	0.186373	0.885064
C51	C	0.201177	-0.285218	0.442823
C52	C	0.701177	0.214782	0.942823
C53	C	0.228515	-0.251823	0.510755
C54	C	0.728515	0.248177	1.010755
C55	C	0.228590	-0.185036	0.646610
C56	C	0.728590	0.314964	1.146610
C57	C	0.283191	-0.185038	0.646604
C58	C	0.783191	0.314962	1.146604
C59	C	0.310453	-0.218432	0.578674
C60	C	0.810453	0.281568	1.078674
C61	C	0.283116	-0.251824	0.510749
C62	C	0.783116	0.248176	1.010749
C63	C	0.228443	-0.318611	0.374881
C64	C	0.728443	0.181389	0.874881
C65	C	0.283050	-0.318605	0.374875
C66	C	0.783050	0.181395	0.874875
C67	C	0.310387	-0.285210	0.442807
C68	C	0.810387	0.214790	0.942807
C69	C	0.364979	-0.285220	0.442813
C70	C	0.864979	0.214780	0.942813
N71	N	0.392319	-0.251823	0.510733
N72	N	0.892319	0.248177	1.010733
C73	C	0.365057	-0.218429	0.578663
C74	C	0.865057	0.281571	1.078663
C75	C	0.031903	-0.285223	0.442862
C76	C	0.531903	0.214777	0.942862
C77	C	-0.022699	-0.285229	0.442877
C78	C	0.477301	0.214771	0.942877
C79	C	-0.022621	-0.218436	0.578733
C80	C	0.477379	0.281564	1.078733
C81	C	0.031982	-0.218433	0.578722
C82	C	0.531982	0.281567	1.078722
C83	C	0.059244	-0.251826	0.510781
C84	C	0.559244	0.248174	1.010781
C85	C	0.479722	-0.218435	0.578647
C86	C	0.979722	0.281565	1.078647
C87	C	0.534327	-0.218440	0.578639
C88	C	1.034327	0.281560	1.078639
C89	C	0.534244	-0.285231	0.442779
C90	C	1.034244	0.214769	0.942779
C91	C	0.479644	-0.285227	0.442791
C92	C	0.979644	0.214773	0.942791
C93	C	0.452384	-0.251825	0.510729
C94	C	0.952384	0.248175	1.010729
O95	O	0.393228	-0.313616	0.385096
O96	O	0.893228	0.186384	0.885096
O97	O	0.393333	-0.190023	0.636414
O98	O	0.893333	0.309977	1.136414
C99	C	0.755473	-0.387669	0.510660
C100	C	1.255473	0.112331	1.010660
C101	C	0.755489	-0.445783	0.510660
C102	C	1.255489	0.054217	1.010660
C103	C	0.789013	-0.806099	0.578679
C104	C	1.289013	-0.306099	1.078679
C105	C	0.789028	-0.860703	0.578700
C106	C	1.289028	-0.360703	1.078700
O107	O	0.817444	-0.888900	0.636446
O108	O	1.317444	-0.388900	1.136446
N109	N	0.755619	-0.888066	0.510846
N110	N	1.255619	-0.388066	1.010846
C111	C	0.722188	-0.860821	0.442973
C112	C	1.222188	-0.360821	0.942973
O113	O	0.693772	-0.889109	0.385260
O114	O	1.193772	-0.389109	0.885260
C115	C	0.722171	-0.806218	0.442957
C116	C	1.222171	-0.306218	0.942957
C117	C	0.755586	-0.778858	0.510809
C118	C	1.255586	-0.278858	1.010809
C119	C	0.822425	-0.778739	0.646525
C120	C	1.322425	-0.278739	1.146525
C121	C	0.822410	-0.724139	0.646502
C122	C	1.322410	-0.224139	1.146502
C123	C	0.788983	-0.696898	0.578632
C124	C	1.288983	-0.196898	1.078632
C125	C	0.755571	-0.724258	0.510786
C126	C	1.255571	-0.224258	1.010786
C127	C	0.688738	-0.778974	0.375091
C128	C	1.188738	-0.278974	0.875091
C129	C	0.688723	-0.724367	0.375082
C130	C	1.188723	-0.224367	0.875082
C131	C	0.722138	-0.697008	0.442933
C132	C	1.222138	-0.197008	0.942933
C133	C	0.722129	-0.642416	0.442893
C134	C	1.222129	-0.142416	0.942893
N135	N	0.755538	-0.615054	0.510747
N136	N	1.255538	-0.115054	1.010747
C137	C	0.788965	-0.642295	0.578617
C138	C	1.288965	-0.142295	1.078617
C139	C	0.722227	-0.975492	0.443012
C140	C	1.222227	-0.475492	0.943012
C141	C	0.722247	-1.030094	0.443021
C142	C	1.222247	-0.530094	0.943021
C143	C	0.789087	-1.029972	0.578750
C144	C	1.289087	-0.529972	1.078750
C145	C	0.789069	-0.975369	0.578735
C146	C	1.289069	-0.475369	1.078735
C147	C	0.755637	-0.948129	0.510866
C148	C	1.255637	-0.448129	1.010866
C149	C	0.788932	-0.527630	0.578562
C150	C	1.288932	-0.027630	1.078562
C151	C	0.788916	-0.473024	0.578530
C152	C	1.288916	0.026976	1.078530
C153	C	0.722075	-0.473151	0.442805
C154	C	1.222075	0.026849	0.942805
C155	C	0.722093	-0.527751	0.442833
C156	C	1.222093	-0.027751	0.942833
C157	C	0.755523	-0.554989	0.510720
C158	C	1.255523	-0.054989	1.010720
O159	O	0.693727	-0.614185	0.385179
O160	O	1.193727	-0.114185	0.885179
O161	O	0.817372	-0.614000	0.636330
O162	O	1.317372	-0.114000	1.136330
C163	C	0.891919	-0.251831	0.510786
C164	C	1.391919	0.248169	1.010786
C165	C	0.950033	-0.251832	0.510804
C166	C	1.450033	0.248168	1.010804
C167	C	0.755585	-0.251786	0.787249
C168	C	1.255585	0.248214	1.287249
C169	C	0.755601	-0.251769	0.905079
C170	C	1.255601	0.248231	1.405079
C171	C	0.755635	-0.115454	0.510850
C172	C	1.255635	0.384546	1.010850
C173	C	0.755673	-0.057340	0.510895
C174	C	1.255673	0.442660	1.010895
C175	C	0.755538	-0.251829	0.235313
C176	C	1.255538	0.248171	0.735313
C177	C	0.755623	-0.251699	0.117484
C178	C	1.255623	0.248301	0.617484
C179	C	0.715049	-0.291980	1.072599
C180	C	1.215049	0.208020	1.572599
C181	C	0.715155	-0.292179	0.950039
C182	C	1.215155	0.207821	1.450039
C183	C	0.810688	-0.266720	0.949596
C184	C	1.310688	0.233280	1.449596
C185	C	0.810465	-0.266972	1.072194
C186	C	1.310465	0.233028	1.572194
C187	C	0.741589	-0.196383	1.072303
C188	C	1.241589	0.303617	1.572303
C189	C	0.740359	-0.196715	0.949697
C190	C	1.240359	0.303285	1.449697
H191	H	-0.044953	-0.312428	0.387573
H192	H	0.455047	0.187572	0.887573
H193	H	0.841729	-0.238309	0.920477
H194	H	1.341729	0.261691	1.420477
O195	O	0.686666	-0.181774	0.911136
O196	O	1.186666	0.318226	1.411136
H197	H	0.657874	-0.211106	0.938708
H198	H	1.157874	0.288894	1.438708
H199	H	0.674078	-0.282714	1.102074
H200	H	1.174078	0.217286	1.602074
O201	O	0.312450	-0.354623	0.301588
O202	O	0.812450	0.145377	0.801588
H203	H	0.355013	-0.349012	0.312982
H204	H	0.855013	0.150988	0.812982
O205	O	0.686025	-0.443763	0.369602
O206	O	1.186025	0.056237	0.869602
H207	H	0.644988	-0.454274	0.387704
H208	H	1.144988	0.045726	0.887704
O209	O	0.061307	-0.321247	0.369588
O210	O	0.561307	0.178753	0.869588
H211	H	0.033118	-0.344470	0.322372
H212	H	0.533118	0.155530	0.822372
H213	H	0.457384	-0.312427	0.387488
H214	H	0.957384	0.187573	0.887488
H215	H	0.767754	-0.165118	0.919093
H216	H	1.267754	0.334882	1.419093
O217	O	0.661046	-0.279786	0.910162
O218	O	1.161046	0.220214	1.410162
H219	H	0.661067	-0.279914	0.822388
H220	H	1.161067	0.220086	1.322388
O221	O	0.686065	-0.557268	0.369635
O222	O	1.186065	-0.057268	0.869635
H223	H	0.659459	-0.582152	0.417034
H224	H	1.159459	-0.082152	0.917034
H225	H	0.695004	-0.953316	0.387736
H226	H	1.195004	-0.453316	0.887736
O227	O	0.727381	-0.346521	0.911245
O228	O	1.227381	0.153479	1.411245
H229	H	0.766305	-0.358505	0.940982
H230	H	1.266305	0.141495	1.440982
H231	H	0.822363	-0.307409	1.100785
H232	H	1.322363	0.192591	1.600785
H233	H	0.822790	-0.306733	0.918888
H234	H	1.322790	0.193267	1.418888
H235	H	0.556452	-0.312421	0.387474
H236	H	1.056452	0.187579	0.887474
O237	O	0.450323	-0.182412	0.651926
O238	O	0.950323	0.317588	1.151926
H239	H	0.478513	-0.159199	0.699158
H240	H	0.978513	0.340801	1.199158
O241	O	0.689302	-0.178336	1.113222
O242	O	1.189302	0.321664	1.613222
H243	H	0.690563	-0.176048	1.200842
H244	H	1.190563	0.323952	1.700842
O245	O	0.686210	-1.059596	0.369823
O246	O	1.186210	-0.559596	0.869823
H247	H	0.709632	-1.084470	0.315933
H248	H	1.209632	-0.584470	0.815933
O249	O	0.727176	-0.345958	1.113435
O250	O	1.227176	0.154042	1.613435
H251	H	0.761980	-0.344224	1.165552
H252	H	1.261980	0.155776	1.665552
H253	H	0.556583	-0.191245	0.633960
H254	H	1.056583	0.308755	1.133960
H255	H	0.816151	-0.549800	0.633850
H256	H	1.316151	-0.049800	1.133850
O257	O	0.780728	-0.156626	1.110758
O258	O	1.280728	0.343374	1.610758
H259	H	0.810037	-0.176135	1.161802
H260	H	1.310037	0.323865	1.661802
H261	H	0.206194	-0.345804	0.319563
H262	H	0.706194	0.154196	0.819563
H263	H	0.305444	-0.157843	0.701919
H264	H	0.805444	0.342157	1.201919
H265	H	0.816128	-0.450750	0.633782
H266	H	1.316128	0.049250	1.133782
H267	H	0.206399	-0.157840	0.701927
H268	H	0.706399	0.342160	1.201927
H269	H	0.661528	-0.801241	0.319838
H270	H	1.161528	-0.301241	0.819838
O271	O	0.061467	-0.182408	0.651976
O272	O	0.561467	0.317592	1.151976
H273	H	0.033331	-0.159187	0.699204
H274	H	0.533331	0.340813	1.199204
O275	O	0.858458	-0.694632	0.719668
O276	O	1.358458	-0.194632	1.219668
H277	H	0.881702	-0.722755	0.766858
H278	H	1.381702	-0.222755	1.266858
H279	H	0.849645	-0.800913	0.701799
H280	H	1.349645	-0.300913	1.201799
H281	H	0.841721	-0.238907	1.101889
H282	H	1.341721	0.261093	1.601889
H283	H	-0.044828	-0.191243	0.634043
H284	H	0.455172	0.308757	1.134043
O285	O	0.825111	-0.945860	0.651911
O286	O	1.325111	-0.445860	1.151911
H287	H	0.848356	-0.973981	0.699104
H288	H	1.348356	-0.473981	1.199104
O289	O	0.825136	-1.059358	0.651970
O290	O	1.325136	-0.559358	1.151970
H291	H	0.819526	-1.101923	0.640586
H292	H	1.319526	-0.601923	1.140586
H293	H	0.661496	-0.702191	0.319816
H294	H	1.161496	-0.202191	0.819816
