data_functionalizedCrystal
_audit_creation_method	'MofGen! by Chris Wilmer'
_symmetry_space_group_name_H-M	'P1'
_symmetry_Int_Tables_number	1
_symmetry_cell_setting	triclinic
loop_
_symmetry_equiv_pos_as_xyz
  x,y,z
_cell_length_a	19.188930
_cell_length_b	19.188924
_cell_length_c	16.053802
_cell_angle_alpha	92.554672
_cell_angle_beta	87.413631
_cell_angle_gamma	83.143372
loop_
_atom_site_label
_atom_site_type_symbol
_atom_site_fract_x
_atom_site_fract_y
_atom_site_fract_z
O1	O	0.929109	0.084208	-0.069702
O2	O	1.262442	0.417541	0.263631
O3	O	1.595776	0.750874	0.596965
O4	O	0.725795	0.095944	-0.069645
O5	O	1.059128	0.429278	0.263688
O6	O	1.392462	0.762611	0.597021
O7	O	0.833321	-0.011580	-0.069666
O8	O	1.166654	0.321754	0.263668
O9	O	1.499988	0.655087	0.597001
O10	O	0.821583	0.191732	-0.069682
O11	O	1.154916	0.525065	0.263651
O12	O	1.488249	0.858398	0.596985
O13	O	0.827403	-0.005686	0.069194
O14	O	1.160736	0.327648	0.402528
O15	O	1.494069	0.660981	0.735861
O16	O	0.719876	0.101838	0.069215
O17	O	1.053210	0.435172	0.402548
O18	O	1.386543	0.768505	0.735881
O19	O	0.923190	0.090102	0.069158
O20	O	1.256524	0.423435	0.402491
O21	O	1.589857	0.756768	0.735825
Zn22	Zn	0.820594	0.096906	0.091233
Zn23	Zn	1.153927	0.430239	0.424567
Zn24	Zn	1.487260	0.763573	0.757900
Zn25	Zn	0.828392	0.089140	-0.091721
Zn26	Zn	1.161725	0.422474	0.241613
Zn27	Zn	1.495058	0.755807	0.574946
O28	O	0.815664	0.197626	0.069178
O29	O	1.148997	0.530959	0.402511
O30	O	1.482331	0.864292	0.735845
C31	C	0.696824	0.098512	-0.000208
C32	C	1.030158	0.431845	0.333125
C33	C	1.363491	0.765178	0.666459
C34	C	0.619319	0.097372	-0.000186
C35	C	0.952652	0.430705	0.333147
C36	C	1.285986	0.764039	0.666481
C37	C	0.574394	0.160462	-0.000204
C38	C	0.907728	0.493796	0.333129
C39	C	1.241061	0.827129	0.666462
C40	C	0.501571	0.159390	-0.000213
C41	C	0.834904	0.492724	0.333120
C42	C	1.168237	0.826057	0.666453
C43	C	0.473676	0.095224	-0.000221
C44	C	0.807009	0.428557	0.333112
C45	C	1.140343	0.761890	0.666446
C46	C	0.518610	0.032125	-0.000198
C47	C	0.851944	0.365459	0.333135
C48	C	1.185277	0.698792	0.666469
C49	C	0.591432	0.033199	-0.000181
C50	C	0.924765	0.366533	0.333153
C51	C	1.258099	0.699866	0.666486
N52	N	0.367713	0.044169	-0.047511
N53	N	0.701046	0.377502	0.285823
N54	N	1.034379	0.710836	0.619156
N55	N	0.298535	0.043153	-0.047529
N56	N	0.631868	0.376486	0.285804
N57	N	0.965202	0.709820	0.619138
C58	C	0.254270	0.091983	-0.000272
C59	C	0.587603	0.425317	0.333062
C60	C	0.920936	0.758650	0.666395
N61	N	0.281795	0.141878	0.046994
N62	N	0.615128	0.475212	0.380328
N63	N	0.948461	0.808545	0.713661
N64	N	0.350979	0.142897	0.047009
N65	N	0.684312	0.476230	0.380342
N66	N	1.017645	0.809563	0.713676
C67	C	0.394714	0.094052	-0.000239
C68	C	0.728048	0.427385	0.333094
C69	C	1.061381	0.760718	0.666427
C70	C	0.130381	0.153916	-0.000299
C71	C	0.463714	0.487249	0.333035
C72	C	0.797048	0.820582	0.666368
C73	C	0.057556	0.152841	-0.000303
C74	C	0.390890	0.486174	0.333031
C75	C	0.724223	0.819508	0.666364
C76	C	0.074598	0.025574	-0.000296
C77	C	0.407931	0.358907	0.333038
C78	C	0.741265	0.692240	0.666371
C79	C	0.147421	0.026650	-0.000283
C80	C	0.480754	0.359984	0.333050
C81	C	0.814087	0.693317	0.666383
C82	C	0.175308	0.090823	-0.000289
C83	C	0.508641	0.424156	0.333045
C84	C	0.841974	0.757490	0.666378
C85	C	0.829983	-0.034644	-0.000235
C86	C	1.163316	0.298690	0.333099
C87	C	1.496649	0.632023	0.666432
C88	C	0.828844	-0.112148	-0.000232
C89	C	1.162177	0.221185	0.333101
C90	C	1.495510	0.554518	0.666435
C91	C	0.831538	-0.151760	-0.075925
C92	C	1.164872	0.181573	0.257409
C93	C	1.498205	0.514907	0.590742
C94	C	0.830459	-0.224583	-0.075931
C95	C	1.163792	0.108750	0.257403
C96	C	1.497125	0.442084	0.590736
C97	C	0.826698	-0.257793	-0.000240
C98	C	1.160032	0.075540	0.333093
C99	C	1.493365	0.408874	0.666427
C100	C	0.823999	-0.218172	0.075463
C101	C	1.157333	0.115162	0.408796
C102	C	1.490666	0.448495	0.742129
C103	C	0.825072	-0.145349	0.075467
C104	C	1.158405	0.187984	0.408800
C105	C	1.491739	0.521317	0.742133
N106	N	0.862345	-0.375066	0.056084
N107	N	1.195679	-0.041732	0.389418
N108	N	1.529012	0.291601	0.722751
N109	N	0.861328	-0.444244	0.056075
N110	N	1.194661	-0.110911	0.389409
N111	N	1.527995	0.222422	0.722742
C112	C	0.823464	-0.477203	-0.000247
C113	C	1.156798	-0.143869	0.333086
C114	C	1.490131	0.189464	0.666420
N115	N	0.786666	-0.438371	-0.056573
N116	N	1.119999	-0.105037	0.276760
N117	N	1.453333	0.228296	0.610094
N118	N	0.787687	-0.369186	-0.056567
N119	N	1.121020	-0.035853	0.276767
N120	N	1.454353	0.297481	0.610100
C121	C	0.825534	-0.336756	-0.000236
C122	C	1.158868	-0.003423	0.333098
C123	C	1.492201	0.329910	0.666431
C124	C	0.824988	-0.595777	-0.075951
C125	C	1.158321	-0.262444	0.257382
C126	C	1.491654	0.070889	0.590715
C127	C	0.823903	-0.668601	-0.075954
C128	C	1.157237	-0.335268	0.257379
C129	C	1.490570	-0.001934	0.590712
C130	C	0.817451	-0.662189	0.075441
C131	C	1.150784	-0.328856	0.408775
C132	C	1.484118	0.004478	0.742108
C133	C	0.818528	-0.589366	0.075442
C134	C	1.151862	-0.256033	0.408775
C135	C	1.485195	0.077301	0.742109
C136	C	0.822300	-0.556165	-0.000257
C137	C	1.155633	-0.222832	0.333077
C138	C	1.488967	0.110502	0.666410
C139	C	0.952161	0.087534	-0.000281
C140	C	1.285494	0.420868	0.333052
C141	C	1.618828	0.754201	0.666385
C142	C	1.029667	0.088674	-0.000309
C143	C	1.363000	0.422007	0.333025
C144	C	1.696333	0.755341	0.666358
C145	C	0.819003	0.220690	-0.000255
C146	C	1.152336	0.554023	0.333079
C147	C	1.485669	0.887356	0.666412
C148	C	0.820142	0.298194	-0.000263
C149	C	1.153475	0.631527	0.333071
C150	C	1.486809	0.964861	0.666404
N151	N	0.815277	0.102205	0.216095
N152	N	1.148610	0.435539	0.549428
N153	N	1.481944	0.768872	0.882761
N154	N	0.833714	0.083835	-0.216582
N155	N	1.167047	0.417169	0.116751
N156	N	1.500380	0.750502	0.450085
C157	C	0.861046	0.056470	0.259780
C158	C	1.194380	0.389803	0.593113
C159	C	1.527713	0.723137	0.926447
C160	C	0.857334	0.060184	0.347187
C161	C	1.190667	0.393517	0.680521
C162	C	1.524000	0.726850	1.013854
C163	C	0.807855	0.109637	0.390908
C164	C	1.141188	0.442970	0.724241
C165	C	1.474521	0.776303	1.057575
C166	C	0.762081	0.155374	0.347216
C167	C	1.095414	0.488707	0.680550
C168	C	1.428747	0.822041	1.013883
C169	C	0.765790	0.151657	0.259811
C170	C	1.099124	0.484990	0.593144
C171	C	1.432457	0.818323	0.926477
C172	C	0.791650	0.125855	0.652321
C173	C	1.124983	0.459188	0.985654
C174	C	1.458316	0.792522	1.318987
C175	C	0.787945	0.129571	0.739733
C176	C	1.121278	0.462904	1.073066
C177	C	1.454611	0.796237	1.406399
C178	C	0.883197	0.034379	0.739698
C179	C	1.216531	0.367712	1.073031
C180	C	1.549864	0.701046	1.406364
C181	C	0.886905	0.030669	0.652290
C182	C	1.220239	0.364002	0.985623
C183	C	1.553572	0.697335	1.318957
C184	C	0.841129	0.076404	0.608606
C185	C	1.174462	0.409737	0.941939
C186	C	1.507796	0.743070	1.275273
N187	N	0.804060	0.113435	0.480252
N188	N	1.137393	0.446768	0.813586
N189	N	1.470727	0.780102	1.146919
N190	N	0.844921	0.072601	0.519263
N191	N	1.178254	0.405934	0.852597
N192	N	1.511587	0.739268	1.185930
H193	H	0.153087	0.206169	-0.000291
H194	H	0.486420	0.539502	0.333043
H195	H	0.819754	0.872836	0.666376
O196	O	0.940272	-0.022678	0.605145
O197	O	1.273605	0.310656	0.938479
O198	O	1.606938	0.643989	1.271812
H199	H	0.993957	-0.013204	0.621900
H200	H	1.327290	0.320129	0.955233
H201	H	1.660623	0.653463	1.288566
O202	O	0.932563	-0.014954	0.786811
O203	O	1.265897	0.318379	1.120144
O204	O	1.599230	0.651713	1.453478
H205	H	0.921670	-0.004068	0.854935
H206	H	1.255003	0.329266	1.188268
H207	H	1.588336	0.662599	1.521602
O208	O	0.453107	0.227443	-0.000230
O209	O	0.786441	0.560776	0.333104
O210	O	1.119774	0.894110	0.666437
H211	H	0.397785	0.215913	-0.000234
H212	H	0.731118	0.549247	0.333099
H213	H	1.064451	0.882580	0.666433
H214	H	0.826094	-0.700852	-0.137595
H215	H	1.159428	-0.367518	0.195738
H216	H	1.492761	-0.034185	0.529072
H217	H	0.495895	-0.020120	-0.000216
H218	H	0.829228	0.313213	0.333118
H219	H	1.162561	0.646546	0.666451
H220	H	0.822875	-0.113097	0.137107
H221	H	1.156208	0.220237	0.470440
H222	H	1.489541	0.553570	0.803773
O223	O	0.829040	-0.559962	-0.157595
O224	O	1.162374	-0.226629	0.175738
O225	O	1.495707	0.106704	0.509071
H226	H	0.877265	-0.533314	-0.161237
H227	H	1.210598	-0.199981	0.172096
H228	H	1.543931	0.133352	0.505429
H229	H	0.894602	0.022942	0.382756
H230	H	1.227935	0.356275	0.716089
H231	H	1.561269	0.689608	1.049422
H232	H	0.184000	-0.024725	-0.000273
H233	H	0.517333	0.308609	0.333060
H234	H	0.850666	0.641942	0.666394
O235	O	0.835589	-0.115946	-0.157567
O236	O	1.168922	0.217387	0.175766
O237	O	1.502255	0.550721	0.509100
H238	H	0.837271	-0.155729	-0.210202
H239	H	1.170605	0.177604	0.123131
H240	H	1.503938	0.510938	0.456464
O241	O	0.833369	-0.267317	-0.157576
O242	O	1.166703	0.066016	0.175757
O243	O	1.500036	0.399349	0.509090
H244	H	0.785455	-0.294275	-0.161192
H245	H	1.118789	0.039059	0.172141
H246	H	1.452122	0.372392	0.505474
O247	O	0.639894	-0.034850	-0.000165
O248	O	0.973227	0.298483	0.333168
O249	O	1.306561	0.631816	0.666502
H250	H	0.608267	-0.079652	-0.000174
H251	H	0.941600	0.253681	0.333159
H252	H	1.274933	0.587015	0.666493
H253	H	0.020978	0.204219	-0.000313
H254	H	0.354312	0.537552	0.333021
H255	H	0.687645	0.870886	0.666354
O256	O	0.819943	-0.253990	0.157100
O257	O	1.153276	0.079343	0.490433
O258	O	1.486609	0.412676	0.823767
H259	H	0.818243	-0.214207	0.209737
H260	H	1.151577	0.119126	0.543070
H261	H	1.484910	0.452460	0.876404
O262	O	0.914410	0.003128	0.212625
O263	O	1.247744	0.336462	0.545958
O264	O	1.581077	0.669795	0.879291
H265	H	0.945607	-0.028055	0.257690
H266	H	1.278940	0.305278	0.591024
H267	H	1.612274	0.638611	0.924357
H268	H	0.747651	0.169844	0.775326
H269	H	1.080984	0.503177	1.108659
H270	H	1.414317	0.836511	1.441993
H271	H	0.754378	0.163096	0.616760
H272	H	1.087711	0.496429	0.950093
H273	H	1.421044	0.829762	1.283427
O274	O	0.044524	-0.043638	-0.000304
O275	O	0.377858	0.289695	0.333029
O276	O	0.711191	0.623029	0.666363
H277	H	-0.013661	-0.033787	-0.000323
H278	H	0.319672	0.299546	0.333010
H279	H	0.653006	0.632879	0.666343
O280	O	0.813400	-0.697997	0.157084
O281	O	1.146734	-0.364664	0.490417
O282	O	1.480067	-0.031330	0.823750
H283	H	0.813112	-0.755291	0.144366
H284	H	1.146445	-0.421958	0.477699
H285	H	1.479779	-0.088625	0.811033
O286	O	0.815640	-0.546637	0.157082
O287	O	1.148973	-0.213303	0.490416
O288	O	1.482306	0.120030	0.823749
H289	H	0.812852	-0.581963	0.209716
H290	H	1.146185	-0.248629	0.543049
H291	H	1.479518	0.084704	0.876382
O292	O	0.708715	0.208717	0.394366
O293	O	1.042048	0.542051	0.727699
O294	O	1.375381	0.875384	1.061032
H295	H	0.713829	0.203626	0.462484
H296	H	1.047162	0.536959	0.795818
H297	H	1.380496	0.870293	1.129151
O298	O	0.716427	0.200979	0.212678
O299	O	1.049760	0.534313	0.546012
O300	O	1.383094	0.867646	0.879345
H301	H	0.724440	0.256103	0.229421
H302	H	1.057773	0.589436	0.562754
H303	H	1.391106	0.922770	0.896088
O304	O	0.604474	0.229674	-0.000186
O305	O	0.937807	0.563008	0.333147
O306	O	1.271140	0.896341	0.666481
H307	H	0.560995	0.273366	-0.000188
H308	H	0.894328	0.606699	0.333146
H309	H	1.227661	0.940033	0.666479
