data_functionalizedCrystal
_audit_creation_method	'MofGen! by Chris Wilmer'
_symmetry_space_group_name_H-M	'P1'
_symmetry_Int_Tables_number	1
_symmetry_cell_setting	triclinic
loop_
_symmetry_equiv_pos_as_xyz
  x,y,z
_cell_length_a	10.654562
_cell_length_b	6.394989
_cell_length_c	9.130313
_cell_angle_alpha	89.998359
_cell_angle_beta	89.996930
_cell_angle_gamma	94.506093
loop_
_atom_site_label
_atom_site_type_symbol
_atom_site_fract_x
_atom_site_fract_y
_atom_site_fract_z
O1	O	1.670934	-0.293559	-0.121886
O2	O	1.305753	-0.321488	-0.121866
O3	O	1.493527	-0.003535	-0.121877
O4	O	1.483160	-0.611512	-0.121875
O5	O	1.493525	-0.003543	0.121721
O6	O	1.305751	-0.321497	0.121732
O7	O	1.670932	-0.293567	0.121713
Cu8	Cu	1.488341	-0.307533	0.143965
Cu9	Cu	1.488344	-0.307523	-0.144119
O10	O	1.483158	-0.611521	0.121724
C11	C	1.258933	-0.319436	-0.000065
C12	C	1.119425	-0.313284	-0.000058
C13	C	1.053863	-0.310419	0.132716
C14	C	0.922779	-0.304655	0.132692
C15	C	0.922832	-0.304631	-0.132893
C16	C	1.053914	-0.310379	-0.132867
C17	C	1.053831	-0.310443	0.286050
C18	C	0.922748	-0.304679	0.286026
C19	C	1.717752	-0.295619	-0.000092
C20	C	1.857260	-0.301772	-0.000108
C21	C	1.491476	0.074312	-0.000083
C22	C	1.485212	0.310638	-0.000084
N23	N	1.488348	-0.307539	0.346588
N24	N	1.488346	-0.307500	-0.346741
C25	C	1.571517	-0.166797	0.423235
C26	C	1.571513	-0.166772	0.576572
C27	C	1.405169	-0.448249	0.576601
C28	C	1.405167	-0.448262	0.423267
C29	C	1.667559	-0.004295	0.423220
C30	C	1.667555	-0.004270	0.576556
H31	H	1.098561	-0.166062	0.344932
H32	H	1.337444	-0.562820	0.639049
O33	O	1.789053	-0.071703	0.360208
H34	H	1.784040	-0.068953	0.238804
H35	H	0.891545	-0.152312	0.333604
O36	O	0.852174	-0.301519	-0.276134
H37	H	0.750008	-0.297051	-0.253849
H38	H	1.085019	-0.462815	0.333627
H39	H	0.877990	-0.449068	0.344891
H40	H	1.337434	-0.562846	0.360862
O41	O	1.625069	0.196770	0.639562
H42	H	1.602545	0.303337	0.548963
O43	O	1.636916	0.208394	0.368034
H44	H	1.542573	0.243189	0.408567
O45	O	1.795886	-0.051709	0.631698
H46	H	1.858712	-0.074976	0.537090
H47	H	1.107292	-0.312680	-0.240984
