data_functionalizedCrystal
_audit_creation_method	'MofGen! by Chris Wilmer'
_symmetry_space_group_name_H-M	'P1'
_symmetry_Int_Tables_number	1
_symmetry_cell_setting	triclinic
loop_
_symmetry_equiv_pos_as_xyz
  x,y,z
_cell_length_a	6.817900
_cell_length_b	13.923258
_cell_length_c	14.125369
_cell_angle_alpha	82.796384
_cell_angle_beta	100.397648
_cell_angle_gamma	81.871755
loop_
_atom_site_label
_atom_site_type_symbol
_atom_site_fract_x
_atom_site_fract_y
_atom_site_fract_z
V1	V	-3.952152	0.302425	-0.135141
O2	O	-3.957122	0.297061	0.004405
O3	O	-3.888755	0.299979	-0.265953
O4	O	-3.878248	0.434496	-0.133979
O5	O	-3.967702	0.161613	-0.128482
V6	V	-4.441027	0.285629	-0.118342
O7	O	-4.201668	0.339270	-0.171993
O8	O	-4.641708	0.248785	-0.081490
O9	O	-4.281218	0.288075	0.012470
O10	O	-4.553453	0.290993	-0.257888
O11	O	-4.542874	0.426441	-0.125000
O12	O	-4.291725	0.153558	-0.119504
C13	C	-3.730932	0.295111	-0.297813
C14	C	-3.760215	0.293991	-0.404759
C15	C	-3.998631	0.296081	-0.652914
C16	C	-3.813926	0.291978	-0.600569
C17	C	-3.784042	0.293098	-0.491610
C18	C	-4.028523	0.294960	-0.761882
C19	C	-4.115786	0.121350	-0.124019
C20	C	-4.074265	0.013383	-0.124099
C21	C	-3.998272	-0.184266	-0.124407
C22	C	-3.814288	-0.227692	-0.129074
C23	C	-3.772001	-0.337671	-0.129245
C24	C	-4.040567	-0.074277	-0.124235
C25	C	-3.717529	0.466699	-0.129466
C26	C	-3.738289	0.574665	-0.129382
C27	C	-4.102382	0.292941	0.044326
C28	C	-4.052336	0.294067	0.151271
H29	H	-3.678240	0.287623	-0.637584
O30	O	-4.160606	0.301434	-0.608837
C31	C	-4.481059	0.394439	-0.599909
C32	C	-4.297730	0.388520	-0.649906
H33	H	-4.591992	0.464832	-0.633108
H34	H	-4.427868	0.394491	-0.518628
H35	H	-4.559103	0.328328	-0.611021
H36	H	-4.219606	0.454616	-0.638870
H37	H	-4.351045	0.388422	-0.731169
O38	O	-3.664508	-0.173364	-0.133729
C39	C	-3.570696	-0.012634	-0.137706
C40	C	-3.740502	-0.074045	-0.132450
H41	H	-3.632063	0.067673	-0.136653
H42	H	-3.512972	-0.019495	-0.207854
H43	H	-3.441285	-0.040638	-0.072427
H44	H	-3.870032	-0.046082	-0.197679
H45	H	-3.798059	-0.067182	-0.062261
O46	O	-4.148091	-0.238578	-0.119850
C47	C	-4.241823	-0.399328	-0.115781
C48	C	-4.071991	-0.337920	-0.120963
H49	H	-4.180348	-0.479661	-0.116658
H50	H	-4.371209	-0.371448	-0.181099
H51	H	-4.299617	-0.392338	-0.045672
H52	H	-4.014029	-0.344883	-0.191030
H53	H	-3.942725	-0.365815	-0.055596
