data_functionalizedCrystal
_audit_creation_method	'MofGen! by Chris Wilmer'
_symmetry_space_group_name_H-M	'P1'
_symmetry_Int_Tables_number	1
_symmetry_cell_setting	triclinic
loop_
_symmetry_equiv_pos_as_xyz
  x,y,z
_cell_length_a	13.897449
_cell_length_b	16.625546
_cell_length_c	13.897441
_cell_angle_alpha	89.966553
_cell_angle_beta	89.979267
_cell_angle_gamma	90.023748
loop_
_atom_site_label
_atom_site_type_symbol
_atom_site_fract_x
_atom_site_fract_y
_atom_site_fract_z
Zn1	Zn	1.474671	-0.320948	-0.545362
Zn2	Zn	1.724671	-0.070948	-0.295362
Zn3	Zn	1.974671	0.179052	-0.045362
Zn4	Zn	2.224671	0.429052	0.204638
Zn5	Zn	1.474551	-0.455799	-0.384055
Zn6	Zn	1.724551	-0.205799	-0.134055
Zn7	Zn	1.974551	0.044201	0.115945
Zn8	Zn	2.224551	0.294201	0.365945
Zn9	Zn	1.313360	-0.320987	-0.384080
Zn10	Zn	1.563360	-0.070987	-0.134080
Zn11	Zn	1.813360	0.179013	0.115920
Zn12	Zn	2.063360	0.429013	0.365920
Zn13	Zn	1.313328	-0.455746	-0.545308
Zn14	Zn	1.563328	-0.205746	-0.295308
Zn15	Zn	1.813328	0.044254	-0.045308
Zn16	Zn	2.063328	0.294254	0.204692
O17	O	1.393977	-0.388370	-0.464702
O18	O	1.643977	-0.138370	-0.214702
O19	O	1.893977	0.111630	0.035298
O20	O	2.143977	0.361630	0.285298
O21	O	1.609636	-0.338843	-0.523977
O22	O	1.859636	-0.088843	-0.273977
O23	O	2.109636	0.161157	-0.023977
O24	O	2.359636	0.411157	0.226023
O25	O	1.453132	-0.437954	-0.249077
O26	O	1.703132	-0.187954	0.000923
O27	O	1.953132	0.062046	0.250923
O28	O	2.203132	0.312046	0.500923
O29	O	1.334821	-0.208149	-0.405508
O30	O	1.584821	0.041851	-0.155508
O31	O	1.834821	0.291851	0.094492
O32	O	2.084821	0.541851	0.344492
O33	O	1.609549	-0.437917	-0.405465
O34	O	1.859549	-0.187917	-0.155465
O35	O	2.109549	0.062083	0.094535
O36	O	2.359549	0.312083	0.344535
O37	O	1.453336	-0.208121	-0.524001
O38	O	1.703336	0.041879	-0.274001
O39	O	1.953336	0.291879	-0.024001
O40	O	2.203336	0.541879	0.225999
O41	O	1.334705	-0.338908	-0.249095
O42	O	1.584705	-0.088908	0.000905
O43	O	1.834705	0.161092	0.250905
O44	O	2.084705	0.411092	0.500905
O45	O	1.178374	-0.338857	-0.405455
O46	O	1.428374	-0.088857	-0.155455
O47	O	1.678374	0.161143	0.094545
O48	O	1.928374	0.411143	0.344545
O49	O	1.334767	-0.437826	-0.680297
O50	O	1.584767	-0.187826	-0.430297
O51	O	1.834767	0.062174	-0.180297
O52	O	2.084767	0.312174	0.069703
O53	O	1.178351	-0.437864	-0.523909
O54	O	1.428351	-0.187864	-0.273909
O55	O	1.678351	0.062136	-0.023909
O56	O	1.928351	0.312136	0.226091
O57	O	1.453305	-0.338791	-0.680337
O58	O	1.703305	-0.088791	-0.430337
O59	O	1.953305	0.161209	-0.180337
O60	O	2.203305	0.411209	0.069663
O61	O	1.453101	-0.568624	-0.405413
O62	O	1.703101	-0.318624	-0.155413
O63	O	1.953101	-0.068624	0.094587
O64	O	2.203101	0.181376	0.344587
O65	O	1.334651	-0.568585	-0.523884
O66	O	1.584651	-0.318585	-0.273884
O67	O	1.834651	-0.068585	-0.023884
O68	O	2.084651	0.181415	0.226116
C69	C	1.143363	-0.388359	-0.464680
C70	C	1.393363	-0.138359	-0.214680
C71	C	1.643363	0.111641	0.035320
C72	C	1.893363	0.361641	0.285320
C73	C	1.036149	-0.388374	-0.464693
C74	C	1.286149	-0.138374	-0.214693
C75	C	1.536149	0.111626	0.035307
C76	C	1.786149	0.361626	0.285307
C77	C	0.839854	-0.388377	-0.464718
C78	C	1.089854	-0.138377	-0.214718
C79	C	1.339854	0.111623	0.035282
C80	C	1.589854	0.361623	0.285282
C81	C	0.949086	-0.388373	-0.464702
C82	C	1.199086	-0.138373	-0.214702
C83	C	1.449086	0.111627	0.035298
C84	C	1.699086	0.361627	0.285298
C85	C	1.393886	-0.597861	-0.464661
C86	C	1.643886	-0.347861	-0.214661
C87	C	1.893886	-0.097861	0.035339
C88	C	2.143886	0.152139	0.285339
C89	C	1.393935	-0.687482	-0.464676
C90	C	1.643935	-0.437482	-0.214676
C91	C	1.893935	-0.187482	0.035324
C92	C	2.143935	0.062518	0.285324
C93	C	1.394104	-1.015657	-0.464777
C94	C	1.644104	-0.765657	-0.214777
C95	C	1.894104	-0.515657	0.035223
C96	C	2.144104	-0.265657	0.285223
C97	C	1.394054	-0.924349	-0.464751
C98	C	1.644054	-0.674349	-0.214751
C99	C	1.894054	-0.424349	0.035249
C100	C	2.144054	-0.174349	0.285249
C101	C	1.394019	-0.851573	-0.464726
C102	C	1.644019	-0.601573	-0.214726
C103	C	1.894019	-0.351573	0.035274
C104	C	2.144019	-0.101573	0.285274
C105	C	1.393970	-0.760258	-0.464702
C106	C	1.643970	-0.510258	-0.214702
C107	C	1.893970	-0.260258	0.035298
C108	C	2.143970	-0.010258	0.285298
C109	C	1.645570	-0.388381	-0.464724
C110	C	1.895570	-0.138381	-0.214724
C111	C	2.145570	0.111619	0.035276
C112	C	2.395570	0.361619	0.285276
C113	C	1.752784	-0.388386	-0.464734
C114	C	2.002784	-0.138386	-0.214734
C115	C	2.252784	0.111614	0.035266
C116	C	2.502784	0.361614	0.285266
C117	C	1.394046	-0.388299	-0.716295
C118	C	1.644046	-0.138299	-0.466295
C119	C	1.894046	0.111701	-0.216295
C120	C	2.144046	0.361701	0.033705
C121	C	1.394075	-0.388268	-0.823509
C122	C	1.644075	-0.138268	-0.573509
C123	C	1.894075	0.111732	-0.323509
C124	C	2.144075	0.361732	-0.073509
C125	C	1.394095	-0.178061	-0.464763
C126	C	1.644095	0.071939	-0.214763
C127	C	1.894095	0.321939	0.035237
C128	C	2.144095	0.571939	0.285237
C129	C	1.394146	-0.088440	-0.464789
C130	C	1.644146	0.161560	-0.214789
C131	C	1.894146	0.411560	0.035211
C132	C	2.144146	0.661560	0.285211
C133	C	1.394101	-0.388214	-1.019804
C134	C	1.644101	-0.138214	-0.769804
C135	C	1.894101	0.111786	-0.519804
C136	C	2.144101	0.361786	-0.269804
C137	C	1.394084	-0.388246	-0.910571
C138	C	1.644084	-0.138246	-0.660571
C139	C	1.894084	0.111754	-0.410571
C140	C	2.144084	0.361754	-0.160571
C141	C	1.393965	-0.388383	-0.214087
C142	C	1.643965	-0.138383	0.035913
C143	C	1.893965	0.111617	0.285913
C144	C	2.143965	0.361617	0.535913
C145	C	1.394122	-0.388186	-0.106874
C146	C	1.644122	-0.138186	0.143126
C147	C	1.894122	0.111814	0.393126
C148	C	2.144122	0.361814	0.643126
