data_functionalizedCrystal
_audit_creation_method	'MofGen! by Chris Wilmer'
_symmetry_space_group_name_H-M	'P1'
_symmetry_Int_Tables_number	1
_symmetry_cell_setting	triclinic
loop_
_symmetry_equiv_pos_as_xyz
  x,y,z
_cell_length_a	21.395362
_cell_length_b	16.959454
_cell_length_c	21.395355
_cell_angle_alpha	89.987004
_cell_angle_beta	89.956060
_cell_angle_gamma	90.035955
loop_
_atom_site_label
_atom_site_type_symbol
_atom_site_fract_x
_atom_site_fract_y
_atom_site_fract_z
Zn1	Zn	0.957906	-0.314438	-0.354610
Zn2	Zn	1.457906	0.185562	0.145390
Zn3	Zn	0.957828	-0.446599	-0.249842
Zn4	Zn	1.457828	0.053401	0.250158
Zn5	Zn	0.853121	-0.314475	-0.249811
Zn6	Zn	1.353121	0.185525	0.250189
Zn7	Zn	0.853109	-0.446615	-0.354547
Zn8	Zn	1.353109	0.053385	0.145453
O9	O	0.905491	-0.380532	-0.302202
O10	O	1.405491	0.119468	0.197798
O11	O	1.045573	-0.331947	-0.340751
O12	O	1.545573	0.168053	0.159249
O13	O	0.943910	-0.429081	-0.162160
O14	O	1.443910	0.070919	0.337840
O15	O	0.867058	-0.203859	-0.263726
O16	O	1.367058	0.296141	0.236274
O17	O	1.045516	-0.429045	-0.263779
O18	O	1.545516	0.070955	0.236221
O19	O	0.944043	-0.203832	-0.340721
O20	O	1.444043	0.296168	0.159279
O21	O	0.866982	-0.332010	-0.162137
O22	O	1.366982	0.167990	0.337863
O23	O	0.765441	-0.332026	-0.263665
O24	O	1.265441	0.167974	0.236335
O25	O	0.867039	-0.429073	-0.442233
O26	O	1.367039	0.070927	0.057767
O27	O	0.765433	-0.429109	-0.340614
O28	O	1.265433	0.070891	0.159386
O29	O	0.944032	-0.331963	-0.442279
O30	O	1.444032	0.168037	0.057721
O31	O	0.943899	-0.557212	-0.263718
O32	O	1.443899	-0.057212	0.236282
O33	O	0.866963	-0.557224	-0.340645
O34	O	1.366963	-0.057224	0.159355
C35	C	0.742703	-0.380574	-0.302130
C36	C	1.242703	0.119426	0.197870
C37	C	0.673062	-0.380610	-0.302114
C38	C	1.173062	0.119390	0.197886
C39	C	0.640361	-0.431228	-0.342121
C40	C	1.140361	0.068772	0.157879
C41	C	0.574925	-0.431209	-0.342149
C42	C	1.074925	0.068791	0.157851
C43	C	0.542194	-0.380580	-0.302158
C44	C	1.042194	0.119420	0.197842
C45	C	0.574903	-0.329952	-0.262148
C46	C	1.074903	0.170048	0.237852
C47	C	0.640337	-0.329967	-0.262126
C48	C	1.140337	0.170033	0.237874
C49	C	0.438468	-0.374212	-0.245752
C50	C	0.938468	0.125788	0.254248
C51	C	0.373035	-0.374203	-0.245774
C52	C	0.873035	0.125797	0.254226
C53	C	0.340373	-0.380528	-0.302227
C54	C	0.840373	0.119472	0.197773
C55	C	0.373152	-0.386881	-0.358661
C56	C	0.873152	0.113119	0.141339
C57	C	0.438586	-0.386896	-0.358639
C58	C	0.938586	0.113104	0.141361
C59	C	0.471241	-0.380557	-0.302178
C60	C	0.971241	0.119443	0.197822
C61	C	0.236719	-0.431128	-0.342268
C62	C	0.736719	0.068872	0.157732
C63	C	0.171283	-0.431103	-0.342297
C64	C	0.671283	0.068897	0.157703
C65	C	0.171261	-0.329850	-0.262291
C66	C	0.671261	0.170150	0.237709
C67	C	0.236697	-0.329871	-0.262267
C68	C	0.736697	0.170129	0.237733
C69	C	0.269422	-0.380514	-0.302255
C70	C	0.769422	0.119486	0.197745
C71	C	0.905438	-0.585898	-0.302192
C72	C	1.405438	-0.085898	0.197808
C73	C	0.905473	-0.673755	-0.302208
C74	C	1.405473	-0.173755	0.197792
C75	C	0.865488	-1.045266	-0.342254
C76	C	1.365488	-0.545266	0.157746
C77	C	0.945668	-1.045194	-0.262215
C78	C	1.445668	-0.545194	0.237785
C79	C	0.945646	-0.962648	-0.262209
C80	C	1.445646	-0.462648	0.237791
C81	C	0.905544	-0.921407	-0.302226
C82	C	1.405544	-0.421407	0.197774
C83	C	0.865464	-0.962713	-0.342248
C84	C	1.365464	-0.462713	0.157752
C85	C	0.985721	-0.921337	-0.222184
C86	C	1.485721	-0.421337	0.277816
C87	C	0.985700	-0.838786	-0.222176
C88	C	1.485700	-0.338786	0.277824
C89	C	0.945601	-0.797544	-0.262196
C90	C	1.445601	-0.297544	0.237804
C91	C	0.905520	-0.838854	-0.302220
C92	C	1.405520	-0.338854	0.197780
C93	C	0.865418	-0.797613	-0.342236
C94	C	1.365418	-0.297613	0.157764
C95	C	0.825339	-0.838922	-0.382264
C96	C	1.325339	-0.338922	0.117736
C97	C	0.825365	-0.921471	-0.382268
C98	C	1.325365	-0.421471	0.117732
C99	C	0.945575	-0.714995	-0.262192
C100	C	1.445575	-0.214995	0.237808
C101	C	0.865393	-0.715060	-0.342230
C102	C	1.365393	-0.215060	0.157770
C103	C	1.068914	-0.380490	-0.302276
C104	C	1.568914	0.119510	0.197724
C105	C	1.138555	-0.380473	-0.302307
C106	C	1.638555	0.119527	0.197693
C107	C	0.905543	-0.380516	-0.465626
C108	C	1.405543	0.119484	0.034374
C109	C	0.905565	-0.380509	-0.535267
C110	C	1.405565	0.119491	-0.035267
C111	C	0.905561	-0.174363	-0.302227
C112	C	1.405561	0.325637	0.197773
C113	C	0.905590	-0.086507	-0.302237
C114	C	1.405590	0.413493	0.197763
C115	C	0.945654	-0.329942	-0.568005
C116	C	1.445654	0.170058	-0.068005
C117	C	0.945653	-0.329908	-0.633441
C118	C	1.445653	0.170092	-0.133441
C119	C	0.905570	-0.380455	-0.666135
C120	C	1.405570	0.119545	-0.166135
C121	C	0.865473	-0.431026	-0.633389
C122	C	1.365473	0.068974	-0.133389
C123	C	0.865471	-0.431053	-0.567955
C124	C	1.365471	0.068947	-0.067955
C125	C	0.900604	-0.451628	-0.769805
C126	C	1.400604	0.048372	-0.269805
C127	C	0.900611	-0.451602	-0.835238
C128	C	1.400611	0.048398	-0.335238
C129	C	0.905574	-0.380371	-0.867956
C130	C	1.405574	0.119629	-0.367956
C131	C	0.910543	-0.309164	-0.835234
C132	C	1.410543	0.190836	-0.335234
C133	C	0.910540	-0.309191	-0.769800
C134	C	1.410540	0.190809	-0.269800
C135	C	0.905568	-0.380431	-0.737088
C136	C	1.405568	0.119569	-0.237088
C137	C	0.945664	-0.329763	-0.971647
C138	C	1.445664	0.170237	-0.471647
C139	C	0.945659	-0.329728	-1.037084
C140	C	1.445659	0.170272	-0.537084
C141	C	0.865482	-0.430853	-1.037031
C142	C	1.365482	0.069147	-0.537031
C143	C	0.865484	-0.430881	-0.971596
C144	C	1.365484	0.069119	-0.471596
C145	C	0.905578	-0.380337	-0.938908
C146	C	1.405578	0.119663	-0.438908
C147	C	0.905475	-0.380491	-0.139415
C148	C	1.405475	0.119509	0.360585
C149	C	0.905574	-0.380275	-0.069774
C150	C	1.405574	0.119725	0.430226
H151	H	0.548295	-0.472428	-0.374730
H152	H	1.048295	0.027572	0.125270
O153	O	0.271974	-0.275297	-0.219100
O154	O	0.771974	0.224703	0.280900
H155	H	0.238222	-0.240096	-0.191288
H156	H	0.738222	0.259904	0.308712
O157	O	0.822232	-0.485592	-0.532635
O158	O	1.322232	0.014408	-0.032635
H159	H	0.790370	-0.450222	-0.502801
H160	H	1.290370	0.049778	-0.002801
O161	O	0.473941	-0.393738	-0.419503
O162	O	0.973941	0.106262	0.080497
H163	H	0.503796	-0.340806	-0.425949
H164	H	1.003796	0.159194	0.074051
O165	O	0.822261	-1.089822	-0.385419
O166	O	1.322261	-0.589822	0.114581
H167	H	0.832980	-1.073950	-0.434607
H168	H	1.332980	-0.573950	0.065393
H169	H	0.667002	-0.472465	-0.374683
H170	H	1.167002	0.027535	0.125317
O171	O	0.675607	-0.275381	-0.218959
O172	O	1.175607	0.224619	0.281041
H173	H	0.663100	-0.213359	-0.229785
H174	H	1.163100	0.286641	0.270215
H175	H	0.896569	-0.509584	-0.861875
H176	H	1.396569	-0.009584	-0.361875
H177	H	0.144659	-0.472321	-0.374880
H178	H	0.644659	0.027679	0.125120
O179	O	0.988903	-0.275242	-0.936390
O180	O	1.488903	0.224758	-0.436390
H181	H	1.020773	-0.310626	-0.906612
H182	H	1.520773	0.189374	-0.406612
O183	O	1.028967	-0.965819	-0.179024
O184	O	1.528967	-0.465819	0.320976
H185	H	1.056826	-0.923229	-0.151185
H186	H	1.556826	-0.423229	0.348815
H187	H	0.792734	-0.955112	-0.414855
H188	H	1.292734	-0.455112	0.085145
O189	O	0.822130	-0.670586	-0.385387
O190	O	1.322130	-0.170586	0.114613
H191	H	0.832850	-0.686398	-0.434577
H192	H	1.332850	-0.186398	0.065423
H193	H	0.978204	-0.681365	-0.229599
H194	H	1.478204	-0.181365	0.270401
O195	O	0.988894	-0.275426	-0.532747
O196	O	1.488894	0.224574	-0.032747
H197	H	1.016767	-0.240254	-0.566510
H198	H	1.516767	0.259746	-0.066510
O199	O	0.988898	-0.275373	-0.668764
O200	O	1.488898	0.224627	-0.168764
H201	H	1.016780	-0.240236	-0.635040
H202	H	1.516780	0.259764	-0.135040
O203	O	0.822243	-0.485367	-1.072286
O204	O	1.322243	0.014633	-0.572286
H205	H	0.832961	-0.547407	-1.059738
H206	H	1.332961	-0.047407	-0.559738
O207	O	0.539593	-0.275355	-0.219014
O208	O	1.039593	0.224645	0.280986
H209	H	0.552192	-0.213338	-0.229840
H210	H	1.052192	0.286662	0.270160
H211	H	0.978313	-1.078777	-0.229632
H212	H	1.478313	-0.578777	0.270368
O213	O	1.028932	-0.794232	-0.179013
O214	O	1.528932	-0.294232	0.320987
H215	H	1.056825	-0.836778	-0.151193
H216	H	1.556825	-0.336778	0.348807
O217	O	0.782087	-0.794440	-0.425425
O218	O	1.282087	-0.294440	0.074575
H219	H	0.788807	-0.730100	-0.418694
H220	H	1.288807	-0.230100	0.081306
O221	O	0.915896	-0.232396	-0.734503
O222	O	1.415896	0.267604	-0.234503
H223	H	0.919345	-0.182856	-0.768242
H224	H	1.419345	0.317144	-0.268242
O225	O	0.915879	-0.232325	-0.870511
O226	O	1.415879	0.267675	-0.370511
H227	H	0.915032	-0.244264	-0.921509
H228	H	1.415032	0.255736	-0.421509
H229	H	0.978303	-0.288545	-1.063738
H230	H	1.478303	0.211455	-0.563738
O231	O	0.337936	-0.393697	-0.419559
O232	O	0.837936	0.106303	0.080441
H233	H	0.286929	-0.392608	-0.410097
H234	H	0.786929	0.107392	0.089903
O235	O	0.822229	-0.485401	-0.936279
O236	O	1.322229	0.014599	-0.436279
H237	H	0.794350	-0.520539	-0.970004
H238	H	1.294350	-0.020539	-0.470004
O239	O	0.895244	-0.528459	-0.734516
O240	O	1.395244	-0.028459	-0.234516
H241	H	0.891796	-0.577968	-0.768261
H242	H	1.391796	-0.077968	-0.268261
O243	O	0.822238	-0.485545	-0.668647
O244	O	1.322238	0.014455	-0.168647
H245	H	0.828978	-0.477036	-0.719649
H246	H	1.328978	0.022964	-0.219649
H247	H	0.263366	-0.472361	-0.374832
H248	H	0.763366	0.027639	0.125168
O249	O	0.135963	-0.275250	-0.219153
O250	O	0.635963	0.224750	0.280847
H251	H	0.106203	-0.235084	-0.247258
H252	H	0.606203	0.264916	0.252742
O253	O	0.337681	-0.367348	-0.184910
O254	O	0.837681	0.132652	0.315090
H255	H	0.371385	-0.362934	-0.145652
H256	H	0.871385	0.137066	0.354348
H257	H	0.465056	-0.369058	-0.199778
H258	H	0.965056	0.130942	0.300222
