data_functionalizedCrystal
_audit_creation_method	'MofGen! by Chris Wilmer'
_symmetry_space_group_name_H-M	'P1'
_symmetry_Int_Tables_number	1
_symmetry_cell_setting	triclinic
loop_
_symmetry_equiv_pos_as_xyz
  x,y,z
_cell_length_a	14.519709
_cell_length_b	10.654550
_cell_length_c	9.130313
_cell_angle_alpha	90.000110
_cell_angle_beta	89.994624
_cell_angle_gamma	84.082524
loop_
_atom_site_label
_atom_site_type_symbol
_atom_site_fract_x
_atom_site_fract_y
_atom_site_fract_z
O1	O	-1.224716	-0.164617	-0.121605
O2	O	-0.956339	-0.184004	-0.121649
O3	O	-1.096698	0.008488	-0.121620
O4	O	-1.084357	-0.357109	-0.121633
O5	O	-1.096696	0.008483	0.121978
O6	O	-0.956338	-0.184009	0.121950
O7	O	-1.224714	-0.164623	0.121994
Cu8	Cu	-1.090526	-0.174316	0.144215
Cu9	Cu	-1.090528	-0.174310	-0.143869
O10	O	-1.084355	-0.357114	0.121966
C11	C	-0.921974	-0.183103	0.000145
C12	C	-0.819579	-0.180396	0.000128
C13	C	-1.259079	-0.165524	0.000197
C14	C	-1.361475	-0.168231	0.000205
C15	C	-1.095791	0.055275	0.000177
C16	C	-1.093080	0.194692	0.000172
C17	C	-0.444631	-0.170428	0.000195
C18	C	-0.548954	-0.173196	0.000176
C19	C	-0.632102	-0.175412	0.000160
C20	C	-0.736431	-0.178180	0.000144
C21	C	-1.085262	-0.403901	0.000165
C22	C	-1.087973	-0.543318	0.000161
N23	N	-1.090531	-0.174320	0.346837
C24	C	-1.175721	0.274972	0.000190
C25	C	-1.173168	0.405968	0.000179
C26	C	-1.005326	0.376391	0.000138
C27	C	-1.007880	0.245397	0.000138
C28	C	-1.272623	0.292049	0.000219
C29	C	-1.270070	0.423046	0.000209
N30	N	-1.090530	-0.174297	-0.346492
C31	C	-1.152698	-0.089113	0.423502
C32	C	-1.152695	-0.089098	0.576839
C33	C	-1.028356	-0.259507	0.576833
C34	C	-1.028355	-0.259515	0.423499
C35	C	-1.224487	0.009267	0.423506
C36	C	-1.224485	0.009283	0.576843
H37	H	-0.940586	0.180037	0.000103
N38	N	-1.320177	0.255689	-0.127651
N39	N	-1.351580	0.337495	-0.217749
H40	H	-1.385165	0.311817	-0.308056
N41	N	-1.311317	0.247712	0.132179
N42	N	-1.274071	0.265782	0.252723
H43	H	-1.301395	0.234467	0.345923
H44	H	-1.291445	-0.020677	0.375958
H45	H	-1.299356	0.468972	-0.104966
H46	H	-1.208741	0.105649	0.381887
H47	H	-1.306581	0.465155	0.102158
N48	N	-0.964832	-0.346540	0.345209
N49	N	-0.909324	-0.422593	0.413679
H50	H	-0.864455	-0.484057	0.358389
N51	N	-0.964851	-0.346515	0.655166
N52	N	-0.964854	-0.346491	0.792070
H53	H	-0.920002	-0.407941	0.847393
N54	N	-1.196358	0.123436	0.636495
N55	N	-1.117910	0.155414	0.607732
H56	H	-1.098040	0.236031	0.649860
N57	N	-0.918309	0.428210	0.000097
N58	N	-0.916038	0.545169	0.000085
H59	H	-0.854580	0.581766	0.000056
N60	N	-1.313393	-0.016847	0.629055
N61	N	-1.376032	-0.035279	0.540095
H62	H	-1.438822	-0.053732	0.576967
