data_functionalizedCrystal
_audit_creation_method	'MofGen! by Chris Wilmer'
_symmetry_space_group_name_H-M	'P1'
_symmetry_Int_Tables_number	1
_symmetry_cell_setting	triclinic
loop_
_symmetry_equiv_pos_as_xyz
  x,y,z
_cell_length_a	16.625548
_cell_length_b	18.050589
_cell_length_c	16.625539
_cell_angle_alpha	90.024824
_cell_angle_beta	90.020568
_cell_angle_gamma	90.029289
loop_
_atom_site_label
_atom_site_type_symbol
_atom_site_fract_x
_atom_site_fract_y
_atom_site_fract_z
Zn1	Zn	1.232648	-0.295637	0.455929
Zn2	Zn	1.732648	0.204363	0.955929
Zn3	Zn	1.232538	-0.419835	0.321104
Zn4	Zn	1.732538	0.080165	0.821104
Zn5	Zn	1.097810	-0.295665	0.321109
Zn6	Zn	1.597810	0.204335	0.821109
Zn7	Zn	1.097767	-0.419792	0.455894
Zn8	Zn	1.597767	0.080208	0.955894
O9	O	1.165191	-0.357732	0.388509
O10	O	1.665191	0.142268	0.888509
O11	O	1.345466	-0.312118	0.438056
O12	O	1.845466	0.187882	0.938056
O13	O	1.214638	-0.403393	0.208272
O14	O	1.714638	0.096607	0.708272
O15	O	1.115761	-0.191737	0.339010
O16	O	1.615761	0.308263	0.839010
O17	O	1.345385	-0.403366	0.339001
O18	O	1.845385	0.096634	0.839001
O19	O	1.214826	-0.191716	0.438061
O20	O	1.714826	0.308284	0.938061
O21	O	1.115654	-0.312166	0.208276
O22	O	1.615654	0.187834	0.708276
O23	O	0.984972	-0.312125	0.338976
O24	O	1.484972	0.187875	0.838976
O25	O	1.115687	-0.403293	0.568731
O26	O	1.615687	0.096707	1.068731
O27	O	0.984940	-0.403320	0.438002
O28	O	1.484940	0.096680	0.938002
O29	O	1.214784	-0.312077	0.568757
O30	O	1.714784	0.187923	1.068757
O31	O	1.214596	-0.523754	0.338968
O32	O	1.714596	-0.023754	0.838968
O33	O	1.115580	-0.523722	0.437997
O34	O	1.615580	-0.023722	0.937997
C35	C	0.955700	-0.357722	0.388487
C36	C	1.455700	0.142278	0.888487
C37	C	0.866079	-0.357735	0.388496
C38	C	1.366079	0.142265	0.888496
C39	C	1.165093	-0.550684	0.388496
C40	C	1.665093	-0.050684	0.888496
C41	C	1.165126	-0.633230	0.388517
C42	C	1.665126	-0.133230	0.888517
C43	C	0.537903	-0.357740	0.388531
C44	C	1.037903	0.142260	0.888531
C45	C	0.629212	-0.357736	0.388518
C46	C	1.129212	0.142264	0.888518
C47	C	0.701988	-0.357738	0.388513
C48	C	1.201988	0.142262	0.888513
C49	C	0.793302	-0.357734	0.388502
C50	C	1.293302	0.142266	0.888502
C51	C	1.111334	-0.832691	0.442350
C52	C	1.611334	-0.332691	0.942350
C53	C	1.091677	-0.882133	0.368775
C54	C	1.591677	-0.382133	0.868775
C55	C	1.165205	-0.784360	0.388528
C56	C	1.665205	-0.284360	0.888528
C57	C	1.184901	-0.882000	0.462112
C58	C	1.684901	-0.382000	0.962112
C59	C	1.165280	-0.930346	0.388544
C60	C	1.665280	-0.430346	0.888544
C61	C	1.145510	-0.832715	0.314913
C62	C	1.645510	-0.332715	0.814913
C63	C	1.238767	-0.832578	0.408300
C64	C	1.738767	-0.332578	0.908300
C65	C	1.219139	-0.881998	0.334673
C66	C	1.719139	-0.381998	0.834673
C67	C	1.165160	-0.700262	0.388519
C68	C	1.665160	-0.200262	0.888519
C69	C	1.165325	-1.014442	0.388544
C70	C	1.665325	-0.514442	0.888544
C71	C	1.375500	-0.357743	0.388532
C72	C	1.875500	0.142257	0.888532
C73	C	1.465121	-0.357748	0.388542
C74	C	1.965121	0.142252	0.888542
C75	C	1.165243	-0.357677	0.598818
C76	C	1.665243	0.142323	1.098818
C77	C	1.165266	-0.357653	0.688439
C78	C	1.665266	0.142347	1.188439
C79	C	1.165310	-0.164027	0.388540
C80	C	1.665310	0.335973	0.888540
C81	C	1.165361	-0.081481	0.388553
C82	C	1.665361	0.418519	0.888553
C83	C	1.165185	-0.357734	0.179018
C84	C	1.665185	0.142266	0.679018
C85	C	1.165319	-0.357548	0.089398
C86	C	1.665319	0.142452	0.589398
C87	C	1.165303	-0.357570	1.016615
C88	C	1.665303	0.142430	1.516615
C89	C	1.165290	-0.357596	0.925307
C90	C	1.665290	0.142404	1.425307
C91	C	1.165285	-0.357612	0.852530
C92	C	1.665285	0.142388	1.352530
C93	C	1.165271	-0.357637	0.761216
C94	C	1.665271	0.142363	1.261216
H95	H	1.065710	-0.811040	0.487802
H96	H	1.565710	-0.311040	0.987802
H97	H	1.300928	-0.810797	0.425043
H98	H	1.800928	-0.310797	0.925043
H99	H	1.264728	-0.903512	0.289111
H100	H	1.764728	-0.403512	0.789111
O101	O	1.017453	-0.908069	0.348956
O102	O	1.517453	-0.408069	0.848956
C103	C	0.960794	-0.882936	0.405830
C104	C	1.460794	-0.382936	0.905830
H105	H	0.992818	-0.869019	0.464570
H106	H	1.492818	-0.369019	0.964570
H107	H	0.929482	-0.831304	0.381816
H108	H	1.429482	-0.331304	0.881816
C109	C	0.858607	-0.961125	0.348903
C110	C	1.358607	-0.461125	0.848903
C111	C	0.897939	-0.944037	0.421051
C112	C	1.397939	-0.444037	0.921051
H113	H	0.819833	-0.998812	0.358290
H114	H	1.319833	-0.498812	0.858290
H115	H	0.896778	-0.978055	0.310584
H116	H	1.396778	-0.478055	0.810584
H117	H	0.832521	-0.918092	0.328899
H118	H	1.332521	-0.418092	0.828899
H119	H	0.924033	-0.987067	0.441049
H120	H	1.424033	-0.487067	0.941049
H121	H	0.859771	-0.927115	0.459374
H122	H	1.359771	-0.427115	0.959374
O123	O	1.204650	-0.907740	0.536402
O124	O	1.704650	-0.407740	1.036402
C125	C	1.147642	-0.882632	0.592938
C126	C	1.647642	-0.382632	1.092938
H127	H	1.116914	-0.830672	0.569013
H128	H	1.616914	-0.330672	1.069013
H129	H	1.100700	-0.927658	0.603446
H130	H	1.600700	-0.427658	1.103446
C131	C	1.228027	-0.928394	0.702205
C132	C	1.728027	-0.428394	1.202205
C133	C	1.190291	-0.864571	0.672822
C134	C	1.690291	-0.364571	1.172822
H135	H	1.254333	-0.917255	0.751482
H136	H	1.754333	-0.417255	1.251482
H137	H	1.266433	-0.945312	0.664116
H138	H	1.766433	-0.445312	1.164116
H139	H	1.188902	-0.965909	0.710955
H140	H	1.688902	-0.465909	1.210955
H141	H	1.229417	-0.827060	0.664063
H142	H	1.729417	-0.327060	1.164063
H143	H	1.151892	-0.847646	0.710912
H144	H	1.651892	-0.347646	1.210912
H145	H	1.128809	-0.811156	0.252673
H146	H	1.628809	-0.311156	0.752673
