data_functionalizedCrystal
_audit_creation_method	'MofGen! by Chris Wilmer'
_symmetry_space_group_name_H-M	'P1'
_symmetry_Int_Tables_number	1
_symmetry_cell_setting	triclinic
loop_
_symmetry_equiv_pos_as_xyz
  x,y,z
_cell_length_a	14.519709
_cell_length_b	19.188930
_cell_length_c	13.596369
_cell_angle_alpha	89.988893
_cell_angle_beta	90.000291
_cell_angle_gamma	83.412464
loop_
_atom_site_label
_atom_site_type_symbol
_atom_site_fract_x
_atom_site_fract_y
_atom_site_fract_z
O1	O	1.223300	0.091524	-0.081675
O2	O	1.556633	0.424858	0.251658
O3	O	1.889967	0.758191	0.584992
O4	O	0.954756	0.102302	-0.081706
O5	O	1.288089	0.435636	0.251627
O6	O	1.621423	0.768969	0.584960
O7	O	1.096778	-0.004715	-0.081670
O8	O	1.430111	0.328619	0.251663
O9	O	1.763444	0.661952	0.584996
O10	O	1.081278	0.198542	-0.081711
O11	O	1.414612	0.531875	0.251623
O12	O	1.747945	0.865208	0.584956
O13	O	1.096763	-0.004720	0.081912
O14	O	1.430097	0.328613	0.415246
O15	O	1.763430	0.661946	0.748579
O16	O	0.954742	0.102297	0.081877
O17	O	1.288075	0.435630	0.415210
O18	O	1.621409	0.768963	0.748543
O19	O	1.223286	0.091519	0.081908
O20	O	1.556619	0.424852	0.415241
O21	O	1.889952	0.758185	0.748575
Zn22	Zn	1.089012	0.096907	0.107865
Zn23	Zn	1.422345	0.430240	0.441198
Zn24	Zn	1.755678	0.763574	0.774531
Zn25	Zn	1.089030	0.096914	-0.107663
Zn26	Zn	1.422364	0.430248	0.225670
Zn27	Zn	1.755697	0.763581	0.559004
O28	O	1.081264	0.198536	0.081872
O29	O	1.414598	0.531869	0.415206
O30	O	1.747931	0.865202	0.748539
C31	C	0.920392	0.101797	0.000081
C32	C	1.253726	0.435131	0.333415
C33	C	1.587059	0.768464	0.666748
C34	C	0.818020	0.100292	0.000070
C35	C	1.151354	0.433625	0.333404
C36	C	1.484687	0.766959	0.666737
C37	C	0.443159	0.094751	0.000116
C38	C	0.776492	0.428084	0.333449
C39	C	1.109826	0.761417	0.666783
C40	C	0.547457	0.096290	0.000103
C41	C	0.880791	0.429623	0.333436
C42	C	1.214124	0.762956	0.666770
C43	C	0.630586	0.097521	0.000092
C44	C	0.963920	0.430855	0.333426
C45	C	1.297253	0.764188	0.666759
C46	C	0.734891	0.099060	0.000081
C47	C	1.068225	0.432394	0.333414
C48	C	1.401558	0.765727	0.666748
C49	C	1.096269	-0.030730	0.000124
C50	C	1.429602	0.302603	0.333457
C51	C	1.762935	0.635936	0.666790
C52	C	1.094762	-0.108240	0.000132
C53	C	1.428095	0.225093	0.333465
C54	C	1.761429	0.558427	0.666799
C55	C	1.178095	-0.152867	0.000146
C56	C	1.511429	0.180466	0.333480
C57	C	1.844762	0.513799	0.666813
C58	C	1.176680	-0.225696	0.000131
C59	C	1.510013	0.107637	0.333464
C60	C	1.843347	0.440970	0.666797
C61	C	1.091926	-0.253895	0.000120
C62	C	1.425259	0.079439	0.333453
C63	C	1.758593	0.412772	0.666787
C64	C	1.008582	-0.209257	0.000100
C65	C	1.341915	0.124076	0.333433
C66	C	1.675248	0.457409	0.666767
C67	C	1.009999	-0.136430	0.000106
C68	C	1.343333	0.196903	0.333439
C69	C	1.676666	0.530236	0.666773
N70	N	1.027137	-0.362132	0.055783
N71	N	1.360470	-0.028799	0.389116
N72	N	1.693804	0.304535	0.722449
N73	N	1.025796	-0.431316	0.055779
N74	N	1.359129	-0.097982	0.389112
N75	N	1.692463	0.235351	0.722446
C76	C	1.087649	-0.473318	0.000100
C77	C	1.420982	-0.139985	0.333433
C78	C	1.754316	0.193348	0.666766
N79	N	1.150908	-0.443526	-0.055564
N80	N	1.484242	-0.110192	0.277769
N81	N	1.817575	0.223141	0.611103
N82	N	1.152252	-0.374336	-0.055556
N83	N	1.485586	-0.041003	0.277778
N84	N	1.818919	0.292330	0.611111
C85	C	1.090379	-0.332863	0.000113
C86	C	1.423713	0.000471	0.333446
C87	C	1.757046	0.333804	0.666779
C88	C	1.169454	-0.596916	0.000095
C89	C	1.502787	-0.263582	0.333429
C90	C	1.836120	0.069751	0.666762
C91	C	1.168035	-0.669745	0.000073
C92	C	1.501368	-0.336412	0.333407
C93	C	1.834701	-0.003079	0.666740
C94	C	0.999934	-0.653305	0.000053
C95	C	1.333267	-0.319972	0.333386
C96	C	1.666600	0.013362	0.666719
C97	C	1.001355	-0.580477	0.000065
C98	C	1.334689	-0.247144	0.333398
C99	C	1.668022	0.086190	0.666731
C100	C	1.086118	-0.552287	0.000091
C101	C	1.419451	-0.218953	0.333424
C102	C	1.752784	0.114380	0.666757
C103	C	1.257649	0.092024	0.000118
C104	C	1.590983	0.425357	0.333451
C105	C	1.924316	0.758691	0.666785
C106	C	1.360021	0.093529	0.000123
C107	C	1.693355	0.426862	0.333456
C108	C	2.026688	0.760196	0.666789
C109	C	1.081773	0.224551	0.000076
C110	C	1.415107	0.557885	0.333409
C111	C	1.748440	0.891218	0.666742
C112	C	1.083280	0.302061	0.000061
C113	C	1.416613	0.635395	0.333394
C114	C	1.749947	0.968728	0.666728
N115	N	1.089006	0.096901	0.254956
N116	N	1.422339	0.430235	0.588290
N117	N	1.755672	0.763568	0.921623
N118	N	1.089043	0.096914	-0.254755
N119	N	1.422377	0.430248	0.078579
N120	N	1.755710	0.763581	0.411912
C121	C	1.089029	0.096915	0.656247
C122	C	1.422362	0.430248	0.989581
C123	C	1.755696	0.763582	1.322914
C124	C	1.089020	0.096914	0.544596
C125	C	1.422353	0.430247	0.877929
C126	C	1.755686	0.763580	1.211263
C127	C	1.089018	0.096909	0.455605
C128	C	1.422351	0.430242	0.788939
C129	C	1.755684	0.763575	1.122272
C130	C	1.089008	0.096906	0.343947
C131	C	1.422341	0.430240	0.677280
C132	C	1.755674	0.763573	1.010614
H133	H	1.244542	-0.262039	0.000138
H134	H	1.577876	0.071295	0.333472
H135	H	1.911209	0.404628	0.666805
H136	H	0.939574	-0.232221	0.000089
H137	H	1.272908	0.101112	0.333422
H138	H	1.606241	0.434445	0.666756
H139	H	0.930926	-0.676263	0.000039
H140	H	1.264259	-0.342930	0.333372
H141	H	1.597592	-0.009597	0.666706
C142	C	0.905432	-0.489051	0.084151
C143	C	1.238765	-0.155717	0.417485
C144	C	1.572098	0.177616	0.750818
C145	C	0.909754	-0.531414	0.000059
C146	C	1.243087	-0.198081	0.333393
C147	C	1.576420	0.135252	0.666726
H148	H	0.848880	-0.458759	0.084140
H149	H	1.182214	-0.125425	0.417473
H150	H	1.515547	0.207908	0.750807
H151	H	0.908360	-0.517812	0.141184
H152	H	1.241693	-0.184479	0.474517
H153	H	1.575027	0.148854	0.807851
H154	H	0.956118	-0.461841	0.084150
H155	H	1.289452	-0.128508	0.417484
H156	H	1.622785	0.204825	0.750817
H157	H	0.859071	-0.558628	0.000064
H158	H	1.192404	-0.225294	0.333397
H159	H	1.525737	0.108039	0.666731
H160	H	0.906816	-0.502649	-0.056988
H161	H	1.240150	-0.169316	0.276345
H162	H	1.573483	0.164018	0.609679
C163	C	1.344112	-0.176439	0.000171
C164	C	1.677445	0.156895	0.333504
C165	C	2.010778	0.490228	0.666837
C166	C	1.271265	-0.121882	0.000164
C167	C	1.604599	0.211452	0.333498
C168	C	1.937932	0.544785	0.666831
H169	H	1.401630	-0.157307	0.000175
H170	H	1.734963	0.176027	0.333508
H171	H	2.068296	0.509360	0.666842
H172	H	1.340055	-0.204509	0.057210
H173	H	1.673388	0.128825	0.390543
H174	H	2.006721	0.462158	0.723877
H175	H	1.340061	-0.204494	-0.056880
H176	H	1.673394	0.128839	0.276453
H177	H	2.006728	0.462173	0.609786
H178	H	1.275312	-0.093829	0.057219
H179	H	1.608645	0.239504	0.390553
H180	H	1.941979	0.572837	0.723886
H181	H	1.275324	-0.093800	-0.056881
H182	H	1.608657	0.239533	0.276452
H183	H	1.941991	0.572867	0.609786
H184	H	1.238472	-0.573962	0.000112
H185	H	1.571805	-0.240629	0.333445
H186	H	1.905139	0.092705	0.666779
C187	C	0.843699	-0.127497	0.000085
C188	C	1.177032	0.205837	0.333419
C189	C	1.510365	0.539170	0.666752
C190	C	0.918392	-0.087371	0.000100
C191	C	1.251726	0.245962	0.333433
C192	C	1.585059	0.579296	0.666767
H193	H	0.787145	-0.097207	0.000089
H194	H	1.120478	0.236126	0.333423
H195	H	1.453812	0.569460	0.666756
H196	H	0.846645	-0.156229	-0.056961
H197	H	1.179978	0.177104	0.276372
H198	H	1.513312	0.510437	0.609706
H199	H	0.846643	-0.156259	0.057130
H200	H	1.179976	0.177075	0.390463
H201	H	1.513309	0.510408	0.723796
H202	H	0.915452	-0.058613	-0.056948
H203	H	1.248785	0.274721	0.276385
H204	H	1.582119	0.608054	0.609718
H205	H	0.915444	-0.058626	0.057152
H206	H	1.248778	0.274707	0.390485
H207	H	1.582111	0.608040	0.723819
H208	H	1.235898	-0.706081	0.000080
H209	H	1.569231	-0.372748	0.333413
H210	H	1.902564	-0.039414	0.666746
