data_functionalizedCrystal
_audit_creation_method	'MofGen! by Chris Wilmer'
_symmetry_space_group_name_H-M	'P1'
_symmetry_Int_Tables_number	1
_symmetry_cell_setting	triclinic
loop_
_symmetry_equiv_pos_as_xyz
  x,y,z
_cell_length_a	17.699077
_cell_length_b	15.995292
_cell_length_c	16.776229
_cell_angle_alpha	90.009293
_cell_angle_beta	89.996981
_cell_angle_gamma	83.374596
loop_
_atom_site_label
_atom_site_type_symbol
_atom_site_fract_x
_atom_site_fract_y
_atom_site_fract_z
O1	O	1.004235	0.105849	-0.066272
O2	O	1.504235	0.605849	0.433728
O3	O	0.783876	0.119631	-0.066275
O4	O	1.283876	0.619631	0.433725
O5	O	0.900102	-0.009164	-0.066275
O6	O	1.400102	0.490836	0.433725
O7	O	0.888009	0.234643	-0.066272
O8	O	1.388009	0.734643	0.433728
O9	O	0.900092	-0.009141	0.066302
O10	O	1.400092	0.490859	0.566302
O11	O	0.783866	0.119653	0.066301
O12	O	1.283866	0.619653	0.566301
O13	O	1.004224	0.105872	0.066305
O14	O	1.504224	0.605872	0.566305
Zn15	Zn	0.894043	0.112766	0.087352
Zn16	Zn	1.394043	0.612766	0.587352
Zn17	Zn	0.894057	0.112736	-0.087323
Zn18	Zn	1.394057	0.612736	0.412677
O19	O	0.887998	0.234666	0.066304
O20	O	1.387998	0.734666	0.566304
C21	C	0.755673	0.119149	0.000013
C22	C	1.255673	0.619149	0.500013
C23	C	0.671653	0.117670	0.000011
C24	C	1.171653	0.617670	0.500011
C25	C	0.632178	0.116985	0.072279
C26	C	1.132178	0.616985	0.572279
C27	C	0.553234	0.115582	0.072280
C28	C	1.053234	0.615582	0.572280
C29	C	0.513764	0.114870	0.000012
C30	C	1.013764	0.614870	0.500012
C31	C	0.553244	0.115552	-0.072262
C32	C	1.053244	0.615552	0.427738
C33	C	0.632188	0.116949	-0.072262
C34	C	1.132188	0.616949	0.427738
C35	C	0.234873	0.109917	-0.072264
C36	C	0.734873	0.609917	0.427736
C37	C	0.155923	0.108523	-0.072258
C38	C	0.655923	0.608523	0.427742
C39	C	0.155918	0.108551	0.072279
C40	C	0.655918	0.608551	0.572279
C41	C	0.234862	0.109948	0.072279
C42	C	0.734862	0.609948	0.572279
C43	C	0.274336	0.110625	0.000005
C44	C	0.774336	0.610625	0.500005
C45	C	0.359937	0.112145	0.000005
C46	C	0.859937	0.612145	0.500005
C47	C	0.428164	0.113356	0.000011
C48	C	0.928164	0.613356	0.500011
C49	C	0.899605	-0.040347	0.000012
C50	C	1.399605	0.459653	0.500012
C51	C	0.898129	-0.133297	0.000006
C52	C	1.398129	0.366703	0.500006
C53	C	0.892704	-0.471024	0.000013
C54	C	1.392704	0.028976	0.500013
C55	C	0.976593	-0.447884	0.000310
C56	C	1.476593	0.052116	0.500310
C57	C	0.978188	-0.351212	0.000008
C58	C	1.478188	0.148788	0.500008
C59	C	0.895396	-0.303474	0.000010
C60	C	1.395396	0.196526	0.500010
C61	C	0.853462	-0.332501	-0.075696
C62	C	1.353462	0.167499	0.424304
C63	C	0.852452	-0.429290	-0.075757
C64	C	1.352452	0.070710	0.424243
C65	C	0.850727	-0.429118	0.075008
C66	C	1.350727	0.070882	0.575008
C67	C	0.853835	-0.332631	0.076005
C68	C	1.353835	0.167369	0.576005
C69	C	0.896913	-0.208781	0.000005
C70	C	1.396913	0.291219	0.500005
C71	C	0.891185	-0.565717	0.000012
C72	C	1.391185	-0.065717	0.500012
C73	C	1.032427	0.106353	0.000015
C74	C	1.532427	0.606353	0.500015
C75	C	1.116448	0.107832	0.000011
C76	C	1.616448	0.607832	0.500011
C77	C	0.888496	0.265849	0.000016
C78	C	1.388496	0.765849	0.500016
C79	C	0.889972	0.358799	0.000017
C80	C	1.389972	0.858799	0.500017
N81	N	0.894039	0.112786	0.206564
N82	N	1.394039	0.612786	0.706564
N83	N	0.894068	0.112710	-0.206534
N84	N	1.394068	0.612710	0.293466
C85	C	0.848175	0.061997	0.751734
C86	C	1.348175	0.561997	1.251734
C87	C	0.848173	0.062004	0.668282
C88	C	1.348173	0.562004	1.168282
C89	C	0.894060	0.112729	0.626563
C90	C	1.394060	0.612729	1.126563
C91	C	0.939958	0.163444	0.668300
C92	C	1.439958	0.663444	1.168300
C93	C	0.939964	0.163432	0.751751
C94	C	1.439964	0.663432	1.251751
C95	C	0.939939	0.163493	0.331753
C96	C	1.439939	0.663493	0.831753
C97	C	0.939928	0.163504	0.248297
C98	C	1.439928	0.663504	0.748297
C99	C	0.848148	0.062066	0.248284
C100	C	1.348148	0.562066	0.748284
C101	C	0.848153	0.062053	0.331735
C102	C	1.348153	0.562053	0.831735
C103	C	0.894054	0.112765	0.373465
C104	C	1.394054	0.612765	0.873465
C105	C	0.894057	0.112755	0.463953
C106	C	1.394057	0.612755	0.963953
C107	C	0.894055	0.112744	0.536076
C108	C	1.394055	0.612744	1.036076
H109	H	0.521099	0.115011	0.131128
H110	H	1.021099	0.615011	0.631128
H111	H	1.011030	-0.332245	0.054276
H112	H	1.511030	0.167755	0.554276
Cl113	Cl	0.997663	0.227184	0.804214
Cl114	Cl	1.497663	0.727184	1.304214
H115	H	0.123789	0.107942	-0.131111
H116	H	0.623789	0.607942	0.368889
H117	H	0.884370	-0.314119	0.132012
H118	H	1.384370	0.185881	0.632012
H119	H	1.008923	-0.475939	0.054602
H120	H	1.508923	0.024061	0.554602
H121	H	0.267003	0.110467	-0.131113
H122	H	0.767003	0.610467	0.368887
H123	H	0.788978	-0.442981	0.075518
H124	H	1.288978	0.057019	0.575518
Cl125	Cl	0.503629	0.114626	-0.163114
Cl126	Cl	1.003629	0.614626	0.336886
H127	H	0.977298	0.204812	0.214331
H128	H	1.477298	0.704812	0.714331
Cl129	Cl	1.029203	-0.322909	-0.083926
Cl130	Cl	1.529203	0.177091	0.416074
Cl131	Cl	0.681789	0.117886	0.163137
Cl132	Cl	1.181789	0.617886	0.663137
Cl133	Cl	0.106290	0.107694	0.163138
Cl134	Cl	0.606290	0.607694	0.663138
H135	H	1.008753	-0.476977	-0.053676
H136	H	1.508753	0.023023	0.446324
H137	H	0.877140	-0.457251	0.132392
H138	H	1.377140	0.042749	0.632392
Cl139	Cl	0.284476	0.110848	0.163134
Cl140	Cl	0.784476	0.610848	0.663134
H141	H	0.664327	0.117508	-0.131110
H142	H	1.164327	0.617508	0.368890
H143	H	0.881503	-0.456175	-0.132349
H144	H	1.381503	0.043825	0.367651
H145	H	0.790944	-0.443714	-0.079186
H146	H	1.290944	0.056286	0.420814
H147	H	0.792539	-0.300509	-0.078510
H148	H	1.292539	0.199491	0.421490
Cl149	Cl	0.790446	-0.001690	0.195818
Cl150	Cl	1.290446	0.498310	0.695818
H151	H	0.882591	-0.312510	-0.132037
H152	H	1.382591	0.187490	0.367963
H153	H	0.977324	0.204741	0.634326
H154	H	1.477324	0.704741	1.134326
Cl155	Cl	0.997637	0.227252	0.384203
Cl156	Cl	1.497637	0.727252	0.884203
H157	H	0.793406	-0.299537	0.080578
H158	H	1.293406	0.200463	0.580578
H159	H	0.810804	0.020695	0.785696
H160	H	1.310804	0.520695	1.285696
Cl161	Cl	0.790453	-0.001726	0.615823
Cl162	Cl	1.290453	0.498274	1.115823
H163	H	0.810784	0.020751	0.365698
H164	H	1.310784	0.520751	0.865698
