data_functionalizedCrystal
_audit_creation_method	'MofGen! by Chris Wilmer'
_symmetry_space_group_name_H-M	'P1'
_symmetry_Int_Tables_number	1
_symmetry_cell_setting	triclinic
loop_
_symmetry_equiv_pos_as_xyz
  x,y,z
_cell_length_a	17.699077
_cell_length_b	14.853559
_cell_length_c	16.176319
_cell_angle_alpha	89.995393
_cell_angle_beta	89.993140
_cell_angle_gamma	83.456015
loop_
_atom_site_label
_atom_site_type_symbol
_atom_site_fract_x
_atom_site_fract_y
_atom_site_fract_z
O1	O	1.004375	0.113983	-0.068732
O2	O	0.784034	0.128822	-0.068735
O3	O	0.900093	-0.009850	-0.068732
O4	O	0.888315	0.252654	-0.068734
O5	O	0.900077	-0.009859	0.068761
O6	O	0.784018	0.128813	0.068758
O7	O	1.004359	0.113974	0.068762
Cu8	Cu	0.894187	0.121393	0.081314
Cu9	Cu	0.894206	0.121403	-0.081288
O10	O	0.888299	0.252646	0.068759
C11	C	0.755827	0.128286	0.000011
C12	C	0.671805	0.126694	0.000009
C13	C	0.632327	0.125939	0.074958
C14	C	0.553380	0.124428	0.074959
C15	C	0.513913	0.123679	0.000010
C16	C	0.553397	0.124432	-0.074944
C17	C	0.632342	0.125936	-0.074944
C18	C	0.235018	0.118365	-0.074945
C19	C	0.156066	0.116863	-0.074940
C20	C	0.156056	0.116857	0.074957
C21	C	0.235001	0.118361	0.074957
C22	C	0.274479	0.119109	0.000004
C23	C	0.360082	0.120745	0.000004
C24	C	0.428311	0.122050	0.000010
C25	C	0.899553	-0.043441	0.000013
C26	C	0.897957	-0.143519	0.000008
C27	C	0.891196	-0.566664	-0.074940
C28	C	0.891178	-0.566669	0.074961
C29	C	0.892684	-0.472641	0.074961
C30	C	0.893444	-0.425620	0.000010
C31	C	0.892699	-0.472628	-0.074941
C32	C	0.893421	-0.425626	0.149912
C33	C	0.894926	-0.331592	0.149915
C34	C	0.895692	-0.284571	0.074964
C35	C	0.894948	-0.331584	0.000009
C36	C	0.895708	-0.284563	-0.074942
C37	C	0.894969	-0.331575	-0.149898
C38	C	0.893465	-0.425606	-0.149893
C39	C	0.897196	-0.190540	0.074959
C40	C	0.897212	-0.190526	-0.074944
C41	C	1.032565	0.114509	0.000014
C42	C	1.116587	0.116102	0.000010
C43	C	0.888840	0.286237	0.000012
C44	C	0.890435	0.386315	0.000011
N45	N	0.894179	0.121385	0.195679
N46	N	0.894219	0.121404	-0.195653
C47	C	0.945585	0.060006	0.238945
C48	C	0.945589	0.060005	0.325492
C49	C	0.894190	0.121388	0.368772
C50	C	0.842777	0.182769	0.325500
C51	C	0.842771	0.182765	0.238955
C52	C	0.842803	0.182786	0.674529
C53	C	0.842816	0.182787	0.761080
C54	C	0.945622	0.060026	0.761066
C55	C	0.945615	0.060022	0.674520
C56	C	0.894201	0.121400	0.631256
C57	C	0.894196	0.121399	0.537412
C58	C	0.894197	0.121394	0.462614
H59	H	0.123934	0.116253	-0.135975
H60	H	0.897834	-0.152249	-0.135979
H61	H	0.987448	0.010026	0.360718
H62	H	0.890554	-0.604958	0.135982
C63	C	0.895807	-0.279847	-0.232339
H64	H	0.896811	-0.217114	-0.221599
H65	H	0.851467	-0.288280	-0.263141
H66	H	0.939675	-0.302224	-0.263130
H67	H	0.800909	0.232745	0.203729
C68	C	0.278432	0.119197	-0.157391
H69	H	0.243616	0.118547	-0.202024
H70	H	0.314950	0.067232	-0.160511
H71	H	0.303506	0.172344	-0.160507
H72	H	0.987484	0.010046	0.796300
C73	C	0.675736	0.126746	0.157402
H74	H	0.640916	0.126067	0.202038
H75	H	0.700818	0.179880	0.160530
H76	H	0.712248	0.074768	0.160508
H77	H	0.987472	0.010042	0.639284
C78	C	0.786260	0.250295	0.808687
H79	H	0.755630	0.286840	0.770526
H80	H	0.813512	0.287792	0.842443
H81	H	0.754734	0.217889	0.842454
H82	H	0.892863	-0.463892	-0.210918
C83	C	0.890380	-0.618371	-0.157385
H84	H	0.889372	-0.681107	-0.146654
H85	H	0.934729	-0.609930	-0.188181
H86	H	0.846521	-0.595983	-0.188177
H87	H	0.892798	-0.463916	0.210933
H88	H	0.800923	0.232745	0.360744
H89	H	0.521242	0.123798	0.135989
C90	C	0.278412	0.119180	0.157400
H91	H	0.243594	0.118504	0.202038
H92	H	0.303491	0.172316	0.160519
H93	H	0.314928	0.067204	0.160510
H94	H	0.800941	0.232764	0.639310
H95	H	0.895531	-0.293323	0.210949
H96	H	0.123904	0.116244	0.135988
H97	H	0.521256	0.123816	-0.135968
H98	H	0.664484	0.126553	-0.135975
H99	H	0.897781	-0.152264	0.135987
H100	H	0.987444	0.010025	0.203712
