data_functionalizedCrystal
_audit_creation_method	'MofGen! by Chris Wilmer'
_symmetry_space_group_name_H-M	'P1'
_symmetry_Int_Tables_number	1
_symmetry_cell_setting	triclinic
loop_
_symmetry_equiv_pos_as_xyz
  x,y,z
_cell_length_a	25.639233
_cell_length_b	12.759395
_cell_length_c	12.759394
_cell_angle_alpha	90.015205
_cell_angle_beta	90.012022
_cell_angle_gamma	90.012776
loop_
_atom_site_label
_atom_site_type_symbol
_atom_site_fract_x
_atom_site_fract_y
_atom_site_fract_z
Zn1	Zn	-0.295636	-1.606171	0.418379
Zn2	Zn	-0.208210	-1.606091	0.594041
Zn3	Zn	-0.208214	-1.430498	0.418379
Zn4	Zn	-0.295615	-1.430461	0.594018
O5	O	-0.251919	-1.518305	0.506204
O6	O	-0.284046	-1.753181	0.441690
O7	O	-0.135046	-1.582780	0.570749
O8	O	-0.219821	-1.453850	0.271358
O9	O	-0.219815	-1.753122	0.570749
O10	O	-0.284050	-1.582916	0.271357
O11	O	-0.135048	-1.453772	0.441691
O12	O	-0.219801	-1.283472	0.441668
O13	O	-0.368783	-1.453788	0.570709
O14	O	-0.284013	-1.283445	0.570709
O15	O	-0.368798	-1.582881	0.441668
O16	O	-0.219794	-1.582744	0.741059
O17	O	-0.284010	-1.453710	0.741042
C18	C	-0.251906	-1.245338	0.506187
C19	C	-0.251912	-1.128561	0.506205
C20	C	-0.388292	-1.518339	0.506186
C21	C	-0.446406	-1.518353	0.506178
C22	C	-0.318669	-1.128572	0.640793
C23	C	-0.352048	-1.073716	0.708094
C24	C	-0.352052	-0.963994	0.708105
C25	C	-0.318676	-0.909126	0.640805
C26	C	-0.285297	-0.963981	0.573504
C27	C	-0.285295	-1.073705	0.573502
C28	C	-0.218544	-0.963971	0.438912
C29	C	-0.218536	-1.073692	0.438905
C30	C	-0.185167	-0.909102	0.371612
C31	C	-0.151785	-0.963958	0.304314
C32	C	-0.151781	-1.073686	0.304307
C33	C	-0.185157	-1.128548	0.371603
C34	C	-0.806783	-1.585657	0.438786
C35	C	-0.861387	-1.585670	0.438757
O36	O	-0.889636	-1.642810	0.381582
N37	N	-0.888688	-1.518469	0.505932
C38	C	-0.861383	-1.451243	0.573132
O39	O	-0.889619	-1.394084	0.630265
C40	C	-0.806779	-1.451226	0.573155
C41	C	-0.779481	-1.518439	0.505983
C42	C	-0.779484	-1.652864	0.371620
C43	C	-0.724884	-1.652852	0.371651
C44	C	-0.697582	-1.585634	0.438848
C45	C	-0.724880	-1.518427	0.506014
C46	C	-0.779475	-1.383995	0.640349
C47	C	-0.724868	-1.383983	0.640365
C48	C	-0.697569	-1.451196	0.573194
C49	C	-0.642978	-1.451196	0.573242
N50	N	-0.615676	-1.518398	0.506068
C51	C	-0.642978	-1.585616	0.438871
C52	C	-0.976053	-1.451284	0.573077
C53	C	-1.030656	-1.451306	0.573060
C54	C	-1.030656	-1.585732	0.438684
C55	C	-0.976053	-1.585714	0.438707
C56	C	-0.948752	-1.518485	0.505903
C57	C	-0.528313	-1.585587	0.438941
C58	C	-0.473708	-1.585572	0.438981
C59	C	-0.473712	-1.451143	0.573352
C60	C	-0.528313	-1.451161	0.573317
C61	C	-0.555612	-1.518386	0.506103
O62	O	-0.614695	-1.394083	0.630385
O63	O	-0.614736	-1.642756	0.381737
C64	C	-0.116076	-1.518332	0.506147
C65	C	-0.057962	-1.518521	0.505859
C66	C	-0.251911	-1.518243	0.779172
C67	C	-0.251925	-1.518313	0.895948
C68	C	-0.251928	-0.792338	0.506218
C69	C	-0.251923	-0.909115	0.506213
C70	C	-0.251938	-1.518396	0.232171
C71	C	-0.251946	-1.518435	0.115394
C72	C	-0.185129	-1.652899	1.115336
C73	C	-0.151717	-1.720105	1.060447
C74	C	-0.151706	-1.720051	0.950725
C75	C	-0.185111	-1.652780	0.895891
C76	C	-0.218523	-1.585574	0.950780
C77	C	-0.218531	-1.585638	1.060504
C78	C	-0.285337	-1.451106	0.950838
C79	C	-0.285351	-1.451164	1.060559
C80	C	-0.318741	-1.383835	0.896003
C81	C	-0.352157	-1.316633	0.950893
C82	C	-0.352167	-1.316691	1.060621
C83	C	-0.318763	-1.383958	1.115449
H84	H	-0.379223	-1.118402	0.762886
H85	H	-0.124497	-1.774772	0.906034
O86	O	-0.949618	-1.651032	0.373353
C87	C	-0.985431	-1.710381	0.314066
H88	H	-1.024352	-1.667358	0.310417
H89	H	-0.969660	-1.721613	0.231292
H90	H	-0.991241	-1.790162	0.352544
O91	O	-0.384532	-0.910652	0.773327
C92	C	-0.418344	-0.847194	0.713616
H93	H	-0.421647	-0.880285	0.630881
H94	H	-0.458547	-0.845953	0.751741
H95	H	-0.402179	-0.764033	0.709945
H96	H	-0.451484	-1.640309	0.384281
H97	H	-1.052895	-1.640462	0.383966
O98	O	-0.318854	-1.383915	1.222032
C99	C	-0.355496	-1.310153	1.258726
H100	H	-0.386033	-1.295362	1.195488
H101	H	-0.375354	-1.341868	1.332092
H102	H	-0.334730	-1.233585	1.278270
O103	O	-0.318586	-0.802543	0.640812
C104	C	-0.268458	-0.765845	0.667663
H105	H	-0.238355	-0.829061	0.649620
H106	H	-0.259210	-0.692447	0.620246
H107	H	-0.267275	-0.746353	0.754834
H108	H	-1.052878	-1.396586	0.627769
O109	O	-0.185048	-1.652885	0.789308
C110	C	-0.148382	-1.726601	0.752620
H111	H	-0.141093	-1.788031	0.815804
H112	H	-0.164167	-1.766405	0.679166
H113	H	-0.110238	-1.684978	0.733221
H114	H	-0.801708	-1.707602	0.316894
H115	H	-0.318664	-1.217913	0.640798
O116	O	-0.185266	-0.802519	0.371622
C117	C	-0.235396	-0.765885	0.344785
H118	H	-0.265496	-0.829126	0.362822
H119	H	-0.244646	-0.692479	0.392217
H120	H	-0.236583	-0.746426	0.257618
H121	H	-0.124615	-0.919275	0.249519
H122	H	-0.124603	-1.118343	0.249494
H123	H	-0.953828	-1.396536	0.627801
O124	O	-0.805903	-1.318598	0.705627
C125	C	-0.770086	-1.259288	0.764945
H126	H	-0.731164	-1.255677	0.721921
H127	H	-0.785850	-1.176503	0.776129
H128	H	-0.764281	-1.297723	0.844748
O129	O	-0.185139	-1.652766	1.221919
C130	C	-0.171656	-1.552122	1.258676
H131	H	-0.180554	-1.491555	1.195490
H132	H	-0.195239	-1.533458	1.332077
H133	H	-0.128275	-1.549969	1.278183
H134	H	-0.550534	-1.640325	0.384205
H135	H	-0.702642	-1.329224	0.695074
O136	O	-0.318633	-1.383778	0.789421
C137	C	-0.268511	-1.356823	0.752826
H138	H	-0.238410	-1.374846	0.816068
H139	H	-0.259232	-1.404188	0.679392
H140	H	-0.267361	-1.269640	0.733425
O141	O	-0.185149	-1.235131	0.371791
C142	C	-0.171616	-1.271758	0.472430
H143	H	-0.180496	-1.208519	0.532978
H144	H	-0.195179	-1.345173	0.491178
H145	H	-0.128231	-1.291200	0.474515
H146	H	-0.379350	-1.261861	0.906240
O147	O	-0.384674	-1.251372	1.113775
C148	C	-0.414141	-1.191972	1.041844
H149	H	-0.415961	-1.234962	0.963595
H150	H	-0.455334	-1.180725	1.073518
H151	H	-0.394957	-1.112200	1.030255
H152	H	-0.702662	-1.707582	0.316951
O153	O	-0.554753	-1.385781	0.638606
C154	C	-0.518943	-1.326475	0.697947
H155	H	-0.480018	-1.322849	0.654937
H156	H	-0.534712	-1.243694	0.709140
H157	H	-0.513144	-1.364922	0.777745
O158	O	-0.447123	-1.386002	0.638674
C159	C	-0.415552	-1.445799	0.706558
H160	H	-0.407387	-1.525434	0.669513
H161	H	-0.377146	-1.403007	0.720636
H162	H	-0.436590	-1.457309	0.784416
O163	O	-0.119295	-1.785588	1.113608
C164	C	-0.130769	-1.890277	1.086738
H165	H	-0.150859	-1.892400	1.007052
H166	H	-0.093054	-1.937431	1.082989
H167	H	-0.157673	-1.925655	1.148443
