data_functionalizedCrystal
_audit_creation_method	'MofGen! by Chris Wilmer'
_symmetry_space_group_name_H-M	'P1'
_symmetry_Int_Tables_number	1
_symmetry_cell_setting	triclinic
loop_
_symmetry_equiv_pos_as_xyz
  x,y,z
_cell_length_a	16.109301
_cell_length_b	10.967829
_cell_length_c	14.586319
_cell_angle_alpha	102.128045
_cell_angle_beta	90.003133
_cell_angle_gamma	84.100403
loop_
_atom_site_label
_atom_site_type_symbol
_atom_site_fract_x
_atom_site_fract_y
_atom_site_fract_z
O1	O	1.104080	0.160383	0.101519
O2	O	0.862136	0.180343	0.104687
O3	O	0.988686	-0.011286	0.074400
O4	O	0.977530	0.352013	0.131805
O5	O	0.988671	-0.011275	-0.078079
O6	O	0.862120	0.180355	-0.047792
O7	O	1.104065	0.160394	-0.050960
Cu8	Cu	0.983091	0.170376	-0.063299
Cu9	Cu	0.983109	0.170362	0.117025
O10	O	0.977514	0.352024	-0.020674
C11	C	0.831149	0.179541	0.028321
C12	C	0.738839	0.177117	0.027944
C13	C	0.517204	0.285189	0.045010
C14	C	0.430470	0.282902	0.044643
C15	C	0.449003	0.055540	0.008721
C16	C	0.535736	0.057829	0.009082
C17	C	0.569833	0.172657	0.027232
C18	C	0.396367	0.168081	0.026503
C19	C	0.302327	0.165600	0.026105
C20	C	0.663880	0.175139	0.027628
C21	C	0.987866	-0.057769	-0.009183
C22	C	0.985433	-0.196291	-0.031065
C23	C	0.984357	-0.258048	0.038169
C24	C	0.981843	-0.401217	0.015555
C25	C	1.135052	0.161197	0.025407
C26	C	1.227362	0.163621	0.025791
C27	C	0.978335	0.398507	0.062912
C28	C	0.980767	0.537029	0.084799
N29	N	0.983084	0.170384	-0.190129
C30	C	1.033954	0.246070	-0.413179
C31	C	1.033962	0.246061	-0.509162
C32	C	0.932252	0.094649	-0.533090
C33	C	0.932248	0.094652	-0.437110
C34	C	0.983097	0.170370	-0.377156
C35	C	0.983110	0.170358	-0.569119
C36	C	0.983119	0.170348	-0.673187
C37	C	0.983090	0.170378	-0.273081
N38	N	0.983123	0.170344	0.243854
H39	H	0.578589	-0.033815	-0.005399
Br40	Br	0.359047	0.435632	0.068767
Br41	Br	0.863240	-0.008098	-0.614460
Br42	Br	0.863224	-0.008092	-0.388217
H43	H	0.984488	-0.249410	-0.107080
H44	H	1.075359	0.307724	-0.364367
Br45	Br	0.563477	0.441027	0.069638
Br46	Br	1.102988	0.348797	-0.558048
H47	H	0.421230	-0.037950	-0.006062
Br48	Br	0.985942	-0.169528	0.164872
H49	H	0.980899	-0.454331	-0.060465
H50	H	0.981697	-0.409856	0.160821
