data_functionalizedCrystal
_audit_creation_method	'MofGen! by Chris Wilmer'
_symmetry_space_group_name_H-M	'P1'
_symmetry_Int_Tables_number	1
_symmetry_cell_setting	triclinic
loop_
_symmetry_equiv_pos_as_xyz
  x,y,z
_cell_length_a	14.044191
_cell_length_b	14.044220
_cell_length_c	9.130313
_cell_angle_alpha	89.994483
_cell_angle_beta	89.998938
_cell_angle_gamma	93.190327
loop_
_atom_site_label
_atom_site_type_symbol
_atom_site_fract_x
_atom_site_fract_y
_atom_site_fract_z
O1	O	1.277171	0.230200	-0.121735
O2	O	1.000499	0.221887	-0.121753
O3	O	1.134682	0.087707	-0.121730
O4	O	1.142988	0.364379	-0.121758
O5	O	1.134672	0.087702	0.121869
O6	O	1.000488	0.221882	0.121845
O7	O	1.277161	0.230195	0.121864
Cu8	Cu	1.138824	0.226038	0.144097
Cu9	Cu	1.138836	0.226044	-0.143987
O10	O	1.142977	0.364374	0.121840
C11	C	0.964872	0.218248	0.000044
C12	C	0.858728	0.207401	0.000037
C13	C	0.613270	0.264501	0.000046
C14	C	0.664395	0.187585	0.000051
C15	C	0.772532	0.198613	0.000044
C16	C	0.505123	0.253474	0.000054
C17	C	1.131041	0.052083	0.000070
C18	C	1.120197	-0.054060	0.000071
C19	C	1.100370	-0.248398	0.000048
C20	C	1.177285	-0.299526	0.000049
C21	C	1.166253	-0.407663	0.000037
C22	C	1.111400	-0.140252	0.000061
C23	C	1.312788	0.233834	0.000063
C24	C	1.418931	0.244681	0.000060
C25	C	1.146618	0.399998	0.000037
C26	C	1.157463	0.506142	0.000027
N27	N	1.138822	0.226034	0.346720
N28	N	1.138844	0.226041	-0.346609
C29	C	1.198262	0.166648	0.423382
C30	C	1.198271	0.166649	0.576719
C31	C	1.079397	0.285429	0.576718
C32	C	1.079384	0.285423	0.423384
H33	H	0.626952	0.113452	-0.000044
H34	H	0.650711	0.338628	0.000034
H35	H	1.251419	-0.262085	-0.000044
C36	C	1.014025	0.350763	0.661049
C37	C	1.014095	0.350838	0.829710
C38	C	0.948723	0.416177	0.914036
C39	C	0.883282	0.481441	0.829700
C40	C	0.883210	0.481369	0.661029
C41	C	0.948582	0.416030	0.576704
H42	H	1.062541	0.302523	0.892149
H43	H	0.948777	0.416230	1.038898
H44	H	0.834890	0.529809	0.892123
H45	H	0.834765	0.529684	0.598591
H46	H	0.948528	0.415977	0.451842
C47	C	1.000224	-0.298971	0.000039
C48	C	0.989192	-0.408679	0.000030
C49	C	0.889048	-0.459264	0.000022
C50	C	0.799936	-0.400142	0.000024
C51	C	0.810965	-0.290428	0.000034
C52	C	0.911109	-0.239842	0.000041
H53	H	1.055161	-0.452450	0.000028
H54	H	0.880884	-0.540482	0.000015
H55	H	0.725803	-0.437589	0.000019
H56	H	0.744996	-0.246656	0.000036
H57	H	0.919273	-0.158624	0.000049
C58	C	1.263634	0.101314	0.339051
C59	C	1.329013	0.035986	0.423387
C60	C	1.394384	-0.029352	0.339061
C61	C	1.394377	-0.029364	0.170399
C62	C	1.328997	0.035966	0.086054
C63	C	1.263625	0.101304	0.170380
H64	H	1.329020	0.035993	0.548248
H65	H	1.442783	-0.077714	0.401500
H66	H	1.442769	-0.077732	0.107976
H67	H	1.328989	0.035959	-0.038807
H68	H	1.215226	0.149666	0.107941
H69	H	1.246672	0.118290	0.639133
H70	H	1.030976	0.333782	0.360961
