data_functionalizedCrystal
_audit_creation_method	'MofGen! by Chris Wilmer'
_symmetry_space_group_name_H-M	'P1'
_symmetry_Int_Tables_number	1
_symmetry_cell_setting	triclinic
loop_
_symmetry_equiv_pos_as_xyz
  x,y,z
_cell_length_a	18.760487
_cell_length_b	21.606444
_cell_length_c	21.606444
_cell_angle_alpha	60.001331
_cell_angle_beta	90.036891
_cell_angle_gamma	60.019231
loop_
_atom_site_label
_atom_site_type_symbol
_atom_site_fract_x
_atom_site_fract_y
_atom_site_fract_z
Zr1	Zr	0.686670	0.677450	-0.080834
O2	O	0.572846	0.806573	-0.179717
O3	O	0.721564	0.548331	-0.050524
O4	O	0.721555	0.677454	-0.179642
O5	O	0.572861	0.677445	0.051255
O6	O	0.838858	0.677454	-0.179579
O7	O	0.572855	0.677449	-0.050599
O8	O	0.838874	0.446475	0.051390
O9	O	0.572845	0.908424	-0.179714
O10	O	0.823987	0.601438	-0.037547
O11	O	0.736449	0.601435	0.038419
O12	O	0.736439	0.753462	-0.113601
O13	O	0.648901	0.753459	-0.037635
Zr14	Zr	0.873764	0.677443	0.081712
Zr15	Zr	0.873755	0.677450	-0.080734
Zr16	Zr	0.686680	0.677443	0.081612
Zr17	Zr	0.686668	0.839891	-0.080829
Zr18	Zr	0.873766	0.515003	0.081706
O19	O	0.838870	0.806563	0.051401
O20	O	0.838856	0.806573	-0.179575
O21	O	0.572860	0.806563	0.051259
O22	O	0.987588	0.548320	0.180595
O23	O	0.987574	0.548330	-0.050382
O24	O	0.721578	0.548321	0.180453
O25	O	0.987573	0.677449	-0.050377
O26	O	0.838879	0.677439	0.180520
O27	O	0.721576	0.677439	0.180457
O28	O	0.987579	0.677444	0.051477
O29	O	0.721552	0.908424	-0.179635
O30	O	0.838882	0.446470	0.180512
O31	O	0.987589	0.446470	0.180592
O32	O	0.987582	0.446475	0.051469
O33	O	0.572853	0.908418	-0.050592
O34	O	0.721560	0.908418	-0.050512
O35	O	0.823996	0.601432	0.114479
O36	O	0.911533	0.601435	0.038513
O37	O	0.823985	0.753458	-0.037542
O38	O	0.736447	0.753455	0.038424
C39	C	0.780220	0.474259	0.000432
C40	C	0.780220	0.405298	0.000430
C41	C	0.825912	0.372903	-0.039224
C42	C	0.825915	0.308103	-0.039219
C43	C	0.780221	0.275704	0.000436
C44	C	0.734528	0.308103	0.040096
C45	C	0.734530	0.372897	0.040094
C46	C	0.734518	0.046793	0.040102
C47	C	0.734516	-0.018004	0.040098
C48	C	0.825902	-0.018001	-0.039212
C49	C	0.825905	0.046793	-0.039213
C50	C	0.780216	0.079183	0.000449
C51	C	0.780214	0.149445	0.000444
C52	C	0.780217	0.205447	0.000437
C53	C	0.546203	0.677447	0.000314
C54	C	0.466780	0.677447	0.000271
C55	C	0.085264	0.756805	-0.039129
C56	C	0.176671	0.598089	0.040273
C57	C	0.251293	0.598088	0.040208
C58	C	0.242903	0.677446	0.000473
C59	C	0.159892	0.756806	-0.039197
C60	C	0.334309	0.518730	0.079871
C61	C	0.408937	0.518725	0.079807
C62	C	0.400549	0.598084	0.040076
C63	C	0.317531	0.677447	0.000405
C64	C	0.309141	0.756805	-0.039330
C65	C	0.226124	0.836169	-0.078997
C66	C	0.151503	0.836165	-0.078928
C67	C	0.475170	0.598089	0.040006
C68	C	0.383769	0.756807	-0.039399
C69	C	1.014231	0.677446	0.000564
C70	C	1.093654	0.677446	0.000606
C71	C	0.780205	0.677455	-0.202756
C72	C	0.780201	0.677458	-0.271718
C73	C	0.780215	0.880635	0.000445
C74	C	0.780214	0.949595	0.000448
C75	C	0.734501	0.756812	-0.343817
C76	C	0.734509	0.756810	-0.408611
C77	C	0.780212	0.677453	-0.401306
C78	C	0.825917	0.598092	-0.329200
C79	C	0.825914	0.598096	-0.264407
C80	C	0.825931	0.598077	-0.590503
C81	C	0.825928	0.598080	-0.655304
C82	C	0.734526	0.756792	-0.734708
C83	C	0.734523	0.756795	-0.669914
C84	C	0.780232	0.677435	-0.597814
C85	C	0.780224	0.677439	-0.527557
C86	C	0.780214	0.677448	-0.471562
C87	C	0.780229	0.677438	0.203633
C88	C	0.780233	0.677435	0.272596
C89	C	1.014234	0.474258	0.000557
C90	C	1.093657	0.405298	0.000597
C91	C	0.780231	0.474250	0.203627
C92	C	0.780236	0.405287	0.272587
C93	C	1.014246	0.474250	0.203752
C94	C	1.093673	0.405286	0.272754
C95	C	0.546188	0.880644	-0.202874
C96	C	0.466761	0.949607	-0.271877
C97	C	0.546200	0.880635	0.000320
C98	C	0.466777	0.949595	0.000280
C99	C	0.780203	0.880643	-0.202749
C100	C	0.780198	0.949607	-0.271709
C101	C	1.085257	0.372915	-0.039093
C102	C	1.159876	0.308129	-0.039070
C103	C	1.242895	0.275722	0.000647
C104	C	1.251293	0.308111	0.040339
C105	C	1.176675	0.372901	0.040311
C106	C	0.825937	0.372899	0.344680
C107	C	0.825938	0.308110	0.409482
C108	C	0.780243	0.275705	0.402189
C109	C	0.734537	0.308099	0.330088
C110	C	0.734531	0.372892	0.265288
C111	C	1.176674	0.372902	0.265505
C112	C	1.251312	0.308113	0.330334
C113	C	1.242946	0.275705	0.402412
C114	C	1.159936	0.308095	0.409659
C115	C	1.085300	0.372888	0.344831
C116	C	0.383760	0.981999	-0.264628
C117	C	0.309122	1.046808	-0.329457
C118	C	0.317488	1.079220	-0.401534
C119	C	0.400498	1.046825	-0.408782
C120	C	0.475134	0.982021	-0.343953
C121	C	0.475177	0.981985	0.039964
C122	C	0.400558	1.046789	0.039923
C123	C	0.317539	1.079198	0.000203
C124	C	0.309141	1.046806	-0.039485
C125	C	0.383759	0.982007	-0.039449
C126	C	0.825901	0.981991	-0.264392
C127	C	0.825914	1.046780	-0.329181
C128	C	0.780217	1.079189	-0.401287
C129	C	0.734512	1.046798	-0.408603
C130	C	0.734505	0.982005	-0.343815
H131	H	0.863110	0.073173	-0.071507
N132	N	0.236979	1.149107	-0.471448
H133	H	0.236934	1.126561	-0.502637
H134	H	0.236975	1.202859	-0.502581
H135	H	1.318895	0.281747	0.324420
N136	N	0.685239	-0.052959	0.082878
H137	H	0.621311	-0.003528	0.062042
H138	H	0.709292	-0.079862	0.138387
H139	H	0.863147	0.399276	0.350633
N140	N	0.685254	0.407837	0.082869
H141	H	0.656306	0.377482	0.107991
H142	H	0.639312	0.472883	0.046416
N143	N	0.875203	0.947030	-0.186623
H144	H	0.833300	0.958304	-0.157987
H145	H	0.904159	0.977392	-0.191890
N146	N	0.875182	-0.052934	-0.081994
H147	H	0.868251	-0.098899	-0.075977
H148	H	0.939089	-0.079767	-0.061133
H149	H	0.407300	1.073223	-0.467475
H150	H	0.241540	1.073173	-0.323541
H151	H	1.017665	0.399301	-0.071445
N152	N	0.875228	0.512479	-0.512750
H153	H	0.851255	0.477791	-0.506699
H154	H	0.868288	0.524580	-0.472851
N155	N	0.875209	0.512507	-0.186641
H156	H	0.904161	0.462233	-0.191843
H157	H	0.833252	0.509048	-0.158050
N158	N	0.061969	0.921758	-0.121706
H159	H	0.015970	0.909713	-0.115635
H160	H	0.054978	0.956417	-0.177217
H161	H	0.697318	0.073154	0.072401
H162	H	0.542758	0.533472	0.072309
N163	N	-0.004267	0.842401	-0.081904
H164	H	-0.050271	0.830364	-0.075831
H165	H	-0.011260	0.877060	-0.137415
H166	H	0.476526	0.454102	0.112105
N167	N	0.185709	0.512506	0.083114
H168	H	0.156855	0.508966	0.123070
H169	H	0.249634	0.462278	0.108187
N170	N	0.780241	1.149068	-0.471157
H171	H	0.754241	1.202828	-0.471189
H172	H	0.744376	1.164620	-0.517915
H173	H	0.542769	0.955602	0.072313
H174	H	1.318897	0.281716	0.072675
H175	H	0.219304	0.900783	-0.111354
N176	N	0.374710	0.842405	-0.082262
H177	H	0.403556	0.845945	-0.122222
H178	H	0.403700	0.845892	-0.045851
N179	N	0.685250	0.273156	0.082875
H180	H	0.692179	0.227194	0.076858
H181	H	0.621344	0.322643	0.062010
H182	H	1.303726	0.222946	0.455193
N183	N	1.150928	0.273125	0.487405
H184	H	1.117973	0.246232	0.493462
H185	H	1.117990	0.322587	0.493427
H186	H	0.863134	0.533478	-0.323257
H187	H	0.863161	0.281743	0.468183
H188	H	1.183527	0.399258	0.072636
H189	H	0.697284	0.955645	-0.349784
N190	N	0.685203	0.842406	-0.351698
H191	H	0.656256	0.892676	-0.407206
H192	H	0.727161	0.845864	-0.326519
N193	N	0.343342	0.433149	0.122709
H194	H	0.314494	0.429606	0.162668
H195	H	0.407266	0.382918	0.147776
N196	N	0.995778	0.407809	0.352655
H197	H	1.001813	0.377441	0.408154
H198	H	0.962828	0.396525	0.327489
H199	H	0.407413	1.073152	0.072245
N200	N	0.685266	0.842399	-0.486375
H201	H	0.656324	0.892671	-0.481171
H202	H	0.639322	0.845891	-0.515049
N203	N	0.780268	0.205814	0.472088
H204	H	0.806281	0.152042	0.472136
H205	H	0.718365	0.228429	0.472058
H206	H	0.376932	0.955613	-0.205945
N207	N	0.685260	0.273140	0.322227
H208	H	0.692210	0.227176	0.374221
H209	H	0.709262	0.246296	0.293594
H210	H	0.697303	0.821416	-0.675869
N211	N	1.185721	0.407838	0.187774
H212	H	1.218682	0.434724	0.181724
H213	H	1.125825	0.453763	0.147841
N214	N	1.150806	0.273204	-0.081883
H215	H	1.086890	0.303563	-0.107039
H216	H	1.179783	0.208158	-0.045442
N217	N	0.237057	1.149084	0.000168
H218	H	0.237027	1.202848	-0.022409
H219	H	0.237084	1.126448	0.053926
H220	H	0.697310	0.821410	-0.793421
H221	H	0.863147	0.533454	-0.649348
H222	H	0.542715	0.955648	-0.349865
H223	H	1.303647	0.222965	0.000664
N224	N	0.685185	0.407866	0.187530
H225	H	0.656226	0.377516	0.192750
H226	H	0.727097	0.396618	0.158898
H227	H	0.241537	1.073204	-0.071824
N228	N	0.374683	0.947079	-0.082252
H229	H	0.341712	0.920206	-0.061452
H230	H	0.434573	0.901145	-0.076196
N231	N	0.875214	1.081706	-0.321280
H232	H	0.904152	1.051345	-0.265769
H233	H	0.833261	1.146752	-0.346457
N234	N	0.685227	1.081757	-0.486377
H235	H	0.692169	1.127719	-0.526303
H236	H	0.621319	1.108602	-0.492417
H237	H	0.863117	0.399281	-0.071520
H238	H	0.863121	0.281725	-0.071508
