data_functionalizedCrystal
_audit_creation_method	'MofGen! by Chris Wilmer'
_symmetry_space_group_name_H-M	'P1'
_symmetry_Int_Tables_number	1
_symmetry_cell_setting	triclinic
loop_
_symmetry_equiv_pos_as_xyz
  x,y,z
_cell_length_a	12.837943
_cell_length_b	13.339070
_cell_length_c	11.892095
_cell_angle_alpha	94.950121
_cell_angle_beta	85.689438
_cell_angle_gamma	105.229117
loop_
_atom_site_label
_atom_site_type_symbol
_atom_site_fract_x
_atom_site_fract_y
_atom_site_fract_z
O1	O	1.458153	0.264493	-0.093975
O2	O	1.152505	0.251131	-0.093982
O3	O	1.270251	0.107167	-0.093976
O4	O	1.340408	0.408457	-0.093981
O5	O	1.260427	0.119150	0.094031
O6	O	1.142682	0.263114	0.094025
O7	O	1.448330	0.276476	0.094032
Zn8	Zn	1.293946	0.271697	0.123879
Zn9	Zn	1.306889	0.255909	-0.123828
O10	O	1.330585	0.420439	0.094026
C11	C	1.107675	0.252608	0.000021
C12	C	0.988726	0.239146	0.000018
C13	C	0.794315	0.400986	0.000032
C14	C	0.682553	0.388342	0.000030
C15	C	0.653436	0.201215	0.000021
C16	C	0.765199	0.213859	0.000023
C17	C	0.835635	0.313748	0.000026
C18	C	0.947400	0.326390	0.000020
C19	C	0.918281	0.139265	0.000019
C20	C	0.806519	0.126621	0.000017
C21	C	1.253488	0.074327	0.000026
C22	C	1.218164	-0.041381	0.000021
C23	C	1.492830	-0.379696	0.000028
C24	C	1.526022	-0.270983	0.000039
C25	C	1.449060	-0.213577	0.000034
C26	C	1.338901	-0.264895	0.000018
C27	C	1.305705	-0.373618	0.000016
C28	C	1.261935	-0.207499	0.000022
C29	C	1.151776	-0.258817	0.000007
C30	C	1.118585	-0.367530	0.000003
C31	C	1.195547	-0.424936	0.000008
C32	C	1.295131	-0.098776	0.000025
C33	C	1.108006	-0.092698	0.000013
C34	C	1.074814	-0.201411	0.000002
C35	C	1.493161	0.274998	0.000027
C36	C	1.612110	0.288460	0.000023
C37	C	1.347347	0.453280	0.000022
C38	C	1.382672	0.568986	0.000020
N39	N	1.285121	0.282472	0.292933
N40	N	1.315720	0.245127	-0.292882
C41	C	1.377114	0.170089	0.529585
C42	C	1.370955	0.177629	0.647927
C43	C	1.266638	0.305086	0.647959
C44	C	1.272797	0.297546	0.529618
C45	C	1.328038	0.230047	0.470435
C46	C	1.334203	0.222513	0.352091
C47	C	1.229880	0.349963	0.352126
C48	C	1.223721	0.357503	0.470468
H49	H	0.851666	0.482319	0.000033
H50	H	1.555480	-0.426445	0.000041
Br51	Br	1.409179	0.130913	0.271773
H52	H	0.749154	0.045295	0.000027
Br53	Br	0.974363	0.020861	-0.000012
Br54	Br	0.626478	0.506742	0.000045
Br55	Br	1.444628	-0.029143	0.000050
Br56	Br	0.557827	0.065664	0.000036
H57	H	1.422103	0.115136	0.481398
H58	H	1.410916	0.128805	0.696084
H59	H	1.178741	0.412457	0.518668
H60	H	1.476092	-0.125058	0.000044
H61	H	1.615714	-0.229208	0.000053
H62	H	1.168527	-0.513460	-0.000005
Br63	Br	1.191653	0.396672	0.728290
H64	H	1.189923	0.398788	0.303952
H65	H	1.028886	-0.409309	-0.000001
H66	H	0.985120	-0.243210	-0.000010
H67	H	1.004748	0.407725	0.000025
H68	H	1.045336	-0.045958	0.000015
