data_functionalizedCrystal
_audit_creation_method	'MofGen! by Chris Wilmer'
_symmetry_space_group_name_H-M	'P1'
_symmetry_Int_Tables_number	1
_symmetry_cell_setting	triclinic
loop_
_symmetry_equiv_pos_as_xyz
  x,y,z
_cell_length_a	16.120530
_cell_length_b	14.908520
_cell_length_c	14.908858
_cell_angle_alpha	90.221996
_cell_angle_beta	90.214265
_cell_angle_gamma	89.416769
loop_
_atom_site_label
_atom_site_type_symbol
_atom_site_fract_x
_atom_site_fract_y
_atom_site_fract_z
Zn1	Zn	1.221700	0.391656	-0.599643
Zn2	Zn	1.721700	0.891656	-0.099643
Zn3	Zn	1.220680	0.550657	-0.457898
Zn4	Zn	1.720680	1.050657	0.042102
Zn5	Zn	1.090598	0.393603	-0.441726
Zn6	Zn	1.590598	0.893603	0.058274
Zn7	Zn	1.074632	0.534386	-0.599767
Zn8	Zn	1.574632	1.034386	-0.099767
O9	O	1.151903	0.467575	-0.524758
O10	O	1.651903	0.967575	-0.024758
O11	O	1.337553	0.418742	-0.587557
O12	O	1.837553	0.918742	-0.087557
O13	O	1.209679	0.537448	-0.330291
O14	O	1.709679	1.037448	0.169709
O15	O	1.115098	0.267884	-0.455854
O16	O	1.615098	0.767884	0.044146
O17	O	1.336803	0.535560	-0.483417
O18	O	1.836803	1.035560	0.016583
O19	O	1.211418	0.266454	-0.571876
O20	O	1.711418	0.766454	-0.071876
O21	O	1.114108	0.422061	-0.318409
O22	O	1.614108	0.922061	0.181591
O23	O	0.972492	0.406284	-0.455974
O24	O	1.472492	0.906284	0.044026
O25	O	1.087887	0.507827	-0.725212
O26	O	1.587887	1.007827	-0.225212
O27	O	0.960762	0.509716	-0.572086
O28	O	1.460762	1.009716	-0.072086
O29	O	1.195937	0.402964	-0.725121
O30	O	1.695937	0.902964	-0.225121
O31	O	1.194198	0.673959	-0.483537
O32	O	1.694198	1.173959	0.016463
O33	O	1.086897	0.662004	-0.587767
O34	O	1.586897	1.162004	-0.087767
C35	C	1.138726	0.700512	-0.537441
C36	C	1.638726	1.200512	-0.037441
C37	C	1.133163	0.800166	-0.542901
C38	C	1.633163	1.300166	-0.042901
C39	C	0.936553	0.456446	-0.512289
C40	C	1.436553	0.956446	-0.012289
C41	C	0.844423	0.451705	-0.506977
C42	C	1.344423	0.951705	-0.006977
C43	C	1.140245	0.453364	-0.758607
C44	C	1.640245	0.953364	-0.258607
C45	C	1.135277	0.447308	-0.858260
C46	C	1.635277	0.947308	-0.358260
C47	C	0.675740	0.443028	-0.497286
C48	C	1.175740	0.943028	0.002714
C49	C	0.628899	0.492185	-0.552300
C50	C	1.128899	0.992185	-0.052300
C51	C	0.535038	0.487357	-0.546908
C52	C	1.035038	0.987357	-0.046908
C53	C	0.769610	0.447855	-0.502677
C54	C	1.269610	0.947855	-0.002677
C55	C	1.368094	0.478749	-0.537277
C56	C	1.868094	0.978749	-0.037277
C57	C	1.460221	0.483510	-0.542611
C58	C	1.960221	0.983510	-0.042611
C59	C	1.165152	0.233729	-0.512047
C60	C	1.665152	0.733729	-0.012047
C61	C	1.170799	0.134077	-0.506630
C62	C	1.670799	0.634077	-0.006630
C63	C	1.234546	0.999812	-0.444724
C64	C	1.734546	1.499812	0.055276
C65	C	1.229323	1.093446	-0.449852
C66	C	1.729323	1.593446	0.050148
C67	C	1.117496	1.081068	-0.558288
C68	C	1.617496	1.581068	-0.058288
C69	C	1.122720	0.987435	-0.553160
C70	C	1.622720	1.487435	-0.053160
C71	C	1.181246	0.946810	-0.496376
C72	C	1.681246	1.446810	0.003624
C73	C	1.186466	0.853175	-0.491244
C74	C	1.686466	1.353175	0.008756
C75	C	1.074644	0.840799	-0.599684
C76	C	1.574644	1.340799	-0.099684
C77	C	1.069420	0.934432	-0.604811
C78	C	1.569420	1.434432	-0.104811
C79	C	1.078522	0.378698	-0.992529
C80	C	1.578522	0.878698	-0.492529
C81	C	1.083187	0.384387	-0.898896
C82	C	1.583187	0.884387	-0.398896
C83	C	1.182707	0.504542	-0.911263
C84	C	1.682707	1.004542	-0.411263
C85	C	1.178043	0.498854	-1.004895
C86	C	1.678043	0.998854	-0.504895
C87	C	1.125947	0.435931	-1.045525
C88	C	1.625947	0.935931	-0.545525
C89	C	1.121279	0.430247	-1.139159
C90	C	1.621279	0.930247	-0.639159
C91	C	1.220803	0.550397	-1.151524
C92	C	1.720803	1.050397	-0.651524
C93	C	1.225468	0.556086	-1.057891
C94	C	1.725468	1.056086	-0.557891
C95	C	1.163567	0.481670	-0.291819
C96	C	1.663567	0.981670	0.208181
C97	C	1.168709	0.487481	-0.192162
C98	C	1.668709	0.987481	0.307838
H99	H	0.659288	0.537894	-0.603451
H100	H	1.159288	1.037894	-0.103451
H101	H	0.645353	0.397322	-0.446140
H102	H	1.145353	0.897322	0.053860
H103	H	1.282195	0.966736	-0.398482
H104	H	1.782195	1.466736	0.101518
Br105	Br	1.265887	0.798042	-0.414175
Br106	Br	1.765887	1.298042	0.085825
H107	H	1.267885	0.607313	-1.024797
H108	H	1.767885	1.107313	-0.524797
Br109	Br	1.301665	1.165376	-0.379756
Br110	Br	1.801665	1.665376	0.120244
H111	H	1.069852	1.114161	-0.604525
H112	H	1.569852	1.614161	-0.104525
Br113	Br	0.990000	0.989574	-0.681877
Br114	Br	1.490000	1.489574	-0.181877
H115	H	1.031241	0.797633	-0.641739
H116	H	1.531241	1.297633	-0.141739
H117	H	1.225127	0.555765	-0.878165
H118	H	1.725127	1.055765	-0.378165
H119	H	1.078859	0.379012	-1.172238
H120	H	1.578859	0.879012	-0.672238
H121	H	1.036101	0.327467	-1.025610
H122	H	1.536101	0.827467	-0.525610
H123	H	1.259425	0.596996	-1.194683
H124	H	1.759425	1.096996	-0.694683
Br125	Br	1.018826	0.306707	-0.826975
Br126	Br	1.518826	0.806707	-0.326975
