data_functionalizedCrystal
_audit_creation_method	'MofGen! by Chris Wilmer'
_symmetry_space_group_name_H-M	'P1'
_symmetry_Int_Tables_number	1
_symmetry_cell_setting	triclinic
loop_
_symmetry_equiv_pos_as_xyz
  x,y,z
_cell_length_a	13.897448
_cell_length_b	12.759395
_cell_length_c	12.759387
_cell_angle_alpha	89.982262
_cell_angle_beta	89.966131
_cell_angle_gamma	90.017538
loop_
_atom_site_label
_atom_site_type_symbol
_atom_site_fract_x
_atom_site_fract_y
_atom_site_fract_z
Zn1	Zn	-0.383957	1.606229	-0.593961
Zn2	Zn	0.116043	2.106229	-0.093961
Zn3	Zn	-0.545288	1.606116	-0.418275
Zn4	Zn	-0.045288	2.106116	0.081725
Zn5	Zn	-0.384008	1.430533	-0.418301
Zn6	Zn	0.115992	1.930533	0.081699
Zn7	Zn	-0.545211	1.430511	-0.593918
Zn8	Zn	-0.045211	1.930511	-0.093918
O9	O	-0.464616	1.518347	-0.506114
O10	O	0.035384	2.018347	-0.006114
O11	O	-0.405369	1.753235	-0.570663
O12	O	0.094631	2.253235	-0.070663
O13	O	-0.523947	1.582786	-0.271258
O14	O	-0.023947	2.082786	0.228742
O15	O	-0.249020	1.453896	-0.441631
O16	O	0.250980	1.953896	0.058369
O17	O	-0.523898	1.753152	-0.441588
O18	O	-0.023898	2.253152	0.058412
O19	O	-0.248982	1.582979	-0.570688
O20	O	0.251018	2.082979	-0.070688
O21	O	-0.405456	1.453786	-0.271276
O22	O	0.094544	1.953786	0.228724
O23	O	-0.405381	1.283509	-0.441590
O24	O	0.094619	1.783509	0.058410
O25	O	-0.523767	1.453858	-0.740945
O26	O	-0.023767	1.953858	-0.240945
O27	O	-0.523817	1.283492	-0.570615
O28	O	-0.023817	1.783492	-0.070615
O29	O	-0.405294	1.582958	-0.740976
O30	O	0.094706	2.082958	-0.240976
O31	O	-0.680259	1.582765	-0.441546
O32	O	-0.180259	2.082765	0.058454
O33	O	-0.680203	1.453748	-0.570590
O34	O	-0.180203	1.953748	-0.070590
C35	C	-0.464597	1.245380	-0.506101
C36	C	0.035403	1.745380	-0.006101
C37	C	-0.464612	1.128603	-0.506120
C38	C	0.035388	1.628603	-0.006120
C39	C	-0.341387	1.128670	-0.640744
C40	C	0.158613	1.628670	-0.140744
C41	C	-0.279786	1.073843	-0.708064
C42	C	0.220214	1.573843	-0.208064
C43	C	-0.279803	0.964122	-0.708077
C44	C	0.220197	1.464122	-0.208077
C45	C	-0.341426	0.909225	-0.640760
C46	C	0.158574	1.409225	-0.140760
C47	C	-0.403027	0.964052	-0.573440
C48	C	0.096973	1.464052	-0.073440
C49	C	-0.403005	1.073776	-0.573437
C50	C	0.096995	1.573776	-0.073437
C51	C	-0.526245	0.963984	-0.438813
C52	C	-0.026245	1.463984	0.061187
C53	C	-0.526234	1.073706	-0.438804
C54	C	-0.026234	1.573706	0.061196
C55	C	-0.587868	0.909087	-0.371497
C56	C	-0.087868	1.409087	0.128503
C57	C	-0.649475	0.963914	-0.304180
C58	C	-0.149475	1.463914	0.195820
C59	C	-0.649456	1.073643	-0.304171
C60	C	-0.149456	1.573643	0.195829
C61	C	-0.587835	1.128533	-0.371484
C62	C	-0.087835	1.628533	0.128516
C63	C	-0.715230	1.518270	-0.506083
C64	C	-0.215230	2.018270	-0.006083
C65	C	-0.822444	1.518334	-0.506106
C66	C	-0.322444	2.018334	-0.006106
C67	C	-1.018739	1.518444	-0.506171
C68	C	-0.518739	2.018444	-0.006171
C69	C	-0.909507	1.518380	-0.506138
C70	C	-0.409507	2.018380	-0.006138
C71	C	-0.213023	1.518453	-0.506167
C72	C	0.286977	2.018453	-0.006167
C73	C	-0.105809	1.518498	-0.506190
C74	C	0.394191	2.018498	-0.006190
C75	C	-0.464516	1.518418	-0.780147
C76	C	0.035484	2.018418	-0.280147
C77	C	-0.464474	1.518449	-0.896924
C78	C	0.035526	2.018449	-0.396924
C79	C	-0.464636	1.792380	-0.506127
C80	C	0.035364	2.292380	-0.006127
C81	C	-0.464645	1.909157	-0.506133
C82	C	0.035355	2.409157	-0.006133
C83	C	-0.341080	1.384130	-0.896963
C84	C	0.158920	1.884130	-0.396963
C85	C	-0.279364	1.316989	-0.951843
C86	C	0.220636	1.816989	-0.451843
C87	C	-0.279330	1.317021	-1.061564
C88	C	0.220670	1.817021	-0.561564
C89	C	-0.341019	1.384198	-1.116409
C90	C	0.158981	1.884198	-0.616409
C91	C	-0.402735	1.451338	-1.061529
C92	C	0.097265	1.951338	-0.561529
C93	C	-0.402761	1.451301	-0.951804
C94	C	0.097239	1.951301	-0.451804
C95	C	-0.526132	1.585650	-1.061490
C96	C	-0.026132	2.085650	-0.561490
C97	C	-0.526164	1.585626	-0.951768
C98	C	-0.026164	2.085626	-0.451768
C99	C	-0.587822	1.652827	-1.116334
C100	C	-0.087822	2.152827	-0.616334
C101	C	-0.649535	1.719974	-1.061454
C102	C	-0.149535	2.219974	-0.561454
C103	C	-0.649566	1.719941	-0.951726
C104	C	-0.149566	2.219941	-0.451726
C105	C	-0.587880	1.652766	-0.896888
C106	C	-0.087880	2.152766	-0.396888
C107	C	-0.464646	1.518337	-0.233146
C108	C	0.035354	2.018337	0.266854
C109	C	-0.464416	1.518510	-0.116370
C110	C	0.035584	2.018510	0.383630
H111	H	-0.229637	0.919482	-0.762888
H112	H	0.270363	1.419482	-0.262888
H113	H	-0.229613	1.118552	-0.762869
H114	H	0.270387	1.618552	-0.262869
H115	H	-0.587896	1.652736	-0.807547
H116	H	-0.087896	2.152736	-0.307547
Br117	Br	-0.587789	1.652857	-1.265243
Br118	Br	-0.087789	2.152857	-0.765243
Br119	Br	-0.195631	1.225842	-0.877408
Br120	Br	0.304369	1.725842	-0.377408
Br121	Br	-0.341375	1.277579	-0.640748
Br122	Br	0.158625	1.777579	-0.140748
Br123	Br	-0.733257	1.811123	-1.135889
Br124	Br	-0.233257	2.311123	-0.635889
H125	H	-0.699820	1.774618	-0.907049
H126	H	-0.199820	2.274618	-0.407049
H127	H	-0.341427	0.819883	-0.640768
H128	H	0.158573	1.319883	-0.140768
H129	H	-0.587875	0.819746	-0.371509
H130	H	-0.087875	1.319746	0.128491
H131	H	-0.699639	0.919209	-0.249372
H132	H	-0.199639	1.419209	0.250628
Br133	Br	-0.733056	1.148042	-0.212796
Br134	Br	-0.233056	1.648042	0.287204
Br135	Br	-0.195570	1.225905	-1.136049
Br136	Br	0.304430	1.725905	-0.636049
Br137	Br	-0.587811	1.277442	-0.371483
Br138	Br	-0.087811	1.777442	0.128517
H139	H	-0.341095	1.384106	-0.807621
H140	H	0.158905	1.884106	-0.307621
H141	H	-0.340994	1.384208	-1.205750
H142	H	0.159006	1.884208	-0.705750
