data_functionalizedCrystal
_audit_creation_method	'MofGen! by Chris Wilmer'
_symmetry_space_group_name_H-M	'P1'
_symmetry_Int_Tables_number	1
_symmetry_cell_setting	triclinic
loop_
_symmetry_equiv_pos_as_xyz
  x,y,z
_cell_length_a	18.215407
_cell_length_b	19.077068
_cell_length_c	18.215399
_cell_angle_alpha	92.265636
_cell_angle_beta	89.983176
_cell_angle_gamma	92.327501
loop_
_atom_site_label
_atom_site_type_symbol
_atom_site_fract_x
_atom_site_fract_y
_atom_site_fract_z
Zn1	Zn	1.113266	-0.280183	-0.427868
Zn2	Zn	1.108231	-0.397890	-0.309739
Zn3	Zn	0.990204	-0.280211	-0.304816
Zn4	Zn	0.985216	-0.397846	-0.432762
O5	O	1.049229	-0.339032	-0.368796
O6	O	1.215582	-0.295804	-0.412210
O7	O	1.092554	-0.382310	-0.206103
O8	O	1.010723	-0.181716	-0.317031
O9	O	1.211883	-0.382282	-0.325421
O10	O	1.101137	-0.181696	-0.407437
O11	O	1.005841	-0.295852	-0.202486
O12	O	0.886558	-0.295809	-0.321777
O13	O	1.002222	-0.382207	-0.535096
O14	O	0.882894	-0.382234	-0.415778
O15	O	1.096300	-0.295761	-0.531500
O16	O	1.087718	-0.496375	-0.330166
O17	O	0.997339	-0.496342	-0.420551
C18	C	0.858023	-0.339020	-0.368775
C19	C	0.776224	-0.339032	-0.368784
C20	C	0.586138	-0.384105	-0.417674
C21	C	0.509279	-0.384107	-0.417683
C22	C	0.513072	-0.293973	-0.319935
C23	C	0.589929	-0.293968	-0.319930
C24	C	0.626460	-0.339038	-0.368798
C25	C	0.472744	-0.339045	-0.368813
C26	C	0.389410	-0.339047	-0.368823
C27	C	0.709799	-0.339035	-0.368790
C28	C	1.041461	-0.521896	-0.376440
C29	C	1.038205	-0.600126	-0.379734
C30	C	1.083766	-0.636872	-0.334263
C31	C	1.080708	-0.710377	-0.337365
C32	C	1.032084	-0.747135	-0.385937
C33	C	0.986520	-0.710384	-0.431413
C34	C	0.989583	-0.636880	-0.428314
C35	C	1.017879	-0.966969	-0.400253
C36	C	1.014818	-1.040478	-0.403348
C37	C	1.109008	-1.040467	-0.309300
C38	C	1.112063	-0.966961	-0.306202
C39	C	1.066502	-0.930217	-0.351681
N40	N	1.028955	-0.822270	-0.389108
N41	N	1.069635	-0.855084	-0.348513
C42	C	1.241182	-0.339045	-0.368818
C43	C	1.322980	-0.339050	-0.368828
C44	C	1.049266	-0.338976	-0.560747
C45	C	1.049282	-0.338952	-0.642545
C46	C	1.057048	-0.155455	-0.361139
C47	C	1.060380	-0.077225	-0.357876
C48	C	1.004171	-0.293903	-0.828855
C49	C	1.004185	-0.293889	-0.905714
C50	C	1.094484	-0.383917	-0.909469
C51	C	1.094467	-0.383934	-0.832612
C52	C	1.049311	-0.338923	-0.792307
C53	C	1.049343	-0.338892	-0.946022
C54	C	1.049357	-0.338877	-1.029355
C55	C	1.049295	-0.338939	-0.708969
C56	C	1.049237	-0.339038	-0.177590
C57	C	1.049372	-0.338863	-0.095784
H58	H	0.483319	-0.257280	-0.280148
H59	H	0.476452	-0.420804	-0.457483
O60	O	1.143157	-0.432497	-0.793190
H61	H	1.135550	-0.424953	-0.732976
O62	O	1.136225	-0.597233	-0.281883
H63	H	1.130701	-0.539946	-0.287364
H64	H	0.967403	-0.257252	-0.796041
H65	H	1.146102	-1.070392	-0.272275
O66	O	0.934077	-0.750031	-0.483803
H67	H	0.902915	-0.712127	-0.514907
O68	O	0.955504	-0.245327	-0.945136
H69	H	0.924109	-0.214029	-0.904195
O70	O	0.968738	-0.927335	-0.449295
H71	H	0.932719	-0.893895	-0.414905
O72	O	0.633420	-0.245364	-0.267199
H73	H	0.621014	-0.190139	-0.277595
H74	H	1.117809	-0.740293	-0.300337
H75	H	0.975231	-1.070405	-0.442913
O76	O	0.940433	-0.597241	-0.477349
H77	H	0.906100	-0.635148	-0.511637
O78	O	1.143191	-0.432462	-0.952937
H79	H	1.181988	-0.400954	-0.986638
O80	O	0.625544	-0.432705	-0.470387
H81	H	0.584590	-0.464037	-0.504380
O82	O	1.164514	-0.927315	-0.253821
H83	H	1.195689	-0.965216	-0.222728
