data_functionalizedCrystal
_audit_creation_method	'MofGen! by Chris Wilmer'
_symmetry_space_group_name_H-M	'P1'
_symmetry_Int_Tables_number	1
_symmetry_cell_setting	triclinic
loop_
_symmetry_equiv_pos_as_xyz
  x,y,z
_cell_length_a	15.944499
_cell_length_b	27.732048
_cell_length_c	26.210047
_cell_angle_alpha	89.999521
_cell_angle_beta	89.988373
_cell_angle_gamma	83.060132
loop_
_atom_site_label
_atom_site_type_symbol
_atom_site_fract_x
_atom_site_fract_y
_atom_site_fract_z
O1	O	1.113744	0.062214	-0.042465
O2	O	0.869088	0.069927	-0.042460
O3	O	0.999015	-0.004294	-0.042453
O4	O	0.983818	0.136435	-0.042472
O5	O	0.998990	-0.004283	0.042405
O6	O	0.869063	0.069938	0.042398
O7	O	1.113719	0.062226	0.042393
Cu8	Cu	0.991389	0.066083	0.050144
Cu9	Cu	0.991419	0.066069	-0.050211
O10	O	0.983793	0.136447	0.042386
C11	C	0.837785	0.069617	-0.000030
C12	C	0.744549	0.068670	-0.000028
C13	C	0.998683	-0.022297	-0.000023
C14	C	0.997723	-0.075956	-0.000018
C15	C	0.452449	0.111790	-0.000042
C16	C	0.513784	0.089370	-0.041879
C17	C	0.408957	0.065231	-0.000039
C18	C	0.513745	0.089368	0.041785
C19	C	0.573844	0.066923	-0.000033
C20	C	0.469064	0.042797	-0.041911
C21	C	0.469019	0.042803	0.041790
C22	C	0.530337	0.020348	-0.000058
C23	C	0.313970	0.064257	-0.000044
C24	C	0.668830	0.067893	-0.000033
C25	C	1.068453	-0.414472	-0.000046
C26	C	1.064889	-0.616147	-0.000053
O27	O	1.129568	-0.647129	-0.000077
N28	N	0.987848	-0.635596	-0.000051
C29	C	0.911693	-0.604623	-0.000051
O30	O	0.846083	-0.625793	-0.000054
C31	C	0.915258	-0.402949	-0.000047
C32	C	0.992304	-0.383503	-0.000044
C33	C	1.145493	-0.395025	-0.000044
C34	C	1.146384	-0.344609	-0.000039
C35	C	1.070234	-0.313640	-0.000037
C36	C	0.993194	-0.333087	-0.000040
C37	C	0.839103	-0.371977	-0.000050
C38	C	0.840001	-0.321556	-0.000051
C39	C	0.917047	-0.302110	-0.000048
C40	C	0.917934	-0.251702	-0.000033
N41	N	0.994976	-0.232253	-0.000035
C42	C	1.071125	-0.263222	-0.000037
C43	C	0.909826	-0.710505	-0.000051
C44	C	0.908935	-0.760923	-0.000051
C45	C	1.062132	-0.772443	-0.000055
C46	C	1.063023	-0.722024	-0.000051
C47	C	0.986868	-0.691056	-0.000053
C48	C	1.072989	-0.157345	-0.000027
C49	C	1.073872	-0.106925	-0.000020
C50	C	0.920676	-0.095409	-0.000020
C51	C	0.919792	-0.145825	-0.000024
C52	C	0.995955	-0.176792	-0.000029
O53	O	0.853291	-0.220691	-0.000015
O54	O	1.136726	-0.242043	-0.000045
C55	C	1.067563	-0.464888	-0.000051
C56	C	0.990523	-0.484334	-0.000053
C57	C	0.914374	-0.453365	-0.000051
C58	C	0.989632	-0.534752	-0.000053
C59	C	1.065782	-0.565721	-0.000055
C60	C	1.142823	-0.546272	-0.000057
C61	C	1.143713	-0.495857	-0.000053
C62	C	0.837332	-0.472814	-0.000049
C63	C	0.836449	-0.523231	-0.000053
C64	C	0.912598	-0.554200	-0.000055
C65	C	1.145023	0.062536	-0.000038
C66	C	1.238258	0.063483	-0.000044
C67	C	0.984124	0.154449	-0.000046
C68	C	0.985085	0.208108	-0.000053
N69	N	0.991374	0.066092	0.120728
N70	N	0.991440	0.066056	-0.120795
C71	C	1.048944	0.033212	0.473245
C72	C	1.048963	0.033205	0.686903
O73	O	1.097878	0.005251	0.714528
N74	N	0.991423	0.066059	0.713621
C75	C	0.933871	0.098914	0.686922
O76	O	0.884925	0.126855	0.714550
C77	C	0.933849	0.098918	0.473264
C78	C	0.991398	0.066066	0.446549
C79	C	1.106488	0.000362	0.446529
C80	C	1.106486	0.000366	0.393118
C81	C	1.048940	0.033220	0.366422
C82	C	0.991396	0.066070	0.393137
C83	C	0.876294	0.131771	0.446565
C84	C	0.876292	0.131768	0.393147
C85	C	0.933841	0.098916	0.366432
C86	C	0.933848	0.098927	0.313030
N87	N	0.991388	0.066074	0.286312
C88	C	1.048934	0.033220	0.313008
C89	C	0.933888	0.098911	0.799095
C90	C	0.933894	0.098910	0.852509
C91	C	1.048985	0.033200	0.852487
C92	C	1.048982	0.033203	0.799072
C93	C	0.991427	0.066057	0.772377
C94	C	1.048925	0.033231	0.200840
C95	C	1.048920	0.033239	0.147424
C96	C	0.933827	0.098946	0.147450
C97	C	0.933834	0.098940	0.200862
C98	C	0.991387	0.066078	0.227555
O99	O	0.884952	0.126863	0.285372
O100	O	1.097860	0.005276	0.285370
C101	C	1.048946	0.033208	0.526656
C102	C	0.991403	0.066058	0.553372
C103	C	0.933857	0.098912	0.526676
C104	C	0.991409	0.066058	0.606786
C105	C	1.048955	0.033204	0.633482
C106	C	1.106494	0.000351	0.606764
C107	C	1.106492	0.000354	0.553352
C108	C	0.876317	0.131766	0.553394
C109	C	0.876325	0.131760	0.606805
C110	C	0.933871	0.098906	0.633501
H111	H	0.418614	0.150430	-0.000087
H112	H	0.449353	0.023118	-0.077321
H113	H	0.449149	0.023131	0.077166
C114	C	0.540504	0.115985	0.089567
C115	C	0.505556	0.169506	0.098740
C116	C	0.532311	0.196126	0.146521
C117	C	0.594013	0.169225	0.185127
C118	C	0.628965	0.115701	0.175956
C119	C	0.602210	0.089081	0.128175
H120	H	0.459877	0.189422	0.070160
H121	H	0.506437	0.235748	0.153310
H122	H	0.613819	0.188931	0.220497
H123	H	0.674644	0.095785	0.204536
H124	H	0.628084	0.049459	0.121386
C125	C	1.112225	-0.002902	0.118037
C126	C	1.112231	-0.002902	0.059283
C127	C	1.175532	-0.039043	0.029899
C128	C	1.238827	-0.075183	0.059268
C129	C	1.238823	-0.075185	0.118024
C130	C	1.175522	-0.039044	0.147409
H131	H	1.065375	0.023852	0.037540
H132	H	1.175535	-0.039041	-0.013597
H133	H	1.285686	-0.101936	0.037515
H134	H	1.285679	-0.101939	0.139768
H135	H	1.175519	-0.039045	0.190905
C136	C	1.169795	-0.035790	0.636136
C137	C	1.137449	-0.072764	0.672860
C138	C	1.200741	-0.108905	0.702235
C139	C	1.296380	-0.108072	0.694885
C140	C	1.328731	-0.071097	0.658160
C141	C	1.265438	-0.034956	0.628785
H142	H	1.066647	-0.073381	0.678302
H143	H	1.176792	-0.136276	0.729422
H144	H	1.343233	-0.134826	0.716631
H145	H	1.399533	-0.070480	0.652718
H146	H	1.289387	-0.007585	0.601598
H147	H	0.829463	0.158516	0.628553
H148	H	0.829455	0.158519	0.531662
H149	H	1.095789	0.006471	0.222567
C150	C	1.169793	-0.035787	0.523969
C151	C	1.137459	-0.072765	0.487254
C152	C	1.200762	-0.108909	0.457875
C153	C	1.296398	-0.108075	0.465211
C154	C	1.328737	-0.071095	0.501928
C155	C	1.265434	-0.034951	0.531307
H156	H	1.066659	-0.073383	0.481822
H157	H	1.176822	-0.136283	0.430695
H158	H	1.343258	-0.134831	0.443463
H159	H	1.399537	-0.070477	0.507360
H160	H	1.289374	-0.007577	0.558487
C161	C	0.540604	0.115965	-0.089667
C162	C	0.505678	0.169484	-0.098866
C163	C	0.532493	0.196083	-0.146652
C164	C	0.594235	0.169162	-0.185240
C165	C	0.629165	0.115640	-0.176043
C166	C	0.602349	0.089041	-0.128256
H167	H	0.459970	0.189415	-0.070300
H168	H	0.506636	0.235703	-0.153460
H169	H	0.614086	0.188852	-0.220614
H170	H	0.674873	0.095709	-0.204609
H171	H	0.628207	0.049421	-0.121448
H172	H	1.136615	-0.091095	-0.000017
H173	H	0.564020	-0.018326	-0.000075
C174	C	1.112282	-0.002942	0.881859
C175	C	1.111581	-0.057986	0.874520
C176	C	1.174869	-0.094129	0.903895
C177	C	1.238859	-0.075228	0.940610
C178	C	1.239563	-0.020181	0.947952
C179	C	1.176274	0.015962	0.918576
H180	H	1.064210	-0.071980	0.847340
H181	H	1.174348	-0.134878	0.898460
H182	H	1.285708	-0.101983	0.962356
H183	H	1.286934	-0.006187	0.975132
H184	H	1.176796	0.056711	0.924011
H185	H	1.135009	-0.182554	-0.000034
H186	H	1.209122	-0.328781	-0.000039
C187	C	0.870535	0.135081	0.230250
C188	C	0.806540	0.116174	0.266974
C189	C	0.743233	0.152312	0.296357
C190	C	0.743920	0.207357	0.289016
C191	C	0.807916	0.226267	0.252290
C192	C	0.871224	0.190128	0.222907
H193	H	0.806030	0.075424	0.272410
H194	H	0.695859	0.138314	0.323544
H195	H	0.697056	0.234109	0.310767
H196	H	0.808427	0.267016	0.246854
H197	H	0.918598	0.204127	0.195720
H198	H	0.887041	0.125667	0.874257
C199	C	1.229268	-0.429086	-0.000043
C200	C	1.292559	-0.426895	0.044025
C201	C	1.376340	-0.460952	0.044030
C202	C	1.396830	-0.497198	-0.000032
C203	C	1.333538	-0.499390	-0.044103
C204	C	1.249757	-0.465334	-0.044109
H205	H	1.277392	-0.400062	0.076645
H206	H	1.423193	-0.459329	0.076654
H207	H	1.458850	-0.522409	-0.000028
H208	H	1.348705	-0.526223	-0.076724
H209	H	1.202904	-0.466956	-0.076733
H210	H	1.125760	-0.706195	-0.000049
H211	H	0.829422	0.158521	0.371415
C212	C	0.870525	0.135083	0.118079
C213	C	0.870521	0.135081	0.059326
C214	C	0.807213	0.171216	0.029954
C215	C	0.743909	0.207353	0.059336
C216	C	0.743910	0.207356	0.118093
C217	C	0.807218	0.171221	0.147464
H218	H	0.917384	0.108330	0.037573
H219	H	0.807212	0.171213	-0.013542
H220	H	0.697045	0.234102	0.037593
H221	H	0.697047	0.234108	0.139846
H222	H	0.807219	0.171224	0.190960
H223	H	0.858677	-0.070185	-0.000016
C224	C	1.145899	-0.806515	-0.000060
C225	C	1.166342	-0.842764	0.044000
C226	C	1.250105	-0.876838	0.043990
C227	C	1.313424	-0.874661	-0.000081
C228	C	1.292982	-0.838410	-0.044144
C229	C	1.209220	-0.804337	-0.044134
H230	H	1.119468	-0.844377	0.076626
H231	H	1.265236	-0.903673	0.076608
H232	H	1.375430	-0.899885	-0.000088
H233	H	1.339857	-0.836798	-0.076770
H234	H	1.194089	-0.777501	-0.076753
H235	H	0.846196	-0.776751	-0.000045
H236	H	0.857055	-0.161659	-0.000012
C237	C	0.826047	-0.676444	-0.000047
C238	C	0.762739	-0.678630	-0.044106
C239	C	0.678960	-0.644572	-0.044098
C240	C	0.658488	-0.608329	-0.000030
C241	C	0.721798	-0.606142	0.044032
C242	C	0.805577	-0.640199	0.044024
H243	H	0.777892	-0.705460	-0.076730
H244	H	0.632094	-0.646191	-0.076716
H245	H	0.596469	-0.583117	-0.000024
H246	H	0.706645	-0.579311	0.076656
H247	H	0.852443	-0.638580	0.076642
H248	H	1.204827	-0.571496	-0.000057
C249	C	0.754346	-0.393355	-0.000057
C250	C	0.691257	-0.381660	0.044003
C251	C	0.606493	-0.403035	0.043996
C252	C	0.584817	-0.436105	-0.000072
C253	C	0.647908	-0.447802	-0.044136
C254	C	0.732672	-0.426427	-0.044128
H255	H	0.707301	-0.357178	0.076628
H256	H	0.559789	-0.394376	0.076615
H257	H	0.522070	-0.451928	-0.000078
H258	H	0.631864	-0.472285	-0.076761
H259	H	0.779376	-0.435087	-0.076747
C260	C	0.756227	-0.287491	-0.000051
C261	C	0.735784	-0.251244	-0.044114
C262	C	0.652011	-0.217179	-0.044112
C263	C	0.588682	-0.219362	-0.000049
C264	C	0.609124	-0.255611	0.044017
C265	C	0.692896	-0.289675	0.044016
H266	H	0.782665	-0.249626	-0.076735
H267	H	0.636880	-0.190346	-0.076733
H268	H	0.526669	-0.194146	-0.000048
H269	H	0.562242	-0.257228	0.076639
H270	H	0.708028	-0.316509	0.076637
C271	C	1.169782	-0.035777	0.363734
C272	C	1.169083	-0.090820	0.371083
C273	C	1.232379	-0.126966	0.341702
C274	C	1.296374	-0.108070	0.304972
C275	C	1.297076	-0.053024	0.297621
C276	C	1.233779	-0.016878	0.327001
H277	H	1.121708	-0.104811	0.398275
H278	H	1.231860	-0.167715	0.347144
H279	H	1.343230	-0.134827	0.283222
H280	H	1.344451	-0.039033	0.270429
H281	H	1.234299	0.023871	0.321559
H282	H	1.206452	-0.480029	-0.000050
C283	C	0.812984	0.167906	0.475945
C284	C	0.717350	0.167060	0.468607
C285	C	0.654035	0.203196	0.497987
C286	C	0.686352	0.240178	0.534703
C287	C	0.781990	0.241026	0.542042
C288	C	0.845306	0.204890	0.512663
H289	H	0.693423	0.139683	0.441426
H290	H	0.583237	0.202569	0.492554
H291	H	0.639482	0.266928	0.556452
H292	H	0.805918	0.268403	0.569224
H293	H	0.916104	0.205517	0.518096
H294	H	0.773704	-0.539058	-0.000051
H295	H	0.775321	-0.447604	-0.000049
H296	H	1.153349	-0.026394	0.468260
H297	H	0.887019	0.125665	0.777363
H298	H	1.095843	0.006452	0.777323
