data_functionalizedCrystal
_audit_creation_method	'MofGen! by Chris Wilmer'
_symmetry_space_group_name_H-M	'P1'
_symmetry_Int_Tables_number	1
_symmetry_cell_setting	triclinic
loop_
_symmetry_equiv_pos_as_xyz
  x,y,z
_cell_length_a	19.077105
_cell_length_b	14.908520
_cell_length_c	19.077174
_cell_angle_alpha	84.304358
_cell_angle_beta	94.516248
_cell_angle_gamma	91.150228
loop_
_atom_site_label
_atom_site_type_symbol
_atom_site_fract_x
_atom_site_fract_y
_atom_site_fract_z
Zn1	Zn	1.074745	-0.438339	0.460807
Zn2	Zn	1.574745	0.061661	0.960807
Zn3	Zn	1.063678	-0.582887	0.349172
Zn4	Zn	1.563678	-0.082887	0.849172
Zn5	Zn	0.952676	-0.425728	0.337659
Zn6	Zn	1.452676	0.074272	0.837659
Zn7	Zn	0.950574	-0.582828	0.462287
Zn8	Zn	1.450574	-0.082828	0.962287
O9	O	1.010418	-0.507446	0.402481
O10	O	1.510418	-0.007446	0.902481
O11	O	1.171698	-0.462816	0.450197
O12	O	1.671698	0.037184	0.950197
O13	O	1.045201	-0.556787	0.248768
O14	O	1.545201	-0.056787	0.748768
O15	O	0.974380	-0.301160	0.348556
O16	O	1.474380	0.198840	0.848556
O17	O	1.163567	-0.569015	0.368180
O18	O	1.663567	-0.069015	0.868180
O19	O	1.064064	-0.310425	0.439032
O20	O	1.564064	0.189575	0.939032
O21	O	0.963648	-0.441323	0.240309
O22	O	1.463648	0.058677	0.740309
O23	O	0.853976	-0.441265	0.349992
O24	O	1.353976	0.058735	0.849992
O25	O	0.970798	-0.568914	0.560968
O26	O	1.470798	-0.068914	1.060968
O27	O	0.852432	-0.556686	0.441556
O28	O	1.352432	-0.056686	0.941556
O29	O	1.062026	-0.462759	0.559880
O30	O	1.562026	0.037241	1.059880
O31	O	1.043163	-0.709120	0.369615
O32	O	1.543163	-0.209120	0.869615
O33	O	0.960066	-0.709077	0.452721
O34	O	1.460066	-0.209077	0.952721
C35	C	0.827685	-0.497601	0.394686
C36	C	1.327685	0.002399	0.894686
C37	C	0.749510	-0.493413	0.391369
C38	C	1.249510	0.006587	0.891369
C39	C	0.711992	-0.551621	0.437416
C40	C	1.211992	-0.051621	0.937416
C41	C	0.638539	-0.547674	0.434302
C42	C	1.138539	-0.047674	0.934302
C43	C	0.602606	-0.485521	0.385137
C44	C	1.102606	0.014479	0.885137
C45	C	0.640130	-0.427307	0.339088
C46	C	1.140130	0.072693	0.839088
C47	C	0.713582	-0.431250	0.342206
C48	C	1.213582	0.068750	0.842206
C49	C	0.383015	-0.467269	0.370711
C50	C	0.883015	0.032731	0.870711
C51	C	0.309558	-0.463332	0.367595
C52	C	0.809558	0.036668	0.867595
C53	C	0.307972	-0.583699	0.462810
C54	C	0.807972	-0.083699	0.962810
C55	C	0.381425	-0.587641	0.465921
C56	C	0.881425	-0.087641	0.965921
C57	C	0.418943	-0.529422	0.419874
C58	C	0.918943	-0.029422	0.919874
N59	N	0.527526	-0.481487	0.381952
N60	N	1.027526	0.018513	0.881952
N61	N	0.494022	-0.533453	0.423064
N62	N	0.994022	-0.033453	0.923064
C63	C	1.000205	-0.741833	0.412594
C64	C	1.500205	-0.241833	0.912594
C65	C	0.995901	-0.842110	0.416947
C66	C	1.495901	-0.342110	0.916947
C67	C	1.074438	-1.030534	0.338666
C68	C	1.574438	-0.530534	0.838666
C69	C	1.070396	-1.124752	0.342754
C70	C	1.570396	-0.624752	0.842754
C71	C	0.983781	-1.124769	0.429214
C72	C	1.483781	-0.624769	0.929214
C73	C	0.987822	-1.030550	0.425126
C74	C	1.487822	-0.530550	0.925126
C75	C	1.033152	-0.983435	0.379850
C76	C	1.533152	-0.483435	0.879850
C77	C	1.037189	-0.889214	0.375759
C78	C	1.537189	-0.389214	0.875759
C79	C	0.950578	-0.889233	0.462222
C80	C	1.450578	-0.389233	0.962222
C81	C	0.946536	-0.983452	0.466310
C82	C	1.446536	-0.483452	0.966310
C83	C	1.193865	-0.517329	0.410307
C84	C	1.693865	-0.017329	0.910307
C85	C	1.272039	-0.521541	0.413642
C86	C	1.772039	-0.021541	0.913642
C87	C	1.017412	-0.517237	0.586779
C88	C	1.517412	-0.017237	1.086779
C89	C	1.020393	-0.521409	0.665315
C90	C	1.520393	-0.021409	1.165315
C91	C	1.020691	-0.272145	0.392345
C92	C	1.520691	0.227855	0.892345
C93	C	1.025068	-0.171873	0.388025
C94	C	1.525068	0.328127	0.888025
C95	C	1.003495	-0.497630	0.218900
C96	C	1.503495	0.002370	0.718900
C97	C	1.000662	-0.493210	0.140358
C98	C	1.500662	0.006790	0.640358
C99	C	0.979335	-0.463255	0.697807
C100	C	1.479335	0.036745	1.197807
C101	C	0.982132	-0.467182	0.771601
C102	C	1.482132	0.032818	1.271601
C103	C	1.025992	-0.529261	0.812901
C104	C	1.525992	-0.029261	1.312901
C105	C	1.067051	-0.587422	0.780404
C106	C	1.567051	-0.087422	1.280404
C107	C	1.064249	-0.583498	0.706612
C108	C	1.564249	-0.083498	1.206612
C109	C	1.038920	-0.547447	1.034069
C110	C	1.538920	-0.047447	1.534069
C111	C	1.041720	-0.551365	1.107866
C112	C	1.541720	-0.051365	1.607866
C113	C	0.956799	-0.431126	1.099058
C114	C	1.456799	0.068874	1.599058
C115	C	0.954005	-0.427204	1.025265
C116	C	1.454005	0.072796	1.525265
C117	C	0.995062	-0.485368	0.992774
C118	C	1.495062	0.014632	1.492774
N119	N	1.028854	-0.533275	0.888330
N120	N	1.528854	-0.033275	1.388330
N121	N	0.992195	-0.481357	0.917346
N122	N	1.492195	0.018643	1.417346
H123	H	0.280304	-0.412710	0.327563
H124	H	0.780304	0.087290	0.827563
H125	H	1.072343	-0.594818	1.007625
H126	H	1.572343	-0.094818	1.507625
O127	O	0.937845	-0.404464	0.806650
O128	O	1.437845	0.095536	1.306650
H129	H	0.972604	-0.362060	0.839645
H130	H	1.472604	0.137940	1.339645
H131	H	0.607995	-0.595075	0.471798
H132	H	1.107995	-0.095075	0.971798
O133	O	1.108542	-0.646214	0.671566
O134	O	1.608542	-0.146214	1.171566
H135	H	1.093933	-0.717121	0.688268
H136	H	1.593933	-0.217121	1.188268
O137	O	1.114360	-0.654379	0.824944
O138	O	1.614360	-0.154379	1.324944
H139	H	1.109417	-0.647332	0.881716
H140	H	1.609417	-0.147332	1.381716
H141	H	0.277418	-0.631095	0.500300
H142	H	0.777418	-0.131095	1.000300
O143	O	1.086085	-0.838389	0.326938
O144	O	1.586085	-0.338389	0.826938
H145	H	1.071202	-0.852918	0.271743
H146	H	1.571202	-0.352918	0.771743
O147	O	0.750748	-0.618654	0.490447
O148	O	1.250748	-0.118654	0.990447
H149	H	0.712316	-0.658459	0.521948
H150	H	1.212316	-0.158459	1.021948
H151	H	0.909632	-1.021825	0.503174
H152	H	1.409632	-0.521825	1.003174
H153	H	0.410677	-0.638254	0.505955
H154	H	0.910677	-0.138254	1.005955
O155	O	1.123334	-0.979721	0.289839
O156	O	1.623334	-0.479721	0.789839
H157	H	1.162132	-0.940349	0.321162
H158	H	1.662132	-0.440349	0.821162
O159	O	1.114921	-1.175555	0.298331
O160	O	1.614921	-0.675555	0.798331
H161	H	1.147114	-1.126961	0.266158
H162	H	1.647114	-0.626961	0.766158
O163	O	0.906709	-0.360230	0.980727
O164	O	1.406709	0.139770	1.480727
H165	H	0.851367	-0.373469	0.993193
H166	H	1.351367	0.126531	1.493193
O167	O	0.912528	-0.368389	1.134106
O168	O	1.412528	0.131611	1.634106
H169	H	0.876253	-0.408615	1.167939
H170	H	1.376253	0.091385	1.667939
O171	O	0.423464	-0.404497	0.321025
O172	O	0.923464	0.095503	0.821025
H173	H	0.412907	-0.333606	0.329565
H174	H	0.912907	0.166394	0.829565
O175	O	0.601363	-0.360281	0.286060
O176	O	1.101363	0.139719	0.786060
H177	H	0.618995	-0.290902	0.295811
H178	H	1.118995	0.209098	0.795811
H179	H	0.946881	-1.163146	0.466080
H180	H	1.446881	-0.663146	0.966080
O181	O	0.906045	-0.838437	0.506649
O182	O	1.406045	-0.338437	1.006649
H183	H	0.916472	-0.765005	0.496205
H184	H	1.416472	-0.265005	0.996205
O185	O	0.932034	-0.396291	0.653264
O186	O	1.432034	0.103709	1.153264
H187	H	0.876695	-0.409544	0.665733
H188	H	1.376695	0.090456	1.165733
O189	O	1.089028	-0.618326	1.152413
O190	O	1.589028	-0.118326	1.652413
H191	H	1.056820	-0.664303	1.186673
H192	H	1.556820	-0.164303	1.686673
O193	O	0.754053	-0.368479	0.292534
O194	O	1.254053	0.131521	0.792534
H195	H	0.716727	-0.324606	0.257816
H196	H	1.216727	0.175394	0.757816
