data_functionalizedCrystal
_audit_creation_method	'MofGen! by Chris Wilmer'
_symmetry_space_group_name_H-M	'P1'
_symmetry_Int_Tables_number	1
_symmetry_cell_setting	triclinic
loop_
_symmetry_equiv_pos_as_xyz
  x,y,z
_cell_length_a	21.295419
_cell_length_b	25.639239
_cell_length_c	21.295411
_cell_angle_alpha	89.980474
_cell_angle_beta	89.975461
_cell_angle_gamma	90.053487
loop_
_atom_site_label
_atom_site_type_symbol
_atom_site_fract_x
_atom_site_fract_y
_atom_site_fract_z
Zn1	Zn	0.962320	-0.208004	-0.355920
Zn2	Zn	0.962207	-0.295424	-0.250650
Zn3	Zn	0.857043	-0.208027	-0.250665
Zn4	Zn	0.856997	-0.295433	-0.355881
O5	O	0.909642	-0.251722	-0.303279
O6	O	1.050394	-0.219587	-0.341966
O7	O	0.948229	-0.283836	-0.162562
O8	O	0.871074	-0.134859	-0.264651
O9	O	1.050311	-0.283814	-0.264624
O10	O	0.948421	-0.134842	-0.341981
O11	O	0.870965	-0.219626	-0.162574
O12	O	0.768948	-0.219635	-0.264613
O13	O	0.870997	-0.283829	-0.443976
O14	O	0.768914	-0.283851	-0.341915
O15	O	0.948377	-0.219596	-0.444005
O16	O	0.948185	-0.368590	-0.264586
O17	O	0.870887	-0.368597	-0.341899
C18	C	0.746090	-0.251747	-0.303262
C19	C	0.676122	-0.251770	-0.303269
C20	C	0.643321	-0.218382	-0.343603
C21	C	0.577578	-0.218368	-0.343606
C22	C	0.544640	-0.251751	-0.303280
C23	C	0.577449	-0.285142	-0.262938
C24	C	0.643190	-0.285152	-0.262933
N25	N	0.441356	-0.297498	-0.298363
N26	N	0.378905	-0.297487	-0.298372
C27	C	0.346565	-0.251724	-0.303294
N28	N	0.379036	-0.205972	-0.308220
N29	N	0.441493	-0.205983	-0.308214
C30	C	0.473354	-0.251745	-0.303282
C31	C	0.242478	-0.218318	-0.343633
C32	C	0.176735	-0.218303	-0.343631
C33	C	0.176606	-0.285082	-0.262967
C34	C	0.242348	-0.285092	-0.262966
C35	C	0.275281	-0.251711	-0.303302
C36	C	0.909536	-0.387564	-0.303250
C37	C	0.909548	-0.445678	-0.303259
C38	C	0.949996	-0.806026	-0.263091
C39	C	0.950020	-0.860630	-0.263099
O40	O	0.984300	-0.888853	-0.228915
N41	N	0.909752	-0.887961	-0.303321
C42	C	0.869462	-0.860685	-0.343541
O43	O	0.835215	-0.888946	-0.377754
C44	C	0.869442	-0.806081	-0.343536
C45	C	0.909707	-0.778753	-0.303307
C46	C	0.990258	-0.778697	-0.222866
C47	C	0.990233	-0.724097	-0.222857
C48	C	0.949945	-0.696824	-0.263073
C49	C	0.909682	-0.724153	-0.303298
C50	C	0.829155	-0.778806	-0.383759
C51	C	0.829138	-0.724199	-0.383750
C52	C	0.869404	-0.696871	-0.343521
C53	C	0.869368	-0.642280	-0.343505
N54	N	0.909636	-0.614949	-0.303283
C55	C	0.949924	-0.642221	-0.263067
C56	C	0.869510	-0.975355	-0.343551
C57	C	0.869527	-1.029958	-0.343554
C58	C	0.950085	-1.029899	-0.263113
C59	C	0.950065	-0.975296	-0.263107
C60	C	0.909777	-0.948024	-0.303329
C61	C	0.949867	-0.527556	-0.263050
C62	C	0.949836	-0.472951	-0.263043
C63	C	0.869281	-0.473014	-0.343487
C64	C	0.869309	-0.527615	-0.343492
C65	C	0.909607	-0.554884	-0.303272
O66	O	0.835108	-0.614022	-0.377673
O67	O	0.984172	-0.613953	-0.228866
C68	C	1.073832	-0.251697	-0.303297
C69	C	1.143800	-0.251686	-0.303305
C70	C	0.909694	-0.251711	-0.467470
C71	C	0.909716	-0.251706	-0.537438
C72	C	0.909765	-0.115349	-0.303322
C73	C	0.909818	-0.057235	-0.303340
C74	C	0.950006	-0.218258	-0.570320
C75	C	0.950005	-0.218235	-0.636063
C76	C	0.909721	-0.251670	-0.668920
C77	C	0.869423	-0.285120	-0.636030
C78	C	0.869421	-0.285138	-0.570288
N79	N	0.904857	-0.297409	-0.772138
N80	N	0.904863	-0.297391	-0.834589
C81	C	0.909725	-0.251617	-0.866995
N82	N	0.914594	-0.205862	-0.834590
N83	N	0.914591	-0.205881	-0.772133
C84	C	0.909719	-0.251654	-0.740206
C85	C	0.950016	-0.218142	-0.971163
C86	C	0.950011	-0.218118	-1.036907
C87	C	0.869432	-0.285008	-1.036873
C88	C	0.869434	-0.285027	-0.971130
C89	C	0.909730	-0.251594	-0.938279
C90	C	0.909626	-0.251695	-0.139728
C91	C	0.909726	-0.251553	-0.069760
H92	H	0.269055	-0.312283	-0.230124
C93	C	0.825756	-0.321403	-0.671814
C94	C	0.834395	-0.314240	-0.736426
C95	C	0.794183	-0.347660	-0.769409
H96	H	0.783441	-0.313794	-0.661102
H97	H	0.834944	-0.356545	-0.661077
H98	H	0.825203	-0.279106	-0.747159
H99	H	0.876702	-0.321853	-0.747157
H100	H	0.803370	-0.382802	-0.758672
H101	H	0.751870	-0.340048	-0.758692
H102	H	0.800043	-0.342807	-0.813252
C103	C	0.825781	-0.321489	-0.534502
C104	C	0.861395	-0.354996	-0.496765
C105	C	0.821217	-0.388486	-0.463782
H106	H	0.801772	-0.341448	-0.563410
H107	H	0.798383	-0.301514	-0.508807
H108	H	0.888783	-0.374969	-0.522458
H109	H	0.885403	-0.335051	-0.467845
H110	H	0.793819	-0.368511	-0.438086
H111	H	0.797210	-0.408442	-0.492695
H112	H	0.845375	-0.411221	-0.438169
H113	H	0.149788	-0.312264	-0.230134
C114	C	0.825624	-0.321328	-1.072425
C115	C	0.790330	-0.350619	-1.029552
C116	C	0.749958	-0.384077	-1.062282
H117	H	0.849613	-0.344145	-1.098083
H118	H	0.798181	-0.301335	-1.098045
H119	H	0.817769	-0.370610	-1.003943
H120	H	0.766328	-0.327816	-1.003892
H121	H	0.722515	-0.364084	-1.087902
H122	H	0.773952	-0.406890	-1.087940
H123	H	0.726002	-0.403951	-1.033198
C124	C	0.993626	-0.443375	-0.219341
C125	C	1.028926	-0.478951	-0.184138
C126	C	1.069276	-0.451727	-0.143882
H127	H	0.969622	-0.422110	-0.191830
H128	H	1.021067	-0.422046	-0.243428
H129	H	1.001488	-0.500270	-0.160053
H130	H	1.052943	-0.500217	-0.211632
H131	H	1.096717	-0.430398	-0.167969
H132	H	1.045266	-0.430462	-0.116375
H133	H	1.093235	-0.475860	-0.119996
C134	C	0.993781	-0.181783	-0.935605
C135	C	1.029050	-0.152471	-0.978477
C136	C	1.069366	-0.118967	-0.945746
H137	H	1.021248	-0.201728	-0.909969
H138	H	0.969734	-0.158987	-0.909962
H139	H	1.053096	-0.175265	-1.004109
H140	H	1.001601	-0.132516	-1.004114
H141	H	1.045319	-0.096171	-0.920103
H142	H	1.096829	-0.138916	-0.920111
H143	H	1.093297	-0.099072	-0.974830
H144	H	0.982819	-0.190878	-1.063679
C145	C	0.993757	-1.059510	-0.219370
C146	C	0.980095	-1.046308	-0.157056
C147	C	1.020304	-1.073591	-0.116756
H148	H	1.036067	-1.050544	-0.228546
H149	H	0.987980	-1.095944	-0.225121
H150	H	0.985878	-1.009882	-0.151308
H151	H	0.937792	-1.055275	-0.147860
H152	H	1.014527	-1.110025	-0.122507
H153	H	1.062612	-1.064623	-0.125937
H154	H	1.011037	-1.064641	-0.074471
C155	C	0.993773	-0.181900	-0.534768
C156	C	1.029045	-0.152592	-0.577642
C157	C	1.069362	-0.119087	-0.544913
H158	H	1.021237	-0.201843	-0.509129
H159	H	0.969726	-0.159100	-0.509129
H160	H	1.053091	-0.175389	-0.603271
H161	H	1.001598	-0.132638	-0.603283
H162	H	1.045315	-0.096288	-0.519274
H163	H	1.096822	-0.139035	-0.519275
H164	H	1.093295	-0.099195	-0.573998
C165	C	0.785463	-0.694497	-0.427396
C166	C	0.794066	-0.640827	-0.418795
C167	C	0.753849	-0.613451	-0.458995
H168	H	0.743151	-0.703434	-0.418188
H169	H	0.794668	-0.703390	-0.469714
H170	H	0.784857	-0.631938	-0.376487
H171	H	0.836370	-0.631875	-0.428008
H172	H	0.763053	-0.622344	-0.501313
H173	H	0.711539	-0.622392	-0.449783
H174	H	0.759684	-0.577033	-0.453169
C175	C	0.993650	-0.181858	-0.671808
C176	C	0.958045	-0.148331	-0.709528
C177	C	0.998229	-0.114810	-0.742458
H178	H	1.021069	-0.201792	-0.697514
H179	H	1.017637	-0.161919	-0.642848
H180	H	0.934068	-0.168268	-0.738485
H181	H	0.930628	-0.128385	-0.683838
H182	H	1.022216	-0.094871	-0.713498
H183	H	1.025645	-0.134749	-0.768160
H184	H	0.974076	-0.092055	-0.768050
C185	C	0.993706	-0.557180	-0.219491
C186	C	1.034067	-0.588454	-0.255177
C187	C	1.074466	-0.615742	-0.215072
H188	H	0.969734	-0.578563	-0.192025
H189	H	1.017714	-0.533090	-0.195553
H190	H	1.010061	-0.612541	-0.279105
H191	H	1.058052	-0.567084	-0.282642
H192	H	1.098474	-0.591652	-0.191134
H193	H	1.050489	-0.637122	-0.187608
H194	H	1.101859	-0.636961	-0.239279
H195	H	0.670130	-0.191200	-0.376448
H196	H	1.023022	-0.701849	-0.190101
H197	H	0.836630	-0.312267	-0.944357
C198	C	0.542069	-0.182100	-0.387473
C199	C	0.584981	-0.152878	-0.422807
C200	C	0.552295	-0.119470	-0.463232
H201	H	0.516436	-0.159238	-0.363521
H202	H	0.516427	-0.202126	-0.414889
H203	H	0.610612	-0.132854	-0.395395
H204	H	0.610616	-0.175726	-0.446772
H205	H	0.526653	-0.139496	-0.490648
H206	H	0.526663	-0.096612	-0.439275
H207	H	0.581406	-0.099643	-0.487215
C208	C	0.541576	-0.321369	-0.219226
C209	C	0.476981	-0.314226	-0.227877
C210	C	0.443917	-0.347594	-0.187623
H211	H	0.552261	-0.313700	-0.176921
H212	H	0.552274	-0.356523	-0.228367
H213	H	0.466288	-0.279081	-0.218731
H214	H	0.466278	-0.321899	-0.270174
H215	H	0.454615	-0.382747	-0.196764
H216	H	0.454607	-0.339922	-0.145320
H217	H	0.400086	-0.342755	-0.193491
C218	C	0.825907	-1.059691	-0.387264
C219	C	0.861541	-1.090993	-0.427642
C220	C	0.821381	-1.118393	-0.467916
H221	H	0.801897	-1.035683	-0.411272
H222	H	0.798508	-1.081061	-0.363183
H223	H	0.888928	-1.069624	-0.451722
H224	H	0.885549	-1.115010	-0.403652
H225	H	0.793982	-1.139764	-0.443834
H226	H	0.797373	-1.094382	-0.491919
H227	H	0.845552	-1.139638	-0.495313
H228	H	0.836523	-0.549867	-0.376252
C229	C	0.678773	-0.321495	-0.219220
C230	C	0.662729	-0.373240	-0.232826
C231	C	0.695504	-0.406735	-0.192578
H232	H	0.668018	-0.313859	-0.176919
H233	H	0.722649	-0.316756	-0.225000
H234	H	0.618863	-0.377976	-0.227041
H235	H	0.673486	-0.380892	-0.275120
H236	H	0.739379	-0.401996	-0.198358
H237	H	0.684746	-0.399095	-0.150279
H238	H	0.684627	-0.441848	-0.201808
H239	H	0.269293	-0.191134	-0.376473
H240	H	1.023069	-0.800897	-0.190117
H241	H	0.836476	-0.450801	-0.376228
H242	H	0.150029	-0.191111	-0.376475
C243	C	0.993822	-0.945561	-0.219535
C244	C	1.034133	-0.914151	-0.255208
C245	C	1.074448	-0.886750	-0.215089
H246	H	1.017875	-0.969569	-0.195571
H247	H	0.969766	-0.924264	-0.192091
H248	H	1.058186	-0.935446	-0.282640
H249	H	1.010097	-0.890133	-0.279170
H250	H	1.050393	-0.865453	-0.187646
H251	H	1.098497	-0.910762	-0.191128
H252	H	1.101800	-0.865431	-0.239287
C253	C	0.825691	-0.945843	-0.387242
C254	C	0.790423	-0.981471	-0.422452
C255	C	0.750046	-0.954307	-0.462701
H256	H	0.849674	-0.924505	-0.414749
H257	H	0.798231	-0.924592	-0.363149
H258	H	0.817880	-1.002713	-0.446543
H259	H	0.766427	-1.002810	-0.394962
H260	H	0.722586	-0.933055	-0.438608
H261	H	0.774035	-0.932970	-0.490204
H262	H	0.726108	-0.978476	-0.486591
H263	H	0.796364	-0.801048	-0.416515
