data_functionalizedCrystal
_audit_creation_method	'MofGen! by Chris Wilmer'
_symmetry_space_group_name_H-M	'P1'
_symmetry_Int_Tables_number	1
_symmetry_cell_setting	triclinic
loop_
_symmetry_equiv_pos_as_xyz
  x,y,z
_cell_length_a	6.817900
_cell_length_b	10.773890
_cell_length_c	14.125465
_cell_angle_alpha	96.481673
_cell_angle_beta	100.398878
_cell_angle_gamma	96.645716
loop_
_atom_site_label
_atom_site_type_symbol
_atom_site_fract_x
_atom_site_fract_y
_atom_site_fract_z
V1	V	-3.957265	-0.171528	-0.298419
O2	O	-3.981363	0.009345	-0.294351
O3	O	-3.875342	-0.341173	-0.294827
O4	O	-3.894026	-0.168406	-0.429277
O5	O	-3.962550	-0.164617	-0.158970
V6	V	-4.447159	-0.149951	-0.281928
O7	O	-4.204547	-0.218860	-0.334593
O8	O	-4.650074	-0.102619	-0.245754
O9	O	-4.305874	0.019693	-0.285520
O10	O	-4.540457	-0.330825	-0.285996
O11	O	-4.559270	-0.156862	-0.421377
O12	O	-4.287190	-0.153073	-0.151070
C13	C	-3.712668	-0.382543	-0.289719
C14	C	-3.726875	-0.521227	-0.287654
C15	C	-3.904544	-0.589077	-0.291242
C16	C	-3.919231	-0.732413	-0.289108
C17	C	-3.736501	-0.162161	-0.461223
C18	C	-3.765859	-0.160731	-0.568190
C19	C	-3.819670	-0.158108	-0.764037
C20	C	-4.004123	-0.163369	-0.816310
C21	C	-4.034066	-0.161910	-0.925286
C22	C	-3.789719	-0.159567	-0.655051
C23	C	-4.131889	0.061057	-0.290625
C24	C	-4.096920	0.199739	-0.292696
C25	C	-4.108057	-0.159323	-0.119119
C26	C	-4.057940	-0.160747	-0.012151
H27	H	-4.139552	-0.168983	-0.779221
C28	C	-4.236158	-0.605997	-0.299868
C29	C	-4.287610	-0.735446	-0.298972
H30	H	-4.353881	-0.565985	-0.303735
H31	H	-4.176739	-0.593300	-0.354497
H32	H	-4.142982	-0.570914	-0.241968
H33	H	-4.380775	-0.770532	-0.356875
H34	H	-4.347060	-0.748152	-0.244337
H35	H	-3.585643	-0.569255	-0.283008
H36	H	-3.684254	-0.152509	-0.801125
C37	C	-3.700500	-0.855270	-0.198482
C38	C	-3.728538	-0.797226	-0.282825
H39	H	-3.582769	-0.895275	-0.194602
H40	H	-3.813857	-0.916408	-0.200466
H41	H	-3.685823	-0.793483	-0.143177
H42	H	-3.743230	-0.859015	-0.338131
H43	H	-3.615153	-0.736082	-0.280849
H44	H	-4.045780	-0.541050	-0.295899
