data_functionalizedCrystal
_audit_creation_method	'MofGen! by Chris Wilmer'
_symmetry_space_group_name_H-M	'P1'
_symmetry_Int_Tables_number	1
_symmetry_cell_setting	triclinic
loop_
_symmetry_equiv_pos_as_xyz
  x,y,z
_cell_length_a	17.077402
_cell_length_b	17.077404
_cell_length_c	17.077396
_cell_angle_alpha	90.019016
_cell_angle_beta	89.969358
_cell_angle_gamma	89.975668
loop_
_atom_site_label
_atom_site_type_symbol
_atom_site_fract_x
_atom_site_fract_y
_atom_site_fract_z
Zn1	Zn	-0.312514	-1.200023	-0.443881
Zn2	Zn	-0.443793	-1.199930	-0.312613
Zn3	Zn	-0.312543	-1.068760	-0.312624
Zn4	Zn	-0.443740	-1.068717	-0.443832
O5	O	-0.378148	-1.134358	-0.378238
O6	O	-0.329939	-1.309858	-0.426483
O7	O	-0.426417	-1.182509	-0.202768
O8	O	-0.202692	-1.086229	-0.330060
O9	O	-0.426389	-1.309789	-0.330042
O10	O	-0.202671	-1.182667	-0.426494
O11	O	-0.329988	-1.086140	-0.202776
O12	O	-0.329937	-0.958908	-0.330013
O13	O	-0.426299	-1.086156	-0.553686
O14	O	-0.426327	-0.958876	-0.426412
O15	O	-0.329888	-1.182626	-0.553721
O16	O	-0.553633	-1.182468	-0.329995
O17	O	-0.553594	-1.086066	-0.426401
C18	C	-0.378130	-0.930410	-0.378209
C19	C	-0.378141	-0.843160	-0.378215
C20	C	-0.428406	-0.802174	-0.428328
C21	C	-0.428406	-0.720194	-0.428338
C22	C	-0.378144	-0.679201	-0.378230
C23	C	-0.327873	-0.720192	-0.328115
C24	C	-0.327870	-0.802171	-0.328110
C25	C	-0.327886	-0.549322	-0.328129
C26	C	-0.327890	-0.467338	-0.328132
C27	C	-0.428421	-0.467345	-0.428356
C28	C	-0.428418	-0.549324	-0.428351
C29	C	-0.378148	-0.590310	-0.378235
C30	C	-0.582096	-1.134274	-0.378209
C31	C	-0.669345	-1.134309	-0.378223
C32	C	-1.045085	-1.184659	-0.428542
C33	C	-0.963105	-1.184624	-0.428524
C34	C	-0.922194	-1.134434	-0.378270
C35	C	-0.963268	-1.084281	-0.328025
C36	C	-1.045247	-1.084321	-0.328040
C37	C	-0.792398	-1.084200	-0.327998
C38	C	-0.710414	-1.084159	-0.327984
C39	C	-0.710256	-1.184503	-0.428482
C40	C	-0.792235	-1.184543	-0.428497
C41	C	-0.833303	-1.134389	-0.378253
C42	C	-0.173403	-1.134464	-0.378284
C43	C	-0.086154	-1.134509	-0.378303
C44	C	-0.378084	-1.134397	-0.582982
C45	C	-0.378057	-1.134413	-0.670232
C46	C	-0.378162	-0.339102	-0.378258
C47	C	-0.378155	-0.426352	-0.378245
C48	C	-0.428176	-1.184664	-1.046045
C49	C	-0.428199	-1.184644	-0.964064
C50	C	-0.378002	-1.134464	-0.923081
C51	C	-0.327784	-1.084294	-0.964082
C52	C	-0.327765	-1.084310	-1.046061
C53	C	-0.327824	-1.084264	-0.793212
C54	C	-0.327841	-1.084249	-0.711228
C55	C	-0.428258	-1.184599	-0.711215
C56	C	-0.428239	-1.184615	-0.793194
C57	C	-0.378020	-1.134446	-0.834190
C58	C	-0.378154	-1.134364	-0.174290
C59	C	-0.377960	-1.134500	-0.087040
H60	H	-0.286944	-0.582691	-0.287326
H61	H	-0.286964	-1.043389	-0.677861
H62	H	-0.286946	-0.686810	-0.287321
Cl63	Cl	-0.491607	-0.415820	-0.491370
H64	H	-0.286931	-1.043411	-0.826588
H65	H	-1.078389	-1.225522	-0.469473
H66	H	-0.469111	-1.225480	-0.826561
H67	H	-0.825834	-1.043361	-0.287083
H68	H	-0.469099	-1.225484	-0.930689
H69	H	-0.286916	-1.043432	-0.930707
Cl70	Cl	-0.264706	-0.415805	-0.265136
Cl71	Cl	-0.491610	-0.600857	-0.491339
Cl72	Cl	-0.843664	-1.247631	-0.491685
H73	H	-0.676813	-1.225340	-0.469392
H74	H	-0.469337	-0.835545	-0.469129
Cl75	Cl	-0.264630	-1.021248	-1.097599
H76	H	-0.469338	-0.686826	-0.469144
Cl77	Cl	-0.264675	-0.853697	-0.265111
Cl78	Cl	-0.911479	-1.247672	-0.491685
H79	H	-0.677109	-1.043290	-0.287061
H80	H	-0.929954	-1.043418	-0.287103
H81	H	-0.469049	-1.225531	-1.079407
Cl82	Cl	-1.096877	-1.021275	-0.264876
Cl83	Cl	-0.491393	-1.247665	-0.659678
