data_functionalizedCrystal
_audit_creation_method	'MofGen! by Chris Wilmer'
_symmetry_space_group_name_H-M	'P1'
_symmetry_Int_Tables_number	1
_symmetry_cell_setting	triclinic
loop_
_symmetry_equiv_pos_as_xyz
  x,y,z
_cell_length_a	10.654550
_cell_length_b	14.519731
_cell_length_c	9.130313
_cell_angle_alpha	89.994496
_cell_angle_beta	89.999724
_cell_angle_gamma	84.086892
loop_
_atom_site_label
_atom_site_type_symbol
_atom_site_fract_x
_atom_site_fract_y
_atom_site_fract_z
O1	O	1.666607	0.129531	-0.121694
O2	O	1.301012	0.141872	-0.121721
O3	O	1.493489	0.001515	-0.121693
O4	O	1.474130	0.269888	-0.121721
O5	O	1.493476	0.001510	0.121906
O6	O	1.300998	0.141868	0.121878
O7	O	1.666594	0.129527	0.121905
Cu8	Cu	1.483795	0.135697	0.144134
Cu9	Cu	1.483811	0.135702	-0.143950
O10	O	1.474117	0.269884	0.121877
C11	C	1.254216	0.140964	0.000075
C12	C	1.114798	0.138253	0.000065
C13	C	1.034527	0.220893	0.000061
C14	C	0.903530	0.218340	0.000086
C15	C	0.933090	0.050500	0.000115
C16	C	1.064084	0.053053	0.000100
C17	C	1.492575	-0.032852	0.000106
C18	C	1.489857	-0.135246	0.000107
C19	C	1.487648	-0.218402	0.000104
C20	C	1.484889	-0.322725	0.000092
C21	C	1.482698	-0.405875	0.000083
C22	C	1.479939	-0.510205	0.000074
C23	C	1.713390	0.130435	0.000106
C24	C	1.852808	0.133146	0.000106
C25	C	1.475031	0.304251	0.000075
C26	C	1.477749	0.406645	0.000064
N27	N	1.483793	0.135693	0.346757
N28	N	1.483822	0.135699	-0.346572
C29	C	1.569051	0.073569	0.423421
C30	C	1.569063	0.073569	0.576758
C31	C	1.398556	0.197825	0.576753
C32	C	1.398539	0.197820	0.423419
H33	H	1.129445	-0.014246	0.000108
O34	O	1.315700	0.258050	0.651390
C35	C	1.238109	0.208132	0.740087
H36	H	1.287965	0.136308	0.763065
H37	H	1.145275	0.201230	0.681015
C38	C	1.150175	0.348165	0.857509
C39	C	1.211414	0.259952	0.885742
H40	H	1.133703	0.380131	0.947354
H41	H	1.202446	0.381797	0.797749
H42	H	1.072821	0.342401	0.808279
H43	H	1.288773	0.265717	0.934954
H44	H	1.159155	0.226322	0.945514
H45	H	1.638486	0.022981	0.639173
O46	O	0.825502	0.298591	0.000332
C47	C	0.748834	0.302133	0.126485
H48	H	0.796704	0.255286	0.214673
H49	H	0.653524	0.277651	0.097981
C50	C	0.670376	0.459895	0.075348
C51	C	0.729176	0.402362	0.183667
H52	H	0.658244	0.521721	0.110618
H53	H	0.722024	0.457508	-0.009647
H54	H	0.590957	0.439482	0.051605
H55	H	0.808599	0.422768	0.207395
H56	H	0.677540	0.404755	0.268667
O57	O	1.315840	0.258301	0.349005
C58	C	1.336440	0.349738	0.386470
H59	H	1.436986	0.350880	0.428606
H60	H	1.266905	0.376354	0.475476
C61	C	1.193561	0.410719	0.198490
C62	C	1.317057	0.412123	0.250230
H63	H	1.181599	0.449202	0.114454
H64	H	1.179678	0.349116	0.173252
H65	H	1.135629	0.432897	0.272675
H66	H	1.374985	0.389934	0.176053
H67	H	1.330949	0.473723	0.275453
O68	O	0.883614	-0.032180	0.000072
C69	C	0.750781	-0.016715	0.000117
H70	H	0.720185	0.055057	-0.046010
H71	H	0.714315	-0.021418	0.116988
C72	C	0.733851	-0.178575	-0.038744
C73	C	0.696272	-0.090425	-0.095409
H74	H	0.700226	-0.224044	-0.097662
H75	H	0.823343	-0.188995	-0.038769
H76	H	0.703460	-0.182481	0.058648
H77	H	0.726677	-0.086517	-0.192791
H78	H	0.606784	-0.080007	-0.095403
O79	O	1.651903	0.013127	0.349177
C80	C	1.727174	-0.041689	0.449732
H81	H	1.675696	-0.043077	0.559041
H82	H	1.820532	-0.011107	0.466017
C83	C	1.816050	-0.139301	0.255658
C84	C	1.752819	-0.141012	0.389910
H85	H	1.831876	-0.200566	0.218756
H86	H	1.765343	-0.102368	0.187910
H87	H	1.893841	-0.113811	0.269247
H88	H	1.675024	-0.166490	0.376316
H89	H	1.803515	-0.177951	0.457654
H90	H	1.075814	0.290268	0.000044
