data_functionalizedCrystal
_audit_creation_method	'MofGen! by Chris Wilmer'
_symmetry_space_group_name_H-M	'P1'
_symmetry_Int_Tables_number	1
_symmetry_cell_setting	triclinic
loop_
_symmetry_equiv_pos_as_xyz
  x,y,z
_cell_length_a	12.811438
_cell_length_b	14.044190
_cell_length_c	11.892095
_cell_angle_alpha	94.240074
_cell_angle_beta	80.666371
_cell_angle_gamma	88.596362
loop_
_atom_site_label
_atom_site_type_symbol
_atom_site_fract_x
_atom_site_fract_y
_atom_site_fract_z
O1	O	1.420305	0.112338	-0.239607
O2	O	1.113968	0.128241	-0.208209
O3	O	1.262533	-0.017681	-0.223414
O4	O	1.271740	0.258261	-0.224402
O5	O	1.250144	-0.005533	-0.034138
O6	O	1.101579	0.140389	-0.018934
O7	O	1.407916	0.124486	-0.050331
Zn8	Zn	1.252781	0.134367	-0.004581
Zn9	Zn	1.269103	0.118361	-0.253959
O10	O	1.259351	0.270409	-0.035127
C11	C	1.068332	0.133796	-0.109528
C12	C	0.950808	0.132239	-0.097482
C13	C	0.778411	0.136666	0.022665
C14	C	0.888835	0.138130	0.011351
C15	C	0.902350	0.124886	-0.195008
C16	C	0.791926	0.123422	-0.183695
C17	C	0.729960	0.129311	-0.074855
C18	C	0.619535	0.127840	-0.063542
C19	C	0.633052	0.114603	-0.269900
C20	C	0.743476	0.116067	-0.281214
C21	C	1.252312	-0.046911	-0.128360
C22	C	1.240301	-0.152104	-0.127119
C23	C	1.303527	-0.402562	-0.133644
C24	C	1.218363	-0.344706	-0.124907
C25	C	1.230572	-0.237533	-0.126138
C26	C	1.291319	-0.509745	-0.132413
C27	C	1.453552	0.118931	-0.149014
C28	C	1.571077	0.120488	-0.161068
C29	C	1.269572	0.299638	-0.130183
C30	C	1.281584	0.404831	-0.131431
N31	N	1.241648	0.145289	0.165613
N32	N	1.280243	0.107431	-0.424154
C33	C	1.357701	0.031370	0.390383
C34	C	1.349928	0.039012	0.509520
C35	C	1.218325	0.168210	0.523027
C36	C	1.226098	0.160568	0.403890
C37	C	1.295789	0.092147	0.337572
C38	C	1.303567	0.084510	0.218432
C39	C	1.171959	0.213703	0.231941
C40	C	1.164186	0.221344	0.351079
H41	H	0.593592	0.108618	-0.349308
H42	H	1.161575	0.223910	0.577040
Cl43	Cl	1.076574	0.307353	0.434458
H44	H	1.121549	0.263194	0.188929
Cl45	Cl	1.427762	-0.037398	0.575909
H46	H	0.727957	0.141467	0.111287
Cl47	Cl	1.091635	-0.392497	-0.111920
Cl48	Cl	1.430245	-0.354768	-0.146614
Cl49	Cl	0.541636	0.135238	0.073283
Cl50	Cl	1.391181	-0.001501	0.135062
Cl51	Cl	0.980267	0.117483	-0.331824
H52	H	1.414455	-0.024334	0.336385
H53	H	0.793943	0.111277	-0.369828
Cl54	Cl	0.949740	0.147380	0.133952
