data_functionalizedCrystal
_audit_creation_method	'MofGen! by Chris Wilmer'
_symmetry_space_group_name_H-M	'P1'
_symmetry_Int_Tables_number	1
_symmetry_cell_setting	triclinic
loop_
_symmetry_equiv_pos_as_xyz
  x,y,z
_cell_length_a	14.971486
_cell_length_b	16.992695
_cell_length_c	13.448316
_cell_angle_alpha	89.993283
_cell_angle_beta	89.998199
_cell_angle_gamma	87.141176
loop_
_atom_site_label
_atom_site_type_symbol
_atom_site_fract_x
_atom_site_fract_y
_atom_site_fract_z
O1	O	1.194127	0.102190	-0.082578
O2	O	0.934587	0.114427	-0.082605
O3	O	1.063317	-0.005835	-0.082584
O4	O	1.065398	0.222452	-0.082599
O5	O	1.063299	-0.005843	0.082800
O6	O	0.934569	0.114420	0.082779
O7	O	1.194110	0.102182	0.082806
Cu8	Cu	1.064338	0.108300	0.097893
Cu9	Cu	1.064359	0.108309	-0.097692
O10	O	1.065380	0.222445	0.082785
C11	C	0.901215	0.113876	0.000083
C12	C	0.801803	0.112236	0.000073
C13	C	0.749541	0.182887	0.000070
C14	C	0.656133	0.181341	0.000085
C15	C	0.614988	0.109144	0.000096
C16	C	0.667257	0.038488	0.000102
C17	C	0.760663	0.040034	0.000095
C18	C	0.472568	0.035269	0.000116
C19	C	0.379155	0.033723	0.000122
C20	C	0.368038	0.176577	0.000106
C21	C	0.461445	0.178123	0.000099
C22	C	0.513707	0.107466	0.000103
C23	C	1.060631	-0.035054	0.000108
C24	C	1.052644	-0.122105	0.000107
C25	C	1.129708	-0.172274	0.000116
C26	C	1.122198	-0.254067	0.000106
C27	C	1.037623	-0.285691	0.000093
C28	C	0.960553	-0.235517	0.000081
C29	C	0.968064	-0.153724	0.000084
C30	C	1.006493	-0.529318	0.000076
C31	C	0.998988	-0.611117	0.000076
C32	C	1.160634	-0.629662	0.000099
C33	C	1.168138	-0.547867	0.000108
C34	C	1.091068	-0.497700	0.000090
N35	N	1.029945	-0.369297	0.000086
N36	N	1.098747	-0.414095	0.000091
C37	C	1.227482	0.102733	0.000115
C38	C	1.326894	0.104373	0.000119
C39	C	1.068066	0.251664	0.000091
C40	C	1.076053	0.338715	0.000085
N41	N	1.064329	0.108294	0.235457
N42	N	1.064374	0.108310	-0.235257
C43	C	1.121351	0.055064	0.287507
C44	C	1.121357	0.055063	0.391611
C45	C	1.064344	0.108297	0.443662
C46	C	1.007316	0.161530	0.391605
C47	C	1.007307	0.161526	0.287504
C48	C	1.007341	0.161535	0.608585
C49	C	1.007352	0.161540	0.712694
C50	C	1.121392	0.055072	0.712692
C51	C	1.121382	0.055068	0.608591
C52	C	1.064355	0.108302	0.556541
H53	H	0.803213	-0.017497	0.000097
Br54	Br	0.543494	-0.060623	0.000127
H55	H	0.494942	0.236912	0.000080
H56	H	0.633749	-0.020297	0.000126
Br57	Br	0.929974	0.233789	0.783328
Br58	Br	1.244494	-0.129364	0.000147
Br59	Br	1.226791	-0.322151	0.000118
H60	H	0.943737	-0.488481	0.000063
H61	H	0.930114	-0.636861	0.000082
Br62	Br	1.282923	-0.504955	0.000092
Br63	Br	0.929941	0.233779	0.537949
Br64	Br	0.929933	0.233772	0.462242
H65	H	0.960873	0.204870	0.245126
H66	H	1.223380	-0.670517	0.000111
H67	H	0.613586	0.238873	0.000081
Br68	Br	0.845771	-0.278433	0.000048
H69	H	0.905310	-0.112878	0.000077
Br70	Br	1.198737	-0.017181	0.216877
H71	H	1.167788	0.011718	0.433989
Br72	Br	1.198764	-0.017171	0.537946
H73	H	0.783034	0.241679	0.000060
Br74	Br	0.323315	-0.064260	0.000171
Br75	Br	0.297113	0.272468	0.000099
Br76	Br	1.198788	-0.017169	0.783334
