data_functionalizedCrystal
_audit_creation_method	'MofGen! by Chris Wilmer'
_symmetry_space_group_name_H-M	'P1'
_symmetry_Int_Tables_number	1
_symmetry_cell_setting	triclinic
loop_
_symmetry_equiv_pos_as_xyz
  x,y,z
_cell_length_a	15.944545
_cell_length_b	15.944551
_cell_length_c	7.088929
_cell_angle_alpha	83.774879
_cell_angle_beta	96.206774
_cell_angle_gamma	83.497455
loop_
_atom_site_label
_atom_site_type_symbol
_atom_site_fract_x
_atom_site_fract_y
_atom_site_fract_z
O1	O	1.105912	0.116935	-0.158870
O2	O	0.861360	0.130298	-0.158902
O3	O	0.990315	0.001341	-0.158868
O4	O	0.976956	0.245893	-0.158904
O5	O	1.007548	-0.015932	0.159112
O6	O	0.878593	0.113025	0.159078
O7	O	1.123145	0.099662	0.159110
Cu8	Cu	1.002443	0.104767	0.188128
Cu9	Cu	0.982062	0.125194	-0.187920
O10	O	0.994190	0.228620	0.159076
C11	C	0.838682	0.121108	0.000084
C12	C	0.745435	0.119449	0.000073
C13	C	0.474804	0.034553	0.000106
C14	C	0.533883	0.066966	0.156885
C15	C	0.409793	0.113526	0.000107
C16	C	0.516872	0.084017	-0.156618
C17	C	0.574706	0.116432	0.000087
C18	C	0.467650	0.145911	0.157015
C19	C	0.450629	0.162958	-0.156629
C20	C	0.509677	0.195426	0.000189
C21	C	0.314792	0.111850	0.000120
C22	C	0.669705	0.118114	0.000088
C23	C	0.998377	-0.038590	0.000122
C24	C	0.996715	-0.131836	0.000123
C25	C	0.912808	-0.346689	0.000086
C26	C	0.960268	-0.416224	0.156874
C27	C	0.993707	-0.302561	0.000108
C28	C	0.943296	-0.399177	-0.156629
C29	C	0.990795	-0.467472	0.000085
C30	C	1.041196	-0.370875	0.157026
C31	C	1.024205	-0.353814	-0.156618
C32	C	1.071726	-0.423334	0.000208
C33	C	0.995382	-0.207559	0.000123
C34	C	0.989126	-0.562473	0.000084
C35	C	1.145822	0.108852	0.000119
C36	C	1.239069	0.110512	0.000118
C37	C	0.986127	0.268550	0.000081
C38	C	0.987789	0.361797	0.000068
N39	N	1.016783	0.090399	0.452620
N40	N	0.967728	0.139555	-0.452412
H41	H	0.569998	0.026413	0.289439
O42	O	0.402760	0.216640	-0.332205
H43	H	0.333419	0.215401	-0.329817
H44	H	1.067633	0.039461	0.534289
H45	H	0.916887	0.190495	0.465929
H46	H	1.082575	-0.358093	0.289723
O47	O	0.888450	-0.416256	-0.332208
H48	H	0.861876	-0.354976	-0.418961
O49	O	0.530219	0.285575	0.000285
H50	H	0.510513	0.311073	0.130549
H51	H	0.459160	-0.033468	0.000268
H52	H	1.051208	-0.326485	-0.289168
O53	O	0.439021	0.180491	0.332797
H54	H	0.390764	0.237036	0.288900
O55	O	0.545658	0.049369	-0.332193
H56	H	0.532000	-0.017375	-0.331842
H57	H	1.138939	-0.456499	0.000306
H58	H	0.845668	-0.313388	0.000234
O59	O	0.924472	-0.452398	0.332455
H60	H	0.858512	-0.421390	0.332131
