data_functionalizedCrystal
_audit_creation_method	'MofGen! by Chris Wilmer'
_symmetry_space_group_name_H-M	'P1'
_symmetry_Int_Tables_number	1
_symmetry_cell_setting	triclinic
loop_
_symmetry_equiv_pos_as_xyz
  x,y,z
_cell_length_a	19.805404
_cell_length_b	12.759401
_cell_length_c	19.805399
_cell_angle_alpha	89.984563
_cell_angle_beta	89.970203
_cell_angle_gamma	90.029512
loop_
_atom_site_label
_atom_site_type_symbol
_atom_site_fract_x
_atom_site_fract_y
_atom_site_fract_z
Zn1	Zn	-0.269476	1.606117	-0.382635
Zn2	Zn	0.230524	2.106117	0.117365
Zn3	Zn	-0.382664	1.605975	-0.269442
Zn4	Zn	0.117336	2.105975	0.230558
Zn5	Zn	-0.269495	1.430428	-0.269467
Zn6	Zn	0.230505	1.930428	0.230533
Zn7	Zn	-0.382629	1.430362	-0.382597
Zn8	Zn	0.117371	1.930362	0.117403
O9	O	-0.326066	1.518221	-0.326035
O10	O	0.173934	2.018221	0.173965
O11	O	-0.284498	1.753119	-0.367624
O12	O	0.215502	2.253119	0.132376
O13	O	-0.367675	1.582657	-0.174729
O14	O	0.132325	2.082657	0.325271
O15	O	-0.174776	1.453820	-0.284506
O16	O	0.325224	1.953820	0.215494
O17	O	-0.367657	1.753015	-0.284462
O18	O	0.132343	2.253015	0.215538
O19	O	-0.174762	1.582898	-0.367649
O20	O	0.325238	2.082898	0.132351
O21	O	-0.284530	1.453683	-0.174747
O22	O	0.215470	1.953683	0.325253
O23	O	-0.284495	1.283398	-0.284469
O24	O	0.215505	1.783398	0.215531
O25	O	-0.367596	1.453708	-0.477318
O26	O	0.132404	1.953708	0.022682
O27	O	-0.367614	1.283350	-0.367585
O28	O	0.132386	1.783350	0.132415
O29	O	-0.284463	1.582834	-0.477346
O30	O	0.215537	2.082834	0.022654
O31	O	-0.477376	1.582593	-0.284426
O32	O	0.022624	2.082593	0.215574
O33	O	-0.477350	1.453571	-0.367560
O34	O	0.022650	1.953571	0.132440
C35	C	-0.501922	1.518088	-0.326001
C36	C	-0.001922	2.018088	0.173999
C37	C	-0.577154	1.518128	-0.326009
C38	C	-0.077154	2.018128	0.173991
C39	C	-0.326054	1.245253	-0.326026
C40	C	0.173946	1.745253	0.173974
C41	C	-0.326065	1.128477	-0.326038
C42	C	0.173935	1.628477	0.173962
C43	C	-1.038879	1.585574	-0.369423
C44	C	-0.538879	2.085574	0.130577
C45	C	-0.968190	1.585533	-0.369408
C46	C	-0.468190	2.085533	0.130592
C47	C	-0.932916	1.518362	-0.326077
C48	C	-0.432916	2.018362	0.173923
C49	C	-0.968333	1.451235	-0.282754
C50	C	-0.468333	1.951235	0.217246
C51	C	-1.039020	1.451283	-0.282767
C52	C	-0.539020	1.951283	0.217233
C53	C	-0.683260	1.451043	-0.282702
C54	C	-0.183260	1.951043	0.217298
C55	C	-0.612568	1.450999	-0.282694
C56	C	-0.112568	1.950999	0.217306
C57	C	-0.612430	1.585293	-0.369342
C58	C	-0.112430	2.085293	0.130658
C59	C	-0.683117	1.585340	-0.369355
C60	C	-0.183117	2.085340	0.130645
C61	C	-0.718528	1.518218	-0.326030
C62	C	-0.218528	2.018218	0.173970
C63	C	-0.795177	1.518266	-0.326047
C64	C	-0.295177	2.018266	0.173953
C65	C	-0.856269	1.518308	-0.326063
C66	C	-0.356269	2.018308	0.173937
C67	C	-0.369414	1.073617	-0.369245
C68	C	0.130586	1.573617	0.130755
C69	C	-0.369422	0.963893	-0.369252
C70	C	0.130578	1.463893	0.130748
C71	C	-0.282731	0.963898	-0.282840
C72	C	0.217269	1.463898	0.217160
C73	C	-0.282719	1.073620	-0.282837
C74	C	0.217281	1.573620	0.217163
C75	C	-0.412759	1.128474	-0.412446
C76	C	0.087241	1.628474	0.087554
C77	C	-0.456113	1.073614	-0.455656
C78	C	0.043887	1.573614	0.044344
C79	C	-0.456121	0.963890	-0.455663
C80	C	0.043879	1.463890	0.044337
C81	C	-0.412776	0.909026	-0.412461
C82	C	0.087224	1.409026	0.087539
C83	C	-0.149523	1.518382	-0.326084
C84	C	0.350477	2.018382	0.173916
C85	C	-0.074291	1.518451	-0.326105
C86	C	0.425709	2.018451	0.173895
C87	C	-0.326023	1.518280	-0.502578
C88	C	0.173977	2.018280	-0.002578
C89	C	-0.326005	1.518305	-0.577810
C90	C	0.173995	2.018305	-0.077810
C91	C	-0.326079	1.792254	-0.326045
C92	C	0.173921	2.292254	0.173955
C93	C	-0.326085	1.909031	-0.326049
C94	C	0.173915	2.409031	0.173951
C95	C	-0.282716	1.585542	-0.613170
C96	C	0.217284	2.085542	-0.113170
C97	C	-0.282696	1.585553	-0.683858
C98	C	0.217304	2.085553	-0.183858
C99	C	-0.325970	1.518331	-0.719186
C100	C	0.174030	2.018331	-0.219186
C101	C	-0.369261	1.451086	-0.683821
C102	C	0.130739	1.951086	-0.183821
C103	C	-0.369277	1.451071	-0.613134
C104	C	0.130723	1.951071	-0.113134
C105	C	-0.369198	1.451145	-0.968894
C106	C	0.130802	1.951145	-0.468894
C107	C	-0.369180	1.451168	-1.039587
C108	C	0.130820	1.951168	-0.539587
C109	C	-0.282617	1.585627	-1.039619
C110	C	0.217383	2.085627	-0.539619
C111	C	-0.282633	1.585612	-0.968932
C112	C	0.217367	2.085612	-0.468932
C113	C	-0.325922	1.518364	-0.933573
C114	C	0.174078	2.018364	-0.433573
C115	C	-0.325941	1.518352	-0.856925
C116	C	0.174059	2.018352	-0.356925
C117	C	-0.325954	1.518348	-0.795833
C118	C	0.174046	2.018348	-0.295833
C119	C	-0.326060	1.518222	-0.150179
C120	C	0.173940	2.018222	0.349821
C121	C	-0.325887	1.518401	-0.074948
C122	C	0.174113	2.018401	0.425052
H123	H	-1.067594	1.640262	-0.404715
H124	H	-0.567594	2.140262	0.095285
Cl125	Cl	-0.228232	1.670126	-0.924524
Cl126	Cl	0.271768	2.170126	-0.424524
H127	H	-1.067852	1.396625	-0.247493
H128	H	-0.567852	1.896625	0.252507
H129	H	-0.247479	1.640285	-0.584411
H130	H	0.252521	2.140285	-0.084411
Cl131	Cl	-0.412754	1.266412	-0.412438
Cl132	Cl	0.087246	1.766412	0.087562
Cl133	Cl	-0.568223	1.366549	-0.228216
Cl134	Cl	-0.068223	1.866549	0.271784
Cl135	Cl	-0.727768	1.366654	-0.228240
Cl136	Cl	-0.227768	1.866654	0.271760
Cl137	Cl	-0.923988	1.366796	-0.228279
Cl138	Cl	-0.423988	1.866796	0.271721
H139	H	-0.247367	1.640381	-1.068416
H140	H	0.252633	2.140381	-0.568416
Cl141	Cl	-0.727459	1.669780	-0.423834
Cl142	Cl	-0.227459	2.169780	0.076166
H143	H	-0.404521	1.396308	-0.584345
H144	H	0.095479	1.896308	-0.084345
Cl145	Cl	-0.510596	1.142584	-0.509968
Cl146	Cl	-0.010596	1.642584	-0.009968
H147	H	-0.491417	0.919226	-0.490852
H148	H	0.008583	1.419226	0.009148
H149	H	-0.939358	1.640190	-0.404680
H150	H	-0.439358	2.140190	0.095320
H151	H	-0.412781	0.819681	-0.412476
H152	H	0.087219	1.319681	0.087524
Cl153	Cl	-0.228303	1.670130	-0.728307
Cl154	Cl	0.271697	2.170130	-0.228307
Cl155	Cl	-0.228246	0.894925	-0.228531
Cl156	Cl	0.271754	1.394925	0.271469
H157	H	-0.247415	1.118288	-0.247659
H158	H	0.252585	1.618288	0.252341
H159	H	-0.404420	1.396423	-1.068348
H160	H	0.095580	1.896423	-0.568348
H161	H	-0.404456	1.396403	-0.940114
H162	H	0.095544	1.896403	-0.440114
Cl163	Cl	-0.567909	1.669679	-0.423807
Cl164	Cl	-0.067909	2.169679	0.076193
H165	H	-0.404493	1.396349	-0.712590
H166	H	0.095507	1.896349	-0.212590
