data_functionalizedCrystal
_audit_creation_method	'MofGen! by Chris Wilmer'
_symmetry_space_group_name_H-M	'P1'
_symmetry_Int_Tables_number	1
_symmetry_cell_setting	triclinic
loop_
_symmetry_equiv_pos_as_xyz
  x,y,z
_cell_length_a	17.699083
_cell_length_b	14.519731
_cell_length_c	16.176319
_cell_angle_alpha	89.992219
_cell_angle_beta	89.998611
_cell_angle_gamma	83.485934
loop_
_atom_site_label
_atom_site_type_symbol
_atom_site_fract_x
_atom_site_fract_y
_atom_site_fract_z
O1	O	1.004420	0.116623	-0.068632
O2	O	1.504420	0.616623	0.431368
O3	O	0.784086	0.131796	-0.068660
O4	O	1.284086	0.631796	0.431340
O5	O	0.900086	-0.010052	-0.068638
O6	O	1.400086	0.489948	0.431362
O7	O	0.888420	0.258472	-0.068654
O8	O	1.388420	0.758472	0.431346
O9	O	0.900070	-0.010061	0.068855
O10	O	1.400070	0.489939	0.568855
O11	O	0.784070	0.131787	0.068833
O12	O	1.284070	0.631787	0.568833
O13	O	1.004404	0.116614	0.068861
O14	O	1.504404	0.616614	0.568861
Cu15	Cu	0.894235	0.124200	0.081401
Cu16	Cu	1.394235	0.624200	0.581401
Cu17	Cu	0.894254	0.124211	-0.081200
Cu18	Cu	1.394254	0.624211	0.418800
O19	O	0.888404	0.258463	0.068839
O20	O	1.388404	0.758463	0.568839
C21	C	0.755879	0.131248	0.000083
C22	C	1.255879	0.631248	0.500083
C23	C	0.671857	0.129617	0.000073
C24	C	1.171857	0.629617	0.500073
C25	C	0.899532	-0.044414	0.000109
C26	C	1.399532	0.455586	0.500109
C27	C	0.897894	-0.146787	0.000109
C28	C	1.397894	0.353213	0.500109
C29	C	0.623479	0.212879	0.000068
C30	C	1.123479	0.712879	0.500068
C31	C	0.544531	0.211341	0.000079
C32	C	1.044531	0.711341	0.500079
C33	C	0.513962	0.126540	0.000089
C34	C	1.013962	0.626540	0.500089
C35	C	0.562346	0.043272	0.000096
C36	C	1.062346	0.543272	0.500096
C37	C	0.641292	0.044811	0.000091
C38	C	1.141292	0.544811	0.500091
C39	C	0.243965	0.037063	0.000117
C40	C	0.743965	0.537063	0.500117
C41	C	0.165012	0.035531	0.000119
C42	C	0.665012	0.535531	0.500119
C43	C	0.147204	0.203594	0.000105
C44	C	0.647204	0.703594	0.500105
C45	C	0.226150	0.205133	0.000100
C46	C	0.726150	0.705133	0.500100
C47	C	0.274527	0.121865	0.000112
C48	C	0.774527	0.621865	0.500112
C49	C	0.360131	0.123533	0.000102
C50	C	0.860131	0.623533	0.500102
C51	C	0.428360	0.124870	0.000093
C52	C	0.928360	0.624870	0.500093
C53	C	0.896563	-0.229926	0.000107
C54	C	1.396563	0.270074	0.500107
C55	C	0.894899	-0.334227	0.000101
C56	C	1.394899	0.165773	0.500101
C57	C	0.893579	-0.417361	0.000095
C58	C	1.393579	0.082639	0.500095
C59	C	0.891916	-0.521669	0.000090
C60	C	1.391916	-0.021669	0.500090
C61	C	1.032611	0.117162	0.000116
C62	C	1.532611	0.617162	0.500116
C63	C	1.116633	0.118793	0.000121
C64	C	1.616633	0.618793	0.500121
C65	C	0.888958	0.292824	0.000090
C66	C	1.388958	0.792824	0.500090
C67	C	0.890596	0.395198	0.000085
C68	C	1.390596	0.895198	0.500085
N69	N	0.894228	0.124192	0.195767
N70	N	1.394228	0.624192	0.695767
N71	N	0.894268	0.124211	-0.195566
N72	N	1.394268	0.624211	0.304434
C73	C	0.945608	0.061407	0.239040
C74	C	1.445608	0.561407	0.739040
C75	C	0.945612	0.061406	0.325587
C76	C	1.445612	0.561406	0.825587
C77	C	0.894238	0.124195	0.368859
C78	C	1.394238	0.624195	0.868859
C79	C	0.842852	0.186983	0.325579
C80	C	1.342852	0.686983	0.825579
C81	C	0.842846	0.186979	0.239034
C82	C	1.342846	0.686979	0.739034
C83	C	0.842878	0.187000	0.674607
C84	C	1.342878	0.687000	1.174607
C85	C	0.842891	0.187001	0.761159
C86	C	1.342891	0.687001	1.261159
C87	C	0.945645	0.061427	0.761161
C88	C	1.445645	0.561427	1.261161
C89	C	0.945638	0.061423	0.674616
C90	C	1.445638	0.561423	1.174616
C91	C	0.894250	0.124207	0.631343
C92	C	1.394250	0.624207	1.131343
C93	C	0.894245	0.124207	0.537499
C94	C	1.394245	0.624207	1.037499
C95	C	0.894246	0.124201	0.462702
C96	C	1.394246	0.624201	0.962702
H97	H	0.648362	0.281934	0.000060
H98	H	1.148362	0.781934	0.500060
C99	C	1.047175	-0.062727	0.247745
C100	C	1.547175	0.437273	0.747745
C101	C	1.002079	-0.007616	0.191480
C102	C	1.502079	0.492384	0.691480
H103	H	1.082034	-0.105345	0.218383
H104	H	1.582034	0.394655	0.718383
H105	H	1.074453	-0.024379	0.281488
H106	H	1.574453	0.475621	0.781488
H107	H	1.015619	-0.095846	0.281512
H108	H	1.515619	0.404154	0.781512
H109	H	1.033635	0.025508	0.157717
H110	H	1.533635	0.525508	0.657717
H111	H	0.974799	-0.045969	0.157723
H112	H	1.474799	0.454031	0.657723
H113	H	0.801038	0.238123	0.639382
H114	H	1.301038	0.738123	1.139382
C115	C	0.086566	-0.063708	-0.070546
C116	C	0.586566	0.436292	0.429454
C117	C	0.131411	-0.057691	0.000134
C118	C	0.631411	0.442309	0.500134
H119	H	0.065826	-0.121258	-0.070539
H120	H	0.565826	0.378742	0.429461
H121	H	0.046460	-0.014343	-0.070547
H122	H	0.546460	0.485657	0.429453
H123	H	0.117003	-0.059617	-0.118488
H124	H	0.617003	0.440383	0.381512
H125	H	0.100972	-0.061774	0.048076
H126	H	0.600972	0.438226	0.548076
H127	H	0.171522	-0.107069	0.000142
H128	H	0.671522	0.392931	0.500142
C129	C	0.797241	0.242756	0.458244
C130	C	1.297241	0.742756	0.958244
C131	C	0.786382	0.256005	0.373142
C132	C	1.286382	0.756005	0.873142
H133	H	0.762382	0.285375	0.487604
H134	H	1.262382	0.785375	0.987604
H135	H	0.788936	0.181228	0.472437
H136	H	1.288936	0.681228	0.972437
H137	H	0.847769	0.252697	0.472409
H138	H	1.347769	0.752697	0.972409
H139	H	0.735856	0.246058	0.358976
H140	H	1.235856	0.746058	0.858976
H141	H	0.794682	0.317547	0.358943
H142	H	1.294682	0.817547	0.858943
H143	H	0.283344	-0.030739	0.000127
H144	H	0.783344	0.469261	0.500127
H145	H	0.505145	0.279141	0.000074
H146	H	1.005145	0.779141	0.500074
C147	C	0.741281	0.311115	0.247719
C148	C	1.241281	0.811115	0.747719
C149	C	0.786370	0.255998	0.191464
C150	C	1.286370	0.755998	0.691464
H151	H	0.706417	0.353728	0.218350
H152	H	1.206417	0.853728	0.718350
H153	H	0.714009	0.272771	0.281483
H154	H	1.214009	0.772771	0.781483
H155	H	0.772841	0.344240	0.281466
H156	H	1.272841	0.844240	0.781466
H157	H	0.754811	0.222868	0.157720
H158	H	1.254811	0.722868	0.657720
H159	H	0.813644	0.294348	0.157685
H160	H	1.313644	0.794348	0.657685
H161	H	0.251035	0.274186	0.000088
H162	H	0.751035	0.774186	0.500088
H163	H	0.537451	-0.025775	0.000116
H164	H	1.037451	0.474225	0.500116
H165	H	0.680681	-0.022990	0.000095
H166	H	1.180681	0.477010	0.500095
C167	C	0.018275	0.275875	0.000116
C168	C	0.518275	0.775875	0.500116
C169	C	0.094025	0.295126	0.000103
C170	C	0.594025	0.795126	0.500103
H171	H	-0.014552	0.332383	0.000119
H172	H	0.485448	0.832383	0.500119
H173	H	0.008996	0.241103	-0.047823
H174	H	0.508996	0.741103	0.452177
H175	H	0.009006	0.241094	0.048072
H176	H	0.509006	0.741094	0.548072
H177	H	0.103295	0.329901	-0.047855
H178	H	0.603295	0.829901	0.452145
H179	H	0.103308	0.329912	0.048047
H180	H	0.603308	0.829912	0.548047
H181	H	0.987449	0.010281	0.360821
H182	H	1.487449	0.510281	0.860821
C183	C	1.047205	-0.062713	0.683313
C184	C	1.547205	0.437287	1.183313
C185	C	1.002107	-0.007599	0.627053
C186	C	1.502107	0.492401	1.127053
H187	H	1.082061	-0.105331	0.653949
H188	H	1.582061	0.394669	1.153949
H189	H	1.074485	-0.024367	0.717056
H190	H	1.574485	0.475633	1.217056
H191	H	1.015650	-0.095832	0.717082
H192	H	1.515650	0.404168	1.217082
H193	H	1.033661	0.025525	0.593288
H194	H	1.533661	0.525525	1.093288
H195	H	0.974824	-0.045951	0.593296
H196	H	1.474824	0.454049	1.093296
H197	H	0.987486	0.010302	0.796403
H198	H	1.487486	0.510302	1.296403
C199	C	0.741298	0.311118	0.752468
C200	C	1.241298	0.811118	1.252468
C201	C	0.786409	0.256016	0.808725
C202	C	1.286409	0.756016	1.308725
H203	H	0.706428	0.353717	0.781836
H204	H	1.206428	0.853717	1.281836
H205	H	0.772836	0.344250	0.718704
H206	H	1.272836	0.844250	1.218704
H207	H	0.714025	0.272756	0.718721
H208	H	1.214025	0.772756	1.218721
H209	H	0.813687	0.294378	0.842469
H210	H	1.313687	0.794378	1.342469
H211	H	0.754867	0.222882	0.842503
H212	H	1.254867	0.722882	1.342503
