data_functionalizedCrystal
_audit_creation_method	'MofGen! by Chris Wilmer'
_symmetry_space_group_name_H-M	'P1'
_symmetry_Int_Tables_number	1
_symmetry_cell_setting	triclinic
loop_
_symmetry_equiv_pos_as_xyz
  x,y,z
_cell_length_a	17.917559
_cell_length_b	14.809436
_cell_length_c	14.809374
_cell_angle_alpha	73.427602
_cell_angle_beta	98.933226
_cell_angle_gamma	49.634822
loop_
_atom_site_label
_atom_site_type_symbol
_atom_site_fract_x
_atom_site_fract_y
_atom_site_fract_z
Zr1	Zr	0.669271	0.925938	0.020487
O2	O	0.506404	1.134805	-0.111289
O3	O	0.730015	0.728460	0.046623
O4	O	0.688230	0.923824	-0.124651
O5	O	0.568844	0.937137	0.211312
O6	O	0.819353	0.909202	-0.118970
O7	O	0.548189	0.939441	0.059985
O8	O	0.894098	0.559732	0.187408
O9	O	0.494099	1.286608	-0.095066
O10	O	0.840709	0.794556	0.079239
O11	O	0.758268	0.803749	0.187932
O12	O	0.709072	1.033765	-0.013721
O13	O	0.626632	1.042958	0.094972
Zr14	Zr	0.911340	0.898944	0.270897
Zr15	Zr	0.878397	0.902618	0.029549
Zr16	Zr	0.702214	0.922265	0.261836
Zr17	Zr	0.649646	1.168047	0.046360
Zr18	Zr	0.930965	0.656836	0.245024
O19	O	0.850596	1.096422	0.244762
O20	O	0.803755	1.101646	-0.098404
O21	O	0.553246	1.129581	0.231877
O22	O	1.074207	0.690078	0.402673
O23	O	1.027365	0.695301	0.059507
O24	O	0.776856	0.723237	0.389789
O25	O	1.011767	0.887745	0.080073
O26	O	0.892381	0.901058	0.416036
O27	O	0.761258	0.915680	0.410354
O28	O	1.032422	0.885442	0.231399
O29	O	0.660327	1.268071	-0.087864
O30	O	0.920284	0.556811	0.379248
O31	O	1.086512	0.538275	0.386451
O32	O	1.060326	0.541195	0.194611
O33	O	0.520285	1.283688	0.096773
O34	O	0.686513	1.265151	0.103976
O35	O	0.871539	0.791118	0.305106
O36	O	0.953979	0.781924	0.196413
O37	O	0.822343	1.021133	0.103452
O38	O	0.739902	1.030327	0.212145
C39	C	0.814853	0.609601	0.113329
C40	C	0.823184	0.506819	0.102346
C41	C	0.794608	0.359328	0.140019
C42	C	0.785998	0.465557	0.151373
C43	C	0.528721	0.941612	0.134358
C44	C	0.439941	0.951512	0.130511
C45	C	0.303184	0.855302	0.167897
C46	C	0.277435	0.969574	0.123490
C47	C	0.367863	0.959521	0.127398
C48	C	0.212750	0.865353	0.163990
C49	C	1.051890	0.883271	0.157027
C50	C	1.140670	0.873370	0.160874
C51	C	0.749098	0.917036	-0.156198
C52	C	0.735113	0.918596	-0.258656
C53	C	0.765758	1.215282	0.178055
C54	C	0.757427	1.318063	0.189039
C55	C	0.797528	0.911636	-0.301361
C56	C	0.783075	0.913247	-0.407257
C57	C	0.831513	0.907846	0.447582
C58	C	0.845498	0.906286	0.550041
C59	C	1.076438	0.580430	0.124664
C60	C	1.173548	0.467748	0.117527
C61	C	0.856060	0.605005	0.415219
C62	C	0.878377	0.500664	0.506694
C63	C	1.117645	0.575835	0.426554
C64	C	1.228741	0.461594	0.521876
C65	C	0.462966	1.249048	-0.135169
C66	C	0.351870	1.363289	-0.230491
C67	C	0.504173	1.244452	0.166721
C68	C	0.407063	1.357134	0.173857
C69	C	0.724551	1.219877	-0.123835
C70	C	0.702234	1.324218	-0.215310
C71	C	1.160025	0.421426	0.053002
C72	C	1.251259	0.315564	0.046275
C73	C	1.356016	0.256020	0.104079
C74	C	1.369537	0.302353	0.168607
C75	C	1.278303	0.408219	0.175328
C76	C	0.947984	0.445071	0.610825
C77	C	0.968950	0.347046	0.696786
C78	C	0.920312	0.304608	0.678613
C79	C	0.850696	0.360211	0.574472
C80	C	0.829726	0.458242	0.488513
C81	C	1.323955	0.403145	0.509904
C82	C	1.428347	0.295816	0.599461
C83	C	1.437524	0.246931	0.700989
C84	C	1.342299	0.305390	0.712960
C85	C	1.237909	0.412724	0.623404
C86	C	0.256655	1.421749	-0.218518
C87	C	0.152260	1.529108	-0.308072
C88	C	0.143083	1.577998	-0.409600
C89	C	0.238309	1.519533	-0.421571
C90	C	0.342700	1.412182	-0.332017
C91	C	0.420584	1.403467	0.238373
C92	C	0.329344	1.509356	0.245077
C93	C	0.224586	1.568903	0.187270
C94	C	0.211066	1.522566	0.122746
C95	C	0.302303	1.416685	0.116037
C96	C	0.750889	1.366623	-0.197103
C97	C	0.729942	1.464648	-0.283045
C98	C	0.660333	1.520272	-0.387192
C99	C	0.611678	1.477857	-0.405397
C100	C	0.632632	1.379827	-0.319456
H101	H	0.187475	1.074955	0.082529
O102	O	0.818415	1.312830	-0.095980
C103	C	0.774186	1.419879	-0.074244
H104	H	0.717119	1.521979	-0.152200
H105	H	0.844452	1.397601	-0.022474
H106	H	0.725223	1.426620	-0.030481
H107	H	0.909643	0.899126	-0.408123
O108	O	1.058189	0.479488	-0.003218
C109	C	0.984627	0.621784	-0.073731
H110	H	1.016541	0.658810	-0.043186
H111	H	0.899317	0.680882	-0.079005
H112	H	0.978538	0.640724	-0.156018
H113	H	1.349788	0.265572	0.795636
H114	H	0.773049	0.503494	0.403727
H115	H	0.393137	0.749930	0.208846
H116	H	1.160388	0.460300	0.633166
H117	H	0.861668	0.904476	-0.259523
H118	H	0.340375	1.547065	0.297623
O119	O	0.706693	0.921592	-0.457184
C120	C	0.760121	0.804259	-0.466931
H121	H	0.842669	0.757928	-0.463168
H122	H	0.705695	0.835371	-0.546364
H123	H	0.775201	0.724603	-0.399145
H124	H	0.150304	1.655116	0.192742
O125	O	0.522254	1.345825	0.294569
C126	C	0.514605	1.409422	0.352962
H127	H	0.425922	1.516315	0.313952
H128	H	0.572652	1.419437	0.354161
H129	H	0.539057	1.343943	0.437991
O130	O	1.036516	0.292943	0.798010
C131	C	1.044622	0.197296	0.869993
H132	H	0.969225	0.221412	0.831202
H133	H	1.048278	0.204673	0.944809
H134	H	1.122917	0.088464	0.892177
H135	H	0.643280	1.600094	-0.457160
O136	O	0.940539	0.209431	0.762001
C137	C	0.882714	0.183855	0.723641
H138	H	0.809695	0.275917	0.641492
H139	H	0.851079	0.167494	0.780533
H140	H	0.940606	0.087474	0.717880
O141	O	0.658735	0.926940	-0.308587
C142	C	0.712163	0.809607	-0.318333
H143	H	0.794712	0.763276	-0.314570
H144	H	0.657738	0.840719	-0.397766
H145	H	0.727243	0.729951	-0.250548
O146	O	1.315258	0.450403	0.411357
C147	C	1.421699	0.375711	0.420009
H148	H	1.481120	0.329766	0.503553
H149	H	1.418027	0.447848	0.359126
H150	H	1.452021	0.289126	0.404344
H151	H	0.987595	0.479612	0.625642
O152	O	1.538985	0.142778	0.787910
C153	C	1.591002	0.183773	0.795196
H154	H	1.553801	0.269340	0.713281
H155	H	1.683438	0.091746	0.825284
H156	H	1.577831	0.223379	0.852913
H157	H	0.832810	0.316020	0.089639
O158	O	0.803288	0.319186	0.556791
C159	C	0.687114	0.434238	0.504074
H160	H	0.663442	0.518250	0.520060
H161	H	0.648912	0.401965	0.534734
H162	H	0.655047	0.475532	0.414803
O163	O	0.265754	1.374072	-0.119828
C164	C	0.378302	1.266808	-0.043334
H165	H	0.431898	1.218964	-0.082963
H166	H	0.394090	1.184547	0.022183
H167	H	0.399928	1.310173	-0.007365
O168	O	1.237928	0.270683	-0.016415
C169	C	1.125898	0.345956	-0.065996
H170	H	1.084521	0.389994	-0.017416
H171	H	1.120570	0.274765	-0.071064
H172	H	1.082015	0.433975	-0.149599
O173	O	0.777021	1.506091	-0.265472
C174	C	0.693358	1.649513	-0.305991
H175	H	0.613858	1.698974	-0.370152
H176	H	0.720539	1.696059	-0.341760
H177	H	0.678028	1.669481	-0.238826
H178	H	1.430296	0.169817	0.098598
H179	H	1.454843	0.253857	0.215668
H180	H	0.125760	1.571065	0.075682
H181	H	0.074737	1.576693	-0.298304
O182	O	1.520932	0.238807	0.587950
C183	C	1.590339	0.096972	0.627855
H184	H	1.570777	0.058550	0.687714
H185	H	1.680501	0.037356	0.668723
H186	H	1.575864	0.080319	0.559398
H187	H	0.291280	1.378965	0.063504
O188	O	0.229507	1.566981	-0.520143
C189	C	0.274808	1.617225	-0.524389
H190	H	0.273764	1.646250	-0.460747
H191	H	0.223577	1.712186	-0.606244
H192	H	0.363711	1.533871	-0.509610
O193	O	0.740486	0.517315	0.211470
C194	C	0.742001	0.611876	0.209412
H195	H	0.809329	0.588565	0.188978
H196	H	0.759704	0.602203	0.290855
H197	H	0.658198	0.721322	0.146743
H198	H	0.555001	1.523161	-0.490204
H199	H	0.058074	1.665410	-0.482511
H200	H	1.289330	0.445921	0.227877
H201	H	0.420224	1.364584	-0.341779
O202	O	0.585226	1.338849	-0.337334
C203	C	0.519317	1.408952	-0.447688
H204	H	0.494289	1.508730	-0.488989
H205	H	0.441920	1.434105	-0.462561
H206	H	0.568445	1.340711	-0.480748
H207	H	0.861388	0.463513	0.051963
H208	H	0.719215	0.361385	0.239408
