data_functionalizedCrystal
_audit_creation_method	'MofGen! by Chris Wilmer'
_symmetry_space_group_name_H-M	'P1'
_symmetry_Int_Tables_number	1
_symmetry_cell_setting	triclinic
loop_
_symmetry_equiv_pos_as_xyz
  x,y,z
_cell_length_a	27.440280
_cell_length_b	27.440280
_cell_length_c	14.395555
_cell_angle_alpha	90.004124
_cell_angle_beta	60.007664
_cell_angle_gamma	60.004742
loop_
_atom_site_label
_atom_site_type_symbol
_atom_site_fract_x
_atom_site_fract_y
_atom_site_fract_z
Zr1	Zr	0.533403	-0.063954	0.895003
O2	O	0.635052	-0.141761	0.746702
O3	O	0.431746	-0.040103	0.940448
O4	O	0.533395	-0.141765	0.940470
O5	O	0.533412	0.040094	0.746682
O6	O	0.533399	-0.141767	1.093337
O7	O	0.533403	-0.040100	0.746680
O8	O	0.351566	0.040087	1.093298
O9	O	0.715245	-0.141760	0.746722
O10	O	0.473565	-0.029931	1.073934
O11	O	0.473569	0.029917	0.959852
O12	O	0.593249	-0.089776	0.959878
O13	O	0.593253	-0.029927	0.845797
Zr14	Zr	0.533424	0.063942	1.138812
Zr15	Zr	0.533409	-0.063957	1.138809
Zr16	Zr	0.533418	0.063945	0.895007
Zr17	Zr	0.661301	-0.063953	0.895035
Zr18	Zr	0.405527	0.063940	1.138781
O19	O	0.635082	0.040091	1.093367
O20	O	0.635061	-0.141766	1.093362
O21	O	0.635074	0.040095	0.746707
O22	O	0.431775	0.141749	1.287113
O23	O	0.431754	-0.040108	1.287108
O24	O	0.431767	0.141753	0.940453
O25	O	0.533416	-0.040106	1.287133
O26	O	0.533432	0.141752	1.093345
O27	O	0.533429	0.141754	0.940478
O28	O	0.533425	0.040087	1.287135
O29	O	0.715249	-0.141763	0.940515
O30	O	0.351578	0.141750	1.093300
O31	O	0.351583	0.141748	1.287093
O32	O	0.351571	0.040085	1.287091
O33	O	0.715257	-0.040098	0.746725
O34	O	0.715261	-0.040100	0.940518
O35	O	0.473579	0.089763	1.073937
O36	O	0.473575	0.029915	1.188018
O37	O	0.593258	-0.029930	1.073963
O38	O	0.593263	0.029919	0.959882
C39	C	0.373433	-0.000008	1.016868
C40	C	0.319137	-0.000009	1.016855
C41	C	-0.017607	-0.031242	1.076489
C42	C	-0.068631	-0.031240	1.076499
O43	O	-0.095039	-0.057790	1.127178
N44	N	-0.094145	-0.000001	1.016949
C45	C	-0.068637	0.031244	0.957394
O46	O	-0.095024	0.057816	0.906743
C47	C	-0.017617	0.031245	0.957391
C48	C	0.007899	-0.000001	1.016935
C49	C	0.007909	-0.062485	1.136030
C50	C	0.058930	-0.062487	1.136017
C51	C	0.084436	-0.031246	1.076464
C52	C	0.058920	-0.000003	1.016923
C53	C	0.007886	0.062493	0.897843
C54	C	0.058908	0.062492	0.897846
C55	C	0.084425	0.031246	0.957390
C56	C	0.135447	0.031235	0.957357
N57	N	0.160961	-0.000004	1.016908
C58	C	0.135455	-0.031245	1.076461
C59	C	-0.175782	0.031239	0.957406
C60	C	-0.226797	0.031235	0.957402
C61	C	-0.226788	-0.031248	1.076509
C62	C	-0.175769	-0.031247	1.076506
C63	C	-0.150268	0.000000	1.016956
C64	C	0.242604	-0.031248	1.076430
C65	C	0.293632	-0.031250	1.076408
C66	C	0.293616	0.031236	0.957306
C67	C	0.242595	0.031235	0.957322
C68	C	0.217089	-0.000008	1.016893
O69	O	0.161885	0.057774	0.906708
O70	O	0.161842	-0.057806	1.127115
C71	C	0.533395	-0.159989	1.016903
C72	C	0.533389	-0.214285	1.016902
C73	C	0.595899	-0.582258	0.957382
C74	C	0.595903	-0.633280	0.957385
O75	O	0.649034	-0.686235	0.906788
N76	N	0.533430	-0.627559	1.016919
C77	C	0.470949	-0.570811	1.076462
O78	O	0.417811	-0.570630	1.127101
C79	C	0.470946	-0.519790	1.076465
C80	C	0.533423	-0.525516	1.016918
C81	C	0.658371	-0.587981	0.897841
C82	C	0.658367	-0.536962	0.897836
C83	C	0.595891	-0.480220	0.957373
C84	C	0.533419	-0.474497	1.016914
C85	C	0.408466	-0.463044	1.136015
C86	C	0.408468	-0.412022	1.136013
C87	C	0.470945	-0.417748	1.076466
C88	C	0.470939	-0.366736	1.076445
N89	N	0.533412	-0.372457	1.016911
C90	C	0.595888	-0.429199	0.957375
C91	C	0.470960	-0.677961	1.076454
C92	C	0.470962	-0.728981	1.076445
C93	C	0.595917	-0.791446	0.957370
C94	C	0.595913	-0.740425	0.957372
C95	C	0.533433	-0.683682	1.016920
C96	C	0.595874	-0.322053	0.957369
C97	C	0.595865	-0.271027	0.957366
C98	C	0.470911	-0.208566	1.076446
C99	C	0.470920	-0.259588	1.076444
C100	C	0.533407	-0.316333	1.016904
O101	O	0.417834	-0.313763	1.127021
O102	O	0.649016	-0.429369	0.906757
C103	C	0.693394	-0.000004	1.016947
C104	C	0.747690	-0.000004	1.016960
C105	C	0.533407	-0.000003	0.711944
C106	C	0.533404	-0.000001	0.608442
C107	C	0.533433	0.159976	1.016912
C108	C	0.533439	0.214273	1.016914
C109	C	0.468147	0.032628	0.610041
C110	C	0.500774	0.056280	0.517034
C111	C	0.500780	-0.023636	0.517021
C112	C	0.566031	0.023683	0.516798
C113	C	0.566028	-0.056263	0.516799
C114	C	0.598702	-0.032625	0.423775
C115	C	0.533421	-0.000010	1.321871
C116	C	0.533423	-0.000011	1.425373
C117	C	0.373441	-0.000012	1.321832
C118	C	0.319147	-0.000014	1.425320
C119	C	0.373452	0.159974	1.016873
C120	C	0.319162	0.214270	1.016861
C121	C	0.373459	0.159970	1.321836
C122	C	0.319172	0.214265	1.425326
C123	C	0.693368	-0.159983	0.711979
C124	C	0.747655	-0.214278	0.608489
C125	C	0.693387	-0.000001	0.711983
C126	C	0.747681	0.000001	0.608495
C127	C	0.693376	-0.159987	1.016943
C128	C	0.747665	-0.214283	1.016954
C129	C	0.293645	-0.031259	1.414369
C130	C	0.242638	-0.031273	1.511598
C131	C	0.217130	-0.000038	1.619778
C132	C	0.242637	0.031209	1.630727
C133	C	0.293647	0.031219	1.533499
C134	C	0.293673	0.271012	1.076406
C135	C	0.242669	0.322034	1.076391
C136	C	0.217153	0.316312	1.016836
C137	C	0.242648	0.259564	0.957283
C138	C	0.293654	0.208544	0.957293
C139	C	0.293676	0.208522	1.533486
C140	C	0.242675	0.259533	1.630735
C141	C	0.217167	0.316286	1.619822
C142	C	0.242668	0.322028	1.511651
C143	C	0.293672	0.271018	1.414404
C144	C	0.773158	-0.208535	0.500330
C145	C	0.824175	-0.259545	0.403080
C146	C	0.849686	-0.316298	0.413993
C147	C	0.824181	-0.322040	0.522164
C148	C	0.773168	-0.271030	0.619411
C149	C	0.773188	0.031241	0.619447
C150	C	0.824209	0.031241	0.522218
C151	C	0.849719	0.000004	0.414038
C152	C	0.824210	-0.031240	0.403088
C153	C	0.773193	-0.031243	0.500316
C154	C	0.773165	-0.208542	1.076521
C155	C	0.824169	-0.259554	1.076554
C156	C	0.849676	-0.316306	1.017014
C157	C	0.824171	-0.322046	0.957446
C158	C	0.773164	-0.271035	0.957419
H159	H	-0.247565	-0.056685	1.125003
H160	H	0.221865	0.254914	0.908795
O161	O	0.745683	-0.064938	0.488488
H162	H	0.705925	-0.059700	0.574263
O163	O	0.321135	0.064935	0.893108
H164	H	0.344382	0.046895	0.801578
H165	H	0.752390	-0.162328	0.491422
O166	O	0.851672	-0.253351	1.140804
H167	H	0.891419	-0.298353	1.130840
O168	O	0.086444	-0.096187	1.200247
H169	H	0.076668	-0.064652	1.266056
H170	H	0.593580	-0.103829	0.517774
H171	H	0.473184	-0.043621	0.516103
O172	O	0.851668	-0.383261	0.893269
H173	H	0.825360	-0.378691	0.851858
H174	H	0.752407	-0.275717	0.908908
H175	H	-0.154997	-0.056690	1.124993
O176	O	0.321159	-0.064957	1.297695
H177	H	0.294857	-0.086691	1.306433
H178	H	0.473198	0.103856	0.516102
O179	O	0.851704	0.064952	0.534047
H180	H	0.907973	0.033423	0.492633
H181	H	0.646788	-0.837656	0.908890
H182	H	0.221860	0.056639	1.718820
O183	O	0.215127	-0.064970	1.499776
H184	H	0.241427	-0.086676	1.408216
O185	O	0.321078	0.147365	0.893093
H186	H	0.377349	0.122582	0.827231
O187	O	0.851666	-0.253346	0.286418
H188	H	0.825341	-0.205311	0.295178
H189	H	0.221827	0.056670	0.908821
H190	H	0.891209	-0.357838	1.017044
H191	H	-0.247560	0.056671	0.908900
H192	H	0.314424	0.275702	1.326340
H193	H	0.646757	-0.368252	0.908886
H194	H	0.314404	0.056666	1.542432
O195	O	0.321153	-0.064951	1.140636
H196	H	0.294837	-0.086668	1.182057
O197	O	0.215200	0.253314	1.747382
H198	H	0.225020	0.275042	1.794520
H199	H	0.314437	0.162315	1.542393
H200	H	-0.012855	-0.087924	1.184530
H201	H	0.844988	-0.056672	0.314995
O202	O	0.321192	0.277191	1.140639
H203	H	0.294897	0.325223	1.182026
O204	O	0.851701	-0.383257	0.533918
H205	H	0.825405	-0.378688	0.625465
O206	O	0.403557	-0.616765	1.140705
H207	H	0.400564	-0.592032	1.206542
H208	H	0.221917	0.368236	1.124890
H209	H	0.175620	0.357861	1.016837
H210	H	0.420087	-0.724312	1.124919
H211	H	0.175636	0.357817	1.699016
O212	O	0.162106	-0.000045	1.724643
H213	H	0.148657	-0.027016	1.698842
O214	O	0.904728	0.000032	0.309184
H215	H	0.951208	-0.019503	0.309268
H216	H	0.593596	0.043723	0.517632
O217	O	0.215144	0.383242	1.499886
H218	H	0.175387	0.417742	1.585686
H219	H	0.752405	-0.275714	0.707477
O220	O	0.215103	-0.064951	1.140665
H221	H	0.241431	-0.086680	1.182049
H222	H	0.891223	-0.357829	0.334799
H223	H	0.752421	0.056682	0.707523
O224	O	0.745654	-0.147335	1.140762
H225	H	0.788477	-0.142143	1.106381
O226	O	-0.148267	0.064933	0.893154
H227	H	-0.174579	0.086647	0.851740
O228	O	0.663253	-0.277202	0.893139
H229	H	0.706695	-0.325233	0.851752
H230	H	-0.012882	0.087938	0.849356
O231	O	0.341079	-0.456861	1.200301
H232	H	0.297642	-0.408829	1.241726
H233	H	0.709242	-0.541631	0.849353
O234	O	0.086418	0.096191	0.833608
H235	H	0.060104	0.117911	0.792200
H236	H	0.709249	-0.634180	0.849360
O237	O	0.671855	-0.069178	0.318316
H238	H	0.680392	-0.040567	0.266775
O239	O	0.663298	-0.746600	0.893150
H240	H	0.693256	-0.771366	0.927575
O241	O	0.341077	-0.350819	1.200233
H242	H	0.297639	-0.355415	1.241625
H243	H	0.420046	-0.254925	1.124917
O244	O	0.403527	-0.147363	1.140743
H245	H	0.414027	-0.112850	1.130771
H246	H	0.412967	0.060258	0.689784
