data_functionalizedCrystal
_audit_creation_method	'MofGen! by Chris Wilmer'
_symmetry_space_group_name_H-M	'P1'
_symmetry_Int_Tables_number	1
_symmetry_cell_setting	triclinic
loop_
_symmetry_equiv_pos_as_xyz
  x,y,z
_cell_length_a	16.974885
_cell_length_b	16.974885
_cell_length_c	18.366186
_cell_angle_alpha	93.647587
_cell_angle_beta	93.642976
_cell_angle_gamma	83.160210
loop_
_atom_site_label
_atom_site_type_symbol
_atom_site_fract_x
_atom_site_fract_y
_atom_site_fract_z
O1	O	1.049024	0.100747	0.007142
O2	O	1.549024	0.600747	0.507142
O3	O	0.818807	0.113590	-0.005656
O4	O	1.318807	0.613590	0.494344
O5	O	0.940334	-0.007940	-0.005654
O6	O	1.440334	0.492060	0.494346
O7	O	0.927497	0.222277	0.007140
O8	O	1.427497	0.722277	0.507140
O9	O	0.940314	-0.007946	0.115444
O10	O	1.440314	0.492054	0.615444
O11	O	0.818787	0.113584	0.115442
O12	O	1.318787	0.613584	0.615442
O13	O	1.049003	0.100741	0.128240
O14	O	1.549003	0.600741	0.628240
Zn15	Zn	0.933892	0.107162	0.141068
Zn16	Zn	1.433892	0.607162	0.641068
Zn17	Zn	0.933919	0.107170	-0.018484
Zn18	Zn	1.433919	0.607170	0.481516
O19	O	0.927476	0.222271	0.128238
O20	O	1.427476	0.722271	0.628238
C21	C	0.789340	0.113100	0.053130
C22	C	1.289340	0.613100	0.553130
C23	C	0.701566	0.111638	0.047876
C24	C	1.201566	0.611638	0.547876
C25	C	0.939836	-0.037401	0.053131
C26	C	1.439836	0.462599	0.553131
C27	C	0.938372	-0.125174	0.047873
C28	C	1.438372	0.374826	0.547873
C29	C	0.207499	0.103383	0.011164
C30	C	0.707499	0.603383	0.511164
C31	C	0.289971	0.104757	0.016111
C32	C	0.789971	0.604757	0.516111
C33	C	0.331188	0.105446	0.084596
C34	C	0.831188	0.605446	0.584596
C35	C	0.289928	0.104754	0.148137
C36	C	0.789928	0.604754	0.648137
C37	C	0.207458	0.103375	0.143190
C38	C	0.707458	0.603375	0.643190
C39	C	0.577836	0.109566	0.106470
C40	C	1.077836	0.609566	0.606470
C41	C	0.660312	0.110948	0.111413
C42	C	1.160312	0.610948	0.611413
C43	C	0.660350	0.110949	-0.020614
C44	C	1.160350	0.610949	0.479386
C45	C	0.577877	0.109575	-0.025555
C46	C	1.077877	0.609575	0.474445
C47	C	0.536625	0.108878	0.037986
C48	C	1.036625	0.608878	0.537986
N49	N	0.415488	0.106853	0.089653
N50	N	0.915488	0.606853	0.589653
N51	N	0.452328	0.107466	0.032928
N52	N	0.952328	0.607466	0.532928
C53	C	0.937672	-0.166421	0.111411
C54	C	1.437672	0.333579	0.611411
C55	C	0.936301	-0.248895	0.106465
C56	C	1.436301	0.251105	0.606465
C57	C	0.935626	-0.290119	0.037981
C58	C	1.435626	0.209881	0.537981
C59	C	0.936329	-0.248867	-0.025561
C60	C	1.436329	0.251133	0.474439
C61	C	0.937705	-0.166396	-0.020614
C62	C	1.437705	0.333604	0.479386
C63	C	0.931518	-0.536771	0.016109
C64	C	1.431518	-0.036771	0.516109
C65	C	0.930139	-0.619248	0.011167
C66	C	1.430139	-0.119248	0.511167
C67	C	0.930113	-0.619270	0.143193
C68	C	1.430113	-0.119270	0.643193
C69	C	0.931484	-0.536796	0.148134
C70	C	1.431484	-0.036796	0.648134
C71	C	0.932191	-0.495552	0.084592
C72	C	1.432191	0.004448	0.584592
N73	N	0.934223	-0.374420	0.032924
N74	N	1.434223	0.125580	0.532924
N75	N	0.933600	-0.411253	0.089650
N76	N	1.433600	0.088747	0.589650
C77	C	1.078471	0.101232	0.069453
C78	C	1.578471	0.601232	0.569453
C79	C	1.166245	0.102694	0.074702
C80	C	1.666245	0.602694	0.574702
N81	N	0.933879	0.107156	0.249958
N82	N	1.433879	0.607156	0.749958
C83	C	0.927975	0.251732	0.069452
C84	C	1.427975	0.751732	0.569452
C85	C	0.929438	0.339506	0.074704
C86	C	1.429438	0.839506	0.574704
N87	N	0.933938	0.107169	-0.127374
N88	N	1.433938	0.607169	0.372626
C89	C	0.987709	0.053369	0.288062
C90	C	1.487709	0.553369	0.788062
C91	C	0.987714	0.053365	0.364290
C92	C	1.487714	0.553365	0.864290
C93	C	0.933897	0.107162	0.402412
C94	C	1.433897	0.607162	0.902412
C95	C	0.880057	0.160954	0.364299
C96	C	1.380057	0.660954	0.864299
C97	C	0.880048	0.160950	0.288071
C98	C	1.380048	0.660950	0.788071
C99	C	0.923459	0.179185	0.526797
C100	C	1.423459	0.679185	1.026797
C101	C	0.923473	0.179189	0.603023
C102	C	1.423473	0.679189	1.103023
C103	C	0.933919	0.107172	0.637521
C104	C	1.433919	0.607172	1.137521
C105	C	0.944368	0.035148	0.595785
C106	C	1.444368	0.535148	1.095785
C107	C	0.944359	0.035144	0.519558
C108	C	1.444359	0.535144	1.019558
C109	C	0.933900	0.107172	0.485067
C110	C	1.433900	0.607172	0.985067
C111	C	0.987757	0.053377	0.758280
C112	C	1.487757	0.553377	1.258280
C113	C	0.987757	0.053372	0.834509
C114	C	1.487757	0.553372	1.334509
C115	C	0.880103	0.160968	0.834517
C116	C	1.380103	0.660968	1.334517
C117	C	0.880100	0.160965	0.758289
C118	C	1.380100	0.660965	1.258289
C119	C	0.933931	0.107171	0.720175
C120	C	1.433931	0.607171	1.220175
H121	H	0.173946	0.102828	-0.044603
H122	H	0.673946	0.602828	0.455397
H123	H	0.693867	0.111515	0.167185
H124	H	1.193867	0.611515	0.667185
Cl125	Cl	0.525985	0.108712	0.186353
Cl126	Cl	1.025985	0.608712	0.686353
Cl127	Cl	0.712215	0.111818	-0.100490
Cl128	Cl	1.212215	0.611818	0.399510
Cl129	Cl	0.812397	0.228581	0.412222
Cl130	Cl	1.312397	0.728581	0.912222
Cl131	Cl	0.938516	-0.114603	0.197509
Cl132	Cl	1.438516	0.385397	0.697509
H133	H	0.932051	-0.503239	0.203901
H134	H	1.432051	-0.003239	0.703901
H135	H	0.323494	0.105310	0.203899
H136	H	0.823494	0.605310	0.703899
Cl137	Cl	0.935418	-0.300744	0.186345
Cl138	Cl	1.435418	0.199256	0.686345
Cl139	Cl	0.526068	0.108709	-0.111654
Cl140	Cl	1.026068	0.608709	0.388346
H141	H	0.929538	-0.652860	0.194925
H142	H	1.429538	-0.152860	0.694925
Cl143	Cl	0.155596	0.102500	0.223069
Cl144	Cl	0.655596	0.602500	0.723069
Cl145	Cl	0.341831	0.105620	-0.063769
Cl146	Cl	0.841831	0.605620	0.436231
Cl147	Cl	0.929286	-0.671072	-0.074934
Cl148	Cl	1.429286	-0.171072	0.425066
H149	H	0.932092	-0.503200	-0.035632
H150	H	1.432092	-0.003200	0.464368
Cl151	Cl	0.935491	-0.300694	-0.111655
Cl152	Cl	1.435491	0.199306	0.388345
Cl153	Cl	0.910399	0.269732	0.483440
Cl154	Cl	1.410399	0.769732	0.983440
H155	H	0.938277	-0.132814	-0.072353
H156	H	1.438277	0.367186	0.427647
Cl157	Cl	1.055377	-0.014261	0.240147
Cl158	Cl	1.555377	0.485739	0.740147
Cl159	Cl	1.055392	-0.014258	0.412200
Cl160	Cl	1.555392	0.485742	0.912200
Cl161	Cl	0.957507	-0.055395	0.639146
Cl162	Cl	1.457507	0.444605	1.139146
Cl163	Cl	0.957485	-0.055396	0.467092
Cl164	Cl	1.457485	0.444604	0.967092
H165	H	1.031588	0.009572	0.727246
H166	H	1.531588	0.509572	1.227246
H167	H	1.031589	0.009568	0.865533
H168	H	1.531589	0.509568	1.365533
Cl169	Cl	0.812441	0.228593	0.882437
Cl170	Cl	1.312441	0.728593	1.382437
Cl171	Cl	0.812429	0.228591	0.710383
Cl172	Cl	1.312429	0.728591	1.210383
H173	H	0.914970	0.237836	0.636999
H174	H	1.414970	0.737836	1.136999
Cl175	Cl	0.812372	0.228575	0.240166
Cl176	Cl	1.312372	0.728575	0.740166
