data_functionalizedCrystal
_audit_creation_method	'MofGen! by Chris Wilmer'
_symmetry_space_group_name_H-M	'P1'
_symmetry_Int_Tables_number	1
_symmetry_cell_setting	triclinic
loop_
_symmetry_equiv_pos_as_xyz
  x,y,z
_cell_length_a	12.811457
_cell_length_b	23.532357
_cell_length_c	11.892095
_cell_angle_alpha	93.858312
_cell_angle_beta	91.498327
_cell_angle_gamma	83.439233
loop_
_atom_site_label
_atom_site_type_symbol
_atom_site_fract_x
_atom_site_fract_y
_atom_site_fract_z
O1	O	1.388364	0.078564	0.048312
O2	O	1.084928	0.085706	0.017201
O3	O	1.245822	-0.000711	0.033720
O4	O	1.227470	0.164982	0.031792
O5	O	1.232407	0.006483	0.220350
O6	O	1.071513	0.092901	0.203831
O7	O	1.374949	0.085758	0.234942
Zn8	Zn	1.221101	0.090472	0.249018
Zn9	Zn	1.238776	0.080993	0.003125
O10	O	1.214056	0.172176	0.218422
C11	C	1.039407	0.088683	0.106537
C12	C	0.923757	0.086827	0.094680
C13	C	0.691813	0.091172	0.275888
C14	C	0.583149	0.089427	0.264754
C15	C	0.597765	0.081590	0.061278
C16	C	0.706428	0.083334	0.072413
C17	C	0.753448	0.088126	0.179721
C18	C	0.862113	0.089874	0.190854
C19	C	0.876728	0.082033	-0.012620
C20	C	0.768064	0.080289	-0.023754
C21	C	1.238655	-0.018335	0.126992
C22	C	1.237274	-0.081566	0.126861
C23	C	1.235925	-0.477583	0.024180
C24	C	1.234613	-0.536995	0.024039
O25	O	1.240118	-0.571053	-0.062554
N26	N	1.226650	-0.562791	0.125703
C27	C	1.219988	-0.529171	0.227513
O28	O	1.213093	-0.556567	0.313973
C29	C	1.221292	-0.469759	0.227652
C30	C	1.229266	-0.443967	0.125982
C31	C	1.243897	-0.451790	-0.077482
C32	C	1.245211	-0.392383	-0.077340
C33	C	1.238552	-0.358767	0.024463
C34	C	1.230580	-0.384559	0.126124
C35	C	1.214622	-0.436140	0.329461
C36	C	1.215927	-0.376724	0.329591
C37	C	1.223901	-0.350932	0.227921
C38	C	1.225235	-0.291536	0.228069
N39	N	1.233198	-0.265740	0.126405
C40	C	1.239856	-0.299356	0.024602
C41	C	1.217248	-0.653939	0.227213
C42	C	1.215951	-0.713349	0.227076
C43	C	1.230574	-0.721170	0.023601
C44	C	1.231879	-0.661758	0.023740
C45	C	1.225211	-0.628143	0.125549
C46	C	1.242615	-0.174595	0.024907
C47	C	1.243933	-0.115181	0.025058
C48	C	1.229303	-0.107366	0.228531
C49	C	1.227992	-0.166775	0.228382
C50	C	1.234645	-0.200387	0.126560
O51	O	1.219729	-0.257442	0.314616
O52	O	1.246736	-0.271950	-0.061845
C53	C	1.420470	0.082782	0.145603
C54	C	1.536121	0.084638	0.157452
C55	C	1.221222	0.189799	0.125148
C56	C	1.222604	0.253030	0.125272
N57	N	1.209046	0.096940	0.416834
N58	N	1.250839	0.074520	-0.164691
C59	C	1.334723	0.029476	0.666386
C60	C	1.326304	0.034002	0.783863
C61	C	1.183786	0.110514	0.769268
C62	C	1.192204	0.105988	0.651791
C63	C	1.267677	0.065469	0.600354
C64	C	1.276100	0.060946	0.482875
C65	C	1.133577	0.137455	0.468282
C66	C	1.125158	0.141981	0.585759
H67	H	0.730095	0.095081	0.363263
H68	H	0.729766	0.076385	-0.111122
H69	H	1.208131	-0.457129	0.412251
O70	O	0.523258	0.092284	0.358140
C71	C	0.472271	0.042301	0.359044
H72	H	0.517778	0.006206	0.305552
H73	H	0.468715	0.029226	0.449324
H74	H	0.389092	0.051053	0.322989
O75	O	1.208067	-0.738452	0.325756
C76	C	1.116603	-0.766681	0.322520
H77	H	1.092680	-0.777025	0.231084
H78	H	1.132866	-0.808121	0.367582
H79	H	1.050304	-0.737724	0.366277
O80	O	1.110517	0.149940	0.819118
C81	C	1.128910	0.205326	0.792105
H82	H	1.175191	0.202243	0.710923
H83	H	1.050580	0.232691	0.780034
H84	H	1.175830	0.225828	0.863513
H85	H	1.063707	0.174970	0.627653
O86	O	1.068500	0.172363	0.403968
C87	C	1.092136	0.159695	0.289251
H88	H	1.132697	0.114057	0.277242
H89	H	1.016372	0.163797	0.236519
H90	H	1.146447	0.190987	0.261228
O91	O	1.391287	-0.001015	0.848044
C92	C	1.330993	-0.033888	0.910360
H93	H	1.251377	-0.036757	0.866554
H94	H	1.373887	-0.078820	0.916102
H95	H	1.318963	-0.012671	0.998811
O96	O	1.349300	0.021499	0.432970
C97	C	1.330886	-0.033869	0.460077
H98	H	1.245152	-0.033437	0.483821
H99	H	1.348715	-0.065361	0.384107
H100	H	1.383902	-0.047579	0.534218
H101	H	0.900394	0.093779	0.278230
H102	H	1.210481	-0.349356	0.412496
H103	H	1.396182	-0.003513	0.624506
O104	O	1.222645	-0.074665	0.327364
C105	C	1.132729	-0.034176	0.324230
H106	H	1.073420	-0.050199	0.259987
H107	H	1.095968	-0.028055	0.411097
H108	H	1.156090	0.008466	0.299075
H109	H	0.559464	0.077679	-0.026087
H110	H	1.221508	-0.187776	0.311170
H111	H	1.250429	-0.094185	-0.057737
O112	O	0.936530	0.079172	-0.106082
C113	C	0.902074	0.125568	-0.171979
H114	H	0.859311	0.161778	-0.116400
H115	H	0.972709	0.141459	-0.211234
H116	H	0.846341	0.110984	-0.241587
O117	O	1.249116	-0.207158	-0.074099
C118	C	1.256396	-0.171641	-0.163789
H119	H	1.288194	-0.130301	-0.130472
H120	H	1.311704	-0.194838	-0.229815
H121	H	1.175181	-0.161064	-0.203606
O122	O	1.252727	-0.367373	-0.176188
C123	C	1.166594	-0.378443	-0.247298
H124	H	1.098913	-0.388353	-0.194203
H125	H	1.140438	-0.339202	-0.296529
H126	H	1.190781	-0.416726	-0.308662
O127	O	1.250183	-0.484452	-0.176372
C128	C	1.159638	-0.513185	-0.191806
H129	H	1.092795	-0.488959	-0.140501
H130	H	1.135808	-0.515337	-0.284897
H131	H	1.177091	-0.558494	-0.162505
H132	H	1.235993	-0.748550	-0.059293
O133	O	1.239576	-0.636795	-0.075127
C134	C	1.245204	-0.679214	-0.164999
H135	H	1.209143	-0.718266	-0.138646
H136	H	1.200104	-0.661493	-0.241304
H137	H	1.330912	-0.692183	-0.187721
H138	H	1.211821	-0.626572	0.310124
