data_functionalizedCrystal
_audit_creation_method	'MofGen! by Chris Wilmer'
_symmetry_space_group_name_H-M	'P1'
_symmetry_Int_Tables_number	1
_symmetry_cell_setting	triclinic
loop_
_symmetry_equiv_pos_as_xyz
  x,y,z
_cell_length_a	23.196402
_cell_length_b	18.426585
_cell_length_c	23.196401
_cell_angle_alpha	90.015322
_cell_angle_beta	60.008822
_cell_angle_gamma	60.000440
loop_
_atom_site_label
_atom_site_type_symbol
_atom_site_fract_x
_atom_site_fract_y
_atom_site_fract_z
Zr1	Zr	0.630975	0.699139	-0.075596
O2	O	0.751246	0.583235	-0.167647
O3	O	0.510709	0.734668	-0.047380
O4	O	0.630976	0.734635	-0.167646
O5	O	0.630977	0.583295	0.047489
O6	O	0.630972	0.854066	-0.167640
O7	O	0.630979	0.583267	-0.047382
O8	O	0.415836	0.854124	0.047492
O9	O	0.846113	0.583238	-0.167643
O10	O	0.560172	0.838953	-0.035339
O11	O	0.560174	0.749845	0.035459
O12	O	0.701773	0.749807	-0.106138
O13	O	0.701775	0.660698	-0.035341
Zr14	Zr	0.630967	0.889663	0.075722
Zr15	Zr	0.630969	0.889618	-0.075587
Zr16	Zr	0.630973	0.699185	0.075713
Zr17	Zr	0.782278	0.699145	-0.075589
Zr18	Zr	0.479664	0.889658	0.075715
O19	O	0.751234	0.854135	0.047507
O20	O	0.751237	0.854071	-0.167635
O21	O	0.751243	0.583299	0.047494
O22	O	0.510696	1.005568	0.167774
O23	O	0.510699	1.005504	-0.047368
O24	O	0.510705	0.734732	0.167761
O25	O	0.630965	1.005508	-0.047363
O26	O	0.630966	0.854167	0.167772
O27	O	0.630970	0.734736	0.167767
O28	O	0.630963	1.005536	0.047508
O29	O	0.846108	0.734643	-0.167636
O30	O	0.415834	0.854160	0.167763
O31	O	0.415829	1.005565	0.167770
O32	O	0.415831	1.005529	0.047499
O33	O	0.846111	0.583274	-0.047373
O34	O	0.846106	0.734679	-0.047366
O35	O	0.560170	0.838996	0.106264
O36	O	0.560168	0.928105	0.035467
O37	O	0.701769	0.838958	-0.035333
O38	O	0.701770	0.749850	0.035465
C39	C	0.441715	0.794395	0.000055
C40	C	0.377483	0.794393	0.000052
C41	C	0.347312	0.840900	-0.036906
C42	C	0.286951	0.840909	-0.036900
C43	C	0.256775	0.794392	0.000054
C44	C	0.286950	0.747883	0.037020
C45	C	0.347304	0.747883	0.037019
C46	C	0.194748	0.716460	-0.005224
C47	C	0.134399	0.716458	-0.005228
C48	C	0.070620	0.794394	0.000061
C49	C	0.067206	0.872331	0.005340
C50	C	0.127560	0.872331	0.005339
C51	C	0.191330	0.794388	0.000060
C52	C	-0.025003	0.840915	-0.036892
C53	C	-0.085368	0.840926	-0.036882
C54	C	-0.085362	0.747891	0.037034
C55	C	-0.025003	0.747889	0.037028
C56	C	0.005176	0.794398	0.000061
C57	C	0.630979	0.556142	0.000052
C58	C	0.630982	0.475279	0.000049
C59	C	0.630985	0.409608	0.000049
C60	C	0.630981	0.327226	0.000055
C61	C	0.630973	0.261569	0.000064
C62	C	0.630969	0.179182	0.000069
C63	C	0.820227	0.794408	0.000071
C64	C	0.884459	0.794410	0.000074
C65	C	0.630974	0.794344	-0.189201
C66	C	0.630975	0.794325	-0.253436
C67	C	0.630963	1.032661	0.000074
C68	C	0.630960	1.113524	0.000078
C69	C	0.704887	0.747796	-0.320565
C70	C	0.704888	0.747818	-0.380921
C71	C	0.630973	0.794358	-0.374142
C72	C	0.557051	0.840897	-0.307000
C73	C	0.557052	0.840881	-0.246647
C74	C	0.574345	0.787747	-0.441462
C75	C	0.574347	0.787757	-0.501816
C76	C	0.630967	0.794414	-0.560290
C77	C	0.687598	0.801043	-0.558410
C78	C	0.687599	0.801027	-0.498057
C79	C	0.630964	0.794382	-0.439581
C80	C	0.704885	0.747907	-0.692866
C81	C	0.704883	0.747936	-0.753221
C82	C	0.557044	0.841009	-0.679298
C83	C	0.557048	0.840986	-0.618946
C84	C	0.630971	0.794431	-0.625734
C85	C	0.630968	0.794458	0.189328
C86	C	0.630967	0.794478	0.253562
C87	C	0.441707	1.032655	0.000066
C88	C	0.377472	1.113515	0.000067
C89	C	0.441712	0.794452	0.189319
C90	C	0.377479	0.794469	0.253551
C91	C	0.441704	1.032712	0.189330
C92	C	0.377468	1.113592	0.253566
C93	C	0.820238	0.556091	-0.189204
C94	C	0.884474	0.475211	-0.253439
C95	C	0.820235	0.556148	0.000060
C96	C	0.884470	0.475287	0.000060
C97	C	0.820230	0.794351	-0.189193
C98	C	0.884463	0.794334	-0.253425
C99	C	0.347309	1.104953	-0.036899
C100	C	0.286962	1.180923	-0.036912
C101	C	0.256776	1.265455	0.000045
C102	C	0.286945	1.274016	0.037011
C103	C	0.347294	1.198047	0.037020
C104	C	0.347313	0.841013	0.320681
C105	C	0.286967	0.841026	0.381040
C106	C	0.256786	0.794499	0.374267
C107	C	0.286958	0.747949	0.307129
C108	C	0.347306	0.747932	0.246773
C109	C	0.347302	1.198096	0.246776
C110	C	0.286954	1.274099	0.307126
C111	C	0.256770	1.265596	0.374266
C112	C	0.286942	1.181083	0.381054
C113	C	0.347293	1.105082	0.320704
C114	C	0.914648	0.390707	-0.246650
C115	C	0.975014	0.314704	-0.307000
C116	C	1.005202	0.323207	-0.374139
C117	C	0.975025	0.407720	-0.380928
C118	C	0.914664	0.483721	-0.320578
C119	C	0.914639	0.483850	0.037019
C120	C	0.975003	0.407880	0.037016
C121	C	1.005192	0.323348	0.000056
C122	C	0.975020	0.314787	-0.036907
C123	C	0.914661	0.390756	-0.036908
C124	C	0.914626	0.840870	-0.246629
C125	C	0.974971	0.840871	-0.306976
C126	C	1.005157	0.794331	-0.374118
C127	C	0.974989	0.747793	-0.380912
C128	C	0.914640	0.747798	-0.320566
H129	H	0.262380	0.878783	-0.066997
H130	H	1.054297	0.794334	-0.423250
N131	N	0.883844	0.700254	-0.327527
N132	N	0.910809	0.658705	-0.387482
H133	H	0.889062	0.625125	-0.392403
N134	N	0.124063	0.951943	0.010732
N135	N	0.067120	1.021526	0.015451
H136	H	0.064648	1.077754	0.019262
N137	N	0.195095	1.343078	0.000088
N138	N	0.127756	1.397746	0.057029
H139	H	0.084184	1.452576	0.057075
H140	H	0.999528	0.878766	-0.301430
H141	H	0.262375	0.710068	0.301625
H142	H	0.733708	0.806426	-0.496529
N143	N	1.005835	0.700263	-0.449504
N144	N	1.059720	0.700270	-0.503372
H145	H	1.081510	0.666698	-0.551817
N146	N	0.256146	0.700353	0.074764
N147	N	0.283098	0.658826	0.107758
H148	H	0.261343	0.625257	0.134419
H149	H	0.765081	0.709890	-0.326099
H150	H	0.262393	1.342906	0.301586
N151	N	0.195123	0.794545	0.435924
N152	N	0.127762	0.824669	0.446370
H153	H	0.084209	0.824709	0.489919
H154	H	0.371860	0.710033	0.192114
H155	H	0.890099	0.383772	-0.067003
H156	H	0.262408	0.878935	0.435700
H157	H	0.371879	0.878774	-0.067005
N158	N	0.378113	1.206811	0.178205
N159	N	0.351163	1.282275	0.172165
H160	H	0.372922	1.288438	0.123739
N161	N	0.195123	1.343243	0.435901
N162	N	0.168199	1.418685	0.429820
H163	H	0.124659	1.473528	0.473348
H164	H	0.765078	0.709927	-0.435588
N165	N	0.883821	0.382023	-0.178068
N166	N	0.829931	0.449878	-0.124183
H167	H	0.808165	0.443741	-0.075748
H168	H	0.262358	1.174173	0.435727
H169	H	0.246687	0.652987	-0.009545
N170	N	0.378075	1.018774	0.327665
N171	N	0.330891	0.996153	0.359165
H172	H	0.352624	0.935201	0.364089
H173	H	0.765073	0.710050	-0.807883
N174	N	1.005822	0.228391	-0.300043
N175	N	0.978851	0.220820	-0.240091
H176	H	1.000607	0.159863	-0.235175
N177	N	0.002068	0.951934	0.010725
N178	N	-0.051812	0.951925	0.010720
H179	H	-0.097813	1.008140	0.014515
H180	H	1.054351	0.261315	-0.423274
N181	N	0.378107	1.206801	0.074777
N182	N	0.411775	1.246442	0.059112
H183	H	0.433535	1.252630	0.085779
H184	H	0.999609	0.245951	-0.066998
H185	H	0.528239	0.782320	-0.393854
N186	N	0.378121	1.018618	-0.074650
N187	N	0.351173	1.011001	-0.107650
H188	H	0.372931	0.950029	-0.134314
H189	H	-0.109930	0.710017	0.067123
N190	N	1.005877	0.416382	-0.449517
N191	N	1.059768	0.348510	-0.503388
H192	H	1.081557	0.354624	-0.551832
N193	N	0.883842	0.570031	-0.327534
N194	N	0.850182	0.592657	-0.359035
H195	H	0.828416	0.653612	-0.363953
N196	N	0.256162	1.172149	-0.074678
N197	N	0.283119	1.096666	-0.107663
H198	H	0.261368	1.090467	-0.134336
N199	N	0.883816	0.570185	0.074781
N200	N	0.910774	0.577802	0.107771
H201	H	0.889011	0.638773	0.134441
H202	H	0.999559	0.414868	0.067119
N203	N	1.066855	0.245751	0.000052
N204	N	1.134203	0.232621	-0.023861
H205	H	1.177753	0.177821	-0.023861
N206	N	0.005827	0.888415	-0.074663
N207	N	-0.021121	0.929938	-0.107660
H208	H	0.000654	0.963482	-0.134340
N209	N	-0.116188	0.888449	-0.074632
N210	N	-0.089235	0.929971	-0.107631
H211	H	-0.111002	0.963537	-0.134293
H212	H	0.371880	0.878901	0.326210
N213	N	0.883796	0.888432	-0.178055
N214	N	0.850114	0.970470	-0.160056
H215	H	0.828339	1.004069	-0.111627
H216	H	0.765077	0.710000	-0.698394
N217	N	0.005812	0.700376	0.074783
N218	N	-0.021138	0.658849	0.107779
H219	H	0.000622	0.625293	0.134448
N220	N	0.137906	0.636840	-0.010630
N221	N	0.194848	0.567263	-0.015344
H222	H	0.197328	0.511030	-0.019160
H223	H	0.371870	0.710008	0.067115
H224	H	0.733705	0.806460	-0.606022
H225	H	0.496861	0.878872	-0.564285
N226	N	0.481533	0.888547	-0.672353
N227	N	0.415543	0.930082	-0.612407
H228	H	0.362210	0.963660	-0.607502
N229	N	0.516502	0.780979	-0.503725
N230	N	0.465945	0.775049	-0.451509
H231	H	0.425089	0.770262	-0.452855
H232	H	0.496862	0.878771	-0.191985
N233	N	0.481556	0.888438	-0.300086
N234	N	0.481564	0.888446	-0.353976
H235	H	0.428243	0.922027	-0.349092
H236	H	0.262358	1.342852	0.067100
