data_functionalizedCrystal
_audit_creation_method	'MofGen! by Chris Wilmer'
_symmetry_space_group_name_H-M	'P1'
_symmetry_Int_Tables_number	1
_symmetry_cell_setting	triclinic
loop_
_symmetry_equiv_pos_as_xyz
  x,y,z
_cell_length_a	14.519731
_cell_length_b	23.532357
_cell_length_c	12.996460
_cell_angle_alpha	89.988323
_cell_angle_beta	89.994327
_cell_angle_gamma	83.258572
loop_
_atom_site_label
_atom_site_type_symbol
_atom_site_fract_x
_atom_site_fract_y
_atom_site_fract_z
O1	O	1.222951	0.074713	-0.085582
O2	O	0.954370	0.083492	-0.085585
O3	O	1.096784	-0.003794	-0.085562
O4	O	1.080538	0.162000	-0.085605
O5	O	1.096769	-0.003799	0.085571
O6	O	0.954356	0.083488	0.085549
O7	O	1.222936	0.074709	0.085552
Cu8	Cu	1.088645	0.079098	0.101176
Cu9	Cu	1.088662	0.079103	-0.101209
O10	O	1.080523	0.161995	0.085529
C11	C	0.920009	0.083079	-0.000018
C12	C	0.817643	0.081846	-0.000019
C13	C	0.734511	0.080844	-0.000022
C14	C	0.630218	0.079593	-0.000023
C15	C	0.547091	0.078600	-0.000022
C16	C	0.442790	0.077348	-0.000024
C17	C	1.096370	-0.025015	0.000008
C18	C	1.095148	-0.088239	0.000017
C19	C	1.087486	-0.480282	-0.093323
C20	C	1.086325	-0.539687	-0.093329
O21	O	1.085700	-0.570404	-0.172664
N22	N	1.085741	-0.569404	-0.000045
C23	C	1.086309	-0.539711	0.093250
O24	O	1.085705	-0.570442	0.172595
C25	C	1.087464	-0.480307	0.093255
C26	C	1.088057	-0.450595	-0.000035
C27	C	1.088078	-0.450570	-0.186606
C28	C	1.089242	-0.391169	-0.186599
C29	C	1.089812	-0.361481	-0.093311
C30	C	1.089220	-0.391194	-0.000028
C31	C	1.088025	-0.450616	0.186550
C32	C	1.089179	-0.391207	0.186547
C33	C	1.089773	-0.361495	0.093257
C34	C	1.090954	-0.302106	0.093266
N35	N	1.091538	-0.272389	-0.000017
C36	C	1.090967	-0.302077	-0.093306
C37	C	1.083882	-0.664464	0.093233
C38	C	1.082734	-0.723868	0.093229
C39	C	1.082748	-0.723839	-0.093350
C40	C	1.083903	-0.664435	-0.093346
C41	C	1.084466	-0.634748	-0.000051
C42	C	1.093410	-0.177332	-0.093286
C43	C	1.094577	-0.117926	-0.093271
C44	C	1.094558	-0.117960	0.093308
C45	C	1.093396	-0.177361	0.093294
C46	C	1.092819	-0.207045	-0.000011
O47	O	1.091576	-0.271351	0.172561
O48	O	1.091559	-0.271338	-0.172637
C49	C	1.257298	0.075122	-0.000017
C50	C	1.359663	0.076355	-0.000024
C51	C	1.080937	0.183216	-0.000043
C52	C	1.082158	0.246440	-0.000060
N53	N	1.088639	0.079093	0.243523
N54	N	1.088675	0.079103	-0.243557
C55	C	1.088661	0.079104	0.663337
C56	C	1.088652	0.079103	0.546532
C57	C	1.088650	0.079099	0.453434
C58	C	1.088641	0.079097	0.336621
H59	H	1.092936	-0.201494	-0.169264
H60	H	1.087544	-0.474798	0.262517
H61	H	1.089721	-0.366982	-0.262566
H62	H	1.089624	-0.367038	0.262520
H63	H	1.095027	-0.093778	0.169261
H64	H	1.084344	-0.640297	0.169210
O65	O	1.082001	-0.752686	0.183881
C66	C	1.002410	-0.731787	0.240634
H67	H	0.946906	-0.711002	0.186040
H68	H	1.021139	-0.698747	0.298792
C69	C	1.033319	-0.807194	0.364865
C70	C	0.965144	-0.781671	0.297811
H71	H	1.010333	-0.837964	0.400139
H72	H	1.086942	-0.821274	0.326633
H73	H	1.048920	-0.779656	0.413321
H74	H	0.949553	-0.809208	0.249350
H75	H	0.911517	-0.767597	0.336037
O76	O	1.095108	-0.089149	-0.183990
C77	C	1.094375	-0.128097	-0.266326
H78	H	1.064344	-0.168115	-0.238977
H79	H	1.168248	-0.140314	-0.295009
C80	C	1.071234	-0.050928	-0.388055
C81	C	1.034342	-0.100077	-0.354466
H82	H	1.034207	-0.033644	-0.442427
H83	H	1.071732	-0.024688	-0.332585
H84	H	1.132794	-0.061116	-0.411951
H85	H	0.972788	-0.089888	-0.330560
H86	H	1.033833	-0.126316	-0.409935
O87	O	1.087570	-0.479318	-0.277326
C88	C	1.088316	-0.440341	-0.359644
H89	H	1.118330	-0.400329	-0.332271
H90	H	1.014448	-0.428120	-0.388335
C91	C	1.111503	-0.517467	-0.481405
C92	C	1.148375	-0.468325	-0.447787
H93	H	1.148547	-0.534729	-0.535778
H94	H	1.110997	-0.543727	-0.425947
H95	H	1.049948	-0.507275	-0.505307
H96	H	1.209925	-0.478518	-0.423874
H97	H	1.148893	-0.442067	-0.503244
H98	H	1.082280	-0.748021	-0.169311
O99	O	1.084430	-0.635659	-0.184058
C100	C	1.083706	-0.674610	-0.266391
H101	H	1.053683	-0.714630	-0.239038
H102	H	1.157581	-0.686823	-0.295072
C103	C	1.060552	-0.597446	-0.388128
C104	C	1.023670	-0.646598	-0.354535
H105	H	1.023522	-0.580167	-0.442502
H106	H	1.061043	-0.571203	-0.332660
H107	H	1.122113	-0.607630	-0.412022
H108	H	0.962114	-0.636412	-0.330630
H109	H	1.023167	-0.672838	-0.410001
H110	H	1.092922	-0.201554	0.169258
