data_functionalizedCrystal
_audit_creation_method	'MofGen! by Chris Wilmer'
_symmetry_space_group_name_H-M	'P1'
_symmetry_Int_Tables_number	1
_symmetry_cell_setting	triclinic
loop_
_symmetry_equiv_pos_as_xyz
  x,y,z
_cell_length_a	6.394989
_cell_length_b	16.109301
_cell_length_c	15.186229
_cell_angle_alpha	90.000638
_cell_angle_beta	90.000778
_cell_angle_gamma	84.979596
loop_
_atom_site_label
_atom_site_type_symbol
_atom_site_fract_x
_atom_site_fract_y
_atom_site_fract_z
O1	O	-0.268480	-1.105973	-0.073167
O2	O	-0.301892	-0.864264	-0.073180
O3	O	0.018881	-0.988549	-0.073174
O4	O	-0.589252	-0.981688	-0.073173
O5	O	0.018885	-0.988541	0.073283
O6	O	-0.301887	-0.864256	0.073277
O7	O	-0.268475	-1.105964	0.073290
Zn8	Zn	-0.285181	-0.985109	0.096537
Zn9	Zn	-0.285187	-0.985120	-0.096427
O10	O	-0.589248	-0.981679	0.073284
C11	C	-0.300536	-0.833271	0.000047
C12	C	-0.296479	-0.740933	0.000041
C13	C	-0.269831	-1.136958	0.000061
C14	C	-0.273889	-1.229296	0.000061
N15	N	-0.285175	-0.985107	0.228229
C16	C	0.096703	-0.987189	0.000051
C17	C	0.332935	-0.983042	0.000050
N18	N	-0.285175	-0.985128	-0.228120
C19	C	-0.477384	-0.520575	0.000052
C20	C	-0.473555	-0.433814	0.000057
C21	C	-0.092969	-0.449660	0.000053
C22	C	-0.096800	-0.536419	0.000054
C23	C	-0.289014	-0.571874	0.000049
C24	C	-0.281354	-0.398354	0.000054
C25	C	-0.277201	-0.304284	0.000060
C26	C	-0.293168	-0.665950	0.000044
C27	C	-0.143185	-1.040160	0.453955
C28	C	-0.143180	-1.040163	0.546145
C29	C	-0.427172	-0.930069	0.546148
C30	C	-0.427166	-0.930063	0.453960
C31	C	-0.285175	-0.985113	0.407866
C32	C	-0.285176	-0.985122	0.592244
C33	C	-0.285172	-0.985124	0.692200
C34	C	-0.285176	-0.985110	0.307904
H35	H	-0.633896	-0.549440	0.000054
H36	H	0.056603	-0.578189	0.000054
C37	C	0.013016	-1.100705	0.403254
H38	H	0.097593	-1.133483	0.443910
H39	H	-0.062133	-1.136099	0.367285
H40	H	0.099994	-1.069878	0.367299
C41	C	0.118453	-0.410660	0.000048
H42	H	0.230092	-0.453640	0.000054
H43	H	0.127851	-0.377146	-0.051026
H44	H	0.127867	-0.377144	0.051126
C45	C	0.013000	-1.100718	0.596839
H46	H	0.097549	-1.133504	0.556181
H47	H	0.099976	-1.069906	0.632805
H48	H	-0.062182	-1.136116	0.632797
H49	H	-0.542782	-0.885249	0.583687
C50	C	-0.583372	-0.869516	0.403255
H51	H	-0.563017	-0.877393	0.341750
H52	H	-0.722782	-0.880008	0.418359
H53	H	-0.560648	-0.813789	0.418365
H54	H	-0.626945	-0.392050	0.000062
