data_functionalizedCrystal
_audit_creation_method	'MofGen! by Chris Wilmer'
_symmetry_space_group_name_H-M	'P1'
_symmetry_Int_Tables_number	1
_symmetry_cell_setting	triclinic
loop_
_symmetry_equiv_pos_as_xyz
  x,y,z
_cell_length_a	19.805405
_cell_length_b	21.395362
_cell_length_c	21.395355
_cell_angle_alpha	89.956060
_cell_angle_beta	89.982777
_cell_angle_gamma	90.042604
loop_
_atom_site_label
_atom_site_type_symbol
_atom_site_fract_x
_atom_site_fract_y
_atom_site_fract_z
Zn1	Zn	-0.269255	0.957877	-0.354591
Zn2	Zn	0.230745	1.457877	0.145409
Zn3	Zn	-0.382425	0.957787	-0.249816
Zn4	Zn	0.117575	1.457787	0.250184
Zn5	Zn	-0.269286	0.853092	-0.249793
Zn6	Zn	0.230714	1.353092	0.250207
Zn7	Zn	-0.382438	0.853068	-0.354521
Zn8	Zn	0.117562	1.353068	0.145479
O9	O	-0.325851	0.905456	-0.302180
O10	O	0.174149	1.405456	0.197820
O11	O	-0.284248	1.045543	-0.340732
O12	O	0.215752	1.545543	0.159268
O13	O	-0.367424	0.943871	-0.162135
O14	O	0.132576	1.443871	0.337865
O15	O	-0.174565	0.867039	-0.263714
O16	O	0.325435	1.367039	0.236286
O17	O	-0.367393	1.045476	-0.263754
O18	O	0.132607	1.545476	0.236246
O19	O	-0.174542	0.944024	-0.340709
O20	O	0.325458	1.444024	0.159291
O21	O	-0.284302	0.866952	-0.162118
O22	O	0.215698	1.366952	0.337882
O23	O	-0.284315	0.765411	-0.263646
O24	O	0.215685	1.265411	0.236354
O25	O	-0.367417	0.866999	-0.442208
O26	O	0.132583	1.366999	0.057792
O27	O	-0.367448	0.765393	-0.340589
O28	O	0.132552	1.265393	0.159411
O29	O	-0.284261	0.944002	-0.442260
O30	O	0.215739	1.444002	0.057740
O31	O	-0.477143	0.943848	-0.263686
O32	O	0.022857	1.443848	0.236314
O33	O	-0.477153	0.866912	-0.340612
O34	O	0.022847	1.366912	0.159388
C35	C	-0.325887	0.742668	-0.302107
C36	C	0.174113	1.242668	0.197893
C37	C	-0.325918	0.673027	-0.302091
C38	C	0.174082	1.173027	0.197909
C39	C	-0.369263	0.640321	-0.342096
C40	C	0.130737	1.140321	0.157904
C41	C	-0.369246	0.574886	-0.342124
C42	C	0.130754	1.074886	0.157876
C43	C	-0.325892	0.542159	-0.302136
C44	C	0.174108	1.042159	0.197864
C45	C	-0.282539	0.574872	-0.262129
C46	C	0.217461	1.074872	0.237871
C47	C	-0.282553	0.640306	-0.262106
C48	C	0.217447	1.140306	0.237894
C49	C	-0.320440	0.438434	-0.245731
C50	C	0.179560	0.938434	0.254269
C51	C	-0.320431	0.373001	-0.245752
C52	C	0.179569	0.873001	0.254248
C53	C	-0.325848	0.340338	-0.302205
C54	C	0.174152	0.840338	0.197795
C55	C	-0.331287	0.373116	-0.358639
C56	C	0.168713	0.873116	0.141361
C57	C	-0.331301	0.438550	-0.358616
C58	C	0.168699	0.938550	0.141384
C59	C	-0.325873	0.471206	-0.302156
C60	C	0.174127	0.971206	0.197844
C61	C	-0.369177	0.236680	-0.342243
C62	C	0.130823	0.736680	0.157757
C63	C	-0.369156	0.171243	-0.342272
C64	C	0.130844	0.671243	0.157728
C65	C	-0.282452	0.171231	-0.262272
C66	C	0.217548	0.671231	0.237728
C67	C	-0.282470	0.236666	-0.262248
C68	C	0.217530	0.736666	0.237752
C69	C	-0.325836	0.269387	-0.302233
C70	C	0.174164	0.769387	0.197767
C71	C	-0.501707	0.905384	-0.302157
C72	C	-0.001707	1.405384	0.197843
C73	C	-0.576939	0.905411	-0.302169
C74	C	-0.076939	1.405411	0.197831
C75	C	-0.612213	0.945474	-0.342292
C76	C	-0.112213	1.445474	0.157708
C77	C	-0.682901	0.945496	-0.342303
C78	C	-0.182901	1.445496	0.157697
C79	C	-0.718315	0.905459	-0.302188
C80	C	-0.218315	1.405459	0.197812
C81	C	-0.683036	0.865392	-0.262064
C82	C	-0.183036	1.365392	0.237936
C83	C	-0.612349	0.865367	-0.262056
C84	C	-0.112349	1.365367	0.237944
C85	C	-0.968109	0.865493	-0.262096
C86	C	-0.468109	1.365493	0.237904
C87	C	-1.038801	0.865523	-0.262106
C88	C	-0.538801	1.365523	0.237894
C89	C	-1.038662	0.945622	-0.342343
C90	C	-0.538662	1.445622	0.157657
C91	C	-0.967975	0.945597	-0.342335
C92	C	-0.467975	1.445597	0.157665
C93	C	-0.932702	0.905528	-0.302213
C94	C	-0.432702	1.405528	0.197787
C95	C	-0.856053	0.905503	-0.302202
C96	C	-0.356053	1.405503	0.197798
C97	C	-0.794962	0.905487	-0.302196
C98	C	-0.294962	1.405487	0.197804
C99	C	-0.149308	0.905545	-0.302217
C100	C	0.350692	1.405545	0.197783
C101	C	-0.074076	0.905582	-0.302232
C102	C	0.425924	1.405582	0.197768
C103	C	-0.325837	0.905508	-0.465604
C104	C	0.174163	1.405508	0.034396
C105	C	-0.325831	0.905530	-0.535245
C106	C	0.174169	1.405530	-0.035245
C107	C	-0.325816	1.068879	-0.302253
C108	C	0.174184	1.568879	0.197747
C109	C	-0.325800	1.138520	-0.302285
C110	C	0.174200	1.638520	0.197715
C111	C	-0.282530	0.945623	-0.567986
C112	C	0.217470	1.445623	-0.067986
C113	C	-0.282501	0.945623	-0.633421
C114	C	0.217499	1.445623	-0.133421
C115	C	-0.325785	0.905535	-0.666113
C116	C	0.174215	1.405535	-0.166113
C117	C	-0.369089	0.865434	-0.633364
C118	C	0.130911	1.365434	-0.133364
C119	C	-0.369112	0.865431	-0.567930
C120	C	0.130888	1.365431	-0.067930
C121	C	-0.386731	0.900563	-0.769778
C122	C	0.113269	1.400563	-0.269778
C123	C	-0.386709	0.900570	-0.835211
C124	C	0.113291	1.400570	-0.335211
C125	C	-0.325714	0.905539	-0.867934
C126	C	0.174286	1.405539	-0.367934
C127	C	-0.264738	0.910514	-0.835216
C128	C	0.235262	1.410514	-0.335216
C129	C	-0.264762	0.910512	-0.769782
C130	C	0.235238	1.410512	-0.269782
C131	C	-0.325765	0.905533	-0.737066
C132	C	0.174235	1.405533	-0.237066
C133	C	-0.282378	0.945633	-0.971628
C134	C	0.217622	1.445633	-0.471628
C135	C	-0.282347	0.945628	-1.037064
C136	C	0.217653	1.445628	-0.537064
C137	C	-0.368941	0.865443	-1.037006
C138	C	0.131059	1.365443	-0.537006
C139	C	-0.368966	0.865445	-0.971571
C140	C	0.131034	1.365445	-0.471571
C141	C	-0.325685	0.905543	-0.938885
C142	C	0.174315	1.405543	-0.438885
C143	C	-0.325816	0.905440	-0.139393
C144	C	0.174184	1.405440	0.360607
C145	C	-0.325631	0.905539	-0.069752
C146	C	0.174369	1.405539	0.430248
H147	H	-0.316007	0.346318	-0.199800
H148	H	0.183993	0.846318	0.300200
O149	O	-0.717509	0.826470	-0.223183
O150	O	-0.217509	1.326470	0.276817
C151	C	-0.758421	0.785989	-0.258807
C152	C	-0.258421	1.285989	0.241193
H153	H	-0.768962	0.808067	-0.306319
H154	H	-0.268962	1.308067	0.193681
H155	H	-0.808150	0.777626	-0.233280
H156	H	-0.308150	1.277626	0.266720
H157	H	-0.731234	0.739543	-0.265629
H158	H	-0.231234	1.239543	0.234371
H159	H	-0.404329	0.832792	-0.659986
H160	H	0.095671	1.332792	-0.159986
H161	H	-0.247237	0.978270	-0.660084
H162	H	0.252763	1.478270	-0.160084
H163	H	-0.939395	0.832869	-0.229426
H164	H	-0.439395	1.332869	0.270574
H165	H	-0.404230	0.832800	-0.944913
H166	H	0.095770	1.332800	-0.444913
H167	H	-0.316026	0.465022	-0.199756
H168	H	0.183974	0.965022	0.300244
O169	O	-0.205424	0.915372	-0.866897
O170	O	0.294576	1.415372	-0.366897
C171	C	-0.151614	0.919745	-0.823988
C172	C	0.348386	1.419745	-0.323988
H173	H	-0.171359	0.937895	-0.777360
H174	H	0.328641	1.437895	-0.277360
H175	H	-0.111790	0.953285	-0.842919
H176	H	0.388210	1.453285	-0.342919
H177	H	-0.128179	0.871594	-0.816989
H178	H	0.371821	1.371594	-0.316989
H179	H	-1.067389	0.978246	-0.375015
H180	H	-0.567389	1.478246	0.124985
O181	O	-1.073098	0.826566	-0.223119
O182	O	-0.573098	1.326566	0.276881
C183	C	-1.026809	0.791204	-0.187695
C184	C	-0.526809	1.291204	0.312305
H185	H	-0.976411	0.789002	-0.213348
H186	H	-0.476411	1.289002	0.286652
H187	H	-1.047301	0.741850	-0.180957
H188	H	-0.547301	1.241850	0.319043
H189	H	-1.019285	0.814163	-0.140134
H190	H	-0.519285	1.314163	0.359866
H191	H	-0.404451	0.144615	-0.374852
H192	H	0.095549	0.644615	0.125148
O193	O	-0.240373	0.984603	-1.068943
O194	O	0.259627	1.484603	-0.568943
C195	C	-0.278885	1.025058	-1.106818
C196	C	0.221115	1.525058	-0.606818
H197	H	-0.330180	1.002934	-1.116604
H198	H	0.169820	1.502934	-0.616604
H199	H	-0.251296	1.033464	-1.152837
H200	H	0.248704	1.533464	-0.652837
H201	H	-0.286321	1.071489	-1.081641
H202	H	0.213679	1.571489	-0.581641
H203	H	-0.939143	0.978201	-0.374998
H204	H	-0.439143	1.478201	0.125002
H205	H	-0.583629	0.832743	-0.229385
H206	H	-0.083629	1.332743	0.270615
H207	H	-0.247178	0.263295	-0.229669
H208	H	0.252822	0.763295	0.270331
H209	H	-0.247287	0.978274	-0.541378
H210	H	0.252713	1.478274	-0.041378
O211	O	-0.410972	0.826565	-1.068852
O212	O	0.089028	1.326565	-0.568852
C213	C	-0.401656	0.835153	-1.133627
C214	C	0.098344	1.335153	-0.633627
H215	H	-0.379467	0.883514	-1.142599
H216	H	0.120533	1.383514	-0.642599
H217	H	-0.452349	0.830886	-1.158492
H218	H	0.047651	1.330886	-0.658492
H219	H	-0.365620	0.798003	-1.152171
H220	H	0.134380	1.298003	-0.652171
H221	H	-0.404574	0.666958	-0.374656
H222	H	0.095426	1.166958	0.125344
O223	O	-0.445995	0.895705	-0.866894
O224	O	0.054005	1.395705	-0.366894
C225	C	-0.499836	0.891324	-0.823983
C226	C	0.000164	1.391324	-0.323983
H227	H	-0.480123	0.873175	-0.777326
H228	H	0.019877	1.373175	-0.277326
H229	H	-0.539642	0.857780	-0.842866
H230	H	-0.039642	1.357780	-0.342866
H231	H	-0.523282	0.939473	-0.817058
H232	H	-0.023282	1.439473	-0.317058
O233	O	-0.205569	0.915250	-0.737931
O234	O	0.294431	1.415250	-0.237931
C235	C	-0.196874	0.861904	-0.700056
C236	C	0.303126	1.361904	-0.200056
H237	H	-0.248142	0.839712	-0.690243
H238	H	0.251858	1.339712	-0.190243
H239	H	-0.172219	0.876064	-0.654051
H240	H	0.327781	1.376064	-0.154051
H241	H	-0.163230	0.826802	-0.725248
H242	H	0.336770	1.326802	-0.225248
H243	H	-0.436388	0.896349	-0.743141
H244	H	0.063612	1.396349	-0.243141
O245	O	-0.240267	0.984598	-0.939970
O246	O	0.259733	1.484598	-0.439970
C247	C	-0.202048	1.019993	-0.982903
C248	C	0.297952	1.519993	-0.482903
H249	H	-0.199692	0.994331	-1.029527
H250	H	0.300308	1.494331	-0.529527
H251	H	-0.148725	1.026701	-0.963999
H252	H	0.351275	1.526701	-0.463999
H253	H	-0.226819	1.067567	-0.989900
H254	H	0.273181	1.567567	-0.489900
O255	O	-0.717271	0.984356	-0.381257
O256	O	-0.217271	1.484356	0.118743
C257	C	-0.787255	0.975804	-0.372655
C258	C	-0.287255	1.475804	0.127345
H259	H	-0.796978	0.927463	-0.352079
H260	H	-0.296978	1.427463	0.147921
H261	H	-0.814091	0.980043	-0.419596
H262	H	-0.314091	1.480043	0.080404
H263	H	-0.807286	1.012989	-0.339337
H264	H	-0.307286	1.512989	0.160663
H265	H	-0.404542	0.548252	-0.374702
H266	H	0.095458	1.048252	0.125298
O267	O	-0.240460	0.543154	-0.223195
O268	O	0.259540	1.043154	0.276805
C269	C	-0.255167	0.559054	-0.160719
C270	C	0.244833	1.059054	0.339281
H271	H	-0.281193	0.606540	-0.159365
H272	H	0.218807	1.106540	0.340635
H273	H	-0.206274	0.561305	-0.132704
H274	H	0.293726	1.061305	0.367296
H275	H	-0.289925	0.522175	-0.139569
H276	H	0.210075	1.022175	0.360431
O277	O	-0.411246	0.826467	-0.536219
O278	O	0.088754	1.326467	-0.036219
C279	C	-0.449431	0.791070	-0.579101
C280	C	0.050569	1.291070	-0.079101
H281	H	-0.451749	0.816730	-0.625767
H282	H	0.048251	1.316730	-0.125767
H283	H	-0.502769	0.784362	-0.560193
H284	H	-0.002769	1.284362	-0.060193
H285	H	-0.424655	0.743496	-0.586020
H286	H	0.075345	1.243496	-0.086020
O287	O	-0.240543	0.672149	-0.223210
O288	O	0.259457	1.172149	0.276790
C289	C	-0.279026	0.709905	-0.182655
C290	C	0.220974	1.209905	0.317345
H291	H	-0.330358	0.719685	-0.204665
H292	H	0.169642	1.219685	0.295335
H293	H	-0.251456	0.755935	-0.174286
H294	H	0.248544	1.255935	0.325714
H295	H	-0.286382	0.684628	-0.136220
H296	H	0.213618	1.184628	0.363780
H297	H	-0.335697	0.346524	-0.404609
H298	H	0.164303	0.846524	0.095391
O299	O	-0.336553	0.470295	-0.413490
O300	O	0.163447	0.970295	0.086510
C301	C	-0.341349	0.427441	-0.463324
C302	C	0.158651	0.927441	0.036676
H303	H	-0.318575	0.380798	-0.448547
H304	H	0.181425	0.880798	0.051453
H305	H	-0.312670	0.446421	-0.505475
H306	H	0.187330	0.946421	-0.005475
H307	H	-0.396680	0.420452	-0.476249
H308	H	0.103320	0.920452	0.023751
H309	H	-0.404485	0.263322	-0.374805
H310	H	0.095515	0.763322	0.125195
H311	H	-0.247150	0.144585	-0.229716
H312	H	0.252850	0.644585	0.270284
O313	O	-0.577920	0.984385	-0.381320
O314	O	-0.077920	1.484385	0.118680
C315	C	-0.624216	1.019759	-0.416727
C316	C	-0.124216	1.519759	0.083273
H317	H	-0.674634	0.994112	-0.418866
H318	H	-0.174634	1.494112	0.081134
H319	H	-0.603763	1.026407	-0.466099
H320	H	-0.103763	1.526407	0.033901
H321	H	-0.631685	1.067360	-0.393846
H322	H	-0.131685	1.567360	0.106154
