data_functionalizedCrystal
_audit_creation_method	'MofGen! by Chris Wilmer'
_symmetry_space_group_name_H-M	'P1'
_symmetry_Int_Tables_number	1
_symmetry_cell_setting	triclinic
loop_
_symmetry_equiv_pos_as_xyz
  x,y,z
_cell_length_a	12.759401
_cell_length_b	16.120484
_cell_length_c	12.759393
_cell_angle_alpha	92.862621
_cell_angle_beta	89.982549
_cell_angle_gamma	92.924448
loop_
_atom_site_label
_atom_site_type_symbol
_atom_site_fract_x
_atom_site_fract_y
_atom_site_fract_z
Zn1	Zn	1.584958	-0.331876	-0.615149
Zn2	Zn	1.575913	-0.471314	-0.448362
Zn3	Zn	1.409261	-0.331917	-0.439491
Zn4	Zn	1.400310	-0.471246	-0.623999
O5	O	1.492611	-0.401588	-0.531750
O6	O	1.730779	-0.350383	-0.593033
O7	O	1.553767	-0.452868	-0.300167
O8	O	1.440099	-0.215247	-0.455376
O9	O	1.724133	-0.452828	-0.470496
O10	O	1.569183	-0.215216	-0.584431
O11	O	1.431328	-0.350454	-0.293649
O12	O	1.261053	-0.350389	-0.463957
O13	O	1.424844	-0.452713	-0.769843
O14	O	1.254477	-0.452753	-0.599515
O15	O	1.560504	-0.350318	-0.763341
O16	O	1.545087	-0.587970	-0.479077
O17	O	1.416073	-0.587920	-0.608117
C18	C	1.219645	-0.401569	-0.531734
C19	C	1.102867	-0.401580	-0.531754
C20	C	1.051452	-0.348338	-0.595670
C21	C	0.941727	-0.348354	-0.595677
C22	C	0.934841	-0.454862	-0.467851
C23	C	1.044565	-0.454841	-0.467838
C24	C	1.055426	-0.286849	-0.669473
C25	C	0.945701	-0.286865	-0.669481
C26	C	1.478656	-0.618195	-0.545543
C27	C	1.472782	-0.710860	-0.551478
C28	C	1.462064	-0.880521	-0.562337
C29	C	1.523346	-0.921815	-0.501181
C30	C	1.517382	-1.016220	-0.507223
C31	C	1.468026	-0.786108	-0.556296
C32	C	1.766643	-0.401609	-0.531767
C33	C	1.883419	-0.401617	-0.531774
C34	C	1.492684	-0.401503	-0.805778
C35	C	1.492716	-0.401467	-0.922553
C36	C	1.506649	-0.184136	-0.517927
C37	C	1.512631	-0.091470	-0.512036
C38	C	1.428991	-0.348130	-0.974026
C39	C	1.429024	-0.348106	-1.083749
C40	C	1.556516	-0.454757	-1.090515
C41	C	1.556476	-0.454785	-0.980794
C42	C	1.355388	-0.286553	-0.970121
C43	C	1.355422	-0.286529	-1.079844
C44	C	1.492602	-0.401613	-0.258784
C45	C	1.492789	-0.401414	-0.141996
H46	H	1.089337	-0.222254	-0.643700
H47	H	1.608428	-0.498166	-1.137948
H48	H	1.272890	-0.303843	-0.941446
H49	H	1.405124	-0.916066	-0.619226
O50	O	0.908939	-0.307392	-0.767904
C51	C	0.949627	-0.248833	-0.837720
H52	H	1.025093	-0.217382	-0.803848
H53	H	0.889695	-0.199987	-0.849288
C54	C	0.880400	-0.331960	-0.985714
C55	C	0.973094	-0.293337	-0.944116
H56	H	0.894872	-0.359410	-1.051346
H57	H	0.852984	-0.371412	-0.938678
H58	H	0.830466	-0.291248	-0.995345
H59	H	1.023022	-0.334050	-0.934473
H60	H	1.000519	-0.253893	-0.991153
H61	H	1.388485	-0.225231	-0.932194
O62	O	1.591422	-0.879450	-0.433413
C63	C	1.694817	-0.900575	-0.457760
H64	H	1.698604	-0.924518	-0.543198
H65	H	1.719182	-0.951058	-0.404621
C66	C	1.765079	-0.793707	-0.335787
C67	C	1.769732	-0.823107	-0.440726
H68	H	1.811292	-0.745923	-0.325276
H69	H	1.695420	-0.779476	-0.319380
H70	H	1.785381	-0.835783	-0.291516
H71	H	1.749418	-0.781035	-0.484994
H72	H	1.839389	-0.837329	-0.457140
O73	O	1.386235	-0.209473	-1.110540
C74	C	1.305559	-0.177745	-1.169908
H75	H	1.227230	-0.210045	-1.149294
H76	H	1.321971	-0.189516	-1.257076
C77	C	1.397274	-0.043883	-1.170173
C78	C	1.301069	-0.083549	-1.144848
H79	H	1.394507	0.014222	-1.154720
H80	H	1.451630	-0.065259	-1.130180
H81	H	1.410941	-0.053701	-1.242812
H82	H	1.287410	-0.073739	-1.072208
H83	H	1.246711	-0.062169	-1.184829
H84	H	1.276642	-0.309640	-1.115343
O85	O	1.618471	-0.506626	-0.930956
C86	C	1.674735	-0.553690	-1.005894
H87	H	1.680608	-0.519523	-1.081939
H88	H	1.632171	-0.616999	-1.021583
C89	C	1.778547	-0.607699	-0.870434
C90	C	1.785768	-0.565730	-0.963831
H91	H	1.847035	-0.615130	-0.844488
H92	H	1.740638	-0.575994	-0.819947
H93	H	1.743072	-0.660452	-0.883521
H94	H	1.821230	-0.512975	-0.950741
H95	H	1.823685	-0.597427	-1.014316
H96	H	0.887358	-0.498225	-0.415813
H97	H	1.088003	-0.310046	-0.748190
O98	O	1.094453	-0.506674	-0.405861
C99	C	1.062300	-0.589794	-0.433913
H100	H	1.031899	-0.594097	-0.518114
H101	H	0.997190	-0.611538	-0.378930
C102	C	1.193533	-0.640119	-0.321669
C103	C	1.156203	-0.645405	-0.425090
H104	H	1.251455	-0.674424	-0.316223
H105	H	1.215194	-0.584120	-0.302767
H106	H	1.139266	-0.658237	-0.275862
H107	H	1.210466	-0.627276	-0.470893
H108	H	1.134554	-0.701402	-0.444000
O109	O	0.909863	-0.213584	-0.630391
C110	C	0.948345	-0.148482	-0.691901
H111	H	0.969207	-0.174798	-0.773405
H112	H	1.021353	-0.116819	-0.653119
C113	C	0.837957	-0.052269	-0.601280
C114	C	0.863571	-0.084590	-0.701387
H115	H	0.785667	-0.012855	-0.607128
H116	H	0.812033	-0.096129	-0.559836
H117	H	0.898804	-0.025889	-0.568972
H118	H	0.802728	-0.110978	-0.733688
H119	H	0.889483	-0.040733	-0.742837
