data_functionalizedCrystal
_audit_creation_method	'MofGen! by Chris Wilmer'
_symmetry_space_group_name_H-M	'P1'
_symmetry_Int_Tables_number	1
_symmetry_cell_setting	triclinic
loop_
_symmetry_equiv_pos_as_xyz
  x,y,z
_cell_length_a	10.654550
_cell_length_b	19.288865
_cell_length_c	9.730223
_cell_angle_alpha	89.990377
_cell_angle_beta	89.999957
_cell_angle_gamma	83.810589
loop_
_atom_site_label
_atom_site_type_symbol
_atom_site_fract_x
_atom_site_fract_y
_atom_site_fract_z
O1	O	1.665751	0.097555	-0.114205
O2	O	1.300073	0.106849	-0.114232
O3	O	1.493478	0.001141	-0.114191
O4	O	1.472346	0.203263	-0.114247
O5	O	1.493466	0.001138	0.114389
O6	O	1.300061	0.106846	0.114348
O7	O	1.665738	0.097552	0.114375
Zn8	Zn	1.482898	0.102198	0.150653
Zn9	Zn	1.482914	0.102202	-0.150511
O10	O	1.472333	0.203260	0.114333
C11	C	1.253284	0.106165	0.000055
C12	C	1.113884	0.104123	0.000046
C13	C	1.033066	0.166363	0.000033
C14	C	0.902087	0.164440	0.000057
C15	C	0.932756	0.038033	0.000102
C16	C	1.063733	0.039956	0.000088
C17	C	1.492792	-0.024742	0.000103
C18	C	1.490751	-0.101859	0.000115
C19	C	1.604232	-0.145812	0.000131
C20	C	1.602315	-0.218272	0.000109
C21	C	1.486909	-0.246775	0.000099
C22	C	1.373413	-0.202812	0.000076
C23	C	1.375334	-0.130354	0.000085
C24	C	1.396183	-0.355657	0.080159
C25	C	1.394267	-0.428114	0.080160
C26	C	1.480980	-0.470259	0.000068
C27	C	1.569631	-0.439940	-0.080006
C28	C	1.571552	-0.367482	-0.079998
C29	C	1.484814	-0.325343	0.000090
C30	C	1.592390	-0.592782	0.000057
C31	C	1.590467	-0.665243	0.000027
C32	C	1.361562	-0.649781	0.000009
C33	C	1.363488	-0.577322	0.000025
C34	C	1.478905	-0.548827	0.000056
C35	C	1.712528	0.098236	0.000085
C36	C	1.851928	0.100277	0.000085
C37	C	1.473020	0.229142	0.000036
C38	C	1.475061	0.306259	0.000015
N39	N	1.482896	0.102195	0.356190
N40	N	1.482926	0.102200	-0.356047
C41	C	1.568564	0.055408	0.428134
C42	C	1.568577	0.055408	0.572017
C43	C	1.397248	0.148990	0.571999
C44	C	1.397231	0.148986	0.428118
H45	H	0.891906	-0.014209	0.000145
N46	N	1.150901	-0.027181	0.000099
H47	H	1.205923	-0.029200	-0.084638
H48	H	1.205849	-0.029159	0.084887
N49	N	1.304857	0.199454	0.649579
H50	H	1.317867	0.192360	0.751644
H51	H	1.319072	0.248803	0.624402
N52	N	1.087157	0.235569	0.000013
H53	H	1.182394	0.227345	0.000003
H54	H	1.057557	0.262834	-0.084728
H55	H	0.836289	0.215122	0.000049
H56	H	1.638334	0.017308	0.630590
H57	H	1.271079	-0.541534	0.000021
N58	N	1.304817	0.199446	0.350509
H59	H	1.250555	0.229090	0.417905
H60	H	1.352699	0.230399	0.290783
H61	H	1.698214	-0.122616	0.000151
H62	H	1.640240	-0.474253	-0.145225
N63	N	1.724716	-0.265691	0.000122
H64	H	1.798122	-0.236644	0.000140
H65	H	1.728888	-0.296098	0.084859
H66	H	1.279449	-0.226024	0.000066
N67	N	1.667156	-0.334778	-0.166358
H68	H	1.721802	-0.372466	-0.217100
H69	H	1.621742	-0.301586	-0.234757
H70	H	1.686369	-0.569580	0.000076
H71	H	1.682881	-0.701029	0.000032
H72	H	1.267597	-0.672988	-0.000006
N73	N	1.298661	-0.460806	0.166538
H74	H	1.210642	-0.442227	0.136626
H75	H	1.310711	-0.513098	0.154364
N76	N	1.302644	-0.310203	0.166540
H77	H	1.246202	-0.340404	0.217272
H78	H	1.349646	-0.283267	0.234949
N79	N	1.252938	-0.082936	0.000078
H80	H	1.202570	-0.092153	-0.084663
H81	H	1.202662	-0.092198	0.084863
N82	N	1.660953	0.004943	0.350551
H83	H	1.715224	-0.024697	0.417966
H84	H	1.613051	-0.026013	0.290874
