data_functionalizedCrystal
_audit_creation_method	'MofGen! by Chris Wilmer'
_symmetry_space_group_name_H-M	'P1'
_symmetry_Int_Tables_number	1
_symmetry_cell_setting	triclinic
loop_
_symmetry_equiv_pos_as_xyz
  x,y,z
_cell_length_a	10.654545
_cell_length_b	14.519709
_cell_length_c	9.130313
_cell_angle_alpha	89.996053
_cell_angle_beta	89.996722
_cell_angle_gamma	84.081612
loop_
_atom_site_label
_atom_site_type_symbol
_atom_site_fract_x
_atom_site_fract_y
_atom_site_fract_z
O1	O	1.666598	0.129510	-0.121788
O2	O	1.301000	0.141856	-0.121795
O3	O	1.493492	0.001495	-0.121778
O4	O	1.474106	0.269871	-0.121805
O5	O	1.493478	0.001495	0.121821
O6	O	1.300986	0.141856	0.121804
O7	O	1.666584	0.129510	0.121811
Cu8	Cu	1.483783	0.135683	0.144050
Cu9	Cu	1.483801	0.135683	-0.144034
O10	O	1.474091	0.269871	0.121794
C11	C	1.254204	0.140950	0.000004
C12	C	1.114786	0.138241	0.000002
C13	C	1.492582	-0.032870	0.000022
C14	C	1.489874	-0.135265	0.000022
C15	C	1.049286	0.136965	0.132789
C16	C	0.918291	0.134404	0.132789
C17	C	0.918308	0.134398	-0.132796
C18	C	1.049301	0.136952	-0.132795
C19	C	1.479907	-0.510212	-0.000016
C20	C	1.482675	-0.405890	-0.000005
C21	C	1.484890	-0.322742	0.000005
C22	C	1.487659	-0.218413	0.000013
C23	C	1.713380	0.130416	0.000009
C24	C	1.852798	0.133125	0.000001
C25	C	1.475002	0.304236	-0.000009
C26	C	1.477710	0.406631	-0.000019
N27	N	1.483780	0.135683	0.346673
N28	N	1.483813	0.135676	-0.346657
C29	C	1.560069	0.192137	0.423315
C30	C	1.560089	0.192132	0.576651
C31	C	1.407522	0.079215	0.576691
C32	C	1.407509	0.079216	0.423357
H33	H	1.102600	0.138014	0.240920
O34	O	0.854804	0.133286	-0.261879
C35	C	0.872744	0.213653	-0.342649
H36	H	0.963172	0.242083	-0.304895
H37	H	0.880387	0.195812	-0.464128
H38	H	0.789183	0.268049	-0.324239
O39	O	1.333280	0.024348	0.349124
C40	C	1.265979	-0.025502	0.449683
H41	H	1.258734	0.012624	0.558984
H42	H	1.167218	-0.031899	0.405391
H43	H	1.317561	-0.097540	0.465989
H44	H	1.622213	0.238102	0.639047
H45	H	1.345423	0.033243	0.639145
O46	O	0.854827	0.133047	0.261874
C47	C	0.900873	0.053933	0.342654
H48	H	1.000669	0.029208	0.304894
H49	H	0.902193	0.071956	0.464129
H50	H	0.836993	-0.003339	0.324261
H51	H	1.102633	0.137989	-0.240932
O52	O	1.634280	0.247006	0.349049
C53	C	1.701595	0.296849	0.449585
H54	H	1.708849	0.258718	0.558888
H55	H	1.800352	0.303244	0.405265
H56	H	1.650020	0.368888	0.465896
