data_functionalizedCrystal
_audit_creation_method	'MofGen! by Chris Wilmer'
_symmetry_space_group_name_H-M	'P1'
_symmetry_Int_Tables_number	1
_symmetry_cell_setting	triclinic
loop_
_symmetry_equiv_pos_as_xyz
  x,y,z
_cell_length_a	21.395362
_cell_length_b	18.215405
_cell_length_c	21.395364
_cell_angle_alpha	90.009394
_cell_angle_beta	90.027061
_cell_angle_gamma	90.037900
loop_
_atom_site_label
_atom_site_type_symbol
_atom_site_fract_x
_atom_site_fract_y
_atom_site_fract_z
Zn1	Zn	0.957793	-0.292804	0.354597
Zn2	Zn	1.457793	0.207196	0.854597
Zn3	Zn	0.957742	-0.415839	0.249825
Zn4	Zn	1.457742	0.084161	0.749825
Zn5	Zn	0.853039	-0.292825	0.249799
Zn6	Zn	1.353039	0.207175	0.749799
Zn7	Zn	0.852993	-0.415867	0.354530
Zn8	Zn	1.352993	0.084133	0.854530
O9	O	0.905392	-0.354334	0.302188
O10	O	1.405392	0.145666	0.802188
O11	O	1.045464	-0.309104	0.340738
O12	O	1.545464	0.190896	0.840738
O13	O	0.943851	-0.399517	0.162144
O14	O	1.443851	0.100483	0.662144
O15	O	0.866975	-0.189838	0.263718
O16	O	1.366975	0.310162	0.763718
O17	O	1.045427	-0.399497	0.263763
O18	O	1.545427	0.100503	0.763763
O19	O	0.943937	-0.189822	0.340713
O20	O	1.443937	0.310178	0.840713
O21	O	0.866926	-0.309139	0.162124
O22	O	1.366926	0.190861	0.662124
O23	O	0.765355	-0.309167	0.263652
O24	O	1.265355	0.190833	0.763652
O25	O	0.866897	-0.399546	0.442216
O26	O	1.366897	0.100454	0.942216
O27	O	0.765321	-0.399566	0.340597
O28	O	1.265321	0.100434	0.840597
O29	O	0.943893	-0.309132	0.442266
O30	O	1.443893	0.190868	0.942266
O31	O	0.943806	-0.518827	0.263697
O32	O	1.443806	-0.018827	0.763697
O33	O	0.866848	-0.518848	0.340623
O34	O	1.366848	-0.018848	0.840623
C35	C	0.742604	-0.354373	0.302115
C36	C	1.242604	0.145627	0.802115
C37	C	0.672963	-0.354407	0.302099
C38	C	1.172963	0.145593	0.802099
C39	C	0.905334	-0.545540	0.302169
C40	C	1.405334	-0.045540	0.802169
C41	C	0.905366	-0.627339	0.302182
C42	C	1.405366	-0.127339	0.802182
C43	C	0.640248	-0.401540	0.342104
C44	C	1.140248	0.098460	0.842104
C45	C	0.574813	-0.401522	0.342132
C46	C	1.074813	0.098478	0.842132
C47	C	0.542094	-0.354379	0.302143
C48	C	1.042094	0.145621	0.802143
C49	C	0.574816	-0.307236	0.262135
C50	C	1.074816	0.192764	0.762135
C51	C	0.640251	-0.307250	0.262113
C52	C	1.140251	0.192750	0.762113
C53	C	0.438385	-0.348443	0.245738
C54	C	0.938385	0.151557	0.745738
C55	C	0.372953	-0.348434	0.245759
C56	C	0.872953	0.151566	0.745759
C57	C	0.340274	-0.354331	0.302213
C58	C	0.840274	0.145669	0.802213
C59	C	0.373036	-0.360252	0.358646
C60	C	0.873036	0.139748	0.858646
C61	C	0.438470	-0.360266	0.358624
C62	C	0.938470	0.139734	0.858624
C63	C	0.471142	-0.354358	0.302163
C64	C	0.971142	0.145642	0.802163
C65	C	0.236607	-0.401447	0.342252
C66	C	0.736607	0.098553	0.842252
C67	C	0.171170	-0.401424	0.342281
C68	C	0.671170	0.098576	0.842281
C69	C	0.171175	-0.307142	0.262278
C70	C	0.671175	0.192858	0.762278
C71	C	0.236610	-0.307161	0.262255
C72	C	0.736610	0.192839	0.762255
C73	C	0.269322	-0.354317	0.302241
C74	C	0.769322	0.145683	0.802241
C75	C	0.945478	-0.892331	0.342335
C76	C	1.445478	-0.392331	0.842335
C77	C	0.945457	-0.815472	0.342325
C78	C	1.445457	-0.315472	0.842325
C79	C	0.865386	-0.815595	0.262077
C80	C	1.365386	-0.315595	0.762077
C81	C	0.865410	-0.892453	0.262084
C82	C	1.365410	-0.392453	0.762084
C83	C	0.905455	-0.930818	0.302216
C84	C	1.405455	-0.430818	0.802216
C85	C	0.905410	-0.777102	0.302200
C86	C	1.405410	-0.277102	0.802200
C87	C	0.905387	-0.693769	0.302189
C88	C	1.405387	-0.193769	0.802189
C89	C	0.905479	-1.014157	0.302226
C90	C	1.405479	-0.514157	0.802226
C91	C	1.068815	-0.354295	0.302261
C92	C	1.568815	0.145705	0.802261
C93	C	1.138456	-0.354279	0.302292
C94	C	1.638456	0.145721	0.802292
C95	C	0.905395	-0.354340	0.465611
C96	C	1.405395	0.145660	0.965611
C97	C	0.905397	-0.354343	0.535252
C98	C	1.405397	0.145657	1.035252
C99	C	0.905467	-0.162381	0.302220
C100	C	1.405467	0.337619	0.802220
C101	C	0.905499	-0.080582	0.302234
C102	C	1.405499	0.419418	0.802234
C103	C	0.945446	-0.401387	1.037059
C104	C	1.445446	0.098613	1.537059
C105	C	0.945445	-0.401392	0.971623
C106	C	1.445445	0.098608	1.471623
C107	C	0.905395	-0.354338	0.938890
C108	C	1.405395	0.145662	1.438890
C109	C	0.865333	-0.307288	0.971598
C110	C	1.365333	0.192712	1.471598
C111	C	0.865331	-0.307289	1.037032
C112	C	1.365331	0.192711	1.537032
C113	C	0.900477	-0.288033	0.835231
C114	C	1.400477	0.211967	1.335231
C115	C	0.900483	-0.288030	0.769798
C116	C	1.400483	0.211970	1.269798
C117	C	0.905398	-0.354334	0.737070
C118	C	1.405398	0.145666	1.237070
C119	C	0.910319	-0.420643	0.769782
C120	C	1.410319	0.079357	1.269782
C121	C	0.910317	-0.420644	0.835217
C122	C	1.410317	0.079356	1.335217
C123	C	0.905393	-0.354332	0.867938
C124	C	1.405393	0.145668	1.367938
C125	C	0.945453	-0.401391	0.633417
C126	C	1.445453	0.098609	1.133417
C127	C	0.945448	-0.401397	0.567981
C128	C	1.445448	0.098603	1.067981
C129	C	0.865339	-0.307286	0.567957
C130	C	1.365339	0.192714	1.067957
C131	C	0.865342	-0.307286	0.633392
C132	C	1.365342	0.192714	1.133392
C133	C	0.905402	-0.354337	0.666118
C134	C	1.405402	0.145663	1.166118
C135	C	0.905386	-0.354344	1.139400
C136	C	1.405386	0.145656	1.639400
C137	C	0.905391	-0.354340	1.069759
C138	C	1.405391	0.145660	1.569759
H139	H	0.666879	-0.439938	0.374665
H140	H	1.166879	0.060062	0.874665
N141	N	0.539518	-0.452359	0.385283
N142	N	1.039518	0.047641	0.885283
H143	H	0.570170	-0.482233	0.410611
H144	H	1.070170	0.017767	0.910611
H145	H	0.512324	-0.486359	0.359733
H146	H	1.012324	0.013641	0.859733
H147	H	0.263247	-0.268784	0.229675
H148	H	0.763247	0.231216	0.729675
H149	H	0.666886	-0.268867	0.229535
H150	H	1.166886	0.231133	0.729535
H151	H	0.978047	-0.784138	0.374992
H152	H	1.478047	-0.284138	0.874992
H153	H	0.832781	-0.784350	0.229403
H154	H	1.332781	-0.284350	0.729403
H155	H	0.832818	-0.923790	0.229411
H156	H	1.332818	-0.423790	0.729411
H157	H	0.978065	-0.439702	1.063701
H158	H	1.478065	0.060298	1.563701
N159	N	0.822144	-0.256528	0.936296
N160	N	1.322144	0.243472	1.436296
H161	H	0.796769	-0.226722	0.966943
H162	H	1.296769	0.273278	1.466943
H163	H	0.793139	-0.286489	0.909124
H164	H	1.293139	0.213511	1.409124
N165	N	0.988648	-0.452139	0.936346
N166	N	1.488648	0.047861	1.436346
H167	H	1.014023	-0.481945	0.967010
H168	H	1.514023	0.018055	1.467010
H169	H	1.017653	-0.422169	0.909217
H170	H	1.517653	0.077831	1.409217
H171	H	0.914322	-0.474635	0.861849
H172	H	1.414322	0.025365	1.361849
H173	H	0.914322	-0.474634	0.743137
H174	H	1.414322	0.025366	1.243137
N175	N	0.473807	-0.366651	0.419486
N176	N	0.973807	0.133349	0.919486
H177	H	0.443181	-0.370386	0.455255
H178	H	0.943181	0.129614	0.955255
H179	H	0.500993	-0.321828	0.425359
H180	H	1.000993	0.178172	0.925359
H181	H	0.346430	-0.365053	0.404616
H182	H	0.846430	0.134947	0.904616
N183	N	0.988656	-0.452137	0.668721
N184	N	1.488656	0.047863	1.168721
H185	H	1.014028	-0.481947	0.638073
H186	H	1.514028	0.018053	1.138073
H187	H	0.963140	-0.486200	0.695855
H188	H	1.463140	0.013800	1.195855
N189	N	0.988647	-0.452148	0.532708
N190	N	1.488647	0.047852	1.032708
H191	H	1.014023	-0.481952	0.563371
H192	H	1.514023	0.018048	1.063371
H193	H	1.017650	-0.422182	0.505575
H194	H	1.517650	0.077818	1.005575
N195	N	0.271895	-0.452302	0.385378
N196	N	0.771895	0.047698	0.885378
H197	H	0.241239	-0.482155	0.410730
H198	H	0.741239	0.017845	0.910730
H199	H	0.299092	-0.422407	0.414407
H200	H	0.799092	0.077593	0.914407
H201	H	0.832729	-0.268975	0.541306
H202	H	1.332729	0.231025	1.041306
N203	N	0.135882	-0.452265	0.385429
N204	N	0.635882	0.047735	0.885429
H205	H	0.166537	-0.482142	0.410752
H206	H	0.666537	0.017858	0.910752
H207	H	0.108689	-0.486262	0.359876
H208	H	0.608689	0.013738	0.859876
N209	N	0.822127	-0.256545	1.072306
N210	N	1.322127	0.243455	1.572306
H211	H	0.796753	-0.226737	1.041644
H212	H	1.296753	0.273263	1.541644
H213	H	0.847643	-0.222480	1.099472
H214	H	1.347643	0.277520	1.599472
N215	N	0.473629	-0.342078	0.184845
N216	N	0.973629	0.157922	0.684845
H217	H	0.442948	-0.338332	0.149100
H218	H	0.942948	0.161668	0.649100
H219	H	0.500741	-0.386914	0.178953
H220	H	1.000741	0.113086	0.678953
H221	H	0.832727	-0.268973	0.660017
H222	H	1.332727	0.231027	1.160017
N223	N	0.895190	-0.216515	0.734517
N224	N	1.395190	0.283485	1.234517
H225	H	0.892072	-0.174513	0.765178
H226	H	1.392072	0.325487	1.265178
H227	H	0.856589	-0.217580	0.707343
H228	H	1.356589	0.282420	1.207343
H229	H	0.896516	-0.234032	0.861873
H230	H	1.396516	0.265968	1.361873
N231	N	0.988668	-0.933703	0.385624
N232	N	1.488668	-0.433703	0.885624
H233	H	1.033439	-0.920277	0.375953
H234	H	1.533439	-0.420277	0.875953
H235	H	0.982560	-0.988221	0.379529
H236	H	1.482560	-0.488221	0.879529
N237	N	0.135895	-0.256287	0.219151
N238	N	0.635895	0.243713	0.719151
H239	H	0.089478	-0.263428	0.225236
H240	H	0.589478	0.236572	0.725236
H241	H	0.147287	-0.267659	0.174382
H242	H	0.647287	0.232341	0.674382
N243	N	0.337619	-0.342053	0.184895
N244	N	0.837619	0.157947	0.684895
H245	H	0.368248	-0.338310	0.149129
H246	H	0.868248	0.161690	0.649129
H247	H	0.310502	-0.296705	0.185876
H248	H	0.810502	0.203295	0.685876
H249	H	0.548173	-0.268850	0.229577
H250	H	1.048173	0.231150	0.729577
