data_functionalizedCrystal
_audit_creation_method	'MofGen! by Chris Wilmer'
_symmetry_space_group_name_H-M	'P1'
_symmetry_Int_Tables_number	1
_symmetry_cell_setting	triclinic
loop_
_symmetry_equiv_pos_as_xyz
  x,y,z
_cell_length_a	19.077105
_cell_length_b	25.639239
_cell_length_c	19.077174
_cell_angle_alpha	92.270789
_cell_angle_beta	85.483752
_cell_angle_gamma	87.734929
loop_
_atom_site_label
_atom_site_type_symbol
_atom_site_fract_x
_atom_site_fract_y
_atom_site_fract_z
Zn1	Zn	1.093621	-0.254037	-0.441824
Zn2	Zn	1.088778	-0.337809	-0.323930
Zn3	Zn	0.971008	-0.246728	-0.319222
Zn4	Zn	0.975672	-0.337775	-0.437048
O5	O	1.032270	-0.294087	-0.380506
O6	O	1.191628	-0.268222	-0.430154
O7	O	1.069177	-0.322682	-0.224656
O8	O	0.987348	-0.174535	-0.335514
O9	O	1.188069	-0.329769	-0.343538
O10	O	1.077431	-0.179905	-0.425589
O11	O	0.982652	-0.255766	-0.221197
O12	O	0.872978	-0.255733	-0.330883
O13	O	0.995296	-0.329711	-0.536331
O14	O	0.876404	-0.322624	-0.417449
O15	O	1.081953	-0.268189	-0.539840
O16	O	1.073699	-0.410966	-0.338907
O17	O	0.990600	-0.410941	-0.422014
C18	C	0.849112	-0.288382	-0.373137
C19	C	0.770758	-0.285954	-0.370001
C20	C	0.735746	-0.319689	-0.413528
C21	C	0.662123	-0.317401	-0.410585
C22	C	0.623514	-0.281381	-0.364112
C23	C	0.658531	-0.247643	-0.320584
C24	C	0.732152	-0.249928	-0.323531
C25	C	0.403136	-0.270803	-0.350476
C26	C	0.329510	-0.268521	-0.347530
C27	C	0.333107	-0.338279	-0.437533
C28	C	0.406730	-0.340563	-0.440473
C29	C	0.441741	-0.306824	-0.396948
N30	N	0.548259	-0.279043	-0.361101
N31	N	0.516994	-0.309160	-0.399962
C32	C	1.032150	-0.429925	-0.380469
C33	C	1.032164	-0.488040	-0.380479
C34	C	1.075660	-0.848413	-0.337314
C35	C	1.075688	-0.903019	-0.337324
O36	O	1.112545	-0.931259	-0.300583
N37	N	1.032395	-0.930331	-0.380558
C38	C	0.989078	-0.903036	-0.423789
O39	O	0.952258	-0.931282	-0.460564
C40	C	0.989055	-0.848432	-0.423781
C41	C	1.032344	-0.821122	-0.380540
C42	C	1.118947	-0.821103	-0.294076
C43	C	1.118918	-0.766501	-0.294065
C44	C	1.075602	-0.739210	-0.337291
C45	C	1.032315	-0.766520	-0.380529
C46	C	0.945742	-0.821138	-0.467016
C47	C	0.945722	-0.766530	-0.467005
C48	C	0.989012	-0.739220	-0.423764
C49	C	0.988971	-0.684627	-0.423743
N50	N	1.032263	-0.657314	-0.380510
C51	C	1.075579	-0.684606	-0.337284
C52	C	0.989132	-1.017709	-0.423802
C53	C	0.989151	-1.072312	-0.423806
C54	C	1.075762	-1.072291	-0.337342
C55	C	1.075738	-1.017686	-0.337335
C56	C	1.032424	-0.990396	-0.380568
C57	C	1.075514	-0.569938	-0.337263
C58	C	1.075480	-0.515331	-0.337253
C59	C	0.988872	-0.515357	-0.423719
C60	C	0.988904	-0.569959	-0.423727
C61	C	1.032231	-0.597248	-0.380496
O62	O	0.952135	-0.656351	-0.460468
O63	O	1.112400	-0.656354	-0.300522
C64	C	1.216142	-0.299815	-0.387904
C65	C	1.294498	-0.302256	-0.391057
C66	C	1.032410	-0.157720	-0.380559
C67	C	1.032470	-0.099608	-0.380582
C68	C	1.039685	-0.299761	-0.564379
C69	C	1.042845	-0.302179	-0.642735
C70	C	0.999283	-0.268476	-0.677746
C71	C	1.002250	-0.270753	-0.751369
C72	C	1.048782	-0.306730	-0.789981
C73	C	1.092346	-0.340437	-0.754966
C74	C	1.089376	-0.338163	-0.681343
C75	C	1.062494	-0.317270	-1.010362
C76	C	1.065462	-0.319540	-1.083989
C77	C	0.975364	-0.249857	-1.080388
C78	C	0.972401	-0.247584	-1.006764
C79	C	1.015962	-0.281292	-0.971755
N80	N	1.051817	-0.309056	-0.865236
N81	N	1.012923	-0.278968	-0.896501
C82	C	1.024924	-0.288398	-0.197350
C83	C	1.021900	-0.285837	-0.119000
H84	H	1.110731	-0.493097	-0.302038
H85	H	0.760658	-0.222456	-0.288090
C86	C	1.123167	-0.599948	-0.289705
H87	H	1.148934	-0.575856	-0.263951
H88	H	1.154965	-0.623007	-0.317927
H89	H	1.094991	-0.619489	-0.257883
H90	H	0.939899	-0.222414	-1.108900
H91	H	1.130231	-0.369733	-0.786409
H92	H	0.953656	-0.592196	-0.458940
C93	C	1.166546	-0.736467	-0.246508
H94	H	1.192349	-0.760549	-0.220775
H95	H	1.138364	-0.713406	-0.214678
H96	H	1.198323	-0.716927	-0.274738
H97	H	0.438161	-0.369896	-0.478315
C98	C	0.954335	-0.233676	-0.789878
H99	H	0.926204	-0.211919	-0.756338
H100	H	0.924754	-0.253602	-0.817354
H101	H	0.982492	-0.212624	-0.819692
H102	H	1.103358	-0.348838	-1.115425
H103	H	0.633620	-0.344872	-0.446028
C104	C	1.137293	-0.375235	-0.642828
H105	H	1.128854	-0.368732	-0.593452
H106	H	1.185154	-0.369434	-0.656800
H107	H	1.127419	-0.410415	-0.654465
H108	H	1.110989	-0.995454	-0.302124
C109	C	1.110410	-0.354345	-0.971857
H110	H	1.101974	-0.347845	-0.922480
H111	H	1.158270	-0.348543	-0.985831
H112	H	1.100537	-0.389525	-0.983497
C113	C	0.778210	-0.359311	-0.464650
H114	H	0.746811	-0.379070	-0.490155
H115	H	0.805817	-0.382118	-0.438779
H116	H	0.808191	-0.341183	-0.496567
H117	H	1.154223	-0.843318	-0.258876
C118	C	1.123406	-1.102318	-0.289791
H119	H	1.117220	-1.138749	-0.295996
H120	H	1.111212	-1.091610	-0.242003
H121	H	1.171182	-1.095127	-0.302052
C122	C	0.941528	-1.102347	-0.471367
H123	H	0.915733	-1.078268	-0.497111
H124	H	0.909755	-1.121894	-0.443149
H125	H	0.969724	-1.125402	-0.503199
H126	H	0.953854	-0.995491	-0.459005
C127	C	0.898127	-0.851167	-0.514588
H128	H	0.872338	-0.827086	-0.540333
H129	H	0.866348	-0.870714	-0.486376
H130	H	0.926326	-0.874223	-0.546417
C131	C	0.616062	-0.208023	-0.269462
H132	H	0.567201	-0.211497	-0.273934
H133	H	0.628576	-0.173601	-0.280346
H134	H	0.626203	-0.214537	-0.222559
H135	H	0.910451	-0.744313	-0.502213
H136	H	0.934507	-0.218288	-0.975331
H137	H	0.304594	-0.365747	-0.472970
H138	H	0.961395	-0.239177	-0.646313
C139	C	0.287040	-0.228894	-0.296412
H140	H	0.318435	-0.209123	-0.270917
H141	H	0.257057	-0.247016	-0.264496
H142	H	0.259435	-0.206090	-0.322296
C143	C	0.441638	-0.233699	-0.302587
H144	H	0.408098	-0.211927	-0.274481
H145	H	0.471475	-0.212672	-0.330751
H146	H	0.469090	-0.253613	-0.272970
H147	H	0.953603	-0.493128	-0.458912
