data_functionalizedCrystal
_audit_creation_method	'MofGen! by Chris Wilmer'
_symmetry_space_group_name_H-M	'P1'
_symmetry_Int_Tables_number	1
_symmetry_cell_setting	triclinic
loop_
_symmetry_equiv_pos_as_xyz
  x,y,z
_cell_length_a	14.908979
_cell_length_b	14.908520
_cell_length_c	10.686551
_cell_angle_alpha	90.862058
_cell_angle_beta	90.852567
_cell_angle_gamma	96.420994
loop_
_atom_site_label
_atom_site_type_symbol
_atom_site_fract_x
_atom_site_fract_y
_atom_site_fract_z
Zn1	Zn	1.399147	-0.244260	0.620401
Zn2	Zn	1.378869	-0.407085	0.424158
Zn3	Zn	1.236344	-0.264476	0.424165
Zn4	Zn	1.240501	-0.402838	0.645916
O5	O	1.313715	-0.329665	0.528660
O6	O	1.522499	-0.259175	0.583688
O7	O	1.349737	-0.398405	0.249227
O8	O	1.264686	-0.135746	0.439521
O9	O	1.507600	-0.378802	0.439509
O10	O	1.384297	-0.120893	0.583695
O11	O	1.245024	-0.293631	0.249232
O12	O	1.110854	-0.289513	0.464262
O13	O	1.271772	-0.371565	0.817463
O14	O	1.113908	-0.391168	0.627182
O15	O	1.388329	-0.255058	0.798718
O16	O	1.353768	-0.532569	0.464250
O17	O	1.252110	-0.529450	0.627174
C18	C	1.079700	-0.342074	0.548492
C19	C	0.979588	-0.347403	0.557008
C20	C	0.840085	-0.407935	0.653697
C21	C	0.934150	-0.402928	0.645707
C22	C	0.930953	-0.296883	0.476291
C23	C	0.836888	-0.301890	0.484281
C24	C	0.791458	-0.357417	0.572989
C25	C	0.697392	-0.362419	0.580984
C26	C	0.694196	-0.256379	0.411563
C27	C	0.788261	-0.251371	0.403573
C28	C	1.301216	-0.563689	0.548505
C29	C	1.295953	-0.663799	0.557030
C30	C	1.392047	-0.855090	0.403514
C31	C	1.387105	-0.949153	0.411519
C32	C	1.281133	-0.945988	0.581051
C33	C	1.286075	-0.851925	0.573046
C34	C	1.341532	-0.806480	0.484273
C35	C	1.346469	-0.712417	0.476262
C36	C	1.240502	-0.709253	0.645799
C37	C	1.235560	-0.803315	0.653805
C38	C	1.548644	-0.317207	0.508751
C39	C	1.648757	-0.311899	0.500267
C40	C	1.332776	-0.310583	0.854717
C41	C	1.340899	-0.302451	0.993663
C42	C	1.326290	-0.094723	0.508763
C43	C	1.331649	0.005395	0.500283
C44	C	1.294784	-0.348605	0.203862
C45	C	1.286849	-0.356473	0.064880
H46	H	0.660404	-0.407628	0.653219
C47	C	1.411813	-0.231557	1.054898
N48	N	1.465223	-0.178159	1.101022
H49	H	0.803096	-0.453139	0.725937
H50	H	1.428241	-0.988728	0.345759
H51	H	0.973739	-0.444066	0.711428
H52	H	0.967958	-0.251683	0.404061
C53	C	1.453048	-0.805099	0.305862
N54	N	1.498996	-0.767447	0.232310
C55	C	0.838246	-0.190285	0.306011
N56	N	0.875895	-0.144268	0.232533
H57	H	1.199367	-0.669664	0.711555
H58	H	0.654594	-0.215239	0.345848
H59	H	1.391623	-0.675416	0.403976
C60	C	1.220132	-0.995994	0.678691
N61	N	1.174184	-1.033660	0.752231
H62	H	1.190411	-0.840329	0.726084
C63	C	1.215936	-0.427360	1.003649
N64	N	1.162522	-0.480753	0.957522
