data_functionalizedCrystal
_audit_creation_method	'MofGen! by Chris Wilmer'
_symmetry_space_group_name_H-M	'P1'
_symmetry_Int_Tables_number	1
_symmetry_cell_setting	triclinic
loop_
_symmetry_equiv_pos_as_xyz
  x,y,z
_cell_length_a	18.050590
_cell_length_b	18.050589
_cell_length_c	16.120297
_cell_angle_alpha	92.875657
_cell_angle_beta	92.894469
_cell_angle_gamma	90.017386
loop_
_atom_site_label
_atom_site_type_symbol
_atom_site_fract_x
_atom_site_fract_y
_atom_site_fract_z
Zn1	Zn	1.114048	-0.317167	-0.471066
Zn2	Zn	1.614048	0.182833	0.028934
Zn3	Zn	1.120246	-0.435063	-0.331662
Zn4	Zn	1.620246	0.064937	0.168338
Zn5	Zn	0.996152	-0.310870	-0.331706
Zn6	Zn	1.496152	0.189130	0.168294
Zn7	Zn	0.989815	-0.441296	-0.471068
Zn8	Zn	1.489815	0.058704	0.028932
O9	O	1.055065	-0.376099	-0.401376
O10	O	1.555065	0.123901	0.098624
O11	O	1.218796	-0.332833	-0.452555
O12	O	1.718796	0.167167	0.047445
O13	O	1.109030	-0.413344	-0.215003
O14	O	1.609030	0.086656	0.284997
O15	O	1.011850	-0.207781	-0.350209
O16	O	1.511850	0.292219	0.149791
O17	O	1.223349	-0.419450	-0.350135
O18	O	1.723349	0.080550	0.149865
O19	O	1.098467	-0.212408	-0.452597
O20	O	1.598467	0.287592	0.047403
O21	O	1.017859	-0.322100	-0.215035
O22	O	1.517859	0.177900	0.284965
O23	O	0.891386	-0.328144	-0.350212
O24	O	1.391386	0.171856	0.149788
O25	O	1.001049	-0.430074	-0.587733
O26	O	1.501049	0.069926	-0.087733
O27	O	0.886730	-0.423968	-0.452601
O28	O	1.386730	0.076032	0.047399
O29	O	1.092323	-0.338877	-0.587731
O30	O	1.592323	0.161123	-0.087731
O31	O	1.102885	-0.539813	-0.350138
O32	O	1.602885	-0.039813	0.149862
O33	O	1.007059	-0.544393	-0.452559
O34	O	1.507059	-0.044393	0.047441
C35	C	0.862112	-0.376050	-0.401412
C36	C	1.362112	0.123950	0.098588
C37	C	0.779564	-0.376047	-0.401447
C38	C	1.279564	0.123953	0.098553
C39	C	0.577609	-0.428292	-0.456994
C40	C	1.077609	0.071708	0.043006
C41	C	0.527291	-0.361502	-0.477503
C42	C	1.027291	0.138498	0.022497
C43	C	0.628436	-0.376087	-0.401406
C44	C	1.128436	0.123913	0.098594
C45	C	0.531672	-0.442916	-0.380895
C46	C	1.031672	0.057084	0.119105
C47	C	0.482452	-0.376131	-0.401368
C48	C	0.982452	0.123869	0.098632
C49	C	0.579203	-0.309263	-0.421956
C50	C	1.079203	0.190737	0.078044
C51	C	0.583590	-0.390720	-0.325312
C52	C	1.083590	0.109280	0.174688
C53	C	0.533296	-0.323882	-0.345793
C54	C	1.033296	0.176118	0.154207
C55	C	0.712533	-0.376063	-0.401430
C56	C	1.212533	0.123937	0.098570
C57	C	0.398357	-0.376148	-0.401344
C58	C	0.898357	0.123852	0.098656
C59	C	1.054976	-0.569050	-0.401362
C60	C	1.554976	-0.069050	0.098638
C61	C	1.055005	-0.651597	-0.401384
C62	C	1.555005	-0.151597	0.098616
C63	C	1.002944	-0.853564	-0.457061
C64	C	1.502944	-0.353564	0.042939
C65	C	0.988277	-0.899564	-0.380992
C66	C	1.488277	-0.399564	0.119008
C67	C	1.055077	-0.802728	-0.401395
C68	C	1.555077	-0.302728	0.098605
C69	C	1.069781	-0.903810	-0.477473
C70	C	1.569781	-0.403810	0.022527
C71	C	1.055146	-0.948714	-0.401412
C72	C	1.555146	-0.448714	0.098588
C73	C	1.040376	-0.847639	-0.325285
C74	C	1.540376	-0.347639	0.174715
C75	C	1.121910	-0.851883	-0.421818
C76	C	1.621910	-0.351883	0.078182
C77	C	1.107270	-0.897858	-0.345696
C78	C	1.607270	-0.397858	0.154304
C79	C	1.055036	-0.718629	-0.401386
C80	C	1.555036	-0.218629	0.098614
C81	C	1.055187	-1.032810	-0.401412
C82	C	1.555187	-0.532810	0.098588
C83	C	1.248773	-0.376149	-0.401340
C84	C	1.748773	0.123851	0.098660
C85	C	1.331319	-0.376170	-0.401325
C86	C	1.831319	0.123830	0.098675
C87	C	1.045288	-0.385873	-0.618828
C88	C	1.545288	0.114127	-0.118828
C89	C	1.041121	-0.390038	-0.711493
C90	C	1.541121	0.109962	-0.211493
C91	C	1.055174	-0.182395	-0.401408
C92	C	1.555174	0.317605	0.098592
C93	C	1.055220	-0.099849	-0.401421
C94	C	1.555220	0.400151	0.098579
C95	C	1.033487	-0.397626	-0.881153
C96	C	1.533487	0.102374	-0.381153
C97	C	1.076790	-0.354349	-0.922450
C98	C	1.576790	0.145651	-0.422450
C99	C	1.072543	-0.358571	-1.016854
C100	C	1.572543	0.141429	-0.516854
C101	C	1.037733	-0.393405	-0.786740
C102	C	1.537733	0.106595	-0.286740
C103	C	1.064848	-0.366309	-0.184769
C104	C	1.564848	0.133691	0.315231
C105	C	1.069158	-0.361935	-0.092105
C106	C	1.569158	0.138065	0.407895
H107	H	0.513893	-0.279704	-0.298768
H108	H	1.013893	0.220296	0.201232
O109	O	0.497887	-0.346624	-0.554199
O110	O	0.997887	0.153376	-0.054199
C111	C	0.455177	-0.281346	-0.548549
C112	C	0.955177	0.218654	-0.048549
H113	H	0.474656	-0.246311	-0.490742
H114	H	0.974656	0.253689	0.009258
H115	H	0.462097	-0.248380	-0.606169
H116	H	0.962097	0.251620	-0.106169
H117	H	0.394246	-0.296560	-0.544167
H118	H	0.894246	0.203440	-0.044167
O119	O	1.189308	-0.826799	-0.442299
O120	O	1.689308	-0.326799	0.057701
C121	C	1.220392	-0.780859	-0.376219
C122	C	1.720392	-0.280859	0.123781
H123	H	1.194719	-0.795054	-0.315799
H124	H	1.694719	-0.295054	0.184201
H125	H	1.282879	-0.790066	-0.370433
H126	H	1.782879	-0.290066	0.129567
H127	H	1.208713	-0.720309	-0.388988
H128	H	1.708713	-0.220309	0.111012
H129	H	1.082190	-0.928370	-0.541804
H130	H	1.582190	-0.428370	-0.041804
H131	H	1.117054	-0.314126	-0.886904
H132	H	1.617054	0.185874	-0.386904
O133	O	0.612944	-0.405621	-0.248608
O134	O	1.112944	0.094379	0.251392
C135	C	0.587669	-0.475535	-0.226575
C136	C	1.087669	0.024465	0.273425
H137	H	0.570340	-0.510399	-0.285277
H138	H	1.070340	-0.010399	0.214723
H139	H	0.634121	-0.504887	-0.190736
H140	H	1.134121	-0.004887	0.309264
H141	H	0.538109	-0.467855	-0.185897
H142	H	1.038109	0.032145	0.314103
H143	H	0.510758	-0.499413	-0.363566
H144	H	1.010758	0.000587	0.136434
H145	H	0.993227	-0.437846	-0.916697
H146	H	1.493227	0.062154	-0.416697
O147	O	1.159891	-0.921129	-0.289545
O148	O	1.659891	-0.421129	0.210455
C149	C	1.159740	-0.999282	-0.290633
C150	C	1.659740	-0.499282	0.209367
H151	H	1.134814	-1.022417	-0.352996
H152	H	1.634814	-0.522417	0.147004
H153	H	1.219062	-1.020084	-0.281364
H154	H	1.719062	-0.520084	0.218636
H155	H	1.125225	-1.018543	-0.238418
H156	H	1.625225	-0.518543	0.261582
O157	O	0.604059	-0.241899	-0.442865
O158	O	1.104059	0.258101	0.057135
C159	C	0.644243	-0.250474	-0.515479
C160	C	1.144243	0.249526	-0.015479
H161	H	0.626188	-0.303896	-0.551606
H162	H	1.126188	0.196104	-0.051606
H163	H	0.632957	-0.201260	-0.555881
H164	H	1.132957	0.298740	-0.055881
H165	H	0.706077	-0.253198	-0.497667
H166	H	1.206077	0.246802	0.002333
O167	O	0.950381	-0.830223	-0.513237
O168	O	1.450381	-0.330223	-0.013237
C169	C	0.984493	-0.789919	-0.573641
C170	C	1.484493	-0.289919	-0.073641
H171	H	1.045210	-0.806816	-0.576258
H172	H	1.545210	-0.306816	-0.076258
H173	H	0.954978	-0.802325	-0.637013
H174	H	1.454978	-0.302325	-0.137013
H175	H	0.980875	-0.728025	-0.556497
H176	H	1.480875	-0.228025	-0.056497
O177	O	0.600886	-0.480798	-0.513246
O178	O	1.100886	0.019202	-0.013246
C179	C	0.572067	-0.465115	-0.593369
C180	C	1.072067	0.034885	-0.093369
H181	H	0.558134	-0.403597	-0.595055
H182	H	1.058134	0.096403	-0.095055
H183	H	0.615084	-0.479688	-0.640917
H184	H	1.115084	0.020312	-0.140917
H185	H	0.519681	-0.499378	-0.608927
H186	H	1.019681	0.000622	-0.108927
H187	H	1.027902	-0.823167	-0.260936
H188	H	1.527902	-0.323167	0.239064
O189	O	0.920837	-0.924560	-0.360521
O190	O	1.420837	-0.424560	0.139479
C191	C	0.865993	-0.902076	-0.419343
C192	C	1.365993	-0.402076	0.080657
H193	H	0.892745	-0.890910	-0.480069
H194	H	1.392745	-0.390910	0.019931
H195	H	0.822611	-0.947824	-0.431004
H196	H	1.322611	-0.447824	0.068996
H197	H	0.838275	-0.849315	-0.394522
H198	H	1.338275	-0.349315	0.105478
