data_functionalizedCrystal
_audit_creation_method	'MofGen! by Chris Wilmer'
_symmetry_space_group_name_H-M	'P1'
_symmetry_Int_Tables_number	1
_symmetry_cell_setting	triclinic
loop_
_symmetry_equiv_pos_as_xyz
  x,y,z
_cell_length_a	13.897449
_cell_length_b	25.639240
_cell_length_c	25.639233
_cell_angle_alpha	89.974071
_cell_angle_beta	89.985096
_cell_angle_gamma	90.033584
loop_
_atom_site_label
_atom_site_type_symbol
_atom_site_fract_x
_atom_site_fract_y
_atom_site_fract_z
Zn1	Zn	1.474521	-0.208203	-0.295615
Zn2	Zn	1.974521	0.291797	0.204385
Zn3	Zn	1.474396	-0.295622	-0.208168
Zn4	Zn	1.974396	0.204378	0.291832
Zn5	Zn	1.313234	-0.208203	-0.208190
Zn6	Zn	1.813234	0.291797	0.291810
Zn7	Zn	1.313149	-0.295610	-0.295569
Zn8	Zn	1.813149	0.204390	0.204431
O9	O	1.393825	-0.251910	-0.251886
O10	O	1.893825	0.248090	0.248114
O11	O	1.609486	-0.219804	-0.284025
O12	O	2.109486	0.280196	0.215975
O13	O	1.453001	-0.284030	-0.135006
O14	O	1.953001	0.215970	0.364994
O15	O	1.334716	-0.135038	-0.219815
O16	O	1.834716	0.364962	0.280185
O17	O	1.609394	-0.284030	-0.219778
O18	O	2.109394	0.215970	0.280222
O19	O	1.453213	-0.135038	-0.284046
O20	O	1.953213	0.364962	0.215954
O21	O	1.334596	-0.219804	-0.135022
O22	O	1.834596	0.280196	0.364978
O23	O	1.178241	-0.219794	-0.219771
O24	O	1.678241	0.280206	0.280229
O25	O	1.334572	-0.284011	-0.368741
O26	O	1.834572	0.215989	0.131259
O27	O	1.178179	-0.284011	-0.283968
O28	O	1.678179	0.215989	0.216032
O29	O	1.453131	-0.219793	-0.368774
O30	O	1.953131	0.280207	0.131226
O31	O	1.452919	-0.368785	-0.219734
O32	O	1.952919	0.131215	0.280266
O33	O	1.334451	-0.368777	-0.283947
O34	O	1.834451	0.131223	0.216053
C35	C	1.143211	-0.251902	-0.251867
C36	C	1.643211	0.248098	0.248133
C37	C	1.035997	-0.251911	-0.251872
C38	C	1.535997	0.248089	0.248128
C39	C	1.393689	-0.387752	-0.251845
C40	C	1.893689	0.112248	0.248155
C41	C	1.393719	-0.445866	-0.251845
C42	C	1.893719	0.054134	0.248155
C43	C	0.948927	-0.251912	-0.251881
C44	C	1.448927	0.248088	0.248119
C45	C	0.839694	-0.251916	-0.251897
C46	C	1.339694	0.248084	0.248103
C47	C	1.455557	-0.806191	-0.285391
C48	C	1.955557	-0.306191	0.214609
C49	C	1.455585	-0.860795	-0.285401
C50	C	1.955585	-0.360795	0.214599
O51	O	1.508000	-0.888999	-0.313882
O52	O	2.008000	-0.388999	0.186118
N53	N	1.393959	-0.888149	-0.251936
N54	N	1.893959	-0.388149	0.248064
C55	C	1.332293	-0.860895	-0.218462
C56	C	1.832293	-0.360895	0.281538
O57	O	1.279877	-0.889176	-0.189998
O58	O	1.779877	-0.389176	0.310002
C59	C	1.332260	-0.806292	-0.218454
C60	C	1.832260	-0.306292	0.281546
C61	C	1.393898	-0.778941	-0.251918
C62	C	1.893898	-0.278941	0.248082
C63	C	1.517189	-0.778840	-0.318852
C64	C	2.017189	-0.278840	0.181148
C65	C	1.517161	-0.724239	-0.318841
C66	C	2.017161	-0.224239	0.181159
C67	C	1.455502	-0.696989	-0.285368
C68	C	1.955502	-0.196989	0.214632
C69	C	1.393870	-0.724340	-0.251906
C70	C	1.893870	-0.224340	0.248094
C71	C	1.270590	-0.779039	-0.184983
C72	C	1.770590	-0.279039	0.315017
C73	C	1.270562	-0.724432	-0.184978
C74	C	1.770562	-0.224432	0.315022
C75	C	1.332200	-0.697082	-0.218442
C76	C	1.832200	-0.197082	0.281558
C77	C	1.332184	-0.642490	-0.218422
C78	C	1.832184	-0.142490	0.281578
N79	N	1.393810	-0.615137	-0.251887
N80	N	1.893810	-0.115137	0.248113
C81	C	1.455470	-0.642386	-0.285360
C82	C	1.955470	-0.142386	0.214640
C83	C	1.332365	-0.975566	-0.218481
C84	C	1.832365	-0.475566	0.281519
C85	C	1.332402	-1.030168	-0.218485
C86	C	1.832402	-0.530168	0.281515
C87	C	1.455693	-1.030064	-0.285426
C88	C	1.955693	-0.530064	0.214574
C89	C	1.455660	-0.975461	-0.285418
C90	C	1.955660	-0.475461	0.214582
C91	C	1.393991	-0.948212	-0.251946
C92	C	1.893991	-0.448212	0.248054
C93	C	1.455408	-0.527721	-0.285333
C94	C	1.955408	-0.027721	0.214667
C95	C	1.455378	-0.473116	-0.285318
C96	C	1.955378	0.026884	0.214682
C97	C	1.332083	-0.473225	-0.218379
C98	C	1.832083	0.026775	0.281621
C99	C	1.332116	-0.527825	-0.218393
C100	C	1.832116	-0.027825	0.281607
C101	C	1.393782	-0.555072	-0.251874
C102	C	1.893782	-0.055072	0.248126
O103	O	1.279793	-0.614252	-0.189958
O104	O	1.779793	-0.114252	0.310042
O105	O	1.507868	-0.614099	-0.313824
O106	O	2.007868	-0.114099	0.186176
C107	C	1.645418	-0.251918	-0.251904
C108	C	2.145418	0.248082	0.248096
C109	C	1.752632	-0.251922	-0.251912
C110	C	2.252632	0.248078	0.248088
C111	C	1.393856	-0.251900	-0.388259
C112	C	1.893856	0.248100	0.111741
C113	C	1.393869	-0.251896	-0.446373
C114	C	1.893869	0.248104	0.053627
C115	C	1.393988	-0.115537	-0.251938
C116	C	1.893988	0.384463	0.248062
C117	C	1.394058	-0.057422	-0.251961
C118	C	1.894058	0.442578	0.248039
C119	C	1.455681	-0.218359	-0.806759
C120	C	1.955681	0.281641	-0.306759
C121	C	1.455693	-0.218344	-0.861363
C122	C	1.955693	0.281656	-0.361363
O123	O	1.508170	-0.189891	-0.889620
O124	O	2.008170	0.310109	-0.389620
N125	N	1.393976	-0.251774	-0.888655
N126	N	1.893976	0.248226	-0.388655
C127	C	1.332235	-0.285216	-0.861340
C128	C	1.832235	0.214784	-0.361340
O129	O	1.279740	-0.313649	-0.889568
O130	O	1.779740	0.186351	-0.389568
C131	C	1.332219	-0.285228	-0.806737
C132	C	1.832219	0.214772	-0.306737
C133	C	1.393948	-0.251800	-0.779448
C134	C	1.893948	0.248200	-0.279448
C135	C	1.517404	-0.184933	-0.779470
C136	C	2.017404	0.315067	-0.279470
C137	C	1.517393	-0.184949	-0.724869
C138	C	2.017393	0.315051	-0.224869
C139	C	1.455660	-0.218389	-0.697558
C140	C	1.955660	0.281611	-0.197558
C141	C	1.393937	-0.251815	-0.724847
C142	C	1.893937	0.248185	-0.224847
C143	C	1.270475	-0.318667	-0.779423
C144	C	1.770475	0.181333	-0.279423
C145	C	1.270464	-0.318675	-0.724816
C146	C	1.770464	0.181325	-0.224816
C147	C	1.332192	-0.285247	-0.697527
C148	C	1.832192	0.214753	-0.197527
C149	C	1.332192	-0.285271	-0.642935
C150	C	1.832192	0.214729	-0.142935
N151	N	1.393910	-0.251842	-0.615643
N152	N	1.893910	0.248158	-0.115643
C153	C	1.455643	-0.218401	-0.642955
C154	C	1.955643	0.281599	-0.142955
C155	C	1.332273	-0.285189	-0.976011
C156	C	1.832273	0.214811	-0.476011
C157	C	1.332293	-0.285181	-1.030613
C158	C	1.832293	0.214819	-0.530613
C159	C	1.455750	-0.218308	-1.030633
C160	C	1.955750	0.281692	-0.530633
C161	C	1.455734	-0.218319	-0.976029
C162	C	1.955734	0.281681	-0.476029
C163	C	1.393990	-0.251760	-0.948719
C164	C	1.893990	0.248240	-0.448719
C165	C	1.455617	-0.218436	-0.528289
C166	C	1.955617	0.281564	-0.028289
C167	C	1.455603	-0.218456	-0.473684
C168	C	1.955603	0.281544	0.026316
C169	C	1.332143	-0.285326	-0.473669
C170	C	1.832143	0.214674	0.026331
C171	C	1.332160	-0.285308	-0.528270
C172	C	1.832160	0.214692	-0.028270
C173	C	1.393900	-0.251859	-0.555579
C174	C	1.893900	0.248141	-0.055579
O175	O	1.279740	-0.313708	-0.614644
O176	O	1.779740	0.186292	-0.114644
O177	O	1.508121	-0.189968	-0.614720
O178	O	2.008121	0.310032	-0.114720
C179	C	1.393850	-0.251881	-0.116043
C180	C	1.893850	0.248119	0.383957
C181	C	1.394023	-0.251738	-0.057929
C182	C	1.894023	0.248262	0.442071
H183	H	1.505574	-0.450848	-0.312568
H184	H	2.005574	0.049152	0.187432
H185	H	1.505615	-0.549899	-0.312601
H186	H	2.005615	-0.049899	0.187399
Cl187	Cl	1.193031	-0.690180	-0.142896
Cl188	Cl	1.693031	-0.190180	0.357104
H189	H	1.567349	-0.701973	-0.346091
H190	H	2.067349	-0.201973	0.153909
Cl191	Cl	1.254573	-0.438958	-0.176301
Cl192	Cl	1.754573	0.061042	0.323699
Cl193	Cl	1.254924	-1.064545	-0.176408
Cl194	Cl	1.754924	-0.564545	0.323592
H195	H	1.567399	-0.801020	-0.346113
H196	H	2.067399	-0.301020	0.153887
H197	H	1.505873	-0.191234	-0.451468
H198	H	2.005873	0.308766	0.048532
Cl199	Cl	1.533229	-0.176382	-0.562612
Cl200	Cl	2.033229	0.323618	-0.062612
Cl201	Cl	1.533148	-0.941082	-0.327490
Cl202	Cl	2.033148	-0.441082	0.172510
H203	H	1.220173	-0.345901	-0.702582
H204	H	1.720173	0.154099	-0.202582
Cl205	Cl	1.533207	-1.064331	-0.327508
Cl206	Cl	2.033207	-0.564331	0.172492
H207	H	1.567675	-0.157699	-0.801701
H208	H	2.067675	0.342301	-0.301701
H209	H	1.281904	-0.312533	-0.550490
H210	H	1.781904	0.187467	-0.050490
H211	H	1.220399	-0.801299	-0.157733
H212	H	1.720399	-0.301299	0.342267
Cl213	Cl	1.254837	-0.941316	-0.176393
Cl214	Cl	1.754837	-0.441316	0.323607
Cl215	Cl	1.254641	-0.562210	-0.176317
Cl216	Cl	1.754641	-0.062210	0.323683
Cl217	Cl	1.254536	-0.327362	-0.439325
Cl218	Cl	1.754536	0.172638	0.060675
Cl219	Cl	1.594992	-0.142919	-0.690571
Cl220	Cl	2.094992	0.357081	-0.190571
H221	H	1.282038	-0.312407	-1.052828
H222	H	1.782038	0.187593	-0.552828
H223	H	1.505997	-0.191099	-0.953814
H224	H	2.005997	0.308901	-0.453814
H225	H	1.506014	-0.191077	-1.052879
H226	H	2.006014	0.308923	-0.552879
H227	H	1.281993	-0.312423	-0.953778
H228	H	1.781993	0.187577	-0.453778
H229	H	1.220209	-0.345888	-0.801632
H230	H	1.720209	0.154112	-0.301632
