data_functionalizedCrystal
_audit_creation_method	'MofGen! by Chris Wilmer'
_symmetry_space_group_name_H-M	'P1'
_symmetry_Int_Tables_number	1
_symmetry_cell_setting	triclinic
loop_
_symmetry_equiv_pos_as_xyz
  x,y,z
_cell_length_a	12.837943
_cell_length_b	12.837938
_cell_length_c	11.892113
_cell_angle_alpha	86.042234
_cell_angle_beta	86.040150
_cell_angle_gamma	94.828790
loop_
_atom_site_label
_atom_site_type_symbol
_atom_site_fract_x
_atom_site_fract_y
_atom_site_fract_z
O1	O	-1.408893	-0.278698	0.093969
O2	O	-1.105760	-0.265255	0.093976
O3	O	-1.250606	-0.120410	0.093973
O4	O	-1.264048	-0.423544	0.093972
O5	O	-1.237470	-0.107283	-0.094034
O6	O	-1.092625	-0.252129	-0.094031
O7	O	-1.395758	-0.265571	-0.094038
Zn8	Zn	-1.242106	-0.256766	-0.123885
Zn9	Zn	-1.259412	-0.274061	0.123823
O10	O	-1.250912	-0.410417	-0.094035
C11	C	-1.060123	-0.254151	-0.000026
C12	C	-0.943709	-0.240606	-0.000023
C13	C	-1.239497	-0.074778	-0.000028
C14	C	-1.225953	0.041637	-0.000020
C15	C	-1.441395	-0.276676	-0.000033
C16	C	-1.557810	-0.290221	-0.000029
C17	C	-1.388785	0.266509	0.000011
C18	C	-1.376065	0.375891	0.000019
C19	C	-1.187793	0.369784	0.000011
C20	C	-1.200514	0.260402	0.000004
C21	C	-1.301013	0.208769	0.000002
C22	C	-1.313732	0.099385	-0.000014
C23	C	-1.125462	0.093280	-0.000014
C24	C	-1.112741	0.202662	-0.000006
C25	C	-0.718833	-0.403435	-0.000040
C26	C	-0.609451	-0.390713	-0.000038
C27	C	-0.615559	-0.202443	-0.000025
C28	C	-0.724942	-0.215164	-0.000027
C29	C	-0.776575	-0.315663	-0.000033
C30	C	-0.885959	-0.328384	-0.000027
C31	C	-0.892065	-0.140114	-0.000022
C32	C	-0.782683	-0.127393	-0.000020
N33	N	-1.230302	-0.244963	-0.292938
C34	C	-1.262023	0.543950	-0.000020
C35	C	-1.275572	0.427532	0.000017
C36	C	-1.353353	-0.368041	-0.529591
C37	C	-1.345110	-0.359783	-0.647932
C38	C	-1.205578	-0.220183	-0.647965
C39	C	-1.213821	-0.228441	-0.529624
C40	C	-1.287710	-0.302374	-0.470441
C41	C	-1.295948	-0.310637	-0.352097
C42	C	-1.156421	-0.171032	-0.352132
C43	C	-1.148178	-0.162774	-0.470474
N44	N	-1.271224	-0.285857	0.292876
H45	H	-1.395563	0.057347	-0.000019
C46	C	-0.726661	-0.018243	-0.000240
C47	C	-0.748334	0.042212	-0.096971
C48	C	-0.696738	0.142763	-0.097214
H49	H	-0.750377	0.013897	0.065251
H50	H	-0.653234	-0.023185	-0.000301
H51	H	-0.821746	0.047157	-0.096899
H52	H	-0.724616	0.010104	-0.162478
H53	H	-0.623311	0.137821	-0.097276
H54	H	-0.720458	0.174893	-0.031719
H55	H	-0.711428	0.183791	-0.162850
H56	H	-0.939091	-0.068645	-0.000009
H57	H	-1.398565	-0.413255	-0.696088
H58	H	-0.927997	-0.410216	-0.000034
H59	H	-1.053990	0.046257	-0.000030
C60	C	-1.497842	0.210291	0.000180
C61	C	-1.517391	0.140895	0.096886
C62	C	-1.617838	0.089080	0.097072
H63	H	-1.548403	0.260223	0.000240
H64	H	-1.502151	0.172266	-0.065352
H65	H	-1.513091	0.178918	0.162401
H66	H	-1.466855	0.090943	0.096847
H67	H	-1.622147	0.051055	0.031540
H68	H	-1.668391	0.139019	0.097129
H69	H	-1.631111	0.041982	0.162680
C70	C	-1.471488	0.438400	-0.000031
C71	C	-1.562216	0.369767	-0.000061
C72	C	-1.650141	0.427313	-0.000120
H73	H	-1.475162	0.476626	0.065516
H74	H	-1.465919	0.485759	-0.065617
H75	H	-1.567783	0.322427	0.065518
H76	H	-1.558576	0.331539	-0.065603
H77	H	-1.644573	0.474672	-0.065706
H78	H	-1.653805	0.465537	0.065428
H79	H	-1.711710	0.380755	-0.000151
H80	H	-1.088022	-0.102577	-0.518677
H81	H	-1.030917	0.244717	-0.000000
H82	H	-0.760873	-0.485265	-0.000043
C83	C	-0.559534	-0.093294	-0.000255
C84	C	-0.581209	-0.032846	-0.096990
C85	C	-0.529608	0.067704	-0.097246
H86	H	-0.583244	-0.061146	0.065234
H87	H	-0.486106	-0.098239	-0.000320
H88	H	-0.654621	-0.027897	-0.096914
H89	H	-0.557496	-0.064961	-0.162494
H90	H	-0.456180	0.062759	-0.097311
H91	H	-0.553322	0.099841	-0.031753
H92	H	-0.544299	0.108727	-0.162884
H93	H	-0.562441	-0.462186	-0.000047
H94	H	-1.105972	0.411842	0.000025
H95	H	-1.413508	-0.428249	-0.481403
C96	C	-1.376271	-0.390932	-0.288042
C97	C	-1.432013	-0.446651	-0.365179
C98	C	-1.506028	-0.520618	-0.306217
H99	H	-1.341470	-0.438173	-0.241880
H100	H	-1.423482	-0.356062	-0.241892
H101	H	-1.384809	-0.481520	-0.411309
H102	H	-1.466836	-0.399439	-0.411343
H103	H	-1.553240	-0.485748	-0.260067
H104	H	-1.471219	-0.567851	-0.260057
H105	H	-1.543865	-0.558426	-0.358545
C106	C	-1.085081	-0.099917	-0.287778
C107	C	-1.025208	-0.161110	-0.219850
C108	C	-0.959478	-0.095646	-0.160545
H109	H	-1.039805	-0.054696	-0.339858
H110	H	-1.126390	-0.059230	-0.241527
H111	H	-0.983902	-0.201779	-0.266096
H112	H	-1.070456	-0.206329	-0.167749
H113	H	-1.000787	-0.054959	-0.114295
H114	H	-0.914209	-0.050428	-0.212633
H115	H	-0.918853	-0.137156	-0.114441
H116	H	-1.145431	-0.159980	-0.696173
