data_functionalizedCrystal
_audit_creation_method	'MofGen! by Chris Wilmer'
_symmetry_space_group_name_H-M	'P1'
_symmetry_Int_Tables_number	1
_symmetry_cell_setting	triclinic
loop_
_symmetry_equiv_pos_as_xyz
  x,y,z
_cell_length_a	19.851628
_cell_length_b	14.560438
_cell_length_c	19.851628
_cell_angle_alpha	60.005202
_cell_angle_beta	90.002357
_cell_angle_gamma	60.003774
loop_
_atom_site_label
_atom_site_type_symbol
_atom_site_fract_x
_atom_site_fract_y
_atom_site_fract_z
Zr1	Zr	0.648903	1.005368	-0.088419
O2	O	0.541350	1.196938	-0.195966
O3	O	0.681874	0.813776	-0.055452
O4	O	0.681875	1.005359	-0.195976
O5	O	0.541348	1.005368	0.055409
O6	O	0.792724	1.005377	-0.195982
O7	O	0.541349	1.005355	-0.055441
O8	O	0.792721	0.662670	0.055390
O9	O	0.541350	1.348076	-0.195964
O10	O	0.778661	0.892602	-0.041394
O11	O	0.695935	0.892599	0.041337
O12	O	0.695936	1.118163	-0.124113
O13	O	0.613211	1.118160	-0.041382
Zr14	Zr	0.825693	1.005418	0.088365
Zr15	Zr	0.825694	1.005396	-0.088429
Zr16	Zr	0.648902	1.005390	0.088374
Zr17	Zr	0.648903	1.246415	-0.088416
Zr18	Zr	0.825692	0.764370	0.088361
O19	O	0.792722	1.197009	0.055397
O20	O	0.792724	1.196978	-0.195980
O21	O	0.541348	1.196969	0.055411
O22	O	0.933246	0.813848	0.195911
O23	O	0.933248	0.813817	-0.055466
O24	O	0.681872	0.813808	0.195925
O25	O	0.933248	1.005417	-0.055463
O26	O	0.792721	1.005426	0.195922
O27	O	0.681872	1.005409	0.195928
O28	O	0.933247	1.005431	0.055387
O29	O	0.681875	1.348098	-0.195971
O30	O	0.792720	0.662688	0.195917
O31	O	0.933245	0.662710	0.195909
O32	O	0.933247	0.662693	0.055382
O33	O	0.541349	1.348093	-0.055437
O34	O	0.681874	1.348116	-0.055444
O35	O	0.778659	0.892622	0.124058
O36	O	0.861385	0.892625	0.041328
O37	O	0.778661	1.118187	-0.041391
O38	O	0.695935	1.118184	0.041340
C39	C	0.737297	0.703879	-0.000031
C40	C	0.737297	0.601548	-0.000033
C41	C	0.780478	0.553473	-0.043217
C42	C	0.780481	0.457314	-0.043210
C43	C	0.694117	0.457316	0.043169
C44	C	0.694119	0.553467	0.043165
C45	C	0.516159	1.005357	-0.000015
C46	C	0.441107	1.005345	-0.000011
C47	C	0.304845	0.882389	0.045081
C48	C	0.237397	0.943872	0.077777
C49	C	0.303675	1.005379	-0.000021
C50	C	0.237389	0.943887	-0.032689
C51	C	0.170926	1.005402	-0.000031
C52	C	0.237215	1.066863	0.032720
C53	C	0.237218	1.066861	-0.077789
C54	C	0.169757	1.128434	-0.045112
C55	C	0.380150	1.005362	-0.000014
C56	C	0.094450	1.005429	-0.000037
C57	C	0.958436	1.005428	-0.000039
C58	C	1.033489	1.005440	-0.000044
C59	C	0.737300	1.005365	-0.221169
C60	C	0.737300	1.005356	-0.296222
C61	C	0.737298	1.306907	-0.000023
C62	C	0.737298	1.409238	-0.000022
C63	C	0.782405	0.882398	-0.477381
C64	C	0.815105	0.943863	-0.455003
C65	C	0.737298	1.005407	-0.566405
C66	C	0.704639	0.943878	-0.455022
C67	C	0.737300	1.005375	-0.433653
C68	C	0.770042	1.066872	-0.545015
C69	C	0.659533	1.066870	-0.545032
C70	C	0.692213	1.128425	-0.522707
C71	C	0.737298	1.005421	-0.642879
C72	C	0.737301	1.005370	-0.357184
C73	C	0.737296	1.005421	0.221114
C74	C	0.737295	1.005430	0.296168
C75	C	0.958436	0.703914	-0.000044
C76	C	1.033488	0.601595	-0.000049
C77	C	0.737296	0.703907	0.221110
C78	C	0.737295	0.601585	0.296162
C79	C	0.958434	0.703942	0.221098
C80	C	1.033486	0.601633	0.296146
C81	C	0.516161	1.306843	-0.221152
C82	C	0.441110	1.409153	-0.296200
C83	C	0.516160	1.306871	-0.000011
C84	C	0.441107	1.409190	-0.000005
C85	C	0.737300	1.306879	-0.221164
C86	C	0.737301	1.409201	-0.296216
C87	C	1.025552	0.553533	-0.043239
C88	C	1.096065	0.457407	-0.043261
C89	C	1.174513	0.409338	-0.000087
C90	C	1.182447	0.457410	0.043104
C91	C	1.111935	0.553541	0.043120
C92	C	0.780476	0.553546	0.374594
C93	C	0.780472	0.457418	0.445121
C94	C	0.737292	0.409323	0.437212
C95	C	0.694105	0.457372	0.358772
C96	C	0.694105	0.553505	0.288247
C97	C	1.111920	0.553588	0.288204
C98	C	1.182446	0.457471	0.358713
C99	C	1.174536	0.409393	0.437162
C100	C	1.096093	0.457447	0.445102
C101	C	1.025569	0.553569	0.374594
C102	C	0.362675	1.457209	-0.288258
C103	C	0.292149	1.553356	-0.358767
C104	C	0.300060	1.601439	-0.437216
C105	C	0.378503	1.553379	-0.445156
C106	C	0.449027	1.457240	-0.374648
C107	C	0.449043	1.457263	0.043177
C108	C	0.378531	1.553416	0.043180
C109	C	0.300083	1.601488	0.000004
C110	C	0.292148	1.553411	-0.043184
C111	C	0.362660	1.457267	-0.043191
C112	C	0.780490	1.457264	-0.288282
C113	C	0.780506	1.553394	-0.358794
C114	C	0.737329	1.601464	-0.437241
C115	C	0.694139	1.553390	-0.445174
C116	C	0.694127	1.457256	-0.374662
H117	H	0.362678	0.778394	0.083271
C118	C	0.827975	0.404442	-0.090717
H119	H	0.853684	0.446858	-0.116448
H120	H	0.868840	0.313678	-0.053450
H121	H	0.790694	0.420195	-0.131579
C122	C	0.353962	1.404336	-0.201972
H123	H	0.407192	1.340187	-0.161109
H124	H	0.324666	1.473358	-0.195784
H125	H	0.324656	1.366825	-0.195787
C126	C	0.640693	1.269007	-0.547790
H127	H	0.596183	1.283326	-0.526701
H128	H	0.674508	1.282833	-0.525909
H129	H	0.619592	1.327593	-0.606239
H130	H	1.089589	0.418278	-0.078432
C131	C	0.833988	0.741931	-0.452507
H132	H	0.799949	0.727669	-0.473613
H133	H	0.877869	0.728279	-0.474488
H134	H	0.855959	0.683185	-0.394068
C135	C	0.646609	0.606329	0.201976
H136	H	0.620902	0.563903	0.207375
H137	H	0.605743	0.697095	0.172662
H138	H	0.683888	0.590551	0.172672
C139	C	0.387273	1.606270	0.090697
H140	H	0.444094	1.563847	0.116420
H141	H	0.361572	1.697034	0.053436
H142	H	0.361558	1.590507	0.131565
C143	C	1.268724	0.404587	0.349969
H144	H	1.309598	0.340456	0.403192
H145	H	1.274885	0.367075	0.320672
H146	H	1.274918	0.473605	0.320656
H147	H	0.815650	1.418141	-0.224413
C148	C	0.387198	1.606262	-0.531450
H149	H	0.444011	1.563882	-0.526091
H150	H	0.361472	1.590496	-0.560744
H151	H	0.361484	1.697035	-0.560751
C152	C	0.827966	0.606449	0.383310
H153	H	0.853668	0.564074	0.440127
H154	H	0.868835	0.590699	0.357599
H155	H	0.790679	0.697221	0.357595
C156	C	0.205873	1.606193	-0.350019
H157	H	0.211269	1.563766	-0.293198
H158	H	0.176564	1.696958	-0.375716
H159	H	0.176567	1.590425	-0.375734
C160	C	0.646602	0.606381	0.090652
H161	H	0.652791	0.670527	0.084464
H162	H	0.589793	0.643880	0.069323
H163	H	0.667921	0.537377	0.147469
C164	C	0.570710	1.137038	-0.597446
H165	H	0.557317	1.209732	-0.650419
H166	H	0.566442	1.078983	-0.603174
H167	H	0.533568	1.165705	-0.571082
H168	H	0.237814	1.118813	0.060421
H169	H	0.815676	1.592525	-0.352319
H170	H	1.231968	0.331124	0.494567
C171	C	0.939293	0.606402	0.383335
H172	H	0.898418	0.670542	0.330113
H173	H	0.933122	0.537365	0.412643
H174	H	0.933111	0.643918	0.412638
H175	H	0.242628	1.679721	-0.494622
H176	H	0.737299	0.331045	0.494644
C177	C	0.646648	0.404396	0.090708
H178	H	0.620947	0.446780	0.116442
H179	H	0.605778	0.420114	0.053464
H180	H	0.683948	0.313629	0.131569
C181	C	0.535300	1.404373	-0.383394
H182	H	0.529903	1.446775	-0.440215
H183	H	0.564622	1.420122	-0.357684
H184	H	0.564596	1.313604	-0.357693
C185	C	0.091750	1.269027	-0.096633
H186	H	0.060152	1.283357	-0.141145
H187	H	0.059732	1.282865	-0.062820
H188	H	0.107244	1.327598	-0.117730
H189	H	0.236724	0.891898	0.143541
H190	H	0.880872	0.891880	-0.416209
C191	C	0.807470	1.137047	-0.597269
H192	H	0.807269	1.136588	-0.644956
H193	H	0.775680	1.224174	-0.613490
H194	H	0.862566	1.093643	-0.565598
H195	H	0.237922	1.118791	-0.143539
C196	C	0.236495	0.873635	-0.070012
H197	H	0.283906	0.786259	-0.037897
H198	H	0.188209	0.874833	-0.070215
H199	H	0.236839	0.916460	-0.124948
C200	C	0.535329	1.404401	0.090670
H201	H	0.576195	1.340247	0.084493
H202	H	0.541513	1.473427	0.069340
H203	H	0.541513	1.366901	0.147484
C204	C	0.939267	0.606399	-0.090735
H205	H	0.898401	0.670531	-0.084541
H206	H	0.933083	0.643906	-0.147546
H207	H	0.933082	0.537369	-0.069410
C208	C	0.667317	0.873617	-0.402621
H209	H	0.699432	0.786247	-0.385963
H210	H	0.667118	0.874793	-0.355205
H211	H	0.612380	0.916450	-0.434377
H212	H	0.242674	1.679775	0.000016
H213	H	1.231922	0.331061	-0.000107
C214	C	0.737344	1.707212	-0.514799
H215	H	0.705449	1.728957	-0.562659
H216	H	0.714230	1.782219	-0.514793
H217	H	0.792368	1.675683	-0.514796
C218	C	1.268742	0.404515	0.090598
H219	H	1.309594	0.340369	0.084406
H220	H	1.274946	0.473520	0.069287
H221	H	1.274931	0.366991	0.147415
H222	H	1.118409	0.592661	0.078295
C223	C	0.646640	1.606287	-0.531467
H224	H	0.652829	1.670435	-0.572318
H225	H	0.667952	1.537284	-0.537673
H226	H	0.589823	1.643809	-0.537652
H227	H	0.228266	1.592566	-0.078337
C228	C	0.827987	0.404570	0.531394
H229	H	0.853714	0.446970	0.525997
H230	H	0.790723	0.420333	0.560709
H231	H	0.868853	0.313799	0.560696
H232	H	0.356187	1.418129	-0.078353
C233	C	0.646614	0.404458	0.350079
H234	H	0.620889	0.446836	0.293267
H235	H	0.683894	0.313690	0.375800
H236	H	0.605749	0.420223	0.375798
C237	C	1.120638	0.606461	0.201919
H238	H	1.177456	0.564081	0.207300
H239	H	1.094930	0.590692	0.172612
H240	H	1.094922	0.697235	0.172620
C241	C	1.087402	0.404540	0.531398
H242	H	1.140641	0.340402	0.572246
H243	H	1.058103	0.473542	0.537604
H244	H	1.058112	0.367005	0.537588
C245	C	0.646602	1.404413	-0.383396
H246	H	0.652775	1.340271	-0.330171
H247	H	0.589797	1.473448	-0.412699
H248	H	0.667927	1.366899	-0.412700
H249	H	0.815637	0.592617	-0.078390
