data_functionalizedCrystal
_audit_creation_method	'MofGen! by Chris Wilmer'
_symmetry_space_group_name_H-M	'P1'
_symmetry_Int_Tables_number	1
_symmetry_cell_setting	triclinic
loop_
_symmetry_equiv_pos_as_xyz
  x,y,z
_cell_length_a	12.759395
_cell_length_b	16.120484
_cell_length_c	12.759387
_cell_angle_alpha	92.863576
_cell_angle_beta	89.979491
_cell_angle_gamma	92.926975
loop_
_atom_site_label
_atom_site_type_symbol
_atom_site_fract_x
_atom_site_fract_y
_atom_site_fract_z
Zn1	Zn	1.584987	-0.331828	-0.615167
Zn2	Zn	2.084987	0.168172	-0.115167
Zn3	Zn	1.575935	-0.471265	-0.448379
Zn4	Zn	2.075935	0.028735	0.051621
Zn5	Zn	1.409282	-0.331874	-0.439506
Zn6	Zn	1.909282	0.168126	0.060494
Zn7	Zn	1.400339	-0.471205	-0.624015
Zn8	Zn	1.900339	0.028795	-0.124015
O9	O	1.492636	-0.401543	-0.531767
O10	O	1.992636	0.098457	-0.031767
O11	O	1.730807	-0.350331	-0.593052
O12	O	2.230807	0.149669	-0.093052
O13	O	1.553783	-0.452818	-0.300184
O14	O	2.053783	0.047182	0.199816
O15	O	1.440121	-0.215202	-0.455392
O16	O	1.940121	0.284798	0.044608
O17	O	1.724157	-0.452774	-0.470514
O18	O	2.224157	0.047226	0.029486
O19	O	1.569211	-0.215169	-0.584449
O20	O	2.069211	0.284831	-0.084449
O21	O	1.431344	-0.350408	-0.293665
O22	O	1.931344	0.149592	0.206335
O23	O	1.261075	-0.350350	-0.463971
O24	O	1.761075	0.149650	0.036029
O25	O	1.424878	-0.452673	-0.769859
O26	O	1.924878	0.047327	-0.269859
O27	O	1.254504	-0.452717	-0.599529
O28	O	1.754504	0.047283	-0.099529
O29	O	1.560539	-0.350273	-0.763359
O30	O	2.060539	0.149727	-0.263359
O31	O	1.545111	-0.587922	-0.479094
O32	O	2.045111	-0.087922	0.020906
O33	O	1.416101	-0.587879	-0.608132
O34	O	1.916101	-0.087879	-0.108132
C35	C	1.219669	-0.401533	-0.531748
C36	C	1.719669	0.098467	-0.031748
C37	C	1.102891	-0.401549	-0.531766
C38	C	1.602891	0.098451	-0.031766
C39	C	1.096077	-0.508315	-0.672716
C40	C	1.596077	-0.008315	-0.172716
C41	C	1.037808	-0.561705	-0.743194
C42	C	1.537808	-0.061705	-0.243194
C43	C	0.928086	-0.561715	-0.743207
C44	C	1.428086	-0.061715	-0.243207
C45	C	0.876630	-0.508328	-0.672737
C46	C	1.376630	-0.008328	-0.172737
C47	C	0.934899	-0.454938	-0.602259
C48	C	1.434899	0.045062	-0.102259
C49	C	1.044623	-0.454935	-0.602251
C50	C	1.544623	0.045065	-0.102251
C51	C	0.941713	-0.348169	-0.461316
C52	C	1.441713	0.151831	0.038684
C53	C	1.051436	-0.348161	-0.461296
C54	C	1.551436	0.151839	0.038704
C55	C	0.890258	-0.294781	-0.390846
C56	C	1.390258	0.205219	0.109154
C57	C	0.948526	-0.241394	-0.320361
C58	C	1.448526	0.258606	0.179639
C59	C	1.058255	-0.241387	-0.320350
C60	C	1.558255	0.258613	0.179650
C61	C	1.109704	-0.294771	-0.390818
C62	C	1.609704	0.205229	0.109182
C63	C	1.478681	-0.618150	-0.545559
C64	C	1.978681	-0.118150	-0.045559
C65	C	1.472808	-0.710816	-0.551495
C66	C	1.972808	-0.210816	-0.051495
C67	C	1.462090	-0.880477	-0.562353
C68	C	1.962090	-0.380477	-0.062353
C69	C	1.523370	-0.921768	-0.501198
C70	C	2.023370	-0.421768	-0.001198
C71	C	1.517406	-1.016173	-0.507239
C72	C	2.017406	-0.516173	-0.007239
C73	C	1.468052	-0.786063	-0.556313
C74	C	1.968052	-0.286063	-0.056313
C75	C	1.766669	-0.401554	-0.531786
C76	C	2.266669	0.098446	-0.031786
C77	C	1.883445	-0.401558	-0.531794
C78	C	2.383445	0.098442	-0.031794
C79	C	1.492720	-0.401461	-0.805795
C80	C	1.992720	0.098539	-0.305795
C81	C	1.492756	-0.401426	-0.922570
C82	C	1.992756	0.098574	-0.422570
C83	C	1.506673	-0.184090	-0.517944
C84	C	2.006673	0.315910	-0.017944
C85	C	1.512655	-0.091424	-0.512053
C86	C	2.012655	0.408576	-0.012053
C87	C	1.634028	-0.294805	-0.915821
C88	C	2.134028	0.205195	-0.415821
C89	C	1.704680	-0.241481	-0.967306
C90	C	2.204680	0.258519	-0.467306
C91	C	1.704707	-0.241451	-1.077026
C92	C	2.204707	0.258549	-0.577026
C93	C	1.634074	-0.294748	-1.135263
C94	C	2.134074	0.205252	-0.635263
C95	C	1.563422	-0.348071	-1.083777
C96	C	2.063422	0.151929	-0.583777
C97	C	1.563404	-0.348098	-0.974055
C98	C	2.063404	0.151902	-0.474055
C99	C	1.422147	-0.454688	-1.090526
C100	C	1.922147	0.045312	-0.590526
C101	C	1.422123	-0.454723	-0.980807
C102	C	1.922123	0.045277	-0.480807
C103	C	1.351514	-0.507985	-1.148763
C104	C	1.851514	-0.007985	-0.648763
C105	C	1.280866	-0.561313	-1.097278
C106	C	1.780866	-0.061313	-0.597278
C107	C	1.280842	-0.561342	-0.987551
C108	C	1.780842	-0.061342	-0.487551
C109	C	1.351472	-0.508047	-0.929321
C110	C	1.851472	-0.008047	-0.429321
C111	C	1.492616	-0.401564	-0.258801
C112	C	1.992616	0.098436	0.241199
C113	C	1.492798	-0.401364	-0.142012
C114	C	1.992798	0.098636	0.357988
H115	H	0.906622	-0.197927	-0.262995
H116	H	1.406622	0.302073	0.237005
O117	O	1.598798	-0.874687	-0.425831
O118	O	2.098798	-0.374687	0.074169
H119	H	1.554251	-0.835090	-0.369849
H120	H	2.054251	-0.335090	0.130151
O121	O	1.386664	-0.927563	-0.637706
O122	O	1.886664	-0.427563	-0.137706
H123	H	1.342692	-0.882755	-0.681581
H124	H	1.842692	-0.382755	-0.181581
O125	O	0.865225	-0.619346	-0.819161
O126	O	1.365225	-0.119346	-0.319161
H127	H	0.919432	-0.656489	-0.868136
H128	H	1.419432	-0.156489	-0.368136
O129	O	1.351536	-0.507956	-1.267104
O130	O	1.851536	-0.007956	-0.767104
H131	H	1.412536	-0.461930	-1.293124
H132	H	1.912536	0.038070	-0.793124
O133	O	1.351440	-0.508088	-0.810981
O134	O	1.851440	-0.008088	-0.310981
H135	H	1.334262	-0.445214	-0.778049
H136	H	1.834262	0.054786	-0.278049
O137	O	1.204615	-0.618844	-0.932029
O138	O	1.704615	-0.118844	-0.432029
H139	H	1.218392	-0.684276	-0.957241
H140	H	1.718392	-0.184276	-0.457241
O141	O	1.214419	-0.508315	-0.672698
O142	O	1.714419	-0.008315	-0.172698
H143	H	1.242225	-0.525088	-0.594482
H144	H	1.742225	-0.025088	-0.094482
O145	O	1.121102	-0.183811	-0.244323
O146	O	1.621102	0.316189	0.255677
H147	H	1.066884	-0.146700	-0.195321
H148	H	1.566884	0.353300	0.304679
O149	O	1.633999	-0.294842	-0.797480
O150	O	2.133999	0.205158	-0.297480
H151	H	1.694978	-0.248823	-0.765634
H152	H	2.194978	0.251177	-0.265634
H153	H	1.223356	-0.604699	-1.144702
H154	H	1.723356	-0.104699	-0.644702
O155	O	1.228047	-0.294767	-0.390798
O156	O	1.728047	0.205233	0.109202
H157	H	1.258095	-0.277994	-0.469006
H158	H	1.758095	0.222006	0.030994
O159	O	0.758285	-0.508361	-0.672716
O160	O	1.258285	-0.008361	-0.172716
H161	H	0.726411	-0.554466	-0.733548
H162	H	1.226411	-0.054466	-0.233548
H163	H	1.762186	-0.198086	-0.919878
H164	H	2.262186	0.301914	-0.419878
O165	O	1.780895	-0.183939	-1.132580
O166	O	2.280895	0.316061	-0.632580
H167	H	1.862428	-0.198250	-1.112463
H168	H	2.362428	0.301750	-0.612463
O169	O	1.093304	-0.619267	-0.819223
O170	O	1.593304	-0.119267	-0.319223
H171	H	1.179390	-0.610292	-0.807380
H172	H	1.679390	-0.110292	-0.307380
O173	O	0.771913	-0.294820	-0.390814
O174	O	1.271913	0.205180	0.109186
H175	H	0.740036	-0.340931	-0.451638
H176	H	1.240036	0.159069	0.048362
O177	O	1.634091	-0.294712	-1.253604
O178	O	2.134091	0.205288	-0.753604
H179	H	1.695085	-0.248680	-1.279621
H180	H	2.195085	0.251320	-0.779621
