data_functionalizedCrystal
_audit_creation_method	'MofGen! by Chris Wilmer'
_symmetry_space_group_name_H-M	'P1'
_symmetry_Int_Tables_number	1
_symmetry_cell_setting	triclinic
loop_
_symmetry_equiv_pos_as_xyz
  x,y,z
_cell_length_a	17.699104
_cell_length_b	17.699083
_cell_length_c	16.176319
_cell_angle_alpha	89.992304
_cell_angle_beta	89.991696
_cell_angle_gamma	83.287266
loop_
_atom_site_label
_atom_site_type_symbol
_atom_site_fract_x
_atom_site_fract_y
_atom_site_fract_z
O1	O	1.004069	0.095788	-0.068765
O2	O	1.337402	0.429121	0.264568
O3	O	1.670736	0.762455	0.597902
O4	O	0.783693	0.108224	-0.068763
O5	O	1.117026	0.441557	0.264570
O6	O	1.450359	0.774891	0.597904
O7	O	0.900107	-0.008183	-0.068757
O8	O	1.233440	0.325151	0.264577
O9	O	1.566774	0.658484	0.597910
O10	O	0.887655	0.212195	-0.068771
O11	O	1.220988	0.545528	0.264562
O12	O	1.554321	0.878862	0.597895
O13	O	0.900091	-0.008190	0.068736
O14	O	1.233424	0.325143	0.402070
O15	O	1.566758	0.658477	0.735403
O16	O	0.783677	0.108217	0.068730
O17	O	1.117010	0.441550	0.402063
O18	O	1.450343	0.774883	0.735397
O19	O	1.004053	0.095781	0.068728
O20	O	1.337386	0.429114	0.402062
O21	O	1.670720	0.762447	0.735395
Cu22	Cu	0.893863	0.101998	0.081283
Cu23	Cu	1.227197	0.435331	0.414617
Cu24	Cu	1.560530	0.768665	0.747950
Cu25	Cu	0.893882	0.102007	-0.081318
Cu26	Cu	1.227216	0.435340	0.252015
Cu27	Cu	1.560549	0.768673	0.585348
O28	O	0.887639	0.212187	0.068722
O29	O	1.220972	0.545521	0.402055
O30	O	1.554305	0.878854	0.735389
C31	C	0.755488	0.107772	-0.000016
C32	C	1.088821	0.441105	0.333317
C33	C	1.422155	0.774439	0.666650
C34	C	0.671471	0.106427	-0.000015
C35	C	1.004804	0.439761	0.333318
C36	C	1.338137	0.773094	0.666651
C37	C	0.146600	0.167171	-0.000028
C38	C	0.479933	0.500504	0.333305
C39	C	0.813266	0.833838	0.666639
C40	C	0.225543	0.168430	-0.000030
C41	C	0.558877	0.501764	0.333303
C42	C	0.892210	0.835097	0.666636
C43	C	0.274161	0.100095	-0.000026
C44	C	0.607494	0.433428	0.333308
C45	C	0.940828	0.766762	0.666641
C46	C	0.243831	0.030496	-0.000027
C47	C	0.577165	0.363829	0.333306
C48	C	0.910498	0.697163	0.666640
C49	C	0.164889	0.029238	-0.000030
C50	C	0.498222	0.362571	0.333303
C51	C	0.831555	0.695905	0.666636
C52	C	0.562197	0.035569	-0.000014
C53	C	0.895531	0.368903	0.333319
C54	C	1.228864	0.702236	0.666653
C55	C	0.641144	0.036833	-0.000008
C56	C	0.974478	0.370166	0.333325
C57	C	1.307811	0.703500	0.666659
C58	C	0.622852	0.174762	-0.000014
C59	C	0.956185	0.508095	0.333319
C60	C	1.289519	0.841428	0.666653
C61	C	0.543909	0.173503	-0.000018
C62	C	0.877243	0.506837	0.333316
C63	C	1.210576	0.840170	0.666649
C64	C	0.513587	0.103905	-0.000023
C65	C	0.846920	0.437238	0.333310
C66	C	1.180253	0.770572	0.666644
C67	C	0.427987	0.102541	-0.000022
C68	C	0.761320	0.435874	0.333311
C69	C	1.094653	0.769207	0.666645
C70	C	0.359759	0.101459	-0.000021
C71	C	0.693093	0.434792	0.333312
C72	C	1.026426	0.768125	0.666646
C73	C	0.899653	-0.036383	-0.000010
C74	C	1.232986	0.296950	0.333323
C75	C	1.566319	0.630283	0.666657
C76	C	0.898314	-0.120402	-0.000010
C77	C	1.231647	0.212932	0.333324
C78	C	1.564981	0.546265	0.666657
C79	C	0.966647	-0.169017	-0.000009
C80	C	1.299980	0.164316	0.333324
C81	C	1.633314	0.497649	0.666658
C82	C	0.965385	-0.247961	-0.000016
C83	C	1.298718	0.085373	0.333317
C84	C	1.632051	0.418706	0.666650
C85	C	0.895789	-0.278287	-0.000018
C86	C	1.229122	0.055047	0.333315
C87	C	1.562455	0.388380	0.666648
C88	C	0.827451	-0.229665	-0.000021
C89	C	1.160784	0.103669	0.333312
C90	C	1.494118	0.437002	0.666645
C91	C	0.828714	-0.150723	-0.000020
C92	C	1.162047	0.182611	0.333313
C93	C	1.495381	0.515944	0.666647
C94	C	0.822356	-0.548028	-0.000028
C95	C	1.155689	-0.214695	0.333305
C96	C	1.489022	0.118639	0.666639
C97	C	0.821098	-0.626976	-0.000027
C98	C	1.154431	-0.293643	0.333306
C99	C	1.487764	0.039690	0.666640
C100	C	0.959026	-0.645266	-0.000024
C101	C	1.292360	-0.311933	0.333309
C102	C	1.625693	0.021401	0.666642
C103	C	0.960289	-0.566324	-0.000023
C104	C	1.293623	-0.232991	0.333310
C105	C	1.626956	0.100342	0.666644
C106	C	0.891952	-0.517709	-0.000031
C107	C	1.225285	-0.184376	0.333303
C108	C	1.558618	0.148958	0.666636
C109	C	0.893321	-0.432110	-0.000024
C110	C	1.226655	-0.098776	0.333309
C111	C	1.559988	0.234557	0.666642
C112	C	0.894419	-0.363885	-0.000019
C113	C	1.227752	-0.030551	0.333315
C114	C	1.561085	0.302782	0.666648
C115	C	1.032258	0.096233	-0.000020
C116	C	1.365591	0.429566	0.333313
C117	C	1.698924	0.762899	0.666646
C118	C	1.116275	0.097578	-0.000027
C119	C	1.449608	0.430911	0.333307
C120	C	1.782941	0.764244	0.666640
C121	C	0.888093	0.240388	-0.000027
C122	C	1.221426	0.573722	0.333307
C123	C	1.554759	0.907055	0.666640
C124	C	0.889431	0.324406	-0.000032
C125	C	1.222765	0.657740	0.333301
C126	C	1.556098	0.991073	0.666634
N127	N	0.893856	0.101991	0.195649
N128	N	1.227189	0.435325	0.528982
N129	N	1.560522	0.768658	0.862315
N130	N	0.893896	0.102007	-0.195683
N131	N	1.227229	0.435341	0.137650
N132	N	1.560563	0.768674	0.470983
C133	C	0.945419	0.050468	0.238916
C134	C	1.278753	0.383801	0.572249
C135	C	1.612086	0.717134	0.905582
C136	C	0.945423	0.050467	0.325463
C137	C	1.278756	0.383800	0.658796
C138	C	1.612090	0.717133	0.992129
C139	C	0.893866	0.101994	0.368741
C140	C	1.227200	0.435327	0.702075
C141	C	1.560533	0.768661	1.035408
C142	C	0.842297	0.153520	0.325468
C143	C	1.175630	0.486854	0.658802
C144	C	1.508964	0.820187	0.992135
C145	C	0.842290	0.153517	0.238923
C146	C	1.175623	0.486850	0.572256
C147	C	1.508957	0.820184	0.905589
C148	C	0.842323	0.153535	0.674496
C149	C	1.175656	0.486868	1.007830
C150	C	1.508990	0.820201	1.341163
C151	C	0.842335	0.153536	0.761048
C152	C	1.175669	0.486869	1.094381
C153	C	1.509002	0.820202	1.427715
C154	C	0.945456	0.050484	0.761036
C155	C	1.278789	0.383818	1.094370
C156	C	1.612122	0.717151	1.427703
C157	C	0.945449	0.050481	0.674491
C158	C	1.278782	0.383814	1.007824
C159	C	1.612116	0.717148	1.341158
C160	C	0.893877	0.102004	0.631225
C161	C	1.227211	0.435338	0.964559
C162	C	1.560544	0.768671	1.297892
C163	C	0.893873	0.102004	0.537381
C164	C	1.227206	0.435337	0.870715
C165	C	1.560540	0.768670	1.204048
C166	C	0.893874	0.101999	0.462584
C167	C	1.227207	0.435332	0.795917
C168	C	1.560540	0.768666	1.129250
H169	H	0.283422	-0.025143	-0.000028
H170	H	0.616755	0.308190	0.333305
H171	H	0.950089	0.641523	0.666639
H172	H	0.764421	-0.651664	-0.000027
H173	H	1.097755	-0.318331	0.333306
H174	H	1.431088	0.015003	0.666640
Br175	Br	0.729612	-0.482060	-0.000044
Br176	Br	1.062945	-0.148727	0.333290
Br177	Br	1.396278	0.184606	0.666623
H178	H	0.800333	0.195488	0.639276
H179	H	1.133666	0.528821	0.972610
H180	H	1.467000	0.862155	1.305943
Br181	Br	0.521054	-0.058885	-0.000046
Br182	Br	0.854388	0.274448	0.333287
Br183	Br	1.187721	0.607781	0.666621
Br184	Br	0.772319	0.223447	0.384200
Br185	Br	1.105653	0.556780	0.717533
Br186	Br	1.438986	0.890114	1.050867
H187	H	0.800301	0.195472	0.203695
H188	H	1.133634	0.528805	0.537029
H189	H	1.466968	0.862139	0.870362
H190	H	0.250230	0.225100	-0.000039
H191	H	0.583563	0.558433	0.333294
H192	H	0.916896	0.891767	0.666628
Br193	Br	0.732998	-0.270820	-0.000038
Br194	Br	1.066331	0.062513	0.333295
Br195	Br	1.399665	0.395846	0.666629
Br196	Br	1.061104	-0.127869	0.000006
Br197	Br	1.394437	0.205464	0.333339
Br198	Br	1.727770	0.538798	0.666672
H199	H	0.107020	0.222818	-0.000026
H200	H	0.440353	0.556151	0.333308
H201	H	0.773687	0.889484	0.666641
H202	H	0.140200	-0.027432	-0.000031
H203	H	0.473534	0.305901	0.333302
H204	H	0.806867	0.639234	0.666636
H205	H	1.021028	-0.287541	-0.000014
H206	H	1.354361	0.045792	0.333319
H207	H	1.687695	0.379125	0.666653
Br208	Br	0.735973	-0.084743	-0.000028
Br209	Br	1.069306	0.248591	0.333306
Br210	Br	1.402640	0.581924	0.666639
Br211	Br	1.015399	-0.019461	0.180190
Br212	Br	1.348732	0.313872	0.513523
Br213	Br	1.682066	0.647205	0.846856
H214	H	0.647550	0.231432	-0.000013
H215	H	0.980883	0.564765	0.333320
H216	H	1.314216	0.898099	0.666654
Br217	Br	0.772361	0.223471	0.819784
Br218	Br	1.105695	0.556804	1.153117
Br219	Br	1.439028	0.890138	1.486450
Br220	Br	1.015401	-0.019462	0.384185
Br221	Br	1.348734	0.313871	0.717518
Br222	Br	1.682067	0.647205	1.050852
Br223	Br	0.477932	0.266247	-0.000019
Br224	Br	0.811265	0.599580	0.333314
Br225	Br	1.144599	0.932914	0.666647
Br226	Br	1.054744	-0.525172	-0.000021
Br227	Br	1.388077	-0.191838	0.333312
Br228	Br	1.721411	0.141495	0.666646
H229	H	0.987446	0.008529	0.796272
H230	H	1.320779	0.341862	1.129606
H231	H	1.654113	0.675195	1.462939
Br232	Br	1.015425	-0.019447	0.615758
Br233	Br	1.348758	0.313887	0.949092
Br234	Br	1.682091	0.647220	1.282425
Br235	Br	1.051772	-0.711248	-0.000015
Br236	Br	1.385106	-0.377915	0.333319
Br237	Br	1.718439	-0.044581	0.666652
H238	H	0.680728	-0.018817	-0.000007
H239	H	1.014061	0.314516	0.333327
H240	H	1.347395	0.647849	0.666660
