data_functionalizedCrystal
_audit_creation_method	'MofGen! by Chris Wilmer'
_symmetry_space_group_name_H-M	'P1'
_symmetry_Int_Tables_number	1
_symmetry_cell_setting	triclinic
loop_
_symmetry_equiv_pos_as_xyz
  x,y,z
_cell_length_a	16.109302
_cell_length_b	10.654550
_cell_length_c	15.186229
_cell_angle_alpha	89.996404
_cell_angle_beta	89.994701
_cell_angle_gamma	83.973356
loop_
_atom_site_label
_atom_site_type_symbol
_atom_site_fract_x
_atom_site_fract_y
_atom_site_fract_z
O1	O	1.104090	0.161423	-0.073268
O2	O	1.604090	0.661423	0.426732
O3	O	0.862148	0.181511	-0.073261
O4	O	1.362148	0.681511	0.426739
O5	O	0.988681	-0.011348	-0.073259
O6	O	1.488681	0.488652	0.426741
O7	O	0.977556	0.354282	-0.073270
O8	O	1.477556	0.854282	0.426730
O9	O	0.988673	-0.011350	0.073198
O10	O	1.488673	0.488650	0.573198
O11	O	0.862139	0.181508	0.073196
O12	O	1.362139	0.681508	0.573196
O13	O	1.104081	0.161421	0.073189
O14	O	1.604081	0.661421	0.573189
Zn15	Zn	0.983109	0.171464	0.096446
Zn16	Zn	1.483109	0.671464	0.596446
Zn17	Zn	0.983120	0.171467	-0.096518
Zn18	Zn	1.483120	0.671467	0.403482
O19	O	0.977548	0.354279	0.073187
O20	O	1.477548	0.854279	0.573187
C21	C	0.831164	0.180695	-0.000031
C22	C	1.331164	0.680695	0.499969
C23	C	0.738854	0.178255	-0.000029
C24	C	1.238854	0.678255	0.499971
C25	C	0.526475	0.172612	0.079797
C26	C	1.026475	0.672612	0.579797
C27	C	0.439741	0.170306	0.079794
C28	C	0.939741	0.670306	0.579794
C29	C	0.439761	0.170315	-0.079882
C30	C	0.939761	0.670315	0.420118
C31	C	0.526494	0.172612	-0.079878
C32	C	1.026494	0.672612	0.420122
C33	C	0.569848	0.173767	-0.000036
C34	C	1.069848	0.673767	0.499964
C35	C	0.396381	0.169164	-0.000043
C36	C	0.896381	0.669164	0.499957
C37	C	0.302341	0.166664	-0.000047
C38	C	0.802341	0.666664	0.499953
C39	C	0.663895	0.176265	-0.000032
C40	C	1.163895	0.676265	0.499968
C41	C	0.987860	-0.058136	-0.000031
C42	C	1.487860	0.441864	0.499969
C43	C	0.985416	-0.197546	-0.000032
C44	C	1.485416	0.302454	0.499968
C45	C	1.059917	-0.278042	-0.000035
C46	C	1.559917	0.221958	0.499965
C47	C	1.057616	-0.409032	-0.000045
C48	C	1.557616	0.090968	0.499955
C49	C	0.906306	-0.379016	-0.000047
C50	C	1.406306	0.120984	0.499953
C51	C	0.908608	-0.248029	-0.000043
C52	C	1.408608	0.251971	0.499957
C53	C	1.145364	-0.606066	-0.051363
C54	C	1.645364	-0.106066	0.448637
C55	C	1.219869	-0.686567	-0.051351
C56	C	1.719869	-0.186567	0.448649
C57	C	1.287407	-0.657312	-0.000028
C58	C	1.787407	-0.157312	0.499972
C59	C	1.280443	-0.547558	0.051303
C60	C	1.780443	-0.047558	0.551303
C61	C	1.205936	-0.467063	0.051298
C62	C	1.705936	0.032937	0.551298
C63	C	1.138401	-0.496317	-0.000045
C64	C	1.638401	0.003683	0.499955
C65	C	0.820866	-0.050994	0.051282
C66	C	1.320866	0.449006	0.551282
C67	C	0.746359	0.029503	0.051284
C68	C	1.246359	0.529503	0.551284
C69	C	0.678813	0.000252	-0.000033
C70	C	1.178813	0.500252	0.499967
C71	C	0.685769	-0.109504	-0.051351
C72	C	1.185769	0.390496	0.448649
C73	C	0.760277	-0.190001	-0.051353
C74	C	1.260277	0.309999	0.448647
C75	C	0.827822	-0.160741	-0.000037
C76	C	1.327822	0.339259	0.499963
C77	C	1.135065	0.162236	-0.000042
C78	C	1.635065	0.662236	0.499958
C79	C	1.227375	0.164676	-0.000051
C80	C	1.727375	0.664676	0.499949
C81	C	0.978369	0.401067	-0.000043
C82	C	1.478369	0.901067	0.499957
C83	C	0.980813	0.540477	-0.000047
C84	C	1.480813	1.040477	0.499953
N85	N	0.983107	0.171461	0.228139
N86	N	1.483107	0.671461	0.728139
N87	N	0.983128	0.171461	-0.228210
N88	N	1.483128	0.671461	0.271790
C89	C	1.039156	0.086092	0.453862
C90	C	1.539156	0.586092	0.953862
C91	C	1.039159	0.086089	0.546052
C92	C	1.539159	0.586089	1.046052
C93	C	0.927074	0.256834	0.546059
C94	C	1.427074	0.756834	1.046059
C95	C	0.927068	0.256830	0.453872
C96	C	1.427068	0.756830	0.953872
C97	C	0.983113	0.171460	0.407775
C98	C	1.483113	0.671460	0.907775
C99	C	0.983122	0.171461	0.592153
C100	C	1.483122	0.671461	1.092153
C101	C	0.983124	0.171459	0.692109
C102	C	1.483124	0.671459	1.192109
C103	C	0.983110	0.171461	0.307813
C104	C	1.483110	0.671461	0.807813
H105	H	0.404451	0.169377	-0.144887
H106	H	0.904451	0.669377	0.355113
H107	H	0.843771	-0.420136	-0.000054
H108	H	1.343771	0.079864	0.499946
H109	H	0.881427	0.326347	0.416345
H110	H	1.381427	0.826347	0.916345
C111	C	0.767928	-0.310732	-0.107812
C112	C	1.267928	0.189268	0.392188
N113	N	0.773692	-0.401663	-0.150338
N114	N	1.273692	0.098337	0.349662
C115	C	0.574208	0.173876	-0.167705
C116	C	1.074208	0.673876	0.332295
N117	N	0.610146	0.174822	-0.233854
N118	N	1.110146	0.674822	0.266146
H119	H	0.618142	0.065796	-0.000016
H120	H	1.118142	0.565796	0.499984
C121	C	0.865425	0.350733	0.596774
C122	C	1.365425	0.850733	1.096774
N123	N	0.818990	0.421459	0.634971
N124	N	1.318990	0.921459	1.134971
C125	C	0.574162	0.173867	0.167625
C126	C	1.074162	0.673867	0.667625
N127	N	0.610079	0.174807	0.233780
N128	N	1.110079	0.674807	0.733780
H129	H	1.084792	0.016573	0.583574
H130	H	1.584792	0.516573	1.083574
H131	H	0.404430	0.169366	0.144802
H132	H	0.904430	0.669366	0.644802
C133	C	0.611467	-0.141683	-0.107805
C134	C	1.111467	0.358317	0.392195
N135	N	0.555499	-0.165917	-0.150324
N136	N	1.055499	0.334083	0.349676
C137	C	1.144408	-0.222516	-0.000032
C138	C	1.644408	0.277484	0.499968
N139	N	1.208050	-0.180697	-0.000035
N140	N	1.708050	0.319303	0.499965
H141	H	1.335438	-0.523757	0.093101
H142	H	1.835438	-0.023757	0.593101
C143	C	1.198275	-0.346337	0.107754
C144	C	1.698275	0.153663	0.607754
N145	N	1.192509	-0.255399	0.150274
N146	N	1.692509	0.244601	0.650274
H147	H	1.225534	-0.775927	-0.093151
H148	H	1.725534	-0.275927	0.406849
C149	C	1.071073	-0.638254	-0.107829
C150	C	1.571073	-0.138254	0.392171
N151	N	1.015115	-0.662506	-0.150356
N152	N	1.515115	-0.162506	0.349644
C153	C	0.738712	0.150245	0.107731
C154	C	1.238712	0.650245	0.607731
N155	N	0.732955	0.241191	0.150242
N156	N	1.232955	0.741191	0.650242
C157	C	0.895168	-0.018806	0.107736
C158	C	1.395168	0.481194	0.607736
N159	N	0.951130	0.005438	0.150261
N160	N	1.451130	0.505438	0.650261
C161	C	1.100801	-0.007827	0.403160
C162	C	1.600801	0.492173	0.903160
N163	N	1.147232	-0.078574	0.364973
N164	N	1.647232	0.421426	0.864973
H165	H	1.348070	-0.722865	-0.000019
H166	H	1.848070	-0.222865	0.499981
