data_functionalizedCrystal
_audit_creation_method	'MofGen! by Chris Wilmer'
_symmetry_space_group_name_H-M	'P1'
_symmetry_Int_Tables_number	1
_symmetry_cell_setting	triclinic
loop_
_symmetry_equiv_pos_as_xyz
  x,y,z
_cell_length_a	10.540539
_cell_length_b	10.540539
_cell_length_c	9.616153
_cell_angle_alpha	90.000094
_cell_angle_beta	89.995174
_cell_angle_gamma	95.474508
loop_
_atom_site_label
_atom_site_type_symbol
_atom_site_fract_x
_atom_site_fract_y
_atom_site_fract_z
O1	O	1.685892	-0.178895	-0.115573
O2	O	1.316479	-0.195751	-0.115589
O3	O	1.509614	-0.002617	-0.115579
O4	O	1.492758	-0.372030	-0.115583
O5	O	1.509587	-0.002621	0.115712
O6	O	1.316452	-0.195755	0.115702
O7	O	1.685865	-0.178899	0.115718
Zn8	Zn	1.501155	-0.187328	0.152433
Zn9	Zn	1.501190	-0.187323	-0.152304
O10	O	1.492731	-0.372034	0.115708
C11	C	1.269163	-0.194489	0.000054
C12	C	1.128215	-0.190707	0.000048
C13	C	1.508336	0.044684	0.000064
C14	C	1.504554	0.185632	0.000056
C15	C	0.944788	-0.045790	0.000589
C16	C	1.091406	-0.049624	0.000054
C17	C	1.066557	-0.258600	-0.132027
C18	C	0.920013	-0.253785	-0.132123
C19	C	0.919494	-0.256660	0.130899
C20	C	1.066476	-0.257959	0.132630
C21	C	1.733182	-0.180161	0.000072
C22	C	1.874130	-0.183943	0.000069
C23	C	1.494008	-0.419335	0.000062
C24	C	1.497790	-0.560283	0.000060
N25	N	1.501140	-0.187331	0.360407
C26	C	1.359637	0.369059	-0.000469
C27	C	1.363471	0.222441	0.000052
C28	C	1.572435	0.247288	0.132138
C29	C	1.567620	0.393832	0.132249
C30	C	1.570519	0.394355	-0.130772
C31	C	1.571819	0.247373	-0.132518
N32	N	1.501215	-0.187310	-0.360278
C33	C	1.397510	-0.290298	0.580772
C34	C	1.397739	-0.290684	0.419604
C35	C	1.633864	-0.217464	0.418862
C36	C	1.633299	-0.218193	0.580080
C37	C	1.473368	-0.053892	0.580319
C38	C	1.470321	-0.054757	0.419092
H39	H	0.916192	0.009944	0.095307
H40	H	1.109157	-0.211434	-0.230318
N41	N	0.856430	-0.388168	-0.140035
H42	H	0.882353	-0.438401	-0.057008
H43	H	0.883527	-0.429967	-0.228297
H44	H	1.378631	-0.025213	0.621052
N45	N	1.146713	0.021626	-0.125584
H46	H	1.192490	-0.037960	-0.185774
H47	H	1.208813	0.094934	-0.094221
N48	N	1.120706	-0.192265	0.262063
H49	H	1.163787	-0.255087	0.320705
H50	H	1.049609	-0.158455	0.317142
H51	H	0.914592	0.009712	-0.093600
H52	H	0.887936	-0.211004	0.231010
N53	N	1.420915	-0.420677	0.634394
H54	H	1.353889	-0.486270	0.596030
H55	H	1.416515	-0.421004	0.739312
N56	N	1.501141	0.431197	0.263022
H57	H	1.475231	0.352505	0.320053
H58	H	1.422845	0.474284	0.237314
N59	N	1.098553	-0.394211	0.143202
H60	H	1.153804	-0.414366	0.061831
H61	H	1.017321	-0.453353	0.142076
N62	N	1.286093	0.409047	0.124290
H63	H	1.208033	0.449326	0.092046
H64	H	1.341970	0.472693	0.181096
N65	N	1.738625	-0.122657	0.631746
H66	H	1.785224	-0.080264	0.549789
H67	H	1.800202	-0.167791	0.689966
H68	H	0.872267	-0.358563	0.131790
H69	H	1.298585	-0.272445	0.619578
H70	H	1.669084	0.441801	0.138246
N71	N	0.882640	-0.187306	-0.262883
H72	H	0.909010	-0.235957	-0.346898
H73	H	0.926625	-0.097904	-0.264983
N74	N	1.096175	-0.395836	-0.138564
H75	H	1.149975	-0.415364	-0.055775
H76	H	1.144296	-0.410336	-0.227090
N77	N	1.292720	0.166007	-0.125363
H78	H	1.334432	0.202829	-0.212911
H79	H	1.201257	0.186965	-0.121808
H80	H	1.525259	0.204686	0.230425
N81	N	1.705503	0.456902	-0.131953
H82	H	1.719532	0.514347	-0.048199
H83	H	1.720204	0.508988	-0.219630
N84	N	1.285814	0.406941	-0.125926
H85	H	1.341202	0.470277	-0.183639
H86	H	1.207411	0.446973	-0.094295
N87	N	1.267113	-0.266673	0.367242
H88	H	1.208864	-0.255744	0.448889
H89	H	1.231309	-0.341450	0.309056
H90	H	1.309662	0.180683	0.094886
H91	H	1.676042	0.224933	0.137054
N92	N	1.666844	-0.344947	0.365381
H93	H	1.752404	-0.363484	0.403576
H94	H	1.670600	-0.342870	0.260450
N95	N	1.510063	0.436151	-0.263384
H96	H	1.434909	0.484924	-0.239989
H97	H	1.480196	0.358720	-0.320700
H98	H	1.415638	-0.389668	0.381024
N99	N	1.738589	-0.120819	0.368083
H100	H	1.700915	-0.056420	0.306548
H101	H	1.802892	-0.165629	0.313399
H102	H	1.522152	0.206516	-0.230229
N103	N	1.573512	0.047643	0.630839
H104	H	1.531463	0.113592	0.686030
H105	H	1.619523	0.089775	0.548380
H106	H	1.674680	0.223152	-0.140490
N107	N	1.665559	-0.347122	0.629885
H108	H	1.680010	-0.402949	0.547112
H109	H	1.592784	-0.388182	0.687570
N110	N	1.340946	-0.024537	0.368586
H111	H	1.302454	-0.096408	0.307931
H112	H	1.350319	0.057149	0.313055
N113	N	1.563749	0.051641	0.365743
H114	H	1.516386	0.114750	0.312215
H115	H	1.627634	0.015141	0.302555
N116	N	1.147851	0.021128	0.125464
H117	H	1.077492	0.055096	0.181592
H118	H	1.209888	0.094382	0.093817
