data_functionalizedCrystal
_audit_creation_method	'MofGen! by Chris Wilmer'
_symmetry_space_group_name_H-M	'P1'
_symmetry_Int_Tables_number	1
_symmetry_cell_setting	triclinic
loop_
_symmetry_equiv_pos_as_xyz
  x,y,z
_cell_length_a	10.654554
_cell_length_b	10.654551
_cell_length_c	16.776229
_cell_angle_alpha	89.996205
_cell_angle_beta	89.994241
_cell_angle_gamma	84.486053
loop_
_atom_site_label
_atom_site_type_symbol
_atom_site_fract_x
_atom_site_fract_y
_atom_site_fract_z
O1	O	1.667843	0.176428	-0.066258
O2	O	1.302365	0.193229	-0.066265
O3	O	1.493507	0.002090	-0.066262
O4	O	1.476702	0.367568	-0.066261
O5	O	1.493481	0.002077	0.066315
O6	O	1.302340	0.193217	0.066312
O7	O	1.667817	0.176416	0.066318
Zn8	Zn	1.485074	0.184815	0.087365
Zn9	Zn	1.485108	0.184831	-0.087311
O10	O	1.476676	0.367556	0.066315
C11	C	1.255555	0.191988	0.000023
C12	C	1.116112	0.188294	0.000020
C13	C	0.905604	0.297367	0.000028
C14	C	1.036625	0.300839	0.000021
C15	C	1.064571	0.072269	0.000017
C16	C	0.933552	0.068799	0.000017
C17	C	0.826123	0.409919	0.000037
C18	C	0.877654	0.525944	0.000039
C19	C	1.008676	0.529416	0.000032
C20	C	1.088166	0.416863	0.000025
C21	C	1.492260	-0.044714	0.000025
C22	C	1.488567	-0.184158	0.000019
C23	C	1.486849	-0.249663	-0.072247
C24	C	1.483369	-0.380684	-0.072243
C25	C	1.483330	-0.380682	0.072299
C26	C	1.486802	-0.249663	0.072295
C27	C	1.488615	-0.184158	-0.144522
C28	C	1.486898	-0.249663	-0.216794
C29	C	1.483418	-0.380684	-0.216790
C30	C	1.481654	-0.446199	-0.144515
C31	C	1.714628	0.177657	0.000029
C32	C	1.854071	0.181351	0.000027
C33	C	1.477923	0.414360	0.000027
C34	C	1.481616	0.553803	0.000028
N35	N	1.485061	0.184803	0.206576
N36	N	1.485132	0.184832	-0.206522
C37	C	1.569724	0.100202	0.248294
C38	C	1.569731	0.100201	0.331746
C39	C	1.485080	0.184808	0.373479
C40	C	1.400407	0.269413	0.331754
C41	C	1.400395	0.269407	0.248304
C42	C	1.400452	0.269438	0.668302
C43	C	1.400474	0.269440	0.751758
C44	C	1.569789	0.100232	0.751744
C45	C	1.569777	0.100226	0.668294
C46	C	1.485100	0.184826	0.626577
C47	C	1.485092	0.184824	0.536088
C48	C	1.485093	0.184817	0.463966
H49	H	0.891594	-0.025671	0.000016
H50	H	1.050629	0.623888	0.000027
H51	H	1.488174	-0.196324	0.131140
H52	H	1.194851	0.419699	0.000003
H53	H	1.331508	0.338325	0.634342
H54	H	1.638670	0.031312	0.365713
C55	C	1.481568	-0.452741	-0.296290
N56	N	1.480198	-0.507015	-0.356172
C57	C	1.307277	0.362470	0.377663
N58	N	1.237129	0.432563	0.412241
C59	C	1.307338	0.362511	0.797662
N60	N	1.237190	0.432608	0.832237
C61	C	1.307268	0.362485	0.202414
N62	N	1.237123	0.432595	0.167851
C63	C	1.492323	-0.040018	-0.144532
N64	N	1.495074	0.068553	-0.144539
C65	C	1.662849	0.007125	0.202396
N66	N	1.732989	-0.062988	0.167828
H67	H	1.488322	-0.196311	-0.275638
C68	C	1.662897	0.007149	0.622393
N69	N	1.733033	-0.062963	0.587821
H70	H	1.478802	-0.552882	-0.144518
H71	H	0.719437	0.407105	0.000045
C72	C	1.152014	-0.051530	0.000020
N73	N	1.217876	-0.144777	0.000027
C74	C	0.790214	0.649745	0.000045
N75	N	0.724355	0.742994	0.000050
C76	C	1.481398	-0.452755	0.151797
N77	N	1.479947	-0.507040	0.211675
C78	C	1.662925	0.007158	0.797640
N79	N	1.733074	-0.062942	0.832208
