data_functionalizedCrystal
_audit_creation_method	'MofGen! by Chris Wilmer'
_symmetry_space_group_name_H-M	'P1'
_symmetry_Int_Tables_number	1
_symmetry_cell_setting	triclinic
loop_
_symmetry_equiv_pos_as_xyz
  x,y,z
_cell_length_a	10.540539
_cell_length_b	17.038272
_cell_length_c	9.016244
_cell_angle_alpha	89.997742
_cell_angle_beta	89.994699
_cell_angle_gamma	87.818524
loop_
_atom_site_label
_atom_site_type_symbol
_atom_site_fract_x
_atom_site_fract_y
_atom_site_fract_z
O1	O	1.696177	0.110247	-0.123272
O2	O	1.327733	0.120634	-0.123290
O3	O	1.509765	0.001613	-0.123269
O4	O	1.514144	0.229268	-0.123293
O5	O	1.509737	0.001615	0.123411
O6	O	1.327704	0.120637	0.123390
O7	O	1.696149	0.110249	0.123409
Cu8	Cu	1.511924	0.115443	0.145924
Cu9	Cu	1.511957	0.115440	-0.145805
O10	O	1.514116	0.229271	0.123388
C11	C	1.280343	0.119857	0.000048
C12	C	1.139177	0.117526	0.000041
C13	C	1.505768	-0.027537	0.000071
C14	C	1.493883	-0.114398	0.000070
C15	C	0.947420	0.028219	0.000626
C16	C	1.094259	0.030581	0.000055
C17	C	1.081424	0.159366	-0.140824
C18	C	0.934603	0.156399	-0.140927
C19	C	0.934247	0.158170	0.139595
C20	C	1.081304	0.158971	0.141442
C21	C	1.602994	-0.163886	0.000077
C22	C	1.591820	-0.245501	0.000062
C23	C	1.471534	-0.277626	0.000051
C24	C	1.362416	-0.228133	0.000039
C25	C	1.373591	-0.146519	0.000044
C26	C	1.432055	-0.523611	0.000029
C27	C	1.420888	-0.605231	0.000029
C28	C	1.650293	-0.622593	0.000049
C29	C	1.661457	-0.540977	0.000062
C30	C	1.552339	-0.491491	0.000042
C31	C	1.460110	-0.361050	0.000041
C32	C	1.563764	-0.408069	0.000042
C33	C	1.743538	0.111027	0.000068
C34	C	1.884704	0.113358	0.000065
C35	C	1.518114	0.258421	0.000045
C36	C	1.529998	0.345282	0.000036
N37	N	1.511910	0.115445	0.351110
N38	N	1.511981	0.115432	-0.350991
C39	C	1.414197	0.178900	0.586131
C40	C	1.414449	0.179138	0.414240
C41	C	1.646365	0.134015	0.413453
C42	C	1.645841	0.134465	0.585397
C43	C	1.476465	0.033212	0.585660
C44	C	1.473470	0.033745	0.413706
H45	H	1.133790	-0.002340	0.101034
C46	C	1.253570	-0.092083	0.000040
H47	H	1.180331	-0.122904	0.000045
H48	H	1.253173	-0.059883	-0.085983
H49	H	1.253150	-0.059888	0.086074
H50	H	1.264477	-0.254296	0.000021
H51	H	0.900064	0.130034	0.246370
H52	H	1.362173	-0.387215	0.000035
H53	H	1.343202	-0.483328	0.000013
H54	H	1.676795	0.193323	0.370370
C55	C	1.119672	0.245618	-0.147931
H56	H	1.171331	0.256905	-0.064857
H57	H	1.045537	0.279106	-0.146623
H58	H	1.165772	0.254052	-0.236695
C59	C	1.279805	0.164099	0.357287
H60	H	1.279775	0.164236	0.251918
H61	H	1.222503	0.204231	0.392617
H62	H	1.254072	0.114555	0.392178
C63	C	1.121997	0.244607	0.152928
H64	H	1.085682	0.268173	0.239308
H65	H	1.093507	0.272957	0.067745
H66	H	1.211915	0.245521	0.158839
H67	H	1.661700	-0.381909	0.000018
H68	H	1.739130	-0.662893	0.000062
C69	C	0.902324	-0.017996	-0.135067
H70	H	0.940659	-0.069367	-0.133872
H71	H	0.925869	0.008236	-0.223283
H72	H	0.812614	-0.021378	-0.131741
C73	C	1.346230	0.009351	0.644285
H74	H	1.312294	0.049316	0.707951
H75	H	1.355895	-0.038516	0.697842
H76	H	1.290138	0.002555	0.563219
C77	C	0.878369	0.243006	0.140875
H78	H	0.825100	0.251108	0.056841
H79	H	0.945394	0.278696	0.137771
H80	H	0.830115	0.251545	0.228791
H81	H	1.374519	0.019669	0.372961
H82	H	0.892467	0.218928	-0.147327
C83	C	1.135294	0.120098	-0.282443
H84	H	1.192965	0.078212	-0.256026
H85	H	1.178372	0.157679	-0.339444
H86	H	1.067769	0.100160	-0.339217
H87	H	1.700943	-0.137736	0.000095
C88	C	1.288568	-0.640567	-0.000008
H89	H	1.225180	-0.599407	-0.000038
H90	H	1.279418	-0.672047	0.086009
H91	H	1.279472	-0.672041	-0.086048
H92	H	1.314246	0.167898	0.627521
H93	H	1.119403	0.128406	0.245654
C94	C	1.445705	0.260842	0.644459
H95	H	1.518195	0.256542	0.706959
H96	H	1.375556	0.282217	0.699196
H97	H	1.462829	0.294316	0.563194
H98	H	1.438038	0.240138	0.373088
C99	C	1.686283	0.215501	0.639556
H100	H	1.702872	0.247838	0.556473
H101	H	1.760857	0.209329	0.698209
H102	H	1.620049	0.239337	0.697377
C103	C	1.747696	0.074445	0.641592
H104	H	1.789220	0.049901	0.559331
H105	H	1.708629	0.035805	0.700153
H106	H	1.808097	0.100609	0.699938
H107	H	1.721226	0.089051	0.372556
C108	C	0.904450	-0.018188	0.137086
H109	H	0.943356	-0.069401	0.135351
H110	H	0.814781	-0.021959	0.135217
H111	H	0.928722	0.008161	0.224887
C112	C	1.711841	-0.299933	0.000085
H113	H	1.785079	-0.269111	0.000114
H114	H	1.712273	-0.332131	-0.085938
H115	H	1.712230	-0.332132	0.086119
H116	H	1.539380	-0.015754	0.370738
H117	H	1.759406	-0.514827	0.000071
C118	C	1.572637	-0.030610	0.640598
H119	H	1.550685	-0.080158	0.601948
H120	H	1.571209	-0.032401	0.745887
H121	H	1.655355	-0.018646	0.607832
H122	H	1.132923	-0.002574	-0.101092
H123	H	0.903520	0.125473	-0.246219
