data_functionalizedCrystal
_audit_creation_method	'MofGen! by Chris Wilmer'
_symmetry_space_group_name_H-M	'P1'
_symmetry_Int_Tables_number	1
_symmetry_cell_setting	triclinic
loop_
_symmetry_equiv_pos_as_xyz
  x,y,z
_cell_length_a	10.540539
_cell_length_b	9.616153
_cell_length_c	9.065218
_cell_angle_alpha	90.001822
_cell_angle_beta	95.229312
_cell_angle_gamma	90.001256
loop_
_atom_site_label
_atom_site_type_symbol
_atom_site_fract_x
_atom_site_fract_y
_atom_site_fract_z
O1	O	1.686655	0.115574	-0.207922
O2	O	1.317314	0.115591	-0.227514
O3	O	1.509619	0.115579	-0.003037
O4	O	1.494350	0.115585	-0.432399
O5	O	1.509604	-0.115712	-0.003050
O6	O	1.317300	-0.115701	-0.227526
O7	O	1.686641	-0.115717	-0.207935
Zn8	Zn	1.501968	-0.152432	-0.217733
Zn9	Zn	1.501987	0.152305	-0.217716
O10	O	1.494336	-0.115706	-0.432411
C11	C	1.269999	-0.000053	-0.226051
C12	C	1.129034	-0.000047	-0.221655
N13	N	1.501965	-0.360406	-0.217743
C14	C	1.399049	-0.419442	-0.337804
C15	C	1.398696	-0.580609	-0.337459
C16	C	1.471838	-0.581191	-0.063258
C17	C	1.471077	-0.419974	-0.063990
C18	C	1.635349	-0.419797	-0.250726
C19	C	1.634518	-0.581026	-0.254186
C20	C	0.944985	-0.000589	-0.053221
C21	C	1.091619	-0.000053	-0.057677
C22	C	1.067662	0.132028	-0.300561
C23	C	0.921096	0.132124	-0.294965
C24	C	0.920604	-0.130897	-0.298315
C25	C	1.067592	-0.132628	-0.299826
C26	C	1.733956	-0.000071	-0.209398
C27	C	1.874920	-0.000068	-0.213794
C28	C	1.508144	-0.000064	0.051936
C29	C	1.503757	-0.000057	0.215756
N30	N	1.502000	0.360279	-0.217694
C31	C	1.495811	-0.000060	-0.487384
C32	C	1.500198	-0.000057	-0.651205
H33	H	1.416843	-0.620185	-0.452191
Cl34	Cl	1.584427	-0.640297	0.078158
H35	H	0.892676	0.230850	-0.236635
Cl36	Cl	1.758477	-0.643144	-0.128145
Cl37	Cl	1.323315	-0.643554	-0.017821
Cl38	Cl	1.320830	-0.361944	-0.019598
H39	H	1.664012	-0.379149	-0.361057
Cl40	Cl	1.669813	-0.640082	-0.429607
H41	H	1.133998	-0.094731	0.004410
Cl42	Cl	1.753619	-0.360838	-0.115592
Cl43	Cl	0.900465	-0.146828	0.046791
H44	H	1.416906	-0.380689	-0.452930
Cl45	Cl	1.105664	-0.144936	-0.484412
Cl46	Cl	1.247128	-0.356931	-0.305409
Cl47	Cl	1.582301	-0.359666	0.078252
H48	H	0.914545	0.093600	0.011291
Cl49	Cl	0.871597	-0.285464	-0.216385
Cl50	Cl	1.245934	-0.640200	-0.304578
H51	H	1.133139	0.094786	0.004858
H52	H	1.110053	0.230320	-0.245738
Cl53	Cl	0.847704	0.141386	-0.477034
Cl54	Cl	1.102897	0.139654	-0.486468
H55	H	1.108335	-0.230337	-0.242182
Cl56	Cl	0.848367	-0.132274	-0.481176
