data_functionalizedCrystal
_audit_creation_method	'MofGen! by Chris Wilmer'
_symmetry_space_group_name_H-M	'P1'
_symmetry_Int_Tables_number	1
_symmetry_cell_setting	triclinic
loop_
_symmetry_equiv_pos_as_xyz
  x,y,z
_cell_length_a	8.559649
_cell_length_b	8.559649
_cell_length_c	7.681481
_cell_angle_alpha	94.913240
_cell_angle_beta	85.069100
_cell_angle_gamma	69.778664
loop_
_atom_site_label
_atom_site_type_symbol
_atom_site_fract_x
_atom_site_fract_y
_atom_site_fract_z
O1	O	0.037797	-2.109661	0.146402
O2	O	-0.045985	-1.634175	0.146408
O3	O	0.233649	-1.913809	0.146402
O4	O	-0.241837	-1.830027	0.146407
O5	O	0.268136	-1.948236	-0.146456
O6	O	-0.011497	-1.668602	-0.146450
O7	O	0.072285	-2.144088	-0.146457
Zn8	Zn	0.035869	-1.911811	-0.192951
Zn9	Zn	-0.009570	-1.866452	0.192902
O10	O	-0.207349	-1.864454	-0.146451
C11	C	0.311201	-1.937371	-0.000024
C12	C	0.490899	-1.956269	-0.000014
C13	C	-0.035090	-1.591080	-0.000020
C14	C	-0.053990	-1.411380	-0.000017
C15	C	0.061390	-2.187183	-0.000025
C16	C	0.080288	-2.366881	-0.000016
C17	C	-0.284902	-1.840891	-0.000021
C18	C	-0.464601	-1.821992	-0.000019
N19	N	0.066883	-1.942779	-0.456286
N20	N	-0.040569	-1.835499	0.456237
H21	H	0.436021	-1.692573	-0.000023
H22	H	0.590289	-2.085699	-0.000030
C23	C	0.213194	-2.088968	-0.556234
C24	C	0.307666	-2.183326	-0.436219
C25	C	0.442446	-2.318014	-0.528225
H26	H	0.282071	-2.047394	-0.628172
H27	H	0.171650	-2.157922	-0.628103
H28	H	0.349211	-2.114384	-0.364380
H29	H	0.238837	-2.224940	-0.364277
H30	H	0.400902	-2.386968	-0.600094
H31	H	0.511310	-2.276425	-0.600160
H32	H	0.506553	-2.382061	-0.446809
C33	C	0.252997	-1.499238	-0.000292
C34	C	0.357094	-1.498584	-0.150937
C35	C	0.516213	-1.620482	-0.151237
H36	H	0.243440	-1.606551	-0.000383
H37	H	0.299893	-1.475034	0.101783
H38	H	0.310208	-1.522798	-0.252985
H39	H	0.366700	-1.391300	-0.150878
H40	H	0.563109	-1.596279	-0.049163
H41	H	0.506639	-1.727786	-0.151324
H42	H	0.586866	-1.620044	-0.253439
C43	C	-0.226728	-1.279108	0.000079
C44	C	-0.346816	-1.356166	0.000120
C45	C	-0.505959	-1.234369	0.000232
H46	H	-0.228030	-1.223629	-0.102015
H47	H	-0.251932	-1.199704	0.102251
H48	H	-0.321620	-1.435540	-0.102042
H49	H	-0.345568	-1.411636	0.102206
H50	H	-0.531163	-1.154965	0.102405
H51	H	-0.507243	-1.178898	-0.101863
H52	H	-0.587460	-1.286633	0.000277
H53	H	-0.150245	-1.725988	-0.468564
