data_functionalizedCrystal
_audit_creation_method	'MofGen! by Chris Wilmer'
_symmetry_space_group_name_H-M	'P1'
_symmetry_Int_Tables_number	1
_symmetry_cell_setting	triclinic
loop_
_symmetry_equiv_pos_as_xyz
  x,y,z
_cell_length_a	14.908520
_cell_length_b	21.395364
_cell_length_c	21.395355
_cell_angle_alpha	90.025298
_cell_angle_beta	93.280325
_cell_angle_gamma	86.662564
loop_
_atom_site_label
_atom_site_type_symbol
_atom_site_fract_x
_atom_site_fract_y
_atom_site_fract_z
Zn1	Zn	-0.358872	-0.943514	-0.368657
Zn2	Zn	-0.509717	-0.937387	-0.269926
Zn3	Zn	-0.358916	-0.838727	-0.263894
Zn4	Zn	-0.509738	-0.832667	-0.374665
O5	O	-0.434311	-0.888074	-0.319286
O6	O	-0.378855	-1.030380	-0.355570
O7	O	-0.489723	-0.924271	-0.181448
O8	O	-0.232662	-0.857728	-0.272753
O9	O	-0.489680	-1.025878	-0.283032
O10	O	-0.232629	-0.934714	-0.349722
O11	O	-0.378930	-0.851786	-0.177017
O12	O	-0.378950	-0.750244	-0.278579
O13	O	-0.489715	-0.847400	-0.461546
O14	O	-0.489758	-0.745792	-0.359961
O15	O	-0.378875	-0.928838	-0.457132
O16	O	-0.635968	-0.918395	-0.288858
O17	O	-0.635984	-0.841458	-0.365810
C18	C	-0.434362	-0.725284	-0.319268
C19	C	-0.434405	-0.655641	-0.319276
C20	C	-0.376795	-0.625291	-0.357112
C21	C	-0.376774	-0.559856	-0.357113
C22	C	-0.434379	-0.524774	-0.319285
C23	C	-0.491994	-0.555132	-0.281441
C24	C	-0.492007	-0.620566	-0.281437
C25	C	-0.515630	-0.417802	-0.317502
C26	C	-0.515619	-0.352369	-0.317511
C27	C	-0.434339	-0.322955	-0.319294
C28	C	-0.353067	-0.358981	-0.321082
C29	C	-0.353080	-0.424415	-0.321078
C30	C	-0.434371	-0.453822	-0.319285
C31	C	-0.376700	-0.221653	-0.357133
C32	C	-0.376677	-0.156217	-0.357129
C33	C	-0.491906	-0.151494	-0.281462
C34	C	-0.491921	-0.216929	-0.281462
C35	C	-0.434319	-0.252004	-0.319301
C36	C	-0.668711	-0.878621	-0.328654
C37	C	-0.768988	-0.874635	-0.332682
C38	C	-0.957343	-0.947340	-0.260188
C39	C	-1.051562	-0.943597	-0.263971
C40	C	-1.051648	-0.863408	-0.344035
C41	C	-0.957429	-0.867151	-0.340252
C42	C	-0.910279	-0.909118	-0.298326
C43	C	-0.816058	-0.912858	-0.294540
C44	C	-0.816146	-0.832673	-0.374607
C45	C	-0.910365	-0.828929	-0.378390
C46	C	-0.198996	-0.897580	-0.309894
C47	C	-0.098718	-0.901631	-0.305893
C48	C	-0.434293	-0.888127	-0.482708
C49	C	-0.434285	-0.888149	-0.552349
C50	C	-0.434271	-0.051499	-0.319301
C51	C	-0.434283	-0.121139	-0.319300
C52	C	-0.376568	-0.930552	-0.582765
C53	C	-0.376529	-0.930553	-0.648199
C54	C	-0.434223	-0.888156	-0.683215
C55	C	-0.491944	-0.845745	-0.652792
C56	C	-0.491975	-0.845741	-0.587359
C57	C	-0.515458	-0.879933	-0.790136
C58	C	-0.515429	-0.879941	-0.855568
C59	C	-0.434128	-0.888164	-0.885032
C60	C	-0.352853	-0.896392	-0.849056
C61	C	-0.352884	-0.896388	-0.783623
C62	C	-0.434196	-0.888155	-0.754166
C63	C	-0.376364	-0.930570	-0.986398
C64	C	-0.376324	-0.930567	-1.051834
C65	C	-0.491747	-0.845762	-1.056426
C66	C	-0.491779	-0.845762	-0.990991
C67	C	-0.434089	-0.888170	-0.955982
C68	C	-0.434264	-0.888060	-0.156496
C69	C	-0.434018	-0.888169	-0.086845
H70	H	-0.538922	-0.645276	-0.250626
C71	C	-0.554429	-0.517084	-0.240263
C72	C	-0.534640	-0.533758	-0.177500
C73	C	-0.592128	-0.498716	-0.139546
H74	H	-0.615099	-0.525321	-0.251704
H75	H	-0.546166	-0.473761	-0.245643
H76	H	-0.542911	-0.577071	-0.172124
H77	H	-0.473980	-0.525518	-0.166040
H78	H	-0.583864	-0.455393	-0.144925
H79	H	-0.652795	-0.506956	-0.150992
H80	H	-0.578703	-0.510020	-0.096957
H81	H	-0.538714	-0.811236	-1.084935
C82	C	-0.765027	-0.958483	-0.249005
C83	C	-0.826415	-0.991166	-0.216428
C84	C	-0.779441	-1.033208	-0.174482
H85	H	-0.728327	-0.936059	-0.220151
H86	H	-0.728229	-0.987264	-0.271508
H87	H	-0.863197	-0.962389	-0.193925
H88	H	-0.863117	-1.013603	-0.245265
H89	H	-0.742644	-1.061990	-0.196985
H90	H	-0.742743	-1.010779	-0.145632
H91	H	-0.821085	-1.055393	-0.152377
C92	C	-0.554603	-0.799798	-0.958005
C93	C	-0.643855	-0.809845	-0.977493
C94	C	-0.701753	-0.767516	-0.947114
H95	H	-0.541526	-0.758207	-0.968162
H96	H	-0.546421	-0.805869	-0.914017
H97	H	-0.652034	-0.803769	-1.021471
H98	H	-0.656961	-0.851428	-0.967336
H99	H	-0.693571	-0.773587	-0.903126
H100	H	-0.688668	-0.725928	-0.957273
H101	H	-0.762318	-0.774331	-0.960328
H102	H	-1.090053	-0.829244	-0.378173
H103	H	-0.918953	-0.981507	-0.226046
H104	H	-1.089878	-0.974722	-0.232916
H105	H	-0.948767	-0.794763	-0.412527
C106	C	-0.313575	-0.976534	-0.948407
C107	C	-0.224306	-0.966485	-0.960723
C108	C	-0.166442	-1.008809	-0.925731
H109	H	-0.326638	-1.018126	-0.959646
H110	H	-0.321805	-0.970457	-0.905073
H111	H	-0.216081	-0.972567	-1.004047
H112	H	-0.211215	-0.924901	-0.949481
H113	H	-0.174672	-1.002732	-0.882397
H114	H	-0.179513	-1.050399	-0.936973
H115	H	-0.105866	-1.001993	-0.934078
H116	H	-0.777816	-0.801548	-0.405660
H117	H	-0.538810	-0.122931	-0.250661
C118	C	-0.313828	-0.976616	-0.544864
C119	C	-0.263255	-1.013741	-0.585511
C120	C	-0.205440	-1.056175	-0.550618
H121	H	-0.348240	-1.002580	-0.520725
H122	H	-0.274487	-0.954251	-0.517767
H123	H	-0.302591	-1.036105	-0.612597
H124	H	-0.228825	-0.987794	-0.609651
H125	H	-0.166100	-1.033809	-0.523520
H126	H	-0.239860	-1.082134	-0.526480
H127	H	-0.171114	-1.081365	-0.578191
C128	C	-0.264605	-0.905188	-0.744595
C129	C	-0.208872	-0.857131	-0.758246
C130	C	-0.127547	-0.865209	-0.722300
H131	H	-0.235622	-0.944465	-0.754143
H132	H	-0.276228	-0.903977	-0.701399
H133	H	-0.197248	-0.858348	-0.801432
H134	H	-0.237827	-0.817848	-0.748695
H135	H	-0.139170	-0.863998	-0.679104
H136	H	-0.098572	-0.904488	-0.731850
H137	H	-0.089726	-0.832601	-0.731552
C138	C	-0.314013	-0.976628	-0.681316
C139	C	-0.365078	-1.014709	-0.720954
C140	C	-0.307521	-1.057156	-0.751476
H141	H	-0.279639	-1.001943	-0.651165
H142	H	-0.274710	-0.954271	-0.705296
H143	H	-0.404364	-1.037065	-0.696976
H144	H	-0.399449	-0.989411	-0.751117
H145	H	-0.268218	-1.034799	-0.775455
H146	H	-0.273150	-1.082467	-0.721320
H147	H	-0.342159	-1.082995	-0.778378
H148	H	-0.329791	-0.250213	-0.387940
C149	C	-0.264580	-0.905179	-0.881063
C150	C	-0.253109	-0.852639	-0.918125
C151	C	-0.171798	-0.860704	-0.947614
H152	H	-0.265619	-0.941415	-0.906703
H153	H	-0.216158	-0.910043	-0.850281
H154	H	-0.301518	-0.847781	-0.948904
H155	H	-0.252053	-0.816396	-0.892500
H156	H	-0.123377	-0.865569	-0.916831
H157	H	-0.172845	-0.896942	-0.973250
H158	H	-0.164001	-0.825055	-0.972759
H159	H	-0.329318	-0.965096	-1.076596
H160	H	-0.581823	-0.441745	-0.316050
H161	H	-0.581608	-0.873245	-0.884855
H162	H	-0.581647	-0.873070	-0.766152
H163	H	-0.538917	-0.811223	-0.681306
C164	C	-0.554800	-0.799777	-0.554370
C165	C	-0.644051	-0.809827	-0.573860
C166	C	-0.701953	-0.767504	-0.543477
H167	H	-0.541726	-0.758184	-0.564522
H168	H	-0.546618	-0.805854	-0.510383
H169	H	-0.652229	-0.803745	-0.617838
H170	H	-0.657153	-0.851411	-0.563709
H171	H	-0.693771	-0.773580	-0.499490
H172	H	-0.688871	-0.725914	-0.553631
H173	H	-0.762517	-0.774320	-0.556692
C174	C	-0.314148	-0.663263	-0.398205
C175	C	-0.263671	-0.622673	-0.431327
C176	C	-0.205940	-0.657632	-0.469179
H177	H	-0.348616	-0.687407	-0.426897
H178	H	-0.274743	-0.690362	-0.372717
H179	H	-0.303070	-0.595585	-0.456813
H180	H	-0.229184	-0.598528	-0.402651
H181	H	-0.166535	-0.684731	-0.443691
H182	H	-0.240416	-0.681775	-0.497868
H183	H	-0.171679	-0.630098	-0.491652
H184	H	-0.329856	-0.535140	-0.387922
C185	C	-0.603942	-0.313368	-0.315535
C186	C	-0.675123	-0.353130	-0.313945
C187	C	-0.756499	-0.317226	-0.312114
H188	H	-0.612077	-0.287527	-0.351742
H189	H	-0.602727	-0.287886	-0.279154
H190	H	-0.676339	-0.378601	-0.350322
H191	H	-0.667017	-0.378971	-0.277740
H192	H	-0.755284	-0.291744	-0.275733
H193	H	-0.764626	-0.291388	-0.348322
H194	H	-0.804805	-0.344200	-0.311029
C195	C	-0.264751	-0.463420	-0.322980
C196	C	-0.193559	-0.423662	-0.324528
C197	C	-0.112175	-0.459572	-0.326269
H198	H	-0.265875	-0.488923	-0.359337
H199	H	-0.256707	-0.489239	-0.286745
H200	H	-0.201601	-0.397854	-0.360759
H201	H	-0.192406	-0.398159	-0.288174
H202	H	-0.104131	-0.485391	-0.290033
H203	H	-0.113308	-0.485074	-0.362626
H204	H	-0.063861	-0.432602	-0.327313
H205	H	-0.286881	-0.335034	-0.322534
H206	H	-0.538837	-0.241640	-0.250654
C207	C	-0.314235	-0.123292	-0.398320
C208	C	-0.334040	-0.138421	-0.461079
C209	C	-0.276544	-0.108096	-0.499043
H210	H	-0.253568	-0.136453	-0.386881
H211	H	-0.322478	-0.079292	-0.392946
H212	H	-0.325789	-0.182412	-0.466451
H213	H	-0.394697	-0.125259	-0.472537
H214	H	-0.284788	-0.064096	-0.493669
H215	H	-0.215881	-0.121259	-0.487600
H216	H	-0.289980	-0.118352	-0.541630
