data_functionalizedCrystal
_audit_creation_method	'MofGen! by Chris Wilmer'
_symmetry_space_group_name_H-M	'P1'
_symmetry_Int_Tables_number	1
_symmetry_cell_setting	triclinic
loop_
_symmetry_equiv_pos_as_xyz
  x,y,z
_cell_length_a	14.395555
_cell_length_b	14.395555
_cell_length_c	14.628931
_cell_angle_alpha	59.998850
_cell_angle_beta	90.001754
_cell_angle_gamma	60.001260
loop_
_atom_site_label
_atom_site_type_symbol
_atom_site_fract_x
_atom_site_fract_y
_atom_site_fract_z
Zr1	Zr	0.894945	1.016751	-0.119929
O2	O	0.746621	1.210553	-0.265900
O3	O	0.940410	0.822953	-0.075179
O4	O	0.940416	1.016749	-0.265887
O5	O	0.746614	1.016758	0.075240
O6	O	1.093290	1.016742	-0.265879
O7	O	0.746614	1.016758	-0.075192
O8	O	1.093280	0.670077	0.075263
O9	O	0.746625	1.363423	-0.265902
O10	O	1.073894	0.902658	-0.056090
O11	O	0.959805	0.902664	0.056170
O12	O	0.959813	1.130833	-0.168365
O13	O	0.845724	1.130838	-0.056105
Zr14	Zr	1.138761	1.016741	0.120005
Zr15	Zr	1.138761	1.016740	-0.119916
Zr16	Zr	0.894945	1.016752	0.119992
Zr17	Zr	0.894952	1.260560	-0.119932
Zr18	Zr	1.138754	0.772932	0.120009
O19	O	1.093296	1.210539	0.075255
O20	O	1.093296	1.210538	-0.265882
O21	O	0.746620	1.210554	0.075237
O22	O	1.287085	0.822939	0.265976
O23	O	1.287086	0.822938	-0.075161
O24	O	0.940410	0.822954	0.265958
O25	O	1.287092	1.016734	-0.075164
O26	O	1.093290	1.016743	0.265963
O27	O	0.940416	1.016750	0.265955
O28	O	1.287092	1.016734	0.075268
O29	O	0.940427	1.363414	-0.265892
O30	O	1.093279	0.670078	0.265968
O31	O	1.287081	0.670069	0.265979
O32	O	1.287081	0.670069	0.075273
O33	O	0.746625	1.363423	-0.075197
O34	O	0.940427	1.363415	-0.075187
O35	O	1.073893	0.902659	0.168441
O36	O	1.187982	0.902654	0.056181
O37	O	1.073901	1.130828	-0.056093
O38	O	0.959812	1.130834	0.056166
C39	C	1.016844	0.711778	0.000043
C40	C	1.016841	0.608274	0.000044
C41	C	0.954638	0.547685	0.061257
C42	C	0.909556	0.561943	-0.044312
C43	C	1.061896	0.409620	0.105580
C44	C	0.971696	0.623959	-0.105586
C45	C	1.124095	0.471573	0.044382
C46	C	1.079039	0.485878	-0.061249
C47	C	0.711876	1.016760	0.000022
C48	C	0.608369	1.016764	0.000017
C49	C	0.485578	1.141175	-0.061191
C50	C	0.454741	1.078982	-0.105546
C51	C	0.454783	1.078953	0.044364
C52	C	0.578895	0.954570	-0.044401
C53	C	0.578934	0.954559	0.105568
C54	C	0.548170	0.892275	0.061239
C55	C	1.321830	1.016732	0.000054
C56	C	1.425337	1.016728	0.000059
C57	C	1.016853	1.016745	-0.300067
C58	C	1.016854	1.016745	-0.401920
C59	C	1.016862	1.321714	0.000034
C60	C	1.016865	1.425218	0.000032
C61	C	0.960262	1.129935	-0.503025
C62	C	0.960261	1.129937	-0.608296
C63	C	1.016853	1.016747	0.300143
C64	C	1.016852	1.016747	0.401996
C65	C	1.321821	0.711764	0.000059
C66	C	1.425325	0.608256	0.000066
C67	C	1.016843	0.711779	0.300147
C68	C	1.016840	0.608276	0.402002
C69	C	1.321821	0.711765	0.300163
C70	C	1.425324	0.608257	0.402023
C71	C	0.711885	1.321727	-0.300087
C72	C	0.608382	1.425235	-0.401947
C73	C	0.711885	1.321728	0.000018
C74	C	0.608381	1.425236	0.000011
C75	C	1.016863	1.321713	-0.300071
C76	C	1.016866	1.425216	-0.401926
C77	C	1.414874	0.562111	-0.055626
C78	C	1.521849	0.455130	-0.055620
C79	C	1.073434	0.562128	0.503106
C80	C	1.073432	0.455152	0.608379
C81	C	1.528065	0.562107	0.391747
C82	C	1.635042	0.455127	0.497023
H83	H	0.933496	0.715526	-0.194884
Cl84	Cl	1.091667	0.867124	-0.388592
Cl85	Cl	1.091656	0.867118	-0.464098
H86	H	1.131640	0.458932	-0.113092
Cl87	Cl	0.885462	1.279555	-0.516352
H88	H	0.968382	0.568592	0.393380
H89	H	0.968387	0.448689	0.511360
H90	H	0.573825	0.786988	0.113006
Cl91	Cl	1.541604	0.623385	0.257836
Cl92	Cl	1.278791	0.623395	-0.129255
Cl93	Cl	1.771118	0.393850	0.483700
H94	H	1.214769	0.434403	0.081920
H95	H	0.460138	1.246376	-0.113031
Cl96	Cl	1.120713	0.268182	0.243383
Cl97	Cl	1.148250	0.393879	0.742287
H98	H	1.416562	0.568571	0.488760
H99	H	1.513079	0.415443	-0.103295
Cl100	Cl	1.488514	0.470244	0.611450
H101	H	0.911803	1.226843	-0.695030
H102	H	0.632447	0.902024	0.194796
Cl103	Cl	1.638142	0.470236	0.073704
H104	H	1.513468	0.568565	0.047745
Cl105	Cl	0.873332	0.589667	0.141091
Cl106	Cl	1.148239	0.623405	0.516430
H107	H	0.401225	1.131562	-0.194793
Cl108	Cl	0.372178	1.160168	0.102244
Cl109	Cl	0.661251	0.873482	-0.102470
Cl110	Cl	0.769533	0.619358	-0.102228
