data_functionalizedCrystal
_audit_creation_method	'MofGen! by Chris Wilmer'
_symmetry_space_group_name_H-M	'P1'
_symmetry_Int_Tables_number	1
_symmetry_cell_setting	triclinic
loop_
_symmetry_equiv_pos_as_xyz
  x,y,z
_cell_length_a	16.109301
_cell_length_b	8.559649
_cell_length_c	14.586319
_cell_angle_alpha	89.997976
_cell_angle_beta	89.999213
_cell_angle_gamma	76.620073
loop_
_atom_site_label
_atom_site_type_symbol
_atom_site_fract_x
_atom_site_fract_y
_atom_site_fract_z
O1	O	1.090046	0.205389	-0.076179
O2	O	0.846355	0.230950	-0.076193
O3	O	0.989670	-0.014444	-0.076183
O4	O	0.946731	0.450783	-0.076188
O5	O	0.989661	-0.014447	0.076297
O6	O	0.846347	0.230946	0.076288
O7	O	1.090037	0.205386	0.076302
Cu8	Cu	0.968191	0.218165	0.090218
Cu9	Cu	0.968201	0.218170	-0.090108
O10	O	0.946722	0.450779	0.076293
C11	C	0.815442	0.229912	0.000046
C12	C	0.723344	0.226808	0.000040
C13	C	0.492255	0.365202	0.000050
C14	C	0.405721	0.362273	0.000056
C15	C	0.444145	0.071122	0.000054
C16	C	0.530677	0.074053	0.000055
C17	C	0.554729	0.221098	0.000048
C18	C	0.381663	0.215238	0.000053
C19	C	0.287840	0.212061	0.000060
C20	C	0.648558	0.224275	0.000043
C21	C	0.992919	-0.073977	0.000055
C22	C	1.002605	-0.251362	0.000051
C23	C	1.120950	0.206423	0.000062
C24	C	1.213048	0.209527	0.000061
C25	C	0.943473	0.510312	0.000052
C26	C	0.933787	0.687697	0.000051
N27	N	0.968190	0.218161	0.217050
N28	N	0.968210	0.218161	-0.216940
C29	C	1.031666	0.109538	0.452060
C30	C	1.031669	0.109534	0.548041
C31	C	0.904727	0.326790	0.548043
C32	C	0.904722	0.326785	0.452063
C33	C	0.968196	0.218161	0.404074
C34	C	0.968204	0.218162	0.596035
C35	C	0.968206	0.218158	0.700102
C36	C	0.968193	0.218162	0.300001
H37	H	0.424550	-0.048597	0.000066
C38	C	0.337003	0.520788	0.000051
H39	H	0.363725	0.608775	0.000040
H40	H	0.302447	0.525702	0.053224
H41	H	0.302451	0.525694	-0.053130
C42	C	0.834908	0.446284	0.399271
H43	H	0.843993	0.430713	0.335236
H44	H	0.837129	0.552933	0.414995
H45	H	0.780529	0.428900	0.415002
H46	H	0.853049	0.415232	0.587125
C47	C	1.092218	-0.364198	0.000061
H48	H	1.134092	-0.302180	0.000067
H49	H	1.098930	-0.430016	-0.053107
H50	H	1.098921	-0.429994	0.053247
H51	H	0.867458	-0.228771	0.000050
C52	C	0.599402	-0.084470	0.000049
H53	H	0.572686	-0.172464	0.000040
H54	H	0.633958	-0.089382	0.053222
H55	H	0.633955	-0.089366	-0.053131
C56	C	1.101477	-0.009957	0.399275
H57	H	1.139273	-0.074659	0.441604
H58	H	1.132413	0.047532	0.361826
H59	H	1.075810	-0.076496	0.361842
C60	C	1.101484	-0.009948	0.600826
H61	H	1.092393	0.005595	0.664862
H62	H	1.155858	0.007433	0.585094
H63	H	1.099259	-0.116603	0.585097
C64	C	0.518711	0.526943	0.000052
H65	H	0.469107	0.612345	0.000062
H66	H	0.551669	0.534150	-0.053121
H67	H	0.551667	0.534130	0.053233
