data_functionalizedCrystal
_audit_creation_method	'MofGen! by Chris Wilmer'
_symmetry_space_group_name_H-M	'P1'
_symmetry_Int_Tables_number	1
_symmetry_cell_setting	triclinic
loop_
_symmetry_equiv_pos_as_xyz
  x,y,z
_cell_length_a	19.288840
_cell_length_b	9.130313
_cell_length_c	19.288874
_cell_angle_alpha	90.000368
_cell_angle_beta	83.133121
_cell_angle_gamma	90.010228
loop_
_atom_site_label
_atom_site_type_symbol
_atom_site_fract_x
_atom_site_fract_y
_atom_site_fract_z
O1	O	0.921361	0.122046	0.086560
O2	O	0.719099	0.121995	0.098266
O3	O	0.826071	0.122010	-0.008717
O4	O	0.814389	0.122030	0.193543
O5	O	0.826064	-0.121589	-0.008711
O6	O	0.719091	-0.121604	0.098273
O7	O	0.921354	-0.121553	0.086566
Cu8	Cu	0.820222	-0.143821	0.092420
Cu9	Cu	0.820231	0.144263	0.092412
O10	O	0.814382	-0.121568	0.193550
C11	C	0.693218	0.000189	0.097896
C12	C	0.616114	0.000169	0.096774
C13	C	0.579914	0.132959	0.096231
C14	C	0.507467	0.132977	0.095169
C15	C	0.471225	0.000198	0.094636
C16	C	0.507432	-0.132609	0.095182
C17	C	0.579877	-0.132623	0.096251
C18	C	0.361892	-0.101514	0.052261
C19	C	0.289450	-0.101494	0.051188
C20	C	0.247781	0.000235	0.091342
C21	C	0.278565	0.101970	0.132560
C22	C	0.351009	0.101956	0.133629
C23	C	0.392670	0.000198	0.093477
C24	C	0.133026	0.133053	0.089649
C25	C	0.060577	0.133066	0.088591
C26	C	0.060544	-0.132524	0.088597
C27	C	0.132991	-0.132533	0.089662
C28	C	0.169228	0.000260	0.090184
N29	N	0.820221	-0.346444	0.092425
C30	C	0.862215	-0.423094	0.134438
C31	C	0.862225	-0.576431	0.134425
C32	C	0.778242	-0.576453	0.050384
C33	C	0.778236	-0.423119	0.050394
C34	C	0.910700	-0.423082	0.182961
C35	C	0.910710	-0.576419	0.182948
C36	C	0.947235	0.000256	0.086937
C37	C	1.024339	0.000285	0.088059
C38	C	0.825690	0.000211	-0.034590
C39	C	0.824559	0.000211	-0.111694
N40	N	0.820237	0.346885	0.092402
C41	C	0.816429	-0.132541	-0.667259
C42	C	0.817485	-0.132548	-0.594811
C43	C	0.818020	0.000236	-0.558583
C44	C	0.817481	0.133038	-0.594807
C45	C	0.816418	0.133042	-0.667252
C46	C	0.860389	0.101973	-0.449258
C47	C	0.861456	0.101964	-0.376815
C48	C	0.821295	0.000229	-0.335137
C49	C	0.780075	-0.101520	-0.365913
C50	C	0.779013	-0.101516	-0.438359
C51	C	0.819172	0.000246	-0.480029
C52	C	0.822973	-0.132572	-0.220366
C53	C	0.824025	-0.132574	-0.147916
C54	C	0.824028	0.133015	-0.147915
C55	C	0.822970	0.133014	-0.220362
C56	C	0.822446	0.000216	-0.256584
C57	C	0.814763	0.000234	0.219423
C58	C	0.815894	0.000244	0.296526
H59	H	0.609414	0.241089	0.096657
H60	H	0.822539	0.241141	-0.249849
C61	C	0.332981	0.303059	0.213966
C62	C	0.384847	0.213760	0.178942
H63	H	0.353872	0.372072	0.241945
H64	H	0.309121	0.353442	0.180837
H65	H	0.300781	0.244221	0.242877
H66	H	0.417044	0.272597	0.150027
H67	H	0.408718	0.163374	0.212075
H68	H	0.965689	-0.381438	0.165240
C69	C	0.765444	0.287033	-0.058499
C70	C	0.824556	0.279011	-0.108121
H71	H	0.765754	0.377175	-0.033934
H72	H	0.724559	0.281391	-0.081359
H73	H	0.765937	0.207982	-0.026542
H74	H	0.824061	0.358056	-0.140082
H75	H	0.865452	0.284667	-0.085259
H76	H	0.244639	0.184803	0.165261
C77	C	0.860425	-0.473135	0.300517
C78	C	0.880351	-0.358897	0.253923
H79	H	0.841692	-0.433505	0.344326
H80	H	0.826068	-0.531693	0.282414
H81	H	0.900006	-0.531669	0.306419
H82	H	0.840769	-0.300369	0.248017
H83	H	0.914710	-0.300314	0.272030
C84	C	0.699530	-0.302670	-0.362423
C85	C	0.735928	-0.213365	-0.320112
H86	H	0.672282	-0.371724	-0.334145
H87	H	0.669786	-0.243853	-0.386748
H88	H	0.731838	-0.353017	-0.395066
H89	H	0.703619	-0.163009	-0.287473
H90	H	0.765674	-0.272189	-0.295776
H91	H	0.477988	0.241113	0.094729
C92	C	1.028297	-0.526340	0.132758
C93	C	0.981690	-0.640588	0.152647
H94	H	1.072116	-0.565961	0.114056
H95	H	1.010222	-0.467798	0.098385
H96	H	1.034168	-0.467793	0.172348
H97	H	0.975815	-0.699129	0.113055
H98	H	0.999768	-0.699155	0.187022
C99	C	0.762943	-0.358956	-0.234689
C100	C	0.822387	-0.278533	-0.260190
H101	H	0.762581	-0.449061	-0.259278
H102	H	0.763654	-0.377967	-0.186367
H103	H	0.722280	-0.304388	-0.241140
H104	H	0.863051	-0.333098	-0.253734
H105	H	0.821683	-0.259527	-0.308524
C106	C	0.758111	-0.358934	-0.564496
C107	C	0.818065	-0.278508	-0.554985
H108	H	0.758470	-0.449043	-0.539912
H109	H	0.717798	-0.304378	-0.547202
H110	H	0.757412	-0.377944	-0.612827
H111	H	0.818761	-0.259488	-0.506655
H112	H	0.858389	-0.333076	-0.572277
H113	H	0.162531	0.241181	0.090081
H114	H	0.892954	-0.618058	0.237929
C115	C	0.684878	-0.139052	-0.507379
C116	C	0.733698	-0.213336	-0.472188
H117	H	0.656903	-0.208084	-0.528266
H118	H	0.655969	-0.080247	-0.475184
H119	H	0.708654	-0.078464	-0.542563
H120	H	0.709922	-0.273916	-0.437001
H121	H	0.762611	-0.272166	-0.504386
C122	C	0.765522	-0.286699	-0.058459
C123	C	0.824611	-0.278547	-0.108108
H124	H	0.765884	-0.376823	-0.033887
H125	H	0.765991	-0.207631	-0.026518
H126	H	0.724618	-0.281196	-0.081305
H127	H	0.865516	-0.284039	-0.085261
H128	H	0.824148	-0.357636	-0.140054
C129	C	0.941779	0.303118	-0.394866
C130	C	0.906763	0.213804	-0.342990
H131	H	0.969746	0.372170	-0.373983
H132	H	0.970694	0.244308	-0.427053
H133	H	0.908640	0.353469	-0.418737
H134	H	0.939901	0.163445	-0.319122
H135	H	0.877845	0.272622	-0.310791
H136	H	0.031104	0.241203	0.088153
H137	H	0.893090	0.184834	-0.483187
H138	H	0.816001	-0.240675	-0.696746
C139	C	0.758973	0.287073	-0.505339
C140	C	0.818060	0.279003	-0.554991
H141	H	0.759329	0.377188	-0.480758
H142	H	0.718072	0.281527	-0.528178
H143	H	0.759454	0.207987	-0.473400
H144	H	0.817577	0.358083	-0.586934
H145	H	0.858972	0.284564	-0.532151
H146	H	0.609350	-0.240760	0.096694
C147	C	-0.050517	-0.250430	0.086947
C148	C	0.020716	-0.278480	0.088003
H149	H	-0.075105	-0.340541	0.086576
H150	H	-0.067810	-0.195884	0.127267
H151	H	-0.056943	-0.195858	0.046274
H152	H	0.027143	-0.333043	0.128678
H153	H	0.038014	-0.333049	0.047679
C154	C	0.125681	-0.395046	0.089552
C155	C	0.172788	-0.278501	0.090247
H156	H	0.150251	-0.485163	0.089910
H157	H	0.091998	-0.389518	0.129629
H158	H	0.102853	-0.389507	0.048637
H159	H	0.195612	-0.284034	0.131165
H160	H	0.206482	-0.284033	0.050166
H161	H	0.744048	-0.360716	0.016175
H162	H	0.744059	-0.638901	0.016164
H163	H	0.815982	0.241174	-0.696738
C164	C	0.365377	-0.302604	-0.028300
C165	C	0.407692	-0.213334	0.008112
H166	H	0.393653	-0.371626	-0.055558
H167	H	0.332734	-0.352978	0.003995
H168	H	0.341056	-0.243749	-0.058042
H169	H	0.432009	-0.272189	0.037858
H170	H	0.440348	-0.162957	-0.024186
H171	H	0.477919	-0.240719	0.094750
H172	H	0.264392	-0.184326	0.017621
