data_functionalizedCrystal
_audit_creation_method	'MofGen! by Chris Wilmer'
_symmetry_space_group_name_H-M	'P1'
_symmetry_Int_Tables_number	1
_symmetry_cell_setting	triclinic
loop_
_symmetry_equiv_pos_as_xyz
  x,y,z
_cell_length_a	27.731994
_cell_length_b	16.109298
_cell_length_c	15.186229
_cell_angle_alpha	90.001652
_cell_angle_beta	90.002739
_cell_angle_gamma	83.040360
loop_
_atom_site_label
_atom_site_type_symbol
_atom_site_fract_x
_atom_site_fract_y
_atom_site_fract_z
O1	O	0.641356	0.098711	-0.073093
O2	O	0.500622	0.113800	-0.073121
O3	O	0.574856	-0.014825	-0.073113
O4	O	0.567122	0.227336	-0.073102
O5	O	0.574851	-0.014827	0.073344
O6	O	0.500617	0.113798	0.073336
O7	O	0.641351	0.098709	0.073364
Zn8	Zn	0.570983	0.106253	0.096603
Zn9	Zn	0.570990	0.106255	-0.096361
O10	O	0.567117	0.227334	0.073355
C11	C	0.482611	0.113489	0.000104
C12	C	0.428951	0.112556	0.000093
C13	C	0.574540	-0.045797	0.000112
C14	C	0.573602	-0.138080	0.000102
C15	C	0.570542	-0.437109	-0.079714
C16	C	0.571431	-0.350401	-0.079720
C17	C	0.571432	-0.350388	0.079955
C18	C	0.570547	-0.437096	0.079961
C19	C	0.570100	-0.480454	0.000123
C20	C	0.571873	-0.307037	0.000112
C21	C	0.572836	-0.213024	0.000106
C22	C	0.569138	-0.574473	0.000129
C23	C	0.096205	0.106680	0.079960
C24	C	-0.105468	0.103135	0.079970
O25	O	-0.131545	0.102639	0.147865
N26	N	-0.130682	0.102695	0.000136
C27	C	-0.105474	0.103137	-0.079706
O28	O	-0.131547	0.102673	-0.147609
C29	C	0.096198	0.106677	-0.079715
C30	C	0.121409	0.107124	0.000124
C31	C	0.121416	0.107127	0.159793
C32	C	0.171831	0.108018	0.159789
C33	C	0.197035	0.108462	0.079954
C34	C	0.171824	0.108015	0.000121
C35	C	0.121405	0.107112	-0.159556
C36	C	0.171827	0.107995	-0.159551
C37	C	0.197038	0.108443	-0.079712
C38	C	0.247443	0.109350	-0.079718
N39	N	0.272657	0.109790	0.000116
C40	C	0.247453	0.109346	0.079952
C41	C	-0.211355	0.101280	-0.079695
C42	C	-0.261773	0.100396	-0.079693
C43	C	-0.261764	0.100393	0.079983
C44	C	-0.211345	0.101282	0.079980
C45	C	-0.186141	0.101719	0.000138
C46	C	0.353327	0.111218	0.079939
C47	C	0.403747	0.112112	0.079928
C48	C	0.403733	0.112111	-0.079747
C49	C	0.353318	0.111221	-0.079737
C50	C	0.328116	0.110772	0.000113
O51	O	0.273551	0.109837	-0.147578
O52	O	0.273536	0.109791	0.147845
C53	C	0.045790	0.105789	0.079963
C54	C	0.020579	0.105343	0.000131
C55	C	0.045783	0.105787	-0.079705
C56	C	-0.029839	0.104459	0.000133
C57	C	-0.055043	0.104015	0.079969
C58	C	-0.029829	0.104454	0.159802
C59	C	0.020586	0.105345	0.159799
C60	C	0.020569	0.105347	-0.159539
C61	C	-0.029846	0.104457	-0.159529
C62	C	-0.055050	0.104013	-0.079693
C63	C	0.659362	0.099020	0.000137
C64	C	0.713023	0.099952	0.000142
C65	C	0.567433	0.258306	0.000128
C66	C	0.568371	0.350589	0.000133
N67	N	0.570982	0.106251	0.228296
N68	N	0.570995	0.106251	-0.228053
C69	C	0.603864	0.049315	0.454022
C70	C	0.603866	0.049313	0.546212
C71	C	0.538109	0.163190	0.546214
C72	C	0.538106	0.163187	0.454026
C73	C	0.570986	0.106251	0.407932
C74	C	0.570991	0.106251	0.592310
C75	C	0.570992	0.106250	0.692266
C76	C	0.570984	0.106251	0.307970
H77	H	0.570178	-0.472409	-0.144723
O78	O	0.635785	-0.006106	0.590886
C79	C	0.664118	-0.151020	0.619127
C80	C	0.627949	-0.088346	0.568464
H81	H	0.657789	-0.217525	0.601031
H82	H	0.702840	-0.140727	0.600984
H83	H	0.658480	-0.141201	0.692930
H84	H	0.633543	-0.098127	0.494650
H85	H	0.589241	-0.098655	0.586680
H86	H	0.511339	0.209548	0.583752
O87	O	0.428297	0.112432	0.157432
C88	C	0.490694	0.041351	0.250124
C89	C	0.462938	0.040898	0.162316
H90	H	0.518700	-0.016487	0.254109
H91	H	0.509896	0.099934	0.254136
H92	H	0.464003	0.040917	0.307168
H93	H	0.489596	0.041302	0.105222
H94	H	0.443729	-0.017680	0.158381
H95	H	0.630637	0.002953	0.416495
O96	O	0.571842	-0.308135	0.157427
C97	C	0.573232	-0.174558	0.228186
C98	C	0.572759	-0.222301	0.140386
H99	H	0.573984	-0.105156	0.214440
H100	H	0.539243	-0.183483	0.267566
H101	H	0.606858	-0.199706	0.267560
H102	H	0.539156	-0.197184	0.100941
H103	H	0.606771	-0.213377	0.101073
O104	O	0.571836	-0.308419	-0.157353
C105	C	0.571768	-0.317594	-0.315729
C106	C	0.571295	-0.365237	-0.227870
H107	H	0.571341	-0.363513	-0.372764
H108	H	0.538367	-0.268961	-0.319785
H109	H	0.605983	-0.285036	-0.319676
H110	H	0.537102	-0.397846	-0.223864
H111	H	0.604719	-0.413823	-0.223851
O112	O	0.570097	-0.479073	0.157598
C113	C	0.570222	-0.469925	0.315975
C114	C	0.570719	-0.422280	0.228120
H115	H	0.570735	-0.424031	0.373015
H116	H	0.535993	-0.502439	0.320026
H117	H	0.603608	-0.518596	0.319919
H118	H	0.537356	-0.373569	0.224117
H119	H	0.604970	-0.389824	0.224106
O120	O	0.506233	0.218535	0.409153
C121	C	0.495923	0.332238	0.305107
C122	C	0.532071	0.269596	0.355854
H123	H	0.516799	0.373548	0.262018
H124	H	0.471788	0.296681	0.261889
H125	H	0.472418	0.372899	0.353904
H126	H	0.555609	0.228918	0.307122
H127	H	0.556172	0.305204	0.399086
O128	O	0.328913	0.110675	0.157560
C129	C	0.318979	0.038331	0.294020
C130	C	0.346673	0.038845	0.206157
H131	H	0.333320	-0.019746	0.333327
H132	H	0.324472	0.096675	0.333444
H133	H	0.278611	0.037660	0.280302
H134	H	0.387049	0.039488	0.219794
H135	H	0.341139	-0.019494	0.166759
O136	O	-0.054327	0.103871	0.237334
C137	C	-0.105781	0.030826	0.329957
C138	C	-0.078049	0.031379	0.242137
H139	H	-0.124976	-0.027770	0.333861
H140	H	-0.079123	0.031239	0.387059
H141	H	-0.133805	0.088640	0.333939
H142	H	-0.050025	-0.026426	0.238070
H143	H	-0.104736	0.031009	0.185077
H144	H	0.192353	0.108378	0.224803
H145	H	-0.190822	0.101648	0.144992
H146	H	0.424263	0.112476	-0.144747
H147	H	0.100900	0.106764	0.224808
H148	H	-0.282293	0.100033	0.144988
H149	H	-0.282297	0.100045	-0.144706
H150	H	-0.190839	0.101635	-0.144716
H151	H	0.100888	0.106747	-0.224569
O152	O	0.196231	0.108461	-0.237190
C153	C	0.190900	0.108320	-0.395566
C154	C	0.163203	0.107805	-0.307705
H155	H	0.164210	0.107771	-0.452600
H156	H	0.210050	0.166957	-0.399620
H157	H	0.218955	0.050545	-0.399516
H158	H	0.135124	0.165539	-0.303696
H159	H	0.144086	0.049130	-0.303688
H160	H	0.332789	0.110870	-0.144749
O161	O	0.045001	0.105736	0.237434
C162	C	0.039667	0.105687	0.395809
C163	C	0.011963	0.105226	0.307946
H164	H	0.012966	0.105293	0.452841
H165	H	0.067695	0.047882	0.399865
H166	H	0.058848	0.164294	0.399763
H167	H	-0.007248	0.046658	0.303934
H168	H	-0.016038	0.163071	0.303928
O169	O	-0.054255	0.103988	-0.237170
C170	C	-0.048932	0.104119	-0.395545
C171	C	-0.021231	0.104641	-0.307685
H172	H	-0.022245	0.104665	-0.452580
H173	H	-0.068081	0.045480	-0.399598
H174	H	-0.076989	0.161891	-0.399497
H175	H	0.006849	0.046909	-0.303674
H176	H	-0.002115	0.163319	-0.303670
H177	H	0.041085	0.105706	-0.224552
