data_functionalizedCrystal
_audit_creation_method	'MofGen! by Chris Wilmer'
_symmetry_space_group_name_H-M	'P1'
_symmetry_Int_Tables_number	1
_symmetry_cell_setting	triclinic
loop_
_symmetry_equiv_pos_as_xyz
  x,y,z
_cell_length_a	12.837943
_cell_length_b	15.944551
_cell_length_c	11.892095
_cell_angle_alpha	93.888509
_cell_angle_beta	85.689438
_cell_angle_gamma	89.163839
loop_
_atom_site_label
_atom_site_type_symbol
_atom_site_fract_x
_atom_site_fract_y
_atom_site_fract_z
O1	O	1.382096	0.213524	-0.093988
O2	O	1.080290	0.202737	-0.093995
O3	O	1.239434	0.086515	-0.093981
O4	O	1.222952	0.329745	-0.094002
O5	O	1.226164	0.096189	0.094025
O6	O	1.067021	0.212411	0.094012
O7	O	1.368826	0.223198	0.094018
Zn8	Zn	1.215817	0.219340	0.123865
Zn9	Zn	1.233299	0.206594	-0.123842
O10	O	1.209683	0.339419	0.094005
C11	C	1.035034	0.203930	0.000008
C12	C	0.919957	0.193062	0.000006
C13	C	0.679007	0.323714	0.000011
C14	C	0.570881	0.313507	0.000010
C15	C	0.595575	0.162440	0.000010
C16	C	0.703701	0.172648	0.000012
C17	C	0.745413	0.253287	0.000010
C18	C	0.853542	0.263494	0.000003
C19	C	0.878234	0.112428	0.000012
C20	C	0.770107	0.102221	0.000011
C21	C	1.232115	0.060004	0.000022
C22	C	1.230063	-0.033407	0.000023
C23	C	1.126515	-0.256548	0.000005
C24	C	1.168058	-0.308949	0.092705
C25	C	1.226352	-0.204430	0.000014
C26	C	1.181163	-0.318468	-0.092655
C27	C	1.222761	-0.369631	0.000001
C28	C	1.267917	-0.255596	0.092790
C29	C	1.281014	-0.265115	-0.092653
C30	C	1.322628	-0.317491	0.000069
C31	C	1.228418	-0.109262	0.000023
C32	C	1.220702	-0.464796	0.000000
C33	C	1.414082	0.222005	0.000013
C34	C	1.529160	0.232872	0.000008
C35	C	1.217002	0.365931	-0.000001
C36	C	1.219054	0.459340	-0.000009
N37	N	1.203893	0.228039	0.292918
N38	N	1.245231	0.197890	-0.292895
C39	C	1.328203	0.137313	0.529576
C40	C	1.319876	0.143400	0.647918
C41	C	1.178907	0.246295	0.647944
C42	C	1.187234	0.240208	0.529603
C43	C	1.261886	0.185716	0.470423
C44	C	1.270217	0.179634	0.352080
C45	C	1.129244	0.282524	0.352108
C46	C	1.120917	0.288611	0.470449
H47	H	0.561587	0.096792	0.000105
H48	H	0.736129	0.036567	0.000025
C49	C	0.939386	-0.018161	-0.096640
C50	C	0.951230	0.035006	0.000009
H51	H	0.984456	-0.065953	-0.096646
H52	H	0.869026	-0.035775	-0.096627
H53	H	0.956661	0.011188	-0.162193
H54	H	0.933948	0.005660	0.065563
H55	H	1.021605	0.052620	0.000007
H56	H	1.388994	0.092949	0.481392
H57	H	1.075247	0.321940	0.303932
C58	C	1.005691	-0.176778	-0.097010
C59	C	1.014638	-0.220526	0.000114
H60	H	0.936622	-0.154546	-0.096941
H61	H	1.053841	-0.132116	-0.097722
H62	H	1.020528	-0.214010	-0.162235
H63	H	0.999809	-0.183292	0.065340
H64	H	0.966474	-0.265194	0.000837
C65	C	1.457343	-0.407010	-0.096994
C66	C	1.434604	-0.353274	0.000110
H67	H	1.526478	-0.429088	-0.096973
H68	H	1.409440	-0.451848	-0.097631
H69	H	1.451548	-0.376530	-0.162234
H70	H	1.440391	-0.383755	0.065351
H71	H	1.482520	-0.308429	0.000758
C72	C	1.115449	0.388678	0.684395
C73	C	1.096839	0.306180	0.712996
H74	H	1.064775	0.425644	0.724549
H75	H	1.183251	0.404366	0.703791
H76	H	1.110923	0.391973	0.605447
H77	H	1.101373	0.302883	0.791944
H78	H	1.029020	0.290487	0.693608
C79	C	0.779466	0.427802	0.096648
C80	C	0.724867	0.412349	0.000003
H81	H	0.807781	0.482521	0.096637
H82	H	0.733170	0.424059	0.162197
H83	H	0.834487	0.387313	0.096641
H84	H	0.669840	0.452834	0.000014
H85	H	0.771167	0.416100	-0.065563
H86	H	1.373877	0.103984	0.696077
H87	H	1.120299	-0.328402	0.171073
C88	C	1.057486	0.430999	0.506885
C89	C	1.038859	0.348506	0.535499
H90	H	1.006820	0.467975	0.547037
H91	H	1.125292	0.446679	0.526276
H92	H	1.052959	0.434289	0.427936
H93	H	1.043394	0.345214	0.614447
H94	H	0.971035	0.332821	0.516116
C95	C	1.318817	-0.130865	0.197781
C96	C	1.317394	-0.218611	0.198710
H97	H	1.349353	-0.108033	0.263176
H98	H	1.358684	-0.115541	0.132046
H99	H	1.249375	-0.109514	0.197511
H100	H	1.386837	-0.239963	0.198971
H101	H	1.277528	-0.233943	0.264462
C102	C	0.523364	0.434151	-0.096648
C103	C	0.497884	0.390921	0.000002
H104	H	0.478293	0.481942	-0.096653
H105	H	0.593720	0.451768	-0.096637
H106	H	0.515339	0.398062	-0.162201
H107	H	0.505916	0.427007	0.065555
H108	H	0.427510	0.373305	0.000001
C109	C	0.967623	0.357649	-0.096651
C110	C	0.899393	0.352131	-0.000001
H111	H	0.995920	0.412374	-0.096653
H112	H	1.022646	0.317175	-0.096644
H113	H	0.930568	0.347154	-0.162204
H114	H	0.936450	0.362621	0.065552
H115	H	0.844362	0.392618	0.000002
C116	C	1.299849	-0.270622	-0.295432
C117	C	1.345436	-0.238815	-0.198449
H118	H	1.339612	-0.254379	-0.360751
H119	H	1.298496	-0.330216	-0.296568
H120	H	1.230525	-0.248828	-0.294755
H121	H	1.414758	-0.260614	-0.199121
H122	H	1.346801	-0.179208	-0.197313
H123	H	1.331005	0.135266	0.303897
H124	H	1.144455	-0.345956	-0.171031
