data_functionalizedCrystal
_audit_creation_method	'MofGen! by Chris Wilmer'
_symmetry_space_group_name_H-M	'P1'
_symmetry_Int_Tables_number	1
_symmetry_cell_setting	triclinic
loop_
_symmetry_equiv_pos_as_xyz
  x,y,z
_cell_length_a	15.296363
_cell_length_b	15.298073
_cell_length_c	15.296720
_cell_angle_alpha	88.353317
_cell_angle_beta	91.657309
_cell_angle_gamma	72.656287
loop_
_atom_site_label
_atom_site_type_symbol
_atom_site_fract_x
_atom_site_fract_y
_atom_site_fract_z
Zn1	Zn	-0.265792	-1.216481	0.674970
Zn2	Zn	-0.385767	-1.225091	0.504834
Zn3	Zn	-0.257107	-1.096567	0.504846
Zn4	Zn	-0.435839	-1.046372	0.615973
O5	O	-0.336126	-1.146128	0.575156
O6	O	-0.264385	-1.342603	0.677086
O7	O	-0.344109	-1.232653	0.387125
O8	O	-0.133249	-1.129878	0.552109
O9	O	-0.352530	-1.348928	0.552088
O10	O	-0.139629	-1.217978	0.677098
O11	O	-0.249584	-1.138227	0.387135
O12	O	-0.298137	-0.964930	0.494902
O13	O	-0.437872	-1.044327	0.741509
O14	O	-0.429451	-0.928051	0.576547
O15	O	-0.312939	-1.169306	0.784854
O16	O	-0.517419	-1.183980	0.494881
O17	O	-0.554207	-1.052676	0.576535
C18	C	-0.368286	-0.914084	0.529325
C19	C	-0.382070	-0.814808	0.509733
C20	C	-0.237784	-0.521672	0.715101
C21	C	-0.224837	-0.614945	0.733512
C22	C	-0.264144	-0.664916	0.677569
C23	C	-0.316401	-0.621603	0.603212
C24	C	-0.329355	-0.528318	0.584802
C25	C	-0.355715	-0.671562	0.547270
C26	C	-0.407972	-0.628250	0.472913
C27	C	-0.420923	-0.534974	0.454507
C28	C	-0.381617	-0.485004	0.510450
C29	C	-0.342761	-0.764847	0.565680
C30	C	-0.434331	-0.771494	0.435381
C31	C	-0.447279	-0.678220	0.416970
C32	C	-0.568227	-1.113836	0.529328
C33	C	-0.667516	-1.100097	0.509767
C34	C	-0.960446	-1.244671	0.715117
C35	C	-0.867158	-1.257586	0.733496
C36	C	-0.817243	-1.218215	0.677566
C37	C	-0.860624	-1.165927	0.603252
C38	C	-0.953919	-1.153017	0.584867
C39	C	-0.810717	-1.126560	0.547316
C40	C	-0.854098	-1.074272	0.473002
C41	C	-0.947384	-1.061364	0.454621
C42	C	-0.997299	-1.100735	0.510551
C43	C	-0.717422	-1.139470	0.565701
C44	C	-0.710895	-1.047816	0.435451
C45	C	-0.804183	-1.034901	0.417072
C46	C	-0.103119	-1.178567	0.621186
C47	C	-0.003825	-1.192390	0.640801
C48	C	-0.381960	-1.100257	0.794556
C49	C	-0.401492	-1.080709	0.888051
C50	C	-0.303832	-0.379080	0.621160
C51	C	-0.290046	-0.478357	0.640749
C52	C	-0.290399	-1.191881	0.356632
C53	C	-0.270592	-1.211637	0.263221
C54	C	-0.196369	-1.285893	1.241868
C55	C	-0.178019	-1.304264	1.154025
C56	C	-0.233885	-1.248377	1.087528
C57	C	-0.308106	-1.174115	1.108881
C58	C	-0.326462	-1.155746	1.196732
C59	C	-0.363978	-1.118230	1.042392
C60	C	-0.438198	-1.043969	1.063745
C61	C	-0.456551	-1.025603	1.151588
C62	C	-0.400684	-1.081490	1.218086
C63	C	-0.345622	-1.136599	0.954541
C64	C	-0.475714	-1.006453	0.909405
C65	C	-0.494064	-0.988081	0.997247
H66	H	-0.392162	-0.409051	0.495468
H67	H	-0.670254	-1.015758	0.389906
H68	H	-0.516992	-0.965140	1.168969
N69	N	-0.500656	-0.633987	0.341013
N70	N	-0.476943	-0.661455	0.266652
H71	H	-0.514639	-0.630217	0.213006
N72	N	-0.171469	-0.659169	0.809469
N73	N	-0.136383	-0.614545	0.859414
H74	H	-0.098690	-0.645777	0.913065
H75	H	-0.285190	-1.197063	0.937164
H76	H	-0.218940	-1.263340	1.016003
N77	N	-0.102194	-1.380100	1.132218
N78	N	-0.039380	-1.366850	1.088244
H79	H	0.014178	-1.420410	1.072844
H80	H	-0.205793	-0.480976	0.760646
H81	H	-0.682109	-1.182044	0.626208
H82	H	-0.521207	-0.960946	0.855261
N83	N	-0.139328	-1.342973	1.309800
N84	N	-0.155734	-1.326564	1.388229
H85	H	-0.115447	-1.366882	1.436210
N86	N	-0.474485	-0.822539	0.378243
N87	N	-0.462913	-0.905822	0.394689
H88	H	-0.491271	-0.941879	0.354340
H89	H	-0.415621	-1.066536	1.289616
H90	H	-0.554495	-0.927616	1.014646
N91	N	-1.011434	-1.284872	0.772249
N92	N	-1.018043	-1.264102	0.850737
H93	H	-1.054054	-1.292497	0.891091
N94	N	-0.289368	-0.809073	0.641623
N95	N	-0.207239	-0.811245	0.650388
H96	H	-0.169524	-0.842479	0.704026
H97	H	-0.253596	-0.740864	0.692562
N98	N	-0.848478	-0.981519	0.341143
N99	N	-0.803907	-0.946381	0.291199
H100	H	-0.835188	-0.908686	0.237570
N101	N	-0.474319	-0.490740	0.378560
N102	N	-0.509414	-0.535360	0.328619
H103	H	-0.547127	-0.504121	0.274981
H104	H	-0.831841	-1.300159	0.794001
H105	H	-0.741285	-1.228733	0.692535
H106	H	-1.073261	-1.090223	0.495591
H107	H	-0.982699	-1.018797	0.394104
