data_functionalizedCrystal
_audit_creation_method	'MofGen! by Chris Wilmer'
_symmetry_space_group_name_H-M	'P1'
_symmetry_Int_Tables_number	1
_symmetry_cell_setting	triclinic
loop_
_symmetry_equiv_pos_as_xyz
  x,y,z
_cell_length_a	12.837943
_cell_length_b	14.519709
_cell_length_c	11.295483
_cell_angle_alpha	94.101713
_cell_angle_beta	85.461227
_cell_angle_gamma	89.254542
loop_
_atom_site_label
_atom_site_type_symbol
_atom_site_fract_x
_atom_site_fract_y
_atom_site_fract_z
O1	O	1.382869	0.234188	-0.099009
O2	O	1.882869	0.734188	0.400991
O3	O	1.081042	0.222343	-0.099016
O4	O	1.581042	0.722343	0.400984
O5	O	1.239958	0.094719	-0.099002
O6	O	1.739958	0.594719	0.400998
O7	O	1.223954	0.361812	-0.099023
O8	O	1.723954	0.861812	0.400977
O9	O	1.226000	0.105910	0.099048
O10	O	1.726000	0.605910	0.599048
O11	O	1.067084	0.233533	0.099034
O12	O	1.567084	0.733533	0.599034
O13	O	1.368911	0.245379	0.099040
O14	O	1.868911	0.745379	0.599040
Cu15	Cu	1.216723	0.240478	0.117121
Cu16	Cu	1.716723	0.740478	0.617121
Cu17	Cu	1.233230	0.227244	-0.117096
Cu18	Cu	1.733230	0.727244	0.382904
O19	O	1.209996	0.373002	0.099026
O20	O	1.709996	0.873002	0.599026
C21	C	1.035435	0.223937	0.000008
C22	C	1.535435	0.723937	0.500008
C23	C	0.920336	0.212002	0.000006
C24	C	1.420336	0.712002	0.500006
C25	C	0.679643	0.355473	0.000011
C26	C	1.179643	0.855473	0.500011
C27	C	0.571497	0.344264	0.000010
C28	C	1.071497	0.844264	0.500010
C29	C	0.595894	0.178377	0.000011
C30	C	1.095894	0.678377	0.500011
C31	C	0.704041	0.189586	0.000012
C32	C	1.204041	0.689586	0.500012
C33	C	0.745911	0.278137	0.000011
C34	C	1.245911	0.778137	0.500011
C35	C	0.854060	0.289344	0.000003
C36	C	1.354060	0.789344	0.500003
C37	C	0.878455	0.123458	0.000013
C38	C	1.378455	0.623458	0.500013
C39	C	0.770308	0.112249	0.000011
C40	C	1.270308	0.612249	0.500011
C41	C	1.232233	0.065890	0.000023
C42	C	1.732233	0.565890	0.500023
C43	C	1.229997	-0.036684	0.000024
C44	C	1.729997	0.463316	0.500024
C45	C	1.221771	-0.412293	-0.000007
C46	C	1.721771	0.087707	0.499993
C47	C	1.224055	-0.307787	0.000002
C48	C	1.724055	0.192213	0.500002
C49	C	1.225884	-0.224492	0.000010
C50	C	1.725884	0.275508	0.500010
C51	C	1.228169	-0.119979	0.000016
C52	C	1.728169	0.380021	0.500016
C53	C	1.414518	0.243785	0.000014
C54	C	1.914518	0.743785	0.500014
C55	C	1.529618	0.255719	0.000008
C56	C	2.029618	0.755719	0.500008
C57	C	1.217721	0.401831	-0.000001
C58	C	1.717721	0.901831	0.499999
C59	C	1.219957	0.504405	-0.000010
C60	C	1.719957	1.004405	0.499990
N61	N	1.205121	0.249786	0.281856
N62	N	1.705121	0.749786	0.781856
N63	N	1.244841	0.217929	-0.281831
N64	N	1.744841	0.717929	0.218169
C65	C	1.328362	0.150873	0.531156
C66	C	1.828362	0.650873	1.031156
C67	C	1.319601	0.157915	0.655819
C68	C	1.819601	0.657915	1.155819
C69	C	1.178834	0.270905	0.655847
C70	C	1.678834	0.770905	1.155847
C71	C	1.187595	0.263863	0.531184
C72	C	1.687595	0.763863	1.031184
C73	C	1.262362	0.203847	0.468843
C74	C	1.762362	0.703847	0.968843
C75	C	1.271127	0.196811	0.344178
C76	C	1.771127	0.696811	0.844178
C77	C	1.130356	0.309795	0.344208
C78	C	1.630356	0.809795	0.844208
C79	C	1.121596	0.316837	0.468871
C80	C	1.621596	0.816837	0.968871
H81	H	0.561777	0.106288	0.000111
H82	H	1.061777	0.606288	0.500111
N83	N	1.351757	0.132064	0.276953
N84	N	1.851757	0.632064	0.776953
H85	H	1.315688	0.084805	0.225249
H86	H	1.815688	0.584805	0.725249
H87	H	1.401353	0.168497	0.225281
H88	H	1.901353	0.668497	0.725281
N89	N	1.098196	0.335620	0.723112
N90	N	1.598196	0.835620	1.223112
H91	H	1.134258	0.382876	0.774829
H92	H	1.634258	0.882876	1.274829
H93	H	1.057728	0.368052	0.664658
H94	H	1.557728	0.868052	1.164658
H95	H	1.373343	0.114777	0.706551
H96	H	1.873343	0.614777	1.206551
H97	H	1.060719	0.365699	0.519643
H98	H	1.560719	0.865699	1.019643
N99	N	1.409008	0.086156	0.463908
N100	N	1.909008	0.586156	0.963908
H101	H	1.449495	0.053669	0.522301
H102	H	1.949495	0.553669	1.022301
H103	H	1.372882	0.038948	0.412194
H104	H	1.872882	0.538948	0.912194
N105	N	0.899221	0.384850	0.000014
N106	N	1.399221	0.884850	0.500014
H107	H	0.977788	0.380219	0.000013
H108	H	1.477788	0.880219	0.500013
H109	H	0.880162	0.414968	-0.073402
H110	H	1.380162	0.914968	0.426598
H111	H	0.517545	0.407240	0.000014
H112	H	1.017545	0.907240	0.500014
H113	H	0.736201	0.040154	0.000026
H114	H	1.236201	0.540154	0.500026
N115	N	0.949921	0.040032	0.000009
N116	N	1.449921	0.540032	0.500009
H117	H	1.000505	0.036839	-0.073410
H118	H	1.500505	0.536839	0.426590
H119	H	0.990095	0.045174	0.073472
H120	H	1.490095	0.545174	0.573472
H121	H	0.713735	0.427575	0.000008
H122	H	1.213735	0.927575	0.500008
N123	N	1.059172	0.366943	0.277000
N124	N	1.559172	0.866943	0.777000
H125	H	1.076067	0.353380	0.188566
H126	H	1.576067	0.853380	0.688566
H127	H	0.984070	0.351025	0.298803
H128	H	1.484070	0.851025	0.798803
