data_functionalizedCrystal
_audit_creation_method	'MofGen! by Chris Wilmer'
_symmetry_space_group_name_H-M	'P1'
_symmetry_Int_Tables_number	1
_symmetry_cell_setting	triclinic
loop_
_symmetry_equiv_pos_as_xyz
  x,y,z
_cell_length_a	11.169417
_cell_length_b	29.839131
_cell_length_c	11.169409
_cell_angle_alpha	90.047774
_cell_angle_beta	90.019824
_cell_angle_gamma	90.036108
loop_
_atom_site_label
_atom_site_type_symbol
_atom_site_fract_x
_atom_site_fract_y
_atom_site_fract_z
Zn1	Zn	1.834755	-0.178806	0.678414
Zn2	Zn	2.334755	0.321194	1.178414
Zn3	Zn	1.834557	-0.253948	0.477677
Zn4	Zn	2.334557	0.246052	0.977677
Zn5	Zn	1.634041	-0.178834	0.477748
Zn6	Zn	2.134041	0.321166	0.977748
Zn7	Zn	1.633961	-0.253911	0.678322
Zn8	Zn	2.133961	0.246089	1.178322
O9	O	1.734328	-0.216375	0.578040
O10	O	2.234328	0.283625	1.078040
O11	O	2.002678	-0.188778	0.651794
O12	O	2.502678	0.311222	1.151794
O13	O	1.807909	-0.244011	0.309736
O14	O	2.307909	0.255989	0.809736
O15	O	1.660782	-0.115963	0.504436
O16	O	2.160782	0.384037	1.004436
O17	O	2.002533	-0.243984	0.504314
O18	O	2.502533	0.256016	1.004314
O19	O	1.808246	-0.115943	0.651864
O20	O	2.308246	0.384057	1.151864
O21	O	1.660590	-0.188825	0.309789
O22	O	2.160590	0.311175	0.809789
O23	O	1.466080	-0.188789	0.504346
O24	O	1.966080	0.311211	1.004346
O25	O	1.660646	-0.243922	0.846284
O26	O	2.160646	0.256078	1.346284
O27	O	1.466022	-0.243948	0.651707
O28	O	1.966022	0.256052	1.151707
O29	O	1.808168	-0.188742	0.846352
O30	O	2.308168	0.311258	1.346352
O31	O	1.807831	-0.316810	0.504224
O32	O	2.307831	0.183190	1.004224
O33	O	1.660454	-0.316783	0.651637
O34	O	2.160454	0.183217	1.151637
C35	C	1.422504	-0.216368	0.578025
C36	C	1.922504	0.283632	1.078025
C37	C	1.289104	-0.216376	0.578047
C38	C	1.789104	0.283624	1.078047
C39	C	1.734145	-0.333097	0.577939
C40	C	2.234145	0.166903	1.077939
C41	C	1.734177	-0.383032	0.577936
C42	C	2.234177	0.116968	1.077936
C43	C	1.811096	-0.692630	0.654915
C44	C	2.311096	-0.192630	1.154915
C45	C	1.811226	-0.880303	0.654988
C46	C	2.311226	-0.380303	1.154988
O47	O	1.876446	-0.904529	0.720363
O48	O	2.376446	-0.404529	1.220363
N49	N	1.734532	-0.903817	0.578173
N50	N	2.234532	-0.403817	1.078173
C51	C	1.657794	-0.880410	0.501341
C52	C	2.157794	-0.380410	1.001341
O53	O	1.592556	-0.904716	0.436016
O54	O	2.092556	-0.404716	0.936016
C55	C	1.657659	-0.692738	0.501276
C56	C	2.157659	-0.192738	1.001276
C57	C	1.734367	-0.669226	0.578087
C58	C	2.234367	-0.169226	1.078087
C59	C	1.887797	-0.669118	0.731721
C60	C	2.387797	-0.169118	1.231721
C61	C	1.887768	-0.622203	0.731697
C62	C	2.387768	-0.122203	1.231697
C63	C	1.811039	-0.598799	0.654869
C64	C	2.311039	-0.098799	1.154869
C65	C	1.734338	-0.622311	0.578063
C66	C	2.234338	-0.122311	1.078063
C67	C	1.580916	-0.669331	0.424451
C68	C	2.080916	-0.169331	0.924451
C69	C	1.580887	-0.622410	0.424444
C70	C	2.080887	-0.122410	0.924444
C71	C	1.657595	-0.598899	0.501254
C72	C	2.157595	-0.098899	1.001254
C73	C	1.657580	-0.551991	0.501211
C74	C	2.157580	-0.051991	1.001211
N75	N	1.734274	-0.528477	0.578025
N76	N	2.234274	-0.028477	1.078025
C77	C	1.811003	-0.551881	0.654854
C78	C	2.311003	-0.051881	1.154854
C79	C	1.657873	-0.978940	0.501379
C80	C	2.157873	-0.478940	1.001379
C81	C	1.657908	-1.025858	0.501394
C82	C	2.157908	-0.525858	1.001394
C83	C	1.811338	-1.025748	0.655042
C84	C	2.311338	-0.525748	1.155042
C85	C	1.811308	-0.978829	0.655020
C86	C	2.311308	-0.478829	1.155020
C87	C	1.734567	-0.955426	0.578193
C88	C	2.234567	-0.455426	1.078193
C89	C	1.810938	-0.453355	0.654798
C90	C	2.310938	0.046645	1.154798
C91	C	1.810906	-0.406436	0.654765
C92	C	2.310906	0.093564	1.154765
C93	C	1.657472	-0.406550	0.501121
C94	C	2.157472	0.093450	1.001121
C95	C	1.657507	-0.453465	0.501150
C96	C	2.157507	0.046535	1.001150
C97	C	1.734245	-0.476867	0.577998
C98	C	2.234245	0.023133	1.077998
O99	O	1.592385	-0.527736	0.435879
O100	O	2.092385	-0.027736	0.935879
O101	O	1.876214	-0.527567	0.720188
O102	O	2.376214	-0.027567	1.220188
C103	C	1.811125	-0.739545	0.654939
C104	C	2.311125	-0.239545	1.154939
C105	C	1.734424	-0.763057	0.578134
C106	C	2.234424	-0.263057	1.078134
C107	C	1.657695	-0.739653	0.501305
C108	C	2.157695	-0.239653	1.001305
C109	C	1.734459	-0.809975	0.578148
C110	C	2.234459	-0.309975	1.078148
C111	C	1.811189	-0.833379	0.654977
C112	C	2.311189	-0.333379	1.154977
C113	C	1.887883	-0.809865	0.731791
C114	C	2.387883	-0.309865	1.231791
C115	C	1.887854	-0.762949	0.731768
C116	C	2.387854	-0.262949	1.231768
C117	C	1.581001	-0.763167	0.424491
C118	C	2.081001	-0.263167	0.924491
C119	C	1.581037	-0.810083	0.424519
C120	C	2.081037	-0.310083	0.924519
C121	C	1.657766	-0.833486	0.501348
C122	C	2.157766	-0.333486	1.001348
C123	C	2.047371	-0.216382	0.578056
C124	C	2.547371	0.283618	1.078056
C125	C	2.180771	-0.216385	0.578063
C126	C	2.680771	0.283615	1.078063
C127	C	1.734421	-0.216325	0.891083
C128	C	2.234421	0.283675	1.391083
C129	C	1.734460	-0.216304	1.024483
C130	C	2.234460	0.283696	1.524483
C131	C	1.734545	-0.099196	0.578168
C132	C	2.234545	0.400804	1.078168
C133	C	1.734637	-0.049262	0.578222
C134	C	2.234637	0.450738	1.078222
C135	C	1.734306	-0.216392	0.266215
C136	C	2.234306	0.283608	0.766215
C137	C	1.734499	-0.216287	0.132816
C138	C	2.234499	0.283713	0.632816
H139	H	1.873375	-0.387294	0.717313
H140	H	2.373375	0.112706	1.217313
Cl141	Cl	1.561017	-0.377119	0.404542
Cl142	Cl	2.061017	0.122881	0.904542
Cl143	Cl	1.984266	-0.698532	0.828323
Cl144	Cl	2.484266	-0.198532	1.328323
Cl145	Cl	1.907413	-0.482767	0.751405
Cl146	Cl	2.407413	0.017233	1.251405
Cl147	Cl	1.484406	-0.592992	0.327854
Cl148	Cl	1.984406	-0.092992	0.827854
Cl149	Cl	1.984344	-0.839296	0.828372
Cl150	Cl	2.484344	-0.339296	1.328372
H151	H	1.518574	-0.829222	0.361960
H152	H	2.018574	-0.329222	0.861960
H153	H	1.518517	-0.744115	0.361929
H154	H	2.018517	-0.244115	0.861929
H155	H	1.950226	-0.603062	0.794246
H156	H	2.450226	-0.103062	1.294246
Cl157	Cl	1.907742	-0.949277	0.751588
Cl158	Cl	2.407742	-0.449277	1.251588
Cl159	Cl	1.907796	-1.055179	0.751627
Cl160	Cl	2.407796	-0.555179	1.251627
H161	H	1.595458	-1.044997	0.438834
H162	H	2.095458	-0.544997	0.938834
Cl163	Cl	1.484472	-0.698877	0.327887
Cl164	Cl	1.984472	-0.198877	0.827887
Cl165	Cl	1.561384	-0.949526	0.404789
Cl166	Cl	2.061384	-0.449526	0.904789
Cl167	Cl	1.561089	-0.483024	0.404572
Cl168	Cl	2.061089	0.016976	0.904572
H169	H	1.950316	-0.743809	0.794314
H170	H	2.450316	-0.243809	1.294314
