data_functionalizedCrystal
_audit_creation_method	'MofGen! by Chris Wilmer'
_symmetry_space_group_name_H-M	'P1'
_symmetry_Int_Tables_number	1
_symmetry_cell_setting	triclinic
loop_
_symmetry_equiv_pos_as_xyz
  x,y,z
_cell_length_a	16.109301
_cell_length_b	10.540539
_cell_length_c	15.186229
_cell_angle_alpha	89.998389
_cell_angle_beta	89.999362
_cell_angle_gamma	83.993486
loop_
_atom_site_label
_atom_site_type_symbol
_atom_site_fract_x
_atom_site_fract_y
_atom_site_fract_z
O1	O	1.104128	0.163159	-0.073169
O2	O	0.862191	0.183464	-0.073182
O3	O	0.988679	-0.011474	-0.073174
O4	O	0.977640	0.358096	-0.073177
O5	O	0.988671	-0.011477	0.073283
O6	O	0.862182	0.183461	0.073275
O7	O	1.104120	0.163156	0.073289
Zn8	Zn	0.983150	0.173308	0.096535
Zn9	Zn	0.983161	0.173312	-0.096429
O10	O	0.977631	0.358094	0.073280
C11	C	0.831206	0.182640	0.000045
C12	C	0.738896	0.180174	0.000039
C13	C	0.517296	0.290112	0.000049
C14	C	0.430561	0.287785	0.000054
C15	C	0.449021	0.056499	0.000053
C16	C	0.535754	0.058827	0.000053
C17	C	0.569889	0.175637	0.000047
C18	C	0.396421	0.170982	0.000052
C19	C	0.302380	0.168459	0.000058
C20	C	0.663936	0.178162	0.000042
C21	C	0.987847	-0.058767	0.000053
C22	C	0.985370	-0.199679	0.000048
C23	C	0.890460	-0.381753	-0.000286
C24	C	0.892971	-0.235171	0.000044
C25	C	1.029832	-0.261972	0.083685
C26	C	1.026678	-0.408472	0.083755
C27	C	1.028567	-0.409014	-0.082794
C28	C	1.029418	-0.262044	-0.083900
C29	C	1.135104	0.163980	0.000060
C30	C	1.227414	0.166446	0.000059
C31	C	0.978463	0.405386	0.000052
C32	C	0.980940	0.546299	0.000051
N33	N	0.983148	0.173305	0.228228
N34	N	0.983169	0.173305	-0.228121
C35	C	1.039177	0.087015	0.453954
C36	C	1.039179	0.087012	0.546144
C37	C	0.927134	0.259598	0.546146
C38	C	0.927128	0.259594	0.453958
C39	C	0.983154	0.173304	0.407864
C40	C	0.983163	0.173305	0.592242
C41	C	0.983165	0.173303	0.692198
C42	C	0.983151	0.173305	0.307902
H43	H	0.387743	0.381003	0.000058
C44	C	1.160610	-0.433688	-0.157557
C45	C	1.118663	-0.474049	-0.083556
H46	H	1.216230	-0.473837	-0.158018
H47	H	1.132606	-0.456090	-0.209431
H48	H	1.161454	-0.343763	-0.155400
H49	H	1.117813	-0.563974	-0.085716
H50	H	1.146674	-0.451656	-0.031669
H51	H	0.996886	-0.220721	-0.145772
H52	H	0.421218	-0.038605	0.000063
C53	C	0.545297	-0.170034	0.000041
C54	C	0.593572	-0.067014	0.000047
H55	H	0.580993	-0.247717	0.000034
H56	H	0.511085	-0.166140	0.051110
H57	H	0.511082	-0.166121	-0.051036
H58	H	0.627782	-0.070922	0.051128
H59	H	0.627798	-0.070911	-0.051027
C60	C	1.149920	-0.083588	0.463216
C61	C	1.100751	-0.007845	0.403288
H62	H	1.187929	-0.142159	0.431936
H63	H	1.180141	-0.030737	0.499164
H64	H	1.115034	-0.129253	0.499180
H65	H	1.135637	0.037828	0.367328
H66	H	1.070528	-0.060702	0.367324
H67	H	0.545085	0.385227	0.000050
H68	H	1.096785	-0.238783	-0.088946
C69	C	0.814911	-0.274136	-0.130104
C70	C	0.845732	-0.176971	-0.080883
H71	H	0.785739	-0.238206	-0.180062
H72	H	0.860060	-0.333085	-0.148922
H73	H	0.778019	-0.317001	-0.094712
H74	H	0.882630	-0.134112	-0.116274
H75	H	0.800577	-0.118000	-0.062067
H76	H	0.853964	-0.409832	-0.060263
H77	H	0.881504	0.329861	0.416429
C78	C	0.961035	-0.343303	-0.218696
C79	C	0.988206	-0.451021	-0.168375
H80	H	0.936117	-0.369240	-0.271529
H81	H	0.921238	-0.289523	-0.186046
H82	H	1.007330	-0.298106	-0.232653
H83	H	0.941910	-0.496214	-0.154413
H84	H	1.028006	-0.504823	-0.201032
H85	H	0.881521	0.329855	0.583684
H86	H	0.854106	-0.411444	0.059352
H87	H	0.857734	-0.192914	0.060094
C88	C	1.036555	-0.530791	0.217424
C89	C	0.982300	-0.445920	0.168142
H90	H	1.009155	-0.553898	0.269522
H91	H	1.052495	-0.605045	0.183483
H92	H	1.084806	-0.490978	0.232703
H93	H	0.934051	-0.485737	0.152858
H94	H	0.966349	-0.371653	0.202090
C95	C	1.172724	-0.382063	0.091906
C96	C	1.116381	-0.474516	0.088898
H97	H	1.228100	-0.422835	0.095090
H98	H	1.166733	-0.330929	0.040339
H99	H	1.161555	-0.329738	0.142339
H100	H	1.127546	-0.526836	0.038462
H101	H	1.122375	-0.525672	0.140471
C102	C	1.047009	-0.146399	0.217570
C103	C	0.988128	-0.203886	0.167705
H104	H	1.021256	-0.110535	0.269436
H105	H	1.091505	-0.208614	0.233249
H106	H	1.068188	-0.081045	0.183846
H107	H	0.966953	-0.269247	0.201428
H108	H	0.943617	-0.141665	0.152029
C109	C	1.056207	-0.085740	0.649812
C110	C	1.100762	-0.007839	0.596805
H111	H	1.094229	-0.144304	0.681082
H112	H	1.022854	-0.034352	0.690456
H113	H	1.021333	-0.131411	0.613841
H114	H	1.135633	0.037840	0.632776
H115	H	1.134129	-0.059233	0.556156
H116	H	1.097687	-0.240586	0.086798
