data_functionalizedCrystal
_audit_creation_method	'MofGen! by Chris Wilmer'
_symmetry_space_group_name_H-M	'P1'
_symmetry_Int_Tables_number	1
_symmetry_cell_setting	triclinic
loop_
_symmetry_equiv_pos_as_xyz
  x,y,z
_cell_length_a	10.489716
_cell_length_b	10.489716
_cell_length_c	9.565339
_cell_angle_alpha	90.005599
_cell_angle_beta	89.995366
_cell_angle_gamma	84.529136
loop_
_atom_site_label
_atom_site_type_symbol
_atom_site_fract_x
_atom_site_fract_y
_atom_site_fract_z
O1	O	1.694058	0.179809	-0.116235
O2	O	1.322857	0.196735	-0.116239
O3	O	1.516920	0.002671	-0.116242
O4	O	1.499995	0.373872	-0.116232
O5	O	1.516899	0.002689	0.116278
O6	O	1.322836	0.196752	0.116281
O7	O	1.694037	0.179826	0.116285
Zn8	Zn	1.508433	0.188292	0.153201
Zn9	Zn	1.508461	0.188269	-0.153155
O10	O	1.499974	0.373890	0.116288
C11	C	1.275314	0.195472	0.000020
C12	C	1.133684	0.191667	0.000018
C13	C	1.035999	0.310673	0.000018
C14	C	0.958648	0.247796	0.114667
C15	C	0.958676	0.247751	-0.114579
C16	C	1.058198	0.128840	0.114762
C17	C	1.058231	0.128812	-0.114587
C18	C	0.980929	0.065848	0.000090
C19	C	1.515638	-0.044852	0.000014
C20	C	1.511833	-0.186483	0.000001
C21	C	1.630839	-0.284167	0.000015
C22	C	1.567964	-0.361531	-0.114626
C23	C	1.567916	-0.361478	0.114620
C24	C	1.449008	-0.261981	-0.114735
C25	C	1.448977	-0.261922	0.114614
C26	C	1.386015	-0.339237	-0.000055
C27	C	1.741580	0.181089	0.000023
C28	C	1.883210	0.184894	0.000016
C29	C	1.501256	0.421413	0.000029
C30	C	1.505061	0.563044	0.000033
N31	N	1.508423	0.188307	0.362280
C32	C	1.418646	0.278027	0.453485
C33	C	1.534139	0.303830	0.546666
C34	C	1.392973	0.162521	0.546654
C35	C	1.623976	0.214168	0.453409
C36	C	1.482733	0.072809	0.453390
C37	C	1.598309	0.098563	0.546529
N38	N	1.508456	0.188267	0.637766
H39	H	0.956508	-0.037744	0.000153
H40	H	1.618169	-0.404947	0.211538
C41	C	1.224093	-0.444741	-0.119096
C42	C	1.246174	-0.372222	-0.000133
H43	H	1.137765	-0.465111	-0.119142
H44	H	1.239571	-0.396768	-0.200542
H45	H	1.279957	-0.521538	-0.118269
H46	H	1.190317	-0.295420	-0.000965
H47	H	1.230683	-0.420195	0.081334
C48	C	1.336785	-0.300619	0.326921
C49	C	1.381212	-0.203148	0.245461
H50	H	1.294964	-0.264332	0.407712
H51	H	1.278178	-0.344593	0.273884
H52	H	1.407090	-0.359026	0.354431
H53	H	1.310905	-0.144746	0.217942
H54	H	1.439822	-0.159154	0.298508
H55	H	1.721646	0.236077	0.412623
H56	H	1.101740	0.078606	-0.211521
C57	C	1.195612	0.354726	0.447413
C58	C	1.316256	0.380537	0.398316
H59	H	1.132409	0.418018	0.413357
H60	H	1.177152	0.272742	0.415467
H61	H	1.195451	0.355934	0.546715
H62	H	1.316419	0.379320	0.299013
H63	H	1.334720	0.462543	0.430254
C64	C	0.927277	0.443672	-0.245199
C65	C	0.900012	0.315574	-0.245432
H66	H	0.891074	0.485543	-0.325986
H67	H	0.891829	0.485083	-0.163807
H68	H	1.017423	0.447263	-0.245668
H69	H	0.809865	0.311983	-0.244953
H70	H	0.935454	0.274152	-0.326846
H71	H	0.915153	0.298041	0.211596
C72	C	1.249661	0.065357	0.244595
C73	C	1.116654	0.061083	0.245752
H74	H	1.285747	0.023536	0.325467
H75	H	1.284606	0.023384	0.163291
H76	H	1.268833	0.152055	0.244267
H77	H	1.097483	-0.025615	0.246069
H78	H	1.081698	0.103053	0.327078
C79	C	1.772698	-0.117561	0.001122
C80	C	1.770564	-0.250823	-0.000111
H81	H	1.858954	-0.096969	0.001054
H82	H	1.730043	-0.082027	-0.079500
H83	H	1.730561	-0.083315	0.082664
H84	H	1.812694	-0.285069	-0.081658
H85	H	1.813238	-0.286371	0.080519
C86	C	1.763897	-0.393043	-0.245259
C87	C	1.635789	-0.420278	-0.245463
H88	H	1.805773	-0.429317	-0.326024
H89	H	1.767511	-0.302913	-0.245782
H90	H	1.805291	-0.428450	-0.163839
H91	H	1.594392	-0.384863	-0.326878
H92	H	1.632167	-0.510426	-0.244952
H93	H	1.555893	0.401487	0.587636
H94	H	1.398807	-0.218680	-0.211763
H95	H	1.674329	0.022669	0.587126
C96	C	1.556505	-0.112107	0.317456
C97	C	1.453323	-0.058982	0.398021
H98	H	1.538338	-0.193471	0.283279
H99	H	1.569593	-0.057119	0.240958
H100	H	1.631558	-0.121779	0.373506
H101	H	1.378272	-0.049300	0.341968
H102	H	1.440220	-0.113983	0.474530
H103	H	1.295325	0.140729	0.587616
H104	H	1.060659	0.414190	0.000128
