data_functionalizedCrystal
_audit_creation_method	'MofGen! by Chris Wilmer'
_symmetry_space_group_name_H-M	'P1'
_symmetry_Int_Tables_number	1
_symmetry_cell_setting	triclinic
loop_
_symmetry_equiv_pos_as_xyz
  x,y,z
_cell_length_a	6.817900
_cell_length_b	19.551823
_cell_length_c	16.305550
_cell_angle_alpha	95.888693
_cell_angle_beta	103.455250
_cell_angle_gamma	101.663376
loop_
_atom_site_label
_atom_site_type_symbol
_atom_site_fract_x
_atom_site_fract_y
_atom_site_fract_z
V1	V	-4.017281	-0.097265	-0.263428
O2	O	-4.014216	0.004067	-0.258008
O3	O	-3.959975	-0.192277	-0.262017
O4	O	-3.968800	-0.096036	-0.378140
O5	O	-4.005329	-0.092841	-0.141081
V6	V	-4.502073	-0.085113	-0.248747
O7	O	-4.275755	-0.123922	-0.295633
O8	O	-4.693797	-0.058457	-0.216543
O9	O	-4.336173	0.009899	-0.250158
O10	O	-4.622535	-0.186446	-0.254168
O11	O	-4.631422	-0.089538	-0.371095
O12	O	-4.327347	-0.086343	-0.134035
C13	C	-3.802811	-0.215431	-0.257962
C14	C	-3.837243	-0.293106	-0.257573
C15	C	-3.814068	-0.092664	-0.406088
C16	C	-3.855655	-0.092287	-0.499868
C17	C	-4.035182	-0.333161	-0.261608
C18	C	-4.067539	-0.406146	-0.261251
C19	C	-3.901937	-0.439072	-0.256841
C20	C	-3.703973	-0.399008	-0.252810
C21	C	-3.671626	-0.326026	-0.253175
C22	C	-3.788746	-0.545440	-0.203346
C23	C	-3.821097	-0.618420	-0.202975
C24	C	-4.001700	-0.664175	-0.255717
C25	C	-4.149976	-0.636939	-0.308819
C26	C	-4.117629	-0.563956	-0.309185
C27	C	-3.936992	-0.518209	-0.256445
C28	C	-4.234737	-0.783369	-0.259367
C29	C	-4.267089	-0.856357	-0.259015
C30	C	-3.903513	-0.849216	-0.250564
C31	C	-3.871171	-0.776231	-0.250925
C32	C	-4.036788	-0.743312	-0.255322
C33	C	-4.006876	-0.090827	-0.840607
C34	C	-3.771228	-0.086491	-0.799661
C35	C	-3.727972	-0.087172	-0.702169
C36	C	-3.931852	-0.091551	-0.671563
C37	C	-4.092525	-0.160559	-0.722471
C38	C	-4.134424	-0.160169	-0.820019
C39	C	-4.067542	-0.026706	-0.794503
C40	C	-4.019662	-0.026160	-0.696658
C41	C	-3.889464	-0.091963	-0.576026
C42	C	-4.049273	-0.090420	-0.936145
C43	C	-4.156678	0.033048	-0.254211
C44	C	-4.101484	0.110723	-0.254606
C45	C	-4.145421	-0.089717	-0.106083
C46	C	-4.083073	-0.090090	-0.012302
H47	H	-4.228729	-0.438765	-0.264538
C48	C	-4.079551	-0.225739	-0.861337
H49	H	-4.104633	-0.226081	-0.921200
H50	H	-3.937322	-0.224302	-0.837726
H51	H	-4.162882	-0.267291	-0.850584
H52	H	-4.238360	-0.541784	-0.352424
H53	H	-4.307703	-0.166221	-0.848035
C54	C	-4.416901	-0.747155	-0.264203
H55	H	-4.539431	-0.781467	-0.266565
H56	H	-4.386768	-0.712343	-0.215067
H57	H	-4.436909	-0.725323	-0.313974
C58	C	-4.298712	-0.168267	-0.696952
H59	H	-4.288610	-0.129376	-0.654919
H60	H	-4.407635	-0.169146	-0.745770
H61	H	-4.327070	-0.211033	-0.674403
H62	H	-3.721891	-0.132559	-0.831361
C63	C	-4.348623	-0.687261	-0.366852
H64	H	-4.346642	-0.734629	-0.359042
H65	H	-4.466457	-0.675606	-0.352523
H66	H	-4.355292	-0.682602	-0.424800
H67	H	-3.768679	-0.876024	-0.246979
C68	C	-3.658027	-0.648376	-0.144555
H69	H	-3.703172	-0.698393	-0.151879
H70	H	-3.529605	-0.636124	-0.159010
H71	H	-3.640732	-0.629098	-0.086725
H72	H	-4.170046	-0.306364	-0.265195
H73	H	-3.569142	-0.425821	-0.249221
H74	H	-4.428281	-0.888969	-0.262307
H75	H	-3.709986	-0.743617	-0.247633
H76	H	-3.903320	0.024883	-0.662071
C77	C	-4.011600	-0.226153	-0.700035
H78	H	-3.879994	-0.211629	-0.659682
H79	H	-4.106291	-0.255227	-0.676319
H80	H	-3.998544	-0.252065	-0.750269
C81	C	-4.218721	-0.024988	-0.667803
H82	H	-4.251037	-0.064544	-0.639955
H83	H	-4.197916	0.017384	-0.629454
H84	H	-4.330040	-0.027099	-0.716205
H85	H	-3.641663	-0.508191	-0.160400
H86	H	-3.510438	-0.293413	-0.249890
C87	C	-3.563454	-0.020105	-0.654569
H88	H	-3.536803	-0.020417	-0.594785
H89	H	-3.439027	-0.019028	-0.671699
H90	H	-3.613115	0.020525	-0.667850
H91	H	-3.669684	-0.036640	-0.811821
C92	C	-3.632444	-0.150125	-0.680409
H93	H	-3.619972	-0.175386	-0.731188
H94	H	-3.499136	-0.133189	-0.641715
H95	H	-3.719327	-0.180650	-0.654911
H96	H	-3.980959	0.025581	-0.807657
H97	H	-4.239370	-0.029268	-0.821329
