data_functionalizedCrystal
_audit_creation_method	'MofGen! by Chris Wilmer'
_symmetry_space_group_name_H-M	'P1'
_symmetry_Int_Tables_number	1
_symmetry_cell_setting	triclinic
loop_
_symmetry_equiv_pos_as_xyz
  x,y,z
_cell_length_a	19.288864
_cell_length_b	11.026607
_cell_length_c	18.366186
_cell_angle_alpha	89.996969
_cell_angle_beta	89.977106
_cell_angle_gamma	95.861131
loop_
_atom_site_label
_atom_site_type_symbol
_atom_site_fract_x
_atom_site_fract_y
_atom_site_fract_z
O1	O	0.940539	0.151279	-0.060786
O2	O	1.440539	0.651279	0.439214
O3	O	0.740867	0.171686	-0.060737
O4	O	1.240867	0.671686	0.439263
O5	O	0.824154	-0.015080	-0.060755
O6	O	1.324154	0.484920	0.439245
O7	O	0.857252	0.338045	-0.060768
O8	O	1.357252	0.838045	0.439232
O9	O	0.824135	-0.015089	0.060345
O10	O	1.324135	0.484911	0.560345
O11	O	0.740847	0.171677	0.060363
O12	O	1.240847	0.671677	0.560363
O13	O	0.940520	0.151270	0.060313
O14	O	1.440520	0.651270	0.560313
Zn15	Zn	0.840681	0.161472	0.079565
Zn16	Zn	1.340681	0.661472	0.579565
Zn17	Zn	0.840706	0.161484	-0.079988
Zn18	Zn	1.340706	0.661484	0.420012
O19	O	0.857232	0.338036	0.060331
O20	O	1.357232	0.838036	0.560331
C21	C	0.714897	0.171025	-0.000181
C22	C	1.214897	0.671025	0.499819
C23	C	0.637544	0.169054	-0.000161
C24	C	1.137544	0.669054	0.499839
C25	C	0.606746	0.278640	-0.000177
C26	C	1.106746	0.778640	0.499823
C27	C	0.534064	0.276788	-0.000185
C28	C	1.034064	0.776788	0.499815
C29	C	0.492182	0.165344	-0.000192
C30	C	0.992182	0.665344	0.499808
C31	C	0.522988	0.055744	-0.000172
C32	C	1.022988	0.555744	0.499828
C33	C	0.595669	0.057599	-0.000157
C34	C	1.095669	0.557599	0.499843
C35	C	0.372816	0.077740	-0.042640
C36	C	0.872816	0.577740	0.457360
C37	C	0.300137	0.075890	-0.042659
C38	C	0.800137	0.575890	0.457341
C39	C	0.268011	0.159618	-0.000236
C40	C	0.768011	0.659618	0.499764
C41	C	0.308573	0.245218	0.042198
C42	C	0.808573	0.745218	0.542198
C43	C	0.381254	0.247073	0.042213
C44	C	0.881254	0.747073	0.542213
C45	C	0.413372	0.163320	-0.000208
C46	C	0.913372	0.663320	0.499792
C47	C	0.158403	0.267204	-0.000259
C48	C	0.658403	0.767204	0.499741
C49	C	0.085720	0.265347	-0.000263
C50	C	0.585720	0.765347	0.499737
C51	C	0.074645	0.044300	-0.000257
C52	C	0.574645	0.544300	0.499743
C53	C	0.147327	0.046159	-0.000246
C54	C	0.647327	0.546159	0.499754
C55	C	0.189202	0.157615	-0.000251
C56	C	0.689202	0.657615	0.499749
C57	C	0.818039	-0.060262	-0.000204
C58	C	1.318039	0.439738	0.499796
C59	C	0.799837	-0.194876	-0.000202
C60	C	1.299837	0.305124	0.499798
C61	C	0.850095	-0.268957	-0.000216
C62	C	1.350095	0.231043	0.499784
C63	C	0.831284	-0.408088	-0.000214
C64	C	1.331284	0.091912	0.499786
C65	C	0.966489	0.151931	-0.000244
C66	C	1.466489	0.651931	0.499756
C67	C	1.043843	0.153902	-0.000268
C68	C	1.543843	0.653902	0.499732
C69	C	0.863348	0.383218	-0.000221
C70	C	1.363348	0.883218	0.499779
C71	C	0.881550	0.517833	-0.000227
C72	C	1.381550	1.017833	0.499773
N73	N	0.840668	0.161463	0.188456
N74	N	1.340668	0.661463	0.688456
N75	N	0.840723	0.161484	-0.188880
N76	N	1.340723	0.661484	0.311120
C77	C	0.877569	0.078804	0.226549
C78	C	1.377569	0.578804	0.726549
C79	C	0.877572	0.078798	0.302777
C80	C	1.377572	0.578798	0.802777
C81	C	0.840685	0.161473	0.340909
C82	C	1.340685	0.661473	0.840909
C83	C	0.803777	0.244139	0.302807
C84	C	1.303777	0.744139	0.802807
C85	C	0.803768	0.244134	0.226581
C86	C	1.303768	0.744134	0.726581
C87	C	0.845400	0.271967	0.461667
C88	C	1.345400	0.771967	0.961667
C89	C	0.845414	0.271974	0.537891
C90	C	1.345414	0.771974	1.037891
C91	C	0.840707	0.161488	0.576017
C92	C	1.340707	0.661488	1.076017
C93	C	0.836000	0.050992	0.537907
C94	C	1.336000	0.550992	1.037907
C95	C	0.835992	0.050987	0.461681
C96	C	1.335992	0.550987	0.961681
C97	C	0.840689	0.161487	0.423564
C98	C	1.340689	0.661487	0.923564
C99	C	0.877613	0.078816	0.696764
C100	C	1.377613	0.578816	1.196764
C101	C	0.877611	0.078809	0.772993
C102	C	1.377611	0.578809	1.272993
C103	C	0.803820	0.244161	0.773023
C104	C	1.303820	0.744161	1.273023
C105	C	0.803817	0.244157	0.696795
C106	C	1.303817	0.744157	1.196795
C107	C	0.840717	0.161486	0.658670
C108	C	1.340717	0.661486	1.158670
H109	H	0.267116	0.006194	-0.077215
H110	H	0.767116	0.506194	0.422785
F111	F	0.916883	-0.009179	0.813536
F112	F	1.416883	0.490821	1.313536
F113	F	0.830977	-0.066608	0.421125
F114	F	1.330977	0.433392	0.921125
F115	F	0.407000	-0.011383	-0.087795
F116	F	0.907000	0.488617	0.412205
H117	H	0.040545	-0.046440	-0.000308
H118	H	0.540545	0.453560	0.499692
F119	F	0.764546	0.332140	0.656251
F120	F	1.264546	0.832140	1.156251
H121	H	0.192500	0.357957	-0.000252
H122	H	0.692500	0.857957	0.499748
H123	H	0.742883	-0.234456	-0.000193
H124	H	1.242883	0.265544	0.499807
F125	F	0.478414	-0.062863	-0.000176
F126	F	0.978414	0.437137	0.499824
H127	H	0.282418	0.313397	0.076744
H128	H	0.782418	0.813397	0.576744
F129	F	0.850427	0.389572	0.578443
F130	F	1.350427	0.889572	1.078443
F131	F	0.756835	-0.459810	-0.000202
F132	F	1.256835	0.040190	0.499798
F133	F	0.850462	0.389571	0.421098
F134	F	1.350462	0.889571	0.921098
H135	H	0.773719	0.311447	0.195565
H136	H	1.273719	0.811447	0.695565
H137	H	0.620743	-0.031642	-0.000145
H138	H	1.120743	0.468358	0.499855
F139	F	0.916837	-0.009185	0.185975
F140	F	1.416837	0.490815	0.685975
H141	H	0.907050	-0.229377	-0.000225
H142	H	1.407050	0.270623	0.499775
F143	F	0.180106	-0.070479	-0.000233
F144	F	0.680106	0.429521	0.499767
F145	F	0.424421	0.338168	0.087375
F146	F	0.924421	0.838168	0.587375
F147	F	0.916849	-0.009184	0.343324
F148	F	1.416849	0.490816	0.843324
H149	H	0.907656	0.011497	0.665722
H150	H	1.407656	0.511497	1.165722
H151	H	0.938508	-0.442594	-0.000296
H152	H	1.438508	0.057406	0.499704
F153	F	0.830994	-0.066604	0.578476
F154	F	1.330994	0.433396	1.078476
F155	F	0.052943	0.381991	-0.000275
F156	F	0.552943	0.881991	0.499725
H157	H	0.773783	0.311471	0.804069
H158	H	1.273783	0.811471	1.304069
F159	F	0.764515	0.332124	0.343391
F160	F	1.264515	0.832124	0.843391
H161	H	0.640837	0.369396	-0.000182
H162	H	1.140837	0.869396	0.499818
H163	H	0.508984	0.366029	-0.000196
H164	H	1.008984	0.866029	0.499804
