data_functionalizedCrystal
_audit_creation_method	'MofGen! by Chris Wilmer'
_symmetry_space_group_name_H-M	'P1'
_symmetry_Int_Tables_number	1
_symmetry_cell_setting	triclinic
loop_
_symmetry_equiv_pos_as_xyz
  x,y,z
_cell_length_a	15.538191
_cell_length_b	27.732048
_cell_length_c	14.750779
_cell_angle_alpha	77.459753
_cell_angle_beta	97.572172
_cell_angle_gamma	64.957374
loop_
_atom_site_label
_atom_site_type_symbol
_atom_site_fract_x
_atom_site_fract_y
_atom_site_fract_z
O1	O	1.231553	-0.143284	-0.079812
O2	O	0.956477	-0.087327	-0.079821
O3	O	1.102563	-0.187172	-0.079798
O4	O	1.085467	-0.043439	-0.079835
O5	O	1.143860	-0.215394	0.079859
O6	O	0.997774	-0.115550	0.079836
O7	O	1.272849	-0.171506	0.079845
Zn8	Zn	1.141868	-0.148009	0.105189
Zn9	Zn	1.087458	-0.110825	-0.105165
O10	O	1.126764	-0.071662	0.079822
C11	C	0.941944	-0.095584	0.000007
C12	C	0.837116	-0.078145	0.000004
C13	C	0.551855	-0.251395	0.000034
C14	C	0.453349	-0.234996	0.000029
C15	C	0.429558	-0.142756	0.000005
C16	C	0.528065	-0.159148	0.000015
C17	C	0.589206	-0.213468	0.000028
C18	C	0.565415	-0.121222	0.000009
C19	C	0.663912	-0.137612	0.000014
C20	C	0.725059	-0.191928	0.000024
C21	C	0.687703	-0.229858	0.000032
C22	C	0.504271	-0.066901	-0.000011
C23	C	0.541621	-0.028974	-0.000017
C24	C	0.640122	-0.045365	-0.000005
C25	C	0.701268	-0.099682	0.000005
C26	C	0.677478	-0.007436	-0.000014
C27	C	0.775975	-0.023826	-0.000009
C28	C	0.799765	-0.116072	0.000010
C29	C	1.122853	-0.219229	0.000033
C30	C	1.121775	-0.272700	0.000041
C31	C	1.201288	-0.625155	-0.000006
C32	C	1.197277	-0.826125	-0.000019
O33	O	1.269986	-0.869854	-0.000059
N34	N	1.110657	-0.830382	-0.000021
C35	C	1.025032	-0.784391	-0.000026
O36	O	0.951262	-0.792622	-0.000038
C37	C	1.029042	-0.583422	-0.000019
C38	C	1.115670	-0.579170	-0.000008
C39	C	1.287908	-0.620901	0.000005
C40	C	1.288911	-0.570663	0.000014
C41	C	1.203294	-0.524678	0.000012
C42	C	1.116673	-0.528931	0.000001
C43	C	0.943416	-0.537431	-0.000031
C44	C	0.944426	-0.487187	-0.000032
C45	C	1.031054	-0.482935	-0.000020
C46	C	1.032059	-0.432708	0.000008
N47	N	1.118679	-0.428450	0.000010
C48	C	1.204296	-0.474435	0.000012
C49	C	1.022934	-0.889905	-0.000028
C50	C	1.021931	-0.940147	-0.000028
C51	C	1.194176	-0.981877	-0.000022
C52	C	1.195179	-0.931635	-0.000016
C53	C	1.109554	-0.885648	-0.000026
C54	C	1.206396	-0.368929	0.000031
C55	C	1.207393	-0.318685	0.000043
C56	C	1.035147	-0.276959	0.000033
C57	C	1.034152	-0.327199	0.000025
C58	C	1.119783	-0.373185	0.000021
O59	O	0.959386	-0.388955	0.000036
O60	O	1.278050	-0.466189	0.000002
C61	C	1.200285	-0.675394	-0.000014
C62	C	1.113664	-0.679647	-0.000025
C63	C	1.028046	-0.633662	-0.000027
C64	C	1.112662	-0.729890	-0.000025
C65	C	1.198279	-0.775875	-0.000023
C66	C	1.284899	-0.771617	-0.000021
C67	C	1.285902	-0.721379	-0.000012
C68	C	0.941427	-0.637920	-0.000029
C69	C	0.940431	-0.688160	-0.000036
C70	C	1.026048	-0.734145	-0.000034
C71	C	1.287382	-0.163249	0.000015
C72	C	1.392208	-0.180687	0.000012
C73	C	1.106473	-0.039604	-0.000011
C74	C	1.107549	0.013868	-0.000025
N75	N	1.179009	-0.173388	0.248751
N76	N	1.050325	-0.085451	-0.248727
C77	C	0.946598	-0.014593	0.600532
C78	C	0.972630	-0.032375	0.701036
C79	C	1.102015	-0.120767	0.701019
C80	C	1.075991	-0.102994	0.600514
C81	C	0.998282	-0.049906	0.550278
C82	C	1.127675	-0.138307	0.550259
C83	C	1.101655	-0.120534	0.449763
C84	C	1.023951	-0.067447	0.399521
C85	C	0.972262	-0.032133	0.449782
C86	C	1.205388	-0.191393	0.600497
C87	C	1.257072	-0.226706	0.550242
C88	C	1.231048	-0.208935	0.449744
C89	C	1.153344	-0.155848	0.399502
C90	C	1.282737	-0.244249	0.399483
C91	C	1.256717	-0.226476	0.298986
C92	C	1.127325	-0.138075	0.299005
H93	H	1.276125	-0.406366	0.000023
H94	H	0.805258	-0.205270	0.000015
C95	C	0.954314	-0.374005	0.082087
C96	C	0.938931	-0.331875	0.000023
H97	H	0.895522	-0.376883	0.082080
H98	H	1.005147	-0.408578	0.082075
H99	H	0.972690	-0.365118	0.137763
H100	H	0.920562	-0.340764	-0.055653
H101	H	0.888081	-0.297294	0.000026
C102	C	0.713416	-0.317480	0.000063
C103	C	0.619076	-0.311106	0.000059
H104	H	0.754914	-0.354342	0.000085
H105	H	0.710264	-0.291377	-0.055617
H106	H	0.739056	-0.311050	0.055736
H107	H	0.593433	-0.317532	-0.055618
H108	H	0.622225	-0.337216	0.055744
C109	C	1.380081	-0.310743	0.553531
C110	C	1.368155	-0.302601	0.454709
H111	H	1.432812	-0.346769	0.587623
H112	H	1.394126	-0.283109	0.569982
H113	H	1.321396	-0.307881	0.570010
H114	H	1.426838	-0.305459	0.438230
H115	H	1.354116	-0.330243	0.438252
H116	H	1.298805	-0.255232	0.258069
C117	C	0.916227	0.006147	0.255575
C118	C	0.995346	-0.047906	0.289052
H119	H	0.898573	0.018211	0.187377
H120	H	0.861866	0.006059	0.278323
H121	H	0.934594	0.030832	0.278310
H122	H	0.976976	-0.072592	0.266323
H123	H	1.049718	-0.047822	0.266294
H124	H	0.965441	-0.239510	0.000035
H125	H	0.422944	-0.265884	0.000032
C126	C	0.348423	-0.054028	-0.082082
C127	C	0.395999	-0.048882	-0.000018
H128	H	0.281582	-0.042907	-0.082081
H129	H	0.351914	-0.030862	-0.137752
H130	H	0.379499	-0.091809	-0.082057
H131	H	0.364927	-0.011100	-0.000046
H132	H	0.392502	-0.072048	0.055667
H133	H	0.627680	0.036793	-0.000034
H134	H	0.737490	-0.274091	0.000049
C135	C	1.456050	-0.767686	-0.000015
C136	C	1.381125	-0.716709	-0.000010
H137	H	1.514836	-0.764803	-0.000022
H138	H	1.466473	-0.796257	0.055657
H139	H	1.437657	-0.776565	-0.055695
H140	H	1.399514	-0.707832	0.055674
H141	H	1.370702	-0.688129	-0.055688
C142	C	0.742576	0.068999	-0.000016
C143	C	0.817039	0.017861	-0.000010
H144	H	0.767931	0.094734	-0.000014
H145	H	0.690256	0.083317	-0.055690
H146	H	0.719054	0.063627	0.055662
H147	H	0.840557	0.023233	-0.055693
H148	H	0.869377	0.003541	0.055669
H149	H	0.379763	-0.098528	-0.000010
H150	H	0.491826	0.015254	-0.000031
H151	H	0.849552	-0.160306	0.000026
H152	H	1.277939	-0.315229	0.000055
C153	C	1.459058	-0.616970	0.000008
C154	C	1.384133	-0.565992	0.000014
H155	H	1.517844	-0.614087	0.000000
H156	H	1.469483	-0.645541	0.055681
H157	H	1.440665	-0.625848	-0.055671
H158	H	1.402524	-0.557116	0.055697
H159	H	1.373709	-0.537412	-0.055665
H160	H	1.165289	-0.163991	0.741932
C161	C	0.862385	-0.746635	-0.000059
C162	C	0.845200	-0.692829	-0.000050
H163	H	0.803594	-0.749515	-0.000068
H164	H	0.883205	-0.753593	-0.055728
H165	H	0.912001	-0.773289	0.055625
H166	H	0.795589	-0.666175	-0.055737
H167	H	0.824367	-0.685865	0.055625
C168	C	1.153841	-0.211062	0.744480
C169	C	1.233992	-0.210935	0.710965
H170	H	1.171505	-0.223131	0.812678
H171	H	1.100174	-0.174396	0.721761
H172	H	1.135499	-0.235755	0.721742
H173	H	1.252330	-0.186240	0.733697
H174	H	1.287677	-0.247607	0.733694
H175	H	0.951395	-0.943606	-0.000020
H176	H	0.908977	0.011095	0.408878
C177	C	0.863857	-0.571729	0.082050
C178	C	0.847311	-0.587374	-0.000027
H179	H	0.805751	-0.540523	0.082049
H180	H	0.881446	-0.602043	0.137711
H181	H	0.915585	-0.562001	0.082043
H182	H	0.795587	-0.597106	-0.000017
H183	H	0.829709	-0.557054	-0.055703
H184	H	1.320346	-0.269930	0.591155
H185	H	1.357632	-0.658340	0.000003
H186	H	1.263889	-1.019327	-0.000020
C187	C	1.275007	-0.884834	-0.082087
C188	C	1.290398	-0.926960	-0.000012
H189	H	1.333792	-0.881949	-0.082081
H190	H	1.256639	-0.893725	-0.137750
H191	H	1.224160	-0.850256	-0.082080
H192	H	1.341239	-0.961539	-0.000023
H193	H	1.308779	-0.918072	0.055666
C194	C	0.821299	0.071008	0.610633
C195	C	0.861177	0.043763	0.545304
H196	H	0.768572	0.107034	0.576535
H197	H	0.797774	0.049853	0.649836
H198	H	0.870506	0.074623	0.649823
H199	H	0.811971	0.040145	0.506118
H200	H	0.884700	0.064924	0.506084
H201	H	0.953203	-0.852463	-0.000035
C202	C	0.774064	-0.450987	-0.000048
C203	C	0.850302	-0.436638	-0.000039
H204	H	0.715960	-0.419782	-0.000045
H205	H	0.762861	-0.461604	-0.055723
H206	H	0.791664	-0.481302	0.055630
H207	H	0.832704	-0.406326	-0.055720
H208	H	0.861505	-0.426013	0.055642
C209	C	0.980415	0.017192	0.814036
C210	C	0.915806	0.006448	0.756270
H211	H	0.945332	0.041162	0.848128
H212	H	1.030403	-0.016964	0.858340
H213	H	1.009313	0.034673	0.774810
H214	H	0.886913	-0.011037	0.795497
H215	H	0.865800	0.040610	0.711961
H216	H	0.872873	-0.540881	-0.000046
H217	H	1.354613	-0.809069	-0.000015
H218	H	1.064040	-0.094847	0.258102
