data_functionalizedCrystal
_audit_creation_method	'MofGen! by Chris Wilmer'
_symmetry_space_group_name_H-M	'P1'
_symmetry_Int_Tables_number	1
_symmetry_cell_setting	triclinic
loop_
_symmetry_equiv_pos_as_xyz
  x,y,z
_cell_length_a	16.109301
_cell_length_b	14.048226
_cell_length_c	14.971494
_cell_angle_alpha	90.000963
_cell_angle_beta	83.539519
_cell_angle_gamma	90.001973
loop_
_atom_site_label
_atom_site_type_symbol
_atom_site_fract_x
_atom_site_fract_y
_atom_site_fract_z
O1	O	1.103279	0.079097	0.114968
O2	O	0.861235	0.079111	0.129276
O3	O	0.988741	0.079102	-0.008087
O4	O	0.975773	0.079107	0.252331
O5	O	0.988729	-0.079220	-0.008086
O6	O	0.861223	-0.079210	0.129277
O7	O	1.103267	-0.079225	0.114969
Zn8	Zn	0.982243	-0.104354	0.122124
Zn9	Zn	0.982259	0.104241	0.122122
O10	O	0.975761	-0.079215	0.252332
C11	C	0.830253	-0.000047	0.128697
C12	C	0.737956	-0.000042	0.126960
N13	N	0.982238	-0.246715	0.122124
C14	C	0.988154	-0.000058	-0.041410
C15	C	0.986412	-0.000053	-0.140704
C16	C	0.515782	-0.000051	0.204428
C17	C	0.429060	-0.000057	0.202788
C18	C	0.448726	-0.000057	0.039812
C19	C	0.535447	-0.000057	0.041452
C20	C	0.568973	-0.000050	0.123763
C21	C	0.395529	-0.000055	0.120483
C22	C	0.301501	-0.000062	0.118704
C23	C	0.663007	-0.000045	0.125542
C24	C	1.134248	-0.000064	0.115548
C25	C	1.226546	-0.000063	0.117286
C26	C	0.931794	-0.703580	0.067847
C27	C	0.931791	-0.603922	0.067844
C28	C	0.982260	-0.554085	0.122114
C29	C	1.032742	-0.603910	0.176384
C30	C	1.032749	-0.703566	0.176381
C31	C	1.032722	-0.396196	0.176387
C32	C	1.032714	-0.296533	0.176392
C33	C	0.931764	-0.296552	0.067850
C34	C	0.931771	-0.396208	0.067848
C35	C	0.982252	-0.446027	0.122119
N36	N	0.982270	0.246602	0.122114
C37	C	0.985602	0.086249	-0.187348
C38	C	0.983960	0.086250	-0.280645
C39	C	0.983134	-0.000052	-0.327297
C40	C	0.983942	-0.086360	-0.280645
C41	C	0.985577	-0.086361	-0.187350
C42	C	0.980534	-0.086354	-0.475104
C43	C	0.978900	-0.086354	-0.568406
C44	C	0.978917	0.086257	-0.568399
C45	C	0.980553	0.086257	-0.475103
C46	C	0.981362	-0.000052	-0.428459
C47	C	0.976348	-0.000053	0.285655
C48	C	0.978090	-0.000052	0.384950
H49	H	0.543075	-0.000052	0.271450
Br50	Br	1.101262	-0.771178	0.250026
H51	H	0.978220	-0.156628	-0.606386
Br52	Br	0.403222	-0.000063	-0.071890
Br53	Br	0.863251	-0.228944	-0.005800
Br54	Br	0.356875	-0.000064	0.312267
H55	H	0.981174	-0.156636	-0.437126
H56	H	0.983305	0.156526	-0.318619
H57	H	0.986279	0.156526	-0.149372
Br58	Br	0.863258	-0.536315	-0.005779
Br59	Br	0.607641	-0.000067	-0.068030
Br60	Br	0.981685	0.203382	-0.411792
Br61	Br	0.977815	0.203391	-0.631700
H62	H	0.890692	-0.744151	0.023659
H63	H	1.073808	-0.255958	0.220586
Br64	Br	0.986672	-0.203489	-0.124045
H65	H	0.983264	-0.156629	-0.318636
H66	H	1.073831	-0.436755	0.220579
Br67	Br	0.863267	-0.463845	-0.005795
H68	H	1.073839	-0.563324	0.220567
