data_functionalizedCrystal
_audit_creation_method	'MofGen! by Chris Wilmer'
_symmetry_space_group_name_H-M	'P1'
_symmetry_Int_Tables_number	1
_symmetry_cell_setting	triclinic
loop_
_symmetry_equiv_pos_as_xyz
  x,y,z
_cell_length_a	14.519709
_cell_length_b	13.596369
_cell_length_c	8.597275
_cell_angle_alpha	97.698824
_cell_angle_beta	84.510331
_cell_angle_gamma	90.012081
loop_
_atom_site_label
_atom_site_type_symbol
_atom_site_fract_x
_atom_site_fract_y
_atom_site_fract_z
O1	O	1.225510	-0.064224	0.205738
O2	O	1.725510	0.435776	0.705738
O3	O	0.957228	-0.062201	0.229966
O4	O	1.457228	0.437799	0.729966
O5	O	1.096647	-0.082569	-0.010598
O6	O	1.596647	0.417431	0.489402
O7	O	1.086091	-0.043855	0.446302
O8	O	1.586091	0.456145	0.946302
O9	O	1.096664	0.081012	-0.010611
O10	O	1.596664	0.581012	0.489389
O11	O	0.957245	0.101381	0.229953
O12	O	1.457245	0.601381	0.729953
O13	O	1.225527	0.099358	0.205725
O14	O	1.725527	0.599358	0.705725
Zn15	Zn	1.091389	0.126341	0.217837
Zn16	Zn	1.591389	0.626341	0.717837
Zn17	Zn	1.091366	-0.089185	0.217854
Zn18	Zn	1.591366	0.410815	0.717854
O19	O	1.086108	0.119726	0.446289
O20	O	1.586108	0.619726	0.946289
C21	C	0.922868	0.019491	0.228831
C22	C	1.422868	0.519491	0.728831
C23	C	0.820459	0.019193	0.225447
C24	C	1.320459	0.519193	0.725447
C25	C	0.445463	0.018182	0.212991
C26	C	0.945463	0.518182	0.712991
C27	C	0.549799	0.018462	0.216450
C28	C	1.049799	0.518462	0.716450
C29	C	0.632958	0.018686	0.219218
C30	C	1.132958	0.518686	0.719218
C31	C	0.737300	0.018969	0.222678
C32	C	1.237300	0.518969	0.722678
N33	N	1.091351	-0.236276	0.217855
N34	N	1.591351	0.263724	0.717855
C35	C	1.091354	-0.325274	0.217856
C36	C	1.591354	0.174726	0.717856
C37	C	1.091368	-0.436926	0.217852
C38	C	1.591368	0.063074	0.717852
C39	C	1.091383	-0.525917	0.217841
C40	C	1.591383	-0.025917	0.717841
C41	C	1.091396	-0.637576	0.217835
C42	C	1.591396	-0.137576	0.717835
C43	C	1.259887	0.017664	0.206861
C44	C	1.759887	0.517664	0.706861
C45	C	1.362296	0.017956	0.210244
C46	C	1.862296	0.517956	0.710244
C47	C	1.095521	-0.005735	-0.069079
C48	C	1.595521	0.494265	0.430921
C49	C	1.092130	-0.020506	-0.243313
C50	C	1.592130	0.479494	0.256687
N51	N	1.091411	0.273432	0.217824
N52	N	1.591411	0.773432	0.717824
C53	C	1.087234	0.042890	0.504770
C54	C	1.587234	0.542890	1.004770
C55	C	1.090625	0.057654	0.679005
C56	C	1.590625	0.557654	1.179005
H57	H	1.090825	-0.098718	-0.310102
H58	H	1.590825	0.401282	0.189898
Br59	Br	1.092818	0.188024	-0.209682
Br60	Br	1.592818	0.688024	0.290318
