data_functionalizedCrystal
_audit_creation_method	'MofGen! by Chris Wilmer'
_symmetry_space_group_name_H-M	'P1'
_symmetry_Int_Tables_number	1
_symmetry_cell_setting	triclinic
loop_
_symmetry_equiv_pos_as_xyz
  x,y,z
_cell_length_a	16.109301
_cell_length_b	17.038272
_cell_length_c	15.186229
_cell_angle_alpha	89.995962
_cell_angle_beta	89.999362
_cell_angle_gamma	87.286518
loop_
_atom_site_label
_atom_site_type_symbol
_atom_site_fract_x
_atom_site_fract_y
_atom_site_fract_z
O1	O	1.110268	0.100495	-0.073174
O2	O	0.869094	0.113001	-0.073188
O3	O	0.988247	-0.007067	-0.073174
O4	O	0.991114	0.220563	-0.073187
O5	O	0.988239	-0.007069	0.073284
O6	O	0.869085	0.113000	0.073270
O7	O	1.110259	0.100493	0.073284
Zn8	Zn	0.989671	0.106746	0.096530
Zn9	Zn	0.989682	0.106748	-0.096434
O10	O	0.991105	0.220562	0.073270
C11	C	0.838079	0.112494	0.000039
C12	C	0.745676	0.110975	0.000034
C13	C	0.985636	-0.036196	0.000055
C14	C	0.977857	-0.122989	0.000054
C15	C	0.528212	0.178690	0.000040
C16	C	0.441390	0.177257	0.000046
C17	C	0.451147	0.034799	0.000051
C18	C	0.537968	0.036233	0.000051
C19	C	0.576498	0.108181	0.000042
C20	C	0.402855	0.105314	0.000047
C21	C	0.308719	0.103759	0.000053
C22	C	0.670640	0.109736	0.000037
C23	C	1.049277	-0.173104	0.000059
C24	C	1.041963	-0.254654	0.000050
C25	C	0.963228	-0.286089	0.000043
C26	C	0.891802	-0.235967	0.000035
C27	C	0.899116	-0.154418	0.000038
C28	C	0.937385	-0.531846	0.000029
C29	C	0.930076	-0.613402	0.000029
C30	C	1.080238	-0.632083	0.000043
C31	C	1.087546	-0.550532	0.000051
C32	C	1.016120	-0.500418	0.000038
C33	C	0.955749	-0.369446	0.000037
C34	C	1.023599	-0.417062	0.000038
C35	C	1.141274	0.101001	0.000055
C36	C	1.233677	0.102519	0.000054
C37	C	0.993717	0.249691	0.000039
C38	C	1.001496	0.336484	0.000034
N39	N	0.989669	0.106744	0.228223
N40	N	0.989690	0.106744	-0.228126
C41	C	1.042451	0.053596	0.453952
C42	C	1.042453	0.053594	0.546141
C43	C	0.936902	0.159895	0.546138
C44	C	0.936896	0.159893	0.453950
C45	C	0.989675	0.106744	0.407859
C46	C	0.989684	0.106745	0.592237
C47	C	0.989686	0.106743	0.692193
C48	C	0.989672	0.106744	0.307897
H49	H	0.559580	0.237274	0.000039
O50	O	0.394609	0.245822	0.000002
C51	C	0.394100	0.387271	0.000046
C52	C	0.447177	0.309676	0.000072
H53	H	0.436579	0.438917	0.000121
H54	H	0.353226	0.390217	-0.061259
H55	H	0.353190	0.390118	0.061325
H56	H	0.488135	0.306777	-0.061165
H57	H	0.487996	0.306762	0.061418
O58	O	0.885541	0.211419	0.409129
C59	C	0.773210	0.228028	0.305005
C60	C	0.831301	0.169595	0.355726
H61	H	0.729354	0.194236	0.261802
H62	H	0.735432	0.266011	0.353739
H63	H	0.811886	0.267104	0.261876
H64	H	0.792689	0.130467	0.398856
H65	H	0.869082	0.131667	0.306944
O66	O	0.413584	-0.035019	0.000014
C67	C	0.284157	-0.100364	0.000064
C68	C	0.326587	-0.021240	0.000088
H69	H	0.213814	-0.089252	0.000142
H70	H	0.303574	-0.135216	-0.061242
H71	H	0.303681	-0.135209	0.061343
H72	H	0.307084	0.013668	-0.061150
H73	H	0.307170	0.013552	0.061434
H74	H	1.113392	-0.147517	0.000071
O75	O	0.584755	-0.032336	0.000013
C76	C	0.585278	-0.173786	0.000072
C77	C	0.532193	-0.096195	0.000090
H78	H	0.542804	-0.225436	0.000153
H79	H	0.626152	-0.176726	-0.061233
H80	H	0.626186	-0.176631	0.061351
H81	H	0.491236	-0.093298	-0.061147
H82	H	0.491373	-0.093287	0.061436
H83	H	1.100122	-0.295455	0.000056
H84	H	1.151661	-0.524945	0.000057
O85	O	1.093601	0.001890	0.590954
C86	C	1.103762	-0.104853	0.695083
C87	C	1.045740	-0.046352	0.644373
H88	H	1.065091	-0.143861	0.738298
H89	H	1.141465	-0.142895	0.646342
H90	H	1.147698	-0.071070	0.738199
H91	H	1.001754	-0.080072	0.601256
H92	H	1.008096	-0.008311	0.693162
H93	H	0.893932	0.203169	0.583674
H94	H	1.138389	-0.672894	0.000051
O95	O	0.853524	-0.643808	-0.000027
C96	C	0.705354	-0.616677	-0.000008
C97	C	0.791991	-0.582137	0.000036
H98	H	0.655582	-0.566834	0.000061
H99	H	0.698137	-0.654358	-0.061316
H100	H	0.698210	-0.654420	0.061268
H101	H	0.799195	-0.544359	-0.061199
H102	H	0.799169	-0.544501	0.061384
H103	H	0.879224	-0.491053	0.000019
H104	H	0.827693	-0.261567	0.000023
H105	H	1.085425	0.010318	0.416427
H106	H	0.840958	-0.113615	0.000033
H107	H	1.087705	-0.391465	0.000025
H108	H	0.891642	-0.395049	0.000032
