data_functionalizedCrystal
_audit_creation_method	'MofGen! by Chris Wilmer'
_symmetry_space_group_name_H-M	'P1'
_symmetry_Int_Tables_number	1
_symmetry_cell_setting	triclinic
loop_
_symmetry_equiv_pos_as_xyz
  x,y,z
_cell_length_a	10.540539
_cell_length_b	19.188930
_cell_length_c	9.616153
_cell_angle_alpha	89.992615
_cell_angle_beta	89.995174
_cell_angle_gamma	83.835137
loop_
_atom_site_label
_atom_site_type_symbol
_atom_site_fract_x
_atom_site_fract_y
_atom_site_fract_z
O1	O	1.683724	0.098389	-0.115598
O2	O	1.314107	0.107659	-0.115617
O3	O	1.509582	0.001439	-0.115579
O4	O	1.488249	0.204608	-0.115635
O5	O	1.509555	0.001441	0.115712
O6	O	1.314080	0.107661	0.115675
O7	O	1.683697	0.098391	0.115694
Zn8	Zn	1.498885	0.103026	0.152407
Zn9	Zn	1.498920	0.103023	-0.152330
O10	O	1.488222	0.204610	0.115657
C11	C	1.266806	0.106965	0.000027
C12	C	1.125904	0.104885	0.000021
C13	C	0.944233	0.025184	0.000583
C14	C	1.090805	0.027292	0.000047
C15	C	1.063423	0.142224	-0.132063
C16	C	0.916937	0.139576	-0.132158
C17	C	0.916384	0.141157	0.130863
C18	C	1.063350	0.141872	0.132594
C19	C	1.508878	-0.024575	0.000070
C20	C	1.506804	-0.102094	0.000082
C21	C	1.621502	-0.146253	0.000095
C22	C	1.619554	-0.219090	0.000072
C23	C	1.502901	-0.247764	0.000065
C24	C	1.388187	-0.203595	0.000045
C25	C	1.390139	-0.130760	0.000053
N26	N	1.413724	-0.356363	0.078774
N27	N	1.411878	-0.425554	0.078769
C28	C	1.497014	-0.467212	0.000037
N29	N	1.584085	-0.437067	-0.078672
N30	N	1.585935	-0.367870	-0.078661
C31	C	1.500772	-0.326741	0.000055
C32	C	1.609608	-0.590350	0.000023
C33	C	1.607655	-0.663188	-0.000008
C34	C	1.376285	-0.647691	-0.000021
C35	C	1.378241	-0.574855	-0.000004
C36	C	1.494906	-0.546189	0.000025
C37	C	1.730998	0.099085	0.000047
C38	C	1.871901	0.101165	0.000044
C39	C	1.488927	0.230625	0.000004
C40	C	1.491000	0.308143	-0.000017
N41	N	1.498870	0.103028	0.360381
N42	N	1.498945	0.103016	-0.360304
C43	C	1.393992	0.159658	0.580731
C44	C	1.394216	0.159870	0.419564
C45	C	1.631228	0.119601	0.418832
C46	C	1.630655	0.120002	0.580050
C47	C	1.472715	0.029640	0.580311
C48	C	1.469658	0.030115	0.419084
H49	H	0.885379	0.116047	0.230981
H50	H	1.654959	0.172529	0.378429
H51	H	0.889346	0.111977	-0.230877
C52	C	1.737931	-0.558814	0.000039
H53	H	1.805965	-0.595548	0.000022
H54	H	1.743494	-0.530732	0.080701
H55	H	1.743508	-0.530714	-0.080622
H56	H	1.653830	0.173535	0.617625
C57	C	1.733826	-0.711767	-0.000010
H58	H	1.715958	-0.759251	-0.000040
H59	H	1.781670	-0.703025	0.080652
H60	H	1.781683	-0.703001	-0.080671
H61	H	1.104902	0.114594	0.230309
H62	H	0.867922	0.197202	0.131740
C63	C	1.247968	-0.679224	-0.000033
H64	H	1.263231	-0.728927	-0.000031
H65	H	1.200767	-0.664095	-0.080690
H66	H	1.200749	-0.664113	0.080633
C67	C	1.338137	0.013137	0.367481
H68	H	1.321013	-0.031030	0.403346
H69	H	1.337998	0.011570	0.268747
H70	H	1.274252	0.048394	0.398536
C71	C	1.148102	-0.012672	-0.128069
H72	H	1.081785	-0.030254	-0.179998
H73	H	1.207392	-0.050584	-0.098615
H74	H	1.190461	0.018177	-0.184657
C75	C	1.252071	-0.526277	0.000006
H76	H	1.182316	-0.553784	0.000010
H77	H	1.248028	-0.497533	-0.080644
H78	H	1.248020	-0.497553	0.080679
H79	H	1.296735	-0.094804	0.000044
H80	H	1.541158	-0.014059	0.378804
C81	C	1.261287	0.146413	0.366172
H82	H	1.206660	0.140769	0.443014
H83	H	1.268477	0.105079	0.311110
H84	H	1.226699	0.185101	0.311476
H85	H	0.867739	0.195380	-0.138168
C86	C	1.094385	0.218294	0.143352
H87	H	1.146120	0.228692	0.066784
H88	H	1.138838	0.224427	0.227646
H89	H	1.017333	0.248916	0.142231
H90	H	1.378326	0.013866	0.621048
H91	H	1.711167	0.079472	0.380494
C92	C	1.260644	0.146404	0.633172
H93	H	1.267776	0.106212	0.691505
H94	H	1.207487	0.138843	0.556063
H95	H	1.224407	0.185982	0.684337
C96	C	1.749828	-0.114724	0.000102
H97	H	1.817860	-0.151460	0.000092
H98	H	1.755396	-0.086637	0.080756
H99	H	1.755404	-0.086630	-0.080567
C100	C	1.745727	-0.267674	0.000096
H101	H	1.815486	-0.240169	0.000123
H102	H	1.749792	-0.296406	-0.080559
H103	H	1.749749	-0.296412	0.080764
H104	H	0.914709	-0.005341	-0.093599
H105	H	1.410467	0.213788	0.621216
C106	C	1.576101	-0.027315	0.631831
H107	H	1.634973	-0.006516	0.689254
H108	H	1.619851	-0.049142	0.554307
H109	H	1.537258	-0.061416	0.683750
H110	H	1.410915	0.214309	0.380970
C111	C	1.091930	0.219200	-0.138739
H112	H	1.142315	0.229272	-0.060849
H113	H	1.014013	0.249085	-0.137517
H114	H	1.137076	0.226726	-0.221967
H115	H	1.106595	0.116284	-0.230348
C116	C	1.739289	0.066437	0.632748
H117	H	1.783584	0.044533	0.555622
H118	H	1.704586	0.031953	0.687661
H119	H	1.796735	0.089788	0.687450
H120	H	1.134055	-0.002088	0.094731
H121	H	0.916312	-0.005469	0.095309
H122	H	1.293208	-0.226946	0.000036
