data_functionalizedCrystal
_audit_creation_method	'MofGen! by Chris Wilmer'
_symmetry_space_group_name_H-M	'P1'
_symmetry_Int_Tables_number	1
_symmetry_cell_setting	triclinic
loop_
_symmetry_equiv_pos_as_xyz
  x,y,z
_cell_length_a	6.817900
_cell_length_b	11.168121
_cell_length_c	16.255661
_cell_angle_alpha	93.883604
_cell_angle_beta	103.488922
_cell_angle_gamma	108.508496
loop_
_atom_site_label
_atom_site_type_symbol
_atom_site_fract_x
_atom_site_fract_y
_atom_site_fract_z
V1	V	-4.052428	-0.175725	-0.263878
O2	O	-4.013108	0.007395	-0.258848
O3	O	-4.029107	-0.347423	-0.262080
O4	O	-4.003662	-0.173482	-0.378961
O5	O	-4.038730	-0.167750	-0.141158
V6	V	-4.532854	-0.153767	-0.249199
O7	O	-4.320481	-0.223890	-0.296078
O8	O	-4.714999	-0.105601	-0.216999
O9	O	-4.332969	0.017931	-0.250997
O10	O	-4.689571	-0.336886	-0.254229
O11	O	-4.663950	-0.161741	-0.371919
O12	O	-4.358414	-0.156010	-0.134116
C13	C	-3.880221	-0.389265	-0.257919
C14	C	-3.942438	-0.529634	-0.257217
C15	C	-3.860516	-0.731159	-0.252163
C16	C	-3.796208	-0.586081	-0.252889
C17	C	-3.847762	-0.167385	-0.407012
C18	C	-3.889340	-0.166687	-0.501093
C19	C	-3.798677	-0.158357	-0.723911
C20	C	-3.970827	-0.265869	-0.793392
C21	C	-3.965533	-0.165380	-0.673341
C22	C	-3.867493	-0.056637	-0.771498
C23	C	-4.039115	-0.164111	-0.839725
C24	C	-4.137179	-0.272987	-0.741592
C25	C	-4.033769	-0.063661	-0.719683
C26	C	-4.206060	-0.171203	-0.789144
C27	C	-3.923139	-0.166112	-0.577492
C28	C	-4.081528	-0.163389	-0.935573
C29	C	-4.145198	0.059767	-0.255155
C30	C	-4.062220	0.200134	-0.255864
C31	C	-4.177657	-0.162111	-0.106061
C32	C	-4.115317	-0.162802	-0.011979
H33	H	-4.115229	-0.588686	-0.260375
H34	H	-3.626149	-0.153065	-0.695430
H35	H	-3.623414	-0.527017	-0.249719
H36	H	-4.187298	-0.751284	-0.259574
H37	H	-3.735443	-0.779744	-0.248462
H38	H	-3.944665	-0.351359	-0.825481
H39	H	-4.250790	-0.364520	-0.728129
H40	H	-4.378731	-0.176663	-0.817491
C41	C	-3.578958	0.141759	-0.712392
C42	C	-3.714136	0.066805	-0.789822
H43	H	-3.484285	0.217965	-0.723704
H44	H	-3.497826	0.095364	-0.682427
H45	H	-3.663094	0.162795	-0.678539
H46	H	-3.630000	0.045760	-0.823672
H47	H	-3.795275	0.113208	-0.819800
C48	C	-3.878556	0.127303	-0.615833
C49	C	-4.068960	0.051753	-0.676320
H50	H	-3.900269	0.198559	-0.589057
H51	H	-3.767796	0.156557	-0.643556
H52	H	-3.838495	0.078031	-0.573854
H53	H	-4.109012	0.101023	-0.718302
H54	H	-4.179754	0.022500	-0.648596
