data_functionalizedCrystal
_audit_creation_method	'MofGen! by Chris Wilmer'
_symmetry_space_group_name_H-M	'P1'
_symmetry_Int_Tables_number	1
_symmetry_cell_setting	triclinic
loop_
_symmetry_equiv_pos_as_xyz
  x,y,z
_cell_length_a	21.295417
_cell_length_b	19.077105
_cell_length_c	19.077569
_cell_angle_alpha	94.700723
_cell_angle_beta	87.671964
_cell_angle_gamma	92.273328
loop_
_atom_site_label
_atom_site_type_symbol
_atom_site_fract_x
_atom_site_fract_y
_atom_site_fract_z
Zn1	Zn	-0.274113	-1.093683	-0.441824
Zn2	Zn	-0.383444	-1.088852	-0.323923
Zn3	Zn	-0.274122	-0.971065	-0.319219
Zn4	Zn	-0.375276	-0.975750	-0.437044
O5	O	-0.326739	-1.032338	-0.380503
O6	O	-0.292031	-1.191692	-0.430153
O7	O	-0.372365	-1.069246	-0.224648
O8	O	-0.186033	-0.987392	-0.335515
O9	O	-0.372356	-1.188143	-0.343532
O10	O	-0.186026	-1.077479	-0.425592
O11	O	-0.292046	-0.982708	-0.221192
O12	O	-0.284126	-0.873037	-0.330880
O13	O	-0.358434	-0.995376	-0.536330
O14	O	-0.358443	-0.876479	-0.417445
O15	O	-0.284110	-1.082021	-0.539842
O16	O	-0.470449	-1.073788	-0.338897
O17	O	-0.464448	-0.990692	-0.422007
C18	C	-0.320399	-0.849179	-0.373134
C19	C	-0.317702	-0.770824	-0.369998
C20	C	-0.490289	-1.032244	-0.380460
C21	C	-0.560257	-1.032269	-0.380468
C22	C	-0.333104	-1.216212	-0.387901
C23	C	-0.335816	-1.294568	-0.391053
C24	C	-0.596228	-1.075579	-0.337241
C25	C	-0.661971	-1.075613	-0.337258
C26	C	-0.691741	-1.032323	-0.380494
C27	C	-0.655762	-0.989011	-0.423730
C28	C	-0.590020	-0.988983	-0.423717
N29	N	-0.792691	-0.970870	-0.383387
N30	N	-0.855143	-0.970898	-0.383396
C31	C	-0.889817	-1.032404	-0.380538
N32	N	-0.859680	-1.093882	-0.377657
N33	N	-0.797222	-1.093854	-0.377645
C34	C	-0.763026	-1.032349	-0.380514
C35	C	-0.997074	-1.075754	-0.337327
C36	C	-1.062818	-1.075789	-0.337349
C37	C	-1.056608	-0.989181	-0.423817
C38	C	-0.990865	-0.989152	-0.423799
C39	C	-0.961102	-1.032438	-0.380550
C40	C	-0.162551	-1.032452	-0.380562
C41	C	-0.092583	-1.032501	-0.380587
C42	C	-0.320360	-1.039760	-0.564380
C43	C	-0.317642	-1.042923	-0.642738
C44	C	-0.355191	-0.735820	-0.413524
C45	C	-0.352648	-0.662196	-0.410581
C46	C	-0.312619	-0.623579	-0.364108
C47	C	-0.275126	-0.658588	-0.320581
C48	C	-0.277666	-0.732210	-0.323528
C49	C	-0.300863	-0.403199	-0.350473
C50	C	-0.298327	-0.329572	-0.347527
C51	C	-0.375848	-0.333186	-0.437529
C52	C	-0.378388	-0.406809	-0.440469
C53	C	-0.340892	-0.441812	-0.396944
N54	N	-0.310020	-0.548324	-0.361097
N55	N	-0.343488	-0.517065	-0.399959
C56	C	-0.355058	-0.999299	-0.677723
C57	C	-0.352504	-1.002276	-0.751349
C58	C	-0.312530	-1.048876	-0.789987
C59	C	-0.275113	-1.092505	-0.754997
C60	C	-0.277670	-1.089530	-0.681373
C61	C	-0.300735	-1.062613	-1.010376
C62	C	-0.298178	-1.065583	-1.084005
C63	C	-0.375571	-0.975355	-1.080352
C64	C	-0.378122	-0.972381	-1.006726
C65	C	-0.340707	-1.016013	-0.971742
N66	N	-0.309917	-1.051919	-0.865245
N67	N	-0.343324	-1.012973	-0.896487
C68	C	-0.333049	-1.024985	-0.197342
C69	C	-0.335595	-1.021958	-0.118991
H70	H	-0.571997	-1.110826	-0.302027
N71	N	-0.421210	-0.922092	-0.965052
H72	H	-0.444519	-0.894898	-0.998387
H73	H	-0.452404	-0.949504	-0.935631
N74	N	-0.255170	-0.287908	-0.297387
H75	H	-0.223993	-0.258526	-0.324862
H76	H	-0.280859	-0.256076	-0.263464
H77	H	-0.270337	-0.431689	-0.315026
H78	H	-0.383176	-0.633700	-0.446024
H79	H	-0.242568	-1.130450	-0.786463
N80	N	-1.101621	-1.122504	-0.290726
H81	H	-1.091492	-1.173304	-0.303733
H82	H	-1.091567	-1.109493	-0.239923
N83	N	-0.415917	-0.928289	-1.118083
H84	H	-0.408230	-0.937240	-1.170586
H85	H	-0.461703	-0.938702	-1.105645
H86	H	-0.410985	-0.438246	-0.478311
H87	H	-0.265621	-1.103527	-1.115463
N88	N	-0.398364	-0.777470	-0.463649
H89	H	-0.429546	-0.806834	-0.436160
H90	H	-0.421683	-0.744077	-0.490765
N91	N	-0.416287	-0.295433	-0.484472
H92	H	-0.408606	-0.242934	-0.475555
H93	H	-0.405257	-0.310352	-0.535356
N94	N	-1.088703	-0.942483	-0.470450
H95	H	-1.075860	-0.955418	-0.521265
H96	H	-1.135801	-0.949089	-0.463843
N97	N	-0.231963	-0.616939	-0.270442
H98	H	-0.236049	-0.564988	-0.275172
H99	H	-0.243897	-0.627771	-0.220595
H100	H	-0.247135	-0.760709	-0.288088
N101	N	-0.398165	-0.949028	-0.636051
H102	H	-0.421479	-0.921844	-0.669389
H103	H	-0.429352	-0.976463	-0.606644
H104	H	-0.382973	-0.966753	-0.779830
H105	H	-0.961576	-0.953882	-0.458996
N106	N	-0.260381	-1.109670	-0.972649
H107	H	-0.234669	-1.139639	-1.008300
H108	H	-0.231317	-1.079763	-0.940955
N109	N	-0.237321	-1.136586	-0.643633
H110	H	-0.191517	-1.126193	-0.656011
H111	H	-0.245065	-1.127608	-0.591143
N112	N	-0.700779	-1.122328	-0.290634
H113	H	-0.671948	-1.149745	-0.263235
H114	H	-0.728233	-1.092347	-0.256842
H115	H	-0.680005	-0.953766	-0.458935
H116	H	-0.972840	-1.111002	-0.302113
N117	N	-0.551219	-0.942268	-0.470341
H118	H	-0.580051	-0.914849	-0.497736
H119	H	-0.523853	-0.908496	-0.440298
