data_functionalizedCrystal
_audit_creation_method	'MofGen! by Chris Wilmer'
_symmetry_space_group_name_H-M	'P1'
_symmetry_Int_Tables_number	1
_symmetry_cell_setting	triclinic
loop_
_symmetry_equiv_pos_as_xyz
  x,y,z
_cell_length_a	12.837943
_cell_length_b	12.996460
_cell_length_c	14.519731
_cell_angle_alpha	89.992872
_cell_angle_beta	90.741103
_cell_angle_gamma	90.004257
loop_
_atom_site_label
_atom_site_type_symbol
_atom_site_fract_x
_atom_site_fract_y
_atom_site_fract_z
O1	O	1.375920	0.085554	-0.239787
O2	O	1.875920	0.585554	0.260213
O3	O	1.074092	0.085559	-0.227942
O4	O	1.574092	0.585559	0.272058
O5	O	1.232997	0.085547	-0.100318
O6	O	1.732997	0.585547	0.399682
O7	O	1.217015	0.085566	-0.367411
O8	O	1.717015	0.585566	0.132589
O9	O	1.232981	-0.085587	-0.100308
O10	O	1.732981	0.414413	0.399692
O11	O	1.074075	-0.085575	-0.227933
O12	O	1.574075	0.414425	0.272067
O13	O	1.375904	-0.085580	-0.239777
O14	O	1.875904	0.414420	0.260223
Cu15	Cu	1.224988	-0.101203	-0.233854
Cu16	Cu	1.724988	0.398797	0.266146
Cu17	Cu	1.225008	0.101182	-0.233865
Cu18	Cu	1.725008	0.601182	0.266135
O19	O	1.216998	-0.085568	-0.367402
O20	O	1.716998	0.414432	0.132598
C21	C	1.035455	-0.000007	-0.223936
C22	C	1.535455	0.499993	0.276064
C23	C	0.920355	-0.000005	-0.212002
C24	C	1.420355	0.499995	0.287998
N25	N	1.224982	-0.243550	-0.233847
N26	N	1.724982	0.256450	0.266153
C27	C	0.679675	-0.000010	-0.355472
C28	C	1.179675	0.499990	0.144528
C29	C	0.571527	-0.000009	-0.344263
C30	C	1.071527	0.499991	0.155737
C31	C	0.595910	-0.000009	-0.178376
C32	C	1.095910	0.499991	0.321624
C33	C	0.704058	-0.000010	-0.189585
C34	C	1.204058	0.499990	0.310415
C35	C	0.745936	-0.000009	-0.278135
C36	C	1.245936	0.499991	0.221865
C37	C	0.854085	-0.000003	-0.289344
C38	C	1.354085	0.499997	0.210656
C39	C	0.878466	-0.000011	-0.123457
C40	C	1.378466	0.499989	0.376543
C41	C	0.770319	-0.000010	-0.112248
C42	C	1.270319	0.499990	0.387752
C43	C	1.225006	-0.663365	-0.233866
C44	C	1.725006	-0.163365	0.266134
C45	C	1.224996	-0.546560	-0.233863
C46	C	1.724996	-0.046560	0.266137
C47	C	1.224994	-0.453461	-0.233857
C48	C	1.724994	0.046539	0.266143
C49	C	1.224984	-0.336649	-0.233853
C50	C	1.724984	0.163351	0.266147
C51	C	1.414540	-0.000012	-0.243784
C52	C	1.914540	0.499988	0.256216
C53	C	1.529641	-0.000007	-0.255718
C54	C	2.029641	0.499993	0.244282
C55	C	1.232240	-0.000020	-0.065889
C56	C	1.732240	0.499980	0.434111
C57	C	1.229996	-0.000021	0.036685
C58	C	1.729996	0.499979	0.536685
N59	N	1.225022	0.243529	-0.233866
N60	N	1.725022	0.743529	0.266134
C61	C	1.217756	0.000001	-0.401830
C62	C	1.717756	0.500001	0.098170
C63	C	1.220000	0.000009	-0.504405
C64	C	1.720000	0.500009	-0.004405
C65	C	1.228173	-0.000018	0.119987
C66	C	1.728173	0.499982	0.619987
C67	C	1.225894	-0.000010	0.224493
C68	C	1.725894	0.499990	0.724493
C69	C	1.224086	-0.000004	0.307788
C70	C	1.724086	0.499996	0.807788
C71	C	1.221808	0.000002	0.412300
C72	C	1.721808	0.500002	0.912300
H73	H	0.888180	-0.000003	-0.361446
H74	H	1.388180	0.499997	0.138554
H75	H	0.713772	-0.000007	-0.427573
H76	H	1.213772	0.499993	0.072427
H77	H	0.517580	-0.000012	-0.407238
H78	H	1.017580	0.499988	0.092762
H79	H	0.561793	-0.000095	-0.106282
H80	H	1.061793	0.499905	0.393718
H81	H	0.736206	-0.000023	-0.040153
H82	H	1.236206	0.499977	0.459847
C83	C	0.950529	0.000153	-0.039564
C84	C	1.450529	0.500153	0.460436
C85	C	1.013348	0.088188	-0.041176
C86	C	1.513348	0.588188	0.458824
C87	C	1.079753	0.088373	0.036082
C88	C	1.579753	0.588373	0.536082
H89	H	0.910223	0.000206	0.014839
H90	H	1.410223	0.500206	0.514839
H91	H	0.993285	-0.059492	-0.040477
H92	H	1.493285	0.440508	0.459523
H93	H	0.970596	0.147817	-0.040256
H94	H	1.470596	0.647817	0.459744
H95	H	1.053676	0.088153	-0.095562
H96	H	1.553676	0.588153	0.404438
H97	H	1.122509	0.028728	0.035169
H98	H	1.622509	0.528728	0.535169
H99	H	1.039438	0.088423	0.090479
H100	H	1.539438	0.588423	0.590479
H101	H	1.122389	0.148098	0.034994
H102	H	1.622389	0.648098	0.534994
