data_functionalizedCrystal
_audit_creation_method	'MofGen! by Chris Wilmer'
_symmetry_space_group_name_H-M	'P1'
_symmetry_Int_Tables_number	1
_symmetry_cell_setting	triclinic
loop_
_symmetry_equiv_pos_as_xyz
  x,y,z
_cell_length_a	10.654545
_cell_length_b	9.730223
_cell_length_c	10.654550
_cell_angle_alpha	90.002824
_cell_angle_beta	84.484005
_cell_angle_gamma	90.003032
loop_
_atom_site_label
_atom_site_type_symbol
_atom_site_fract_x
_atom_site_fract_y
_atom_site_fract_z
O1	O	1.667843	0.114276	0.176369
O2	O	1.302364	0.114282	0.193181
O3	O	1.493506	0.114270	0.002036
O4	O	1.476700	0.114287	0.367514
O5	O	1.493493	-0.114310	0.002036
O6	O	1.302350	-0.114298	0.193181
O7	O	1.667829	-0.114304	0.176369
Zn8	Zn	1.485088	-0.150593	0.184775
Zn9	Zn	1.485106	0.150571	0.184775
O10	O	1.476687	-0.114292	0.367514
C11	C	1.255559	-0.000008	0.191948
C12	C	1.116115	-0.000006	0.188258
N13	N	1.485085	-0.356130	0.184774
C14	C	1.050603	-0.124606	0.186521
C15	C	0.919584	-0.124606	0.183034
C16	C	0.919599	0.124605	0.183025
C17	C	1.050618	0.124603	0.186504
C18	C	1.561916	-0.428048	0.261655
C19	C	1.561937	-0.571931	0.261648
C20	C	1.408284	-0.571965	0.107876
C21	C	1.408271	-0.428084	0.107878
C22	C	1.714634	-0.000012	0.177602
C23	C	1.854078	-0.000005	0.181292
C24	C	1.492266	-0.000019	-0.044762
C25	C	1.488574	-0.000017	-0.184206
N26	N	1.485118	0.356107	0.184766
C27	C	1.601115	-0.000018	-0.263693
C28	C	1.597639	-0.000002	-0.394714
C29	C	1.369069	0.000012	-0.366747
C30	C	1.372547	0.000005	-0.235729
C31	C	1.477927	-0.000000	0.414312
C32	C	1.481619	0.000007	0.553755
H33	H	1.103928	-0.226070	0.187950
O34	O	0.856133	-0.245765	0.181412
C35	C	0.942048	-0.355740	0.183672
H36	H	1.030585	-0.319205	0.225844
H37	H	0.896739	-0.442880	0.243536
H38	H	0.968292	-0.394064	0.083466
H39	H	1.274604	0.000027	-0.408713
O40	O	0.856170	0.245766	0.181291
C41	C	0.942089	0.355742	0.183605
H42	H	1.040336	0.319214	0.146382
H43	H	0.911680	0.442892	0.121743
H44	H	0.943727	0.394050	0.284555
H45	H	1.103959	0.226074	0.187915
H46	H	1.624502	-0.630480	0.324251
H47	H	1.624463	-0.369467	0.324269
H48	H	1.695592	-0.000033	-0.221748
O49	O	1.333695	-0.642073	0.033307
C50	C	1.350128	-0.784490	0.049832
H51	H	1.386709	-0.804107	0.145315
H52	H	1.255957	-0.839139	0.045781
H53	H	1.421004	-0.825384	-0.028237
O54	O	1.263132	0.000188	-0.158634
C55	C	1.192783	0.118595	-0.182111
H56	H	1.222753	0.158063	-0.281214
H57	H	1.088113	0.091977	-0.173798
H58	H	1.210596	0.201488	-0.110307
O59	O	1.333513	-0.358427	0.033157
C60	C	1.265734	-0.452785	-0.034730
H61	H	1.258856	-0.555348	0.017191
H62	H	1.166911	-0.411223	-0.043441
H63	H	1.316623	-0.468084	-0.132832
H64	H	1.689282	0.000000	-0.459428
