data_functionalizedCrystal
_audit_creation_method	'MofGen! by Chris Wilmer'
_symmetry_space_group_name_H-M	'P1'
_symmetry_Int_Tables_number	1
_symmetry_cell_setting	triclinic
loop_
_symmetry_equiv_pos_as_xyz
  x,y,z
_cell_length_a	17.699077
_cell_length_b	13.262508
_cell_length_c	16.176319
_cell_angle_alpha	105.911538
_cell_angle_beta	89.993140
_cell_angle_gamma	83.880229
loop_
_atom_site_label
_atom_site_type_symbol
_atom_site_fract_x
_atom_site_fract_y
_atom_site_fract_z
O1	O	1.004673	0.132697	-0.038897
O2	O	1.504673	0.632697	0.461103
O3	O	0.784371	0.149971	-0.035017
O4	O	1.284371	0.649971	0.464983
O5	O	0.900067	-0.011467	-0.071311
O6	O	1.400067	0.488533	0.428689
O7	O	0.888976	0.294135	-0.002603
O8	O	1.388976	0.794135	0.497397
O9	O	0.900051	-0.011477	0.066180
O10	O	1.400051	0.488523	0.566180
O11	O	0.784354	0.149961	0.102474
O12	O	1.284354	0.649961	0.602474
O13	O	1.004657	0.132686	0.098594
O14	O	1.504657	0.632686	0.598594
Cu15	Cu	0.894504	0.141323	0.113088
Cu16	Cu	1.394504	0.641323	0.613088
Cu17	Cu	0.894523	0.141335	-0.049511
Cu18	Cu	1.394523	0.641335	0.450489
O19	O	0.888960	0.294124	0.134888
O20	O	1.388960	0.794124	0.634888
C21	C	0.756163	0.149348	0.033589
C22	C	1.256163	0.649348	0.533589
C23	C	0.672136	0.147494	0.033171
C24	C	1.172136	0.647494	0.533171
C25	C	0.632656	0.146615	0.107922
C26	C	1.132656	0.646615	0.607922
C27	C	0.553706	0.144857	0.107527
C28	C	1.053706	0.644857	0.607527
C29	C	0.514236	0.143985	0.032383
C30	C	1.014236	0.643985	0.532383
C31	C	0.553722	0.144861	-0.042374
C32	C	1.053722	0.644861	0.457626
C33	C	0.632672	0.146612	-0.041981
C34	C	1.132672	0.646612	0.458019
C35	C	0.235327	0.137798	-0.043964
C36	C	0.735327	0.637798	0.456036
C37	C	0.156372	0.136050	-0.044351
C38	C	0.656372	0.636050	0.455649
C39	C	0.156361	0.136043	0.105544
C40	C	0.656361	0.636043	0.605544
C41	C	0.235311	0.137794	0.105938
C42	C	0.735311	0.637794	0.605938
C43	C	0.274790	0.138664	0.031180
C44	C	0.774790	0.638664	0.531180
C45	C	0.360398	0.140569	0.031608
C46	C	0.860398	0.640569	0.531608
C47	C	0.428630	0.142087	0.031956
C48	C	0.928630	0.642087	0.531956
C49	C	0.899439	-0.050573	-0.011358
C50	C	1.399439	0.449427	0.488642
C51	C	0.897581	-0.167082	-0.037558
C52	C	1.397581	0.332918	0.462442
C53	C	0.892307	-0.495536	0.188384
C54	C	1.392307	0.004464	0.688384
C55	C	0.894046	-0.386069	0.213001
C56	C	1.394046	0.113931	0.713001
C57	C	0.894930	-0.331317	0.150364
C58	C	1.394930	0.168683	0.650364
C59	C	0.894075	-0.386043	0.063105
C60	C	1.394075	0.113957	0.563105
C61	C	0.892329	-0.495519	0.038486
C62	C	1.392329	0.004481	0.538486
C63	C	0.894953	-0.331300	0.000465
C64	C	1.394953	0.168700	0.500465
C65	C	0.894097	-0.386025	-0.086794
C66	C	1.394097	0.113975	0.413206
C67	C	0.892352	-0.495491	-0.111409
C68	C	1.392352	0.004509	0.388591
C69	C	0.891468	-0.550243	-0.048771
C70	C	1.391468	-0.050243	0.451229
C71	C	0.896698	-0.221823	0.025084
C72	C	1.396698	0.278177	0.525084
C73	C	0.896720	-0.221806	-0.124814
C74	C	1.396720	0.278194	0.375186
C75	C	0.894981	-0.331273	-0.149431
C76	C	1.394981	0.168727	0.350569
C77	C	1.032864	0.133309	0.029986
C78	C	1.532864	0.633309	0.529986
C79	C	1.116891	0.135163	0.030399
C80	C	1.616891	0.635163	0.530399
C81	C	0.889588	0.333231	0.074933
C82	C	1.389588	0.833231	0.574933
C83	C	0.891446	0.449739	0.101128
C84	C	1.391446	0.949739	0.601128
N85	N	0.894496	0.141314	0.227451
N86	N	1.394496	0.641314	0.727451
N87	N	0.894537	0.141336	-0.163876
N88	N	1.394537	0.641336	0.336124
C89	C	0.945742	0.069858	0.254651
C90	C	1.445742	0.569858	0.754651
C91	C	0.945746	0.069857	0.341198
C92	C	1.445746	0.569857	0.841198
C93	C	0.894507	0.141317	0.400545
C94	C	1.394507	0.641317	0.900545
C95	C	0.843255	0.212776	0.373340
C96	C	1.343255	0.712776	0.873340
C97	C	0.843248	0.212771	0.286793
C98	C	1.343248	0.712771	0.786793
C99	C	0.843281	0.212796	0.722372
C100	C	1.343281	0.712796	1.222372
C101	C	0.843294	0.212797	0.808924
C102	C	1.343294	0.712797	1.308924
C103	C	0.945779	0.069881	0.776777
C104	C	1.445779	0.569881	1.276777
C105	C	0.945772	0.069876	0.690231
C106	C	1.445772	0.569876	1.190231
C107	C	0.894518	0.141331	0.663032
C108	C	1.394518	0.641331	1.163032
C109	C	0.894514	0.141330	0.569188
C110	C	1.394514	0.641330	1.069188
C111	C	0.894515	0.141324	0.494389
C112	C	1.394515	0.641324	0.994389
H113	H	0.267462	0.138503	-0.104837
H114	H	0.767462	0.638503	0.395163
Br115	Br	0.500161	0.143631	-0.144368
Br116	Br	1.000161	0.643631	0.355632
Br117	Br	0.773751	0.309787	0.889468
Br118	Br	1.273751	0.809787	1.389468
Br119	Br	1.015291	-0.027122	0.174118
Br120	Br	1.515291	0.472878	0.674118
Br121	Br	0.773709	0.309753	0.453877
Br122	Br	1.273709	0.809753	0.953877
H123	H	0.987474	0.011672	0.363342
H124	H	1.487474	0.511672	0.863342
H125	H	0.801518	0.270957	0.264649
H126	H	1.301518	0.770957	0.764649
H127	H	0.664815	0.147330	-0.102850
H128	H	1.164815	0.647330	0.397150
Br129	Br	0.500127	0.143681	0.208983
Br130	Br	1.000127	0.643681	0.708983
Br131	Br	1.015317	-0.027102	0.609692
Br132	Br	1.515317	0.472898	1.109692
H133	H	0.891649	-0.540044	-0.182460
H134	H	1.391649	-0.040044	0.317540
H135	H	0.801550	0.270979	0.700235
H136	H	1.301550	0.770979	1.200235
H137	H	0.664786	0.147334	0.169115
H138	H	1.164786	0.647334	0.669115
H139	H	0.897435	-0.177226	-0.175819
H140	H	1.397435	0.322774	0.324181
H141	H	0.896345	-0.242184	0.170412
H142	H	1.396345	0.257816	0.670412
Br143	Br	0.897858	-0.147566	0.143503
Br144	Br	1.397858	0.352434	0.643503
H145	H	0.894751	-0.341521	0.284047
H146	H	1.394751	0.158479	0.784047
H147	H	0.894284	-0.375846	-0.220479
H148	H	1.394284	0.124154	0.279521
Br149	Br	0.891088	-0.569842	0.273383
Br150	Br	1.391088	-0.069842	0.773383
H151	H	0.267443	0.138509	0.167129
H152	H	0.767443	0.638509	0.667129
H153	H	0.124208	0.135329	0.166415
H154	H	0.624208	0.635329	0.666415
Br155	Br	0.102806	0.134868	-0.146339
Br156	Br	0.602806	0.634868	0.353661
Br157	Br	0.889110	-0.698813	-0.082177
Br158	Br	1.389110	-0.198813	0.417823
H159	H	0.987511	0.011695	0.798930
H160	H	1.487511	0.511695	1.298930
