data_functionalizedCrystal
_audit_creation_method	'MofGen! by Chris Wilmer'
_symmetry_space_group_name_H-M	'P1'
_symmetry_Int_Tables_number	1
_symmetry_cell_setting	triclinic
loop_
_symmetry_equiv_pos_as_xyz
  x,y,z
_cell_length_a	6.394989
_cell_length_b	10.723024
_cell_length_c	9.798715
_cell_angle_alpha	89.996609
_cell_angle_beta	90.000171
_cell_angle_gamma	94.517210
loop_
_atom_site_label
_atom_site_type_symbol
_atom_site_fract_x
_atom_site_fract_y
_atom_site_fract_z
O1	O	-0.293022	1.660297	-0.113473
O2	O	-0.321070	1.297442	-0.113476
O3	O	-0.003055	1.484020	-0.113475
O4	O	-0.611036	1.473719	-0.113474
O5	O	-0.003054	1.484006	0.113507
O6	O	-0.321069	1.297428	0.113506
O7	O	-0.293021	1.660283	0.113510
Zn8	Zn	-0.307045	1.478853	0.149546
Zn9	Zn	-0.307046	1.478872	-0.149513
O10	O	-0.611035	1.473705	0.113509
C11	C	-0.319028	1.250914	0.000014
C12	C	-0.312921	1.112295	0.000012
C13	C	-0.490865	1.039201	0.000012
C14	C	-0.484558	0.895931	0.000010
C15	C	0.074796	1.481977	0.000011
C16	C	0.311120	1.475752	0.000009
C17	C	-0.295062	1.706811	0.000016
C18	C	-0.301169	1.845430	0.000009
N19	N	-0.307043	1.478850	0.353646
N20	N	-0.307031	1.478885	-0.353612
C21	C	-0.172929	1.557182	0.421423
C22	C	-0.172922	1.557202	0.578586
H23	H	-0.155907	1.068806	-0.000023
C24	C	0.187784	1.624194	0.377059
C25	C	-0.017970	1.647700	0.342663
H26	H	0.283434	1.680075	0.328420
H27	H	0.208159	1.636110	0.472329
H28	H	0.211304	1.540458	0.353733
H29	H	-0.041495	1.731434	0.365999
H30	H	-0.038354	1.635795	0.247372
C31	C	-0.052618	1.771148	0.622797
C32	C	-0.017905	1.647740	0.657258
H33	H	0.043082	1.827041	0.671375
H34	H	-0.032280	1.783003	0.527514
H35	H	-0.192194	1.787098	0.646154
H36	H	0.121668	1.631787	0.633892
H37	H	-0.038225	1.635880	0.752562
C38	C	-0.590771	1.456849	0.485549
C39	C	-0.462052	1.388345	0.567722
H40	H	-0.686464	1.400951	0.436973
H41	H	-0.666525	1.510064	0.541286
H42	H	-0.506612	1.505976	0.422645
H43	H	-0.546210	1.339224	0.630634
H44	H	-0.386292	1.335108	0.511980
C45	C	-0.717593	1.172084	-0.116666
C46	C	-0.702843	1.097895	0.000015
H47	H	-0.848469	1.208309	-0.116664
H48	H	-0.606783	1.236499	-0.116654
H49	H	-0.707565	1.121748	-0.195812
H50	H	-0.712856	1.148232	0.079162
H51	H	-0.813684	1.033471	0.000016
C52	C	-0.644162	0.685625	0.000010
C53	C	-0.690218	0.811141	0.000011
H54	H	-0.771135	0.633281	0.000019
H55	H	-0.565081	0.669238	-0.079140
H56	H	-0.565061	0.669231	0.079168
H57	H	-0.769305	0.827538	-0.079153
H58	H	-0.769332	0.827535	0.079169
C59	C	-0.087358	1.005835	-0.116673
C60	C	-0.095503	0.930215	0.000008
H61	H	0.039606	1.058188	-0.116666
H62	H	-0.092902	0.954535	-0.195811
H63	H	-0.203241	1.056083	-0.116658
H64	H	0.020372	0.879960	-0.000011
H65	H	-0.089939	0.981520	0.079167
H66	H	-0.421850	1.411796	0.411970
