data_functionalizedCrystal
_audit_creation_method	'MofGen! by Chris Wilmer'
_symmetry_space_group_name_H-M	'P1'
_symmetry_Int_Tables_number	1
_symmetry_cell_setting	triclinic
loop_
_symmetry_equiv_pos_as_xyz
  x,y,z
_cell_length_a	19.377625
_cell_length_b	21.606444
_cell_length_c	21.606444
_cell_angle_alpha	60.001331
_cell_angle_beta	75.511454
_cell_angle_gamma	52.465601
loop_
_atom_site_label
_atom_site_type_symbol
_atom_site_fract_x
_atom_site_fract_y
_atom_site_fract_z
Zr1	Zr	0.686652	0.677425	-0.235275
O2	O	0.572831	0.806552	-0.308558
O3	O	0.721545	0.548304	-0.212813
O4	O	0.721536	0.677428	-0.341929
O5	O	0.572846	0.677424	-0.077589
O6	O	0.838836	0.677424	-0.368250
O7	O	0.572840	0.677428	-0.179442
O8	O	0.838852	0.446445	-0.137284
O9	O	0.572830	0.908403	-0.308555
O10	O	0.823965	0.601408	-0.222872
O11	O	0.736430	0.601408	-0.127218
O12	O	0.736419	0.753435	-0.279236
O13	O	0.648884	0.753435	-0.183582
Zr14	Zr	0.873741	0.677411	-0.114810
Zr15	Zr	0.873732	0.677418	-0.277253
Zr16	Zr	0.686661	0.677418	-0.072832
Zr17	Zr	0.686650	0.839866	-0.235269
Zr18	Zr	0.873743	0.514971	-0.114815
O19	O	0.838848	0.806532	-0.137272
O20	O	0.838834	0.806542	-0.368245
O21	O	0.572845	0.806542	-0.077585
O22	O	0.987562	0.548284	-0.041527
O23	O	0.987548	0.548294	-0.272500
O24	O	0.721559	0.548294	0.018160
O25	O	0.987547	0.677413	-0.272496
O26	O	0.838857	0.677408	-0.008155
O27	O	0.721557	0.677413	0.018165
O28	O	0.987553	0.677408	-0.170643
O29	O	0.721533	0.908397	-0.341921
O30	O	0.838860	0.446439	-0.008163
O31	O	0.987563	0.446434	-0.041530
O32	O	0.987556	0.446439	-0.170651
O33	O	0.572837	0.908397	-0.179434
O34	O	0.721541	0.908392	-0.212801
O35	O	0.823974	0.601402	-0.070849
O36	O	0.911509	0.601402	-0.166503
O37	O	0.823963	0.753428	-0.222867
O38	O	0.736428	0.753428	-0.127213
C39	C	0.780199	0.474230	-0.175050
C40	C	0.780200	0.405270	-0.175052
C41	C	0.825890	0.372873	-0.224983
C42	C	0.825893	0.308073	-0.224979
C43	C	0.780200	0.275676	-0.175046
C44	C	0.734508	0.308076	-0.125109
C45	C	0.734511	0.372870	-0.125111
C46	C	0.734498	0.046767	-0.125101
C47	C	0.734497	-0.018030	-0.125104
C48	C	0.825881	-0.018031	-0.224968
C49	C	0.825883	0.046763	-0.224970
C50	C	0.780195	0.079155	-0.175032
C51	C	0.780194	0.149417	-0.175036
C52	C	0.780196	0.205419	-0.175044
C53	C	0.546188	0.677427	-0.122535
C54	C	0.466768	0.677430	-0.104714
C55	C	0.205541	0.677417	-0.326619
C56	C	0.130917	0.677413	-0.309851
C57	C	0.130944	0.677408	-0.197635
C58	C	0.205567	0.677417	-0.214396
C59	C	0.242860	0.677420	-0.278888
C60	C	0.242886	0.677420	-0.166665
C61	C	0.317505	0.677423	-0.183422
C62	C	0.354804	0.677424	-0.247911
C63	C	0.317478	0.677424	-0.295646
C64	C	0.205595	0.677410	-0.102170
C65	C	0.242914	0.677413	-0.054439
C66	C	0.317531	0.677423	-0.071199
C67	C	0.354830	0.677423	-0.135687
C68	C	0.354857	0.677423	-0.023464
C69	C	0.429475	0.677427	-0.040221
C70	C	0.429449	0.677427	-0.152445
C71	C	1.014205	0.677409	-0.227550
C72	C	1.093625	0.677406	-0.245371
C73	C	0.780185	0.677427	-0.378234
C74	C	0.780181	0.677430	-0.447196
C75	C	0.780194	0.880606	-0.175035
C76	C	0.780193	0.949566	-0.175033
C77	C	0.734482	0.756786	-0.509016
C78	C	0.734490	0.756783	-0.573812
C79	C	0.780191	0.677424	-0.576786
C80	C	0.825895	0.598062	-0.514960
C81	C	0.825892	0.598066	-0.450166
C82	C	0.825909	0.598047	-0.776266
C83	C	0.825906	0.598050	-0.841066
C84	C	0.734506	0.756765	-0.899912
C85	C	0.734503	0.756768	-0.835118
C86	C	0.780211	0.677407	-0.773299
C87	C	0.780204	0.677410	-0.703040
C88	C	0.780194	0.677420	-0.647043
C89	C	0.780208	0.677410	0.028150
C90	C	0.780212	0.677407	0.097111
C91	C	1.014207	0.474221	-0.227557
C92	C	1.093628	0.405258	-0.245381
C93	C	0.780211	0.474222	0.028142
C94	C	0.780216	0.405258	0.097101
C95	C	1.014219	0.474213	-0.024366
C96	C	1.093644	0.405247	0.026773
C97	C	0.546174	0.880624	-0.325719
C98	C	0.466749	0.949590	-0.376858
C99	C	0.546186	0.880615	-0.122527
C100	C	0.466765	0.949578	-0.104704
C101	C	0.780182	0.880615	-0.378227
C102	C	0.780177	0.949578	-0.447186
C103	C	1.085228	0.372876	-0.283181
C104	C	1.159845	0.308087	-0.299942
C105	C	1.242862	0.275677	-0.278896
C106	C	1.251260	0.308065	-0.241094
C107	C	1.176644	0.372858	-0.224339
C108	C	0.825915	0.372869	0.158916
C109	C	0.825916	0.308080	0.223718
C110	C	0.780223	0.275677	0.226701
C111	C	0.734518	0.308073	0.164880
C112	C	0.734512	0.372865	0.100082
C113	C	1.176643	0.372859	0.000856
C114	C	1.251279	0.308067	0.048898
C115	C	1.242913	0.275659	0.122857
C116	C	1.159905	0.308053	0.148774
C117	C	1.085272	0.372848	0.100733
C118	C	0.383750	0.981985	-0.350941
C119	C	0.309114	1.046797	-0.398983
C120	C	0.317480	1.079208	-0.472942
C121	C	0.400488	1.046811	-0.498859
C122	C	0.475121	0.982004	-0.450817
C123	C	0.475165	0.981967	-0.066910
C124	C	0.400548	1.046774	-0.050168
C125	C	0.317531	1.079187	-0.071216
C126	C	0.309133	1.046795	-0.109015
C127	C	0.383749	0.981993	-0.125761
C128	C	0.825880	0.981961	-0.450148
C129	C	0.825892	1.046750	-0.514940
C130	C	0.780197	1.079161	-0.576768
C131	C	0.734493	1.046772	-0.573805
C132	C	0.734486	0.981979	-0.509015
H133	H	0.863087	0.073142	-0.265632
H134	H	0.697287	-0.044407	-0.084440
H135	H	0.780235	0.222919	0.279469
Cl136	Cl	0.579520	0.941238	-0.040446
H137	H	0.407289	1.073208	-0.559082
H138	H	0.415566	0.677423	-0.261552
H139	H	0.241533	1.073164	-0.377866
H140	H	1.303612	0.222918	-0.292543
Cl141	Cl	1.149403	0.267301	0.241754
H142	H	1.183496	0.399215	-0.193555
H143	H	0.235901	0.677429	-0.379139
Cl144	Cl	0.677047	0.856535	-0.977633
H145	H	0.256701	1.131978	-0.512053
H146	H	0.863124	0.399245	0.156500
H147	H	0.697300	0.073129	-0.084436
H148	H	0.697315	0.281680	0.167321
H149	H	0.863090	0.955582	-0.399811
Cl150	Cl	0.307975	0.677405	0.057614
Cl151	Cl	0.677061	0.413570	0.022374
H152	H	1.318862	0.281668	-0.223962
H153	H	0.256780	1.131952	-0.057575
Cl154	Cl	1.187183	0.413593	-0.092119
H155	H	0.542701	0.955629	-0.471929
H156	H	0.459809	0.677439	-0.204965
Cl157	Cl	0.677041	1.087534	-0.651537
H158	H	0.697285	0.821391	-0.832702
H159	H	0.697309	0.281689	-0.084450
H160	H	0.863099	0.281694	-0.265636
Cl161	Cl	0.084009	0.677406	-0.369865
Cl162	Cl	0.411126	1.087478	-0.002645
Cl163	Cl	1.355620	0.267354	0.016301
Cl164	Cl	1.336748	0.194200	0.183244
Cl165	Cl	0.883365	0.498276	-0.844802
H166	H	1.017693	0.399210	0.121845
H167	H	0.780209	1.131919	-0.629520
H168	H	0.376922	0.955599	-0.290722
Cl169	Cl	0.883321	-0.058759	-0.287747
H170	H	0.697266	0.955620	-0.506612
Cl171	Cl	0.204762	1.087547	-0.135466
H172	H	0.863108	1.073115	-0.517339
Cl173	Cl	0.883332	0.413597	-0.287763
Cl174	Cl	0.883382	0.267365	0.301424
H175	H	0.212544	0.677407	-0.001928
H176	H	0.376897	0.955624	-0.156533
H177	H	0.697303	0.399250	-0.084454
H178	H	0.347838	0.677436	-0.348166
H179	H	1.017638	0.399264	-0.300331
Cl180	Cl	0.111791	0.677399	-0.081104
Cl181	Cl	0.476394	0.677426	0.019787
Cl182	Cl	0.084059	0.677401	-0.116561
Cl183	Cl	0.883332	0.498278	-0.698550
Cl184	Cl	0.677024	0.856558	-0.505285
H185	H	0.697279	0.821403	-0.624146
Cl186	Cl	0.883354	0.498300	-0.372450
Cl187	Cl	0.883350	0.498296	-0.518699
Cl188	Cl	1.149267	0.267379	-0.347460
