data_functionalizedCrystal
_audit_creation_method	'MofGen! by Chris Wilmer'
_symmetry_space_group_name_H-M	'P1'
_symmetry_Int_Tables_number	1
_symmetry_cell_setting	triclinic
loop_
_symmetry_equiv_pos_as_xyz
  x,y,z
_cell_length_a	21.295419
_cell_length_b	21.295419
_cell_length_c	21.395355
_cell_angle_alpha	89.975456
_cell_angle_beta	90.005030
_cell_angle_gamma	89.983482
loop_
_atom_site_label
_atom_site_type_symbol
_atom_site_fract_x
_atom_site_fract_y
_atom_site_fract_z
Zn1	Zn	0.250433	0.962481	-0.354320
Zn2	Zn	0.355685	0.962437	-0.249567
Zn3	Zn	0.250461	0.857205	-0.249557
Zn4	Zn	0.355696	0.857227	-0.354307
O5	O	0.303069	0.909837	-0.301938
O6	O	0.264379	1.050565	-0.340434
O7	O	0.341734	0.948449	-0.161888
O8	O	0.162368	0.871179	-0.263455
O9	O	0.341707	1.050532	-0.263473
O10	O	0.162348	0.948526	-0.340424
O11	O	0.264426	0.871136	-0.161880
O12	O	0.264436	0.769118	-0.263443
O13	O	0.341726	0.871217	-0.441987
O14	O	0.341752	0.769135	-0.340402
O15	O	0.264390	0.948547	-0.441996
O16	O	0.443776	0.948471	-0.263460
O17	O	0.443784	0.871174	-0.340413
C18	C	0.303099	0.746286	-0.301920
C19	C	0.303127	0.676318	-0.301928
C20	C	0.262928	0.643491	-0.342063
C21	C	0.262911	0.577748	-0.342066
C22	C	0.303104	0.544835	-0.301939
C23	C	0.343306	0.577670	-0.261796
C24	C	0.343317	0.643411	-0.261790
N25	N	0.358182	0.441587	-0.297058
N26	N	0.358169	0.379136	-0.297067
C27	C	0.303072	0.346760	-0.301953
N28	N	0.247986	0.379196	-0.306842
N29	N	0.248000	0.441653	-0.306836
C30	C	0.303096	0.473550	-0.301941
C31	C	0.262851	0.242648	-0.342093
C32	C	0.262833	0.176904	-0.342091
C33	C	0.343234	0.176827	-0.261824
C34	C	0.343246	0.242570	-0.261823
C35	C	0.303056	0.275476	-0.301961
C36	C	0.138878	0.909855	-0.301940
C37	C	0.068910	0.909862	-0.301940
C38	C	0.036052	0.869618	-0.342002
C39	C	-0.029690	0.869624	-0.342011
C40	C	-0.062572	0.909868	-0.301947
C41	C	-0.029706	0.950120	-0.261882
C42	C	0.036035	0.950117	-0.261879
N43	N	-0.165791	0.914681	-0.247108
N44	N	-0.228243	0.914680	-0.247113
C45	C	-0.260647	0.909879	-0.301955
N46	N	-0.228241	0.905067	-0.356794
N47	N	-0.165783	0.905065	-0.356788
C48	C	-0.133858	0.909875	-0.301946
C49	C	-0.364790	0.869639	-0.342030
C50	C	-0.430534	0.869650	-0.342040
C51	C	-0.430549	0.950142	-0.261906
C52	C	-0.364807	0.950135	-0.261901
C53	C	-0.331931	0.909880	-0.301962
C54	C	0.466620	0.909837	-0.301950
C55	C	0.536588	0.909895	-0.301976
C56	C	0.303056	0.909890	-0.465361
C57	C	0.303051	0.909912	-0.535003
C58	C	0.303039	1.074028	-0.301956
C59	C	0.303026	1.143996	-0.301964
C60	C	0.262780	0.950176	-0.567721
C61	C	0.262753	0.950175	-0.633157
C62	C	0.303008	0.909917	-0.665871
C63	C	0.343281	0.869645	-0.633144
C64	C	0.343302	0.869643	-0.567710
C65	C	0.359689	0.904946	-0.769550
C66	C	0.359669	0.904953	-0.834983
C67	C	0.302941	0.909921	-0.867692
C68	C	0.246232	0.914895	-0.834960
C69	C	0.246254	0.914892	-0.769526
C70	C	0.302989	0.909915	-0.736823
C71	C	0.262638	0.950186	-0.971363
C72	C	0.262610	0.950181	-1.036800
C73	C	0.343143	0.869654	-1.036786
C74	C	0.343166	0.869656	-0.971350
C75	C	0.302914	0.909925	-0.938643
C76	C	0.303036	0.909822	-0.139150
C77	C	0.302864	0.909921	-0.069509
H78	H	0.375960	0.150030	-0.229152
H79	H	0.230122	0.269442	-0.374772
H80	H	-0.338022	0.836870	-0.374658
H81	H	0.376031	0.550868	-0.229124
N82	N	0.384314	0.276096	-0.220822
N83	N	0.420197	0.246705	-0.184995
H84	H	0.449202	0.270382	-0.156034
H85	H	0.230095	0.150177	-0.374774
N86	N	0.069623	0.828497	-0.382927
N87	N	0.040272	0.792568	-0.418695
H88	H	0.063982	0.763526	-0.447600
H89	H	0.375913	0.836868	-1.063421
N90	N	0.221864	0.544210	-0.383084
N91	N	0.226149	0.551582	-0.440890
H92	H	0.197165	0.527895	-0.469863
N93	N	0.384298	0.828521	-0.937927
N94	N	0.380128	0.770436	-0.945212
H95	H	0.409177	0.741380	-0.921608
N96	N	0.384393	0.676947	-0.220802
N97	N	0.424547	0.713620	-0.242784
H98	H	0.453560	0.737305	-0.213837
N99	N	0.188279	0.919954	-0.868360
N100	N	0.146478	0.879421	-0.861019
H101	H	0.105549	0.882994	-0.884610
N102	N	-0.063253	0.828512	-0.382941
N103	N	-0.033893	0.792577	-0.418708
H104	H	-0.057595	0.763542	-0.447615
H105	H	-0.056482	0.982888	-0.229263
H106	H	0.230202	0.670279	-0.374746
N107	N	0.069592	0.991233	-0.220952
N108	N	0.040230	1.027167	-0.185186
H109	H	0.063930	1.056205	-0.156280
N110	N	-0.464090	0.828540	-0.382973
N111	N	-0.434726	0.792605	-0.418738
H112	H	-0.458425	0.763571	-0.447649
H113	H	0.405844	0.900907	-0.861628
N114	N	0.417633	0.899866	-0.736131
N115	N	0.451784	0.852686	-0.743415
H116	H	0.492704	0.849099	-0.719810
N117	N	-0.464139	0.991241	-0.220979
N118	N	-0.522836	0.991235	-0.220982
H119	H	-0.546562	1.020260	-0.192074
N120	N	-0.331249	0.991249	-0.220975
N121	N	-0.360613	1.027182	-0.185209
H122	H	-0.336913	1.056224	-0.156305
H123	H	0.230003	0.982966	-0.541095
H124	H	0.229956	0.982962	-0.659802
H125	H	0.200079	0.918941	-0.742878
N126	N	0.384442	0.828506	-0.534295
N127	N	0.420377	0.792558	-0.563507
H128	H	0.449433	0.763505	-0.539907
H129	H	0.229859	0.982972	-0.944732
N130	N	0.221463	0.991311	-1.070214
N131	N	0.185529	1.027259	-1.041000
H132	H	0.156468	1.056309	-1.064599
N133	N	0.384392	0.828522	-0.666567
N134	N	0.384368	0.828529	-0.724990
H135	H	0.413402	0.799483	-0.748595
