data_functionalizedCrystal
_audit_creation_method	'MofGen! by Chris Wilmer'
_symmetry_space_group_name_H-M	'P1'
_symmetry_Int_Tables_number	1
_symmetry_cell_setting	triclinic
loop_
_symmetry_equiv_pos_as_xyz
  x,y,z
_cell_length_a	19.188930
_cell_length_b	10.723024
_cell_length_c	18.266242
_cell_angle_alpha	89.999521
_cell_angle_beta	90.020224
_cell_angle_gamma	96.193675
loop_
_atom_site_label
_atom_site_type_symbol
_atom_site_fract_x
_atom_site_fract_y
_atom_site_fract_z
O1	O	0.927159	-0.155775	0.061115
O2	O	1.427159	0.344225	0.561115
O3	O	0.723984	-0.176746	0.061064
O4	O	1.223984	0.323254	0.561064
O5	O	0.830258	0.015413	0.061088
O6	O	1.330258	0.515413	0.561088
O7	O	0.820885	-0.347934	0.061091
O8	O	1.320885	0.152066	0.561091
O9	O	0.830245	0.015407	-0.060674
O10	O	1.330245	0.515407	0.439326
O11	O	0.723971	-0.176752	-0.060698
O12	O	1.223971	0.323248	0.439302
O13	O	0.927146	-0.155781	-0.060647
O14	O	1.427146	0.344219	0.439353
Zn15	Zn	0.825556	-0.166268	-0.080005
Zn16	Zn	1.325556	0.333732	0.419995
Zn17	Zn	0.825574	-0.166260	0.080422
Zn18	Zn	1.325574	0.333740	0.580422
O19	O	0.820872	-0.347940	-0.060671
O20	O	1.320872	0.152060	0.439329
C21	C	0.829569	0.061895	0.000208
C22	C	1.329569	0.561895	0.500208
C23	C	0.827529	0.200407	0.000210
C24	C	1.327529	0.700407	0.500210
C25	C	0.697962	-0.176070	0.000177
C26	C	1.197962	0.323930	0.500177
C27	C	0.620444	-0.174031	0.000158
C28	C	1.120444	0.325969	0.500158
C29	C	0.821561	-0.394423	0.000211
C30	C	1.321561	0.105577	0.500211
C31	C	0.823601	-0.532935	0.000214
C32	C	1.323601	-0.032935	0.500214
C33	C	0.576253	-0.286784	0.000170
C34	C	1.076253	0.213216	0.500170
C35	C	0.503417	-0.284869	0.000178
C36	C	1.003417	0.215131	0.500178
C37	C	0.474775	-0.170195	0.000188
C38	C	0.974775	0.329805	0.500188
C39	C	0.518976	-0.057427	0.000172
C40	C	1.018976	0.442573	0.500172
C41	C	0.591811	-0.059346	0.000156
C42	C	1.091811	0.440654	0.500156
N43	N	0.366230	-0.082538	0.041658
N44	N	0.866230	0.417462	0.541658
N45	N	0.297040	-0.080724	0.041674
N46	N	0.797040	0.419276	0.541674
C47	C	0.255329	-0.164408	0.000233
C48	C	0.755329	0.335592	0.500233
N49	N	0.285421	-0.249994	-0.041216
N50	N	0.785421	0.250006	0.458784
N51	N	0.354618	-0.251812	-0.041228
N52	N	0.854618	0.248188	0.458772
C53	C	0.395799	-0.168102	0.000205
C54	C	0.895799	0.331898	0.500205
C55	C	0.132160	-0.275091	0.000253
C56	C	0.632160	0.224909	0.500253
C57	C	0.059322	-0.273171	0.000257
C58	C	0.559322	0.226829	0.500257
C59	C	0.074883	-0.045726	0.000258
C60	C	0.574883	0.454274	0.500258
C61	C	0.147719	-0.047650	0.000247
C62	C	0.647719	0.452350	0.500247
C63	C	0.176353	-0.162335	0.000248
C64	C	0.676353	0.337665	0.500248
C65	C	0.953168	-0.156457	0.000242
C66	C	1.453168	0.343543	0.500242
C67	C	1.030686	-0.158496	0.000266
C68	C	1.530686	0.341504	0.500266
N69	N	0.825549	-0.166273	-0.189492
N70	N	1.325549	0.333727	0.310508
C71	C	0.886994	0.276624	0.000226
C72	C	1.386994	0.776624	0.500226
C73	C	0.884886	0.419784	0.000228
C74	C	1.384886	0.919784	0.500228
C75	C	0.868291	-0.241726	-0.771756
C76	C	1.368291	0.258274	-0.271756
C77	C	0.868284	-0.241739	-0.695112
C78	C	1.368284	0.258261	-0.195112
C79	C	0.825580	-0.166247	-0.656804
C80	C	1.325580	0.333753	-0.156804
C81	C	0.782867	-0.090761	-0.695148
C82	C	1.282867	0.409239	-0.195148
C83	C	0.782870	-0.090760	-0.771792
C84	C	1.282870	0.409240	-0.271792
N85	N	0.823179	-0.056944	-0.536468
N86	N	1.323179	0.443056	-0.036468
N87	N	0.823180	-0.056948	-0.463660
N88	N	1.323180	0.443052	0.036340
C89	C	0.825567	-0.166247	-0.425882
C90	C	1.325567	0.333753	0.074118
N91	N	0.827967	-0.275543	-0.463662
N92	N	1.327967	0.224457	0.036338
N93	N	0.827969	-0.275537	-0.536477
N94	N	1.327969	0.224463	-0.036477
C95	C	0.825572	-0.166240	-0.573697
C96	C	1.325572	0.333760	-0.073697
C97	C	0.868266	-0.241748	-0.304440
C98	C	1.368266	0.258252	0.195560
C99	C	0.868254	-0.241764	-0.227794
C100	C	1.368254	0.258236	0.272206
C101	C	0.782841	-0.090774	-0.227832
C102	C	1.282841	0.409226	0.272168
C103	C	0.782849	-0.090771	-0.304477
C104	C	1.282849	0.409229	0.195523
C105	C	0.825565	-0.166256	-0.342776
C106	C	1.325565	0.333744	0.157224
N107	N	0.825587	-0.166245	0.189909
N108	N	1.325587	0.333755	0.689909
H109	H	0.599562	-0.380170	0.000172
H110	H	1.099562	0.119830	0.500172
N111	N	0.045633	0.071410	0.000282
N112	N	0.545633	0.571410	0.500282
N113	N	0.059000	0.147339	0.051608
N114	N	0.559000	0.647339	0.551608
H115	H	0.038339	0.230070	0.051624
H116	H	0.538339	0.730070	0.551624
H117	H	0.772692	0.401584	0.000195
H118	H	1.272692	0.901584	0.500195
N119	N	0.911923	-0.318806	-0.655935
N120	N	1.411923	0.181194	-0.155935
N121	N	0.957839	-0.269834	-0.613152
N122	N	1.457839	0.230166	-0.113152
H123	H	0.988662	-0.324255	-0.585483
H124	H	1.488662	0.175745	-0.085483
N125	N	0.458276	-0.400059	0.000187
N126	N	0.958276	0.099941	0.500187
N127	N	0.483851	-0.502444	0.000184
N128	N	0.983851	-0.002444	0.500184
H129	H	0.451972	-0.583799	0.000190
H130	H	0.951972	-0.083799	0.500190
H131	H	0.495651	0.035941	0.000190
H132	H	0.995651	0.535941	0.500190
N133	N	0.761707	0.251515	0.000187
N134	N	1.261707	0.751515	0.500187
N135	N	0.746513	0.320793	-0.051142
N136	N	1.246513	0.820793	0.448858
H137	H	0.700025	0.356888	-0.051159
H138	H	1.200025	0.856888	0.448841
N139	N	0.739230	-0.013675	-0.343649
N140	N	1.239230	0.486325	0.156351
N141	N	0.693308	-0.062612	-0.386436
N142	N	1.193308	0.437388	0.113564
H143	H	0.662497	-0.008164	-0.414102
H144	H	1.162497	0.491836	0.085898
H145	H	0.748066	-0.029315	-0.196643
H146	H	1.248066	0.470685	0.303357
N147	N	0.911897	-0.318863	-0.810888
N148	N	1.411897	0.181137	-0.310888
N149	N	0.911886	-0.318874	-0.879319
N150	N	1.411886	0.181126	-0.379319
H151	H	0.942676	-0.373362	-0.906959
H152	H	1.442676	0.126638	-0.406959
N153	N	0.636945	0.055845	0.000140
N154	N	1.136945	0.555845	0.500140
N155	N	0.611368	0.158228	0.000142
N156	N	1.111368	0.658228	0.500142
H157	H	0.643244	0.239585	0.000131
H158	H	1.143244	0.739585	0.500131
N159	N	0.161415	-0.392232	0.000229
N160	N	0.661415	0.107768	0.500229
N161	N	0.200296	-0.418670	-0.051106
N162	N	0.700296	0.081330	0.448894
H163	H	0.220956	-0.501402	-0.051125
H164	H	0.720956	-0.001402	0.448875
H165	H	0.748096	-0.029298	-0.663954
H166	H	1.248096	0.470702	-0.163954
H167	H	0.748094	-0.029293	-0.803004
H168	H	1.248094	0.470707	-0.303004
N169	N	0.952815	0.225515	0.000233
N170	N	1.452815	0.725515	0.500233
N171	N	0.967998	0.156241	-0.051090
N172	N	1.467998	0.656241	0.448910
H173	H	1.014486	0.120145	-0.051085
H174	H	1.514486	0.620145	0.448915
N175	N	0.911900	-0.318859	-0.343556
N176	N	1.411900	0.181141	0.156444
N177	N	0.950023	-0.386260	-0.309315
N178	N	1.450023	0.113740	0.190685
H179	H	0.980841	-0.440721	-0.336938
H180	H	1.480841	0.059279	0.163062
H181	H	0.935793	0.485273	0.000238
H182	H	1.435793	0.985273	0.500238
H183	H	0.023342	-0.364992	0.000263
H184	H	0.523342	0.135008	0.500263
N185	N	0.911884	-0.318879	-0.188648
N186	N	1.411884	0.181121	0.311352
N187	N	0.976876	-0.303645	-0.197181
N188	N	1.476876	0.196355	0.302819
H189	H	1.007691	-0.358111	-0.169535
H190	H	1.507691	0.141889	0.330465
N191	N	0.192853	0.067538	0.000236
N192	N	0.692853	0.567538	0.500236
N193	N	0.167275	0.169919	0.000242
N194	N	0.667275	0.669919	0.500242
H195	H	0.199151	0.251277	0.000233
H196	H	0.699151	0.751277	0.500233
