data_functionalizedCrystal
_audit_creation_method	'MofGen! by Chris Wilmer'
_symmetry_space_group_name_H-M	'P1'
_symmetry_Int_Tables_number	1
_symmetry_cell_setting	triclinic
loop_
_symmetry_equiv_pos_as_xyz
  x,y,z
_cell_length_a	21.395364
_cell_length_b	29.839126
_cell_length_c	21.395361
_cell_angle_alpha	90.025490
_cell_angle_beta	89.973528
_cell_angle_gamma	89.980118
loop_
_atom_site_label
_atom_site_type_symbol
_atom_site_fract_x
_atom_site_fract_y
_atom_site_fract_z
Zn1	Zn	0.957830	-0.254004	0.249557
Zn2	Zn	1.457830	0.245996	0.749557
Zn3	Zn	0.957741	-0.178872	0.354324
Zn4	Zn	1.457741	0.321128	0.854324
Zn5	Zn	0.853054	-0.178886	0.249557
Zn6	Zn	1.353054	0.321114	0.749557
Zn7	Zn	0.853015	-0.253973	0.354293
Zn8	Zn	1.353015	0.246027	0.854293
O9	O	0.905410	-0.216434	0.301933
O10	O	1.405410	0.283566	0.801933
O11	O	1.045496	-0.244044	0.263468
O12	O	1.545496	0.255956	0.763468
O13	O	0.943833	-0.116007	0.340440
O14	O	1.443833	0.383993	0.840440
O15	O	0.867006	-0.188870	0.161879
O16	O	1.367006	0.311130	0.661879
O17	O	1.045431	-0.188845	0.340440
O18	O	1.545431	0.311155	0.840440
O19	O	0.943985	-0.244058	0.161879
O20	O	1.443985	0.255942	0.661879
O21	O	0.866920	-0.116017	0.263467
O22	O	1.366920	0.383983	0.763467
O23	O	0.765371	-0.188840	0.263437
O24	O	1.265371	0.311160	0.763437
O25	O	0.866939	-0.316845	0.340387
O26	O	1.366939	0.183155	0.840387
O27	O	0.765342	-0.244006	0.340387
O28	O	1.265342	0.255994	0.840387
O29	O	0.943947	-0.316867	0.263438
O30	O	1.443947	0.183133	0.763438
O31	O	0.943795	-0.188816	0.441998
O32	O	1.443795	0.311184	0.941998
O33	O	0.866853	-0.243992	0.441975
O34	O	1.366853	0.256008	0.941975
C35	C	0.742622	-0.216421	0.301909
C36	C	1.242622	0.283579	0.801909
C37	C	0.672981	-0.216427	0.301914
C38	C	1.172981	0.283573	0.801914
C39	C	0.171218	-0.245229	0.261948
C40	C	0.671218	0.254771	0.761948
C41	C	0.236654	-0.245229	0.261944
C42	C	0.736654	0.254771	0.761944
C43	C	0.269343	-0.216444	0.301952
C44	C	0.769343	0.283556	0.801952
C45	C	0.236591	-0.187665	0.341980
C46	C	0.736591	0.312335	0.841980
C47	C	0.171157	-0.187669	0.341988
C48	C	0.671157	0.312331	0.841988
C49	C	0.372984	-0.175956	0.306808
C50	C	0.872984	0.324044	0.806808
C51	C	0.438417	-0.175951	0.306795
C52	C	0.938417	0.324049	0.806795
C53	C	0.471164	-0.216432	0.301931
C54	C	0.971164	0.283568	0.801931
C55	C	0.438469	-0.256919	0.297066
C56	C	0.938469	0.243081	0.797066
C57	C	0.373035	-0.256923	0.297074
C58	C	0.873035	0.243077	0.797074
C59	C	0.340295	-0.216437	0.301948
C60	C	0.840295	0.283563	0.801948
C61	C	0.574860	-0.245211	0.261904
C62	C	1.074860	0.254789	0.761904
C63	C	0.640297	-0.245212	0.261904
C64	C	1.140297	0.254788	0.761904
C65	C	0.640233	-0.187643	0.341937
C66	C	1.140233	0.312357	0.841937
C67	C	0.574797	-0.187647	0.341940
C68	C	1.074797	0.312353	0.841940
C69	C	0.542115	-0.216430	0.301921
C70	C	1.042115	0.283570	0.801921
C71	C	0.905449	-0.333612	0.301909
C72	C	1.405449	0.166388	0.801909
C73	C	0.905465	-0.383547	0.301899
C74	C	1.405465	0.116453	0.801899
C75	C	0.865429	-0.693199	0.261757
C76	C	1.365429	-0.193199	0.761757
C77	C	0.865447	-0.880872	0.261713
C78	C	1.365447	-0.380872	0.761713
O79	O	0.831375	-0.905144	0.227645
O80	O	1.331375	-0.405144	0.727645
N81	N	0.905495	-0.904332	0.301781
N82	N	1.405495	-0.404332	0.801781
C83	C	0.945539	-0.880871	0.341866
C84	C	1.445539	-0.380871	0.841866
O85	O	0.979598	-0.905132	0.375950
O86	O	1.479598	-0.405132	0.875950
C87	C	0.945517	-0.693199	0.341912
C88	C	1.445517	-0.193199	0.841912
C89	C	0.905471	-0.669741	0.301837
C90	C	1.405471	-0.169741	0.801837
C91	C	0.825385	-0.669741	0.221685
C92	C	1.325385	-0.169741	0.721685
C93	C	0.825384	-0.622825	0.221694
C94	C	1.325384	-0.122825	0.721694
C95	C	0.865426	-0.599368	0.261774
C96	C	1.365426	-0.099368	0.761774
C97	C	0.905469	-0.622826	0.301846
C98	C	1.405469	-0.122826	0.801846
C99	C	0.985558	-0.669739	0.381999
C100	C	1.485558	-0.169739	0.881999
C101	C	0.985548	-0.622818	0.382009
C102	C	1.485548	-0.122818	0.882009
C103	C	0.945501	-0.599360	0.341933
C104	C	1.445501	-0.099360	0.841933
C105	C	0.945510	-0.552453	0.341935
C106	C	1.445510	-0.052453	0.841935
N107	N	0.905462	-0.528992	0.301867
N108	N	1.405462	-0.028992	0.801867
C109	C	0.865420	-0.552450	0.261787
C110	C	1.365420	-0.052450	0.761787
C111	C	0.945548	-0.979402	0.341838
C112	C	1.445548	-0.479402	0.841838
C113	C	0.945554	-1.026320	0.341826
C114	C	1.445554	-0.526320	0.841826
C115	C	0.865461	-1.026317	0.261674
C116	C	1.365461	-0.526317	0.761674
C117	C	0.865459	-0.979398	0.261683
C118	C	1.365459	-0.479398	0.761683
C119	C	0.905500	-0.955942	0.301770
C120	C	1.405500	-0.455942	0.801770
C121	C	0.865420	-0.453924	0.261808
C122	C	1.365420	0.046076	0.761808
C123	C	0.865423	-0.407004	0.261818
C124	C	1.365423	0.092996	0.761818
C125	C	0.945514	-0.407011	0.341973
C126	C	1.445514	0.092989	0.841973
C127	C	0.945513	-0.453927	0.341960
C128	C	1.445513	0.046073	0.841960
C129	C	0.905460	-0.477382	0.301876
C130	C	1.405460	0.022618	0.801876
O131	O	0.979559	-0.528152	0.375990
O132	O	1.479559	-0.028152	0.875990
O133	O	0.831355	-0.528181	0.227718
O134	O	1.331355	-0.028181	0.727718
C135	C	0.865431	-0.740114	0.261748
C136	C	1.365431	-0.240114	0.761748
C137	C	0.905474	-0.763572	0.301819
C138	C	1.405474	-0.263572	0.801819
C139	C	0.945516	-0.740114	0.341899
C140	C	1.445516	-0.240114	0.841899
C141	C	0.905481	-0.810490	0.301807
C142	C	1.405481	-0.310490	0.801807
C143	C	0.865438	-0.833947	0.261727
C144	C	1.365438	-0.333947	0.761727
C145	C	0.825390	-0.810487	0.221659
C146	C	1.325390	-0.310487	0.721659
C147	C	0.825389	-0.763572	0.221668
C148	C	1.325389	-0.263572	0.721668
C149	C	0.985565	-0.763575	0.381967
C150	C	1.485565	-0.263575	0.881967
C151	C	0.985563	-0.810490	0.381955
C152	C	1.485563	-0.310490	0.881955
C153	C	0.945521	-0.833948	0.341875
C154	C	1.445521	-0.333948	0.841875
C155	C	1.068833	-0.216447	0.301958
C156	C	1.568833	0.283553	0.801958
C157	C	1.138474	-0.216452	0.301968
C158	C	1.638474	0.283548	0.801968
C159	C	0.905327	-0.216409	0.464721
C160	C	1.405327	0.283591	0.964721
C161	C	0.905349	-0.216413	0.534362
C162	C	1.405349	0.283587	1.034362
C163	C	0.905407	-0.099711	0.301912
C164	C	1.405407	0.400289	0.801912
C165	C	0.905512	-0.049777	0.301745
C166	C	1.405512	0.450223	0.801745
C167	C	0.905510	-0.216469	0.138510
C168	C	1.405510	0.283531	0.638510
C169	C	0.905553	-0.216484	0.068868
C170	C	1.405553	0.283516	0.568868
C171	C	0.945449	-0.187712	0.567066
C172	C	1.445449	0.312288	1.067066
C173	C	0.945478	-0.187722	0.632502
C174	C	1.445478	0.312278	1.132502
C175	C	0.905396	-0.216429	0.665230
C176	C	1.405396	0.283571	1.165230
C177	C	0.865294	-0.245135	0.632518
C178	C	1.365294	0.254865	1.132518
C179	C	0.865271	-0.245128	0.567084
C180	C	1.365271	0.254872	1.067084
C181	C	0.848981	-0.219949	0.768941
C182	C	1.348981	0.280051	1.268941
C183	C	0.849004	-0.219954	0.834374
C184	C	1.349004	0.280046	1.334374
C185	C	0.905469	-0.216455	0.867051
C186	C	1.405469	0.283545	1.367051
C187	C	0.961914	-0.212942	0.834287
C188	C	1.461914	0.287058	1.334287
C189	C	0.961891	-0.212935	0.768853
C190	C	1.461891	0.287065	1.268853
C191	C	0.905418	-0.216440	0.736183
C192	C	1.405418	0.283560	1.236183
C193	C	0.945604	-0.187763	0.970708
C194	C	1.445604	0.312237	1.470708
C195	C	0.945634	-0.187777	1.036144
C196	C	1.445634	0.312223	1.536144
C197	C	0.865445	-0.245187	1.036160
C198	C	1.365445	0.254813	1.536160
C199	C	0.865420	-0.245176	0.970724
C200	C	1.365420	0.254824	1.470724
C201	C	0.905499	-0.216462	0.938002
C202	C	1.405499	0.283538	1.438002
H203	H	0.346327	-0.142989	0.310771
H204	H	0.846327	0.357011	0.810771
H205	H	1.018159	-0.603722	0.414649
H206	H	1.518159	-0.103722	0.914649
Cl207	Cl	1.032846	-0.208523	0.727666
Cl208	Cl	1.532846	0.291477	1.227666
Cl209	Cl	0.815003	-0.281258	0.929608
Cl210	Cl	1.315003	0.218742	1.429608
H211	H	0.144612	-0.268669	0.229364
H212	H	0.644612	0.231331	0.729364
H213	H	0.978134	-0.164351	0.659134
H214	H	1.478134	0.335649	1.159134
H215	H	0.263319	-0.268662	0.229352
H216	H	0.763319	0.231338	0.729352
H217	H	0.832806	-0.473016	0.229167
H218	H	1.332806	0.026984	0.729167
H219	H	1.007894	-0.210093	0.860891
H220	H	1.507894	0.289907	1.360891
Cl221	Cl	0.814855	-0.281211	0.525968
Cl222	Cl	1.314855	0.218789	1.025968
Cl223	Cl	0.479511	-0.125053	0.312899
Cl224	Cl	0.979511	0.374947	0.812899
H225	H	0.802997	-0.222800	0.742342
H226	H	1.302997	0.277200	1.242342
H227	H	1.018180	-0.829586	0.414588
H228	H	1.518180	-0.329586	0.914588
Cl229	Cl	0.681321	-0.151460	0.392239
Cl230	Cl	1.181321	0.348540	0.892239
Cl231	Cl	0.995842	-0.151621	0.525933
Cl232	Cl	1.495842	0.348379	1.025933
H233	H	0.346418	-0.289889	0.293114
H234	H	0.846418	0.210111	0.793114
Cl235	Cl	1.035900	-0.699217	0.432388
Cl236	Cl	1.535900	-0.199217	0.932388
H237	H	0.832812	-0.268562	1.062807
H238	H	1.332812	0.231438	1.562807
H239	H	0.263211	-0.164229	0.374557
H240	H	0.763211	0.335771	0.874557
Cl241	Cl	0.814909	-0.281225	0.673662
Cl242	Cl	1.314909	0.218775	1.173662
Cl243	Cl	0.775054	-0.839985	0.171271
Cl244	Cl	1.275054	-0.339985	0.671271
H245	H	0.465130	-0.289882	0.293102
H246	H	0.965130	0.210118	0.793102
Cl247	Cl	0.533771	-0.281396	0.211597
Cl248	Cl	1.033771	0.218604	0.711597
H249	H	0.803043	-0.222810	0.861045
H250	H	1.303043	0.277190	1.361045
Cl251	Cl	0.815076	-0.377517	0.211433
Cl252	Cl	1.315076	0.122483	0.711433
Cl253	Cl	0.533631	-0.151461	0.392244
Cl254	Cl	1.033631	0.348539	0.892244
Cl255	Cl	0.681461	-0.281396	0.211594
Cl256	Cl	1.181461	0.218604	0.711594
H257	H	0.792775	-0.688835	0.189047
H258	H	1.292775	-0.188835	0.689047
Cl259	Cl	0.815122	-1.055815	0.211288
Cl260	Cl	1.315122	-0.555815	0.711288
H261	H	1.018170	-0.744480	0.414609
H262	H	1.518170	-0.244480	0.914609
H263	H	0.978155	-0.960308	0.374485
H264	H	1.478155	-0.460308	0.874485
H265	H	0.978117	-0.387904	0.374603
H266	H	1.478117	0.112096	0.874603
H267	H	0.144497	-0.164235	0.374578
H268	H	0.644497	0.335765	0.874578
Cl269	Cl	0.775041	-0.734089	0.171285
Cl270	Cl	1.275041	-0.234089	0.671285
Cl271	Cl	0.996054	-0.151695	1.077259
Cl272	Cl	1.496054	0.348305	1.577259
Cl273	Cl	0.815111	-0.949913	0.211303
Cl274	Cl	1.315111	-0.449913	0.711303
Cl275	Cl	0.995909	-1.055804	0.392200
Cl276	Cl	1.495909	-0.555804	0.892200
Cl277	Cl	0.775033	-0.593342	0.171315
Cl278	Cl	1.275033	-0.093342	0.671315
Cl279	Cl	0.995868	-0.483417	0.392330
Cl280	Cl	1.495868	0.016583	0.892330
Cl281	Cl	0.995987	-0.151666	0.929568
Cl282	Cl	1.495987	0.348334	1.429568
