data_functionalizedCrystal
_audit_creation_method	'MofGen! by Chris Wilmer'
_symmetry_space_group_name_H-M	'P1'
_symmetry_Int_Tables_number	1
_symmetry_cell_setting	triclinic
loop_
_symmetry_equiv_pos_as_xyz
  x,y,z
_cell_length_a	21.295418
_cell_length_b	21.295420
_cell_length_c	21.295411
_cell_angle_alpha	90.025571
_cell_angle_beta	89.980044
_cell_angle_gamma	89.975185
loop_
_atom_site_label
_atom_site_type_symbol
_atom_site_fract_x
_atom_site_fract_y
_atom_site_fract_z
Zn1	Zn	-0.250724	-0.962369	-0.355936
Zn2	Zn	-0.355976	-0.962277	-0.250664
Zn3	Zn	-0.250720	-0.857092	-0.250679
Zn4	Zn	-0.355955	-0.857067	-0.355894
O5	O	-0.303344	-0.909701	-0.303293
O6	O	-0.264697	-1.050446	-0.341983
O7	O	-0.342021	-0.948296	-0.162577
O8	O	-0.162631	-0.871106	-0.264665
O9	O	-0.342025	-1.050379	-0.264640
O10	O	-0.162634	-0.948453	-0.341997
O11	O	-0.264690	-0.871017	-0.162588
O12	O	-0.264669	-0.768999	-0.264625
O13	O	-0.341989	-0.871064	-0.443989
O14	O	-0.341985	-0.768981	-0.341926
O15	O	-0.264676	-0.948428	-0.444020
O16	O	-0.444063	-0.948272	-0.264600
O17	O	-0.444047	-0.870975	-0.341912
C18	C	-0.303324	-0.746150	-0.303273
C19	C	-0.303331	-0.676182	-0.303279
C20	C	-0.343665	-0.176731	-0.343494
C21	C	-0.343667	-0.242473	-0.343488
C22	C	-0.303349	-0.275342	-0.303303
C23	C	-0.263038	-0.242463	-0.263110
C24	C	-0.263043	-0.176722	-0.263112
N25	N	-0.248233	-0.378580	-0.298571
N26	N	-0.248231	-0.441031	-0.298572
C27	C	-0.303334	-0.473417	-0.303293
N28	N	-0.358441	-0.440992	-0.308025
N29	N	-0.358443	-0.378535	-0.308026
C30	C	-0.303340	-0.346628	-0.303296
C31	C	-0.343646	-0.577573	-0.343475
C32	C	-0.343649	-0.643317	-0.343465
C33	C	-0.263015	-0.643306	-0.263090
C34	C	-0.263018	-0.577564	-0.263096
C35	C	-0.303333	-0.544701	-0.303292
C36	C	-0.466895	-0.909628	-0.303263
C37	C	-0.536864	-0.909654	-0.303271
C38	C	-1.036309	-0.950101	-0.263138
C39	C	-0.970566	-0.950077	-0.263124
C40	C	-0.937703	-0.909790	-0.303337
C41	C	-0.970588	-0.869512	-0.343558
C42	C	-1.036329	-0.869533	-0.343567
N43	N	-0.834460	-0.904901	-0.358420
N44	N	-0.772008	-0.904885	-0.358410
C45	C	-0.739628	-0.909724	-0.303311
N46	N	-0.772059	-0.914593	-0.248222
N47	N	-0.834516	-0.914612	-0.248233
C48	C	-0.866418	-0.909763	-0.303332
C49	C	-0.635466	-0.949970	-0.263074
C50	C	-0.569722	-0.949942	-0.263058
C51	C	-0.569745	-0.869381	-0.343498
C52	C	-0.635487	-0.869406	-0.343508
C53	C	-0.668344	-0.909704	-0.303297
C54	C	-0.139154	-0.909792	-0.303337
C55	C	-0.069185	-0.909831	-0.303356
C56	C	-0.303331	-0.909754	-0.467484
C57	C	-0.303325	-0.909776	-0.537452
C58	C	-0.303360	-0.073892	-0.303310
C59	C	-0.303358	-0.143860	-0.303308
C60	C	-0.263067	-0.950058	-0.570335
C61	C	-0.263039	-0.950057	-0.636078
C62	C	-0.303282	-0.909781	-0.668934
C63	C	-0.343543	-0.869491	-0.636043
C64	C	-0.343564	-0.869488	-0.570301
N65	N	-0.358349	-0.904927	-0.772151
N66	N	-0.358327	-0.904933	-0.834603
C67	C	-0.303218	-0.909785	-0.867009
N68	N	-0.248131	-0.914642	-0.834605
N69	N	-0.248154	-0.914640	-0.772148
C70	C	-0.303262	-0.909779	-0.740220
C71	C	-0.262926	-0.950068	-0.971178
C72	C	-0.262898	-0.950063	-1.036922
C73	C	-0.343407	-0.869500	-1.036886
C74	C	-0.343430	-0.869502	-0.971143
C75	C	-0.303190	-0.909789	-0.938293
C76	C	-0.303312	-0.909686	-0.139742
C77	C	-0.303140	-0.909785	-0.069774
H78	H	-0.230212	-0.269229	-0.230390
C79	C	-0.388003	-0.679478	-0.387656
H80	H	-0.382236	-0.723339	-0.381889
H81	H	-0.378861	-0.668738	-0.429972
H82	H	-0.430283	-0.668675	-0.378356
H83	H	-0.230253	-0.982858	-0.662857
C84	C	-0.387677	-0.825201	-1.073020
H85	H	-0.381903	-0.830974	-1.116883
H86	H	-0.378469	-0.782909	-1.062230
H87	H	-0.429978	-0.834399	-1.062247
C88	C	-0.218698	-0.140562	-0.218911
H89	H	-0.194683	-0.169551	-0.194978
H90	H	-0.242738	-0.114891	-0.191443
H91	H	-0.191303	-0.114943	-0.243047
H92	H	-0.376474	-0.550815	-0.376204
C93	C	-0.218665	-0.679454	-0.218888
H94	H	-0.224432	-0.723316	-0.224644
H95	H	-0.227815	-0.668656	-0.176577
H96	H	-0.176382	-0.668700	-0.228182
C97	C	-0.533558	-0.994242	-0.218817
H98	H	-0.562544	-1.018247	-0.194877
H99	H	-0.507944	-0.970172	-0.191358
H100	H	-0.507879	-1.021647	-0.242928
C101	C	-0.934444	-0.825200	-0.387796
H102	H	-0.963443	-0.801216	-0.411748
H103	H	-0.908769	-0.849258	-0.415244
H104	H	-0.908829	-0.797775	-0.363683
H105	H	-0.376216	-0.836703	-0.944369
C106	C	-0.387810	-0.825187	-0.672179
H107	H	-0.411787	-0.801192	-0.643176
H108	H	-0.415233	-0.849252	-0.697834
H109	H	-0.363713	-0.797773	-0.697814
C110	C	-0.388039	-0.140585	-0.387678
H111	H	-0.412057	-0.169582	-0.411599
H112	H	-0.364025	-0.114947	-0.415157
H113	H	-0.415430	-0.114934	-0.363523
H114	H	-1.063097	-0.836741	-0.376319
C115	C	-0.218800	-0.994364	-0.534201
H116	H	-0.224579	-0.988598	-0.490337
H117	H	-0.176501	-0.985176	-0.544975
H118	H	-0.228018	-1.036657	-0.544991
C119	C	-0.388003	-0.278639	-0.387698
H120	H	-0.412010	-0.249651	-0.411640
H121	H	-0.415395	-0.304266	-0.363573
H122	H	-0.363949	-0.304303	-0.415166
C123	C	-0.387859	-0.825185	-0.534128
H124	H	-0.411827	-0.801200	-0.563109
H125	H	-0.363791	-0.797770	-0.508465
H126	H	-0.415300	-0.849260	-0.508498
H127	H	-0.230193	-0.550800	-0.230375
H128	H	-0.662256	-0.836615	-0.376259
H129	H	-1.063056	-0.982913	-0.230393
H130	H	-0.230157	-0.982869	-0.944431
H131	H	-0.943793	-0.982871	-0.230372
H132	H	-0.662219	-0.982783	-0.230331
C133	C	-0.533603	-0.825066	-0.387733
H134	H	-0.489741	-0.830823	-0.381971
H135	H	-0.544414	-0.782779	-0.378483
H136	H	-0.544350	-0.834265	-0.430041
H137	H	-0.230111	-0.982864	-1.063695
