data_functionalizedCrystal
_audit_creation_method	'MofGen! by Chris Wilmer'
_symmetry_space_group_name_H-M	'P1'
_symmetry_Int_Tables_number	1
_symmetry_cell_setting	triclinic
loop_
_symmetry_equiv_pos_as_xyz
  x,y,z
_cell_length_a	6.817900
_cell_length_b	15.866870
_cell_length_c	10.943624
_cell_angle_alpha	110.425160
_cell_angle_beta	108.838799
_cell_angle_gamma	102.655915
loop_
_atom_site_label
_atom_site_type_symbol
_atom_site_fract_x
_atom_site_fract_y
_atom_site_fract_z
V1	V	-4.123267	-0.132606	-0.465660
O2	O	-4.072829	0.006398	-0.391843
O3	O	-4.108858	-0.262961	-0.524945
O4	O	-4.101110	-0.130555	-0.640251
O5	O	-4.080631	-0.126924	-0.275739
V6	V	-4.599090	-0.115981	-0.435356
O7	O	-4.401416	-0.169075	-0.532137
O8	O	-4.771139	-0.079512	-0.368879
O9	O	-4.390293	0.014373	-0.376071
O10	O	-4.766925	-0.254985	-0.509173
O11	O	-4.759124	-0.121663	-0.625277
O12	O	-4.398041	-0.118032	-0.260765
C13	C	-3.961278	-0.294739	-0.533718
C14	C	-4.030959	-0.401305	-0.583354
C15	C	-3.950655	-0.683418	-0.122938
C16	C	-4.016146	-0.783558	-0.169621
C17	C	-4.139936	-0.810895	-0.419093
C18	C	-4.074444	-0.710755	-0.372429
C19	C	-3.979808	-0.647024	-0.224350
C20	C	-4.103597	-0.674361	-0.473842
C21	C	-4.038121	-0.574230	-0.427182
C22	C	-3.943492	-0.510493	-0.279110
C23	C	-3.914333	-0.546893	-0.177691
C24	C	-4.198248	-0.738094	-0.621921
C25	C	-4.227401	-0.701700	-0.723333
C26	C	-4.161910	-0.601567	-0.676673
C27	C	-4.067281	-0.537830	-0.528601
C28	C	-4.191070	-0.565167	-0.778093
C29	C	-4.125594	-0.465036	-0.731433
C30	C	-4.001805	-0.437699	-0.481941
C31	C	-3.951393	-0.125841	-0.680800
C32	C	-4.014785	-0.125027	-0.823939
C33	C	-3.859294	-0.119542	-0.898476
C34	C	-4.053424	-0.200952	-1.043210
C35	C	-3.933636	-0.042175	-0.934259
C36	C	-4.208130	-0.206513	-0.966833
C37	C	-4.088258	-0.047664	-0.857824
C38	C	-4.282526	-0.129097	-1.002539
C39	C	-4.201216	0.046146	-0.367297
C40	C	-4.110775	0.152712	-0.317670
C41	C	-4.211100	-0.122749	-0.220211
C42	C	-4.126945	-0.123559	-0.077068
H43	H	-3.890189	-0.428961	-0.241122
H44	H	-4.039360	-0.265756	-1.123001
C45	C	-4.237564	-0.352021	-0.940010
C46	C	-4.363996	-0.300383	-0.983791
H47	H	-4.333787	-0.409975	-0.950488
H48	H	-4.131895	-0.313364	-0.841395
H49	H	-4.161292	-0.367757	-0.998476
H50	H	-4.440256	-0.284640	-0.925318
H51	H	-4.469705	-0.339048	-1.082422
H52	H	-3.924711	-0.385804	-0.361359
H53	H	-4.462079	-0.133156	-1.047716
H54	H	-3.837238	-0.494998	-0.057108
C55	C	-3.962374	0.125768	-0.731353
C56	C	-4.107121	0.039821	-0.750045
H57	H	-3.973995	0.179782	-0.664801
H58	H	-4.001795	0.127273	-0.821905
H59	H	-3.813157	0.128543	-0.694651
H60	H	-4.256341	0.037043	-0.786757
H61	H	-4.067713	0.038316	-0.659474
H62	H	-3.992393	-0.813184	-0.087027
C63	C	-3.834894	-0.666441	0.119004
C64	C	-3.846655	-0.613355	0.039834
H65	H	-3.770716	-0.623187	0.219485
H66	H	-3.745024	-0.702928	0.101249
H67	H	-3.980979	-0.709201	0.089983
H68	H	-3.700568	-0.570601	0.068847
H69	H	-3.936526	-0.576852	0.057599
C70	C	-4.295259	-0.976528	-0.601399
C71	C	-4.243946	-0.880953	-0.581857
H72	H	-4.359452	-1.019775	-0.701884
H73	H	-4.398525	-0.990442	-0.563417
H74	H	-4.162585	-0.984187	-0.552167
H75	H	-4.376623	-0.873292	-0.631080
H76	H	-4.140674	-0.867034	-0.619857
C77	C	-4.382724	-0.867333	-0.905640
C78	C	-4.331411	-0.771758	-0.886097
H79	H	-4.446917	-0.910580	-1.006125
H80	H	-4.485991	-0.881247	-0.867658
H81	H	-4.250050	-0.874992	-0.856408
H82	H	-4.464089	-0.764098	-0.935321
H83	H	-4.228139	-0.757839	-0.924098
C84	C	-4.490660	-0.623906	-1.013372
C85	C	-4.295120	-0.635231	-0.940857
H86	H	-4.554903	-0.667165	-1.113855
H87	H	-4.455815	-0.559072	-1.000104
H88	H	-4.593891	-0.637817	-0.975349
H89	H	-4.191882	-0.621313	-0.978873
H90	H	-4.329958	-0.700080	-0.954135
H91	H	-4.251560	-0.819627	-0.659906
H92	H	-4.149366	-0.435405	-0.814015
C93	C	-3.840562	0.051781	-1.052580
C94	C	-3.777820	0.051592	-0.917598
H95	H	-3.744347	0.109663	-1.042290
H96	H	-3.990259	0.048508	-1.088349
H97	H	-3.829593	-0.002694	-1.118637
H98	H	-3.788805	0.106063	-0.851543
H99	H	-3.628085	0.054875	-0.881809
C100	C	-3.598679	-0.194639	-0.932843
C101	C	-3.617072	-0.114234	-0.837276
H102	H	-3.449150	-0.191367	-0.895054
H103	H	-3.638022	-0.194644	-1.024395
H104	H	-3.696370	-0.252438	-0.943872
H105	H	-3.519393	-0.056436	-0.826256
H106	H	-3.577703	-0.114221	-0.745698
