data_functionalizedCrystal
_audit_creation_method	'MofGen! by Chris Wilmer'
_symmetry_space_group_name_H-M	'P1'
_symmetry_Int_Tables_number	1
_symmetry_cell_setting	triclinic
loop_
_symmetry_equiv_pos_as_xyz
  x,y,z
_cell_length_a	15.537862
_cell_length_b	10.723024
_cell_length_c	9.798715
_cell_angle_alpha	90.004017
_cell_angle_beta	89.995112
_cell_angle_gamma	114.133848
loop_
_atom_site_label
_atom_site_type_symbol
_atom_site_fract_x
_atom_site_fract_y
_atom_site_fract_z
O1	O	0.131741	-1.596009	-0.113505
O2	O	0.144351	-1.227001	-0.113505
O3	O	0.001374	-1.483350	-0.113493
O4	O	0.274718	-1.339660	-0.113517
O5	O	0.001373	-1.483336	0.113489
O6	O	0.144351	-1.226987	0.113477
O7	O	0.131740	-1.595995	0.113477
Zn8	Zn	0.138045	-1.411489	0.149515
Zn9	Zn	0.138046	-1.411507	-0.149543
O10	O	0.274718	-1.339646	0.113465
C11	C	0.143433	-1.180920	-0.000014
C12	C	0.140688	-1.043641	-0.000014
C13	C	-0.033627	-1.498377	-0.000002
C14	C	-0.137916	-1.543160	-0.000002
C15	C	0.220690	-0.931507	-0.000021
C16	C	0.217854	-0.789620	-0.000021
C17	C	-0.295372	-1.724683	-0.000002
C18	C	-0.197375	-1.682589	-0.000002
C19	C	-0.176440	-1.445769	-0.000009
C20	C	-0.274437	-1.487843	-0.000016
C21	C	-0.333896	-1.627302	-0.000011
C22	C	-0.312961	-1.390462	-0.000025
C23	C	-0.410950	-1.432533	-0.000025
C24	C	-0.470415	-1.571986	-0.000016
C25	C	-0.431885	-1.669373	-0.000011
C26	C	-0.253500	-1.251004	-0.000020
C27	C	-0.292024	-1.153623	-0.000029
C28	C	-0.390014	-1.195694	-0.000039
C29	C	-0.449479	-1.335146	-0.000030
C30	C	-0.428544	-1.098307	-0.000044
C31	C	-0.526533	-1.140378	-0.000043
C32	C	-0.547468	-1.377217	-0.000029
C33	C	0.309718	-1.324619	-0.000029
C34	C	0.414008	-1.279836	-0.000038
N35	N	0.138045	-1.411486	0.353615
C36	C	0.132658	-0.642076	-0.000014
C37	C	0.135404	-0.779355	-0.000014
N38	N	0.138039	-1.411524	-0.353643
C39	C	0.077748	-1.519242	0.421397
C40	C	0.077745	-1.519264	0.578560
H41	H	0.291283	-0.940547	-0.000020
H42	H	-0.343788	-1.838243	-0.000018
Br43	Br	0.332014	-0.629222	-0.000047
H44	H	0.189668	-1.319267	0.588076
H45	H	0.189661	-1.319243	0.411935
H46	H	0.066912	-0.875587	-0.000017
Br47	Br	0.023021	-1.028591	0.000012
H48	H	0.026125	-1.611522	0.636849
H49	H	-0.128015	-1.332222	-0.000009
Br50	Br	-0.008532	-1.672781	0.324206
Br51	Br	-0.603402	-1.629088	-0.000001
H52	H	-0.595884	-1.490778	-0.000046
H53	H	-0.166014	-1.761899	0.000007
Br54	Br	-0.512589	-1.858640	-0.000036
Br55	Br	-0.120513	-1.193906	0.000004
Br56	Br	-0.211322	-0.964365	-0.000031
H57	H	-0.380119	-0.984760	-0.000034
Br58	Br	-0.578822	-1.008218	-0.000040
