data_functionalizedCrystal
_audit_creation_method	'MofGen! by Chris Wilmer'
_symmetry_space_group_name_H-M	'P1'
_symmetry_Int_Tables_number	1
_symmetry_cell_setting	triclinic
loop_
_symmetry_equiv_pos_as_xyz
  x,y,z
_cell_length_a	6.817900
_cell_length_b	19.453172
_cell_length_c	19.453114
_cell_angle_alpha	96.317064
_cell_angle_beta	101.709288
_cell_angle_gamma	101.710488
loop_
_atom_site_label
_atom_site_type_symbol
_atom_site_fract_x
_atom_site_fract_y
_atom_site_fract_z
V1	V	-3.998005	-0.097914	-0.219330
V2	V	-3.498005	0.402086	0.280670
O3	O	-3.995098	0.003953	-0.214817
O4	O	-3.495098	0.503953	0.285183
O5	O	-3.941032	-0.193423	-0.218154
O6	O	-3.441032	0.306577	0.281846
O7	O	-3.941025	-0.096738	-0.314839
O8	O	-3.441025	0.403262	0.185161
O9	O	-3.995104	-0.093402	-0.117463
O10	O	-3.495104	0.406598	0.382537
V11	V	-4.483855	-0.085691	-0.207106
V12	V	-3.983855	0.414309	0.292894
O13	O	-4.254158	-0.124727	-0.246143
O14	O	-3.754158	0.375273	0.253857
O15	O	-4.677900	-0.058877	-0.180293
O16	O	-4.177900	0.441123	0.319707
O17	O	-4.317622	0.009819	-0.208281
O18	O	-3.817622	0.509819	0.291719
O19	O	-4.604159	-0.187557	-0.211619
O20	O	-4.104159	0.312443	0.288381
O21	O	-4.604153	-0.090203	-0.308973
O22	O	-4.104153	0.409797	0.191027
O23	O	-4.317628	-0.086867	-0.111597
O24	O	-3.817628	0.413133	0.388403
C25	C	-3.784225	-0.216696	-0.214778
C26	C	-3.284225	0.283304	0.285222
C27	C	-3.818872	-0.294778	-0.214454
C28	C	-3.318872	0.205222	0.285546
C29	C	-4.247899	-0.855852	-0.216325
C30	C	-3.747899	-0.355852	0.283675
C31	C	-4.215361	-0.782485	-0.216625
C32	C	-3.715361	-0.282485	0.283375
C33	C	-4.017282	-0.742102	-0.212598
C34	C	-3.517282	-0.242102	0.287402
C35	C	-3.851722	-0.775088	-0.208253
C36	C	-3.351722	-0.275088	0.291747
C37	C	-3.884261	-0.848452	-0.207947
C38	C	-3.384261	-0.348452	0.292053
N39	N	-3.850595	-0.630535	-0.250130
N40	N	-3.350595	-0.130535	0.249870
N41	N	-3.819697	-0.560842	-0.250423
N42	N	-3.319697	-0.060842	0.249577
C43	C	-3.919231	-0.521058	-0.213521
C44	C	-3.419231	-0.021058	0.286479
N45	N	-4.050866	-0.553601	-0.176325
N46	N	-3.550866	-0.053601	0.323675
N47	N	-4.081774	-0.623301	-0.176035
N48	N	-3.581774	-0.123301	0.323965
C49	C	-3.981978	-0.662549	-0.212930
C50	C	-3.481978	-0.162549	0.287070
C51	C	-4.049499	-0.408526	-0.218186
C52	C	-3.549499	0.091474	0.281814
C53	C	-4.016951	-0.335157	-0.218482
C54	C	-3.516951	0.164843	0.281518
C55	C	-3.653311	-0.327762	-0.210117
C56	C	-3.153311	0.172238	0.289883
C57	C	-3.685861	-0.401129	-0.209815
C58	C	-3.185861	0.098871	0.290185
C59	C	-3.883960	-0.441507	-0.213853
C60	C	-3.383960	0.058493	0.286147
C61	C	-3.784216	-0.093364	-0.338108
C62	C	-3.284216	0.406636	0.161892
C63	C	-3.818856	-0.093034	-0.416189
C64	C	-3.318856	0.406966	0.083811
C65	C	-4.016595	-0.096405	-0.456457
C66	C	-3.516595	0.403595	0.043543
C67	C	-4.049143	-0.096096	-0.529823
C68	C	-3.549143	0.403904	-0.029823
C69	C	-3.883948	-0.092429	-0.562920
C70	C	-3.383948	0.407571	-0.062920
C71	C	-3.686179	-0.089054	-0.522641
C72	C	-3.186179	0.410946	-0.022641
C73	C	-3.653632	-0.089356	-0.449276
C74	C	-3.153632	0.410644	0.050724
N75	N	-3.820875	-0.129523	-0.681834
N76	N	-3.320875	0.370477	-0.181834
N77	N	-3.851806	-0.129238	-0.751529
N78	N	-3.351806	0.370762	-0.251529
C79	C	-3.981996	-0.091516	-0.783965
C80	C	-3.481996	0.408484	-0.283965
N81	N	-4.080122	-0.054100	-0.744076
N82	N	-3.580122	0.445900	-0.244076
N83	N	-4.049196	-0.054389	-0.674375
N84	N	-3.549196	0.445611	-0.174375
C85	C	-3.919218	-0.092100	-0.642472
C86	C	-3.419218	0.407900	-0.142472
C87	C	-4.215040	-0.094551	-0.903785
C88	C	-3.715040	0.405449	-0.403785
C89	C	-4.247579	-0.094237	-0.977151
C90	C	-3.747579	0.405763	-0.477151
C91	C	-3.884612	-0.087202	-0.969969
C92	C	-3.384612	0.412798	-0.469969
C93	C	-3.852075	-0.087509	-0.896603
C94	C	-3.352075	0.412491	-0.396603
C95	C	-4.017299	-0.091187	-0.863516
C96	C	-3.517299	0.408813	-0.363516
C97	C	-4.137771	0.033088	-0.211656
C98	C	-3.637771	0.533088	0.288344
C99	C	-4.082361	0.111169	-0.211984
C100	C	-3.582361	0.611169	0.288016
C101	C	-4.137780	-0.090243	-0.088324
C102	C	-3.637780	0.409757	0.411676
C103	C	-4.082379	-0.090569	-0.010242
C104	C	-3.582379	0.409431	0.489758
H105	H	-4.210802	-0.441404	-0.221470
H106	H	-3.710802	0.058596	0.278530
H107	H	-3.690442	-0.742202	-0.204974
H108	H	-3.190442	-0.242202	0.295026
H109	H	-4.349574	-0.097543	-0.876844
H110	H	-3.849574	0.402457	-0.376844
O111	O	-4.439820	-0.097542	-1.016170
O112	O	-3.939820	0.402458	-0.516170
C113	C	-4.578646	-0.100834	-0.971227
C114	C	-4.078646	0.399166	-0.471227
H115	H	-4.513872	-0.122375	-0.921438
H116	H	-4.013872	0.377625	-0.421438
H117	H	-4.732800	-0.137483	-1.000394
H118	H	-4.232800	0.362517	-0.500394
H119	H	-4.601525	-0.045307	-0.955508
H120	H	-4.101525	0.454693	-0.455508
H121	H	-3.749455	-0.875303	-0.204414
H122	H	-3.249455	-0.375303	0.295586
H123	H	-3.551061	-0.427980	-0.206283
H124	H	-3.051061	0.072020	0.293717
O125	O	-3.724244	-0.083546	-1.002173
O126	O	-3.224244	0.416454	-0.502173
C127	C	-3.700372	-0.022002	-1.034645
C128	C	-3.200372	0.477998	-0.534645
H129	H	-3.852210	-0.004626	-1.045509
H130	H	-3.352210	0.495374	-0.545509
H131	H	-3.653597	-0.034050	-1.086905
H132	H	-3.153597	0.465950	-0.586905
H133	H	-3.576007	0.022434	-0.997781
H134	H	-3.076007	0.522434	-0.497781
H135	H	-4.151135	-0.099397	-0.429523
H136	H	-3.651135	0.400603	0.070477
H137	H	-3.691060	-0.084772	-0.863817
H138	H	-3.191060	0.415228	-0.363817
O139	O	-4.241396	-0.099423	-0.568853
O140	O	-3.741396	0.400577	-0.068853
C141	C	-4.380237	-0.102721	-0.523915
C142	C	-3.880237	0.397279	-0.023915
H143	H	-4.315435	-0.124240	-0.474114
H144	H	-3.815435	0.375760	0.025886
H145	H	-4.534361	-0.139393	-0.553079
H146	H	-4.034361	0.360607	-0.053079
H147	H	-4.403187	-0.047200	-0.508216
H148	H	-3.903187	0.452800	-0.008216
H149	H	-4.409203	-0.888724	-0.219611
H150	H	-3.909203	-0.388724	0.280389
O151	O	-4.178007	-0.303237	-0.222734
O152	O	-3.678007	0.196763	0.277266
C153	C	-4.359813	-0.354609	-0.226216
C154	C	-3.859813	0.145391	0.273784
H155	H	-4.340673	-0.409367	-0.247109
H156	H	-3.840673	0.090633	0.252891
H157	H	-4.494389	-0.341435	-0.263491
H158	H	-3.994389	0.158565	0.236509
H159	H	-4.391394	-0.354567	-0.170866
H160	H	-3.891394	0.145433	0.329134
O161	O	-3.460942	-0.288454	-0.206111
O162	O	-2.960942	0.211546	0.293889
C163	C	-3.401204	-0.236111	-0.144916
C164	C	-2.901204	0.263889	0.355084
H165	H	-3.544181	-0.225096	-0.128223
H166	H	-3.044181	0.274904	0.371777
H167	H	-3.308112	-0.185136	-0.157100
H168	H	-2.808112	0.314864	0.342900
H169	H	-3.303015	-0.255772	-0.099943
H170	H	-2.803015	0.244228	0.400057
H171	H	-3.551676	-0.086067	-0.549593
H172	H	-3.051676	0.413933	-0.049593
O173	O	-4.376410	-0.750557	-0.220874
O174	O	-3.876410	-0.250557	0.279126
C175	C	-4.558220	-0.801924	-0.224348
C176	C	-4.058220	-0.301924	0.275652
H177	H	-4.539099	-0.856684	-0.245243
H178	H	-4.039099	-0.356684	0.254757
H179	H	-4.692799	-0.788747	-0.261618
H180	H	-4.192799	-0.288747	0.238382
H181	H	-4.589779	-0.801879	-0.168995
H182	H	-4.089779	-0.301879	0.331005
O183	O	-3.461681	-0.086207	-0.410111
O184	O	-2.961681	0.413793	0.089889
C185	C	-3.463847	-0.147343	-0.377229
C186	C	-2.963847	0.352657	0.122771
H187	H	-3.627141	-0.170808	-0.372589
H188	H	-3.127141	0.329192	0.127411
H189	H	-3.356961	-0.132342	-0.321936
H190	H	-2.856961	0.367658	0.178064
H191	H	-3.409191	-0.188314	-0.410571
H192	H	-2.909191	0.311686	0.089429
