data_functionalizedCrystal
_audit_creation_method	'MofGen! by Chris Wilmer'
_symmetry_space_group_name_H-M	'P1'
_symmetry_Int_Tables_number	1
_symmetry_cell_setting	triclinic
loop_
_symmetry_equiv_pos_as_xyz
  x,y,z
_cell_length_a	18.101395
_cell_length_b	12.759395
_cell_length_c	12.759387
_cell_angle_alpha	90.022274
_cell_angle_beta	89.967189
_cell_angle_gamma	89.968332
loop_
_atom_site_label
_atom_site_type_symbol
_atom_site_fract_x
_atom_site_fract_y
_atom_site_fract_z
Zn1	Zn	-0.294779	-1.606149	-0.594040
Zn2	Zn	-0.418640	-1.605989	-0.418354
Zn3	Zn	-0.294818	-1.430447	-0.418371
Zn4	Zn	-0.418585	-1.430389	-0.593988
O5	O	-0.356705	-1.518244	-0.506188
O6	O	-0.311217	-1.753149	-0.570749
O7	O	-0.402253	-1.582661	-0.271335
O8	O	-0.191180	-1.453845	-0.441703
O9	O	-0.402216	-1.753032	-0.441674
O10	O	-0.191152	-1.582933	-0.570766
O11	O	-0.311282	-1.453691	-0.271348
O12	O	-0.311229	-1.283418	-0.441653
O13	O	-0.402123	-1.453747	-0.741016
O14	O	-0.402160	-1.283376	-0.570677
O15	O	-0.311164	-1.582877	-0.741054
O16	O	-0.522265	-1.582604	-0.441623
O17	O	-0.522225	-1.453592	-0.570661
C18	C	-0.356693	-1.245276	-0.506162
C19	C	-0.356706	-1.128499	-0.506175
C20	C	-0.451546	-1.128494	-0.640311
C21	C	-0.498971	-1.073630	-0.707381
C22	C	-0.498978	-0.963908	-0.707390
C23	C	-0.451554	-0.909048	-0.640325
C24	C	-0.404129	-0.963912	-0.573256
C25	C	-0.404128	-1.073636	-0.573252
C26	C	-0.309287	-0.963917	-0.439127
C27	C	-0.309282	-1.073639	-0.439110
C28	C	-0.261863	-0.909057	-0.372062
C29	C	-0.214440	-0.963921	-0.304986
C30	C	-0.214435	-1.073649	-0.304978
C31	C	-0.261857	-1.128503	-0.372041
C32	C	-0.549116	-1.518103	-0.506157
C33	C	-0.631430	-1.518139	-0.506179
C34	C	-0.930521	-1.518370	-0.506236
C35	C	-0.899201	-1.437387	-0.587624
C36	C	-0.813583	-1.437002	-0.587370
C37	C	-0.782138	-1.518255	-0.506209
C38	C	-0.813298	-1.488272	-0.395482
C39	C	-0.898943	-1.487750	-0.395969
C40	C	-0.898862	-1.629513	-0.534599
C41	C	-0.813211	-1.628859	-0.537028
C42	C	-0.698279	-1.518192	-0.506187
C43	C	-1.014380	-1.518430	-0.506251
C44	C	-0.163543	-1.518413	-0.506242
C45	C	-0.081229	-1.518486	-0.506265
C46	C	-0.356633	-1.518323	-0.780222
C47	C	-0.356602	-1.518357	-0.896999
C48	C	-0.356715	-0.792277	-0.506208
C49	C	-0.356712	-0.909054	-0.506196
C50	C	-0.261892	-1.652829	-0.897058
C51	C	-0.214526	-1.720080	-0.951949
C52	C	-0.214499	-1.720105	-1.061671
C53	C	-0.261842	-1.652871	-1.116504
C54	C	-0.309208	-1.585620	-1.061614
C55	C	-0.309231	-1.585604	-0.951889
C56	C	-0.403913	-1.451144	-1.061554
C57	C	-0.403944	-1.451122	-0.951832
C58	C	-0.451255	-1.383910	-1.116388
C59	C	-0.498626	-1.316663	-1.061497
C60	C	-0.498651	-1.316641	-0.951769
C61	C	-0.451310	-1.383872	-0.896942
C62	C	-0.356724	-1.518225	-0.233221
C63	C	-0.356547	-1.518395	-0.116445
H64	H	-0.175828	-0.919245	-0.250392
H65	H	-0.537215	-1.261865	-0.907083
H66	H	-0.261916	-1.652825	-0.807717
O67	O	-0.168410	-1.785280	-1.115044
C68	C	-0.120573	-1.725524	-1.178539
H69	H	-0.115995	-1.642777	-1.145456
H70	H	-0.063584	-1.763581	-1.179819
H71	H	-0.143455	-1.721895	-1.261684
H72	H	-0.175980	-1.774819	-0.907291
O73	O	-0.261876	-1.653058	-1.223087
C74	C	-0.280874	-1.753745	-1.259764
H75	H	-0.313182	-1.797138	-1.196537
H76	H	-0.316362	-1.746200	-1.333160
H77	H	-0.228442	-1.799313	-1.279256
O78	O	-0.545060	-1.126759	-0.772623
C79	C	-0.586932	-1.054806	-0.831803
H80	H	-0.556605	-0.976614	-0.835524
H81	H	-0.594904	-1.086539	-0.914558
H82	H	-0.643142	-1.043080	-0.793183
O83	O	-0.261870	-0.802474	-0.372260
C84	C	-0.242931	-0.765865	-0.472996
H85	H	-0.255632	-0.829111	-0.533479
H86	H	-0.276361	-0.692448	-0.491580
H87	H	-0.181488	-0.746431	-0.475386
O88	O	-0.923056	-1.701622	-0.464036
C89	C	-0.963875	-1.779758	-0.516443
H90	H	-0.946833	-1.782130	-0.602437
H91	H	-0.952451	-1.859142	-0.478803
H92	H	-1.025346	-1.761189	-0.510466
H93	H	-0.537592	-0.919238	-0.762009
O94	O	-0.451675	-0.802465	-0.640437
C95	C	-0.503685	-0.765805	-0.714038
H96	H	-0.546964	-0.829012	-0.728635
H97	H	-0.531762	-0.692365	-0.682270
H98	H	-0.474388	-0.746394	-0.790723
O99	O	-0.168343	-1.126778	-0.239724
C100	C	-0.126479	-1.054824	-0.180559
H101	H	-0.156812	-0.976587	-0.176855
H102	H	-0.118504	-1.086486	-0.097797
H103	H	-0.070269	-1.043215	-0.219181
H104	H	-0.451227	-1.383931	-1.205729
H105	H	-0.919664	-1.544176	-0.333261
H106	H	-0.537164	-1.261920	-1.106151
H107	H	-0.261859	-1.217844	-0.372039
H108	H	-0.451330	-1.383865	-0.807600
O109	O	-0.788815	-1.655705	-0.634229
C110	C	-0.743879	-1.574843	-0.674265
H111	H	-0.720698	-1.526632	-0.606627
H112	H	-0.696409	-1.610399	-0.721072
H113	H	-0.778193	-1.522113	-0.727470
H114	H	-0.918988	-1.406505	-0.371943
O115	O	-0.451618	-1.235077	-0.640455
C116	C	-0.503661	-1.271733	-0.713999
H117	H	-0.514086	-1.208531	-0.775369
H118	H	-0.481356	-1.345183	-0.753910
H119	H	-0.557623	-1.291126	-0.672191
O120	O	-0.787630	-1.704520	-0.471345
C121	C	-0.740821	-1.658896	-0.395761
H122	H	-0.754622	-1.572110	-0.387404
H123	H	-0.749145	-1.699742	-0.317192
H124	H	-0.680847	-1.667945	-0.421563
H125	H	-0.919743	-1.455960	-0.669993
O126	O	-0.925076	-1.339772	-0.565472
C127	C	-1.002878	-1.339800	-0.570682
H128	H	-1.024259	-1.422916	-0.558392
H129	H	-1.026069	-1.286357	-0.507032
H130	H	-1.021220	-1.310149	-0.650829
O131	O	-0.789305	-1.338652	-0.565073
C132	C	-0.815550	-1.268309	-0.641700
H133	H	-0.866963	-1.302345	-0.680419
H134	H	-0.829943	-1.190309	-0.603141
H135	H	-0.770969	-1.255393	-0.703500
O136	O	-0.789122	-1.556377	-0.321043
C137	C	-0.818110	-1.527179	-0.222681
H138	H	-0.870349	-1.478678	-0.234531
H139	H	-0.831956	-1.600551	-0.175667
H140	H	-0.775469	-1.478701	-0.178308
H141	H	-0.792514	-1.455761	-0.669472
H142	H	-0.791915	-1.407887	-0.371025
O143	O	-0.924599	-1.661948	-0.629321
C144	C	-0.971691	-1.584646	-0.671411
H145	H	-0.957987	-1.505406	-0.635007
H146	H	-0.963593	-1.580411	-0.759919
H147	H	-1.031573	-1.605611	-0.653345
