data_functionalizedCrystal
_audit_creation_method	'MofGen! by Chris Wilmer'
_symmetry_space_group_name_H-M	'P1'
_symmetry_Int_Tables_number	1
_symmetry_cell_setting	triclinic
loop_
_symmetry_equiv_pos_as_xyz
  x,y,z
_cell_length_a	14.971490
_cell_length_b	13.448316
_cell_length_c	14.971506
_cell_angle_alpha	90.001105
_cell_angle_beta	96.380982
_cell_angle_gamma	89.992749
loop_
_atom_site_label
_atom_site_type_symbol
_atom_site_fract_x
_atom_site_fract_y
_atom_site_fract_z
O1	O	-1.186952	0.082742	0.116575
O2	O	-0.926553	0.082732	0.130530
O3	O	-1.063723	0.082735	-0.006647
O4	O	-1.049783	0.082739	0.253751
O5	O	-1.063709	-0.082649	-0.006645
O6	O	-0.926540	-0.082652	0.130531
O7	O	-1.186938	-0.082642	0.116576
Cu8	Cu	-1.056738	-0.097748	0.123554
Cu9	Cu	-1.056754	0.097838	0.123552
O10	O	-1.049769	-0.082645	0.253752
C11	C	-0.893222	0.000039	0.129906
C12	C	-0.793925	0.000035	0.128034
N13	N	-1.056733	-0.235312	0.123554
C14	C	-0.366226	0.090204	0.119955
C15	C	-0.459526	0.090202	0.121711
C16	C	-0.506165	0.000048	0.122596
C17	C	-0.459499	-0.090109	0.121715
C18	C	-0.366201	-0.090105	0.119953
C19	C	-0.653961	-0.090111	0.125391
C20	C	-0.747265	-0.090115	0.127156
C21	C	-0.747286	0.090196	0.127150
C22	C	-0.653988	0.090200	0.125387
C23	C	-0.607329	0.000043	0.124508
C24	C	-1.063089	0.000044	-0.039970
C25	C	-1.061211	0.000048	-0.139266
C26	C	-0.220270	0.000051	0.117201
C27	C	-0.319566	0.000055	0.119077
C28	C	-1.002460	-0.712563	0.069204
C29	C	-1.002457	-0.608460	0.069201
C30	C	-1.056755	-0.556393	0.123544
C31	C	-1.111068	-0.608436	0.177887
C32	C	-1.111075	-0.712537	0.177885
C33	C	-1.111047	-0.391456	0.177891
C34	C	-1.111039	-0.287347	0.177895
C35	C	-1.002429	-0.287378	0.069207
C36	C	-1.002436	-0.391480	0.069204
C37	C	-1.056747	-0.443515	0.123549
N38	N	-1.056766	0.235402	0.123545
C39	C	-1.134629	0.000051	-0.577548
C40	C	-1.136387	0.000044	-0.484248
C41	C	-1.055794	0.000045	-0.427029
C42	C	-0.973439	0.000041	-0.463114
C43	C	-0.971683	0.000041	-0.556413
C44	C	-0.977106	0.000045	-0.268651
C45	C	-0.978862	0.000048	-0.175346
C46	C	-1.141810	0.000049	-0.196486
C47	C	-1.140053	0.000048	-0.289785
C48	C	-1.057698	0.000047	-0.325864
C49	C	-1.050403	0.000048	0.287076
C50	C	-1.052280	0.000050	0.386372
H51	H	-0.328259	0.163618	0.119241
H52	H	-1.155297	-0.754903	0.222134
H53	H	-0.497513	0.163611	0.122421
F54	F	-0.889454	0.000038	-0.307047
F55	F	-0.893087	0.000040	-0.114451
F56	F	-0.604353	0.186151	0.124453
F57	F	-0.887667	0.000037	-0.402215
H58	H	-0.904626	0.000032	-0.585787
H59	H	-0.785281	0.163605	0.127867
H60	H	-1.155251	-0.244957	0.222149
F61	F	-0.796900	-0.186066	0.128092
F62	F	-0.509138	-0.186058	0.122654
F63	F	-0.944626	-0.231998	0.011370
H64	H	-1.155275	-0.433819	0.222141
H65	H	-1.205679	0.000054	-0.336371
F66	F	-1.220408	0.000058	-0.638437
H67	H	-0.328211	-0.163514	0.119247
F68	F	-0.604306	-0.186067	0.124446
H69	H	-0.958238	-0.754948	0.024956
H70	H	-0.958238	-0.566097	0.024949
H71	H	-0.958217	-0.433869	0.024958
F72	F	-1.168861	-0.553020	0.235719
H73	H	-1.203443	0.000044	-0.454877
F74	F	-1.229459	0.000051	-0.158087
