data_functionalizedCrystal
_audit_creation_method	'MofGen! by Chris Wilmer'
_symmetry_space_group_name_H-M	'P1'
_symmetry_Int_Tables_number	1
_symmetry_cell_setting	triclinic
loop_
_symmetry_equiv_pos_as_xyz
  x,y,z
_cell_length_a	16.109301
_cell_length_b	14.586319
_cell_length_c	16.109298
_cell_angle_alpha	89.992805
_cell_angle_beta	83.460834
_cell_angle_gamma	89.993787
loop_
_atom_site_label
_atom_site_type_symbol
_atom_site_fract_x
_atom_site_fract_y
_atom_site_fract_z
O1	O	1.103135	-0.076171	0.106876
O2	O	0.861073	-0.076184	0.120176
O3	O	0.988755	-0.076184	-0.007505
O4	O	0.975453	-0.076172	0.234557
O5	O	0.988735	0.076297	-0.007527
O6	O	0.861053	0.076296	0.120154
O7	O	1.103115	0.076310	0.106854
Cu8	Cu	0.982082	0.090226	0.113502
Cu9	Cu	0.982106	-0.090101	0.113528
O10	O	0.975433	0.076309	0.234535
C11	C	0.830088	0.000054	0.119626
C12	C	0.737793	0.000048	0.118011
N13	N	0.982072	0.217057	0.113483
C14	C	0.988207	0.000053	-0.038491
C15	C	0.986593	0.000042	-0.130787
C16	C	0.515520	0.000063	0.190019
C17	C	0.428799	0.000069	0.188495
C18	C	0.448675	0.000057	0.037006
C19	C	0.535394	0.000058	0.038531
C20	C	0.568814	0.000056	0.115039
C21	C	0.395375	0.000061	0.111990
C22	C	0.301349	0.000067	0.110337
C23	C	0.662846	0.000051	0.116693
C24	C	1.134100	0.000069	0.107404
C25	C	1.226395	0.000069	0.109019
C26	C	0.931687	0.548081	0.063078
C27	C	0.931681	0.452099	0.063066
C28	C	1.032503	0.452051	0.163945
C29	C	1.032513	0.548031	0.163951
C30	C	0.982100	0.596043	0.113519
C31	C	0.982085	0.404082	0.113502
C32	C	0.982079	0.300015	0.113490
C33	C	0.982106	0.700117	0.113530
N34	N	0.982112	0.783068	0.113538
C35	C	0.981336	-0.083057	-0.429843
C36	C	0.982864	-0.083063	-0.343124
C37	C	0.982854	0.083180	-0.343133
C38	C	0.981333	0.083185	-0.429852
C39	C	0.980569	0.000064	-0.473205
C40	C	0.983619	0.000053	-0.299766
C41	C	0.985276	0.000046	-0.205740
C42	C	0.978914	0.000070	-0.567236
C43	C	0.975981	0.000070	0.265521
C44	C	0.977595	0.000075	0.357817
H45	H	0.542727	0.000068	0.252317
H46	H	0.890631	0.413053	0.021991
O47	O	0.983710	-0.163769	-0.300957
C48	C	1.057292	-0.260245	-0.212365
C49	C	1.056476	-0.168827	-0.260114
H50	H	1.116108	-0.264356	-0.179317
H51	H	1.056520	-0.319709	-0.258191
H52	H	0.999809	-0.264320	-0.164189
H53	H	1.113948	-0.164662	-0.308290
H54	H	1.057204	-0.109407	-0.214237
H55	H	0.385410	0.000076	0.249550
H56	H	0.983475	0.150854	-0.307825
O57	O	1.081390	0.405268	0.212915
C58	C	1.126094	0.257385	0.257579
C59	C	1.070677	0.310249	0.202093
H60	H	1.117465	0.180554	0.248836
H61	H	1.107540	0.276178	0.325864
H62	H	1.194357	0.276298	0.239071
H63	H	1.002398	0.291365	0.220528
H64	H	1.089302	0.291452	0.133822
H65	H	1.073569	0.587082	0.205028
O66	O	0.416071	0.000011	-0.037239
C67	C	0.291286	0.000055	-0.106727
C68	C	0.328096	0.000089	-0.022586
H69	H	0.220153	0.000137	-0.094910
H70	H	0.313183	-0.063776	-0.143780
H71	H	0.313280	0.063850	-0.143790
H72	H	0.306118	-0.063663	0.014543
H73	H	0.306202	0.063962	0.014403
H74	H	0.980714	-0.150739	-0.465138
O75	O	0.980552	0.164016	-0.471845
C76	C	0.980755	0.328907	-0.462717
C77	C	0.981617	0.237439	-0.415054
H78	H	0.981633	0.388292	-0.416825
H79	H	0.921880	0.333128	-0.495667
H80	H	1.038179	0.333009	-0.510965
H81	H	0.924233	0.233275	-0.366767
H82	H	1.040529	0.233256	-0.382162
H83	H	0.578789	0.000055	-0.022530
H84	H	0.890638	0.587170	0.022012
