data_functionalizedCrystal
_audit_creation_method	'MofGen! by Chris Wilmer'
_symmetry_space_group_name_H-M	'P1'
_symmetry_Int_Tables_number	1
_symmetry_cell_setting	triclinic
loop_
_symmetry_equiv_pos_as_xyz
  x,y,z
_cell_length_a	13.033286
_cell_length_b	12.645324
_cell_length_c	13.032721
_cell_angle_alpha	97.146460
_cell_angle_beta	89.137287
_cell_angle_gamma	97.170025
loop_
_atom_site_label
_atom_site_type_symbol
_atom_site_fract_x
_atom_site_fract_y
_atom_site_fract_z
Zn1	Zn	1.520178	-0.481534	-0.608843
Zn2	Zn	2.020178	0.018466	-0.108843
Zn3	Zn	1.498209	-0.329252	-0.780842
Zn4	Zn	1.998209	0.170748	-0.280842
Zn5	Zn	1.348195	-0.323684	-0.587080
Zn6	Zn	1.848195	0.176316	-0.087080
Zn7	Zn	1.326343	-0.525840	-0.758948
Zn8	Zn	1.826343	-0.025840	-0.258948
O9	O	1.423231	-0.415077	-0.683928
O10	O	1.923231	0.084923	-0.183928
O11	O	1.661165	-0.445121	-0.649929
O12	O	2.161165	0.054879	-0.149929
O13	O	1.478260	-0.180179	-0.755194
O14	O	1.978260	0.319821	-0.255194
O15	O	1.389348	-0.323750	-0.446058
O16	O	1.889348	0.176250	0.053942
O17	O	1.645025	-0.333240	-0.776296
O18	O	2.145025	0.166760	-0.276296
O19	O	1.515703	-0.439722	-0.462047
O20	O	2.015703	0.060278	0.037953
O21	O	1.368045	-0.176088	-0.612838
O22	O	1.868045	0.323912	-0.112838
O23	O	1.201394	-0.366712	-0.591609
O24	O	1.701394	0.133288	-0.091609
O25	O	1.352104	-0.668297	-0.738982
O26	O	1.852104	-0.168297	-0.238982
O27	O	1.185339	-0.515236	-0.717880
O28	O	1.685339	-0.015236	-0.217880
O29	O	1.494514	-0.635745	-0.628700
O30	O	1.994514	-0.135745	-0.128700
O31	O	1.457071	-0.376202	-0.921847
O32	O	1.957071	0.123798	-0.421847
O33	O	1.330802	-0.520635	-0.905762
O34	O	1.830802	-0.020635	-0.405762
C35	C	1.156054	-0.445178	-0.650008
C36	C	1.656054	0.054822	-0.150008
C37	C	1.041752	-0.458085	-0.635521
C38	C	1.541752	0.041915	-0.135521
C39	C	0.982819	-0.408368	-0.691489
C40	C	1.482819	0.091632	-0.191489
C41	C	0.864681	-0.421706	-0.676518
C42	C	1.364681	0.078294	-0.176518
C43	C	1.423322	-0.691558	-0.683826
C44	C	1.923322	-0.191558	-0.183826
C45	C	1.423361	-0.809377	-0.683783
C46	C	1.923361	-0.309377	-0.183783
C47	C	1.513231	-0.956462	-0.614674
C48	C	2.013231	-0.456462	-0.114674
C49	C	1.513012	-0.833889	-0.614356
C50	C	2.013012	-0.333889	-0.114356
C51	C	1.318766	-0.861800	-0.640585
C52	C	1.818766	-0.361800	-0.140585
C53	C	1.319327	-0.984257	-0.640045
C54	C	1.819327	-0.484257	-0.140045
C55	C	1.437192	-0.989247	-0.796093
C56	C	1.937192	-0.489247	-0.296093
C57	C	1.439632	-0.866295	-0.795847
C58	C	1.939632	-0.366295	-0.295847
C59	C	1.691451	-0.384860	-0.717982
C60	C	2.191451	0.115140	-0.217982
C61	C	1.805750	-0.371983	-0.732494
C62	C	2.305750	0.128017	-0.232494
C63	C	1.389209	-0.453851	-0.951122
C64	C	1.889209	0.046149	-0.451122
C65	C	1.374749	-0.470463	-1.065441
C66	C	1.874749	0.029537	-0.565441
C67	C	1.423209	-0.139655	-0.683963
C68	C	1.923209	0.360345	-0.183963
C69	C	1.423406	-0.021772	-0.683742
C70	C	1.923406	0.478228	-0.183742
C71	C	1.430833	-0.406449	-1.124339
C72	C	1.930833	0.093551	-0.624339
C73	C	1.415888	-0.423617	-1.242493
C74	C	1.915888	0.076383	-0.742493
C75	C	1.457413	-0.376173	-0.415695
C76	C	1.957413	0.123827	0.084305
C77	C	1.471980	-0.359594	-0.301389
C78	C	1.971980	0.140406	0.198611
H79	H	0.827679	-0.474152	-0.617517
H80	H	1.327679	0.025848	-0.117517
H81	H	0.842749	-0.319550	-0.791507
H82	H	1.342749	0.180450	-0.291507
H83	H	1.591002	-0.797435	-0.642993
H84	H	2.091002	-0.297435	-0.142993
H85	H	1.511404	-1.015370	-0.832754
H86	H	2.011404	-0.515370	-0.332754
H87	H	1.004746	-0.510527	-0.576524
H88	H	1.504746	-0.010527	-0.076524
H89	H	1.531067	-0.292077	-1.264347
H90	H	2.031067	0.207923	-0.764347
H91	H	1.377859	-0.850742	-0.851188
H92	H	1.877859	-0.350742	-0.351188
N93	N	1.296494	-0.559903	-1.114502
N94	N	1.796494	-0.059903	-0.614502
H95	H	1.296912	-0.559490	-1.191954
H96	H	1.796912	-0.059490	-0.691954
H97	H	1.225400	-0.548925	-1.086537
H98	H	1.725400	-0.048925	-0.586537
N99	N	1.300429	-0.809587	-0.532359
N100	N	1.800429	-0.309587	-0.032359
H101	H	1.358871	-0.819561	-0.485868
H102	H	1.858871	-0.319561	0.014132
H103	H	1.232915	-0.843896	-0.505325
H104	H	1.732915	-0.343896	-0.005325
H105	H	1.591517	-0.979507	-0.643113
H106	H	2.091517	-0.479507	-0.143113
H107	H	1.019824	-0.355934	-0.750493
H108	H	1.519824	0.144066	-0.250493
H109	H	1.505369	-0.977683	-0.532198
H110	H	2.005369	-0.477683	-0.032198
N111	N	1.301716	-1.010367	-0.530721
N112	N	1.801716	-0.510367	-0.030721
H113	H	1.236916	-1.062869	-0.528074
H114	H	1.736916	-0.562869	-0.028074
H115	H	1.293709	-0.942326	-0.483396
H116	H	1.793709	-0.442326	0.016604
N117	N	1.502387	-0.782275	-0.504478
N118	N	2.002387	-0.282275	-0.004478
H119	H	1.497819	-0.839152	-0.456061
H120	H	1.997819	-0.339152	0.043939
H121	H	1.437654	-0.745583	-0.498101
H122	H	1.937654	-0.245583	0.001899
H123	H	1.356809	-0.491140	-1.279538
H124	H	1.856809	0.008860	-0.779538
H125	H	1.250864	-1.028842	-0.687416
H126	H	1.750864	-0.528842	-0.187416
H127	H	1.250615	-0.847633	-0.688745
H128	H	1.750615	-0.347633	-0.188745
H129	H	1.489916	-0.338937	-1.087293
H130	H	1.989916	0.161063	-0.587293
N131	N	1.541498	-0.820152	-0.838674
N132	N	2.041498	-0.320152	-0.338674
H133	H	1.576965	-0.762617	-0.785716
H134	H	2.076965	-0.262617	-0.285716
H135	H	1.528646	-0.787939	-0.903727
H136	H	2.028646	-0.287939	-0.403727
N137	N	1.350309	-1.047655	-0.864491
N138	N	1.850309	-0.547655	-0.364491
H139	H	1.302240	-1.094960	-0.822961
H140	H	1.802240	-0.594960	-0.322961
H141	H	1.379937	-1.093386	-0.923992
H142	H	1.879937	-0.593386	-0.423992
