data_functionalizedCrystal
_audit_creation_method	'MofGen! by Chris Wilmer'
_symmetry_space_group_name_H-M	'P1'
_symmetry_Int_Tables_number	1
_symmetry_cell_setting	triclinic
loop_
_symmetry_equiv_pos_as_xyz
  x,y,z
_cell_length_a	15.297475
_cell_length_b	12.594516
_cell_length_c	15.296720
_cell_angle_alpha	99.650531
_cell_angle_beta	91.617114
_cell_angle_gamma	80.319586
loop_
_atom_site_label
_atom_site_type_symbol
_atom_site_fract_x
_atom_site_fract_y
_atom_site_fract_z
Zn1	Zn	1.253466	-0.828402	-0.726662
Zn2	Zn	1.753466	-0.328402	-0.226662
Zn3	Zn	1.278741	-0.981670	-0.580189
Zn4	Zn	1.778741	-0.481670	-0.080189
Zn5	Zn	1.132339	-0.768606	-0.554898
Zn6	Zn	1.632339	-0.268606	-0.054898
Zn7	Zn	1.106966	-0.971207	-0.701317
Zn8	Zn	1.606966	-0.471207	-0.201317
O9	O	1.192878	-0.887471	-0.640767
O10	O	1.692878	-0.387471	-0.140767
O11	O	1.379399	-0.878137	-0.728424
O12	O	1.879399	-0.378137	-0.228424
O13	O	1.280516	-0.932761	-0.454258
O14	O	1.780516	-0.432761	0.045742
O15	O	1.148448	-0.627605	-0.577705
O16	O	1.648448	-0.127605	-0.077705
O17	O	1.397968	-0.990742	-0.620811
O18	O	1.897968	-0.490742	-0.120811
O19	O	1.237439	-0.671537	-0.703900
O20	O	1.737439	-0.171537	-0.203900
O21	O	1.172956	-0.776223	-0.435677
O22	O	1.672956	-0.276223	0.064323
O23	O	1.006393	-0.766078	-0.553130
O24	O	1.506393	-0.266078	-0.053130
O25	O	1.105203	-0.972910	-0.827255
O26	O	1.605203	-0.472910	-0.327255
O27	O	0.987752	-0.914928	-0.660703
O28	O	1.487752	-0.414928	-0.160703
O29	O	1.212836	-0.867992	-0.845876
O30	O	1.712836	-0.367992	-0.345876
O31	O	1.255913	-1.129215	-0.596235
O32	O	1.755913	-0.629215	-0.096235
O33	O	1.129711	-1.121528	-0.685227
O34	O	1.629711	-0.621528	-0.185227
C35	C	0.965289	-0.832880	-0.601422
C36	C	1.465289	-0.332880	-0.101422
C37	C	0.867921	-0.809554	-0.584611
C38	C	1.367921	-0.309554	-0.084611
C39	C	0.554794	-1.054189	-0.760920
C40	C	1.054794	-0.554189	-0.260920
C41	C	0.646276	-1.076112	-0.776712
C42	C	1.146276	-0.576112	-0.276712
C43	C	0.701692	-1.009475	-0.728689
C44	C	1.201692	-0.509475	-0.228689
C45	C	0.665617	-0.920910	-0.664869
C46	C	1.165617	-0.420910	-0.164869
C47	C	0.574127	-0.898991	-0.649070
C48	C	1.074127	-0.398991	-0.149070
C49	C	0.721024	-0.854276	-0.616839
C50	C	1.221024	-0.354276	-0.116839
C51	C	0.684949	-0.765712	-0.553020
C52	C	1.184949	-0.265712	-0.053020
C53	C	0.593468	-0.743795	-0.537225
C54	C	1.093468	-0.243795	-0.037225
C55	C	0.538052	-0.810433	-0.585248
C56	C	1.038052	-0.310433	-0.085248
C57	C	0.812514	-0.876196	-0.632638
C58	C	1.312514	-0.376196	-0.132638
C59	C	0.831847	-0.720997	-0.520789
C60	C	1.331847	-0.220997	-0.020789
C61	C	0.740365	-0.699074	-0.504996
C62	C	1.240365	-0.199074	-0.004996
C63	C	1.192822	-1.163997	-0.640748
C64	C	1.692822	-0.663997	-0.140748
C65	C	1.192873	-1.282320	-0.640783
C66	C	1.692873	-0.782320	-0.140783
C67	C	1.124233	-1.347423	-0.689144
C68	C	1.624233	-0.847423	-0.189144
C69	C	1.116732	-1.399680	-0.605532
C70	C	1.616732	-0.899680	-0.105532
C71	C	1.200452	-1.440883	-0.724423
C72	C	1.700452	-0.940883	-0.224423
C73	C	1.185337	-1.333002	-0.557122
C74	C	1.685337	-0.833002	-0.057122
C75	C	1.269085	-1.374217	-0.676073
C76	C	1.769085	-0.874217	-0.176073
C77	C	1.261623	-1.426440	-0.592411
C78	C	1.761623	-0.926440	-0.092411
C79	C	1.421356	-0.942277	-0.680265
C80	C	1.921356	-0.442277	-0.180265
C81	C	1.518720	-0.965632	-0.697097
C82	C	2.018720	-0.465632	-0.197097
C83	C	1.153370	-0.925954	-0.869237
C84	C	1.653370	-0.425954	-0.369237
C85	C	1.136534	-0.942353	-0.966597
C86	C	1.636534	-0.442353	-0.466597
C87	C	1.192955	-0.609875	-0.640809
C88	C	1.692955	-0.109875	-0.140809
C89	C	1.192987	-0.491580	-0.640826
C90	C	1.692987	0.008420	-0.140826
C91	C	1.313239	-0.770087	-1.279821
C92	C	1.813239	-0.270087	-0.779821
C93	C	1.329063	-0.754682	-1.188347
C94	C	1.829063	-0.254682	-0.688347
C95	C	1.280932	-0.801598	-1.132905
C96	C	1.780932	-0.301598	-0.632905
C97	C	1.216975	-0.863922	-1.168946
C98	C	1.716975	-0.363922	-0.668946
C99	C	1.201155	-0.879335	-1.260430
C100	C	1.701155	-0.379335	-0.760430
C101	C	1.168847	-0.910847	-1.113514
C102	C	1.668847	-0.410847	-0.613514
C103	C	1.104891	-0.973170	-1.149555
C104	C	1.604891	-0.473170	-0.649555
C105	C	1.089073	-0.988580	-1.241030
C106	C	1.589073	-0.488580	-0.741030
C107	C	1.137203	-0.941664	-1.296472
C108	C	1.637203	-0.441664	-0.796472
C109	C	1.184668	-0.895433	-1.022030
C110	C	1.684668	-0.395433	-0.522030
C111	C	1.072583	-1.004682	-1.002639
C112	C	1.572583	-0.504682	-0.502639
C113	C	1.056760	-1.020086	-1.094113
C114	C	1.556760	-0.520086	-0.594113
C115	C	1.232282	-0.849074	-0.413194
C116	C	1.732282	-0.349074	0.086806
C117	C	1.249288	-0.832416	-0.315863
C118	C	1.749288	-0.332416	0.184137
H119	H	0.776180	-1.027329	-0.741551
H120	H	1.276180	-0.527329	-0.241551
H121	H	1.052334	-1.411643	-0.575714
H122	H	1.552334	-0.911643	-0.075714
H123	H	1.293819	-0.789052	-1.058424
H124	H	1.793819	-0.289052	-0.558424
Cl125	Cl	0.691622	-1.187446	-0.856937
Cl126	Cl	1.191622	-0.687446	-0.356937
Cl127	Cl	1.210280	-1.513090	-0.833600
Cl128	Cl	1.710280	-1.013090	-0.333600
H129	H	0.509668	-1.108442	-0.800008
H130	H	1.009668	-0.608442	-0.300008
H131	H	1.004685	-1.070831	-1.123471
H132	H	1.504685	-0.570831	-0.623471
H133	H	1.033393	-1.042887	-0.957499
H134	H	1.533393	-0.542887	-0.457499
Cl135	Cl	0.695002	-0.587740	-0.424769
Cl136	Cl	1.195002	-0.087740	0.075231
H137	H	1.352425	-0.731902	-1.324970
H138	H	1.852425	-0.231902	-0.824970
Cl139	Cl	0.857854	-0.987529	-0.712866
Cl140	Cl	1.357854	-0.487529	-0.212866
H141	H	0.876967	-0.666736	-0.481682
H142	H	1.376967	-0.166736	0.018318
H143	H	1.178897	-1.286343	-0.486374
H144	H	1.678897	-0.786343	0.013626
Cl145	Cl	1.265067	-0.817085	-0.976733
Cl146	Cl	1.765067	-0.317085	-0.476733
H147	H	1.066111	-1.312837	-0.729954
H148	H	1.566111	-0.812837	-0.229954
Cl149	Cl	1.117318	-0.961035	-1.411475
Cl150	Cl	1.617318	-0.461035	-0.911475
H151	H	1.381139	-0.703941	-1.159010
H152	H	1.881139	-0.203941	-0.659010
Cl153	Cl	1.008684	-1.066952	-1.286339
Cl154	Cl	1.508684	-0.566952	-0.786339
Cl155	Cl	0.423040	-0.782871	-0.565403
Cl156	Cl	0.923040	-0.282871	-0.065403
H157	H	0.564100	-0.671690	-0.485250
H158	H	1.064100	-0.171690	0.014750
Cl159	Cl	1.351335	-1.479494	-0.529214
Cl160	Cl	1.851335	-0.979494	-0.029214
H161	H	1.333461	-1.362260	-0.705927
H162	H	1.833461	-0.862260	-0.205927
