data_functionalizedCrystal
_audit_creation_method	'MofGen! by Chris Wilmer'
_symmetry_space_group_name_H-M	'P1'
_symmetry_Int_Tables_number	1
_symmetry_cell_setting	triclinic
loop_
_symmetry_equiv_pos_as_xyz
  x,y,z
_cell_length_a	16.109301
_cell_length_b	15.944551
_cell_length_c	14.586319
_cell_angle_alpha	89.995256
_cell_angle_beta	89.999213
_cell_angle_gamma	83.480109
loop_
_atom_site_label
_atom_site_type_symbol
_atom_site_fract_x
_atom_site_fract_y
_atom_site_fract_z
O1	O	1.103166	0.107966	-0.076184
O2	O	0.861108	0.121403	-0.076199
O3	O	0.988747	-0.007593	-0.076183
O4	O	0.975527	0.236961	-0.076200
O5	O	0.988738	-0.007595	0.076298
O6	O	0.861099	0.121401	0.076282
O7	O	1.103157	0.107964	0.076296
Cu8	Cu	0.982127	0.114682	0.090212
Cu9	Cu	0.982138	0.114685	-0.090114
O10	O	0.975518	0.236960	0.076280
C11	C	0.830129	0.120857	0.000039
C12	C	0.737833	0.119226	0.000034
C13	C	0.988194	-0.038887	0.000057
C14	C	0.986548	-0.132133	0.000058
C15	C	0.515584	0.191975	0.000040
C16	C	0.428863	0.190435	0.000046
C17	C	0.448688	0.037387	0.000053
C18	C	0.535407	0.038927	0.000053
C19	C	0.568853	0.116224	0.000042
C20	C	0.395412	0.113143	0.000047
C21	C	0.301386	0.111473	0.000054
C22	C	0.662885	0.117894	0.000037
C23	C	0.903499	-0.346962	0.000040
C24	C	0.942060	-0.407993	0.075225
C25	C	0.983572	-0.302858	0.000051
C26	C	0.942088	-0.407975	-0.075109
C27	C	0.980691	-0.467769	0.000040
C28	C	1.022155	-0.362660	0.075297
C29	C	1.022171	-0.362636	-0.075104
C30	C	1.060790	-0.423649	0.000099
C31	C	0.985229	-0.207856	0.000058
C32	C	0.979039	-0.562770	0.000039
C33	C	1.134136	0.108510	0.000056
C34	C	1.226432	0.110141	0.000055
C35	C	0.976071	0.268254	0.000038
C36	C	0.977717	0.361500	0.000031
N37	N	0.982126	0.114680	0.217044
N38	N	0.982146	0.114680	-0.216946
C39	C	1.038663	0.057580	0.452057
C40	C	1.038666	0.057578	0.548038
C41	C	0.925602	0.171783	0.548034
C42	C	0.925597	0.171780	0.452054
C43	C	0.982132	0.114680	0.404068
C44	C	0.982140	0.114680	0.596029
C45	C	0.982142	0.114679	0.700096
C46	C	0.982129	0.114680	0.299995
H47	H	0.542812	0.254914	0.000037
H48	H	0.837035	-0.313632	0.000111
H49	H	0.385495	0.252119	0.000045
C50	C	1.067861	-0.335679	0.161265
C51	C	1.077826	-0.241872	0.177178
C52	C	1.123528	-0.214888	0.263146
C53	C	1.159265	-0.281711	0.333202
C54	C	1.149301	-0.375525	0.317292
C55	C	1.103599	-0.402509	0.231323
H56	H	1.051371	-0.192400	0.125316
H57	H	1.130904	-0.145441	0.274923
H58	H	1.193097	-0.261736	0.396840
H59	H	1.175757	-0.424997	0.369153
H60	H	1.096223	-0.471956	0.219546
C61	C	0.863422	0.234598	0.600818
C62	C	0.863469	0.234654	0.706392
C63	C	0.801289	0.297473	0.759173
C64	C	0.739061	0.360236	0.706381
C65	C	0.739012	0.360182	0.600802
C66	C	0.801192	0.297363	0.548020
H67	H	0.909536	0.188191	0.745477
H68	H	0.801326	0.297512	0.837331
H69	H	0.693031	0.406738	0.745453
H70	H	0.692945	0.406645	0.561716
H71	H	0.801155	0.297323	0.469863
H72	H	0.908213	-0.428039	-0.138677
H73	H	1.084696	0.011085	0.412989
H74	H	0.578781	-0.022762	0.000058
C75	C	0.411895	-0.047636	0.000053
C76	C	0.316508	-0.049336	0.000046
C77	C	0.279718	-0.134361	0.000042
C78	C	0.338315	-0.217686	0.000046
C79	C	0.433708	-0.215990	0.000054
C80	C	0.470498	-0.130965	0.000057
H81	H	0.273126	0.012349	0.000043
H82	H	0.209102	-0.135616	0.000037
H83	H	0.311081	-0.280627	0.000044
H84	H	0.477090	-0.277675	0.000057
H85	H	0.541114	-0.129710	0.000063
H86	H	0.908189	-0.428091	0.138783
C87	C	1.100853	-0.005230	0.600827
C88	C	1.163044	-0.068028	0.548043
C89	C	1.225234	-0.130839	0.600832
C90	C	1.225232	-0.130852	0.706405
C91	C	1.163039	-0.068052	0.759196
C92	C	1.100849	-0.005240	0.706407
H93	H	1.163047	-0.068020	0.469885
H94	H	1.271273	-0.177329	0.561752
H95	H	1.271268	-0.177349	0.745483
H96	H	1.163036	-0.068059	0.837353
H97	H	1.054810	0.041249	0.745486
H98	H	1.127313	-0.456830	0.000145
C99	C	1.067890	-0.335445	-0.160969
C100	C	1.034283	-0.353008	-0.257080
C101	C	1.079994	-0.325814	-0.342953
C102	C	1.159313	-0.281056	-0.332716
C103	C	1.192924	-0.263490	-0.236601
C104	C	1.147213	-0.290684	-0.150727
H105	H	0.975563	-0.386143	-0.264662
H106	H	1.055112	-0.338818	-0.414104
H107	H	1.193151	-0.260925	-0.396284
H108	H	1.251644	-0.230355	-0.229019
H109	H	1.172095	-0.277681	-0.079577
H110	H	0.879558	0.218278	0.412979
