data_functionalizedCrystal
_audit_creation_method	'MofGen! by Chris Wilmer'
_symmetry_space_group_name_H-M	'P1'
_symmetry_Int_Tables_number	1
_symmetry_cell_setting	triclinic
loop_
_symmetry_equiv_pos_as_xyz
  x,y,z
_cell_length_a	16.625548
_cell_length_b	19.805405
_cell_length_c	19.805399
_cell_angle_alpha	90.029301
_cell_angle_beta	89.981391
_cell_angle_gamma	89.972522
loop_
_atom_site_label
_atom_site_type_symbol
_atom_site_fract_x
_atom_site_fract_y
_atom_site_fract_z
Zn1	Zn	1.232643	0.269460	-0.382694
Zn2	Zn	1.232541	0.382648	-0.269502
Zn3	Zn	1.097809	0.269480	-0.269521
Zn4	Zn	1.097766	0.382614	-0.382651
O5	O	1.165190	0.326051	-0.326092
O6	O	1.345462	0.284480	-0.367689
O7	O	1.214645	0.367659	-0.174788
O8	O	1.115756	0.174761	-0.284559
O9	O	1.345387	0.367639	-0.284528
O10	O	1.214817	0.174746	-0.367707
O11	O	1.115657	0.284515	-0.174802
O12	O	0.984971	0.284482	-0.284517
O13	O	1.115682	0.367581	-0.477373
O14	O	0.984939	0.367601	-0.367634
O15	O	1.214775	0.284447	-0.477405
O16	O	1.214602	0.477360	-0.284486
O17	O	1.115583	0.477335	-0.367616
C18	C	0.955699	0.326041	-0.326073
C19	C	0.866078	0.326053	-0.326081
C20	C	1.165235	0.326008	-0.502635
C21	C	1.165254	0.325990	-0.577867
C22	C	1.165099	0.501907	-0.326059
C23	C	1.165134	0.577139	-0.326068
C24	C	0.537902	0.326057	-0.326110
C25	C	0.629211	0.326054	-0.326100
C26	C	0.701987	0.326056	-0.326095
C27	C	0.793301	0.326052	-0.326086
C28	C	1.375499	0.326061	-0.326111
C29	C	1.465120	0.326065	-0.326120
C30	C	1.165303	0.149508	-0.326140
C31	C	1.165351	0.074276	-0.326160
C32	C	1.216743	0.612473	-0.282828
C33	C	1.216778	0.683162	-0.282843
C34	C	1.165198	0.718514	-0.326095
C35	C	1.113586	0.683174	-0.369340
C36	C	1.113557	0.612487	-0.369328
C37	C	1.113705	0.968248	-0.369390
C38	C	1.113737	1.038940	-0.369398
C39	C	1.216926	1.038922	-0.282905
C40	C	1.216896	0.968235	-0.282893
C41	C	1.165288	0.932901	-0.326140
C42	C	1.165253	0.856253	-0.326124
C43	C	1.165229	0.795161	-0.326108
C44	C	1.216853	0.282700	-0.613229
C45	C	1.216862	0.282680	-0.683917
C46	C	1.165274	0.325954	-0.719243
C47	C	1.113669	0.369246	-0.683876
C48	C	1.113658	0.369262	-0.613189
C49	C	1.113715	0.369183	-0.968949
C50	C	1.113732	0.369166	-1.039642
C51	C	1.216919	0.282601	-1.039678
C52	C	1.216907	0.282617	-0.968991
C53	C	1.165300	0.325906	-0.933630
C54	C	1.165290	0.325926	-0.856982
C55	C	1.165287	0.325938	-0.795890
C56	C	1.165191	0.326044	-0.150236
C57	C	1.165328	0.325872	-0.075005
H58	H	1.258742	0.583694	-0.247604
O59	O	1.267065	0.240609	-0.718163
C60	C	1.312584	0.202410	-0.671826
H61	H	1.315347	0.230147	-0.621431
H62	H	1.283095	0.151002	-0.664316
C63	C	1.395018	0.158591	-0.761325
C64	C	1.398417	0.192661	-0.699431
H65	H	1.447963	0.152574	-0.778354
H66	H	1.364349	0.184324	-0.792544
H67	H	1.370440	0.115755	-0.755059
H68	H	1.422985	0.235499	-0.705699
H69	H	1.429092	0.166934	-0.668214
O70	O	1.267040	0.933819	-0.240972
C71	C	1.319085	0.892881	-0.279543
H72	H	1.290605	0.882279	-0.330813
H73	H	1.378844	0.920076	-0.287031
C74	C	1.368661	0.838771	-0.179335
C75	C	1.333678	0.825745	-0.242303
H76	H	1.377666	0.797359	-0.156363
H77	H	1.333600	0.866354	-0.153347
H78	H	1.418457	0.861435	-0.185583
H79	H	1.283879	0.803089	-0.236054
H80	H	1.368731	0.798157	-0.268289
H81	H	1.071720	0.404406	-1.068402
O82	O	1.063549	1.073313	-0.411323
C83	C	1.011525	1.114276	-0.372758
H84	H	1.006564	1.093009	-0.319444
H85	H	1.036482	1.167831	-0.370448
C86	C	0.933781	1.141524	-0.471252
C87	C	0.927682	1.115401	-0.405772
H88	H	0.882063	1.142221	-0.491617
H89	H	0.968832	1.113928	-0.497235
H90	H	0.954582	1.186151	-0.469318
H91	H	0.906891	1.070772	-0.407708
H92	H	0.892625	1.142988	-0.379790
H93	H	1.258938	0.247351	-1.068477
H94	H	1.258865	0.247463	-0.584472
O95	O	1.063450	0.411222	-0.578810
C96	C	1.011400	0.372699	-0.537912
H97	H	1.006456	0.319384	-0.559225
H98	H	1.036318	0.370384	-0.484342
C99	C	0.933629	0.471247	-0.510633
C100	C	0.927553	0.405766	-0.536814
H101	H	0.881910	0.491645	-0.509953
H102	H	0.968699	0.497202	-0.538185
H103	H	0.954398	0.469309	-0.465994
H104	H	0.906795	0.407705	-0.581454
H105	H	0.892478	0.379812	-0.509269
H106	H	1.258802	0.711928	-0.247631
H107	H	1.071593	0.711964	-0.404560
O108	O	1.063487	0.934036	-0.411411
C109	C	1.017978	0.980399	-0.449593
H110	H	1.015240	1.030808	-0.421875
H111	H	1.047462	0.987859	-0.501027
C112	C	0.935503	0.890959	-0.493308
C113	C	0.932134	0.952871	-0.459262
H114	H	0.882551	0.873978	-0.499275
H115	H	0.966165	0.859722	-0.467586
H116	H	0.960076	0.897184	-0.536166
H117	H	0.907570	0.946643	-0.416401
H118	H	0.901465	0.984106	-0.484977
O119	O	1.267045	0.240516	-0.934781
C120	C	1.312604	0.202313	-0.981151
H121	H	1.279590	0.199957	-1.031536
H122	H	1.373828	0.227099	-0.988669
C123	C	1.364812	0.133176	-0.891701
C124	C	1.324260	0.130277	-0.953583
H125	H	1.372005	0.088742	-0.874696
H126	H	1.334120	0.158915	-0.860460
H127	H	1.415827	0.153834	-0.897975
H128	H	1.273241	0.109628	-0.947307
H129	H	1.354943	0.104532	-0.984823
O130	O	1.063550	0.411288	-0.934711
C131	C	1.018004	0.449462	-0.981051
H132	H	1.051049	0.451810	-1.031437
H133	H	0.956795	0.424655	-0.988580
C134	C	0.965710	0.518614	-0.891549
C135	C	1.006300	0.521503	-0.953433
H136	H	0.958487	0.563052	-0.874513
H137	H	0.996393	0.492895	-0.860329
H138	H	0.914707	0.497939	-0.897832
H139	H	1.057306	0.542170	-0.947149
H140	H	0.975625	0.547228	-0.984653
O141	O	1.267054	1.073351	-0.240973
C142	C	1.256019	1.143322	-0.250250
H143	H	1.229565	1.152958	-0.302461
H144	H	1.213135	1.163450	-0.210065
C145	C	1.370123	1.167713	-0.180012
C146	C	1.337637	1.179549	-0.244141
H147	H	1.420468	1.190061	-0.176241
H148	H	1.377556	1.120573	-0.173759
H149	H	1.334379	1.184487	-0.146532
H150	H	1.373377	1.162768	-0.277619
H151	H	1.330212	1.226688	-0.250400
H152	H	1.071663	0.404479	-0.712644
H153	H	1.071532	0.583719	-0.404540
