data_functionalizedCrystal
_audit_creation_method	'MofGen! by Chris Wilmer'
_symmetry_space_group_name_H-M	'P1'
_symmetry_Int_Tables_number	1
_symmetry_cell_setting	triclinic
loop_
_symmetry_equiv_pos_as_xyz
  x,y,z
_cell_length_a	6.817900
_cell_length_b	11.102188
_cell_length_c	10.943624
_cell_angle_alpha	91.862487
_cell_angle_beta	108.838799
_cell_angle_gamma	108.603875
loop_
_atom_site_label
_atom_site_type_symbol
_atom_site_fract_x
_atom_site_fract_y
_atom_site_fract_z
V1	V	-4.114273	-0.175806	-0.402551
O2	O	-4.073263	0.008482	-0.394888
O3	O	-4.091022	-0.348626	-0.399798
O4	O	-4.092254	-0.173086	-0.578118
O5	O	-4.072022	-0.168272	-0.215334
V6	V	-4.591224	-0.153764	-0.380159
O7	O	-4.389948	-0.224155	-0.451671
O8	O	-4.765746	-0.105415	-0.331038
O9	O	-4.391268	0.019056	-0.382912
O10	O	-4.749630	-0.338052	-0.387822
O11	O	-4.750872	-0.161298	-0.567376
O12	O	-4.390036	-0.156484	-0.204592
C13	C	-3.941287	-0.390756	-0.393448
C14	C	-4.003739	-0.532039	-0.392367
C15	C	-3.972102	-0.580274	-0.273626
C16	C	-4.030807	-0.713026	-0.272616
C17	C	-4.152777	-0.749296	-0.509098
C18	C	-4.094087	-0.616547	-0.510107
C19	C	-4.156049	-0.876815	-0.133325
C20	C	-4.124376	-0.925052	-0.014577
C21	C	-3.933169	-0.861800	0.093629
C22	C	-3.773584	-0.750309	0.083094
C23	C	-3.805243	-0.702078	-0.035656
C24	C	-3.996494	-0.765329	-0.143859
C25	C	-3.968823	-0.452754	-0.649389
C26	C	-4.000467	-0.404520	-0.768140
C27	C	-4.191666	-0.467771	-0.876357
C28	C	-4.351229	-0.579267	-0.865833
C29	C	-4.319585	-0.627501	-0.747082
C30	C	-4.128385	-0.564241	-0.638865
C31	C	-3.942858	-0.166836	-0.620910
C32	C	-4.006305	-0.165757	-0.764437
C33	C	-3.851186	-0.158485	-0.841584
C34	C	-4.039794	-0.266416	-0.947575
C35	C	-3.930776	-0.055914	-0.914188
C36	C	-4.194123	-0.273789	-0.868550
C37	C	-4.085026	-0.063191	-0.835140
C38	C	-4.273770	-0.171153	-0.941100
C39	C	-4.204346	0.061180	-0.389258
C40	C	-4.121133	0.202461	-0.390348
C41	C	-4.202774	-0.162738	-0.161793
C42	C	-4.118564	-0.163811	-0.018265
H43	H	-4.506913	-0.630774	-0.953953
H44	H	-4.217406	-0.428494	-0.973052
C45	C	-3.585477	-0.258047	-0.840211
C46	C	-3.609324	-0.151448	-0.782910
H47	H	-3.436170	-0.253709	-0.803980
H48	H	-3.624820	-0.258053	-0.931761
H49	H	-3.679248	-0.334675	-0.823733
H50	H	-3.515565	-0.074821	-0.799397
H51	H	-3.569955	-0.151430	-0.691339
C52	C	-3.905127	0.128595	-0.676722
C53	C	-4.109808	0.052798	-0.768994
H54	H	-3.920413	0.200207	-0.635878
H55	H	-3.800730	0.158151	-0.719018
H56	H	-3.855447	0.078835	-0.612678
H57	H	-4.159480	0.102556	-0.833044
H58	H	-4.214240	0.023243	-0.726697
H59	H	-4.311769	-0.928316	-0.221423
H60	H	-3.617879	-0.698823	0.171206
H61	H	-4.021334	-0.352332	-0.996523
H62	H	-4.226340	-0.818118	-0.604957
C63	C	-4.495552	-0.473764	-0.959099
C64	C	-4.343630	-0.398234	-0.840831
H65	H	-4.587850	-0.550586	-0.941980
H66	H	-4.418204	-0.494637	-1.010048
H67	H	-4.583661	-0.427294	-1.005465
H68	H	-4.255510	-0.444701	-0.794469
H69	H	-4.420985	-0.377363	-0.789861
H70	H	-4.453047	-0.176534	-0.984345
C71	C	-3.627936	0.143533	-0.824030
C72	C	-3.781327	0.068404	-0.942149
H73	H	-3.535676	0.220280	-0.841292
H74	H	-3.539970	0.096717	-0.778314
H75	H	-3.704142	0.164570	-0.772386
H76	H	-3.705121	0.047358	-0.993788
H77	H	-3.869304	0.115228	-0.987885
H78	H	-3.870516	-0.313741	-0.776706
C79	C	-4.023686	-0.514583	-0.078464
C80	C	-3.872831	-0.487377	-0.144214
H81	H	-3.962410	-0.457227	0.001426
H82	H	-4.054089	-0.600535	-0.060869
H83	H	-4.156859	-0.504416	-0.131355
H84	H	-3.739664	-0.497554	-0.091327
H85	H	-3.842400	-0.401404	-0.161805
H86	H	-3.675307	-0.611308	-0.044236
H87	H	-3.907386	-0.901084	0.190317
H88	H	-4.254328	-1.015831	-0.006008
H89	H	-4.449519	-0.718291	-0.738520
H90	H	-3.813124	-0.401241	-0.561273
