data_functionalizedCrystal
_audit_creation_method	'MofGen! by Chris Wilmer'
_symmetry_space_group_name_H-M	'P1'
_symmetry_Int_Tables_number	1
_symmetry_cell_setting	triclinic
loop_
_symmetry_equiv_pos_as_xyz
  x,y,z
_cell_length_a	9.065218
_cell_length_b	22.010155
_cell_length_c	9.065218
_cell_angle_alpha	89.997512
_cell_angle_beta	94.984115
_cell_angle_gamma	90.015792
loop_
_atom_site_label
_atom_site_type_symbol
_atom_site_fract_x
_atom_site_fract_y
_atom_site_fract_z
O1	O	1.960426	0.050524	-0.216354
O2	O	1.531141	0.050525	-0.234100
O3	O	1.754657	0.050523	-0.010585
O4	O	1.736910	0.050526	-0.439870
O5	O	1.754588	-0.050527	-0.010583
O6	O	1.531073	-0.050526	-0.234099
O7	O	1.960358	-0.050526	-0.216353
Cu8	Cu	1.745709	-0.059753	-0.225226
Cu9	Cu	1.745790	0.059751	-0.225227
O10	O	1.736842	-0.050525	-0.439868
C11	C	1.476120	-0.000000	-0.232394
C12	C	1.312277	-0.000000	-0.227294
N13	N	1.745663	-0.143805	-0.225224
C14	C	1.836477	-0.563584	-0.315953
C15	C	1.836495	-0.627192	-0.315950
O16	O	1.913656	-0.660083	-0.393080
N17	N	1.745818	-0.659012	-0.225211
C18	C	1.655130	-0.627222	-0.134458
O19	O	1.578005	-0.660128	-0.057276
C20	C	1.655121	-0.563615	-0.134455
C21	C	1.745793	-0.531798	-0.225211
C22	C	1.927143	-0.531767	-0.406700
C23	C	1.927123	-0.468164	-0.406705
C24	C	1.836438	-0.436378	-0.315963
C25	C	1.745773	-0.468195	-0.225216
C26	C	1.564441	-0.531826	-0.043696
C27	C	1.564441	-0.468215	-0.043699
C28	C	1.655113	-0.436398	-0.134455
C29	C	1.655068	-0.372806	-0.134479
N30	N	1.745745	-0.340985	-0.225218
C31	C	1.836430	-0.372771	-0.315960
C32	C	1.655156	-0.760800	-0.134470
C33	C	1.655156	-0.824405	-0.134480
C34	C	1.836523	-0.824371	-0.315970
C35	C	1.836515	-0.760764	-0.315967
C36	C	1.745833	-0.728979	-0.225209
C37	C	1.836380	-0.239200	-0.315964
C38	C	1.836348	-0.175591	-0.315966
C39	C	1.654987	-0.175631	-0.134471
C40	C	1.655013	-0.239234	-0.134475
C41	C	1.745721	-0.271017	-0.225226
O42	O	1.577951	-0.339874	-0.057383
O43	O	1.913556	-0.339857	-0.393114
C44	C	2.015378	0.000000	-0.218059
C45	C	2.179221	0.000004	-0.223158
C46	C	1.752917	-0.000001	0.044403
C47	C	1.747817	0.000002	0.208245
N48	N	1.745847	0.143803	-0.225218
C49	C	1.738582	0.000001	-0.494855
C50	C	1.743681	0.000002	-0.658698
H51	H	1.910245	-0.265070	-0.389862
N52	N	2.024937	-0.433851	-0.504574
H53	H	2.082387	-0.463647	-0.562043
H54	H	2.096207	-0.407456	-0.441233
H55	H	1.910183	-0.149689	-0.389877
N56	N	1.934391	-0.858650	-0.413811
H57	H	1.906744	-0.847589	-0.520775
H58	H	1.920621	-0.903763	-0.399913
N59	N	1.557197	-0.141341	-0.036587
H60	H	1.485827	-0.114955	-0.099810
H61	H	1.620605	-0.114982	0.034708
H62	H	1.910347	-0.734863	-0.389869
N63	N	1.557360	-0.858718	-0.036596
H64	H	1.450390	-0.847664	-0.064196
H65	H	1.585174	-0.847625	0.070316
N66	N	2.024997	-0.566044	-0.504544
H67	H	2.082434	-0.536228	-0.562010
H68	H	1.961663	-0.592447	-0.575800
N69	N	1.557322	-0.726524	-0.036588
H70	H	1.485949	-0.700142	-0.099819
H71	H	1.620691	-0.700162	0.034736
N72	N	1.557207	-0.273562	-0.036618
H73	H	1.450237	-0.262512	-0.064235
H74	H	1.584996	-0.262477	0.070303
H75	H	1.490609	-0.557721	0.030209
H76	H	1.490596	-0.442339	0.030209
