data_functionalizedCrystal
_audit_creation_method	'MofGen! by Chris Wilmer'
_symmetry_space_group_name_H-M	'P1'
_symmetry_Int_Tables_number	1
_symmetry_cell_setting	triclinic
loop_
_symmetry_equiv_pos_as_xyz
  x,y,z
_cell_length_a	19.121112
_cell_length_b	19.121063
_cell_length_c	13.897441
_cell_angle_alpha	87.594330
_cell_angle_beta	92.460105
_cell_angle_gamma	90.126867
loop_
_atom_site_label
_atom_site_type_symbol
_atom_site_fract_x
_atom_site_fract_y
_atom_site_fract_z
Zn1	Zn	1.059869	-0.324875	0.626408
Zn2	Zn	1.054770	-0.442120	0.471665
Zn3	Zn	0.942626	-0.319896	0.457973
Zn4	Zn	0.937595	-0.437065	0.625764
O5	O	0.998715	-0.380989	0.545453
O6	O	1.157298	-0.344627	0.611881
O7	O	1.039866	-0.425939	0.334868
O8	O	0.962419	-0.222453	0.474855
O9	O	1.153552	-0.430766	0.498192
O10	O	1.048557	-0.226111	0.598604
O11	O	0.957474	-0.336142	0.324808
O12	O	0.843854	-0.331240	0.474231
O13	O	0.953843	-0.422151	0.760831
O14	O	0.840157	-0.417323	0.597507
O15	O	1.043678	-0.339725	0.761304
O16	O	1.034987	-0.539553	0.497568
O17	O	0.948898	-0.535839	0.610784
C18	C	0.816568	-0.373193	0.534314
C19	C	0.738644	-0.369875	0.529573
C20	C	0.298017	-0.348823	0.499540
C21	C	0.371235	-0.351945	0.504001
C22	C	0.405932	-0.398399	0.570318
C23	C	0.367407	-0.441728	0.632185
C24	C	0.294191	-0.438602	0.627729
C25	C	0.626903	-0.410079	0.586984
C26	C	0.700124	-0.413203	0.591433
C27	C	0.703947	-0.323418	0.463249
C28	C	0.630729	-0.320300	0.458795
C29	C	0.592210	-0.363627	0.520666
C30	C	0.480772	-0.401592	0.574876
C31	C	0.517372	-0.360429	0.516111
C32	C	0.990862	-0.563134	0.555614
C33	C	0.987567	-0.641059	0.559997
C34	C	1.030875	-0.679580	0.503164
C35	C	1.027780	-0.752799	0.507293
C36	C	0.981373	-0.787495	0.568249
C37	C	0.938063	-0.748968	0.625089
C38	C	0.941162	-0.675751	0.620965
C39	C	0.969774	-1.008468	0.583652
C40	C	0.966677	-1.081691	0.587769
C41	C	1.056396	-1.085516	0.469974
C42	C	1.059488	-1.012297	0.465851
C43	C	1.016181	-0.973777	0.522694
C44	C	0.978206	-0.862336	0.572468
C45	C	1.019351	-0.898937	0.518480
C46	C	1.181574	-0.388816	0.556636
C47	C	1.259497	-0.392151	0.561401
C48	C	0.998768	-0.380929	0.797045
C49	C	0.998790	-0.380904	0.904259
C50	C	1.006618	-0.198134	0.535274
C51	C	1.009986	-0.120212	0.530936
C52	C	0.998706	-0.381000	0.294838
C53	C	0.998827	-0.380833	0.187622
C54	C	0.998811	-0.380857	1.100553
C55	C	0.998797	-0.380885	0.991321
H56	H	0.602483	-0.282477	0.404786
C57	C	0.412931	-0.304868	0.436725
C58	C	0.366873	-0.263531	0.377675
C59	C	0.405257	-0.220157	0.315682
H60	H	0.442822	-0.275512	0.473625
H61	H	0.440313	-0.332845	0.397813
H62	H	0.339503	-0.235556	0.416583
H63	H	0.336981	-0.292868	0.340756
H64	H	0.432640	-0.248135	0.276770
H65	H	0.435147	-0.190806	0.352589
H66	H	0.374013	-0.192110	0.275604
H67	H	0.905896	-0.644387	0.667245
H68	H	1.068662	-0.651335	0.453522
H69	H	0.735316	-0.288143	0.412879
H70	H	0.728372	-0.451031	0.645442
H71	H	0.262829	-0.473883	0.678105
C72	C	0.585212	-0.457214	0.654187
C73	C	0.631271	-0.498582	0.713189
C74	C	0.592887	-0.542025	0.775097
H75	H	0.557809	-0.429305	0.693144
H76	H	0.555339	-0.486542	0.617194
H77	H	0.661131	-0.469258	0.750179
H78	H	0.658674	-0.526506	0.674259
H79	H	0.563015	-0.571352	0.738104
H80	H	0.565486	-0.514110	0.814047
H81	H	0.624132	-0.570103	0.815131
H82	H	0.395663	-0.479549	0.686186
H83	H	0.940420	-0.890594	0.622098
H84	H	1.097277	-0.984049	0.416216
C85	C	1.074831	-0.794496	0.445473
C86	C	1.116119	-0.748439	0.391183
C87	C	1.159466	-0.786825	0.334212
H88	H	1.104221	-0.824321	0.485771
H89	H	1.046833	-0.821945	0.403338
H90	H	1.144115	-0.721002	0.433313
H91	H	1.086747	-0.718613	0.350866
H92	H	1.131468	-0.814274	0.292078
H93	H	1.188852	-0.816649	0.374519
H94	H	1.187480	-0.755581	0.297364
C95	C	1.103392	-1.127464	0.408388
C96	C	1.090764	-1.199012	0.425065
C97	C	1.134057	-1.237675	0.368362
H98	H	1.093711	-1.115162	0.342233
H99	H	1.151012	-1.117467	0.424783
H100	H	1.043155	-1.209004	0.408664
H101	H	1.100449	-1.211335	0.491208
H102	H	1.181676	-1.227678	0.384757
H103	H	1.124372	-1.225367	0.302211
H104	H	1.125499	-1.286224	0.379676
C105	C	0.916273	-1.119235	0.654060
C106	C	0.879023	-1.069832	0.702980
C107	C	0.832595	-1.104392	0.764061
H108	H	0.884465	-1.146538	0.616979
H109	H	0.941859	-1.148882	0.699406
H110	H	0.853439	-1.040197	0.657641
H111	H	0.910812	-1.042526	0.740080
H112	H	0.858181	-1.134039	0.809406
H113	H	0.800792	-1.131694	0.726972
H114	H	0.807320	-1.070878	0.797267
H115	H	0.934510	-0.977111	0.629934
C116	C	0.887697	-0.786764	0.691175
C117	C	0.894236	-0.859129	0.682603
C118	C	0.847841	-0.893966	0.743455
H119	H	0.898393	-0.775241	0.755986
H120	H	0.841088	-0.772836	0.673443
H121	H	0.940835	-0.873051	0.700341
H122	H	0.883535	-0.870672	0.617805
H123	H	0.801232	-0.880038	0.725723
H124	H	0.858541	-0.882438	0.808262
H125	H	0.852267	-0.943069	0.737641
H126	H	0.269772	-0.310996	0.445537
H127	H	0.489118	-0.322604	0.462120
H128	H	0.509031	-0.439417	0.628870
H129	H	1.057139	-0.870686	0.468852
