data_functionalizedCrystal
_audit_creation_method	'MofGen! by Chris Wilmer'
_symmetry_space_group_name_H-M	'P1'
_symmetry_Int_Tables_number	1
_symmetry_cell_setting	triclinic
loop_
_symmetry_equiv_pos_as_xyz
  x,y,z
_cell_length_a	19.288864
_cell_length_b	19.288865
_cell_length_c	18.366186
_cell_angle_alpha	89.988521
_cell_angle_beta	89.977106
_cell_angle_gamma	83.136245
loop_
_atom_site_label
_atom_site_type_symbol
_atom_site_fract_x
_atom_site_fract_y
_atom_site_fract_z
O1	O	0.921353	0.086649	-0.060791
O2	O	1.254686	0.419982	0.272542
O3	O	1.588019	0.753315	0.605875
O4	O	0.719092	0.098337	-0.060743
O5	O	1.052425	0.431671	0.272591
O6	O	1.385759	0.765004	0.605924
O7	O	0.826067	-0.008637	-0.060754
O8	O	1.159400	0.324696	0.272579
O9	O	1.492733	0.658029	0.605913
O10	O	0.814378	0.193623	-0.060780
O11	O	1.147711	0.526957	0.272553
O12	O	1.481045	0.860290	0.605887
O13	O	0.826049	-0.008643	0.060345
O14	O	1.159382	0.324691	0.393679
O15	O	1.492715	0.658024	0.727012
O16	O	0.719074	0.098332	0.060357
O17	O	1.052407	0.431665	0.393690
O18	O	1.385741	0.764999	0.727023
O19	O	0.921335	0.086643	0.060308
O20	O	1.254668	0.419977	0.393641
O21	O	1.588001	0.753310	0.726975
Zn22	Zn	0.820201	0.092487	0.079559
Zn23	Zn	1.153535	0.425820	0.412893
Zn24	Zn	1.486868	0.759154	0.746226
Zn25	Zn	0.820225	0.092494	-0.079994
Zn26	Zn	1.153559	0.425827	0.253339
Zn27	Zn	1.486892	0.759161	0.586672
O28	O	0.814360	0.193618	0.060319
O29	O	1.147693	0.526951	0.393653
O30	O	1.481027	0.860285	0.726986
C31	C	0.693207	0.097959	-0.000187
C32	C	1.026540	0.431292	0.333147
C33	C	1.359873	0.764625	0.666480
C34	C	0.616103	0.096830	-0.000167
C35	C	0.949436	0.430163	0.333166
C36	C	1.282770	0.763496	0.666499
C37	C	0.571407	0.159598	-0.000187
C38	C	0.904740	0.492931	0.333146
C39	C	1.238073	0.826264	0.666480
C40	C	0.498960	0.158537	-0.000195
C41	C	0.832293	0.491870	0.333138
C42	C	1.165626	0.825204	0.666472
C43	C	0.471212	0.094705	-0.000198
C44	C	0.804545	0.428038	0.333135
C45	C	1.137879	0.761371	0.666469
C46	C	0.515918	0.031929	-0.000174
C47	C	0.849252	0.365262	0.333159
C48	C	1.182585	0.698595	0.666492
C49	C	0.588364	0.032991	-0.000159
C50	C	0.921697	0.366324	0.333174
C51	C	1.255030	0.699658	0.666508
C52	C	0.362956	0.044527	-0.042642
C53	C	0.696290	0.377861	0.290691
C54	C	1.029623	0.711194	0.624024
C55	C	0.290512	0.043468	-0.042662
C56	C	0.623845	0.376801	0.290671
C57	C	0.957179	0.710134	0.624005
C58	C	0.247767	0.091425	-0.000241
C59	C	0.581100	0.424758	0.333092
C60	C	0.914433	0.758092	0.666425
C61	C	0.277473	0.140454	0.042189
C62	C	0.610806	0.473788	0.375523
C63	C	0.944140	0.807121	0.708856
C64	C	0.349918	0.141517	0.042205
C65	C	0.683252	0.474850	0.375538
C66	C	1.016585	0.808183	0.708871
C67	C	0.392658	0.093546	-0.000214
C68	C	0.725991	0.426879	0.333119
C69	C	1.059325	0.760212	0.666453
C70	C	0.124514	0.153047	-0.000269
C71	C	0.457848	0.486381	0.333065
C72	C	0.791181	0.819714	0.666398
C73	C	0.052066	0.151984	-0.000272
C74	C	0.385400	0.485317	0.333061
C75	C	0.718733	0.818651	0.666395
C76	C	0.069026	0.025374	-0.000259
C77	C	0.402360	0.358707	0.333075
C78	C	0.735693	0.692040	0.666408
C79	C	0.141473	0.026439	-0.000248
C80	C	0.474806	0.359772	0.333085
C81	C	0.808140	0.693106	0.666419
C82	C	0.169212	0.090278	-0.000256
C83	C	0.502546	0.423611	0.333077
C84	C	0.835879	0.756944	0.666410
C85	C	0.825682	-0.034516	-0.000202
C86	C	1.159015	0.298817	0.333131
C87	C	1.492348	0.632150	0.666465
C88	C	0.824553	-0.111620	-0.000195
C89	C	1.157886	0.221713	0.333138
C90	C	1.491219	0.555047	0.666471
C91	C	0.887321	-0.156316	-0.000207
C92	C	1.220654	0.177017	0.333126
C93	C	1.553987	0.510350	0.666460
C94	C	0.886260	-0.228763	-0.000218
C95	C	1.219593	0.104570	0.333115
C96	C	1.552927	0.437903	0.666448
C97	C	0.822428	-0.256511	-0.000203
C98	C	1.155761	0.076822	0.333130
C99	C	1.489094	0.410156	0.666463
C100	C	0.759652	-0.211805	-0.000196
C101	C	1.092985	0.121529	0.333137
C102	C	1.426318	0.454862	0.666471
C103	C	0.760714	-0.139359	-0.000192
C104	C	1.094047	0.193974	0.333141
C105	C	1.427381	0.527307	0.666475
C106	C	0.772242	-0.364800	0.042227
C107	C	1.105575	-0.031467	0.375561
C108	C	1.438908	0.301867	0.708894
C109	C	0.771182	-0.437245	0.042228
C110	C	1.104515	-0.103911	0.375561
C111	C	1.437849	0.229422	0.708894
C112	C	0.819148	-0.479956	-0.000219
C113	C	1.152481	-0.146623	0.333114
C114	C	1.485815	0.186710	0.666448
C115	C	0.868186	-0.450216	-0.042657
C116	C	1.201519	-0.116883	0.290677
C117	C	1.534852	0.216450	0.624010
C118	C	0.869248	-0.377771	-0.042653
C119	C	1.202582	-0.044438	0.290681
C120	C	1.535915	0.288896	0.624014
C121	C	0.821269	-0.335065	-0.000208
C122	C	1.154602	-0.001732	0.333125
C123	C	1.487935	0.331602	0.666459
C124	C	0.880770	-0.603209	-0.000244
C125	C	1.214104	-0.269875	0.333090
C126	C	1.547437	0.063458	0.666423
C127	C	0.879707	-0.675657	-0.000259
C128	C	1.213040	-0.342323	0.333074
C129	C	1.546374	-0.008990	0.666407
C130	C	0.753097	-0.658697	-0.000230
C131	C	1.086430	-0.325363	0.333104
C132	C	1.419763	0.007970	0.666437
C133	C	0.754162	-0.586250	-0.000221
C134	C	1.087495	-0.252917	0.333112
C135	C	1.420829	0.080417	0.666445
C136	C	0.818001	-0.558511	-0.000225
C137	C	1.151334	-0.225177	0.333109
C138	C	1.484667	0.108156	0.666442
C139	C	0.947220	0.087022	-0.000250
C140	C	1.280553	0.420355	0.333084
C141	C	1.613887	0.753689	0.666417
C142	C	1.024324	0.088151	-0.000274
C143	C	1.357657	0.421484	0.333060
C144	C	1.690990	0.754818	0.666393
C145	C	0.814745	0.219497	-0.000234
C146	C	1.148078	0.552831	0.333099
C147	C	1.481412	0.886164	0.666432
C148	C	0.815874	0.296601	-0.000246
C149	C	1.149207	0.629934	0.333088
C150	C	1.482541	0.963267	0.666421
N151	N	0.820190	0.092482	0.188451
N152	N	1.153524	0.425815	0.521784
N153	N	1.486857	0.759148	0.855117
N154	N	0.820242	0.092493	-0.188885
N155	N	1.153575	0.425827	0.144448
N156	N	1.486909	0.759160	0.477781
C157	C	0.867574	0.045137	0.226546
C158	C	1.200907	0.378470	0.559879
C159	C	1.534241	0.711803	0.893213
C160	C	0.867578	0.045134	0.302774
C161	C	1.200912	0.378467	0.636107
C162	C	1.534245	0.711800	0.969440
C163	C	0.820206	0.092488	0.340903
C164	C	1.153539	0.425821	0.674237
C165	C	1.486872	0.759154	1.007570
C166	C	0.772813	0.139836	0.302799
C167	C	1.106146	0.473170	0.636132
C168	C	1.439480	0.806503	0.969465
C169	C	0.772805	0.139834	0.226572
C170	C	1.106139	0.473167	0.559906
C171	C	1.439472	0.806500	0.893239
C172	C	0.810907	0.155775	0.461657
C173	C	1.144241	0.489109	0.794990
C174	C	1.477574	0.822442	1.128324
C175	C	0.810920	0.155779	0.537882
C176	C	1.144253	0.489112	0.871215
C177	C	1.477587	0.822446	1.204548
C178	C	0.820225	0.092496	0.576011
C179	C	1.153559	0.425830	0.909344
C180	C	1.486892	0.759163	1.242677
C181	C	0.829533	0.029207	0.537905
C182	C	1.162866	0.362540	0.871239
C183	C	1.496200	0.695873	1.204572
C184	C	0.829525	0.029204	0.461679
C185	C	1.162859	0.362537	0.795012
C186	C	1.496192	0.695871	1.128346
C187	C	0.820208	0.092496	0.423558
C188	C	1.153542	0.425829	0.756891
C189	C	1.486875	0.759162	1.090225
C190	C	0.867617	0.045144	0.696761
C191	C	1.200950	0.378477	1.030094
C192	C	1.534283	0.711810	1.363428
C193	C	0.867616	0.045140	0.772990
C194	C	1.200949	0.378473	1.106324
C195	C	1.534283	0.711806	1.439657
C196	C	0.772854	0.139849	0.773014
C197	C	1.106187	0.473182	1.106347
C198	C	1.439521	0.806515	1.439681
C199	C	0.772851	0.139847	0.696786
C200	C	1.106184	0.473180	1.030119
C201	C	1.439518	0.806513	1.363453
C202	C	0.820236	0.092495	0.658664
C203	C	1.153569	0.425828	0.991998
C204	C	1.486903	0.759162	1.325331
H205	H	0.462561	0.209652	-0.000209
H206	H	0.795894	0.542985	0.333125
H207	H	1.129228	0.876318	0.666458
H208	H	0.909175	-0.353560	-0.077208
H209	H	1.242508	-0.020226	0.256125
H210	H	1.575842	0.313107	0.589458
O211	O	0.690805	-0.241732	-0.000179
O212	O	1.024138	0.091601	0.333155
O213	O	1.357471	0.424935	0.666488
H214	H	0.647335	-0.198477	-0.000175
H215	H	0.980668	0.134857	0.333158
H216	H	1.314001	0.468190	0.666491
H217	H	0.397755	0.005473	-0.077191
H218	H	0.731088	0.338806	0.256143
H219	H	1.064421	0.672140	0.589476
H220	H	0.709599	-0.102967	-0.000182
H221	H	1.042933	0.230367	0.333151
H222	H	1.376266	0.563700	0.666484
H223	H	0.907244	-0.484991	-0.077221
H224	H	1.240578	-0.151658	0.256112
H225	H	1.573911	0.181675	0.589446
O226	O	0.839586	-0.039059	0.579011
O227	O	1.172920	0.294274	0.912345
O228	O	1.506253	0.627608	1.245678
H229	H	0.797235	-0.070728	0.564404
H230	H	1.130569	0.262605	0.897737
H231	H	1.463902	0.595938	1.231070
O232	O	0.918732	-0.005920	0.814085
O233	O	1.252066	0.327413	1.147418
O234	O	1.585399	0.660746	1.480752
H235	H	0.951685	-0.038838	0.774767
H236	H	1.285019	0.294496	1.108100
H237	H	1.618352	0.627829	1.441434
H238	H	0.837102	-0.022328	0.430657
H239	H	1.170435	0.311005	0.763990
H240	H	1.503769	0.644338	1.097324
H241	H	0.374102	0.181436	0.076756
H242	H	0.707436	0.514769	0.410089
H243	H	1.040769	0.848103	0.743422
O244	O	0.686462	-0.538034	-0.000191
O245	O	1.019796	-0.204701	0.333143
O246	O	1.353129	0.128632	0.666476
H247	H	0.641896	-0.569498	-0.000174
H248	H	0.975229	-0.236164	0.333160
H249	H	1.308563	0.097169	0.666493
H250	H	0.906198	0.006585	0.665721
H251	H	1.239532	0.339918	0.999054
H252	H	1.572865	0.673252	1.332388
H253	H	0.242671	0.179506	0.076733
H254	H	0.576004	0.512839	0.410066
H255	H	0.909337	0.846172	0.743399
O256	O	0.800885	0.224040	0.578974
O257	O	1.134219	0.557373	0.912308
O258	O	1.467552	0.890707	1.245641
H259	H	0.802464	0.213412	0.638384
H260	H	1.135798	0.546745	0.971718
H261	H	1.469131	0.880079	1.305051
O262	O	0.718295	-0.469315	0.088002
O263	O	1.051628	-0.135982	0.421335
O264	O	1.384962	0.197352	0.754669
H265	H	0.725620	-0.526867	0.080878
H266	H	1.058954	-0.193533	0.414211
H267	H	1.392287	0.139800	0.747544
H268	H	0.734269	0.178402	0.665767
H269	H	1.067603	0.511736	0.999100
H270	H	1.400936	0.845069	1.332433
H271	H	0.803318	0.207311	0.430619
H272	H	1.136651	0.540645	0.763952
H273	H	1.469984	0.873978	1.097285
O274	O	0.721758	0.190928	0.814127
O275	O	1.055091	0.524261	1.147460
O276	O	1.388424	0.857594	1.480793
H277	H	0.729725	0.182979	0.873533
H278	H	1.063059	0.516313	1.206866
H279	H	1.396392	0.849646	1.540199
O280	O	0.189685	-0.041263	-0.000230
O281	O	0.523018	0.292070	0.333104
O282	O	0.856351	0.625403	0.666437
H283	H	0.223130	-0.043805	-0.049576
H284	H	0.556463	0.289528	0.283757
H285	H	0.889797	0.622861	0.617090
H286	H	0.734219	0.178388	0.195554
H287	H	1.067552	0.511722	0.528888
H288	H	1.400885	0.845055	0.862221
H289	H	0.932751	-0.580622	-0.000250
H290	H	1.266085	-0.247289	0.333083
H291	H	1.599418	0.086044	0.666417
H292	H	0.930822	-0.712049	-0.000273
H293	H	1.264156	-0.378715	0.333060
H294	H	1.597489	-0.045382	0.666394
H295	H	0.701123	-0.681288	-0.000221
H296	H	1.034457	-0.347954	0.333112
H297	H	1.367790	-0.014621	0.666445
O298	O	0.720507	-0.318733	0.088015
O299	O	1.053840	0.014600	0.421349
O300	O	1.387174	0.347933	0.754682
H301	H	0.686240	-0.351583	0.117533
H302	H	1.019573	-0.018250	0.450866
H303	H	1.352906	0.315083	0.784200
O304	O	0.721720	0.190917	0.343917
O305	O	1.055053	0.524250	0.677251
O306	O	1.388386	0.857583	1.010584
H307	H	0.729691	0.182971	0.403323
H308	H	1.063024	0.516304	0.736657
H309	H	1.396358	0.849638	1.069990
H310	H	0.266331	0.003548	-0.077215
H311	H	0.599664	0.336881	0.256119
H312	H	0.932997	0.670215	0.589452
O313	O	0.636579	-0.034711	-0.000138
O314	O	0.969912	0.298622	0.333196
O315	O	1.303246	0.631956	0.666529
H316	H	0.626773	-0.065268	-0.049496
H317	H	0.960106	0.268065	0.283837
H318	H	1.293439	0.601398	0.617171
O319	O	0.601328	0.228449	-0.000175
O320	O	0.934661	0.561782	0.333158
O321	O	1.267995	0.895115	0.666492
H322	H	0.558071	0.271917	-0.000179
H323	H	0.891405	0.605251	0.333154
H324	H	1.224738	0.938584	0.666488
H325	H	0.147101	0.205028	-0.000265
H326	H	0.480434	0.538362	0.333069
H327	H	0.813767	0.871695	0.666402
H328	H	0.939303	-0.133736	-0.000212
H329	H	1.272636	0.199597	0.333121
H330	H	1.605970	0.532931	0.666454
O331	O	0.003852	0.219686	-0.000290
O332	O	0.337185	0.553020	0.333043
O333	O	0.670518	0.886353	0.666376
H334	H	0.035315	0.264252	-0.000300
H335	H	0.368649	0.597586	0.333034
H336	H	0.701982	0.930919	0.666367
H337	H	0.906156	0.006579	0.195509
H338	H	1.239489	0.339912	0.528843
H339	H	1.572823	0.673245	0.862176
H340	H	0.906165	0.006578	0.333797
H341	H	1.239499	0.339911	0.667130
H342	H	1.572832	0.673245	1.000463
O343	O	0.039111	-0.043477	-0.000262
O344	O	0.372445	0.289856	0.333071
O345	O	0.705778	0.623190	0.666405
H346	H	-0.018774	-0.033672	-0.000280
H347	H	0.314559	0.299661	0.333054
H348	H	0.647892	0.632994	0.666387
H349	H	0.493322	-0.020044	-0.000187
H350	H	0.826655	0.313289	0.333147
H351	H	1.159988	0.646623	0.666480
H352	H	0.937375	-0.265162	-0.000231
H353	H	1.270708	0.068171	0.333103
H354	H	1.604041	0.401505	0.666436
