data_functionalizedCrystal
_audit_creation_method	'MofGen! by Chris Wilmer'
_symmetry_space_group_name_H-M	'P1'
_symmetry_Int_Tables_number	1
_symmetry_cell_setting	triclinic
loop_
_symmetry_equiv_pos_as_xyz
  x,y,z
_cell_length_a	12.594517
_cell_length_b	25.639240
_cell_length_c	12.594509
_cell_angle_alpha	90.029797
_cell_angle_beta	89.988522
_cell_angle_gamma	89.966691
loop_
_atom_site_label
_atom_site_type_symbol
_atom_site_fract_x
_atom_site_fract_y
_atom_site_fract_z
Zn1	Zn	1.627109	0.208192	-0.601569
Zn2	Zn	1.626933	0.295635	-0.423585
Zn3	Zn	1.449113	0.208209	-0.423628
Zn4	Zn	1.449029	0.295592	-0.601546
O5	O	1.538046	0.251907	-0.512582
O6	O	1.776031	0.219803	-0.577950
O7	O	1.603307	0.284062	-0.274645
O8	O	1.472833	0.135041	-0.447260
O9	O	1.775902	0.284046	-0.447187
O10	O	1.603606	0.135029	-0.577992
O11	O	1.472663	0.219831	-0.274677
O12	O	1.300156	0.219790	-0.447238
O13	O	1.472690	0.283974	-0.750495
O14	O	1.300094	0.283990	-0.577953
O15	O	1.603524	0.219762	-0.750512
O16	O	1.603225	0.368794	-0.447165
O17	O	1.472519	0.368763	-0.577912
C18	C	1.261505	0.251887	-0.512598
C19	C	1.143199	0.251891	-0.512630
C20	C	1.073943	0.286878	-0.583589
C21	C	1.003171	0.239208	-0.609770
C22	C	1.003173	0.299602	-0.486426
C23	C	1.073985	0.204195	-0.538862
C24	C	1.073993	0.264622	-0.415473
C25	C	1.003253	0.216918	-0.441617
C26	C	1.537873	0.387750	-0.512554
C27	C	1.537896	0.445864	-0.512578
C28	C	1.606048	0.697000	-0.580713
C29	C	1.606027	0.642395	-0.580706
O30	O	1.663896	0.614110	-0.638607
N31	N	1.537981	0.615138	-0.512587
C32	C	1.469959	0.642487	-0.444462
O33	O	1.412079	0.614288	-0.386520
C34	C	1.469987	0.697090	-0.444465
C35	C	1.538030	0.724345	-0.512596
C36	C	1.674087	0.724255	-0.648838
C37	C	1.674107	0.778855	-0.648846
C38	C	1.606088	0.806201	-0.580729
C39	C	1.538050	0.778946	-0.512604
C40	C	1.401971	0.724439	-0.376335
C41	C	1.402006	0.779046	-0.376343
C42	C	1.470049	0.806301	-0.444474
C43	C	1.470051	0.860892	-0.444494
N44	N	1.538097	0.888150	-0.512614
C45	C	1.606116	0.860804	-0.580731
C46	C	1.469907	0.527816	-0.444462
C47	C	1.469873	0.473214	-0.444464
C48	C	1.605943	0.473126	-0.580707
C49	C	1.605971	0.527729	-0.580709
C50	C	1.537954	0.555074	-0.512581
C51	C	1.606152	0.975469	-0.580743
C52	C	1.606163	1.030074	-0.580748
C53	C	1.470098	1.030158	-0.444502
C54	C	1.470082	0.975557	-0.444500
C55	C	1.538118	0.948214	-0.512624
O56	O	1.412215	0.889212	-0.386620
O57	O	1.663996	0.889009	-0.638653
C58	C	1.815667	0.251927	-0.512566
C59	C	1.933972	0.251936	-0.512560
C60	C	1.538117	0.251861	-0.790203
C61	C	1.538148	0.251842	-0.908509
C62	C	1.538201	1.115534	-0.512627
C63	C	1.538144	1.057420	-0.512631
C64	C	1.467009	0.286747	-0.977753
C65	C	1.564120	0.299525	-1.048526
C66	C	1.441112	0.239032	-1.048535
C67	C	1.635309	0.264645	-0.977723
C68	C	1.512236	0.204130	-0.977726
C69	C	1.609414	0.216890	-1.048467
C70	C	1.538036	0.251915	-0.236041
C71	C	1.538212	0.251787	-0.117736
H72	H	1.661570	1.052263	-0.636235
H73	H	0.972062	0.228456	-0.691904
H74	H	1.490257	0.163816	-0.946604
H75	H	1.406896	0.316311	-0.946704
H76	H	1.414455	0.451027	-0.388997
H77	H	1.661373	0.549917	-0.636192
H78	H	1.586071	0.339851	-1.079625
H79	H	1.717421	0.275503	-0.946750
C80	C	1.395290	1.060245	-0.369572
H81	H	1.405063	1.096667	-0.379330
H82	H	1.323757	1.051324	-0.385079
H83	H	1.410920	1.051311	-0.298066
C84	C	1.680970	0.945399	-0.655696
H85	H	1.721478	0.969458	-0.696275
H86	H	1.727372	0.924088	-0.615037
H87	H	1.640202	0.924107	-0.702042
H88	H	0.972409	0.187315	-0.381579
H89	H	1.104960	0.163854	-0.561089
H90	H	1.104986	0.316409	-0.643673
H91	H	1.669671	0.187348	-1.079321
H92	H	1.729481	0.701995	-0.704307
C93	C	1.116061	0.279165	-0.304553
H94	H	1.091858	0.313076	-0.286063
H95	H	1.090804	0.254674	-0.253941
H96	H	1.191483	0.278730	-0.305234
C97	C	1.330222	0.224423	-1.090552
H98	H	1.279747	0.249277	-1.066326
H99	H	1.331196	0.224195	-1.165968
H100	H	1.311304	0.190786	-1.065259
H101	H	0.972063	0.339931	-0.464295
C102	C	1.748966	0.808829	-0.723779
H103	H	1.789475	0.784716	-0.764333
H104	H	1.708248	0.830135	-0.770134
H105	H	1.795382	0.830119	-0.683092
H106	H	1.661329	0.450851	-0.636170
C107	C	1.395068	0.557891	-0.369532
H108	H	1.354536	0.533833	-0.328974
H109	H	1.435807	0.579190	-0.323180
H110	H	1.348674	0.579197	-0.410222
H111	H	1.346565	0.702255	-0.320856
C112	C	1.327179	0.809122	-0.301406
H113	H	1.286650	0.785066	-0.260841
H114	H	1.367924	0.830422	-0.255063
H115	H	1.280781	0.830426	-0.342095
C116	C	1.395228	0.945575	-0.369568
H117	H	1.354723	0.969684	-0.329001
H118	H	1.348824	0.924278	-0.410243
H119	H	1.435967	0.924276	-0.323211
