data_functionalizedCrystal
_audit_creation_method	'MofGen! by Chris Wilmer'
_symmetry_space_group_name_H-M	'P1'
_symmetry_Int_Tables_number	1
_symmetry_cell_setting	triclinic
loop_
_symmetry_equiv_pos_as_xyz
  x,y,z
_cell_length_a	18.215405
_cell_length_b	21.395364
_cell_length_c	21.395355
_cell_angle_alpha	90.025298
_cell_angle_beta	89.980149
_cell_angle_gamma	89.958414
loop_
_atom_site_label
_atom_site_type_symbol
_atom_site_fract_x
_atom_site_fract_y
_atom_site_fract_z
Zn1	Zn	-0.292742	-0.957885	-0.354268
Zn2	Zn	0.207258	-0.457885	0.145732
Zn3	Zn	-0.415790	-0.957798	-0.249488
Zn4	Zn	0.084210	-0.457798	0.250512
Zn5	Zn	-0.292778	-0.853100	-0.249504
Zn6	Zn	0.207222	-0.353100	0.250496
Zn7	Zn	-0.415807	-0.853079	-0.354227
Zn8	Zn	0.084193	-0.353079	0.145773
O9	O	-0.354279	-0.905465	-0.301872
O10	O	0.145721	-0.405465	0.198128
O11	O	-0.309042	-1.045551	-0.340380
O12	O	0.190958	-0.545551	0.159620
O13	O	-0.399480	-0.943881	-0.161812
O14	O	0.100520	-0.443881	0.338188
O15	O	-0.189789	-0.867044	-0.263424
O16	O	0.310211	-0.367044	0.236576
O17	O	-0.399445	-1.045487	-0.263398
O18	O	0.100555	-0.545487	0.236602
O19	O	-0.189762	-0.944029	-0.340394
O20	O	0.310238	-0.444029	0.159606
O21	O	-0.309103	-0.866960	-0.161824
O22	O	0.190897	-0.366960	0.338176
O23	O	-0.309120	-0.765419	-0.263384
O24	O	0.190880	-0.265419	0.236616
O25	O	-0.399474	-0.867010	-0.441910
O26	O	0.100526	-0.367010	0.058090
O27	O	-0.399509	-0.765404	-0.340324
O28	O	0.100491	-0.265404	0.159676
O29	O	-0.309058	-0.944010	-0.441941
O30	O	0.190942	-0.444010	0.058059
O31	O	-0.518776	-0.943862	-0.263358
O32	O	-0.018776	-0.443862	0.236642
O33	O	-0.518789	-0.866926	-0.340310
O34	O	-0.018789	-0.366926	0.159690
C35	C	-0.354321	-0.742678	-0.301852
C36	C	0.145679	-0.242678	0.198148
C37	C	-0.354356	-0.673036	-0.301858
C38	C	0.145644	-0.173036	0.198142
C39	C	-0.307361	-0.640379	-0.342004
C40	C	0.192639	-0.140379	0.157996
C41	C	-0.307344	-0.574943	-0.342006
C42	C	0.192656	-0.074943	0.157994
C43	C	-0.354335	-0.542168	-0.301868
C44	C	0.145665	-0.042168	0.198132
C45	C	-0.401333	-0.574834	-0.261715
C46	C	0.098667	-0.074834	0.238285
C47	C	-0.401343	-0.640268	-0.261710
C48	C	0.098657	-0.140268	0.238290
C49	C	-0.420614	-0.438449	-0.296828
C50	C	0.079386	0.061551	0.203172
C51	C	-0.420604	-0.373017	-0.296837
C52	C	0.079396	0.126983	0.203163
C53	C	-0.354302	-0.340347	-0.301879
C54	C	0.145698	0.159653	0.198121
C55	C	-0.288006	-0.373119	-0.306926
C56	C	0.211994	0.126881	0.193074
C57	C	-0.288017	-0.438553	-0.306921
C58	C	0.211983	0.061447	0.193079
C59	C	-0.354328	-0.471216	-0.301869
C60	C	0.145672	0.028784	0.198131
C61	C	-0.307284	-0.236737	-0.342029
C62	C	0.192716	0.263263	0.157971
C63	C	-0.307266	-0.171301	-0.342026
C64	C	0.192734	0.328699	0.157974
C65	C	-0.401261	-0.171192	-0.261738
C66	C	0.098739	0.328808	0.238262
C67	C	-0.401273	-0.236627	-0.261738
C68	C	0.098727	0.263373	0.238262
C69	C	-0.354285	-0.269396	-0.301887
C70	C	0.145715	0.230604	0.198113
C71	C	-0.545485	-0.905399	-0.301842
C72	C	-0.045485	-0.405399	0.198158
C73	C	-0.627284	-0.905428	-0.301850
C74	C	-0.127284	-0.405428	0.198150
C75	C	-0.815447	-0.945583	-0.261855
C76	C	-0.315447	-0.445583	0.238145
C77	C	-0.892306	-0.945611	-0.261870
C78	C	-0.392306	-0.445611	0.238130
C79	C	-0.892359	-0.865428	-0.341934
C80	C	-0.392359	-0.365428	0.158066
C81	C	-0.815501	-0.865403	-0.341921
C82	C	-0.315501	-0.365403	0.158079
C83	C	-0.777048	-0.905480	-0.301878
C84	C	-0.277048	-0.405480	0.198122
C85	C	-0.930764	-0.905532	-0.301906
C86	C	-0.430764	-0.405532	0.198094
C87	C	-1.014097	-0.905563	-0.301923
C88	C	-0.514097	-0.405563	0.198077
C89	C	-0.693709	-0.905451	-0.301862
C90	C	-0.193709	-0.405451	0.198138
C91	C	-0.162326	-0.905549	-0.301916
C92	C	0.337674	-0.405549	0.198084
C93	C	-0.080527	-0.905584	-0.301934
C94	C	0.419473	-0.405584	0.198066
C95	C	-0.354264	-0.905517	-0.465295
C96	C	0.145736	-0.405517	0.034705
C97	C	-0.354258	-0.905539	-0.534936
C98	C	0.145742	-0.405539	-0.034936
C99	C	-0.354247	-0.068889	-0.301889
C100	C	0.145753	0.431111	0.198111
C101	C	-0.354256	-0.138530	-0.301887
C102	C	0.145744	0.361470	0.198113
C103	C	-0.307176	-0.945632	-0.567666
C104	C	0.192824	-0.445632	-0.067666
C105	C	-0.307145	-0.945631	-0.633102
C106	C	0.192855	-0.445631	-0.133102
C107	C	-0.354208	-0.905544	-0.665805
C108	C	0.145792	-0.405544	-0.165805
C109	C	-0.401292	-0.865444	-0.633067
C110	C	0.098708	-0.365444	-0.133067
C111	C	-0.401317	-0.865442	-0.567633
C112	C	0.098683	-0.365442	-0.067633
C113	C	-0.420473	-0.900574	-0.769469
C114	C	0.079527	-0.400574	-0.269469
C115	C	-0.420449	-0.900581	-0.834902
C116	C	0.079551	-0.400581	-0.334902
C117	C	-0.354130	-0.905548	-0.867626
C118	C	0.145870	-0.405548	-0.367626
C119	C	-0.287832	-0.910522	-0.834908
C120	C	0.212168	-0.410522	-0.334908
C121	C	-0.287857	-0.910519	-0.769474
C122	C	0.212143	-0.410519	-0.269474
C123	C	-0.354185	-0.905542	-0.736757
C124	C	0.145815	-0.405542	-0.236757
C125	C	-0.307010	-0.945642	-0.971308
C126	C	0.192990	-0.445642	-0.471308
C127	C	-0.306977	-0.945636	-1.036745
C128	C	0.193023	-0.445636	-0.536745
C129	C	-0.401131	-0.865453	-1.036709
C130	C	0.098869	-0.365453	-0.536709
C131	C	-0.401158	-0.865455	-0.971273
C132	C	0.098842	-0.365455	-0.471273
C133	C	-0.354098	-0.905553	-0.938577
C134	C	0.145902	-0.405553	-0.438577
C135	C	-0.354241	-0.905450	-0.139084
C136	C	0.145759	-0.405450	0.360916
C137	C	-0.354040	-0.905549	-0.069443
C138	C	0.145960	-0.405549	0.430557
H139	H	-0.268993	-0.144712	-0.374717
H140	H	0.231007	0.355288	0.125283
N141	N	-0.774075	-0.822148	-0.385089
N142	N	-0.274075	-0.322148	0.114911
H143	H	-0.787408	-0.831858	-0.429868
H144	H	-0.287408	-0.331858	0.070132
H145	H	-0.787527	-0.777407	-0.375263
H146	H	-0.287527	-0.277407	0.124737
H147	H	-0.474465	-0.896362	-0.742831
H148	H	0.025535	-0.396362	-0.242831
H149	H	-0.233828	-0.914568	-0.861550
H150	H	0.266172	-0.414568	-0.361550
N151	N	-0.451941	-0.135846	-0.218447
N152	N	0.048059	0.364154	0.281553
H153	H	-0.504543	-0.147198	-0.228094
H154	H	-0.004543	0.352802	0.271906
H155	H	-0.440372	-0.147234	-0.173715
H156	H	0.059628	0.352766	0.326285
N157	N	-0.451961	-0.271856	-0.218438
N158	N	0.048039	0.228144	0.281562
H159	H	-0.481727	-0.241166	-0.193010
H160	H	0.018273	0.258834	0.306990
H161	H	-0.486067	-0.298994	-0.243886
H162	H	0.013933	0.201006	0.256114
N163	N	-0.933837	-0.822196	-0.385111
N164	N	-0.433837	-0.322196	0.114889
H165	H	-0.897846	-0.796788	-0.410464
H166	H	-0.397846	-0.296788	0.089536
H167	H	-0.965677	-0.847692	-0.414137
H168	H	-0.465677	-0.347692	0.085863
N169	N	-0.256267	-0.988897	-0.936039
N170	N	0.243733	-0.488897	-0.436039
H171	H	-0.263437	-0.982822	-0.889620
H172	H	0.236563	-0.482822	-0.389620
H173	H	-0.267726	-1.033633	-0.947508
H174	H	0.232274	-0.533633	-0.447508
N175	N	-0.491951	-0.895216	-0.870188
N176	N	0.008049	-0.395216	-0.370188
H177	H	-0.498838	-0.933384	-0.897349
H178	H	0.001162	-0.433384	-0.397349
H179	H	-0.533923	-0.892041	-0.839491
H180	H	-0.033923	-0.392041	-0.339491
H181	H	-0.474586	-0.346339	-0.292731
H182	H	0.025414	0.153661	0.207269
H183	H	-0.784140	-0.978217	-0.229251
H184	H	-0.284140	-0.478217	0.270749
N185	N	-0.452049	-0.822212	-0.668345
N186	N	0.047951	-0.322212	-0.168345
H187	H	-0.504635	-0.831916	-0.656962
H188	H	-0.004635	-0.331916	-0.156962
H189	H	-0.440570	-0.777466	-0.656930
H190	H	0.059430	-0.277466	-0.156930
H191	H	-0.474609	-0.465043	-0.292721
H192	H	0.025391	0.034957	0.207279
N193	N	-0.451896	-0.822217	-1.071969
N194	N	0.048104	-0.322217	-0.571969
H195	H	-0.440481	-0.777455	-1.060562
H196	H	0.059519	-0.277455	-0.560562
H197	H	-0.444715	-0.828352	-1.118378
H198	H	0.055285	-0.328352	-0.618378
H199	H	-0.268801	-0.978277	-0.659756
H200	H	0.231199	-0.478277	-0.159756
N201	N	-0.256612	-0.272091	-0.385329
N202	N	0.243388	0.227909	0.114671
H203	H	-0.204007	-0.260747	-0.375684
H204	H	0.295993	0.239253	0.124316
H205	H	-0.263824	-0.318486	-0.379214
H206	H	0.236176	0.181514	0.120786
N207	N	-0.452011	-0.539488	-0.218418
N208	N	0.047989	-0.039488	0.281582
H209	H	-0.444874	-0.493079	-0.224513
H210	H	0.055126	0.006921	0.275487
H211	H	-0.504590	-0.550892	-0.228083
H212	H	-0.004590	-0.050892	0.271917
N213	N	-0.933723	-0.988866	-0.218704
N214	N	-0.433723	-0.488866	0.281296
H215	H	-0.897698	-1.014249	-0.193337
H216	H	-0.397698	-0.514249	0.306663
H217	H	-0.965665	-0.963388	-0.189690
H218	H	-0.465665	-0.463388	0.310310
N219	N	-0.452089	-0.822189	-0.532327
N220	N	0.047911	-0.322189	-0.032327
H221	H	-0.481895	-0.796789	-0.562970
H222	H	0.018105	-0.296789	-0.062970
H223	H	-0.486156	-0.847670	-0.505184
H224	H	0.013844	-0.347670	-0.005184
N225	N	-0.452030	-0.675496	-0.218407
N226	N	0.047970	-0.175496	0.281593
H227	H	-0.481795	-0.644806	-0.192976
H228	H	0.018205	-0.144806	0.307024
H229	H	-0.486138	-0.702632	-0.243855
H230	H	0.013862	-0.202632	0.256145
N231	N	-0.451952	-0.822222	-0.935969
N232	N	0.048048	-0.322222	-0.435969
H233	H	-0.444827	-0.828303	-0.889555
H234	H	0.055173	-0.328303	-0.389555
H235	H	-0.440507	-0.777479	-0.947387
H236	H	0.059493	-0.277479	-0.447387
N237	N	-0.256420	-0.988876	-0.532401
N238	N	0.243580	-0.488876	-0.032401
H239	H	-0.226589	-1.014274	-0.563068
H240	H	0.273411	-0.514274	-0.063068
H241	H	-0.222378	-0.963387	-0.505243
H242	H	0.277622	-0.463387	-0.005243
H243	H	-0.268634	-0.978283	-1.063392
H244	H	0.231366	-0.478283	-0.563392
H245	H	-0.233875	-0.914567	-0.742838
H246	H	0.266125	-0.414567	-0.242838
H247	H	-0.269100	-0.667055	-0.374696
H248	H	0.230900	-0.167055	0.125304
H249	H	-0.269072	-0.548349	-0.374696
H250	H	0.230928	-0.048349	0.125304
H251	H	-0.234037	-0.465234	-0.311028
H252	H	0.265963	0.034766	0.188972
H253	H	-0.234016	-0.346521	-0.311032
H254	H	0.265984	0.153479	0.188968
