data_functionalizedCrystal
_audit_creation_method	'MofGen! by Chris Wilmer'
_symmetry_space_group_name_H-M	'P1'
_symmetry_Int_Tables_number	1
_symmetry_cell_setting	triclinic
loop_
_symmetry_equiv_pos_as_xyz
  x,y,z
_cell_length_a	18.050590
_cell_length_b	29.839132
_cell_length_c	18.050591
_cell_angle_alpha	89.989906
_cell_angle_beta	89.986577
_cell_angle_gamma	89.965569
loop_
_atom_site_label
_atom_site_type_symbol
_atom_site_fract_x
_atom_site_fract_y
_atom_site_fract_z
Zn1	Zn	1.135112	0.179090	0.419575
Zn2	Zn	1.635112	0.679090	0.919575
Zn3	Zn	1.135013	0.254189	0.295374
Zn4	Zn	1.635013	0.754189	0.795374
Zn5	Zn	1.010958	0.179060	0.295433
Zn6	Zn	1.510958	0.679060	0.795433
Zn7	Zn	1.010842	0.254179	0.419556
Zn8	Zn	1.510842	0.754179	0.919556
O9	O	1.072981	0.216629	0.357485
O10	O	1.572981	0.716629	0.857485
O11	O	1.239023	0.189069	0.403082
O12	O	1.739023	0.689069	0.903082
O13	O	1.118564	0.244214	0.191457
O14	O	1.618564	0.744214	0.691457
O15	O	1.027518	0.116196	0.311933
O16	O	1.527518	0.616196	0.811933
O17	O	1.238951	0.244244	0.311832
O18	O	1.738951	0.744244	0.811832
O19	O	1.118732	0.116219	0.403140
O20	O	1.618732	0.616219	0.903140
O21	O	1.027422	0.189017	0.191501
O22	O	1.527422	0.689017	0.691501
O23	O	0.907018	0.189008	0.311915
O24	O	1.407018	0.689008	0.811915
O25	O	1.027319	0.244227	0.523483
O26	O	1.527319	0.744227	1.023483
O27	O	0.906933	0.244198	0.403108
O28	O	1.406933	0.744198	0.903108
O29	O	1.118620	0.189059	0.523497
O30	O	1.618620	0.689059	1.023497
O31	O	1.118451	0.317055	0.311814
O32	O	1.618451	0.817055	0.811814
O33	O	1.027223	0.317048	0.403051
O34	O	1.527223	0.817048	0.903051
C35	C	0.880029	0.216599	0.357517
C36	C	1.380029	0.716599	0.857517
C37	C	0.797483	0.216596	0.357548
C38	C	1.297483	0.716596	0.857548
C39	C	0.598008	0.246695	0.407021
C40	C	1.098008	0.746695	0.907021
C41	C	0.548631	0.205735	0.425302
C42	C	1.048631	0.705735	0.925302
C43	C	0.646353	0.216622	0.357512
C44	C	1.146353	0.716622	0.857512
C45	C	0.548648	0.257604	0.339230
C46	C	1.048648	0.757604	0.839230
C47	C	0.500368	0.216649	0.357478
C48	C	1.000368	0.716649	0.857478
C49	C	0.598063	0.175640	0.375828
C50	C	1.098063	0.675640	0.875828
C51	C	0.598085	0.227537	0.289724
C52	C	1.098085	0.727537	0.789724
C53	C	0.548730	0.186549	0.307980
C54	C	1.048730	0.686549	0.807980
C55	C	0.730451	0.216606	0.357533
C56	C	1.230451	0.716606	0.857533
C57	C	0.416271	0.216660	0.357457
C58	C	0.916271	0.716660	0.857457
C59	C	1.072834	0.333352	0.357440
C60	C	1.572834	0.833352	0.857440
C61	C	1.072839	0.383286	0.357446
C62	C	1.572839	0.883286	0.857446
C63	C	1.120517	0.692921	0.310017
C64	C	1.620517	1.192921	0.810017
C65	C	1.120588	0.880594	0.310034
C66	C	1.620588	1.380594	0.810034
O67	O	1.161045	0.904851	0.269694
O68	O	1.661045	1.404851	0.769694
N69	N	1.073059	0.904071	0.357497
N70	N	1.573059	1.404071	0.857497
C71	C	1.025512	0.880628	0.404962
C72	C	1.525512	1.380628	0.904962
O73	O	0.985093	0.904903	0.445338
O74	O	1.485093	1.404903	0.945338
C75	C	1.025446	0.692956	0.404949
C76	C	1.525446	1.192956	0.904949
C77	C	1.072973	0.669481	0.357477
C78	C	1.572973	1.169481	0.857477
C79	C	1.168040	0.669446	0.262550
C80	C	1.668040	1.169446	0.762550
C81	C	1.168019	0.622530	0.262543
C82	C	1.668019	1.122530	0.762543
C83	C	1.120475	0.599090	0.310004
C84	C	1.620475	1.099090	0.810004
C85	C	1.072951	0.622565	0.357471
C86	C	1.572951	1.122565	0.857471
C87	C	0.977903	0.669513	0.452417
C88	C	1.477903	1.169513	0.952417
C89	C	0.977892	0.622592	0.452411
C90	C	1.477892	1.122592	0.952411
C91	C	1.025419	0.599117	0.404940
C92	C	1.525419	1.099117	0.904940
C93	C	1.025386	0.552209	0.404924
C94	C	1.525386	1.052209	0.904924
N95	N	1.072915	0.528732	0.357461
N96	N	1.572915	1.028732	0.857461
C97	C	1.120459	0.552172	0.310001
C98	C	1.620459	1.052172	0.810001
C99	C	1.025550	0.979159	0.404965
C100	C	1.525550	1.479159	0.904965
C101	C	1.025565	1.026076	0.404968
C102	C	1.525565	1.526076	0.904968
C103	C	1.120642	1.026039	0.310040
C104	C	1.620642	1.526039	0.810040
C105	C	1.120622	0.979120	0.310034
C106	C	1.620622	1.479120	0.810034
C107	C	1.073079	0.955681	0.357502
C108	C	1.573079	1.455681	0.857502
C109	C	1.120411	0.453646	0.309990
C110	C	1.620411	0.953646	0.809990
C111	C	1.120384	0.406727	0.309986
C112	C	1.620384	0.906727	0.809986
C113	C	1.025310	0.406768	0.404916
C114	C	1.525310	0.906768	0.904916
C115	C	1.025334	0.453684	0.404918
C116	C	1.525334	0.953684	0.904918
C117	C	1.072891	0.477121	0.357453
C118	C	1.572891	0.977121	0.857453
O119	O	0.984955	0.527923	0.445248
O120	O	1.484955	1.027923	0.945248
O121	O	1.160884	0.527889	0.269643
O122	O	1.660884	1.027889	0.769643
C123	C	1.120538	0.739836	0.310023
C124	C	1.620538	1.239836	0.810023
C125	C	1.073015	0.763311	0.357490
C126	C	1.573015	1.263311	0.857490
C127	C	1.025470	0.739871	0.404951
C128	C	1.525470	1.239871	0.904951
C129	C	1.073030	0.810229	0.357493
C130	C	1.573030	1.310229	0.857493
C131	C	1.120575	0.833670	0.310033
C132	C	1.620575	1.333670	0.810033
C133	C	1.168104	0.810192	0.262570
C134	C	1.668104	1.310192	0.762570
C135	C	1.168083	0.763277	0.262563
C136	C	1.668083	1.263277	0.762563
C137	C	0.977941	0.763349	0.452414
C138	C	1.477941	1.263349	0.952414
C139	C	0.977965	0.810264	0.452416
C140	C	1.477965	1.310264	0.952416
C141	C	1.025510	0.833705	0.404955
C142	C	1.525510	1.333705	0.904955
C143	C	1.266687	0.216661	0.357453
C144	C	1.766687	0.716661	0.857453
C145	C	1.349232	0.216674	0.357439
C146	C	1.849232	0.716674	0.857439
C147	C	1.072967	0.216645	0.551190
C148	C	1.572967	0.716645	1.051190
C149	C	1.072962	0.216652	0.633736
C150	C	1.572962	0.716652	1.133736
C151	C	1.073121	1.099451	0.357529
C152	C	1.573121	1.599451	0.857529
C153	C	1.073110	1.049517	0.357507
C154	C	1.573110	1.549517	0.857507
C155	C	1.023306	0.246649	0.833179
C156	C	1.523306	0.746649	1.333179
C157	C	1.091045	0.257647	0.882550
C158	C	1.591045	0.757647	1.382550
C159	C	1.072965	0.216646	0.784866
C160	C	1.572965	0.716646	1.284866
C161	C	1.005231	0.205663	0.882577
C162	C	1.505231	0.705663	1.382577
C163	C	1.072962	0.216641	0.930851
C164	C	1.572962	0.716641	1.430851
C165	C	1.140740	0.227666	0.833150
C166	C	1.640740	0.727666	1.333150
C167	C	1.054879	0.175662	0.833172
C168	C	1.554879	0.675662	1.333172
C169	C	1.122665	0.186645	0.882521
C170	C	1.622665	0.686645	1.382521
C171	C	1.072965	0.216650	0.700768
C172	C	1.572965	0.716650	1.200768
C173	C	1.072969	0.216637	1.014948
C174	C	1.572969	0.716637	1.514948
C175	C	1.072982	0.216628	1.164532
C176	C	1.572982	0.716628	1.664532
C177	C	1.072966	0.216633	1.081987
C178	C	1.572966	0.716633	1.581987
H179	H	0.526939	0.292251	0.323783
H180	H	1.026939	0.792251	0.823783
H181	H	0.619824	0.236773	0.232429
H182	H	1.119824	0.736773	0.732429
N183	N	0.974262	0.953879	0.456159
N184	N	1.474262	1.453879	0.956159
H185	H	0.985747	0.962034	0.509229
H186	H	1.485747	1.462034	1.009229
H187	H	0.921237	0.962085	0.444519
H188	H	1.421237	1.462085	0.944519
N189	N	0.967756	0.280285	0.804471
N190	N	1.467756	0.780285	1.304471
H191	H	0.967818	0.279846	0.748523
H192	H	1.467818	0.779846	1.248523
H193	H	0.916746	0.272289	0.823274
H194	H	1.416746	0.772289	1.323274
N195	N	0.974073	0.479007	0.456114
N196	N	1.474073	0.979007	0.956114
H197	H	0.939693	0.498498	0.425916
H198	H	1.439693	0.998498	0.925916
H199	H	0.943998	0.457008	0.486166
H200	H	1.443998	0.957008	0.986166
N201	N	1.178351	0.153037	0.911051
N202	N	1.678351	0.653037	1.411051
H203	H	1.152106	0.129673	0.941872
H204	H	1.652106	0.629673	1.441872
H205	H	1.203818	0.138062	0.867807
H206	H	1.703818	0.638062	1.367807
N207	N	0.626682	0.280321	0.462538
N208	N	1.126682	0.780321	0.962538
H209	H	0.657480	0.303637	0.436155
H210	H	1.157480	0.803637	0.936155
H211	H	0.583502	0.295355	0.488035
H212	H	1.083502	0.795355	0.988035
H213	H	1.106346	0.292305	0.904240
H214	H	1.606346	0.792305	1.404240
H215	H	1.198037	0.236993	0.811531
H216	H	1.698037	0.736993	1.311531
H217	H	1.159086	0.387615	0.271326
H218	H	1.659086	0.887615	0.771326
N219	N	1.171892	0.953806	0.258838
N220	N	1.671892	1.453806	0.758838
H221	H	1.206277	0.934321	0.289040
H222	H	1.706277	1.434321	0.789040
H223	H	1.141689	0.934383	0.224408
H224	H	1.641689	1.434383	0.724408
N225	N	0.926638	0.694825	0.503616
N226	N	1.426638	1.194825	1.003616
H227	H	0.896523	0.672850	0.533678
H228	H	1.396523	1.172850	1.033678
H229	H	0.956842	0.714271	0.538009
H230	H	1.456842	1.214271	1.038009
H231	H	0.939177	0.603510	0.491068
H232	H	1.439177	1.103510	0.991068
N233	N	0.974039	0.381476	0.456104
N234	N	1.474039	0.881476	0.956104
H235	H	0.985533	0.389626	0.509174
H236	H	1.485533	0.889626	1.009174
H237	H	0.921006	0.389675	0.444481
H238	H	1.421006	0.889675	0.944481
H239	H	1.206783	0.744166	0.223907
H240	H	1.706783	1.244166	0.723907
N241	N	0.519849	0.193519	0.501214
N242	N	1.019849	0.693519	1.001214
H243	H	0.463901	0.193335	0.500513
H244	H	0.963901	0.693335	1.000513
H245	H	0.538648	0.162802	0.515356
H246	H	1.038648	0.662802	1.015356
H247	H	1.159138	0.472724	0.271341
H248	H	1.659138	0.972724	0.771341
N249	N	0.626685	0.129732	0.396377
N250	N	1.126685	0.629732	0.896377
H251	H	0.682636	0.130007	0.396284
H252	H	1.182636	0.630007	0.896284
H253	H	0.608205	0.121455	0.447389
H254	H	1.108205	0.621455	0.947389
N255	N	1.219292	0.597214	0.211353
N256	N	1.719292	1.097214	0.711353
H257	H	1.249414	0.619188	0.181296
H258	H	1.749414	1.119188	0.681296
H259	H	1.253625	0.577730	0.241611
H260	H	1.753625	1.077730	0.741611
H261	H	1.039558	0.141015	0.811466
H262	H	1.539558	0.641015	1.311466
N263	N	1.219378	0.835479	0.211373
N264	N	1.719378	1.335479	0.711373
H265	H	1.212173	0.868762	0.218584
H266	H	1.712173	1.368762	0.718584
H267	H	1.272406	0.827252	0.222962
H268	H	1.772406	1.327252	0.722962
N269	N	0.929360	0.193357	0.911340
N270	N	1.429360	0.693357	1.411340
H271	H	0.891895	0.216044	0.893391
H272	H	1.391895	0.716044	1.393391
H273	H	0.915380	0.162614	0.892601
H274	H	1.415380	0.662614	1.392601
N275	N	0.926694	0.835581	0.503614
N276	N	1.426694	1.335581	1.003614
H277	H	0.896575	0.813608	0.533676
H278	H	1.396575	1.313608	1.033676
H279	H	0.956901	0.855026	0.538007
H280	H	1.456901	1.355026	1.038007
H281	H	0.527229	0.161100	0.266098
H282	H	1.027229	0.661100	0.766098
N283	N	1.219326	0.694723	0.211357
N284	N	1.719326	1.194723	0.711357
H285	H	1.249424	0.672726	0.181291
H286	H	1.749424	1.172726	0.681291
H287	H	1.189133	0.714207	0.176967
H288	H	1.689133	1.214207	0.676967
N289	N	1.171921	1.051325	0.258847
N290	N	1.671921	1.551325	0.758847
H291	H	1.164715	1.084609	0.266056
H292	H	1.664715	1.584609	0.766056
H293	H	1.224948	1.043099	0.270444
H294	H	1.724948	1.543099	0.770444
N295	N	0.974292	1.051393	0.456156
N296	N	1.474292	1.551393	0.956156
H297	H	0.944173	1.029420	0.486219
H298	H	1.444173	1.529420	0.986219
H299	H	1.004493	1.070841	0.490548
H300	H	1.504493	1.570841	0.990548
N301	N	0.926656	0.738070	0.503604
N302	N	1.426656	1.238070	1.003604
H303	H	0.896553	0.760066	0.533668
H304	H	1.396553	1.260066	1.033668
H305	H	0.892305	0.718629	0.473346
H306	H	1.392305	1.218629	0.973346
