data_functionalizedCrystal
_audit_creation_method	'MofGen! by Chris Wilmer'
_symmetry_space_group_name_H-M	'P1'
_symmetry_Int_Tables_number	1
_symmetry_cell_setting	triclinic
loop_
_symmetry_equiv_pos_as_xyz
  x,y,z
_cell_length_a	17.019282
_cell_length_b	17.038272
_cell_length_c	16.098538
_cell_angle_alpha	92.920305
_cell_angle_beta	91.140572
_cell_angle_gamma	87.241387
loop_
_atom_site_label
_atom_site_type_symbol
_atom_site_fract_x
_atom_site_fract_y
_atom_site_fract_z
O1	O	1.053062	0.099864	0.006294
O2	O	1.386395	0.433197	0.339627
O3	O	1.719728	0.766530	0.672960
O4	O	0.825028	0.111750	-0.010068
O5	O	1.158362	0.445083	0.323265
O6	O	1.491695	0.778417	0.656598
O7	O	0.937689	-0.008012	-0.001978
O8	O	1.271023	0.325321	0.331355
O9	O	1.604356	0.658655	0.664689
O10	O	0.940401	0.219626	-0.001797
O11	O	1.273734	0.552959	0.331537
O12	O	1.607067	0.886292	0.664870
O13	O	0.931106	-0.001043	0.136062
O14	O	1.264440	0.332290	0.469395
O15	O	1.597773	0.665623	0.802729
O16	O	0.818445	0.118718	0.127972
O17	O	1.151779	0.452052	0.461305
O18	O	1.485112	0.785385	0.794639
O19	O	1.046479	0.106832	0.144334
O20	O	1.379812	0.440165	0.477667
O21	O	1.713145	0.773499	0.811000
Zn22	Zn	0.931417	0.113882	0.158070
Zn23	Zn	1.264750	0.447215	0.491403
Zn24	Zn	1.598083	0.780548	0.824736
Zn25	Zn	0.940090	0.104700	-0.023804
Zn26	Zn	1.273424	0.438034	0.309529
Zn27	Zn	1.606757	0.771367	0.642862
O28	O	0.933818	0.226594	0.136243
O29	O	1.267151	0.559927	0.469577
O30	O	1.600484	0.893261	0.802910
C31	C	0.792416	0.114648	0.056848
C32	C	1.125749	0.447981	0.390181
C33	C	1.459082	0.781315	0.723515
C34	C	0.705047	0.112892	0.050579
C35	C	1.038380	0.446225	0.383913
C36	C	1.371714	0.779558	0.717246
C37	C	0.660417	0.115863	0.122882
C38	C	0.993751	0.449196	0.456215
C39	C	1.327084	0.782530	0.789549
C40	C	0.578326	0.114200	0.116994
C41	C	0.911659	0.447534	0.450328
C42	C	1.244993	0.780867	0.783661
C43	C	0.540866	0.109572	0.038803
C44	C	0.874199	0.442905	0.372137
C45	C	1.207532	0.776238	0.705470
C46	C	0.585502	0.106598	-0.033505
C47	C	0.918835	0.439931	0.299829
C48	C	1.252168	0.773264	0.633162
C49	C	0.667592	0.108255	-0.027616
C50	C	1.000925	0.441588	0.305717
C51	C	1.334258	0.774922	0.639050
C52	C	0.293186	0.104373	0.017259
C53	C	0.626520	0.437707	0.350593
C54	C	0.959853	0.771040	0.683926
C55	C	0.211090	0.102719	0.011376
C56	C	0.544423	0.436052	0.344709
C57	C	0.877757	0.769385	0.678043
C58	C	0.203920	0.110320	0.161876
C59	C	0.537253	0.443653	0.495209
C60	C	0.870587	0.776987	0.828543
C61	C	0.286012	0.111981	0.167758
C62	C	0.619345	0.445315	0.501091
C63	C	0.952679	0.778648	0.834424
C64	C	0.330641	0.109003	0.095450
C65	C	0.663974	0.442336	0.428783
C66	C	0.997308	0.775670	0.762116
C67	C	0.456955	0.107875	0.032783
C68	C	0.790288	0.441208	0.366116
C69	C	1.123622	0.774541	0.699450
C70	C	0.414550	0.110695	0.101470
C71	C	0.747884	0.444028	0.434804
C72	C	1.081217	0.777361	0.768137
C73	C	0.931933	-0.033663	0.066865
C74	C	1.265266	0.299671	0.400198
C75	C	1.598599	0.633004	0.733532
C76	C	0.924577	-0.120475	0.066337
C77	C	1.257911	0.212858	0.399670
C78	C	1.591244	0.546191	0.733004
C79	C	0.992107	-0.170407	0.071183
C80	C	1.325440	0.162927	0.404517
C81	C	1.658773	0.496260	0.737850
C82	C	0.985191	-0.251976	0.070679
C83	C	1.318525	0.081357	0.404013
C84	C	1.651858	0.414690	0.737346
C85	C	0.910746	-0.283613	0.065335
C86	C	1.244079	0.049720	0.398668
C87	C	1.577413	0.383054	0.732001
C88	C	0.843212	-0.233676	0.060486
C89	C	1.176545	0.099658	0.393819
C90	C	1.509878	0.432991	0.727152
C91	C	0.850128	-0.152108	0.060984
C92	C	1.183461	0.181226	0.394317
C93	C	1.516795	0.514559	0.727651
C94	C	0.886312	-0.529438	0.063570
C95	C	1.219645	-0.196104	0.396904
C96	C	1.552979	0.137229	0.730237
C97	C	0.879401	-0.611012	0.063075
C98	C	1.212734	-0.277678	0.396408
C99	C	1.546067	0.055655	0.729742
C100	C	1.021381	-0.629307	0.073267
C101	C	1.354715	-0.295974	0.406600
C102	C	1.688048	0.037360	0.739933
C103	C	1.028291	-0.547736	0.073770
C104	C	1.361624	-0.214403	0.407103
C105	C	1.694957	0.118930	0.740436
C106	C	0.960757	-0.497806	0.068916
C107	C	1.294090	-0.164473	0.402249
C108	C	1.627423	0.168860	0.735583
C109	C	0.903675	-0.366990	0.064822
C110	C	1.237009	-0.033657	0.398155
C111	C	1.570342	0.299677	0.731489
C112	C	0.967828	-0.414431	0.069423
C113	C	1.301161	-0.081098	0.402756
C114	C	1.634495	0.252235	0.736090
C115	C	1.079091	0.103934	0.077416
C116	C	1.412425	0.437267	0.410749
C117	C	1.745758	0.770601	0.744082
C118	C	1.166460	0.105690	0.083679
C119	C	1.499794	0.439023	0.417012
C120	C	1.833127	0.772357	0.750345
C121	C	0.939574	0.252245	0.067399
C122	C	1.272908	0.585578	0.400732
C123	C	1.606241	0.918911	0.734065
C124	C	0.946930	0.339057	0.067921
C125	C	1.280263	0.672391	0.401254
C126	C	1.613597	1.005724	0.734588
N127	N	0.925503	0.120147	0.282194
N128	N	1.258837	0.453480	0.615528
N129	N	1.592170	0.786814	0.948861
N130	N	0.946010	0.098429	-0.147928
N131	N	1.279343	0.431762	0.185405
N132	N	1.612676	0.765095	0.518738
C133	C	0.973341	0.069333	0.329215
C134	C	1.306674	0.402667	0.662548
C135	C	1.640008	0.736000	0.995881
C136	C	0.969212	0.073724	0.416107
C137	C	1.302545	0.407057	0.749440
C138	C	1.635879	0.740391	1.082774
C139	C	0.917249	0.128932	0.455978
C140	C	1.250582	0.462266	0.789311
C141	C	1.583915	0.795599	1.122644
C142	C	0.869406	0.179748	0.408951
C143	C	1.202739	0.513081	0.742284
C144	C	1.536072	0.846415	1.075618
C145	C	0.873531	0.175353	0.322060
C146	C	1.206864	0.508687	0.655393
C147	C	1.540198	0.842020	0.988727
C148	C	0.902292	0.144850	0.718154
C149	C	1.235625	0.478183	1.051487
C150	C	1.568959	0.811517	1.384820
C151	C	0.898172	0.149242	0.805051
C152	C	1.231505	0.482576	1.138385
C153	C	1.564838	0.815909	1.471718
C154	C	0.997978	0.043217	0.812201
C155	C	1.331311	0.376550	1.145535
C156	C	1.664644	0.709883	1.478868
C157	C	1.002102	0.038830	0.725308
C158	C	1.335435	0.372163	1.058642
C159	C	1.668769	0.705497	1.391975
C160	C	0.954256	0.089643	0.678289
C161	C	1.287589	0.422976	1.011622
C162	C	1.620923	0.756310	1.344956
C163	C	0.913029	0.133423	0.544796
C164	C	1.246362	0.466756	0.878129
C165	C	1.579695	0.800090	1.211463
C166	C	0.958472	0.085148	0.589472
C167	C	1.291806	0.418482	0.922806
C168	C	1.625139	0.751815	1.256139
H169	H	0.167575	0.112743	0.220745
H170	H	0.500908	0.446077	0.554078
H171	H	0.834241	0.779410	0.887412
H172	H	0.818775	-0.636766	0.058736
H173	H	1.152108	-0.303432	0.392069
H174	H	1.485441	0.029901	0.725403
H175	H	0.703929	0.105837	-0.086493
H176	H	1.037262	0.439170	0.246840
H177	H	1.370595	0.772503	0.580174
F178	F	1.013771	0.026390	0.547037
F179	F	1.347104	0.359724	0.880371
F180	F	1.680438	0.693057	1.213704
F181	F	0.814097	0.238502	0.451385
F182	F	1.147431	0.571836	0.784718
F183	F	1.480764	0.905169	1.118051
F184	F	0.530831	0.117374	0.193949
F185	F	0.864164	0.450707	0.527283
F186	F	1.197497	0.784041	0.860616
H187	H	1.036931	0.001846	0.850492
H188	H	1.370264	0.335180	1.183825
H189	H	1.703597	0.668513	1.517159
H190	H	1.028442	-0.388670	0.073756
H191	H	1.361776	-0.055337	0.407089
H192	H	1.695109	0.277996	0.740423
F193	F	0.822613	0.229435	0.272018
F194	F	1.155946	0.562768	0.605352
F195	F	1.489279	0.896101	0.938685
H196	H	0.855855	0.194203	0.837510
H197	H	1.189188	0.527536	1.170843
H198	H	1.522522	0.860870	1.504176
F199	F	0.824447	-0.400667	0.059131
F200	F	1.157780	-0.067334	0.392464
F201	F	1.491114	0.265999	0.725797
H202	H	0.690911	0.119639	0.186554
H203	H	1.024244	0.452972	0.519887
H204	H	1.357578	0.786305	0.853220
H205	H	1.088912	-0.521984	0.078122
H206	H	1.422245	-0.188651	0.411455
H207	H	1.755579	0.144682	0.744788
F208	F	1.071342	-0.136744	0.076880
F209	F	1.404675	0.196589	0.410213
F210	F	1.738009	0.529923	0.743546
F211	F	0.454420	0.115617	0.184684
F212	F	0.787754	0.448951	0.518018
F213	F	1.121087	0.782284	0.851351
F214	F	0.763981	-0.267348	0.054788
F215	F	1.097314	0.065985	0.388122
F216	F	1.430648	0.399318	0.721455
F217	F	0.171224	0.097794	-0.071849
F218	F	0.504557	0.431128	0.261484
F219	F	0.837890	0.764461	0.594817
H220	H	0.329514	0.101946	-0.041619
H221	H	0.662847	0.435279	0.291714
H222	H	0.996180	0.768612	0.625047
F223	F	0.851374	0.198931	0.668119
F224	F	1.184707	0.532264	1.001452
F225	F	1.518040	0.865597	1.334786
F226	F	0.857727	0.192181	0.587234
F227	F	1.191061	0.525514	0.920568
F228	F	1.524394	0.858847	1.253901
F229	F	1.093250	-0.682451	0.078431
F230	F	1.426584	-0.349118	0.411764
F231	F	1.759917	-0.015784	0.745097
H232	H	0.831321	-0.488794	0.059618
H233	H	1.164654	-0.155461	0.392952
H234	H	1.497987	0.177873	0.726285
F235	F	1.028652	0.010576	0.286790
F236	F	1.361985	0.343910	0.620123
F237	F	1.695319	0.677243	0.953456
H238	H	0.554995	0.102824	-0.097170
H239	H	0.888329	0.436157	0.236164
H240	H	1.221662	0.769490	0.569497
F241	F	0.778254	-0.098967	0.055823
F242	F	1.111587	0.234366	0.389157
F243	F	1.444921	0.567699	0.722490
H244	H	0.316506	0.115747	0.231429
H245	H	0.649840	0.449080	0.564762
H246	H	0.983173	0.782413	0.898096
H247	H	1.044415	-0.006125	0.692848
H248	H	1.377748	0.327208	1.026181
H249	H	1.711081	0.660542	1.359514
F250	F	0.417082	0.102921	-0.050431
F251	F	0.750415	0.436255	0.282902
F252	F	1.083748	0.769588	0.616235
F253	F	1.057066	-0.305114	0.075839
F254	F	1.390399	0.028220	0.409172
F255	F	1.723733	0.361553	0.742505
H256	H	1.008165	0.032347	0.454391
H257	H	1.341498	0.365680	0.787724
H258	H	1.674831	0.699014	1.121057
