data_functionalizedCrystal
_audit_creation_method	'MofGen! by Chris Wilmer'
_symmetry_space_group_name_H-M	'P1'
_symmetry_Int_Tables_number	1
_symmetry_cell_setting	triclinic
loop_
_symmetry_equiv_pos_as_xyz
  x,y,z
_cell_length_a	21.295417
_cell_length_b	18.050591
_cell_length_c	18.050583
_cell_angle_alpha	90.022021
_cell_angle_beta	89.959541
_cell_angle_gamma	89.973488
loop_
_atom_site_label
_atom_site_type_symbol
_atom_site_fract_x
_atom_site_fract_y
_atom_site_fract_z
Zn1	Zn	-0.250631	-1.135289	-0.420010
Zn2	Zn	0.249369	-0.635289	0.079990
Zn3	Zn	-0.355917	-1.135192	-0.295811
Zn4	Zn	0.144083	-0.635192	0.204189
Zn5	Zn	-0.250659	-1.011106	-0.295821
Zn6	Zn	0.249341	-0.511106	0.204179
Zn7	Zn	-0.355859	-1.011051	-0.419946
Zn8	Zn	0.144141	-0.511051	0.080054
O9	O	-0.303267	-1.073159	-0.357897
O10	O	0.196733	-0.573159	0.142103
O11	O	-0.264610	-1.239201	-0.403557
O12	O	0.235390	-0.739201	0.096443
O13	O	-0.341991	-1.118714	-0.191887
O14	O	0.158009	-0.618714	0.308113
O15	O	-0.162566	-1.027642	-0.312326
O16	O	0.337434	-0.527642	0.187674
O17	O	-0.341964	-1.239130	-0.312308
O18	O	0.158036	-0.739130	0.187692
O19	O	-0.162545	-1.118879	-0.403567
O20	O	0.337455	-0.618879	0.096433
O21	O	-0.264658	-1.027548	-0.191895
O22	O	0.235342	-0.527548	0.308105
O23	O	-0.264601	-0.907174	-0.312264
O24	O	0.235399	-0.407174	0.187736
O25	O	-0.341864	-1.027549	-0.523879
O26	O	0.158136	-0.527549	-0.023879
O27	O	-0.341891	-0.907134	-0.403458
O28	O	0.158109	-0.407134	0.096542
O29	O	-0.264554	-1.118826	-0.523926
O30	O	0.235446	-0.618826	-0.023926
O31	O	-0.443999	-1.118661	-0.312247
O32	O	0.056001	-0.618661	0.187753
O33	O	-0.443956	-1.027455	-0.403449
O34	O	0.056044	-0.527455	0.096551
C35	C	-0.303243	-0.880207	-0.357856
C36	C	0.196757	-0.380207	0.142144
C37	C	-0.303248	-0.797662	-0.357856
C38	C	0.196752	-0.297662	0.142144
C39	C	-0.466818	-1.073062	-0.357856
C40	C	0.033182	-0.573062	0.142144
C41	C	-0.536786	-1.073088	-0.357863
C42	C	-0.036786	-0.573088	0.142137
C43	C	-0.303199	-1.073192	-0.551603
C44	C	0.196801	-0.573192	-0.051603
C45	C	-0.303171	-1.073206	-0.634148
C46	C	0.196829	-0.573206	-0.134148
C47	C	-0.569654	-1.120621	-0.310423
C48	C	-0.069654	-0.620621	0.189577
C49	C	-0.635397	-1.120656	-0.310440
C50	C	-0.135397	-0.620656	0.189560
C51	C	-0.668269	-1.073145	-0.357889
C52	C	-0.168269	-0.573145	0.142111
C53	C	-0.635393	-1.025608	-0.405338
C54	C	-0.135393	-0.525608	0.094662
C55	C	-0.569652	-1.025580	-0.405325
C56	C	-0.069652	-0.525580	0.094675
N57	N	-0.771530	-1.008178	-0.363536
N58	N	-0.271530	-0.508178	0.136464
N59	N	-0.833981	-1.008207	-0.363544
N60	N	-0.333981	-0.508207	0.136456
C61	C	-0.866344	-1.073228	-0.357931
C62	C	-0.366344	-0.573228	0.142069
N63	N	-0.833895	-1.138221	-0.352296
N64	N	-0.333895	-0.638221	0.147704
N65	N	-0.771438	-1.138191	-0.352284
N66	N	-0.271438	-0.638191	0.147716
C67	C	-0.739554	-1.073170	-0.357908
C68	C	-0.239554	-0.573170	0.142092
C69	C	-0.970497	-1.120803	-0.310507
C70	C	-0.470497	-0.620803	0.189493
C71	C	-1.036241	-1.120839	-0.310529
C72	C	-0.536241	-0.620839	0.189471
C73	C	-1.036235	-1.025784	-0.405423
C74	C	-0.536235	-0.525784	0.094577
C75	C	-0.970493	-1.025755	-0.405405
C76	C	-0.470493	-0.525755	0.094595
C77	C	-0.937628	-1.073263	-0.357943
C78	C	-0.437628	-0.573263	0.142057
C79	C	-0.139076	-1.073277	-0.357955
C80	C	0.360924	-0.573277	0.142045
C81	C	-0.069108	-1.073328	-0.357979
C82	C	0.430892	-0.573328	0.142021
C83	C	-0.303291	-1.266865	-0.357939
C84	C	0.196709	-0.766865	0.142061
C85	C	-0.303301	-1.349411	-0.357956
C86	C	0.196699	-0.849411	0.142044
C87	C	-0.261169	-0.598211	-0.308379
C88	C	0.238831	-0.098211	0.191621
C89	C	-0.318588	-0.548788	-0.290098
C90	C	0.181412	-0.048788	0.209902
C91	C	-0.303267	-0.646531	-0.357889
C92	C	0.196733	-0.146531	0.142111
C93	C	-0.245869	-0.548872	-0.376169
C94	C	0.254131	-0.048872	0.123831
C95	C	-0.303281	-0.500546	-0.357921
C96	C	0.196719	-0.000546	0.142079
C97	C	-0.360716	-0.598196	-0.339573
C98	C	0.139284	-0.098196	0.160427
C99	C	-0.287959	-0.598284	-0.425676
C100	C	0.212041	-0.098284	0.074324
C101	C	-0.345417	-0.548883	-0.407420
C102	C	0.154583	-0.048883	0.092580
C103	C	-0.303259	-0.730629	-0.357870
C104	C	0.196741	-0.230629	0.142130
C105	C	-0.303296	-0.416450	-0.357940
C106	C	0.196704	0.083550	0.142060
C107	C	-0.261109	-1.122892	-0.833625
C108	C	0.238891	-0.622892	-0.333625
C109	C	-0.245698	-1.055159	-0.883014
C110	C	0.254302	-0.555159	-0.383014
C111	C	-0.303160	-1.073236	-0.785279
C112	C	0.196840	-0.573236	-0.285279
C113	C	-0.318531	-1.140996	-0.882972
C114	C	0.181469	-0.640996	-0.382972
C115	C	-0.303148	-1.073271	-0.931264
C116	C	0.196852	-0.573271	-0.431264
C117	C	-0.287720	-1.005467	-0.833581
C118	C	0.212280	-0.505467	-0.333581
C119	C	-0.360579	-1.091350	-0.833534
C120	C	0.139421	-0.591350	-0.333534
C121	C	-0.345190	-1.023570	-0.882901
C122	C	0.154810	-0.523570	-0.382901
C123	C	-0.303165	-1.073217	-0.701181
C124	C	0.196835	-0.573217	-0.201181
C125	C	-0.303143	-1.073282	-1.015361
C126	C	0.196857	-0.573282	-0.515361
C127	C	-0.303288	-1.073169	-0.164945
C128	C	0.196712	-0.573169	0.335055
C129	C	-0.303139	-1.073299	-0.082399
C130	C	0.196861	-0.573299	0.417601
H131	H	-0.542897	-1.159307	-0.271778
H132	H	-0.042897	-0.659307	0.228222
H133	H	-0.331546	-0.527049	-0.232786
H134	H	0.168454	-0.027049	0.267214
H135	H	-0.409277	-0.619771	-0.324062
H136	H	0.090723	-0.119771	0.175938
Br137	Br	-0.925890	-1.185274	-0.246093
Br138	Br	-0.425890	-0.685274	0.253907
H139	H	-1.063001	-1.159551	-0.271899
H140	H	-0.563001	-0.659551	0.228101
H141	H	-0.331535	-1.198285	-0.904670
H142	H	0.168465	-0.698285	-0.404670
H143	H	-0.381065	-0.527361	-0.449303
H144	H	0.118935	-0.027361	0.050697
H145	H	-0.380746	-0.981544	-0.904402
H146	H	0.119254	-0.481544	-0.404402
H147	H	-0.274983	-0.620041	-0.482970
H148	H	0.225017	-0.120041	0.017030
Br149	Br	-0.680014	-1.185170	-0.246052
Br150	Br	-0.180014	-0.685170	0.253948
Br151	Br	-1.080840	-0.961310	-0.469827
Br152	Br	-0.580840	-0.461310	0.030173
Br153	Br	-0.164957	-0.512751	-0.401913
Br154	Br	0.335043	-0.012751	0.098087
Br155	Br	-0.201894	-0.634313	-0.238523
Br156	Br	0.298106	-0.134313	0.261477
H157	H	-0.225525	-1.164816	-0.811985
H158	H	0.274475	-0.664816	-0.311985
H159	H	-0.409128	-1.106680	-0.811786
H160	H	0.090872	-0.606680	-0.311786
H161	H	-0.274658	-0.948161	-0.811976
H162	H	0.225342	-0.448161	-0.311976
H163	H	-0.197136	-1.039849	-0.904748
H164	H	0.302864	-0.539849	-0.404748
H165	H	-0.662161	-0.986925	-0.443973
H166	H	-0.162161	-0.486925	0.056027
Br167	Br	-0.525042	-0.961067	-0.469714
Br168	Br	-0.025042	-0.461067	0.030286
H169	H	-0.943730	-0.987046	-0.444032
H170	H	-0.443730	-0.487046	0.055968
