data_functionalizedCrystal
_audit_creation_method	'MofGen! by Chris Wilmer'
_symmetry_space_group_name_H-M	'P1'
_symmetry_Int_Tables_number	1
_symmetry_cell_setting	triclinic
loop_
_symmetry_equiv_pos_as_xyz
  x,y,z
_cell_length_a	8.559649
_cell_length_b	7.088929
_cell_length_c	19.288865
_cell_angle_alpha	83.792764
_cell_angle_beta	103.542544
_cell_angle_gamma	84.675495
loop_
_atom_site_label
_atom_site_type_symbol
_atom_site_fract_x
_atom_site_fract_y
_atom_site_fract_z
O1	O	2.103838	0.158976	0.015555
O2	O	1.638375	0.158990	-0.020331
O3	O	1.884560	0.158945	0.099443
O4	O	1.857653	0.159021	-0.104219
O5	O	1.917461	-0.159037	0.115482
O6	O	1.671275	-0.158991	-0.004292
O7	O	2.136739	-0.159006	0.031594
Cu8	Cu	1.907011	-0.188032	0.015115
Cu9	Cu	1.868102	0.188017	-0.003852
O10	O	1.890553	-0.158960	-0.088180
C11	C	1.595275	0.000001	-0.015031
C12	C	1.417837	0.000005	-0.023126
N13	N	1.934389	-0.452526	0.028457
C14	C	2.179838	-0.000012	0.026294
C15	C	2.357275	-0.000004	0.034388
C16	C	1.900145	-0.000052	0.133295
C17	C	1.897549	-0.000068	0.210264
N18	N	1.840737	0.452510	-0.017188
C19	C	1.874968	0.000041	-0.122032
C20	C	1.877563	0.000070	-0.199002
C21	C	2.041998	-0.000082	0.262470
C22	C	2.039554	-0.000052	0.334789
C23	C	1.892657	-0.000046	0.354900
C24	C	1.748187	-0.000021	0.302682
C25	C	1.750634	-0.000032	0.230365
C26	C	1.788702	-0.111424	0.462802
C27	C	1.786263	-0.111425	0.535120
C28	C	1.885105	-0.000003	0.577951
C29	C	1.986415	0.111395	0.548459
C30	C	1.988861	0.111384	0.476141
C31	C	1.889988	-0.000033	0.433314
C32	C	2.026913	0.000019	0.708574
C33	C	2.024462	0.000061	0.780892
C34	C	1.733093	0.000072	0.748785
C35	C	1.735547	0.000049	0.676467
C36	C	1.882462	0.000013	0.656367
H37	H	1.441182	-0.000024	0.089826
H38	H	1.708211	-0.202168	0.427934
O39	O	1.677003	-0.231581	0.566923
H40	H	1.691923	-0.212879	0.624408
O41	O	1.589744	-0.000015	0.324368
H42	H	1.533762	-0.129608	0.309328
O43	O	1.712134	-0.439336	-0.079838
H44	H	1.714378	-0.283380	-0.078723
O45	O	1.574650	0.000063	0.770467
H46	H	1.553157	0.129664	0.796105
H47	H	2.161627	-0.000105	0.246109
H48	H	1.333937	0.000045	-0.078561
O49	O	2.062974	-0.560688	0.091120
H50	H	2.060711	-0.716644	0.090016
O51	O	2.195359	-0.000093	0.391112
H52	H	2.297929	-0.000135	0.364986
O53	O	2.098093	0.231554	0.444325
H54	H	2.166406	0.309055	0.486250
O55	O	2.093025	0.231599	0.594641
H56	H	2.074292	0.212920	0.649880
H57	H	1.633002	-0.000022	0.187857
H58	H	2.146540	-0.000002	0.692207
H59	H	2.142094	0.000060	0.823399
O60	O	1.579753	0.000017	0.620154
H61	H	1.477194	0.000003	0.646287
