data_functionalizedCrystal
_audit_creation_method	'MofGen! by Chris Wilmer'
_symmetry_space_group_name_H-M	'P1'
_symmetry_Int_Tables_number	1
_symmetry_cell_setting	triclinic
loop_
_symmetry_equiv_pos_as_xyz
  x,y,z
_cell_length_a	9.065218
_cell_length_b	23.532357
_cell_length_c	8.140239
_cell_angle_alpha	89.990966
_cell_angle_beta	89.997198
_cell_angle_gamma	83.922088
loop_
_atom_site_label
_atom_site_type_symbol
_atom_site_fract_x
_atom_site_fract_y
_atom_site_fract_z
O1	O	1.956245	0.083499	-0.136641
O2	O	1.526619	0.090348	-0.136645
O3	O	1.754426	0.004085	-0.136609
O4	O	1.728438	0.169762	-0.136677
O5	O	1.754413	0.004084	0.136618
O6	O	1.526607	0.090347	0.136582
O7	O	1.956232	0.083498	0.136586
Zn8	Zn	1.741417	0.086922	0.179965
Zn9	Zn	1.741434	0.086924	-0.180024
O10	O	1.728426	0.169761	0.136550
C11	C	1.471659	0.089689	-0.000032
C12	C	1.307914	0.087721	-0.000032
C13	C	1.753769	-0.017137	0.000009
C14	C	1.751815	-0.080370	0.000025
C15	C	1.739553	-0.472470	-0.149000
C16	C	1.737695	-0.531883	-0.149010
O17	O	1.736690	-0.562607	-0.275674
N18	N	1.736767	-0.561602	-0.000075
C19	C	1.737682	-0.531904	0.148878
O20	O	1.736720	-0.562637	0.275557
C21	C	1.739529	-0.472491	0.148885
C22	C	1.740472	-0.442776	-0.000058
C23	C	1.740494	-0.442755	-0.297932
C24	C	1.742354	-0.383347	-0.297922
C25	C	1.743274	-0.353653	-0.148980
C26	C	1.742332	-0.383367	-0.000048
C27	C	1.740433	-0.442793	0.297837
C28	C	1.742279	-0.383377	0.297832
C29	C	1.743222	-0.353662	0.148888
C30	C	1.745112	-0.294265	0.148903
N31	N	1.746040	-0.264546	-0.000031
C32	C	1.745121	-0.294240	-0.148972
C33	C	1.733800	-0.656674	0.148850
C34	C	1.731963	-0.716086	0.148844
C35	C	1.731974	-0.716061	-0.149044
C36	C	1.733821	-0.656649	-0.149036
C37	C	1.734728	-0.626955	-0.000084
C38	C	1.749029	-0.169477	-0.148940
C39	C	1.750896	-0.110063	-0.148917
C40	C	1.750877	-0.110093	0.148970
C41	C	1.749019	-0.169502	0.148948
C42	C	1.748089	-0.199192	-0.000021
O43	O	1.746112	-0.263503	0.275503
O44	O	1.746063	-0.263499	-0.275630
C45	C	2.011192	0.084157	-0.000031
C46	C	2.174937	0.086125	-0.000042
C47	C	1.729082	0.190983	-0.000072
C48	C	1.731036	0.254216	-0.000099
N49	N	1.741417	0.086921	0.425647
N50	N	1.741446	0.086921	-0.425706
H51	H	1.751667	-0.085872	-0.270210
H52	H	1.751633	-0.085905	0.270234
H53	H	1.748265	-0.193644	-0.270244
C54	C	1.733618	-0.662676	0.443301
C55	C	1.734819	-0.624038	0.312594
H56	H	1.734253	-0.642529	0.544386
H57	H	1.646866	-0.681945	0.437093
H58	H	1.818939	-0.689751	0.437078
H59	H	1.649492	-0.596965	0.318809
H60	H	1.821579	-0.604760	0.318805
H61	H	1.743117	-0.359158	-0.419207
H62	H	1.739740	-0.466926	-0.419225
C63	C	1.856675	-0.788666	0.321683
C64	C	1.730924	-0.748748	0.312562
H65	H	1.856022	-0.808826	0.422762
H66	H	1.855854	-0.814853	0.232990
H67	H	1.943432	-0.769389	0.315509
H68	H	1.644166	-0.768025	0.318723
H69	H	1.731732	-0.722558	0.401279
H70	H	1.739667	-0.466977	0.419123
C71	C	1.729111	-0.807129	-0.281304
C72	C	1.730944	-0.748708	-0.312768
H73	H	1.728466	-0.827283	-0.382376
H74	H	1.814839	-0.820768	-0.220123
H75	H	1.642767	-0.812957	-0.220096
H76	H	1.817294	-0.742879	-0.373966
H77	H	1.645207	-0.735065	-0.373974
C78	C	1.620126	-0.230585	0.321754
C79	C	1.748018	-0.202176	0.312655
H80	H	1.619513	-0.250757	0.422816
H81	H	1.534831	-0.203504	0.315594
H82	H	1.619315	-0.256768	0.233032
H83	H	1.748824	-0.175989	0.401371
H84	H	1.833336	-0.229260	0.318831
H85	H	1.734587	-0.632459	-0.270319
H86	H	1.742995	-0.359202	0.419129
