data_functionalizedCrystal
_audit_creation_method	'MofGen! by Chris Wilmer'
_symmetry_space_group_name_H-M	'P1'
_symmetry_Int_Tables_number	1
_symmetry_cell_setting	triclinic
loop_
_symmetry_equiv_pos_as_xyz
  x,y,z
_cell_length_a	14.853567
_cell_length_b	16.992695
_cell_length_c	16.053802
_cell_angle_alpha	87.249318
_cell_angle_beta	87.415238
_cell_angle_gamma	92.848423
loop_
_atom_site_label
_atom_site_type_symbol
_atom_site_fract_x
_atom_site_fract_y
_atom_site_fract_z
O1	O	1.200023	-0.105674	0.069373
O2	O	0.938424	-0.117870	0.069387
O3	O	1.068175	0.002372	0.069373
O4	O	1.070272	-0.225916	0.069387
O5	O	1.075310	0.008970	-0.069486
O6	O	0.945559	-0.111272	-0.069472
O7	O	1.207158	-0.099075	-0.069487
Zn8	Zn	1.077491	-0.104126	-0.091527
Zn9	Zn	1.068090	-0.112820	0.091427
O10	O	1.077407	-0.219318	-0.069473
C11	C	0.908363	-0.114019	-0.000041
C12	C	0.808162	-0.112363	-0.000036
N13	N	1.061675	-0.118747	0.216288
C14	C	1.069044	0.034887	-0.000056
C15	C	1.060994	0.121940	-0.000055
C16	C	0.390092	-0.033936	-0.000059
C17	C	0.378897	-0.176786	-0.000050
C18	C	0.473041	-0.178343	-0.000047
C19	C	0.525714	-0.107696	-0.000049
C20	C	0.484245	-0.035491	-0.000053
C21	C	0.514517	-0.250547	-0.000034
C22	C	0.608666	-0.252107	-0.000030
C23	C	0.661342	-0.181458	-0.000038
C24	C	0.619867	-0.109251	-0.000044
C25	C	0.672540	-0.038603	-0.000045
C26	C	0.631067	0.033606	-0.000057
C27	C	0.536920	0.035158	-0.000061
C28	C	0.755489	-0.183011	-0.000034
C29	C	0.766693	-0.040158	-0.000040
C30	C	1.237218	-0.102927	-0.000057
C31	C	1.337419	-0.104583	-0.000057
C32	C	1.076537	-0.251833	-0.000042
C33	C	1.084587	-0.338886	-0.000037
C34	C	1.138669	0.172096	-0.000061
C35	C	1.131099	0.253890	-0.000052
C36	C	1.045853	0.285527	-0.000045
C37	C	0.968172	0.235364	-0.000037
C38	C	0.975742	0.153571	-0.000039
C39	C	1.014476	0.529158	-0.000032
C40	C	1.006912	0.610958	-0.000032
C41	C	1.169840	0.629478	-0.000045
C42	C	1.177404	0.547683	-0.000053
C43	C	1.099722	0.497527	-0.000041
N44	N	1.038114	0.369134	-0.000039
N45	N	1.107462	0.413921	-0.000041
N46	N	1.083913	-0.098192	-0.216388
C47	C	1.117004	-0.067682	0.259976
C48	C	1.112514	-0.071827	0.347383
C49	C	1.052690	-0.127034	0.391101
C50	C	0.997359	-0.178104	0.347407
C51	C	1.001854	-0.173963	0.260001
C52	C	1.033077	-0.145121	0.652513
C53	C	1.028584	-0.149258	0.739924
C54	C	1.143741	-0.042981	0.739895
C55	C	1.148227	-0.038841	0.652488
C56	C	1.092899	-0.089914	0.608801
N57	N	1.048097	-0.131270	0.480445
N58	N	1.097497	-0.085681	0.519458
H59	H	0.809574	0.017373	-0.000045
H60	H	0.642425	-0.310904	-0.000021
H61	H	0.948651	-0.223059	0.383006
H62	H	0.673966	0.091127	-0.000053
Br63	Br	0.891213	0.653894	-0.000030
Br64	Br	1.236522	0.321957	-0.000059
H65	H	1.196941	0.006113	0.616895
Br66	Br	0.480630	0.133146	-0.000074
H67	H	0.336005	-0.234304	-0.000041
H68	H	1.165716	-0.022724	0.224387
H69	H	1.188788	-0.001400	0.775473
H70	H	0.979864	-0.194216	0.775515
Br71	Br	0.333812	0.064058	-0.000082
Br72	Br	0.909050	0.461100	-0.000010
H73	H	0.471623	-0.308065	-0.000024
H74	H	1.233084	0.670323	-0.000054
H75	H	0.988025	-0.186706	0.616950
H76	H	1.208086	0.146344	-0.000072
Br77	Br	0.852478	0.278299	-0.000013
Br78	Br	0.811771	-0.281000	-0.000008
H79	H	0.956800	-0.215546	0.224431
H80	H	0.912490	0.112734	-0.000035
Br81	Br	1.293098	0.504751	-0.000036
H82	H	1.157568	-0.030246	0.382954
