data_functionalizedCrystal
_audit_creation_method	'MofGen! by Chris Wilmer'
_symmetry_space_group_name_H-M	'P1'
_symmetry_Int_Tables_number	1
_symmetry_cell_setting	triclinic
loop_
_symmetry_equiv_pos_as_xyz
  x,y,z
_cell_length_a	19.805407
_cell_length_b	16.959454
_cell_length_c	19.805399
_cell_angle_alpha	90.022387
_cell_angle_beta	90.019573
_cell_angle_gamma	90.020075
loop_
_atom_site_label
_atom_site_type_symbol
_atom_site_fract_x
_atom_site_fract_y
_atom_site_fract_z
Zn1	Zn	1.034765	-0.314700	0.382744
Zn2	Zn	1.534765	0.185300	0.882744
Zn3	Zn	1.034693	-0.446882	0.269566
Zn4	Zn	1.534693	0.053118	0.769566
Zn5	Zn	0.921580	-0.314722	0.269569
Zn6	Zn	1.421580	0.185278	0.769569
Zn7	Zn	0.921556	-0.446840	0.382713
Zn8	Zn	1.421556	0.053160	0.882713
O9	O	0.978149	-0.380786	0.326148
O10	O	1.478149	0.119214	0.826148
O11	O	1.129472	-0.332243	0.367743
O12	O	1.629472	0.167757	0.867743
O13	O	1.019668	-0.429378	0.174850
O14	O	1.519668	0.070622	0.674850
O15	O	0.936635	-0.204108	0.284596
O16	O	1.436635	0.295892	0.784596
O17	O	1.129419	-0.429356	0.284591
O18	O	1.629419	0.070644	0.784591
O19	O	1.019792	-0.204092	0.367745
O20	O	1.519792	0.295908	0.867745
O21	O	0.936564	-0.332280	0.174852
O22	O	1.436564	0.167720	0.674852
O23	O	0.826860	-0.332239	0.284565
O24	O	1.326860	0.167761	0.784565
O25	O	0.936594	-0.429285	0.477434
O26	O	1.436594	0.070715	0.977434
O27	O	0.826843	-0.429306	0.367692
O28	O	1.326843	0.070694	0.867692
O29	O	1.019768	-0.332202	0.477457
O30	O	1.519768	0.167798	0.977457
O31	O	1.019645	-0.557488	0.284561
O32	O	1.519645	-0.057488	0.784561
O33	O	0.936524	-0.557457	0.367690
O34	O	1.436524	-0.057457	0.867690
C35	C	0.802293	-0.380771	0.326126
C36	C	1.302293	0.119229	0.826126
C37	C	0.727061	-0.380783	0.326133
C38	C	1.227061	0.119217	0.826133
C39	C	0.691725	-0.431402	0.369347
C40	C	1.191725	0.068598	0.869347
C41	C	0.621037	-0.431404	0.369356
C42	C	1.121037	0.068596	0.869356
C43	C	0.585685	-0.380790	0.326148
C44	C	1.085685	0.119210	0.826148
C45	C	0.621026	-0.330165	0.282932
C46	C	1.121026	0.169835	0.782932
C47	C	0.691713	-0.330160	0.282926
C48	C	1.191713	0.169840	0.782926
C49	C	0.335952	-0.330183	0.282954
C50	C	0.835952	0.169817	0.782954
C51	C	0.265260	-0.330193	0.282962
C52	C	0.765260	0.169807	0.782962
C53	C	0.265276	-0.431426	0.369384
C54	C	0.765276	0.068574	0.869384
C55	C	0.335963	-0.431421	0.369379
C56	C	0.835963	0.068579	0.869379
C57	C	0.371298	-0.380794	0.326166
C58	C	0.871298	0.119206	0.826166
C59	C	0.447946	-0.380792	0.326157
C60	C	0.947946	0.119208	0.826157
C61	C	0.509038	-0.380795	0.326153
C62	C	1.009038	0.119205	0.826153
C63	C	0.978092	-0.586152	0.326136
C64	C	1.478092	-0.086152	0.826136
C65	C	0.978130	-0.674009	0.326154
C66	C	1.478130	-0.174009	0.826154
C67	C	0.934930	-1.045498	0.369428
C68	C	1.434930	-0.545498	0.869428
C69	C	1.021555	-1.045470	0.282937
C70	C	1.521555	-0.545470	0.782937
C71	C	1.021532	-0.962925	0.282930
C72	C	1.521532	-0.462925	0.782930
C73	C	0.978206	-0.921662	0.326173
C74	C	1.478206	-0.421662	0.826173
C75	C	0.934904	-0.962945	0.369422
C76	C	1.434904	-0.462945	0.869422
C77	C	1.064828	-0.921635	0.239677
C78	C	1.564828	-0.421635	0.739677
C79	C	1.064806	-0.839085	0.239669
C80	C	1.564806	-0.339085	0.739669
C81	C	1.021483	-0.797820	0.282915
C82	C	1.521483	-0.297820	0.782915
C83	C	0.978180	-0.839108	0.326167
C84	C	1.478180	-0.339108	0.826167
C85	C	0.934854	-0.797845	0.369409
C86	C	1.434854	-0.297845	0.869409
C87	C	0.891553	-0.839132	0.412665
C88	C	1.391553	-0.339132	0.912665
C89	C	0.891581	-0.921680	0.412669
C90	C	1.391581	-0.421680	0.912669
C91	C	1.021455	-0.715272	0.282911
C92	C	1.521455	-0.215272	0.782911
C93	C	0.934827	-0.715292	0.369403
C94	C	1.434827	-0.215292	0.869403
C95	C	1.154691	-0.380802	0.326170
C96	C	1.654691	0.119198	0.826170
C97	C	1.229923	-0.380808	0.326180
C98	C	1.729923	0.119192	0.826180
C99	C	0.978187	-0.380736	0.502691
C100	C	1.478187	0.119264	1.002691
C101	C	0.978203	-0.380715	0.577923
C102	C	1.478203	0.119285	1.077923
C103	C	0.978224	-0.174618	0.326174
C104	C	1.478224	0.325382	0.826174
C105	C	0.978256	-0.086761	0.326186
C106	C	1.478256	0.413239	0.826186
C107	C	0.978150	-0.380779	0.150292
C108	C	1.478150	0.119221	0.650292
C109	C	0.978265	-0.380577	0.075060
C110	C	1.478265	0.119423	0.575060
C111	C	1.021513	-0.330161	0.613280
C112	C	1.521513	0.169839	1.113280
C113	C	1.021520	-0.330138	0.683968
C114	C	1.521520	0.169862	1.183968
C115	C	0.978220	-0.380674	0.719298
C116	C	1.478220	0.119326	1.219298
C117	C	0.934905	-0.431230	0.683936
C118	C	1.434905	0.068770	1.183936
C119	C	0.934895	-0.431248	0.613249
C120	C	1.434895	0.068752	1.113249
C121	C	0.934943	-0.431156	0.969010
C122	C	1.434943	0.068844	1.469010
C123	C	0.934958	-0.431135	1.039702
C124	C	1.434958	0.068865	1.539702
C125	C	1.021568	-0.330046	1.039729
C126	C	1.521568	0.169954	1.539729
C127	C	1.021558	-0.330065	0.969042
C128	C	1.521558	0.169935	1.469042
C129	C	0.978241	-0.380617	0.933686
C130	C	1.478241	0.119383	1.433686
C131	C	0.978233	-0.380641	0.857037
C132	C	1.478233	0.119359	1.357037
C133	C	0.978230	-0.380655	0.795946
C134	C	1.478230	0.119345	1.295946
H135	H	0.720503	-0.472621	0.404530
H136	H	1.220503	0.027379	0.904530
H137	H	0.592237	-0.288951	0.247754
H138	H	1.092237	0.211049	0.747754
O139	O	0.726116	-0.281102	0.240913
O140	O	1.226116	0.218898	0.740913
C141	C	0.766963	-0.326036	0.197118
C142	C	1.266963	0.173964	0.697118
H143	H	0.777546	-0.385973	0.220902
H144	H	1.277546	0.114027	0.720902
H145	H	0.816675	-0.293823	0.188093
H146	H	1.316675	0.206177	0.688093
H147	H	0.739699	-0.334644	0.146947
H148	H	1.239699	0.165356	0.646947
O149	O	1.106902	-0.798895	0.197751
O150	O	1.606902	-0.298895	0.697751
C151	C	1.150592	-0.751106	0.236328
C152	C	1.650592	-0.251106	0.736328
H153	H	1.126685	-0.738732	0.287598
H154	H	1.626685	-0.238732	0.787598
H155	H	1.159664	-0.693064	0.208765
H156	H	1.659664	-0.193064	0.708765
H157	H	1.200756	-0.782876	0.243814
H158	H	1.700756	-0.282876	0.743814
O159	O	1.063682	-0.281081	0.934688
O160	O	1.563682	0.218919	1.434688
C161	C	1.107365	-0.326085	0.893781
C162	C	1.607365	0.173915	1.393781
H163	H	1.111544	-0.388333	0.915075
H164	H	1.611544	0.111667	1.415075
H165	H	1.159459	-0.297487	0.892982
H166	H	1.659459	0.202513	1.392982
H167	H	1.086419	-0.328827	0.840208
H168	H	1.586419	0.171173	1.340208
H169	H	1.056707	-0.681660	0.247691
H170	H	1.556707	-0.181660	0.747691
O171	O	0.370237	-0.281090	0.240880
O172	O	0.870237	0.218910	0.740880
C173	C	0.352916	-0.298248	0.173397
C174	C	0.852916	0.201752	0.673397
H175	H	0.333476	-0.361394	0.169888
H176	H	0.833476	0.138606	0.669888
H177	H	0.399388	-0.291373	0.139962
H178	H	0.899388	0.208627	0.639962
H179	H	0.311881	-0.255853	0.155775
H180	H	0.811881	0.244147	0.655775
H181	H	0.899549	-0.681701	0.404619
H182	H	1.399549	-0.181701	0.904619
H183	H	1.056775	-0.289012	0.584519
H184	H	1.556775	0.210988	1.084519
O185	O	0.849565	-0.799008	0.454741
O186	O	1.349565	-0.299008	0.954741
C187	C	0.888063	-0.751181	0.498470
C188	C	1.388063	-0.251181	0.998470
H189	H	0.941376	-0.776014	0.502705
H190	H	1.441376	-0.276014	1.002705
H191	H	0.863554	-0.750223	0.550537
H192	H	1.363554	-0.250223	1.050537
H193	H	0.890390	-0.688633	0.477530
H194	H	1.390390	-0.188633	0.977530
H195	H	0.236479	-0.288972	0.247776
H196	H	0.736479	0.211028	0.747776
O197	O	0.892988	-0.480311	1.074051
O198	O	1.392988	0.019689	1.574051
C199	C	0.931510	-0.531347	1.114949
C200	C	1.431510	-0.031347	1.614949
H201	H	0.984812	-0.536243	1.093653
H202	H	1.484812	-0.036243	1.593653
H203	H	0.907005	-0.592173	1.115739
H204	H	1.407005	-0.092173	1.615739
H205	H	0.933864	-0.506895	1.168526
H206	H	1.433864	-0.006895	1.668526
O207	O	1.063657	-0.281009	0.718210
O208	O	1.563657	0.218991	1.218210
C209	C	1.101864	-0.236400	0.671869
C210	C	1.601864	0.263600	1.171869
H211	H	1.104187	-0.268791	0.621477
H212	H	1.604187	0.231209	1.121477
H213	H	1.155200	-0.227972	0.692304
H214	H	1.655200	0.272028	1.192304
H215	H	1.077104	-0.176365	0.664353
H216	H	1.577104	0.323635	1.164353
O217	O	0.586816	-0.480659	0.411348
O218	O	1.086816	0.019341	0.911348
C219	C	0.633176	-0.525324	0.449488
C220	C	1.133176	-0.025324	0.949488
H221	H	0.683553	-0.528004	0.421757
H222	H	1.183553	-0.028004	0.921757
H223	H	0.612743	-0.587618	0.456606
H224	H	1.112743	-0.087618	0.956606
H225	H	0.640720	-0.496471	0.500941
H226	H	1.140720	0.003529	1.000941
H227	H	1.056836	-0.288881	1.068524
H228	H	1.556836	0.211119	1.568524
O229	O	0.849425	-0.961697	0.454647
O230	O	1.349425	-0.461697	0.954647
C231	C	0.781968	-0.941603	0.439779
C232	C	1.281968	-0.441603	0.939779
H233	H	0.780563	-0.881681	0.413756
H234	H	1.280563	-0.381681	0.913756
H235	H	0.751587	-0.938780	0.488599
H236	H	1.251587	-0.438780	0.988599
H237	H	0.759206	-0.988099	0.404960
H238	H	1.259206	-0.488099	0.904960
H239	H	0.899682	-0.472330	0.940231
H240	H	1.399682	0.027670	1.440231
H241	H	0.899678	-1.079117	0.404647
H242	H	1.399678	-0.579117	0.904647
H243	H	0.899647	-0.472373	0.712708
H244	H	1.399647	0.027627	1.212708
H245	H	0.364743	-0.472639	0.404561
H246	H	0.864743	0.027361	0.904561
H247	H	0.236498	-0.472646	0.404573
H248	H	0.736498	0.027354	0.904573
H249	H	1.100097	-0.955238	0.204466
H250	H	1.600097	-0.455238	0.704466
H251	H	0.899621	-0.472406	0.584462
H252	H	1.399621	0.027594	1.084462
O253	O	1.063592	-1.085672	0.240971
O254	O	1.563592	-0.585672	0.740971
C255	C	1.054302	-1.167385	0.250222
C256	C	1.554302	-0.667385	0.750222
H257	H	1.032138	-1.178658	0.302449
H258	H	1.532138	-0.678658	0.802449
H259	H	1.105001	-1.198737	0.245639
H260	H	1.605001	-0.698737	0.745639
H261	H	1.018255	-1.190835	0.210061
H262	H	1.518255	-0.690835	0.710061
