data_functionalizedCrystal
_audit_creation_method	'MofGen! by Chris Wilmer'
_symmetry_space_group_name_H-M	'P1'
_symmetry_Int_Tables_number	1
_symmetry_cell_setting	triclinic
loop_
_symmetry_equiv_pos_as_xyz
  x,y,z
_cell_length_a	6.817900
_cell_length_b	19.551786
_cell_length_c	19.453114
_cell_angle_alpha	96.326965
_cell_angle_beta	101.709288
_cell_angle_gamma	101.662645
loop_
_atom_site_label
_atom_site_type_symbol
_atom_site_fract_x
_atom_site_fract_y
_atom_site_fract_z
V1	V	-3.997765	-0.097403	-0.219328
O2	O	-3.995107	0.003932	-0.214817
O3	O	-3.940558	-0.192414	-0.218150
O4	O	-3.940789	-0.096233	-0.314837
O5	O	-3.994875	-0.092914	-0.117461
V6	V	-4.483646	-0.085243	-0.207104
O7	O	-4.253852	-0.124076	-0.246140
O8	O	-4.677756	-0.058570	-0.180292
O9	O	-4.317646	0.009767	-0.208282
O10	O	-4.603700	-0.186578	-0.211615
O11	O	-4.603932	-0.089732	-0.308971
O12	O	-4.317416	-0.086413	-0.111595
C13	C	-3.783694	-0.215565	-0.214773
C14	C	-3.818151	-0.293240	-0.214448
C15	C	-3.783987	-0.092876	-0.338106
C16	C	-3.818628	-0.092549	-0.416187
C17	C	-4.034896	-0.842775	-0.147822
C18	C	-4.002502	-0.769790	-0.148121
C19	C	-4.017890	-0.743445	-0.212590
C20	C	-4.065624	-0.790091	-0.276763
C21	C	-4.097996	-0.863074	-0.276461
C22	C	-4.107630	-0.637957	-0.265030
C23	C	-4.075270	-0.564975	-0.265329
C24	C	-3.918036	-0.518341	-0.213522
C25	C	-3.793187	-0.544697	-0.161404
C26	C	-3.825559	-0.617680	-0.161103
C27	C	-3.982790	-0.664308	-0.212924
C28	C	-3.835169	-0.392566	-0.149677
C29	C	-3.802764	-0.319579	-0.149978
C30	C	-3.865907	-0.339883	-0.278622
C31	C	-3.898291	-0.412867	-0.278319
C32	C	-3.882928	-0.439204	-0.213844
C33	C	-4.016359	-0.095902	-0.456455
C34	C	-4.048908	-0.095594	-0.529821
C35	C	-3.883722	-0.091947	-0.562918
C36	C	-3.685961	-0.088589	-0.522639
C37	C	-3.653414	-0.088890	-0.449274
N38	N	-3.820558	-0.128847	-0.681831
N39	N	-3.851490	-0.128563	-0.751526
C40	C	-3.981772	-0.091039	-0.783963
N41	N	-4.079990	-0.053818	-0.744075
N42	N	-4.049063	-0.054105	-0.674374
C43	C	-3.918993	-0.091620	-0.642470
C44	C	-4.214809	-0.094057	-0.903783
C45	C	-4.247349	-0.093745	-0.977149
C46	C	-3.884399	-0.086747	-0.969967
C47	C	-3.851861	-0.087052	-0.896601
C48	C	-4.017075	-0.090711	-0.863514
C49	C	-4.137852	0.032915	-0.211656
C50	C	-4.082633	0.110589	-0.211987
C51	C	-4.137559	-0.089772	-0.088322
C52	C	-4.082157	-0.090097	-0.010240
H53	H	-4.022379	-0.864213	-0.095322
Br54	Br	-3.814302	-0.428313	-0.062178
Br55	Br	-3.461773	-0.083634	-0.567553
Br56	Br	-4.515720	-0.098293	-1.031801
H57	H	-4.235667	-0.675923	-0.307223
H58	H	-4.349335	-0.097034	-0.876842
H59	H	-4.150891	-0.098878	-0.429520
Br60	Br	-3.660199	-0.081780	-1.014873
Br61	Br	-3.385044	-0.084340	-0.394620
H62	H	-4.078146	-0.768637	-0.329254
H63	H	-4.136867	-0.901046	-0.328714
Br64	Br	-3.583501	-0.082511	-0.841949
Br65	Br	-3.579763	-0.481417	-0.091096
H66	H	-3.723896	-0.639135	-0.118668
Br67	Br	-3.937703	-0.706485	-0.061034
Br68	Br	-3.737947	-0.256284	-0.062889
H69	H	-3.878427	-0.318434	-0.331114
H70	H	-4.176935	-0.543523	-0.307766
Br71	Br	-3.963011	-0.476162	-0.365403
Br72	Br	-4.317276	-0.100138	-0.584482
