data_functionalizedCrystal
_audit_creation_method	'MofGen! by Chris Wilmer'
_symmetry_space_group_name_H-M	'P1'
_symmetry_Int_Tables_number	1
_symmetry_cell_setting	triclinic
loop_
_symmetry_equiv_pos_as_xyz
  x,y,z
_cell_length_a	11.792241
_cell_length_b	11.026607
_cell_length_c	10.065875
_cell_angle_alpha	100.697662
_cell_angle_beta	98.849501
_cell_angle_gamma	83.610284
loop_
_atom_site_label
_atom_site_type_symbol
_atom_site_fract_x
_atom_site_fract_y
_atom_site_fract_z
O1	O	0.462836	-1.630965	-0.113504
O2	O	0.796169	-1.297632	0.219829
O3	O	1.129502	-0.964299	0.553163
O4	O	0.408644	-1.277303	-0.113505
O5	O	0.741977	-0.943969	0.219829
O6	O	1.075311	-0.610636	0.553162
O7	O	0.272275	-1.462715	-0.113495
O8	O	0.605608	-1.129382	0.219839
O9	O	0.938941	-0.796048	0.553172
O10	O	0.599205	-1.445553	-0.113514
O11	O	0.932538	-1.112220	0.219819
O12	O	1.265872	-0.778887	0.553153
O13	O	0.298412	-1.427360	0.113492
O14	O	0.631745	-1.094027	0.446825
O15	O	0.965078	-0.760694	0.780159
O16	O	0.434781	-1.241948	0.113482
O17	O	0.768115	-0.908615	0.446816
O18	O	1.101448	-0.575281	0.780149
O19	O	0.488973	-1.595611	0.113483
O20	O	0.822306	-1.262277	0.446816
O21	O	1.155640	-0.928944	0.780150
Zn22	Zn	0.466027	-1.413166	0.149522
Zn23	Zn	0.799360	-1.079833	0.482855
Zn24	Zn	1.132694	-0.746499	0.816188
Zn25	Zn	0.431590	-1.459747	-0.149543
Zn26	Zn	0.764923	-1.126414	0.183790
Zn27	Zn	1.098257	-0.793081	0.517123
O28	O	0.625342	-1.410198	0.113473
O29	O	0.958676	-1.076865	0.446806
O30	O	1.292009	-0.743532	0.780140
C31	C	0.411715	-1.214349	-0.000011
C32	C	0.745048	-0.881015	0.333322
C33	C	1.078382	-0.547682	0.666656
C34	C	0.381912	-1.079439	-0.000011
C35	C	0.715246	-0.746105	0.333322
C36	C	1.048579	-0.412772	0.666656
C37	C	0.242838	-1.443960	-0.000002
C38	C	0.576171	-1.110626	0.333332
C39	C	0.909505	-0.777293	0.666665
C40	C	0.116183	-1.440732	-0.000003
C41	C	0.449517	-1.107399	0.333330
C42	C	0.782850	-0.774066	0.666664
N43	N	0.489530	-1.381384	0.353626
N44	N	0.822864	-1.048051	0.686959
N45	N	1.156197	-0.714718	1.020292
C46	C	-0.115710	-1.434802	-0.000026
C47	C	0.217624	-1.101468	0.333307
C48	C	0.550957	-0.768135	0.666641
C49	C	0.013332	-1.438097	-0.000013
C50	C	0.346665	-1.104764	0.333320
C51	C	0.679998	-0.771430	0.666653
C52	C	0.654778	-1.428954	-0.000023
C53	C	0.988112	-1.095621	0.333310
C54	C	1.321445	-0.762288	0.666644
C55	C	0.781432	-1.432183	-0.000031
C56	C	1.114765	-1.098850	0.333303
C57	C	1.448099	-0.765516	0.666636
C58	C	0.485901	-1.658565	-0.000014
C59	C	0.819235	-1.325232	0.333320
C60	C	1.152568	-0.991898	0.666653
C61	C	0.515703	-1.793477	-0.000023
C62	C	0.849036	-1.460143	0.333311
C63	C	1.182370	-1.126810	0.666644
C64	C	0.464202	-1.006175	-0.000017
C65	C	0.797535	-0.672842	0.333316
C66	C	1.130869	-0.339509	0.666650
C67	C	0.433401	-0.866738	-0.000017
C68	C	0.766735	-0.533405	0.333316
C69	C	1.100068	-0.200072	0.666650
N70	N	0.408079	-1.491539	-0.353647
N71	N	0.741413	-1.158205	-0.020314
N72	N	1.074746	-0.824872	0.313019
C73	C	0.439759	-1.448682	0.421408
C74	C	0.773092	-1.115349	0.754741
C75	C	1.106425	-0.782015	1.088075
C76	C	0.457858	-1.424231	0.578574
C77	C	0.791192	-1.090898	0.911907
C78	C	1.124525	-0.757565	1.245241
H79	H	0.557456	-1.046680	-0.000015
H80	H	0.890790	-0.713347	0.333319
H81	H	1.224123	-0.380013	0.666652
H82	H	0.545537	-1.305662	0.411948
H83	H	0.878870	-0.972329	0.745281
H84	H	1.212203	-0.638996	1.078614
F85	F	0.366302	-1.547434	0.345182
F86	F	0.699635	-1.214101	0.678516
F87	F	1.032969	-0.880768	1.011849
F88	F	0.260022	-1.026500	0.000005
F89	F	0.593355	-0.693167	0.333338
F90	F	0.926688	-0.359834	0.666672
F91	F	0.311505	-0.813806	-0.000001
F92	F	0.644838	-0.480472	0.333333
F93	F	0.978171	-0.147139	0.666666
H94	H	0.352060	-1.567257	0.588036
H95	H	0.685393	-1.233923	0.921369
H96	H	1.018726	-0.900590	1.254703
H97	H	0.608964	-0.833974	-0.000019
H98	H	0.942297	-0.500640	0.333314
H99	H	1.275631	-0.167307	0.666648
F100	F	0.531067	-1.325250	0.654794
F101	F	0.864401	-0.991917	0.988128
F102	F	1.197734	-0.658584	1.321461
