data_functionalizedCrystal
_audit_creation_method	'MofGen! by Chris Wilmer'
_symmetry_space_group_name_H-M	'P1'
_symmetry_Int_Tables_number	1
_symmetry_cell_setting	triclinic
loop_
_symmetry_equiv_pos_as_xyz
  x,y,z
_cell_length_a	17.699083
_cell_length_b	10.723023
_cell_length_c	16.176319
_cell_angle_alpha	89.994236
_cell_angle_beta	89.998611
_cell_angle_gamma	83.875281
loop_
_atom_site_label
_atom_site_type_symbol
_atom_site_fract_x
_atom_site_fract_y
_atom_site_fract_z
O1	O	1.005074	0.157797	-0.068629
O2	O	0.784825	0.178327	-0.068656
O3	O	0.900030	-0.013601	-0.068638
O4	O	0.889869	0.349726	-0.068646
O5	O	0.900014	-0.013613	0.068855
O6	O	0.784809	0.178315	0.068838
O7	O	1.005058	0.157785	0.068864
Cu8	Cu	0.894932	0.168049	0.081405
Cu9	Cu	0.894951	0.168063	-0.081196
O10	O	0.889853	0.349713	0.068847
C11	C	0.756615	0.177585	0.000088
C12	C	0.672583	0.175379	0.000077
C13	C	0.899283	-0.060094	0.000107
C14	C	0.897071	-0.198611	0.000105
C15	C	0.624673	0.288036	0.000075
C16	C	0.545716	0.285955	0.000086
C17	C	0.514672	0.171215	0.000093
C18	C	0.562589	0.058549	0.000098
C19	C	0.641544	0.060631	0.000093
C20	C	0.244173	0.050148	0.000118
C21	C	0.165212	0.048075	0.000121
C22	C	0.148345	0.275473	0.000111
C23	C	0.227300	0.277555	0.000106
C24	C	0.275210	0.164889	0.000116
C25	C	0.360823	0.167147	0.000105
C26	C	0.429060	0.168956	0.000097
C27	C	0.896093	-0.260353	-0.071122
C28	C	0.893807	-0.403517	-0.071127
C29	C	1.033267	0.158527	0.000119
C30	C	1.117299	0.160734	0.000124
C31	C	0.890600	0.396206	0.000100
C32	C	0.892812	0.534723	0.000097
N33	N	0.894924	0.168038	0.195770
N34	N	0.894965	0.168064	-0.195562
C35	C	0.945953	0.083087	0.239042
C36	C	0.945956	0.083086	0.325589
C37	C	0.894935	0.168042	0.368863
C38	C	0.843901	0.252998	0.325585
C39	C	0.843894	0.252992	0.239040
C40	C	0.843927	0.253021	0.674613
C41	C	0.843939	0.253022	0.761165
C42	C	0.945989	0.083115	0.761163
C43	C	0.945982	0.083109	0.674618
C44	C	0.894946	0.168059	0.631347
C45	C	0.894942	0.168058	0.537503
C46	C	0.894942	0.168050	0.462706
H47	H	0.649942	0.381471	0.000069
C48	C	0.296863	-0.073784	0.000116
C49	C	0.292960	-0.167886	0.071511
C50	C	0.345653	-0.291827	0.071506
C51	C	0.402250	-0.321667	0.000107
C52	C	0.406155	-0.227563	-0.071293
C53	C	0.353462	-0.103622	-0.071288
H54	H	0.251062	-0.145799	0.124370
H55	H	0.342762	-0.361489	0.124362
H56	H	0.441256	-0.413415	0.000103
H57	H	0.448053	-0.249650	-0.124152
H58	H	0.356353	-0.033960	-0.124144
C59	C	0.694249	-0.063294	0.000093
C60	C	0.690353	-0.157387	0.071494
C61	C	0.743058	-0.281315	0.071499
C62	C	0.799660	-0.311151	0.000104
C63	C	0.803558	-0.217055	-0.071302
C64	C	0.750853	-0.093127	-0.071307
H65	H	0.648452	-0.135303	0.124350
H66	H	0.740172	-0.350971	0.124359
H67	H	0.838675	-0.402890	0.000108
H68	H	0.845459	-0.239139	-0.124158
H69	H	0.753739	-0.023472	-0.124167
C70	C	0.787796	0.346470	0.627019
C71	C	0.731697	0.439962	0.674614
C72	C	0.675565	0.533417	0.627013
C73	C	0.675532	0.533380	0.531816
C74	C	0.731634	0.439885	0.484215
C75	C	0.787766	0.346430	0.531817
H76	H	0.731719	0.439993	0.745089
H77	H	0.634035	0.602628	0.662251
H78	H	0.633980	0.602561	0.496579
H79	H	0.731612	0.439854	0.413740
H80	H	0.829296	0.277219	0.496579
C81	C	0.897250	-0.188597	-0.153504
C82	C	0.831370	-0.191994	-0.215364
C83	C	0.832528	-0.120243	-0.297749
C84	C	0.899568	-0.045096	-0.318275
C85	C	0.965454	-0.041697	-0.256414
C86	C	0.964295	-0.113447	-0.174029
H87	H	0.781739	-0.247625	-0.200170
H88	H	0.783755	-0.122760	-0.343542
H89	H	0.900426	0.008018	-0.379262
H90	H	1.015085	0.013934	-0.271608
H91	H	1.013068	-0.110930	-0.128236
C92	C	0.892671	-0.475236	-0.153513
C93	C	0.958568	-0.471816	-0.215352
C94	C	0.957432	-0.543538	-0.297741
C95	C	0.890399	-0.618680	-0.318290
C96	C	0.824497	-0.622103	-0.256449
C97	C	0.825633	-0.550381	-0.174060
H98	H	1.008194	-0.416189	-0.200142
H99	H	1.006217	-0.541003	-0.343520
H100	H	0.889558	-0.671773	-0.379279
H101	H	0.774871	-0.677731	-0.271659
H102	H	0.776847	-0.552916	-0.128281
C103	C	0.893948	-0.393566	0.082486
C104	C	0.828051	-0.396986	0.144326
C105	C	0.829187	-0.325265	0.226715
C106	C	0.896220	-0.250123	0.247264
C107	C	0.962122	-0.246700	0.185422
C108	C	0.960986	-0.318421	0.103033
H109	H	0.778424	-0.452614	0.129116
H110	H	0.780401	-0.327799	0.272494
H111	H	0.897061	-0.197030	0.308253
H112	H	1.011748	-0.191072	0.200632
H113	H	1.009771	-0.315887	0.057254
C114	C	1.002078	-0.010369	0.191446
C115	C	1.058205	-0.103819	0.239049
C116	C	1.114331	-0.197281	0.191456
C117	C	1.114330	-0.197294	0.096259
C118	C	1.058201	-0.103841	0.048650
C119	C	1.002075	-0.010379	0.096244
H120	H	1.058208	-0.103812	0.309524
H121	H	1.155881	-0.266461	0.226699
H122	H	1.155877	-0.266481	0.061027
H123	H	1.058198	-0.103848	-0.021825
H124	H	0.960525	0.058801	0.061000
C125	C	0.261446	0.403773	0.000102
C126	C	0.243633	0.497276	0.071500
C127	C	0.277776	0.623497	0.071500
C128	C	0.329733	0.656214	0.000101
C129	C	0.347549	0.562709	-0.071303
C130	C	0.313405	0.436488	-0.071303
H131	H	0.205169	0.473059	0.124358
H132	H	0.264587	0.692716	0.124358
H133	H	0.355008	0.749651	0.000101
H134	H	0.386013	0.586926	-0.124161
H135	H	0.326594	0.367269	-0.124161
H136	H	0.896210	-0.251738	0.061081
C137	C	0.787763	0.346443	0.191438
C138	C	0.731666	0.439938	0.239034
C139	C	0.675530	0.533387	0.191434
C140	C	0.675491	0.533341	0.096237
C141	C	0.731590	0.439842	0.048635
C142	C	0.787726	0.346393	0.096236
H143	H	0.731693	0.439975	0.309509
H144	H	0.634002	0.602601	0.226672
H145	H	0.633936	0.602518	0.061001
H146	H	0.731563	0.439805	-0.021840
H147	H	0.829254	0.277179	0.060997
H148	H	0.506710	0.377693	0.000083
H149	H	0.802388	0.322207	0.796397
H150	H	0.987507	0.013911	0.360821
C151	C	1.002105	-0.010346	0.627016
C152	C	1.058235	-0.103800	0.674612
C153	C	1.114356	-0.197261	0.627012
C154	C	1.114348	-0.197266	0.531815
C155	C	1.058216	-0.103808	0.484214
C156	C	1.002095	-0.010348	0.531814
H157	H	1.058242	-0.103799	0.745087
H158	H	1.155908	-0.266444	0.662250
H159	H	1.155892	-0.266451	0.496578
H160	H	1.058209	-0.103809	0.413739
H161	H	0.960543	0.058836	0.496576
H162	H	0.987544	0.013939	0.796403
H163	H	0.802354	0.322167	0.360823
H164	H	0.109327	0.367211	0.000108
H165	H	0.537306	-0.034875	0.000115
H166	H	0.139939	-0.045366	0.000127
