data_functionalizedCrystal
_audit_creation_method	'MofGen! by Chris Wilmer'
_symmetry_space_group_name_H-M	'P1'
_symmetry_Int_Tables_number	1
_symmetry_cell_setting	triclinic
loop_
_symmetry_equiv_pos_as_xyz
  x,y,z
_cell_length_a	11.169417
_cell_length_b	12.594516
_cell_length_c	12.594509
_cell_angle_alpha	89.973801
_cell_angle_beta	89.982333
_cell_angle_gamma	90.016931
loop_
_atom_site_label
_atom_site_type_symbol
_atom_site_fract_x
_atom_site_fract_y
_atom_site_fract_z
Zn1	Zn	1.834889	-0.423685	-0.601771
Zn2	Zn	1.834766	-0.601695	-0.423799
Zn3	Zn	1.634183	-0.423734	-0.423811
Zn4	Zn	1.634162	-0.601625	-0.601740
O5	O	1.734500	-0.512685	-0.512780
O6	O	2.002822	-0.447308	-0.578170
O7	O	1.808115	-0.578138	-0.274855
O8	O	1.660867	-0.274782	-0.447436
O9	O	2.002732	-0.578091	-0.447415
O10	O	1.808325	-0.274746	-0.578183
O11	O	1.660747	-0.447391	-0.274864
O12	O	1.466230	-0.447322	-0.447406
O13	O	1.660832	-0.577971	-0.750690
O14	O	1.466215	-0.578018	-0.578130
O15	O	1.808305	-0.447239	-0.750713
O16	O	1.808096	-0.750632	-0.447385
O17	O	1.660713	-0.750580	-0.578118
C18	C	1.422675	-0.512669	-0.512767
C19	C	1.289275	-0.512687	-0.512786
C20	C	1.734421	-0.789226	-0.512770
C21	C	1.734498	-0.907531	-0.512801
C22	C	1.654328	-0.976795	-0.583857
C23	C	1.625086	-1.047661	-0.486735
C24	C	1.763849	-1.047464	-0.609939
C25	C	1.705197	-0.976839	-0.415628
C26	C	1.844011	-0.976636	-0.538898
C27	C	1.814811	-1.047470	-0.441709
C28	C	2.047542	-0.512702	-0.512795
C29	C	2.180942	-0.512709	-0.512801
C30	C	1.734580	-0.512592	-0.790401
C31	C	1.734615	-0.512552	-0.908707
C32	C	1.734612	-0.235064	-0.512814
C33	C	1.734659	-0.116758	-0.512829
C34	C	1.654429	-0.583616	-0.977948
C35	C	1.763942	-0.609621	-1.048733
C36	C	1.625188	-0.486483	-1.048721
C37	C	1.844184	-0.538608	-0.977934
C38	C	1.705357	-0.415424	-0.977916
C39	C	1.814944	-0.441392	-1.048669
C40	C	1.734489	-0.512701	-0.236239
C41	C	1.734687	-0.512441	-0.117935
H42	H	1.532548	-1.078881	-0.464685
C43	C	1.963612	-0.310991	-1.004419
C44	C	1.906634	-0.360203	-1.090328
H45	H	2.020225	-0.260878	-1.030140
H46	H	1.905726	-0.275661	-0.961960
H47	H	2.003544	-0.363062	-0.962904
H48	H	1.866694	-0.308132	-1.131839
H49	H	1.964529	-0.395534	-1.132805
C50	C	1.671782	-0.823967	-0.305719
C51	C	1.671616	-0.935141	-0.304715
H52	H	1.651040	-0.798226	-0.237249
H53	H	1.749269	-0.799064	-0.324352
H54	H	1.615131	-0.799215	-0.356227
H55	H	1.728273	-0.959894	-0.254212
H56	H	1.594117	-0.960054	-0.286069
C57	C	1.875488	-1.053269	-0.258928
C58	C	1.906425	-1.089114	-0.360519
H59	H	1.932040	-1.078986	-0.208804
H60	H	1.875465	-0.977859	-0.258077
H61	H	1.797983	-1.078670	-0.240998
H62	H	1.983927	-1.063706	-0.378452
H63	H	1.906460	-1.164539	-0.361372
C64	C	1.621601	-0.873621	-0.741555
C65	C	1.562652	-0.934893	-0.664861
H66	H	1.565002	-0.847758	-0.791562
H67	H	1.660400	-0.815456	-0.708101
H68	H	1.679368	-0.916102	-0.777026
H69	H	1.504891	-0.892409	-0.629384
H70	H	1.523834	-0.993065	-0.698317
H71	H	1.788728	-0.691712	-1.079839
H72	H	1.586672	-0.643807	-0.946896
C73	C	1.999379	-0.970064	-0.670519
C74	C	1.968903	-0.934480	-0.568726
H75	H	2.076479	-0.944030	-0.688943
H76	H	2.000171	-1.045470	-0.671381
H77	H	1.942163	-0.944807	-0.720270
H78	H	2.026114	-0.959743	-0.518974
H79	H	1.968120	-0.859057	-0.567857
C80	C	1.967999	-0.568288	-0.824971
C81	C	1.969187	-0.568452	-0.936144
H82	H	2.045167	-0.586723	-0.799173
H83	H	1.947073	-0.499553	-0.800141
H84	H	1.910965	-0.618493	-0.800203
H85	H	2.026216	-0.518242	-0.960912
H86	H	1.990128	-0.637198	-0.960984
H87	H	1.788609	-1.078488	-0.692077
C88	C	1.557127	-0.277556	-0.971541
C89	C	1.671853	-0.304641	-0.935874
H90	H	1.536433	-0.209166	-0.945577
H91	H	1.556193	-0.276862	-1.046949
H92	H	1.500947	-0.328265	-0.946270
H93	H	1.728035	-0.253936	-0.961152
H94	H	1.672796	-0.305327	-0.860451
C95	C	1.416376	-0.531361	-1.054990
C96	C	1.500224	-0.456770	-1.090696
H97	H	1.339228	-0.513019	-1.080898
H98	H	1.437739	-0.599821	-1.080283
H99	H	1.415287	-0.531815	-0.979572
H100	H	1.501320	-0.456322	-1.166115
H101	H	1.478856	-0.388292	-1.065409
