data_functionalizedCrystal
_audit_creation_method	'MofGen! by Chris Wilmer'
_symmetry_space_group_name_H-M	'P1'
_symmetry_Int_Tables_number	1
_symmetry_cell_setting	triclinic
loop_
_symmetry_equiv_pos_as_xyz
  x,y,z
_cell_length_a	17.699083
_cell_length_b	9.065215
_cell_length_c	8.140239
_cell_angle_alpha	89.997429
_cell_angle_beta	90.003310
_cell_angle_gamma	84.148856
loop_
_atom_site_label
_atom_site_type_symbol
_atom_site_fract_x
_atom_site_fract_y
_atom_site_fract_z
O1	O	1.005528	0.186555	-0.136380
O2	O	0.785339	0.210827	-0.136433
O3	O	0.899986	-0.016086	-0.136398
O4	O	0.890881	0.413469	-0.136414
O5	O	0.899979	-0.016089	0.136829
O6	O	0.785332	0.210825	0.136794
O7	O	1.005521	0.186553	0.136848
Zn8	Zn	0.895426	0.198688	0.180202
Zn9	Zn	0.895434	0.198692	-0.179787
O10	O	0.890874	0.413466	0.136813
C11	C	0.757132	0.209956	0.000174
C12	C	0.673093	0.207347	0.000153
C13	C	0.899108	-0.071048	0.000214
C14	C	0.896493	-0.234814	0.000208
C15	C	0.625510	0.340541	0.000149
C16	C	0.546548	0.338080	0.000170
C17	C	0.515170	0.202425	0.000184
C18	C	0.562759	0.069221	0.000194
C19	C	0.641720	0.071683	0.000184
C20	C	0.244318	0.059290	0.000235
C21	C	0.165351	0.056838	0.000240
C22	C	0.149146	0.325687	0.000221
C23	C	0.228107	0.328149	0.000211
C24	C	0.275689	0.194946	0.000229
C25	C	0.361309	0.197615	0.000209
C26	C	0.429551	0.199754	0.000193
C27	C	1.033728	0.187424	0.000237
C28	C	1.117767	0.190033	0.000247
C29	C	0.891752	0.468428	0.000197
C30	C	0.894367	0.632194	0.000192
N31	N	0.895426	0.198685	0.425884
N32	N	0.895440	0.198683	-0.425469
H33	H	0.651052	0.451007	0.000136
H34	H	0.110395	0.434147	0.000215
H35	H	0.139807	-0.053636	0.000253
H36	H	0.537205	-0.041232	0.000229
C37	C	0.296649	-0.087238	0.000244
N38	N	0.336067	-0.197610	0.000249
C39	C	0.494209	0.484604	0.000194
N40	N	0.454788	0.594973	0.000225
H41	H	0.253651	0.438613	0.000192
C42	C	0.694061	-0.074840	0.000184
N43	N	0.733484	-0.185207	0.000188
