data_functionalizedCrystal
_audit_creation_method	'MofGen! by Chris Wilmer'
_symmetry_space_group_name_H-M	'P1'
_symmetry_Int_Tables_number	1
_symmetry_cell_setting	triclinic
loop_
_symmetry_equiv_pos_as_xyz
  x,y,z
_cell_length_a	17.699077
_cell_length_b	23.532409
_cell_length_c	16.776229
_cell_angle_alpha	89.996403
_cell_angle_beta	89.993415
_cell_angle_gamma	83.065068
loop_
_atom_site_label
_atom_site_type_symbol
_atom_site_fract_x
_atom_site_fract_y
_atom_site_fract_z
O1	O	1.003717	0.072004	-0.066272
O2	O	0.783290	0.081377	-0.066275
O3	O	0.900150	-0.006222	-0.066275
O4	O	0.886857	0.159603	-0.066273
O5	O	0.900134	-0.006228	0.066302
O6	O	0.783275	0.081372	0.066301
O7	O	1.003701	0.071998	0.066304
Zn8	Zn	0.893486	0.076684	0.087352
Zn9	Zn	0.893506	0.076691	-0.087323
O10	O	0.886842	0.159598	0.066304
C11	C	0.755087	0.081039	0.000012
C12	C	0.671074	0.080033	0.000011
C13	C	0.631601	0.079556	0.072279
C14	C	0.552663	0.078602	0.072280
C15	C	0.513199	0.078129	0.000012
C16	C	0.552678	0.078604	-0.072262
C17	C	0.631615	0.079554	-0.072262
C18	C	0.234335	0.074772	-0.072264
C19	C	0.155392	0.073823	-0.072258
C20	C	0.155382	0.073819	0.072278
C21	C	0.234319	0.074770	0.072278
C22	C	0.273792	0.075242	0.000005
C23	C	0.359385	0.076275	0.000005
C24	C	0.427607	0.077099	0.000011
C25	C	0.899803	-0.027442	0.000012
C26	C	0.898785	-0.090662	0.000006
C27	C	0.894462	-0.363916	-0.072265
C28	C	0.895408	-0.304513	-0.072265
O29	O	0.895930	-0.273785	-0.133724
N30	N	0.895868	-0.274813	0.000003
C31	C	0.895389	-0.304519	0.072277
O32	O	0.895868	-0.273802	0.133747
C33	C	0.894449	-0.363921	0.072276
C34	C	0.893981	-0.393618	0.000003
C35	C	0.893995	-0.393613	-0.144533
C36	C	0.893048	-0.453012	-0.144532
C37	C	0.892568	-0.482714	-0.072264
C38	C	0.893034	-0.453017	0.000003
C39	C	0.893976	-0.393627	0.144549
C40	C	0.893036	-0.453034	0.144542
C41	C	0.892569	-0.482730	0.072268
C42	C	0.891607	-0.542117	0.072272
N43	N	0.891147	-0.571818	0.000003
C44	C	0.891627	-0.542116	-0.072265
C45	C	0.897365	-0.179770	0.072273
C46	C	0.898300	-0.120368	0.072274
C47	C	0.898320	-0.120367	-0.072268
C48	C	0.897380	-0.179769	-0.072269
C49	C	0.896905	-0.209471	0.000004
C50	C	0.889638	-0.666857	-0.072259
C51	C	0.888687	-0.726261	-0.072252
C52	C	0.888672	-0.726258	0.072290
C53	C	0.889618	-0.666859	0.072284
C54	C	0.890103	-0.637160	0.000003
O55	O	0.891087	-0.572884	0.133699
O56	O	0.891159	-0.572841	-0.133725
C57	C	1.031904	0.072336	0.000015
C58	C	1.115918	0.073342	0.000011
C59	C	0.887188	0.180817	0.000016
C60	C	0.888207	0.244037	0.000016
N61	N	0.893477	0.076679	0.206563
N62	N	0.893520	0.076692	-0.206534
C63	C	0.945238	0.037906	0.248281
C64	C	0.945242	0.037905	0.331733
C65	C	0.893489	0.076681	0.373466
C66	C	0.841722	0.115456	0.331743
C67	C	0.841715	0.115453	0.248292
C68	C	0.841750	0.115467	0.668290
C69	C	0.841762	0.115468	0.751747
C70	C	0.945277	0.037919	0.751731
C71	C	0.945270	0.037917	0.668280
C72	C	0.893501	0.076689	0.626564
C73	C	0.893496	0.076689	0.536076
C74	C	0.893497	0.076685	0.463953
H75	H	0.888304	-0.750437	-0.131108
H76	H	0.799580	0.147026	0.365727
H77	H	0.266464	0.075154	-0.131113
H78	H	0.799615	0.147045	0.785725
O79	O	0.791401	0.153057	0.627734
C80	C	0.687976	0.165291	0.533495
C81	C	0.744939	0.122653	0.579396
H82	H	0.650407	0.140726	0.494390
H83	H	0.650936	0.193003	0.577619
H84	H	0.720457	0.193715	0.494452
H85	H	0.712520	0.094192	0.618440
H86	H	0.781978	0.094982	0.535229
H87	H	0.987390	0.006333	0.365699
H88	H	0.663725	0.079946	0.131129
H89	H	0.799565	0.147026	0.214327
O90	O	0.890229	-0.637996	-0.142447
C91	C	0.956825	-0.577427	-0.226335
C92	C	0.956275	-0.610101	-0.146831
H93	H	1.010210	-0.554856	-0.229898
H94	H	0.956371	-0.608837	-0.278017
H95	H	0.904263	-0.544364	-0.229924
H96	H	1.008827	-0.643163	-0.143164
H97	H	0.956689	-0.578656	-0.095186
O98	O	0.898776	-0.091615	0.142552
C99	C	0.898606	-0.097897	0.285917
C100	C	0.898080	-0.130529	0.206383
H101	H	0.898027	-0.129344	0.337545
H102	H	0.952034	-0.075384	0.289594
H103	H	0.846086	-0.064793	0.289488
H104	H	0.950563	-0.163661	0.202758
H105	H	0.844617	-0.153004	0.202739
O106	O	0.514225	0.078168	-0.142393
C107	C	0.392631	0.076674	-0.206454
C108	C	0.436081	0.077178	-0.126972
H109	H	0.329446	0.075862	-0.194014
H110	H	0.400869	0.116711	-0.242104
H111	H	0.415427	0.037031	-0.242092
H112	H	0.413313	0.116795	-0.091270
H113	H	0.427844	0.037115	-0.091382
H114	H	0.520529	0.078204	0.131128
H115	H	0.987415	0.006344	0.634303
O116	O	0.889926	-0.637962	0.142462
C117	C	0.825428	-0.564326	0.226305
C118	C	0.824970	-0.597013	0.146811
H119	H	0.772926	-0.531203	0.229840
H120	H	0.824868	-0.595722	0.277997
H121	H	0.878870	-0.541825	0.229907
H122	H	0.771537	-0.619516	0.143132
H123	H	0.825571	-0.565590	0.095157
H124	H	0.123234	0.073432	0.131127
H125	H	0.266446	0.075158	0.131127
O126	O	0.898759	-0.091594	-0.142543
C127	C	0.898734	-0.097850	-0.285911
C128	C	0.898218	-0.130506	-0.206389
H129	H	0.898313	-0.129298	-0.337550
H130	H	0.846191	-0.064773	-0.289579
H131	H	0.952140	-0.075303	-0.289469
H132	H	0.844848	-0.153088	-0.202777
H133	H	0.950797	-0.163551	-0.202754
O134	O	0.995542	0.000184	0.207868
C135	C	1.098246	-0.076716	0.216670
C136	C	1.041307	-0.034033	0.262533
H137	H	1.135273	-0.104384	0.260847
H138	H	1.065823	-0.105177	0.177634
H139	H	1.135831	-0.052155	0.177567
H140	H	1.003707	-0.058548	0.301680
H141	H	1.073778	-0.005573	0.301518
O142	O	0.894304	-0.364754	0.214738
C143	C	0.829828	-0.291149	0.298645
C144	C	0.829349	-0.323808	0.219129
H145	H	0.777326	-0.258028	0.302214
H146	H	0.829281	-0.322565	0.350316
H147	H	0.883271	-0.268649	0.302250
H148	H	0.775915	-0.346309	0.215446
H149	H	0.829936	-0.292365	0.167496
O150	O	0.892516	-0.481780	-0.214794
C151	C	0.826685	-0.493424	-0.338344
C152	C	0.827189	-0.460798	-0.258804
H153	H	0.773865	-0.476481	-0.373941
H154	H	0.879821	-0.486992	-0.374014
H155	H	0.825972	-0.540987	-0.325935
H156	H	0.827875	-0.413225	-0.271141
H157	H	0.774057	-0.467277	-0.223159
O158	O	0.117177	0.073336	-0.142535
C159	C	0.125507	0.073468	-0.285902
C160	C	0.168882	0.074005	-0.206378
H161	H	0.167289	0.074021	-0.337539
H162	H	0.095800	0.033175	-0.289563
H163	H	0.081305	0.112856	-0.289472
H164	H	0.213120	0.034645	-0.202754
H165	H	0.198536	0.114324	-0.202750
O166	O	0.669840	0.080046	-0.142535
C167	C	0.661530	0.079919	-0.285901
C168	C	0.618145	0.079377	-0.206373
H169	H	0.619755	0.079366	-0.337535
H170	H	0.691234	0.120213	-0.289568
H171	H	0.705735	0.040533	-0.289472
H172	H	0.573904	0.118735	-0.202748
H173	H	0.588493	0.039056	-0.202740
O174	O	0.894315	-0.364705	-0.214702
C175	C	0.829671	-0.291183	-0.298621
C176	C	0.829261	-0.323854	-0.219103
H177	H	0.777072	-0.258156	-0.302212
H178	H	0.883029	-0.268588	-0.302321
H179	H	0.829194	-0.322653	-0.350227
H180	H	0.829710	-0.292423	-0.167451
H181	H	0.775907	-0.346458	-0.215471
O182	O	0.896793	-0.208631	-0.142451
C183	C	0.830183	-0.269190	-0.226313
C184	C	0.830744	-0.236522	-0.146811
H185	H	0.776796	-0.291758	-0.229857
H186	H	0.830636	-0.237777	-0.277998
H187	H	0.882742	-0.302255	-0.229917
H188	H	0.778194	-0.203457	-0.143129
H189	H	0.830331	-0.267970	-0.095164
O190	O	0.896782	-0.208668	0.142436
C191	C	0.830082	-0.269152	0.226350
C192	C	0.830660	-0.236470	0.146854
H193	H	0.776620	-0.291629	0.229956
H194	H	0.882573	-0.302279	0.229998
H195	H	0.830604	-0.237705	0.277978
H196	H	0.830111	-0.267874	0.095181
H197	H	0.778173	-0.203335	0.143276
H198	H	0.892651	-0.477213	0.203397
O199	O	0.888074	-0.755079	0.142507
C200	C	0.822234	-0.766721	0.266071
C201	C	0.822799	-0.734042	0.186573
H202	H	0.769473	-0.749717	0.301728
H203	H	0.821433	-0.814279	0.253693
H204	H	0.875418	-0.760335	0.301673
H205	H	0.769625	-0.740382	0.150932
H206	H	0.823640	-0.686496	0.199008
O207	O	0.995631	0.000225	0.792131
C208	C	1.098270	-0.076723	0.783305
C209	C	1.041300	-0.034059	0.737456
H210	H	1.135197	-0.104461	0.739120
H211	H	1.135949	-0.052203	0.822345
H212	H	1.065796	-0.105117	0.822403
H213	H	1.073712	-0.005654	0.698314
H214	H	1.003622	-0.058614	0.698466
