data_functionalizedCrystal
_audit_creation_method	'MofGen! by Chris Wilmer'
_symmetry_space_group_name_H-M	'P1'
_symmetry_Int_Tables_number	1
_symmetry_cell_setting	triclinic
loop_
_symmetry_equiv_pos_as_xyz
  x,y,z
_cell_length_a	19.805405
_cell_length_b	19.805407
_cell_length_c	19.805399
_cell_angle_alpha	89.980803
_cell_angle_beta	90.029301
_cell_angle_gamma	89.977440
loop_
_atom_site_label
_atom_site_type_symbol
_atom_site_fract_x
_atom_site_fract_y
_atom_site_fract_z
Zn1	Zn	-0.269548	-1.034736	0.382705
Zn2	Zn	0.230452	-0.534736	0.882705
Zn3	Zn	-0.382737	-1.034650	0.269513
Zn4	Zn	0.117263	-0.534650	0.769513
Zn5	Zn	-0.269559	-0.921550	0.269530
Zn6	Zn	0.230441	-0.421550	0.769530
Zn7	Zn	-0.382693	-0.921514	0.382661
Zn8	Zn	0.117307	-0.421514	0.882661
O9	O	-0.326134	-0.978113	0.326102
O10	O	0.173866	-0.478113	0.826102
O11	O	-0.284577	-1.129441	0.367701
O12	O	0.215423	-0.629441	0.867701
O13	O	-0.367746	-1.019627	0.174799
O14	O	0.132254	-0.519627	0.674799
O15	O	-0.174841	-0.936615	0.284569
O16	O	0.325159	-0.436615	0.784569
O17	O	-0.367736	-1.129378	0.284540
O18	O	0.132264	-0.629378	0.784540
O19	O	-0.174833	-1.019772	0.367717
O20	O	0.325167	-0.519772	0.867717
O21	O	-0.284596	-0.936533	0.174811
O22	O	0.215404	-0.436533	0.674811
O23	O	-0.284553	-0.826829	0.284526
O24	O	0.215447	-0.326829	0.784526
O25	O	-0.367661	-0.936553	0.477383
O26	O	0.132339	-0.436553	0.977383
O27	O	-0.367672	-0.826802	0.367642
O28	O	0.132328	-0.326802	0.867642
O29	O	-0.284534	-1.019737	0.477415
O30	O	0.215466	-0.519737	0.977415
O31	O	-0.477448	-1.019592	0.284497
O32	O	0.022552	-0.519592	0.784497
O33	O	-0.477416	-0.936471	0.367626
O34	O	0.022584	-0.436471	0.867626
C35	C	-0.501991	-0.978036	0.326069
C36	C	-0.001991	-0.478036	0.826069
C37	C	-0.577222	-0.978066	0.326078
C38	C	-0.077222	-0.478066	0.826078
C39	C	-0.326110	-0.802257	0.326081
C40	C	0.173890	-0.302257	0.826081
C41	C	-0.326115	-0.727025	0.326089
C42	C	0.173885	-0.227025	0.826089
C43	C	-0.612561	-1.021389	0.282838
C44	C	-0.112561	-0.521389	0.782838
C45	C	-0.683249	-1.021418	0.282853
C46	C	-0.183249	-0.521418	0.782853
C47	C	-0.718598	-0.978119	0.326105
C48	C	-0.218598	-0.478119	0.826105
C49	C	-0.683255	-0.934794	0.369350
C50	C	-0.183255	-0.434794	0.869350
C51	C	-0.612568	-0.934769	0.369338
C52	C	-0.112568	-0.434769	0.869338
C53	C	-0.968328	-0.934894	0.369400
C54	C	-0.468328	-0.434894	0.869400
C55	C	-1.039020	-0.934921	0.369407
C56	C	-0.539020	-0.434921	0.869407
C57	C	-1.039010	-1.021542	0.282915
C58	C	-0.539010	-0.521542	0.782915
C59	C	-0.968322	-1.021517	0.282903
C60	C	-0.468322	-0.521517	0.782903
C61	C	-0.932985	-0.978195	0.326150
C62	C	-0.432985	-0.478195	0.826150
C63	C	-0.856337	-0.978165	0.326134
C64	C	-0.356337	-0.478165	0.826134
C65	C	-0.795245	-0.978145	0.326118
C66	C	-0.295245	-0.478145	0.826118
C67	C	-0.282890	-0.691714	0.369456
C68	C	0.217110	-0.191714	0.869456
C69	C	-0.282892	-0.621025	0.369457
C70	C	0.217108	-0.121025	0.869457
C71	C	-0.326124	-0.585649	0.326093
C72	C	0.173876	-0.085649	0.826093
C73	C	-0.369350	-0.620965	0.282721
C74	C	0.130650	-0.120965	0.782721
C75	C	-0.369344	-0.691652	0.282718
C76	C	0.130656	-0.191652	0.782718
C77	C	-0.369375	-0.335892	0.282735
C78	C	0.130625	0.164108	0.782735
C79	C	-0.369379	-0.265199	0.282744
C80	C	0.130621	0.234801	0.782744
C81	C	-0.282923	-0.265265	0.369474
C82	C	0.217077	0.234735	0.869474
C83	C	-0.282917	-0.335952	0.369470
C84	C	0.217083	0.164048	0.869470
C85	C	-0.326141	-0.371262	0.326096
C86	C	0.173859	0.128738	0.826096
C87	C	-0.326137	-0.447910	0.326095
C88	C	0.173863	0.052090	0.826095
C89	C	-0.326131	-0.509002	0.326098
C90	C	0.173869	-0.009002	0.826098
C91	C	-0.149592	-0.978207	0.326150
C92	C	0.350408	-0.478207	0.826150
C93	C	-0.074360	-0.978248	0.326170
C94	C	0.425640	-0.478248	0.826170
C95	C	-0.326092	-0.978151	0.502645
C96	C	0.173908	-0.478151	1.002645
C97	C	-0.326074	-0.978167	0.577877
C98	C	0.173926	-0.478167	1.077877
C99	C	-0.326155	-0.154655	0.326117
C100	C	0.173845	0.345345	0.826117
C101	C	-0.326150	-0.229887	0.326108
C102	C	0.173850	0.270113	0.826108
C103	C	-0.326128	-0.978114	0.150246
C104	C	0.173872	-0.478114	0.650246
C105	C	-0.325956	-0.978229	0.075015
C106	C	0.174044	-0.478229	0.575015
C107	C	-0.282787	-1.021481	0.613239
C108	C	0.217213	-0.521481	1.113239
C109	C	-0.282768	-1.021488	0.683928
C110	C	0.217232	-0.521488	1.183928
C111	C	-0.326038	-0.978184	0.719253
C112	C	0.173962	-0.478184	1.219253
C113	C	-0.369327	-0.934864	0.683886
C114	C	0.130673	-0.434864	1.183886
C115	C	-0.369342	-0.934854	0.613198
C116	C	0.130658	-0.434854	1.113198
C117	C	-0.369264	-0.934902	0.968959
C118	C	0.130736	-0.434902	1.468959
C119	C	-0.369246	-0.934917	1.039651
C120	C	0.130754	-0.434917	1.539651
C121	C	-0.282689	-1.021536	1.039688
C122	C	0.217311	-0.521536	1.539688
C123	C	-0.282705	-1.021527	0.969001
C124	C	0.217295	-0.521527	1.469001
C125	C	-0.325990	-0.978205	0.933640
C126	C	0.174010	-0.478205	1.433640
C127	C	-0.326010	-0.978197	0.856992
C128	C	0.173990	-0.478197	1.356992
C129	C	-0.326022	-0.978194	0.795900
C130	C	0.173978	-0.478194	1.295900
H131	H	-0.583784	-1.056644	0.247614
H132	H	-0.083784	-0.556644	0.747614
H133	H	-0.939544	-1.056773	0.247681
H134	H	-0.439544	-0.556773	0.747681
H135	H	-0.404542	-0.720401	0.247403
H136	H	0.095458	-0.220401	0.747403
F137	F	-0.415332	-0.888795	0.931334
F138	F	0.084668	-0.388795	1.431334
F139	F	-0.415357	-0.583313	0.236567
F140	F	0.084643	-0.083313	0.736567
H141	H	-0.583796	-0.899492	0.404549
H142	H	-0.083796	-0.399492	0.904549
H143	H	-1.067790	-1.056820	0.247704
H144	H	-0.567790	-0.556820	0.747704
H145	H	-0.404571	-0.364632	0.247418
H146	H	0.095429	0.135368	0.747418
F147	F	-0.236653	-1.067620	0.931409
F148	F	0.263347	-0.567620	1.431409
F149	F	-0.930729	-0.888786	0.415426
F150	F	-0.430729	-0.388786	0.915426
H151	H	-0.247553	-1.056747	0.584482
H152	H	0.252447	-0.556747	1.084482
H153	H	-0.247696	-0.592278	0.404772
H154	H	0.252304	-0.092278	0.904772
F155	F	-0.720877	-0.888717	0.415386
F156	F	-0.220877	-0.388717	0.915386
F157	F	-0.236720	-1.067613	0.721559
F158	F	0.263280	-0.567613	1.221559
F159	F	-1.076640	-0.888835	0.415445
F160	F	-0.576640	-0.388835	0.915445
F161	F	-0.236618	-1.067642	1.077327
F162	F	0.263382	-0.567642	1.577327
H163	H	-0.247688	-0.720512	0.404769
H164	H	0.252312	-0.220512	0.904769
F165	F	-0.415412	-0.888751	0.575564
F166	F	0.084588	-0.388751	1.075564
F167	F	-0.415302	-0.888823	1.077245
F168	F	0.084698	-0.388823	1.577245
H169	H	-0.247716	-0.364752	0.404784
H170	H	0.252284	0.135248	0.904784
H171	H	-0.404556	-0.899602	0.712653
H172	H	0.095444	-0.399602	1.212653
H173	H	-0.712019	-1.056695	0.247642
H174	H	-0.212019	-0.556695	0.747642
H175	H	-0.404585	-0.236398	0.247430
H176	H	0.095415	0.263602	0.747430
F177	F	-0.236918	-0.227680	0.415636
F178	F	0.263082	0.272320	0.915636
