data_functionalizedCrystal
_audit_creation_method	'MofGen! by Chris Wilmer'
_symmetry_space_group_name_H-M	'P1'
_symmetry_Int_Tables_number	1
_symmetry_cell_setting	triclinic
loop_
_symmetry_equiv_pos_as_xyz
  x,y,z
_cell_length_a	12.759387
_cell_length_b	12.759401
_cell_length_c	12.759400
_cell_angle_alpha	89.984446
_cell_angle_beta	89.970299
_cell_angle_gamma	90.021090
loop_
_atom_site_label
_atom_site_type_symbol
_atom_site_fract_x
_atom_site_fract_y
_atom_site_fract_z
Zn1	Zn	-0.594029	-1.606273	-0.418168
Zn2	Zn	-0.094029	-1.106273	0.081832
Zn3	Zn	-0.418353	-1.606166	-0.593885
Zn4	Zn	0.081647	-1.106166	-0.093885
Zn5	Zn	-0.418365	-1.430571	-0.418225
Zn6	Zn	0.081635	-0.930571	0.081775
Zn7	Zn	-0.593991	-1.430566	-0.593810
Zn8	Zn	-0.093991	-0.930566	-0.093810
O9	O	-0.506184	-1.518394	-0.506022
O10	O	-0.006184	-1.018394	-0.006022
O11	O	-0.570737	-1.753280	-0.441485
O12	O	-0.070737	-1.253280	0.058515
O13	O	-0.271334	-1.582830	-0.570639
O14	O	0.228666	-1.082830	-0.070639
O15	O	-0.441688	-1.453926	-0.271197
O16	O	0.058312	-0.953926	0.228803
O17	O	-0.441669	-1.753201	-0.570583
O18	O	0.058331	-1.253201	-0.070583
O19	O	-0.570748	-1.583013	-0.271155
O20	O	-0.070748	-1.083013	0.228845
O21	O	-0.271342	-1.453822	-0.441582
O22	O	0.228658	-0.953822	0.058418
O23	O	-0.441650	-1.283549	-0.441510
O24	O	0.058350	-0.783549	0.058490
O25	O	-0.741017	-1.453916	-0.570456
O26	O	-0.241017	-0.953916	-0.070456
O27	O	-0.570682	-1.283545	-0.570511
O28	O	-0.070682	-0.783545	-0.070511
O29	O	-0.741045	-1.583007	-0.441412
O30	O	-0.241045	-1.083007	0.058588
O31	O	-0.441631	-1.582825	-0.740896
O32	O	0.058369	-1.082825	-0.240896
O33	O	-0.570671	-1.453812	-0.740841
O34	O	-0.070671	-0.953812	-0.240841
C35	C	-0.506164	-1.245426	-0.506009
C36	C	-0.006164	-0.745426	-0.006009
C37	C	-0.506180	-1.128650	-0.506029
C38	C	-0.006180	-0.628650	-0.006029
C39	C	-0.780218	-1.518473	-0.505919
C40	C	-0.280218	-1.018473	-0.005919
C41	C	-0.896995	-1.518507	-0.505875
C42	C	-0.396995	-1.018507	-0.005875
C43	C	-0.506168	-1.518335	-0.778990
C44	C	-0.006168	-1.018335	-0.278990
C45	C	-0.506197	-1.518405	-0.895766
C46	C	-0.006197	-1.018405	-0.395766
C47	C	-0.897044	-1.652939	-0.371511
C48	C	-0.397044	-1.152939	0.128489
C49	C	-0.951930	-1.720170	-0.304313
C50	C	-0.451930	-1.220170	0.195687
C51	C	-1.061652	-1.720195	-0.304275
C52	C	-0.561652	-1.220195	0.195725
C53	C	-1.116490	-1.652981	-0.371440
C54	C	-0.616490	-1.152981	0.128560
C55	C	-1.061605	-1.585750	-0.438637
C56	C	-0.561605	-1.085750	0.061363
C57	C	-0.951880	-1.585734	-0.438671
C58	C	-0.451880	-1.085734	0.061329
C59	C	-1.061555	-1.451314	-0.572995
C60	C	-0.561555	-0.951314	-0.072995
C61	C	-0.951833	-1.451292	-0.573040
C62	C	-0.451833	-0.951292	-0.073040
C63	C	-1.116394	-1.384100	-0.640159
C64	C	-0.616394	-0.884100	-0.140159
C65	C	-1.061508	-1.316873	-0.707364
C66	C	-0.561508	-0.816873	-0.207364
C67	C	-0.951780	-1.316851	-0.707400
C68	C	-0.451780	-0.816851	-0.207400
C69	C	-0.896948	-1.384062	-0.640238
C70	C	-0.396948	-0.884062	-0.140238
C71	C	-0.233217	-1.518375	-0.506049
C72	C	0.266783	-1.018375	-0.006049
C73	C	-0.116441	-1.518545	-0.505797
C74	C	0.383559	-1.018545	-0.005797
C75	C	-0.506206	-1.792427	-0.506036
C76	C	-0.006206	-1.292427	-0.006036
C77	C	-0.506215	-1.909204	-0.506042
C78	C	-0.006215	-1.409204	-0.006042
C79	C	-0.573261	-1.073813	-0.573302
C80	C	-0.073261	-0.573813	-0.073302
C81	C	-0.573281	-0.964089	-0.573306
C82	C	-0.073281	-0.464089	-0.073306
C83	C	-0.439131	-0.964048	-0.438761
C84	C	0.060869	-0.464048	0.061239
C85	C	-0.439116	-1.073770	-0.438752
C86	C	0.060884	-0.573770	0.061248
C87	C	-0.573479	-1.585644	-1.060253
C88	C	-0.073479	-1.085644	-0.560253
C89	C	-0.573454	-1.585590	-0.950529
C90	C	-0.073454	-1.085590	-0.450529
C91	C	-0.438951	-1.451278	-0.950733
C92	C	0.061049	-0.951278	-0.450733
C93	C	-0.438970	-1.451338	-1.060455
C94	C	0.061030	-0.951338	-0.560455
C95	C	-0.506224	-1.518482	-0.231989
C96	C	-0.006224	-1.018482	0.268011
C97	C	-0.506240	-1.518519	-0.115212
C98	C	-0.006240	-1.018519	0.384788
H99	H	-0.807703	-1.652935	-0.371545
H100	H	-0.307703	-1.152935	0.128455
Br101	Br	-1.135935	-1.225654	-0.798497
Br102	Br	-0.635935	-0.725654	-0.298497
Br103	Br	-0.347664	-1.360105	-0.876413
Br104	Br	0.152336	-0.860105	-0.376413
H105	H	-0.628205	-1.640250	-0.905785
H106	H	-0.128205	-1.140250	-0.405785
Br107	Br	-0.664329	-0.889672	-0.664605
Br108	Br	-0.164329	-0.389672	-0.164605
H109	H	-0.907268	-1.774892	-0.249628
H110	H	-0.407268	-1.274892	0.250372
Br111	Br	-1.136144	-1.811416	-0.213057
Br112	Br	-0.636144	-1.311416	0.286943
Br113	Br	-0.347704	-1.360242	-1.135049
Br114	Br	0.152296	-0.860242	-0.635049
H115	H	-1.205831	-1.652998	-0.371393
H116	H	-0.705831	-1.152998	0.128607
H117	H	-0.384491	-1.118419	-0.383964
H118	H	0.115509	-0.618419	0.116036
H119	H	-0.807607	-1.384055	-0.640265
H120	H	-0.307607	-0.884055	-0.140265
Br121	Br	-1.265303	-1.384131	-0.640107
Br122	Br	-0.765303	-0.884131	-0.140107
H123	H	-0.907098	-1.262092	-0.762110
H124	H	-0.407098	-0.762092	-0.262110
Br125	Br	-0.664277	-1.148290	-0.664604
Br126	Br	-0.164277	-0.648290	-0.164604
H127	H	-0.384529	-0.919351	-0.383988
H128	H	0.115471	-0.419351	0.116012
H129	H	-0.628258	-1.640343	-1.104833
H130	H	-0.128258	-1.140343	-0.604833
