data_functionalizedCrystal
_audit_creation_method	'MofGen! by Chris Wilmer'
_symmetry_space_group_name_H-M	'P1'
_symmetry_Int_Tables_number	1
_symmetry_cell_setting	triclinic
loop_
_symmetry_equiv_pos_as_xyz
  x,y,z
_cell_length_a	15.297475
_cell_length_b	29.839131
_cell_length_c	15.296720
_cell_angle_alpha	99.637563
_cell_angle_beta	91.617114
_cell_angle_gamma	80.343089
loop_
_atom_site_label
_atom_site_type_symbol
_atom_site_fract_x
_atom_site_fract_y
_atom_site_fract_z
Zn1	Zn	1.253182	-0.349614	-0.726505
Zn2	Zn	1.753182	0.150386	-0.226505
Zn3	Zn	1.278404	-0.414299	-0.580004
Zn4	Zn	1.778404	0.085701	-0.080004
Zn5	Zn	1.132076	-0.324378	-0.554753
Zn6	Zn	1.632076	0.175622	-0.054753
Zn7	Zn	1.106633	-0.409883	-0.701134
Zn8	Zn	1.606633	0.090117	-0.201134
O9	O	1.192574	-0.374544	-0.640599
O10	O	1.692574	0.125456	-0.140599
O11	O	1.379098	-0.370604	-0.728258
O12	O	1.879098	0.129396	-0.228258
O13	O	1.280197	-0.393657	-0.454082
O14	O	1.780197	0.106343	0.045918
O15	O	1.148233	-0.264871	-0.577587
O16	O	1.648233	0.235129	-0.077587
O17	O	1.397629	-0.418128	-0.620623
O18	O	1.897629	0.081872	-0.120623
O19	O	1.237209	-0.283412	-0.703773
O20	O	1.737209	0.216588	-0.203773
O21	O	1.172690	-0.327593	-0.435530
O22	O	1.672690	0.172407	0.064470
O23	O	1.006131	-0.323311	-0.552985
O24	O	1.506131	0.176689	-0.052985
O25	O	1.104870	-0.410602	-0.827071
O26	O	1.604870	0.089398	-0.327071
O27	O	0.987438	-0.386132	-0.660530
O28	O	1.487438	0.113868	-0.160530
O29	O	1.212539	-0.366323	-0.845712
O30	O	1.712539	0.133677	-0.345712
O31	O	1.255527	-0.476568	-0.596021
O32	O	1.755527	0.023432	-0.096021
O33	O	1.129327	-0.473324	-0.685015
O34	O	1.629327	0.026676	-0.185015
C35	C	0.965003	-0.351504	-0.601265
C36	C	1.465003	0.148496	-0.101265
C37	C	0.867644	-0.341660	-0.584458
C38	C	1.367644	0.158340	-0.084458
C39	C	0.554433	-0.444905	-0.760721
C40	C	1.054433	0.055095	-0.260721
C41	C	0.645908	-0.454157	-0.776509
C42	C	1.145908	0.045843	-0.276509
C43	C	0.701346	-0.426033	-0.728498
C44	C	1.201346	0.073967	-0.228498
C45	C	0.665301	-0.388656	-0.664695
C46	C	1.165301	0.111344	-0.164695
C47	C	0.573819	-0.379405	-0.648901
C48	C	1.073819	0.120595	-0.148901
C49	C	0.720732	-0.360534	-0.616678
C50	C	1.220732	0.139466	-0.116678
C51	C	0.684687	-0.323157	-0.552875
C52	C	1.184687	0.176843	-0.052875
C53	C	0.593213	-0.313908	-0.537084
C54	C	1.093213	0.186092	-0.037084
C55	C	0.537775	-0.342031	-0.585095
C56	C	1.037775	0.157969	-0.085095
C57	C	0.812214	-0.369785	-0.632472
C58	C	1.312214	0.130215	-0.132472
C59	C	0.831600	-0.304286	-0.520652
C60	C	1.331600	0.195714	-0.020652
C61	C	0.740125	-0.295034	-0.504864
C62	C	1.240125	0.204966	-0.004864
C63	C	1.192423	-0.491247	-0.640528
C64	C	1.692423	0.008753	-0.140528
C65	C	1.192434	-0.541184	-0.640541
C66	C	1.692434	-0.041184	-0.140541
C67	C	1.258374	-0.852537	-0.594359
C68	C	1.758374	-0.352537	-0.094359
C69	C	1.258476	-1.040223	-0.594412
C70	C	1.758476	-0.540223	-0.094412
O71	O	1.314421	-1.065927	-0.555092
O72	O	1.814421	-0.565927	-0.055092
N73	N	1.192744	-1.062009	-0.640696
N74	N	1.692744	-0.562009	-0.140696
C75	C	1.126986	-1.036871	-0.686975
C76	C	1.626986	-0.536871	-0.186975
O77	O	1.071084	-1.059708	-0.726352
O78	O	1.571084	-0.559708	-0.226352
C79	C	1.126888	-0.849186	-0.686927
C80	C	1.626888	-0.349186	-0.186927
C81	C	1.192619	-0.827402	-0.640633
C82	C	1.692619	-0.327402	-0.140633
C83	C	1.324100	-0.830753	-0.548069
C84	C	1.824100	-0.330753	-0.048069
C85	C	1.324071	-0.783833	-0.548053
C86	C	1.824071	-0.283833	-0.048053
C87	C	1.258316	-0.758698	-0.594326
C88	C	1.758316	-0.258698	-0.094326
C89	C	1.192590	-0.780482	-0.640616
C90	C	1.692590	-0.280482	-0.140616
C91	C	1.061134	-0.824049	-0.733211
C92	C	1.561134	-0.324049	-0.233211
C93	C	1.061116	-0.777125	-0.733197
C94	C	1.561116	-0.277125	-0.233197
C95	C	1.126847	-0.755341	-0.686902
C96	C	1.626847	-0.255341	-0.186902
C97	C	1.126806	-0.708428	-0.686873
C98	C	1.626806	-0.208428	-0.186873
N99	N	1.192537	-0.686642	-0.640589
N100	N	1.692537	-0.186642	-0.140589
C101	C	1.258292	-0.711777	-0.594315
C102	C	1.758292	-0.211777	-0.094315
C103	C	1.127041	-1.135408	-0.686996
C104	C	1.627041	-0.635408	-0.186996
C105	C	1.127064	-1.182328	-0.687007
C106	C	1.627064	-0.682328	-0.187007
C107	C	1.258556	-1.185678	-0.594445
C108	C	1.758556	-0.685678	-0.094445
C109	C	1.258528	-1.138756	-0.594429
C110	C	1.758528	-0.638756	-0.094429
C111	C	1.192772	-1.113622	-0.640712
C112	C	1.692772	-0.613622	-0.140712
C113	C	1.258226	-0.613243	-0.594283
C114	C	1.758226	-0.113243	-0.094283
C115	C	1.258189	-0.566319	-0.594268
C116	C	1.758189	-0.066319	-0.094268
C117	C	1.126701	-0.562974	-0.686833
C118	C	1.626701	-0.062974	-0.186833
C119	C	1.126734	-0.609893	-0.686845
C120	C	1.626734	-0.109893	-0.186845
C121	C	1.192505	-0.635027	-0.640569
C122	C	1.692505	-0.135027	-0.140569
O123	O	1.070896	-0.682697	-0.726181
O124	O	1.570896	-0.182697	-0.226181
O125	O	1.314197	-0.688934	-0.554961
O126	O	1.814197	-0.188934	-0.054961
C127	C	1.258403	-0.899456	-0.594376
C128	C	1.758403	-0.399456	-0.094376
C129	C	1.192677	-0.921240	-0.640666
C130	C	1.692677	-0.421240	-0.140666
C131	C	1.126922	-0.896105	-0.686939
C132	C	1.626922	-0.396105	-0.186939
C133	C	1.192700	-0.968161	-0.640677
C134	C	1.692700	-0.468161	-0.140677
C135	C	1.258455	-0.993296	-0.594404
C136	C	1.758455	-0.493296	-0.094404
C137	C	1.324187	-0.971511	-0.548119
C138	C	1.824187	-0.471511	-0.048119
C139	C	1.324158	-0.924591	-0.548103
C140	C	1.824158	-0.424591	-0.048103
C141	C	1.061190	-0.917891	-0.733224
C142	C	1.561190	-0.417891	-0.233224
C143	C	1.061224	-0.964810	-0.733236
C144	C	1.561224	-0.464810	-0.233236
C145	C	1.126979	-0.989946	-0.686962
C146	C	1.626979	-0.489946	-0.186962
C147	C	1.421033	-0.397674	-0.680087
C148	C	1.921033	0.102326	-0.180087
C149	C	1.518389	-0.407530	-0.696915
C150	C	2.018389	0.092470	-0.196915
C151	C	1.153053	-0.390785	-0.869062
C152	C	1.653053	0.109215	-0.369062
C153	C	1.136212	-0.397706	-0.966419
C154	C	1.636212	0.102294	-0.466419
C155	C	1.192746	-0.257388	-0.640693
C156	C	1.692746	0.242612	-0.140693
C157	C	1.192819	-0.207464	-0.640733
C158	C	1.692819	0.292536	-0.140733
C159	C	1.312975	-0.325003	-1.279676
C160	C	1.812975	0.174997	-0.779676
C161	C	1.328804	-0.318502	-1.188205
C162	C	1.828804	0.181498	-0.688205
C163	C	1.280657	-0.338302	-1.132754
C164	C	1.780657	0.161698	-0.632754
C165	C	1.216679	-0.364605	-1.168783
C166	C	1.716679	0.135395	-0.668783
C167	C	1.200853	-0.371110	-1.260264
C168	C	1.700853	0.128890	-0.760264
C169	C	1.168535	-0.384409	-1.113342
C170	C	1.668535	0.115591	-0.613342
C171	C	1.104557	-0.410712	-1.149371
C172	C	1.604557	0.089288	-0.649371
C173	C	1.088734	-0.417215	-1.240843
C174	C	1.588734	0.082785	-0.740843
C175	C	1.136881	-0.397415	-1.296294
C176	C	1.636881	0.102585	-0.796294
C177	C	1.184361	-0.377904	-1.021861
C178	C	1.684361	0.122096	-0.521861
C179	C	1.072239	-0.424011	-1.002450
C180	C	1.572239	0.075989	-0.502450
C181	C	1.056410	-0.430512	-1.093921
C182	C	1.556410	0.069488	-0.593921
C183	C	1.231992	-0.358339	-0.413033
C184	C	1.731992	0.141661	0.086967
C185	C	1.249003	-0.351308	-0.315706
C186	C	1.749003	0.148692	0.184294
H187	H	0.675249	-0.484590	-0.828455
H188	H	1.175249	0.015410	-0.328455
F189	F	1.364216	-0.303938	-1.338695
F190	F	1.864216	0.196062	-0.838695
H191	H	1.311784	-0.633702	-0.556603
H192	H	1.811784	-0.133702	-0.056603
H193	H	1.377596	-0.766100	-0.510359
H194	H	1.877596	-0.266100	-0.010359
H195	H	1.123997	-0.402707	-1.370778
H196	H	1.623997	0.097293	-0.870778
F197	F	0.495431	-0.474838	-0.811794
F198	F	0.995431	0.025162	-0.311794
H199	H	1.007571	-0.756664	-0.770889
H200	H	1.507571	-0.256664	-0.270889
F201	F	1.020655	-0.445217	-1.279188
F202	F	1.520655	0.054783	-0.779188
H203	H	1.380897	-0.297088	-1.158877
H204	H	1.880897	0.202912	-0.658877
F205	F	1.056764	-0.633076	-0.736098
F206	F	1.556764	-0.133076	-0.236098
F207	F	1.394093	-0.857497	-0.498816
F208	F	1.894093	-0.357497	0.001184
H209	H	0.841552	-0.400218	-0.684422
H210	H	1.341552	0.099782	-0.184422
H211	H	0.463287	-0.334499	-0.572245
H212	H	0.963287	0.165501	-0.072245
F213	F	1.394120	-0.901413	-0.498832
F214	F	1.894120	-0.401413	0.001168
H215	H	1.073161	-0.542501	-0.724506
H216	H	1.573161	-0.042501	-0.224506
H217	H	1.007645	-0.897429	-0.770906
H218	H	1.507645	-0.397429	-0.270906
F219	F	1.252449	-0.349911	-0.983527
F220	F	1.752449	0.150089	-0.483527
H221	H	0.775828	-0.433569	-0.741357
H222	H	1.275828	0.066431	-0.241357
H223	H	0.710765	-0.264601	-0.452915
H224	H	1.210765	0.235399	0.047085
F225	F	0.554855	-0.274130	-0.469173
F226	F	1.054855	0.225870	0.030827
H227	H	1.004318	-0.451928	-1.123269
H228	H	1.504318	0.048072	-0.623269
F229	F	1.394166	-0.998269	-0.498869
F230	F	1.894166	-0.498269	0.001131
H231	H	1.293549	-0.333007	-1.058275
H232	H	1.793549	0.166993	-0.558275
H233	H	1.007605	-0.841777	-0.770904
H234	H	1.507605	-0.341777	-0.270904
H235	H	1.312052	-1.121022	-0.556733
H236	H	1.812052	-0.621022	-0.056733
H237	H	0.876738	-0.281386	-0.481556
H238	H	1.376738	0.218614	0.018444
F239	F	1.328152	-0.543137	-0.544992
F240	F	1.828152	-0.043137	-0.044992
H241	H	1.033035	-0.440135	-0.957301
H242	H	1.533035	0.059865	-0.457301
H243	H	1.312096	-1.206151	-0.556767
H244	H	1.812096	-0.706151	-0.056767
F245	F	1.057096	-1.205506	-0.736268
F246	F	1.557096	-0.705506	-0.236268
F247	F	1.057049	-1.108664	-0.736258
F248	F	1.557049	-0.608664	-0.236258
H249	H	1.007690	-0.982542	-0.770932
H250	H	1.507690	-0.482542	-0.270932
