data_functionalizedCrystal
_audit_creation_method	'MofGen! by Chris Wilmer'
_symmetry_space_group_name_H-M	'P1'
_symmetry_Int_Tables_number	1
_symmetry_cell_setting	triclinic
loop_
_symmetry_equiv_pos_as_xyz
  x,y,z
_cell_length_a	30.570277
_cell_length_b	30.570279
_cell_length_c	30.570330
_cell_angle_alpha	59.997668
_cell_angle_beta	89.998668
_cell_angle_gamma	60.000192
loop_
_atom_site_label
_atom_site_type_symbol
_atom_site_fract_x
_atom_site_fract_y
_atom_site_fract_z
O1	O	-0.372836	-0.313095	0.013011
O2	O	-0.309225	-0.223519	-0.012953
O3	O	-0.309223	-0.313094	0.076622
O4	O	-0.372839	-0.223520	-0.076564
O5	O	-0.236468	-0.385848	0.076622
O6	O	-0.236471	-0.296273	-0.012953
O7	O	-0.300082	-0.385850	0.013011
Cu8	Cu	-0.261633	-0.347704	0.000029
Cu9	Cu	-0.347674	-0.261664	0.000029
O10	O	-0.300084	-0.296275	-0.076564
C11	C	-0.188654	-0.082303	-0.027139
C12	C	-0.215647	-0.028318	-0.023422
C13	C	-0.136009	-0.108501	-0.027507
C14	C	-0.188656	-0.161512	-0.027144
C15	C	-0.215651	-0.192218	-0.023433
C16	C	-0.136010	-0.187591	-0.027512
C17	C	-0.109441	-0.161515	-0.027139
C18	C	-0.051740	-0.192225	-0.023422
C19	C	-0.215103	-0.108498	-0.027512
C20	C	-0.005122	-0.217036	-0.020418
C21	C	-0.237454	0.015296	-0.020418
C22	C	-0.237459	-0.217026	-0.020433
C23	C	0.053362	-0.248162	-0.016650
C24	C	-0.264813	0.070012	-0.016651
C25	C	-0.264819	-0.248149	-0.016672
C26	C	-0.528835	-0.481158	0.031534
C27	C	-0.502268	-0.534173	0.031905
C28	C	-0.449624	-0.481155	0.031530
C29	C	-0.423176	-0.534171	0.031901
C30	C	-0.449623	-0.560370	0.031533
C31	C	-0.502268	-0.455079	0.031901
C32	C	-0.614448	-0.395339	0.025106
C33	C	-0.668545	-0.366177	0.021050
C34	C	-0.695677	-0.391210	0.019017
C35	C	-0.754333	-0.359592	0.014617
C36	C	-0.668716	-0.445410	0.021045
C37	C	-0.614621	-0.474572	0.025103
C38	C	-0.587489	-0.449534	0.027131
C39	C	-0.449828	-0.639557	0.025109
C40	C	-0.424894	-0.689598	0.021053
C41	C	-0.372730	-0.714694	0.019016
C42	C	-0.345693	-0.768949	0.014615
C43	C	-0.345492	-0.689758	0.021040
C44	C	-0.370425	-0.639721	0.025098
C45	C	-0.422593	-0.614621	0.027130
C46	C	-0.449831	-0.395334	0.025098
C47	C	-0.424899	-0.366164	0.021031
C48	C	-0.372736	-0.391195	0.018994
C49	C	-0.345699	-0.359574	0.014590
C50	C	-0.345499	-0.445391	0.021019
C51	C	-0.370429	-0.474560	0.025084
C52	C	-0.422594	-0.449529	0.027123
C53	C	-0.449629	-0.128223	-0.400622
C54	C	-0.502274	-0.075208	-0.427071
C55	C	-0.449630	-0.128223	-0.321410
C56	C	-0.502275	-0.075207	-0.347979
C57	C	-0.528843	-0.049010	-0.400624
C58	C	-0.423182	-0.154300	-0.347977
C59	C	-0.370237	-0.214043	-0.400414
C60	C	-0.345131	-0.243207	-0.425348
C61	C	-0.372198	-0.218175	-0.477512
C62	C	-0.344980	-0.249795	-0.504549
C63	C	-0.424371	-0.163975	-0.504752
C64	C	-0.449476	-0.134812	-0.479820
C65	C	-0.422408	-0.159848	-0.427652
C66	C	-0.614455	0.030175	-0.480016
C67	C	-0.668553	0.080216	-0.505123
C68	C	-0.695686	0.105313	-0.478056
C69	C	-0.754343	0.159568	-0.505274
C70	C	-0.668725	0.080378	-0.425883
C71	C	-0.614630	0.030342	-0.400778
C72	C	-0.587497	0.005241	-0.427845
C73	C	-0.370239	-0.214042	-0.235795
C74	C	-0.345135	-0.243209	-0.181695
C75	C	-0.372203	-0.218177	-0.154563
C76	C	-0.344985	-0.249796	-0.095906
C77	C	-0.424374	-0.163982	-0.181523
C78	C	-0.449480	-0.134814	-0.235621
C79	C	-0.422410	-0.159847	-0.262755
O80	O	0.226322	-0.385862	0.013031
O81	O	0.073137	-0.296286	-0.012932
O82	O	0.162706	-0.385864	0.076642
O83	O	0.136754	-0.296283	-0.076544
O84	O	0.162707	-0.313113	0.076647
O85	O	0.073139	-0.223534	-0.012927
O86	O	0.226324	-0.313110	0.013035
Cu87	Cu	0.149732	-0.261680	0.000054
Cu88	Cu	0.149730	-0.347717	0.000049
O89	O	0.136756	-0.223532	-0.076539
O90	O	-0.300077	0.213289	0.013034
O91	O	-0.236463	0.086067	-0.012928
O92	O	-0.236466	0.086060	0.076646
O93	O	-0.300074	0.213297	-0.076541
O94	O	-0.309222	0.086062	0.076641
O95	O	-0.309219	0.086070	-0.012933
O96	O	-0.372833	0.213292	0.013029
Cu97	Cu	-0.347669	0.149681	0.000047
Cu98	Cu	-0.261627	0.149678	0.000053
O99	O	-0.372830	0.213300	-0.076546
O100	O	-0.926872	0.304555	-0.541036
O101	O	-0.773688	0.177328	-0.477419
O102	O	-0.863257	0.177325	-0.477417
O103	O	-0.837303	0.304558	-0.541038
O104	O	-0.863255	0.177323	-0.550170
O105	O	-0.773686	0.177326	-0.550173
O106	O	-0.926870	0.304553	-0.613790
Cu107	Cu	-0.850278	0.240940	-0.588624
Cu108	Cu	-0.850280	0.240942	-0.502585
O109	O	-0.837301	0.304556	-0.613792
O110	O	-0.309222	-0.313094	-0.613776
O111	O	-0.372836	-0.223523	-0.550164
O112	O	-0.372834	-0.313097	-0.550160
O113	O	-0.309224	-0.223521	-0.613781
O114	O	-0.300079	-0.385852	-0.477404
O115	O	-0.300081	-0.296279	-0.477409
O116	O	-0.236467	-0.385850	-0.541021
Cu117	Cu	-0.261631	-0.347707	-0.502572
Cu118	Cu	-0.347672	-0.261666	-0.588613
O119	O	-0.236469	-0.296276	-0.541025
C120	C	-0.109443	-0.527076	0.338416
C121	C	-0.051741	-0.581062	0.365410
C122	C	-0.136011	-0.500878	0.364863
C123	C	-0.188656	-0.447863	0.259202
C124	C	-0.215650	-0.417154	0.201500
C125	C	-0.215104	-0.421785	0.285770
C126	C	-0.188656	-0.447863	0.338415
C127	C	-0.215649	-0.417155	0.365408
C128	C	-0.136011	-0.500878	0.285771
C129	C	-0.237457	-0.392345	0.387215
C130	C	-0.005124	-0.624677	0.387218
C131	C	-0.237457	-0.392344	0.154883
C132	C	-0.264816	-0.361220	0.414573
C133	C	0.053360	-0.679395	0.414577
C134	C	-0.264817	-0.361219	0.096399
C135	C	0.176900	-0.447894	0.338441
C136	C	0.173185	-0.417189	0.365437
C137	C	0.177268	-0.500910	0.364887
C138	C	0.176902	-0.447889	0.259226
C139	C	0.173189	-0.417178	0.201523
C140	C	0.177270	-0.500904	0.285792
C141	C	0.176898	-0.527104	0.338437
C142	C	0.173181	-0.581091	0.365429
C143	C	0.177272	-0.421814	0.285795
C144	C	0.170177	-0.624706	0.387234
C145	C	0.170183	-0.392382	0.387246
C146	C	0.170189	-0.392365	0.154906
C147	C	0.166409	-0.679423	0.414591
C148	C	0.166417	-0.361260	0.414607
C149	C	0.166425	-0.361238	0.096422
C150	C	-0.188656	-0.161565	0.338427
C151	C	-0.215650	-0.192274	0.365416
C152	C	-0.136010	-0.187647	0.364876
C153	C	-0.188655	-0.082342	0.259219
C154	C	-0.215648	-0.028347	0.201519
C155	C	-0.136009	-0.108545	0.285789
C156	C	-0.109441	-0.161568	0.338432
C157	C	-0.051739	-0.192281	0.365427
C158	C	-0.215103	-0.108542	0.285783
C159	C	-0.005121	-0.217095	0.387236
C160	C	-0.237458	-0.217086	0.387220
C161	C	-0.237456	0.015274	0.154902
C162	C	0.053363	-0.248225	0.414596
C163	C	-0.264818	-0.248212	0.414575
C164	C	-0.264815	0.070001	0.096420
C165	C	0.118261	-0.049006	-0.400600
C166	C	0.117891	-0.075201	-0.427049
C167	C	0.118257	-0.128221	-0.321388
C168	C	0.117887	-0.154296	-0.347958
C169	C	0.118259	-0.128216	-0.400603
C170	C	0.117889	-0.075206	-0.347955
C171	C	0.124691	0.030176	-0.400391
C172	C	0.128750	0.080217	-0.425324
C173	C	0.130788	0.105316	-0.477489
C174	C	0.135192	0.159570	-0.504524
C175	C	0.128762	0.080383	-0.504729
C176	C	0.124700	0.030348	-0.479798
C177	C	0.122667	0.005244	-0.427629
C178	C	0.124689	-0.134434	-0.479996
C179	C	0.128747	-0.163423	-0.505104
C180	C	0.130780	-0.217623	-0.478038
C181	C	0.135182	-0.249059	-0.505257
C182	C	0.128752	-0.242837	-0.425864
C183	C	0.124692	-0.213848	-0.400759
C184	C	0.122664	-0.159648	-0.427825
C185	C	0.124683	-0.134448	-0.235773
C186	C	0.128745	-0.163447	-0.181672
C187	C	0.130779	-0.217647	-0.154541
C188	C	0.135178	-0.249089	-0.095884
C189	C	0.128755	-0.242857	-0.181502
C190	C	0.124695	-0.213862	-0.235600
C191	C	0.122659	-0.159658	-0.262733
O192	O	0.136720	-0.296316	0.522623
O193	O	0.162693	-0.385890	0.459012
O194	O	0.073116	-0.296315	0.459000
O195	O	0.226297	-0.385891	0.522635
O196	O	0.073125	-0.223561	0.386249
O197	O	0.162702	-0.313136	0.386260
O198	O	0.136728	-0.223562	0.449871
Cu199	Cu	0.149716	-0.261706	0.411423
Cu200	Cu	0.149706	-0.347746	0.497460
O201	O	0.226306	-0.313137	0.449883
C202	C	-0.528835	0.518896	-0.400596
C203	C	-0.502267	0.544976	-0.427040
C204	C	-0.449621	0.439671	-0.321383
C205	C	-0.423173	0.465871	-0.347947
C206	C	-0.449621	0.518894	-0.400591
C207	C	-0.502267	0.465874	-0.347953
C208	C	-0.614449	0.525120	-0.400395
C209	C	-0.668547	0.554117	-0.425332
C210	C	-0.695679	0.608323	-0.477494
C211	C	-0.754336	0.639767	-0.504533
C212	C	-0.668718	0.633538	-0.504729
C213	C	-0.614622	0.604542	-0.479795
C214	C	-0.587490	0.550335	-0.427628
C215	C	-0.449826	0.604722	-0.479976
C216	C	-0.424890	0.633887	-0.505078
C217	C	-0.372726	0.608850	-0.478008
C218	C	-0.345687	0.640471	-0.505221
C219	C	-0.345487	0.554643	-0.425836
C220	C	-0.370420	0.525478	-0.400737
C221	C	-0.422590	0.550520	-0.427807
C222	C	-0.449827	0.360475	-0.235774
C223	C	-0.424895	0.310431	-0.181675
C224	C	-0.372730	0.285329	-0.154541
C225	C	-0.345693	0.231066	-0.095885
C226	C	-0.345493	0.310267	-0.181496
C227	C	-0.370424	0.360310	-0.235593
C228	C	-0.422591	0.385412	-0.262730
H229	H	-0.379922	-0.556092	0.032492
C230	C	-0.340470	-0.612289	0.027326
C231	C	-0.287329	-0.653158	0.072912
C232	C	-0.257374	-0.625724	0.075141
C233	C	-0.280561	-0.557421	0.031782
C234	C	-0.333705	-0.516548	-0.013808
C235	C	-0.363660	-0.543982	-0.016036
H236	H	-0.270162	-0.703724	0.105012
H237	H	-0.218034	-0.655982	0.108890
H238	H	-0.258387	-0.537113	0.033431
H239	H	-0.350872	-0.465982	-0.045908
H240	H	-0.403000	-0.513724	-0.049785
C241	C	0.178078	-0.530525	0.256978
C242	C	0.178478	-0.501709	0.198945
C243	C	0.179287	-0.531331	0.170135
C244	C	0.179696	-0.589770	0.199357
C245	C	0.179295	-0.618590	0.257393
C246	C	0.178486	-0.588967	0.286204
H247	H	0.178176	-0.458446	0.177310
H248	H	0.179584	-0.509997	0.127172
H249	H	0.180295	-0.611698	0.178030
H250	H	0.179598	-0.661852	0.279028
H251	H	0.178190	-0.610302	0.329166
C252	C	-0.454851	0.282995	-0.152026
C253	C	-0.465597	0.282538	-0.102635
C254	C	-0.495553	0.255099	-0.072981
C255	C	-0.514762	0.228118	-0.092719
C256	C	-0.504017	0.228574	-0.142113
C257	C	-0.474061	0.256013	-0.171766
H258	H	-0.451377	0.302511	-0.088021
H259	H	-0.503507	0.254761	-0.036417
H260	H	-0.536937	0.207806	-0.070768
H261	H	-0.518237	0.208600	-0.156727
H262	H	-0.466107	0.256350	-0.208331
H263	H	0.177867	-0.379153	0.264468
C264	C	0.178072	-0.530536	0.423323
C265	C	0.178469	-0.501725	0.452543
C266	C	0.179274	-0.531352	0.510977
C267	C	0.179682	-0.589790	0.540190
C268	C	0.179285	-0.618605	0.510969
C269	C	0.178480	-0.588978	0.452535
H270	H	0.178168	-0.458463	0.430919
H271	H	0.179569	-0.510022	0.532608
H272	H	0.180278	-0.611722	0.583445
H273	H	0.179586	-0.661867	0.532593
H274	H	0.178186	-0.610308	0.430904
H275	H	-0.523604	0.443957	-0.326623
H276	H	-0.114673	-0.522795	0.264437
H277	H	-0.258359	-0.086568	-0.028112
C278	C	-0.340464	0.465853	-0.343352
C279	C	-0.287325	0.407996	-0.331087
C280	C	-0.257370	0.348370	-0.273702
C281	C	-0.280554	0.346601	-0.228583
C282	C	-0.333696	0.404459	-0.240847
C283	C	-0.363651	0.464086	-0.298232
H284	H	-0.270161	0.409305	-0.364488
H285	H	-0.218031	0.305540	-0.264623
H286	H	-0.258380	0.302462	-0.186103
H287	H	-0.350861	0.403151	-0.207447
H288	H	-0.402991	0.506916	-0.307311
C289	C	-0.698565	-0.472946	0.018805
C290	C	-0.723555	-0.492979	0.062160
C291	C	-0.753400	-0.520518	0.059921
C292	C	-0.758255	-0.528024	0.014327
C293	C	-0.733264	-0.507991	-0.029032
C294	C	-0.703419	-0.480452	-0.026793
H295	H	-0.719961	-0.487423	0.095915
H296	H	-0.771900	-0.535348	0.092018
H297	H	-0.780348	-0.548410	0.012669
H298	H	-0.736857	-0.513547	-0.062787
H299	H	-0.684919	-0.465622	-0.058890
H300	H	-0.114679	-0.086619	0.264458
C301	C	-0.107191	-0.245287	0.423309
C302	C	-0.136403	-0.274112	0.452523
C303	C	-0.107584	-0.331750	0.510953
C304	C	-0.049554	-0.360562	0.540169
C305	C	-0.020339	-0.331737	0.510955
C306	C	-0.049158	-0.274099	0.452525
H307	H	-0.179363	-0.252783	0.430896
H308	H	-0.129211	-0.353088	0.532579
H309	H	-0.028220	-0.403229	0.583422
H310	H	0.022621	-0.353065	0.532582
H311	H	-0.027531	-0.252761	0.430899
H312	H	-0.523597	0.587640	-0.470296
H313	H	-0.114683	-0.230250	-0.028108
H314	H	-0.592359	0.480981	-0.357920
C315	C	-0.287746	-0.302823	-0.395387
C316	C	-0.241549	-0.302313	-0.376162
C317	C	-0.184161	-0.361930	-0.346203
C318	C	-0.172970	-0.422057	-0.335470
C319	C	-0.219169	-0.422570	-0.354696
C320	C	-0.276557	-0.362953	-0.384655
H321	H	-0.249832	-0.257801	-0.384106
H322	H	-0.149962	-0.361550	-0.331971
H323	H	-0.130488	-0.466189	-0.313293
H324	H	-0.210886	-0.467082	-0.346752
H325	H	-0.310756	-0.363333	-0.398887
C326	C	-0.507211	-0.611952	0.027352
C327	C	-0.519574	-0.652687	0.072952
C328	C	-0.576958	-0.625079	0.075190
C329	C	-0.621980	-0.556736	0.031827
C330	C	-0.609618	-0.515997	-0.013776
C331	C	-0.552233	-0.543605	-0.016014
H332	H	-0.486245	-0.703282	0.105055
H333	H	-0.586109	-0.655237	0.108949
H334	H	-0.664459	-0.536299	0.033484
H335	H	-0.642947	-0.465402	-0.045879
H336	H	-0.543083	-0.513447	-0.049773
H337	H	-0.348250	-0.518687	0.026730
C338	C	-0.107189	-0.078888	-0.028306
C339	C	-0.136399	-0.020462	-0.028698
C340	C	-0.107579	0.009148	-0.029495
C341	C	-0.049548	-0.019669	-0.029900
C342	C	-0.020335	-0.078099	-0.029507
C343	C	-0.049156	-0.107709	-0.028710
H344	H	-0.179359	0.000873	-0.028399
H345	H	-0.129204	0.052402	-0.029786
H346	H	-0.028214	0.002250	-0.030490
H347	H	0.022625	-0.099434	-0.029807
H348	H	-0.027530	-0.150963	-0.028420
H349	H	-0.114679	-0.522807	0.408119
C350	C	0.122463	-0.241582	-0.343371
C351	C	0.073524	-0.203386	-0.332179
C352	C	0.071295	-0.231122	-0.274790
C353	C	0.118007	-0.297056	-0.228592
C354	C	0.166950	-0.335257	-0.239783
C355	C	0.169178	-0.307520	-0.297172
H356	H	0.038942	-0.154574	-0.366378
H357	H	0.035064	-0.202843	-0.266506
H358	H	0.116357	-0.317588	-0.186109
H359	H	0.201531	-0.384068	-0.205583
H360	H	0.205409	-0.335799	-0.305455
C361	C	-0.531077	-0.397451	0.032708
C362	C	-0.551589	-0.400051	0.079378
C363	C	-0.580393	-0.342426	0.080187
C364	C	-0.588685	-0.282201	0.034326
C365	C	-0.568173	-0.279599	-0.012347
C366	C	-0.539369	-0.337223	-0.013156
H367	H	-0.545451	-0.444635	0.113330
H368	H	-0.595577	-0.344354	0.114738
H369	H	-0.610008	-0.239544	0.034925
H370	H	-0.574311	-0.235014	-0.046299
H371	H	-0.524184	-0.335296	-0.047707
H372	H	-0.258358	-0.086616	0.264453
H373	H	0.123035	-0.090300	-0.502039
H374	H	-0.348193	-0.234430	-0.357937
H375	H	-0.523599	-0.556098	0.032502
H376	H	0.117290	-0.196956	-0.326627
C377	C	-0.454153	-0.136442	-0.151678
C378	C	-0.473328	-0.070563	-0.171273
C379	C	-0.503104	-0.043025	-0.141427
C380	C	-0.513705	-0.081366	-0.091986
C381	C	-0.494530	-0.147248	-0.072388
C382	C	-0.464754	-0.174787	-0.102234
H383	H	-0.465481	-0.042178	-0.207875
H384	H	-0.517299	0.005746	-0.155934
H385	H	-0.535747	-0.060980	-0.069892
H386	H	-0.502377	-0.175634	-0.035787
H387	H	-0.450559	-0.223558	-0.087727
H388	H	-0.258357	-0.379120	0.264434
H389	H	0.117296	-0.053271	-0.470306
H390	H	-0.492302	0.625111	-0.502024
H391	H	0.117336	-0.053308	-0.326611
C392	C	-0.454859	-0.306554	0.018808
C393	C	-0.431671	-0.304794	0.062162
C394	C	-0.461632	-0.245179	0.059936
C395	C	-0.514780	-0.187325	0.014356
C396	C	-0.537970	-0.189082	-0.029001
C397	C	-0.508010	-0.248697	-0.026775
H398	H	-0.392325	-0.347623	0.095906
H399	H	-0.444465	-0.243878	0.092032
H400	H	-0.536959	-0.143194	0.012708
H401	H	-0.577316	-0.146253	-0.062745
H402	H	-0.525177	-0.249998	-0.058871
C403	C	0.130991	-0.302463	-0.396089
C404	C	0.179933	-0.362505	-0.385482
C405	C	0.182171	-0.422129	-0.355705
C406	C	0.135465	-0.421710	-0.336536
C407	C	0.086519	-0.361665	-0.347142
C408	C	0.084282	-0.302041	-0.376919
H409	H	0.214511	-0.362818	-0.399673
H410	H	0.218404	-0.466578	-0.347854
H411	H	0.137121	-0.465847	-0.314493
H412	H	0.051941	-0.361353	-0.332951
H413	H	0.048048	-0.257592	-0.384770
C414	C	-0.698201	-0.306560	0.018818
C415	C	-0.678462	-0.307072	0.065525
C416	C	-0.708120	-0.247455	0.063297
C417	C	-0.757516	-0.187328	0.014361
C418	C	-0.777257	-0.186814	-0.032350
C419	C	-0.747600	-0.246430	-0.030121
H420	H	-0.641894	-0.351584	0.101754
H421	H	-0.693506	-0.247836	0.097875
H422	H	-0.779471	-0.143196	0.012711
H423	H	-0.813826	-0.142302	-0.068578
H424	H	-0.762214	-0.246050	-0.064699
H425	H	0.130388	-0.142913	-0.159727
C426	C	0.122451	-0.074829	-0.265615
C427	C	0.076864	-0.016866	-0.270474
C428	C	0.074640	0.042749	-0.300313
C429	C	0.118004	0.044401	-0.325293
C430	C	0.163595	-0.013564	-0.320434
C431	C	0.165819	-0.073179	-0.290596
H432	H	0.044760	-0.018088	-0.251981
H433	H	0.040890	0.085658	-0.303909
H434	H	0.116358	0.088531	-0.347381
H435	H	0.195699	-0.012342	-0.338927
H436	H	0.199568	-0.116088	-0.286999
C437	C	0.130983	0.107638	-0.395362
C438	C	0.176574	0.066765	-0.342223
C439	C	0.178805	0.094191	-0.312262
C440	C	0.135444	0.162489	-0.335441
C441	C	0.089850	0.203366	-0.388582
C442	C	0.087619	0.175940	-0.418543
H443	H	0.208676	0.016203	-0.325063
H444	H	0.212557	0.063931	-0.272923
H445	H	0.137095	0.182791	-0.313262
H446	H	0.057748	0.253928	-0.405742
H447	H	0.053867	0.206200	-0.457882
H448	H	0.123031	0.009743	-0.357914
C449	C	0.131006	0.107993	-0.562113
C450	C	0.087655	0.176340	-0.607137
C451	C	0.089899	0.203946	-0.664520
C452	C	0.135494	0.163206	-0.676881
C453	C	0.178849	0.094855	-0.631856
C454	C	0.176605	0.067248	-0.574473
H455	H	0.053900	0.206502	-0.597988
H456	H	0.057805	0.254544	-0.697850
H457	H	0.137155	0.183642	-0.719359
H458	H	0.212604	0.064693	-0.641005
H459	H	0.208699	0.016650	-0.541143
C460	C	-0.454856	-0.717024	0.018826
C461	C	-0.431676	-0.785323	0.062191
C462	C	-0.461634	-0.812754	0.059965
C463	C	-0.514772	-0.771885	0.014374
C464	C	-0.537955	-0.703582	-0.028993
C465	C	-0.507997	-0.676151	-0.026767
H466	H	-0.392337	-0.815581	0.095942
H467	H	-0.444472	-0.863317	0.092068
H468	H	-0.536949	-0.792191	0.012726
H469	H	-0.577294	-0.673325	-0.062745
H470	H	-0.525159	-0.625588	-0.058871
C471	C	-0.288108	-0.717365	0.018797
C472	C	-0.277011	-0.717856	-0.030147
C473	C	-0.219628	-0.745461	-0.032388
C474	C	-0.173342	-0.772575	0.014316
C475	C	-0.184438	-0.772085	0.063263
C476	C	-0.241821	-0.744480	0.065504
H477	H	-0.311276	-0.697784	-0.064723
H478	H	-0.211414	-0.745824	-0.068622
H479	H	-0.130863	-0.793010	0.012657
H480	H	-0.150173	-0.792157	0.097839
H481	H	-0.250035	-0.744118	0.101739
C482	C	-0.698203	0.526384	-0.395375
C483	C	-0.723139	0.506208	-0.418562
C484	C	-0.752797	0.478475	-0.388608
C485	C	-0.757520	0.470917	-0.335467
C486	C	-0.732584	0.491094	-0.312276
C487	C	-0.702925	0.518827	-0.342231
H488	H	-0.719643	0.511802	-0.457904
H489	H	-0.771257	0.463539	-0.405775
H490	H	-0.779475	0.450387	-0.313293
H491	H	-0.736079	0.485499	-0.272935
H492	H	-0.684466	0.533763	-0.325064
H493	H	0.123059	0.010043	-0.501975
C494	C	0.130979	-0.135688	-0.562491
C495	C	0.084273	-0.069751	-0.608690
C496	C	0.086505	-0.042020	-0.666078
C497	C	0.135443	-0.080225	-0.677267
C498	C	0.182152	-0.146165	-0.631066
C499	C	0.179920	-0.173897	-0.573678
H500	H	0.048044	-0.041466	-0.600409
H501	H	0.051928	0.006794	-0.700279
H502	H	0.137095	-0.059696	-0.719748
H503	H	0.218381	-0.174450	-0.639347
H504	H	0.214497	-0.222710	-0.539477
H505	H	-0.446407	-0.143596	-0.547231
C506	C	0.130992	-0.302481	-0.151658
C507	C	0.084287	-0.302058	-0.171253
C508	C	0.086521	-0.361680	-0.141408
C509	C	0.135460	-0.421724	-0.091967
C510	C	0.182168	-0.422149	-0.072369
C511	C	0.179934	-0.362527	-0.102214
H512	H	0.048057	-0.257608	-0.207854
H513	H	0.051945	-0.361365	-0.155916
H514	H	0.137114	-0.465860	-0.069874
H515	H	0.218398	-0.466599	-0.035768
H516	H	0.214510	-0.362842	-0.087706
H517	H	0.123049	-0.234393	-0.257550
C518	C	-0.507213	0.388089	-0.265622
C519	C	-0.519587	0.347365	-0.270489
C520	C	-0.576976	0.374984	-0.300334
C521	C	-0.621991	0.443328	-0.325312
C522	C	-0.609618	0.484057	-0.320445
C523	C	-0.552229	0.456437	-0.290600
H524	H	-0.486264	0.296769	-0.251999
H525	H	-0.586135	0.344834	-0.303937
H526	H	-0.664473	0.463773	-0.347405
H527	H	-0.642941	0.534652	-0.338935
H528	H	-0.543070	0.486588	-0.286997
H529	H	-0.379918	0.443941	-0.326613
C530	C	-0.288115	-0.472930	0.018778
C531	C	-0.277016	-0.434590	-0.030165
C532	C	-0.219631	-0.462129	-0.032403
C533	C	-0.173346	-0.528008	0.014302
C534	C	-0.184444	-0.566351	0.063248
C535	C	-0.241829	-0.538813	0.065487
H536	H	-0.311280	-0.385820	-0.064741
H537	H	-0.211416	-0.433744	-0.068637
H538	H	-0.130867	-0.548393	0.012645
H539	H	-0.150180	-0.615122	0.097825
H540	H	-0.250044	-0.567198	0.101720
C541	C	-0.531098	-0.045585	-0.319169
C542	C	-0.539410	-0.083145	-0.267248
C543	C	-0.568236	-0.053522	-0.238442
C544	C	-0.588750	0.013661	-0.261555
C545	C	-0.580439	0.051225	-0.313479
C546	C	-0.551613	0.021602	-0.342286
H547	H	-0.524223	-0.132881	-0.250135
H548	H	-0.574388	-0.081330	-0.200004
H549	H	-0.610089	0.035589	-0.240231
H550	H	-0.595626	0.100961	-0.330592
H551	H	-0.545461	0.049410	-0.380723
C552	C	-0.340462	-0.241580	-0.265641
C553	C	-0.287361	-0.249090	-0.270501
C554	C	-0.257586	-0.276633	-0.300345
C555	C	-0.280913	-0.296667	-0.325327
C556	C	-0.334017	-0.289157	-0.320468
C557	C	-0.363792	-0.261614	-0.290624
H558	H	-0.270091	-0.234259	-0.252007
H559	H	-0.218275	-0.282192	-0.303942
H560	H	-0.258871	-0.317056	-0.347419
H561	H	-0.351287	-0.303988	-0.338962
H562	H	-0.403103	-0.256056	-0.287027
H563	H	-0.690817	0.677680	-0.547206
C564	C	-0.584960	0.632270	-0.509746
C565	C	-0.604685	0.698197	-0.528955
C566	C	-0.575021	0.725924	-0.558905
C567	C	-0.525632	0.687726	-0.569646
C568	C	-0.505904	0.621795	-0.550437
C569	C	-0.535568	0.594068	-0.520487
H570	H	-0.641248	0.726477	-0.521005
H571	H	-0.589625	0.774730	-0.573125
H572	H	-0.503673	0.708251	-0.591817
H573	H	-0.469341	0.593515	-0.558387
H574	H	-0.520964	0.545262	-0.506267
H575	H	-0.447073	0.678020	-0.547557
H576	H	-0.492305	-0.374951	0.026761
H577	H	-0.592670	-0.518703	0.026754
C578	C	-0.288102	0.527102	-0.396058
C579	C	-0.243082	0.507078	-0.419384
C580	C	-0.185697	0.479533	-0.389603
C581	C	-0.173332	0.472013	-0.336496
C582	C	-0.218353	0.492038	-0.313166
C583	C	-0.275738	0.519582	-0.342947
H584	H	-0.252234	0.512644	-0.458700
H585	H	-0.152370	0.464710	-0.406874
H586	H	-0.130852	0.451623	-0.314450
H587	H	-0.209201	0.486471	-0.273851
H588	H	-0.309066	0.534406	-0.325677
C589	C	-0.531095	-0.045585	-0.485505
C590	C	-0.539406	-0.083143	-0.499865
C591	C	-0.568228	-0.053520	-0.558297
C592	C	-0.588739	0.013663	-0.602368
C593	C	-0.580429	0.051225	-0.588009
C594	C	-0.551607	0.021602	-0.529577
H595	H	-0.524222	-0.132879	-0.467240
H596	H	-0.574380	-0.081326	-0.568926
H597	H	-0.610075	0.035592	-0.645622
H598	H	-0.595613	0.100961	-0.620634
H599	H	-0.545455	0.049408	-0.518948
C600	C	-0.287748	-0.302821	-0.152047
C601	C	-0.242628	-0.304589	-0.127100
C602	C	-0.185240	-0.364207	-0.097451
C603	C	-0.172973	-0.422057	-0.092748
C604	C	-0.218095	-0.420291	-0.117695
C605	C	-0.275482	-0.360674	-0.147345
H606	H	-0.251708	-0.261763	-0.130581
H607	H	-0.151839	-0.365513	-0.078984
H608	H	-0.130492	-0.466189	-0.070800
H609	H	-0.209015	-0.463117	-0.114215
H610	H	-0.308884	-0.359367	-0.165812
C611	C	-0.288107	0.282655	-0.151649
C612	C	-0.243089	0.214312	-0.126669
C613	C	-0.185703	0.186697	-0.096821
C614	C	-0.173335	0.227426	-0.091953
C615	C	-0.218355	0.295773	-0.116933
C616	C	-0.275741	0.323388	-0.146781
H617	H	-0.252243	0.184158	-0.130272
H618	H	-0.152377	0.136102	-0.078329
H619	H	-0.130855	0.206984	-0.069858
H620	H	-0.209201	0.325926	-0.113330
H621	H	-0.309067	0.373983	-0.165273
H622	H	-0.348244	0.380614	-0.257539
H623	H	-0.379925	-0.196959	-0.326649
C624	C	-0.698207	0.107639	-0.562510
C625	C	-0.747600	0.108094	-0.573697
C626	C	-0.777258	0.135522	-0.631084
C627	C	-0.757523	0.162495	-0.677284
C628	C	-0.708128	0.162041	-0.666098
C629	C	-0.678469	0.134613	-0.608711
H630	H	-0.762211	0.088126	-0.539495
H631	H	-0.813824	0.135858	-0.639364
H632	H	-0.779478	0.182799	-0.719766
H633	H	-0.693516	0.182009	-0.700300
H634	H	-0.641903	0.134277	-0.600431
C635	C	-0.698575	0.107987	-0.396107
C636	C	-0.748010	0.108477	-0.385499
C637	C	-0.777855	0.136083	-0.355722
C638	C	-0.758266	0.163199	-0.336552
C639	C	-0.708829	0.162710	-0.347159
C640	C	-0.678983	0.135104	-0.376937
H641	H	-0.762513	0.088403	-0.399690
H642	H	-0.814452	0.136445	-0.347869
H643	H	-0.780360	0.183635	-0.314509
H644	H	-0.694326	0.182783	-0.332969
H645	H	-0.642387	0.134741	-0.384789
H646	H	-0.592359	-0.374950	0.026761
H647	H	-0.491961	-0.090687	-0.257571
H648	H	-0.491953	-0.090678	-0.502003
H649	H	-0.592365	0.009742	-0.502060
H650	H	-0.592678	0.010046	-0.358301
