data_functionalizedCrystal
_audit_creation_method	'MofGen! by Chris Wilmer'
_symmetry_space_group_name_H-M	'P1'
_symmetry_Int_Tables_number	1
_symmetry_cell_setting	triclinic
loop_
_symmetry_equiv_pos_as_xyz
  x,y,z
_cell_length_a	21.395362
_cell_length_b	25.639240
_cell_length_c	21.395355
_cell_angle_alpha	89.978599
_cell_angle_beta	90.043940
_cell_angle_gamma	89.940961
loop_
_atom_site_label
_atom_site_type_symbol
_atom_site_fract_x
_atom_site_fract_y
_atom_site_fract_z
Zn1	Zn	0.957805	0.207990	0.354573
Zn2	Zn	1.457805	0.707990	0.854573
Zn3	Zn	0.957685	0.295410	0.249790
Zn4	Zn	1.457685	0.795410	0.749790
Zn5	Zn	0.853020	0.208014	0.249774
Zn6	Zn	1.353020	0.708014	0.749774
Zn7	Zn	0.852967	0.295420	0.354495
Zn8	Zn	1.352967	0.795420	0.854495
O9	O	0.905369	0.251708	0.302158
O10	O	1.405369	0.751708	0.802158
O11	O	1.045467	0.219572	0.340713
O12	O	1.545467	0.719572	0.840713
O13	O	0.943773	0.283822	0.162110
O14	O	1.443773	0.783822	0.662110
O15	O	0.866993	0.134846	0.263702
O16	O	1.366993	0.634846	0.763702
O17	O	1.045379	0.283798	0.263729
O18	O	1.545379	0.783798	0.763729
O19	O	0.943978	0.134828	0.340697
O20	O	1.443978	0.634828	0.840697
O21	O	0.866876	0.219613	0.162098
O22	O	1.366876	0.719613	0.662098
O23	O	0.765335	0.219623	0.263626
O24	O	1.265335	0.719623	0.763626
O25	O	0.866902	0.283817	0.442183
O26	O	1.366902	0.783817	0.942183
O27	O	0.765296	0.283840	0.340564
O28	O	1.265296	0.783840	0.840564
O29	O	0.943926	0.219582	0.442241
O30	O	1.443926	0.719582	0.942241
O31	O	0.943721	0.368576	0.263654
O32	O	1.443721	0.868576	0.763654
O33	O	0.866785	0.368584	0.340580
O34	O	1.366785	0.868584	0.840580
C35	C	0.742582	0.251736	0.302085
C36	C	1.242582	0.751736	0.802085
C37	C	0.672940	0.251760	0.302069
C38	C	1.172940	0.751760	0.802069
C39	C	0.640223	0.285243	0.342071
C40	C	1.140223	0.785243	0.842071
C41	C	0.574788	0.285230	0.342099
C42	C	1.074788	0.785230	0.842099
C43	C	0.542072	0.251740	0.302114
C44	C	1.042072	0.751740	0.802114
C45	C	0.574797	0.218252	0.262110
C46	C	1.074797	0.718252	0.762110
C47	C	0.640231	0.218262	0.262087
C48	C	1.140231	0.718262	0.762087
C49	C	0.438348	0.247528	0.245709
C50	C	0.938348	0.747528	0.745709
C51	C	0.372915	0.247522	0.245730
C52	C	0.872915	0.747522	0.745730
C53	C	0.340251	0.251706	0.302183
C54	C	0.840251	0.751706	0.802183
C55	C	0.373028	0.255908	0.358616
C56	C	0.873028	0.755908	0.858616
C57	C	0.438462	0.255918	0.358594
C58	C	0.938462	0.755918	0.858594
C59	C	0.471120	0.251725	0.302134
C60	C	0.971120	0.751725	0.802134
C61	C	0.236582	0.285176	0.342218
C62	C	0.736582	0.785176	0.842218
C63	C	0.171145	0.285160	0.342247
C64	C	0.671145	0.785160	0.842247
C65	C	0.171156	0.218185	0.262252
C66	C	0.671156	0.718185	0.762252
C67	C	0.236591	0.218198	0.262229
C68	C	0.736591	0.718198	0.762229
C69	C	0.269300	0.251697	0.302211
C70	C	0.769300	0.751697	0.802211
C71	C	0.905251	0.387551	0.302124
C72	C	1.405251	0.887551	0.802124
C73	C	0.905258	0.445665	0.302130
C74	C	1.405258	0.945665	0.802130
C75	C	0.945483	0.806011	0.262147
C76	C	1.445483	1.306011	0.762147
C77	C	0.945502	0.860616	0.262153
C78	C	1.445502	1.360616	0.762153
O79	O	0.979619	0.888838	0.228139
O80	O	1.479619	1.388838	0.728139
N81	N	0.905420	0.887947	0.302172
N82	N	1.405420	1.387947	0.802172
C83	C	0.865321	0.860672	0.342192
C84	C	1.365321	1.360672	0.842192
O85	O	0.831230	0.888934	0.376233
O86	O	1.331230	1.388934	0.876233
C87	C	0.865305	0.806069	0.342189
C88	C	1.365305	1.306069	0.842189
C89	C	0.905385	0.778740	0.302163
C90	C	1.405385	1.278740	0.802163
C91	C	0.985560	0.778682	0.222125
C92	C	1.485560	1.278682	0.722125
C93	C	0.985540	0.724082	0.222118
C94	C	1.485540	1.224082	0.722118
C95	C	0.945442	0.696810	0.262134
C96	C	1.445442	1.196810	0.762134
C97	C	0.905365	0.724139	0.302156
C98	C	1.405365	1.224139	0.802156
C99	C	0.825210	0.778794	0.382212
C100	C	1.325210	1.278794	0.882212
C101	C	0.825198	0.724187	0.382205
C102	C	1.325198	1.224187	0.882205
C103	C	0.865278	0.696858	0.342179
C104	C	1.365278	1.196858	0.842179
C105	C	0.865247	0.642267	0.342165
C106	C	1.365247	1.142267	0.842165
N107	N	0.905329	0.614935	0.302146
N108	N	1.405329	1.114935	0.802146
C109	C	0.945427	0.642207	0.262130
C110	C	1.445427	1.142207	0.762130
C111	C	0.865357	0.975343	0.342197
C112	C	1.365357	1.475343	0.842197
C113	C	0.865369	1.029945	0.342198
C114	C	1.365369	1.529945	0.842198
C115	C	0.945551	1.029885	0.262159
C116	C	1.445551	1.529885	0.762159
C117	C	0.945536	0.975282	0.262156
C118	C	1.445536	1.475282	0.762156
C119	C	0.905439	0.948011	0.302178
C120	C	1.405439	1.448011	0.802178
C121	C	0.945381	0.527542	0.262119
C122	C	1.445381	1.027542	0.762119
C123	C	0.945355	0.472937	0.262114
C124	C	1.445355	0.972937	0.762114
C125	C	0.865176	0.473002	0.342155
C126	C	1.365176	0.973002	0.842155
C127	C	0.865199	0.527602	0.342157
C128	C	1.365199	1.027602	0.842157
C129	C	0.905306	0.554871	0.302138
C130	C	1.405306	1.054871	0.802138
O131	O	0.831149	0.614010	0.376164
O132	O	1.331149	1.114010	0.876164
O133	O	0.979517	0.613939	0.228101
O134	O	1.479517	1.113939	0.728101
C135	C	1.068793	0.251681	0.302231
C136	C	1.568793	0.751681	0.802231
C137	C	1.138434	0.251669	0.302263
C138	C	1.638434	0.751669	0.802263
C139	C	0.905421	0.251698	0.465581
C140	C	1.405421	0.751698	0.965581
C141	C	0.905443	0.251693	0.535223
C142	C	1.405443	0.751693	1.035223
C143	C	0.905481	1.115335	0.302196
C144	C	1.405481	1.615335	0.802196
C145	C	0.905469	1.057221	0.302184
C146	C	1.405469	1.557221	0.802184
C147	C	0.905354	0.251681	0.139371
C148	C	1.405354	0.751681	0.639371
C149	C	0.905453	0.251538	0.069730
C150	C	1.405453	0.751538	0.569730
C151	C	0.945548	0.218245	0.567967
C152	C	1.445548	0.718245	1.067967
C153	C	0.945548	0.218222	0.633402
C154	C	1.445548	0.718222	1.133402
C155	C	0.905448	0.251658	0.666091
C156	C	1.405448	0.751658	1.166091
C157	C	0.865336	0.285109	0.633339
C158	C	1.365336	0.785109	1.133339
C159	C	0.865333	0.285126	0.567905
C160	C	1.365333	0.785126	1.067905
C161	C	0.900460	0.298736	0.769752
C162	C	1.400460	0.798736	1.269752
C163	C	0.900467	0.298719	0.835185
C164	C	1.400467	0.798719	1.335185
C165	C	0.905452	0.251602	0.867912
C166	C	1.405452	0.751602	1.367912
C167	C	0.910444	0.204501	0.835198
C168	C	1.410444	0.704501	1.335198
C169	C	0.910441	0.204519	0.769764
C170	C	1.410441	0.704519	1.269764
C171	C	0.905446	0.251642	0.737044
C172	C	1.405446	0.751642	1.237044
C173	C	0.945558	0.218127	0.971609
C174	C	1.445558	0.718127	1.471609
C175	C	0.945553	0.218103	1.037045
C176	C	1.445553	0.718103	1.537045
C177	C	0.865345	0.284994	1.036981
C178	C	1.365345	0.784994	1.536981
C179	C	0.865347	0.285013	0.971546
C180	C	1.365347	0.785013	1.471546
C181	C	0.905457	0.251580	0.938863
C182	C	1.405457	0.751580	1.438863
H183	H	0.548144	0.312495	0.374675
H184	H	1.048144	0.812495	0.874675
H185	H	0.832726	1.052192	0.374785
H186	H	1.332726	1.552192	0.874785
C187	C	0.821235	0.321774	1.072935
C188	C	1.321235	0.821774	1.572935
N189	N	0.788010	0.349477	1.100019
N190	N	1.288010	0.849477	1.600019
C191	C	0.676221	0.181430	0.218077
C192	C	1.176221	0.681430	0.718077
N193	N	0.703330	0.153689	0.184926
N194	N	1.203330	0.653689	0.684926
C195	C	0.989628	0.945225	0.218126
C196	C	1.489628	1.445225	0.718126
N197	N	1.022842	0.922589	0.184962
N198	N	1.522842	1.422589	0.684962
H199	H	0.832672	0.312363	0.541245
H200	H	1.332672	0.812363	1.041245
H201	H	0.832700	0.953142	0.374786
H202	H	1.332700	1.453142	0.874786
C203	C	0.989673	0.181304	1.073064
C204	C	1.489673	0.681304	1.573064
N205	N	1.022906	0.153587	1.100193
N206	N	1.522906	0.653587	1.600193
H207	H	0.832692	0.312253	0.944885
H208	H	1.332692	0.812253	1.444885
C209	C	0.135172	0.181345	0.218269
C210	C	0.635172	0.681345	0.718269
N211	N	0.108066	0.153596	0.185140
N212	N	0.608066	0.653596	0.685140
H213	H	0.666851	0.312519	0.374628
H214	H	1.166851	0.812519	0.874628
H215	H	0.978215	0.190901	0.944997
H216	H	1.478215	0.690901	1.444997
C217	C	0.272564	0.322019	0.386206
C218	C	0.772564	0.822019	0.886206
N219	N	0.299664	0.349768	0.419339
N220	N	0.799664	0.849768	0.919339
H221	H	0.978203	1.052099	0.229578
H222	H	1.478203	1.552099	0.729578
H223	H	0.263230	0.190936	0.229652
H224	H	0.763230	0.690936	0.729652
C225	C	0.989445	0.442878	0.218077
C226	C	1.489445	0.942878	0.718077
N227	N	1.022653	0.420240	0.184909
N228	N	1.522653	0.920240	0.684909
H229	H	0.792547	0.701986	0.414798
H230	H	1.292547	1.201986	0.914798
H231	H	0.896406	0.337072	0.861816
H232	H	1.396406	0.837072	1.361816
C233	C	0.336867	0.242896	0.183653
C234	C	0.836867	0.742896	0.683653
N235	N	0.309717	0.239410	0.136895
N236	N	0.809717	0.739410	0.636895
H237	H	0.832564	0.549855	0.374752
H238	H	1.332564	1.049855	0.874752
C239	C	0.894988	0.350573	0.733759
C240	C	1.394988	0.850573	1.233759
N241	N	0.890870	0.389615	0.706650
N242	N	1.390870	0.889615	1.206650
C243	C	0.474272	0.242927	0.183602
C244	C	0.974272	0.742927	0.683602
N245	N	0.501329	0.239463	0.136824
N246	N	1.001329	0.739463	0.636824
C247	C	0.781119	0.808844	0.426247
C248	C	1.281119	1.308844	0.926247
N249	N	0.747909	0.831477	0.459417
N250	N	1.247909	1.331477	0.959417
C251	C	0.821073	0.442992	0.386172
C252	C	1.321073	0.942992	0.886172
N253	N	0.787859	0.420388	0.419331
N254	N	1.287859	0.920388	0.919331
H255	H	0.914504	0.166134	0.861843
H256	H	1.414504	0.666134	1.361843
H257	H	0.832685	0.312330	0.659959
H258	H	1.332685	0.812330	1.159959
H259	H	0.465147	0.259338	0.404544
H260	H	0.965147	0.759338	0.904544
C261	C	0.989498	0.557530	0.218091
C262	C	1.489498	1.057530	0.718091
N263	N	1.022723	0.580116	0.184926
N264	N	1.522723	1.080116	0.684926
C265	C	0.337103	0.260509	0.420720
C266	C	0.837103	0.760509	0.920720
N267	N	0.310041	0.263975	0.467495
N268	N	0.810041	0.763975	0.967495
H269	H	1.018215	0.800881	0.189539
H270	H	1.518215	1.300881	0.689539
C271	C	0.989663	0.181460	0.532020
C272	C	1.489663	0.681460	1.032020
N273	N	1.022887	0.153752	0.504944
N274	N	1.522887	0.653752	1.004944
C275	C	0.538809	0.181413	0.218126
C276	C	1.038809	0.681413	0.718126
N277	N	0.511702	0.153664	0.184998
N278	N	1.011702	0.653664	0.684998
C279	C	0.135156	0.321999	0.386249
C280	C	0.635156	0.821999	0.886249
N281	N	0.108049	0.349750	0.419389
N282	N	0.608049	0.849750	0.919389
H283	H	0.914504	0.166167	0.743130
H284	H	1.414504	0.666167	1.243130
C285	C	0.989672	0.181428	0.669428
C286	C	1.489672	0.681428	1.169428
N287	N	1.022908	0.153716	0.696561
N288	N	1.522908	0.653716	1.196561
H289	H	1.018178	0.701834	0.189527
H290	H	1.518178	1.201834	0.689527
