data_functionalizedCrystal
_audit_creation_method	'MofGen! by Chris Wilmer'
_symmetry_space_group_name_H-M	'P1'
_symmetry_Int_Tables_number	1
_symmetry_cell_setting	triclinic
loop_
_symmetry_equiv_pos_as_xyz
  x,y,z
_cell_length_a	16.120484
_cell_length_b	12.759401
_cell_length_c	12.759393
_cell_angle_alpha	89.981425
_cell_angle_beta	92.862829
_cell_angle_gamma	92.925831
loop_
_atom_site_label
_atom_site_type_symbol
_atom_site_fract_x
_atom_site_fract_y
_atom_site_fract_z
Zn1	Zn	-0.331847	1.584972	-0.615149
Zn2	Zn	-0.471285	1.575923	-0.448362
Zn3	Zn	-0.331891	1.409271	-0.439491
Zn4	Zn	-0.471221	1.400323	-0.623999
O5	O	-0.401561	1.492622	-0.531750
O6	O	-0.350352	1.730792	-0.593033
O7	O	-0.452839	1.553774	-0.300167
O8	O	-0.215220	1.440109	-0.455376
O9	O	-0.452796	1.724144	-0.470495
O10	O	-0.215187	1.569196	-0.584431
O11	O	-0.350427	1.431336	-0.293649
O12	O	-0.350365	1.261064	-0.463957
O13	O	-0.452687	1.424860	-0.769843
O14	O	-0.452730	1.254490	-0.599514
O15	O	-0.350290	1.560520	-0.763341
O16	O	-0.587941	1.545098	-0.479077
O17	O	-0.587895	1.416086	-0.608116
C18	C	-0.401547	1.219656	-0.531734
C19	C	-0.401560	1.102878	-0.531754
C20	C	-0.348314	1.051472	-0.595669
C21	C	-0.348323	0.941748	-0.595676
C22	C	-0.454831	0.934844	-0.467851
C23	C	-0.454818	1.044567	-0.467839
C24	C	-0.618168	1.478668	-0.545542
C25	C	-0.710833	1.472794	-0.551478
C26	C	-0.880494	1.462076	-0.562336
C27	C	-0.921787	1.523357	-0.501181
C28	C	-1.016192	1.517393	-0.507222
C29	C	-0.786081	1.468038	-0.556296
C30	C	-0.184108	1.506660	-0.517927
C31	C	-0.091442	1.512642	-0.512036
C32	C	-0.401477	1.492701	-0.805778
C33	C	-0.401441	1.492735	-0.922552
C34	C	-0.401576	1.766655	-0.531766
C35	C	-0.401582	1.883431	-0.531773
C36	C	-0.348105	1.429006	-0.974020
C37	C	-0.348079	1.429032	-1.083742
C38	C	-0.454727	1.556525	-1.090521
C39	C	-0.454756	1.556492	-0.980800
C40	C	-0.401585	1.492608	-0.258784
C41	C	-0.401386	1.492793	-0.141995
H42	H	-0.304946	1.098947	-0.647709
Cl43	Cl	-0.281037	1.348897	-1.148440
H44	H	-0.916041	1.405137	-0.619225
H45	H	-0.304692	1.377090	-0.926597
Cl46	Cl	-0.521747	1.636676	-1.163754
Cl47	Cl	-0.281380	0.877128	-0.676029
Cl48	Cl	-0.866906	1.611268	-0.413334
H49	H	-0.498192	0.887354	-0.415815
Cl50	Cl	-0.521753	1.109197	-0.387470
Cl51	Cl	-0.521816	1.636611	-0.916094
