data_functionalizedCrystal
_audit_creation_method	'MofGen! by Chris Wilmer'
_symmetry_space_group_name_H-M	'P1'
_symmetry_Int_Tables_number	1
_symmetry_cell_setting	triclinic
loop_
_symmetry_equiv_pos_as_xyz
  x,y,z
_cell_length_a	6.817900
_cell_length_b	11.102244
_cell_length_c	17.110486
_cell_angle_alpha	95.183323
_cell_angle_beta	99.060439
_cell_angle_gamma	108.604870
loop_
_atom_site_label
_atom_site_type_symbol
_atom_site_fract_x
_atom_site_fract_y
_atom_site_fract_z
V1	V	-4.002958	-0.175460	-0.246718
O2	O	-3.964063	0.008821	-0.242024
O3	O	-3.980473	-0.348282	-0.245029
O4	O	-3.932390	-0.172590	-0.354321
O5	O	-4.012479	-0.168087	-0.131974
V6	V	-4.486101	-0.153438	-0.232994
O7	O	-4.265051	-0.223767	-0.276823
O8	O	-4.674205	-0.105131	-0.202889
O9	O	-4.285380	0.019384	-0.234683
O10	O	-4.642393	-0.337719	-0.237688
O11	O	-4.593977	-0.160811	-0.347738
O12	O	-4.333463	-0.156308	-0.125391
C13	C	-3.832495	-0.390418	-0.241136
C14	C	-3.895249	-0.531701	-0.240472
C15	C	-3.896445	-0.580048	-0.167699
C16	C	-3.955421	-0.712801	-0.167084
C17	C	-4.011992	-0.748851	-0.312022
C18	C	-3.953032	-0.616100	-0.312636
C19	C	-3.838663	-0.495648	-0.095535
C20	C	-3.839854	-0.543993	-0.022756
C21	C	-3.898829	-0.676747	-0.022141
C22	C	-3.956613	-0.761155	-0.094306
C23	C	-3.771160	-0.166304	-0.380549
C24	C	-3.794917	-0.165101	-0.468515
C25	C	-3.988316	-0.170879	-0.513873
C26	C	-4.010627	-0.169748	-0.596526
C27	C	-3.839540	-0.162848	-0.633821
C28	C	-3.646123	-0.157066	-0.588456
C29	C	-3.623811	-0.158188	-0.505804
C30	C	-3.897788	-0.159135	-0.883176
C31	C	-3.920118	-0.158017	-0.965835
C32	C	-4.284619	-0.170697	-0.973898
C33	C	-4.262293	-0.171826	-0.891244
C34	C	-4.068877	-0.166037	-0.845887
C35	C	-3.862343	-0.161696	-0.718306
C36	C	-4.046072	-0.167180	-0.761402
C37	C	-4.096701	0.061513	-0.238574
C38	C	-4.013184	0.202795	-0.239243
C39	C	-4.158037	-0.162599	-0.099159
C40	C	-4.113517	-0.163795	-0.011192
H41	H	-3.952090	-0.576738	-0.371895
Br42	Br	-4.547100	-0.178550	-1.035458
Br43	Br	-4.494500	-0.181201	-0.840637
Br44	Br	-4.090405	-0.863402	-0.409952
H45	H	-4.127643	-0.176506	-0.483514
Br46	Br	-3.630171	-0.152349	-0.768929
H47	H	-4.168107	-0.174445	-0.633452
H48	H	-3.792820	-0.475261	0.035997
H49	H	-3.899816	-0.716105	0.037118
H50	H	-3.780785	-0.152394	-0.996197
Br51	Br	-3.413929	-0.147699	-0.639069
Br52	Br	-3.361322	-0.150328	-0.444244
H53	H	-3.740321	-0.154466	-0.846259
Br54	Br	-4.036681	-0.941322	-0.093470
H55	H	-3.790627	-0.387552	-0.096027
H56	H	-4.185367	-0.172794	-0.731033
