data_functionalizedCrystal
_audit_creation_method	'MofGen! by Chris Wilmer'
_symmetry_space_group_name_H-M	'P1'
_symmetry_Int_Tables_number	1
_symmetry_cell_setting	triclinic
loop_
_symmetry_equiv_pos_as_xyz
  x,y,z
_cell_length_a	10.968094
_cell_length_b	11.026607
_cell_length_c	16.776229
_cell_angle_alpha	89.996140
_cell_angle_beta	102.120330
_cell_angle_gamma	96.379842
loop_
_atom_site_label
_atom_site_type_symbol
_atom_site_fract_x
_atom_site_fract_y
_atom_site_fract_z
O1	O	1.693901	0.170470	0.166375
O2	O	2.193901	0.670470	0.666375
O3	O	1.334292	0.186803	0.116981
O4	O	1.834292	0.686803	0.616981
O5	O	1.484293	0.001737	0.137587
O6	O	1.984293	0.501737	0.637587
O7	O	1.543901	0.355537	0.145769
O8	O	2.043901	0.855537	0.645769
O9	O	1.484265	0.001725	0.270160
O10	O	1.984265	0.501725	0.770160
O11	O	1.334264	0.186792	0.249553
O12	O	1.834264	0.686792	0.749553
O13	O	1.693873	0.170458	0.298948
O14	O	2.193873	0.670458	0.798948
Zn15	Zn	1.514064	0.178623	0.295299
Zn16	Zn	2.014064	0.678623	0.795299
Zn17	Zn	1.514101	0.178639	0.120629
Zn18	Zn	2.014101	0.678639	0.620629
O19	O	1.543873	0.355525	0.278341
O20	O	2.043873	0.855525	0.778341
C21	C	1.287525	0.185611	0.176845
C22	C	1.787525	0.685611	0.676845
C23	C	1.148212	0.182062	0.157710
C24	C	1.648212	0.682062	0.657710
C25	C	0.942090	0.176792	0.198072
C26	C	1.442090	0.676792	0.698072
C27	C	1.086079	0.180470	0.217858
C28	C	1.586079	0.680470	0.717858
C29	C	1.473282	-0.043571	0.202362
C30	C	1.973282	0.456429	0.702362
C31	C	1.440501	-0.178557	0.197856
C32	C	1.940501	0.321443	0.697856
C33	C	1.531016	-0.251612	0.210288
C34	C	2.031016	0.248388	0.710288
C35	C	1.497137	-0.391127	0.205632
C36	C	1.997137	0.108873	0.705632
C37	C	1.740640	0.171651	0.239081
C38	C	2.240640	0.671651	0.739081
C39	C	1.879954	0.175200	0.258212
C40	C	2.379954	0.675200	0.758212
C41	C	1.554883	0.400833	0.213565
C42	C	2.054883	0.900833	0.713565
C43	C	1.587665	0.535819	0.218065
C44	C	2.087665	1.035819	0.718065
N45	N	1.514048	0.178612	0.414508
N46	N	2.014048	0.678612	0.914508
N47	N	1.514125	0.178640	0.001421
N48	N	2.014125	0.678640	0.501421
C49	C	1.580502	0.096699	0.465354
C50	C	2.080502	0.596699	0.965354
C51	C	1.580508	0.096698	0.548808
C52	C	2.080508	0.596698	1.048808
C53	C	1.514068	0.178617	0.581414
C54	C	2.014068	0.678617	1.081414
C55	C	1.447606	0.260534	0.530561
C56	C	1.947606	0.760534	1.030561
C57	C	1.447593	0.260528	0.447108
C58	C	1.947593	0.760528	0.947108
C59	C	1.447657	0.260559	0.867115
C60	C	1.947657	0.760559	1.367115
C61	C	1.447678	0.260561	0.950574
C62	C	1.947678	0.760561	1.450574
C63	C	1.580572	0.096728	0.968814
C64	C	2.080572	0.596728	1.468814
C65	C	1.580559	0.096722	0.885362
C66	C	2.080559	0.596722	1.385362
C67	C	1.514092	0.178634	0.834515
C68	C	2.014092	0.678634	1.334515
C69	C	1.514084	0.178633	0.744026
C70	C	2.014084	0.678633	1.244026
C71	C	1.514083	0.178625	0.671903
C72	C	2.014083	0.678625	1.171903
H73	H	0.888688	0.175426	0.131937
H74	H	1.388688	0.675426	0.631937
H75	H	1.633590	-0.210870	0.224382
H76	H	2.133590	0.289130	0.724382
H77	H	1.634689	0.030026	1.010222
H78	H	2.134689	0.530026	1.510222
N79	N	1.077495	0.180265	0.070098
N80	N	1.577495	0.680265	0.570098
H81	H	1.138746	0.181832	0.032684
H82	H	1.638746	0.681832	0.532684
H83	H	1.016403	0.103639	0.058602
H84	H	1.516403	0.603639	0.558602
N85	N	1.361254	-0.445072	0.186959
N86	N	1.861254	0.054928	0.686959
H87	H	1.356312	-0.537090	0.186278
H88	H	1.856312	-0.037090	0.686278
H89	H	1.318272	-0.417056	0.230204
H90	H	1.818272	0.082944	0.730204
N91	N	1.156793	0.182261	0.305470
N92	N	1.656793	0.682261	0.805470
H93	H	1.249629	0.184633	0.307186
H94	H	1.749629	0.684633	0.807186
H95	H	1.140746	0.256914	0.334840
H96	H	1.640746	0.756914	0.834840
N97	N	1.723551	-0.410245	0.236737
N98	N	2.223551	0.089755	0.736737
H99	H	1.766610	-0.438175	0.193506
H100	H	2.266610	0.061825	0.693506
H101	H	1.728394	-0.318236	0.237435
H102	H	2.228394	0.181764	0.737435
H103	H	1.634619	0.029997	0.590207
H104	H	2.134619	0.529997	1.090207
N105	N	1.304625	-0.232508	0.179185
N106	N	1.804625	0.267492	0.679185
H107	H	1.299683	-0.324526	0.178504
H108	H	1.799683	0.175474	0.678504
H109	H	1.261643	-0.204492	0.222430
H110	H	1.761643	0.295508	0.722430
N111	N	1.375933	0.348884	0.565723
N112	N	1.875933	0.848884	1.065723
H113	H	1.386026	0.336462	0.626306
H114	H	1.886026	0.836462	1.126306
H115	H	1.409737	0.435261	0.555767
H116	H	1.909737	0.935261	1.055767
H117	H	0.933355	0.176553	0.324347
H118	H	1.433355	0.676553	0.824347
N119	N	1.375963	0.348896	0.812279
N120	N	1.875963	0.848896	1.312279
H121	H	1.333879	0.400791	0.845601
H122	H	1.833879	0.900791	1.345601
H123	H	1.435877	0.403072	0.785867
H124	H	1.935877	0.903072	1.285867
H125	H	1.634611	0.029996	0.438814
H126	H	2.134611	0.529996	0.938814
N127	N	1.375918	0.348884	0.392270
N128	N	1.875918	0.848884	0.892270
H129	H	1.435769	0.403138	0.365852
H130	H	1.935769	0.903138	0.865852
H131	H	1.310126	0.301841	0.348670
H132	H	1.810126	0.801841	0.848670
N133	N	1.375997	0.348912	0.985738
N134	N	1.875997	0.848912	1.485738
H135	H	1.310228	0.301950	1.011342
H136	H	1.810228	0.801950	1.511342
H137	H	1.435945	0.403156	1.028537
H138	H	1.935945	0.903156	1.528537
H139	H	1.634666	0.030020	0.858818
H140	H	2.134666	0.530020	1.358818
