data_functionalizedCrystal
_audit_creation_method	'MofGen! by Chris Wilmer'
_symmetry_space_group_name_H-M	'P1'
_symmetry_Int_Tables_number	1
_symmetry_cell_setting	triclinic
loop_
_symmetry_equiv_pos_as_xyz
  x,y,z
_cell_length_a	14.853558
_cell_length_b	14.519731
_cell_length_c	13.330367
_cell_angle_alpha	89.994378
_cell_angle_beta	89.992972
_cell_angle_gamma	83.659993
loop_
_atom_site_label
_atom_site_type_symbol
_atom_site_fract_x
_atom_site_fract_y
_atom_site_fract_z
O1	O	1.196430	0.120363	-0.083414
O2	O	0.933976	0.134715	-0.083418
O3	O	1.072151	-0.006701	-0.083407
O4	O	1.058254	0.261779	-0.083425
O5	O	1.072131	-0.006705	0.083440
O6	O	0.933956	0.134712	0.083429
O7	O	1.196410	0.120360	0.083434
Cu8	Cu	1.065181	0.127535	0.098666
Cu9	Cu	1.065205	0.127539	-0.098650
O10	O	1.058234	0.261776	0.083422
C11	C	0.900377	0.134064	0.000005
C12	C	0.800291	0.132120	0.000003
C13	C	0.753282	0.131210	-0.090949
C14	C	0.753258	0.131196	0.090954
C15	C	0.659224	0.129364	0.090956
C16	C	0.612214	0.128454	0.000004
C17	C	0.659239	0.129376	-0.090950
C18	C	0.612193	0.128433	0.181908
C19	C	0.518153	0.126601	0.181913
C20	C	0.471141	0.125697	0.090960
C21	C	0.518171	0.126620	0.000003
C22	C	0.471162	0.125710	-0.090949
C23	C	0.518190	0.126639	-0.181908
C24	C	0.612227	0.128472	-0.181903
C25	C	0.377104	0.123864	0.090956
C26	C	0.377119	0.123875	-0.090950
C27	C	1.071490	-0.041062	0.000017
C28	C	1.069539	-0.143442	0.000018
C29	C	1.067953	-0.226585	0.000015
C30	C	1.065972	-0.330893	0.000008
C31	C	1.064400	-0.414031	0.000001
C32	C	1.062419	-0.518346	-0.000005
C33	C	1.230009	0.121010	0.000008
C34	C	1.330094	0.122954	0.000003
C35	C	1.058895	0.296136	-0.000004
C36	C	1.060847	0.398516	-0.000011
N37	N	1.065171	0.127532	0.237447
N38	N	1.065222	0.127535	-0.237432
C39	C	1.004018	0.190133	0.710065
C40	C	1.126416	0.064937	0.710043
C41	C	1.126405	0.064934	0.605025
C42	C	1.065201	0.127533	0.552522
C43	C	1.004007	0.190134	0.605037
C44	C	1.187604	0.002341	0.552502
C45	C	1.187597	0.002336	0.447477
C46	C	1.126388	0.064931	0.394972
C47	C	1.065191	0.127534	0.447494
C48	C	1.003987	0.190132	0.394990
C49	C	0.942785	0.252732	0.447510
C50	C	0.942798	0.252729	0.552532
C51	C	1.126375	0.064934	0.289950
C52	C	1.003977	0.190133	0.289962
H53	H	0.650476	0.129166	0.255956
H54	H	0.338849	0.123140	-0.165016
H55	H	1.176209	0.013970	0.247194
C56	C	0.527585	0.126780	0.361721
C57	C	0.466463	0.125592	0.281892
H58	H	0.495669	0.126166	0.423442
H59	H	0.571044	0.073759	0.357942
H60	H	0.557482	0.181233	0.357926
H61	H	0.436570	0.071136	0.285683
H62	H	0.422987	0.178619	0.285673
C63	C	1.240155	-0.157259	0.415429
C64	C	1.254858	-0.066580	0.389876
H65	H	1.281674	-0.199835	0.379900
H66	H	1.248854	-0.166103	0.485506
H67	H	1.179968	-0.167341	0.398195
H68	H	1.315044	-0.056496	0.407118
H69	H	1.246167	-0.057733	0.319784
H70	H	0.892956	0.303704	0.404750
H71	H	0.892971	0.303696	0.595300
C72	C	0.374041	0.123830	-0.262665
C73	C	0.466510	0.125640	-0.281881
H74	H	0.342135	0.123219	-0.324383
H75	H	0.365427	0.069791	-0.225302
H76	H	0.351848	0.177264	-0.225288
H77	H	0.488705	0.072202	-0.319251
H78	H	0.475129	0.179685	-0.319260
C79	C	0.848041	0.243990	0.742426
C80	C	0.936744	0.258936	0.767792
H81	H	0.806511	0.286462	0.778072
H82	H	0.839286	0.252955	0.672374
H83	H	0.838167	0.182417	0.759648
H84	H	0.946621	0.320507	0.750563
H85	H	0.945504	0.249978	0.837860
C86	C	1.206951	-0.123126	0.670616
C87	C	1.254869	-0.066465	0.610222
H88	H	1.248478	-0.165609	0.706250
H89	H	1.170509	-0.085841	0.716909
H90	H	1.169377	-0.156368	0.629641
H91	H	1.292438	-0.033218	0.651198
H92	H	1.291327	-0.103754	0.563923
H93	H	0.338816	0.123116	0.165013
H94	H	0.954133	0.241106	0.247220
H95	H	0.791576	0.131971	-0.165005
C96	C	0.756391	0.131272	-0.262667
C97	C	0.663923	0.129481	-0.281878
H98	H	0.788307	0.131886	-0.324387
H99	H	0.765007	0.185304	-0.225307
H100	H	0.778570	0.077831	-0.225290
H101	H	0.641742	0.182926	-0.319249
H102	H	0.655301	0.075443	-0.319253
H103	H	0.791540	0.131929	0.165003
H104	H	1.176251	0.013976	0.752795
