data_functionalizedCrystal
_audit_creation_method	'MofGen! by Chris Wilmer'
_symmetry_space_group_name_H-M	'P1'
_symmetry_Int_Tables_number	1
_symmetry_cell_setting	triclinic
loop_
_symmetry_equiv_pos_as_xyz
  x,y,z
_cell_length_a	10.723022
_cell_length_b	11.792241
_cell_length_c	9.198806
_cell_angle_alpha	90.003330
_cell_angle_beta	90.003648
_cell_angle_gamma	84.330321
loop_
_atom_site_label
_atom_site_type_symbol
_atom_site_fract_x
_atom_site_fract_y
_atom_site_fract_z
O1	O	1.656768	0.159184	0.120884
O2	O	2.156768	0.659184	0.620884
O3	O	1.293575	0.174423	0.120889
O4	O	1.793575	0.674423	0.620889
O5	O	1.483985	0.001652	0.120876
O6	O	1.983985	0.501652	0.620876
O7	O	1.466358	0.331955	0.120897
O8	O	1.966358	0.831955	0.620897
O9	O	1.483970	0.001652	-0.120909
O10	O	1.983970	0.501652	0.379091
O11	O	1.293560	0.174423	-0.120896
O12	O	1.793560	0.674423	0.379104
O13	O	1.656753	0.159183	-0.120901
O14	O	2.156753	0.659183	0.379099
Cu15	Cu	1.475155	0.166803	-0.142976
Cu16	Cu	1.975155	0.666803	0.357024
Cu17	Cu	1.475173	0.166804	0.142963
Cu18	Cu	1.975173	0.666804	0.642963
O19	O	1.466342	0.331954	-0.120889
O20	O	1.966342	0.831954	0.379111
C21	C	1.247070	0.173315	-0.000003
C22	C	1.747070	0.673315	0.499997
C23	C	1.108525	0.169997	-0.000002
C24	C	1.608525	0.669997	0.499998
C25	C	0.890100	0.263240	0.000007
C26	C	1.390100	0.763240	0.500007
C27	C	1.033294	0.266671	0.000005
C28	C	1.533294	0.766671	0.500005
C29	C	1.482870	-0.040641	-0.000016
C30	C	1.982870	0.459359	0.499984
C31	C	1.479556	-0.166662	-0.000015
C32	C	1.979556	0.333338	0.499985
C33	C	1.473462	-0.397388	0.000010
C34	C	1.973462	0.102612	0.500010
C35	C	1.476848	-0.268995	-0.000004
C36	C	1.976848	0.231005	0.499996
C37	C	1.703257	0.160292	-0.000006
C38	C	2.203257	0.660292	0.499994
C39	C	1.841802	0.163609	0.000002
C40	C	2.341802	0.663609	0.500002
C41	C	1.467457	0.374248	0.000007
C42	C	1.967457	0.874248	0.500007
C43	C	1.470771	0.500269	0.000015
C44	C	1.970771	1.000269	0.500015
N45	N	1.475151	0.166802	-0.344090
N46	N	1.975151	0.666802	0.155910
C47	C	1.555100	0.093940	-0.416292
C48	C	2.055100	0.593940	0.083708
C49	C	1.555119	0.093936	-0.583704
C50	C	2.055119	0.593936	-0.083704
N51	N	1.475186	0.166796	0.344077
N52	N	1.975186	0.666796	0.844077
H53	H	1.623529	0.031559	-0.354171
H54	H	2.123529	0.531559	0.145829
H55	H	1.066947	0.084690	0.000032
H56	H	1.566947	0.584690	0.500032
C57	C	1.004802	0.047459	0.124285
C58	C	1.504802	0.547459	0.624285
C59	C	0.929083	0.051882	-0.000005
C60	C	1.429083	0.551882	0.499995
H61	H	1.058688	-0.021516	0.124273
H62	H	1.558688	0.478484	0.624273
H63	H	0.953436	0.050470	0.208584
H64	H	1.453436	0.550470	0.708584
H65	H	1.053651	0.110418	0.124274
H66	H	1.553651	0.610418	0.624274
H67	H	0.880228	-0.011072	0.000011
H68	H	1.380228	0.488928	0.500011
H69	H	0.980456	0.048861	-0.084326
H70	H	1.480456	0.548861	0.415674
H71	H	1.623571	0.031561	-0.645795
H72	H	2.123571	0.531561	-0.145795
H73	H	1.406740	0.229183	-0.593841
H74	H	1.906740	0.729183	-0.093841
H75	H	1.406714	0.229175	-0.406213
H76	H	1.906714	0.729175	0.093787
H77	H	0.825438	0.345998	0.000022
H78	H	1.325438	0.845998	0.500022
H79	H	1.074880	0.351974	0.000002
H80	H	1.574880	0.851974	0.500002
