data_functionalizedCrystal
_audit_creation_method	'MofGen! by Chris Wilmer'
_symmetry_space_group_name_H-M	'P1'
_symmetry_Int_Tables_number	1
_symmetry_cell_setting	triclinic
loop_
_symmetry_equiv_pos_as_xyz
  x,y,z
_cell_length_a	15.995350
_cell_length_b	16.992695
_cell_length_c	16.053802
_cell_angle_alpha	87.258926
_cell_angle_beta	92.577622
_cell_angle_gamma	87.080299
loop_
_atom_site_label
_atom_site_type_symbol
_atom_site_fract_x
_atom_site_fract_y
_atom_site_fract_z
O1	O	-1.121056	-0.097771	-0.069359
O2	O	-0.878117	-0.110251	-0.069376
O3	O	-0.998613	0.010132	-0.069361
O4	O	-1.000561	-0.218153	-0.069374
O5	O	-0.991978	0.003533	0.069497
O6	O	-0.871483	-0.116849	0.069482
O7	O	-1.114422	-0.104370	0.069499
Zn8	Zn	-0.991899	-0.111657	0.091537
Zn9	Zn	-1.000640	-0.102963	-0.091414
O10	O	-0.993927	-0.224752	0.069484
C11	C	-0.843571	-0.113034	0.000051
C12	C	-0.750517	-0.111487	0.000044
C13	C	-0.992790	0.036045	0.000068
C14	C	-0.985314	0.123089	0.000067
C15	C	-1.148969	-0.101586	0.000071
C16	C	-1.242022	-0.103133	0.000072
C17	C	-0.412397	-0.105932	0.000062
C18	C	-0.454079	-0.020213	0.000377
C19	C	-0.550888	-0.021745	0.000058
C20	C	-0.580143	-0.108688	0.000054
C21	C	-0.545673	-0.147206	-0.079240
C22	C	-0.448896	-0.145050	-0.079301
C23	C	-0.441132	-0.154325	0.078607
C24	C	-0.538026	-0.154355	0.079649
C25	C	-0.674945	-0.110249	0.000046
C26	C	-0.317595	-0.104373	0.000064
C27	C	-0.999750	-0.250665	0.000054
C28	C	-1.007226	-0.337709	0.000049
N29	N	-0.985940	-0.117590	0.216397
C30	C	-1.057449	0.173329	0.000073
C31	C	-1.050419	0.255116	0.000065
C32	C	-0.971254	0.286661	0.000056
C33	C	-0.899114	0.236415	0.000048
C34	C	-0.906144	0.154630	0.000050
C35	C	-0.942116	0.530260	0.000043
C36	C	-0.935091	0.612051	0.000043
C37	C	-1.086398	0.630747	0.000058
C38	C	-1.093421	0.548959	0.000066
C39	C	-1.021281	0.498720	0.000053
N40	N	-0.964067	0.370260	0.000050
N41	N	-1.028469	0.415123	0.000053
N42	N	-1.006606	-0.097024	-0.216274
C43	C	-1.037232	-0.066386	0.260097
C44	C	-1.033072	-0.070544	0.347504
C45	C	-0.977623	-0.125910	0.391208
C46	C	-0.926325	-0.177117	0.347501
C47	C	-0.930482	-0.172955	0.260097
C48	C	-0.959465	-0.144068	0.652615
C49	C	-0.955314	-0.148228	0.740026
C50	C	-1.062060	-0.041653	0.740022
C51	C	-1.066215	-0.037499	0.652616
C52	C	-1.014914	-0.088703	0.608917
N53	N	-0.973371	-0.130163	0.480551
N54	N	-1.019162	-0.084446	0.519575
H55	H	-0.574377	0.008794	0.056899
Cl56	Cl	-0.856613	-0.246719	0.402442
Cl57	Cl	-0.885601	-0.217840	0.794963
H58	H	-0.888713	-0.214650	0.224517
H59	H	-1.111366	0.007585	0.617034
H60	H	-0.431356	-0.111395	-0.138572
H61	H	-1.103825	0.000036	0.775610
Cl62	Cl	-1.156976	0.133681	0.000092
Cl63	Cl	-0.851425	0.467113	0.000024
H64	H	-1.074837	-0.028848	0.383084
H65	H	-0.574902	-0.115031	-0.138249
H66	H	-0.430547	0.011355	0.057242
H67	H	-0.917695	-0.185762	0.617042
Cl68	Cl	-0.815456	0.091470	0.000040
Cl69	Cl	-1.141108	0.318272	0.000075
H70	H	-0.413574	-0.217562	0.079140
H71	H	-0.579227	0.014426	-0.056879
H72	H	-1.157885	0.523282	0.000073
H73	H	-0.434905	0.016587	-0.056171
H74	H	-0.421032	-0.207824	-0.082902
H75	H	-0.564213	-0.210941	-0.082191
H76	H	-1.145130	0.671660	0.000067
H77	H	-0.415849	-0.129153	0.138710
H78	H	-0.560474	-0.126273	0.138311
H79	H	-0.834656	0.262105	0.000036
H80	H	-0.557405	-0.217983	0.084436
H81	H	-1.082388	-0.021304	0.224519
Cl82	Cl	-0.835561	0.651705	0.000037
