data_functionalizedCrystal
_audit_creation_method	'MofGen! by Chris Wilmer'
_symmetry_space_group_name_H-M	'P1'
_symmetry_Int_Tables_number	1
_symmetry_cell_setting	triclinic
loop_
_symmetry_equiv_pos_as_xyz
  x,y,z
_cell_length_a	10.654541
_cell_length_b	10.654545
_cell_length_c	7.681481
_cell_angle_alpha	84.204528
_cell_angle_beta	95.780509
_cell_angle_gamma	84.484678
loop_
_atom_site_label
_atom_site_type_symbol
_atom_site_fract_x
_atom_site_fract_y
_atom_site_fract_z
O1	O	1.656078	0.188166	-0.146365
O2	O	1.290598	0.204977	-0.146380
O3	O	1.481741	0.013832	-0.146371
O4	O	1.464936	0.379311	-0.146374
O5	O	1.505267	-0.009748	0.146488
O6	O	1.314124	0.181396	0.146479
O7	O	1.679604	0.164586	0.146493
Zn8	Zn	1.500600	0.169247	0.192984
Zn9	Zn	1.469603	0.200316	-0.192870
O10	O	1.488462	0.355731	0.146485
C11	C	1.255563	0.191953	0.000048
C12	C	1.116119	0.188263	0.000042
C13	C	1.088147	0.416829	0.000018
C14	C	1.008652	0.529374	-0.000001
C15	C	0.877634	0.525899	-0.000003
C16	C	0.826110	0.409866	0.000020
C17	C	0.905605	0.297321	0.000039
C18	C	1.036624	0.300809	0.000035
C19	C	0.933578	0.068756	0.000075
C20	C	1.064595	0.072230	0.000065
C21	C	0.882054	-0.047276	0.000098
C22	C	0.961548	-0.159823	0.000105
C23	C	1.092574	-0.156342	0.000104
C24	C	1.144091	-0.040315	0.000084
C25	C	1.492269	-0.044756	0.000055
C26	C	1.488576	-0.184198	0.000045
C27	C	1.462942	-0.158498	-0.319239
C28	C	1.448395	-0.211159	-0.478880
C29	C	1.444926	-0.342177	-0.478883
C30	C	1.456001	-0.420540	-0.319226
C31	C	1.470548	-0.367879	-0.159585
C32	C	1.474020	-0.236857	-0.159600
C33	C	1.496172	-0.393578	0.159695
C34	C	1.499651	-0.262560	0.159701
C35	C	1.507248	-0.471940	0.319351
C36	C	1.521804	-0.419281	0.478996
C37	C	1.525274	-0.288254	0.478991
C38	C	1.514198	-0.209900	0.319342
C39	C	1.714639	0.177610	0.000062
C40	C	1.854082	0.181301	0.000056
C41	C	1.477933	0.414319	0.000055
C42	C	1.481626	0.553762	0.000054
N43	N	1.521763	0.148043	0.456319
N44	N	1.448450	0.221510	-0.456205
H45	H	0.775372	-0.050099	0.000107
C46	C	1.347338	0.322809	0.442202
N47	N	1.271177	0.399108	0.365671
C48	C	1.517978	-0.065770	0.319322
N49	N	1.520806	0.042793	0.319299
C50	C	1.622880	0.046737	0.557919
N51	N	1.699038	-0.029566	0.634446
H52	H	0.719428	0.407044	0.000040
C53	C	1.533976	-0.505485	0.654598
N54	N	1.543146	-0.570419	0.786864
C55	C	1.288212	-0.036476	0.000088
N56	N	1.396767	-0.033580	0.000101
H57	H	1.157293	-0.247991	0.000127
H58	H	0.919586	-0.254288	0.000122
C59	C	0.790187	0.649702	-0.000024
N60	N	0.724321	0.742952	-0.000042
H61	H	1.194825	0.419674	-0.000020
C62	C	1.436225	-0.124953	-0.654494
N63	N	1.427061	-0.060026	-0.786766
C64	C	1.466793	-0.014378	-0.319252
N65	N	1.469701	0.094176	-0.319265
H66	H	1.433069	-0.385050	-0.608876
H67	H	1.537100	-0.245385	0.608991
C68	C	1.452151	-0.564659	-0.319238
N69	N	1.449245	-0.673211	-0.319246
H70	H	1.504415	-0.578621	0.319338
H71	H	1.050618	0.623846	-0.000015
