data_functionalizedCrystal
_audit_creation_method	'MofGen! by Chris Wilmer'
_symmetry_space_group_name_H-M	'P1'
_symmetry_Int_Tables_number	1
_symmetry_cell_setting	triclinic
loop_
_symmetry_equiv_pos_as_xyz
  x,y,z
_cell_length_a	16.992694
_cell_length_b	15.944551
_cell_length_c	16.053802
_cell_angle_alpha	92.564789
_cell_angle_beta	87.249047
_cell_angle_gamma	87.083481
loop_
_atom_site_label
_atom_site_type_symbol
_atom_site_fract_x
_atom_site_fract_y
_atom_site_fract_z
O1	O	1.043704	0.174798	-0.069327
O2	O	1.377037	0.508131	0.264006
O3	O	1.710370	0.841465	0.597339
O4	O	0.815419	0.172843	-0.069352
O5	O	1.148753	0.506176	0.263981
O6	O	1.482086	0.839510	0.597315
O7	O	0.935795	0.051964	-0.069332
O8	O	1.269128	0.385298	0.264002
O9	O	1.602462	0.718631	0.597335
O10	O	0.923328	0.295677	-0.069348
O11	O	1.256661	0.629010	0.263985
O12	O	1.589994	0.962344	0.597319
O13	O	0.929169	0.058588	0.069526
O14	O	1.262502	0.391922	0.402860
O15	O	1.595836	0.725255	0.736193
O16	O	0.808793	0.179467	0.069506
O17	O	1.142127	0.512801	0.402839
O18	O	1.475460	0.846134	0.736172
O19	O	1.037078	0.181422	0.069530
O20	O	1.370411	0.514756	0.402864
O21	O	1.703744	0.848089	0.736197
Zn22	Zn	0.921884	0.181497	0.091565
Zn23	Zn	1.255217	0.514830	0.424898
Zn24	Zn	1.588550	0.848163	0.758231
Zn25	Zn	0.930613	0.172769	-0.091386
Zn26	Zn	1.263947	0.506102	0.241947
Zn27	Zn	1.597280	0.839435	0.575280
O28	O	0.916702	0.302301	0.069510
O29	O	1.250035	0.635634	0.402843
O30	O	1.583369	0.968968	0.736177
C31	C	0.782894	0.173641	0.000074
C32	C	1.116227	0.506975	0.333407
C33	C	1.449560	0.840308	0.666741
C34	C	0.695850	0.166141	0.000065
C35	C	1.029183	0.499474	0.333398
C36	C	1.362516	0.832807	0.666731
C37	C	0.931964	0.023948	0.000097
C38	C	1.265298	0.357281	0.333431
C39	C	1.598631	0.690614	0.666764
C40	C	0.930413	-0.069402	0.000098
C41	C	1.263746	0.263931	0.333431
C42	C	1.597079	0.597264	0.666764
C43	C	0.645613	0.238506	0.000061
C44	C	0.978947	0.571839	0.333394
C45	C	1.312280	0.905172	0.666727
C46	C	0.563826	0.231454	0.000073
C47	C	0.897159	0.564787	0.333406
C48	C	1.230492	0.898121	0.666739
C49	C	0.532276	0.152037	0.000083
C50	C	0.865610	0.485370	0.333416
C51	C	1.198943	0.818703	0.666749
C52	C	0.582519	0.079667	0.000089
C53	C	0.915853	0.413000	0.333423
C54	C	1.249186	0.746333	0.666756
C55	C	0.664305	0.086719	0.000083
C56	C	0.997638	0.420053	0.333417
C57	C	1.330972	0.753386	0.666750
C58	C	0.288676	0.122807	0.000107
C59	C	0.622009	0.456140	0.333440
C60	C	0.955343	0.789473	0.666774
C61	C	0.206884	0.115759	0.000111
C62	C	0.540217	0.449093	0.333444
C63	C	0.873551	0.782426	0.666777
C64	C	0.188196	0.267548	0.000095
C65	C	0.521529	0.600881	0.333429
C66	C	0.854863	0.934214	0.666762
C67	C	0.269984	0.274593	0.000084
C68	C	0.603318	0.607926	0.333417
C69	C	0.936651	0.941260	0.666751
C70	C	0.320220	0.202223	0.000095
C71	C	0.653553	0.535556	0.333429
C72	C	0.986886	0.868890	0.666762
N73	N	0.448677	0.144827	0.000092
N74	N	0.782010	0.478160	0.333426
N75	N	1.115343	0.811494	0.666759
N76	N	0.403818	0.209434	0.000092
N77	N	0.737151	0.542767	0.333425
N78	N	1.070484	0.876101	0.666758
C79	C	0.852090	-0.289513	0.000078
C80	C	1.185423	0.043820	0.333411
C81	C	1.518756	0.377154	0.666745
C82	C	0.885194	-0.344825	0.068547
C83	C	1.218527	-0.011491	0.401880
C84	C	1.551860	0.321842	0.735214
C85	C	0.927606	-0.240317	0.000091
C86	C	1.260939	0.093016	0.333424
C87	C	1.594272	0.426350	0.666758
C88	C	0.891744	-0.351338	-0.068356
C89	C	1.225077	-0.018005	0.264978
C90	C	1.558411	0.315329	0.598311
C91	C	0.924889	-0.405412	0.000081
C92	C	1.258222	-0.072079	0.333414
C93	C	1.591556	0.261254	0.666748
C94	C	0.960728	-0.294396	0.068617
C95	C	1.294061	0.038937	0.401950
C96	C	1.627395	0.372270	0.735283
C97	C	0.967271	-0.300907	-0.068348
C98	C	1.300604	0.032427	0.264986
C99	C	1.633937	0.365760	0.598319
C100	C	1.000429	-0.356196	0.000138
C101	C	1.333762	-0.022863	0.333472
C102	C	1.667095	0.310470	0.666805
C103	C	0.929169	-0.145209	0.000098
C104	C	1.262502	0.188124	0.333431
C105	C	1.595835	0.521457	0.666764
C106	C	0.923332	-0.500518	0.000080
C107	C	1.256665	-0.167185	0.333414
C108	C	1.589998	0.166149	0.666747
C109	C	1.069603	0.180624	0.000103
C110	C	1.402937	0.513957	0.333436
C111	C	1.736270	0.847291	0.666769
C112	C	1.156648	0.188124	0.000106
C113	C	1.489981	0.521458	0.333440
C114	C	1.823314	0.854791	0.666773
C115	C	0.920533	0.330318	0.000079
C116	C	1.253866	0.663651	0.333412
C117	C	1.587199	0.996984	0.666746
C118	C	0.922085	0.423667	0.000073
C119	C	1.255418	0.757001	0.333407
C120	C	1.588751	1.090334	0.666740
N121	N	0.915931	0.187453	0.216424
N122	N	1.249265	0.520786	0.549757
N123	N	1.582598	0.854120	0.883091
N124	N	0.936572	0.166806	-0.216246
N125	N	1.269905	0.500140	0.117088
N126	N	1.603238	0.833473	0.450421
C127	C	0.967170	0.136040	0.260127
C128	C	1.300504	0.469373	0.593460
C129	C	1.633837	0.802706	0.926793
C130	C	0.963014	0.140215	0.347533
C131	C	1.296347	0.473548	0.680866
C132	C	1.629681	0.806881	1.014199
C133	C	0.907622	0.195808	0.391235
C134	C	1.240955	0.529141	0.724568
C135	C	1.574289	0.862474	1.057901
C136	C	0.856378	0.247223	0.347526
C137	C	1.189711	0.580556	0.680859
C138	C	1.523045	0.913890	1.014192
C139	C	0.860531	0.243043	0.260121
C140	C	1.193864	0.576377	0.593455
C141	C	1.527198	0.909710	0.926788
C142	C	0.889481	0.214042	0.652641
C143	C	1.222814	0.547375	0.985974
C144	C	1.556147	0.880708	1.319308
C145	C	0.885333	0.218220	0.740052
C146	C	1.218666	0.551553	1.073385
C147	C	1.552000	0.884886	1.406718
C148	C	0.991968	0.111209	0.740053
C149	C	1.325302	0.444543	1.073386
C150	C	1.658635	0.777876	1.406719
C151	C	0.996120	0.107038	0.652646
C152	C	1.329453	0.440371	0.985980
C153	C	1.662787	0.773705	1.319313
C154	C	0.944873	0.158450	0.608945
C155	C	1.278206	0.491784	0.942279
C156	C	1.611540	0.825117	1.275612
N157	N	0.903374	0.200078	0.480578
N158	N	1.236707	0.533412	0.813911
N159	N	1.570041	0.866745	1.147244
N160	N	0.949118	0.154175	0.519604
N161	N	1.282451	0.487508	0.852937
N162	N	1.615785	0.820841	1.186271
H163	H	0.671294	0.303176	0.000052
H164	H	1.004627	0.636509	0.333385
H165	H	1.337960	0.969842	0.666718
H166	H	0.329568	0.063878	0.000117
H167	H	0.662902	0.397211	0.333450
H168	H	0.996235	0.730544	0.666783
H169	H	0.840224	0.263494	0.775630
H170	H	1.173557	0.596827	1.108963
H171	H	1.506891	0.930160	1.442296
F172	F	0.173309	0.031230	0.000136
F173	F	0.506642	0.364563	0.333469
F174	F	0.839976	0.697896	0.666803
H175	H	0.147286	0.326467	0.000088
H176	H	0.480619	0.659800	0.333421
H177	H	0.813953	0.993133	0.666754
F178	F	0.770156	-0.251469	0.000154
F179	F	1.103489	0.081864	0.333487
F180	F	1.436822	0.415197	0.666821
H181	H	1.033690	0.069351	0.775642
H182	H	1.367024	0.402684	1.108975
H183	H	1.700357	0.736018	1.442309
F184	F	0.717770	0.009699	0.000091
F185	F	1.051104	0.343032	0.333424
F186	F	1.384437	0.676365	0.666758
H187	H	0.847755	0.255905	0.617067
H188	H	1.181088	0.589239	0.950400
H189	H	1.514421	0.922572	1.283733
H190	H	0.850491	-0.364314	0.126426
H191	H	1.183824	-0.030981	0.459759
H192	H	1.517158	0.302353	0.793092
F193	F	0.998830	-0.261860	0.144359
F194	F	1.332163	0.071473	0.477693
F195	F	1.665497	0.404807	0.811026
H196	H	0.295666	0.339262	0.000066
H197	H	0.628999	0.672596	0.333399
H198	H	0.962332	1.005929	0.666733
F199	F	1.082427	-0.394037	0.000195
F200	F	1.415761	-0.060704	0.333528
F201	F	1.749094	0.272630	0.666862
H202	H	1.001946	-0.281397	-0.126229
H203	H	1.335279	0.051936	0.207104
H204	H	1.668612	0.385269	0.540438
H205	H	0.556825	0.015004	0.000110
H206	H	0.890158	0.348337	0.333443
H207	H	1.223492	0.681671	0.666776
F208	F	0.853588	-0.384008	-0.144010
F209	F	1.186921	-0.050675	0.189323
F210	F	1.520254	0.282658	0.522656
F211	F	0.797421	0.306386	0.394037
F212	F	1.130754	0.639719	0.727371
F213	F	1.464088	0.973053	1.060704
F214	F	1.017547	0.085494	0.394045
F215	F	1.350880	0.418827	0.727378
F216	F	1.684214	0.752161	1.060711
F217	F	0.510363	0.308475	0.000064
F218	F	0.843697	0.641808	0.333398
F219	F	1.177030	0.975142	0.666731
F220	F	1.026130	0.076873	0.213624
F221	F	1.359464	0.410207	0.546957
F222	F	1.692797	0.743540	0.880291
H223	H	1.041224	0.061770	0.617066
H224	H	1.374558	0.395103	0.950400
H225	H	1.707891	0.728436	1.283733
H226	H	0.818806	0.284908	0.224539
H227	H	1.152139	0.618242	0.557873
H228	H	1.485473	0.951575	0.891206
