data_functionalizedCrystal
_audit_creation_method	'MofGen! by Chris Wilmer'
_symmetry_space_group_name_H-M	'P1'
_symmetry_Int_Tables_number	1
_symmetry_cell_setting	triclinic
loop_
_symmetry_equiv_pos_as_xyz
  x,y,z
_cell_length_a	11.792241
_cell_length_b	11.026607
_cell_length_c	10.065875
_cell_angle_alpha	79.268236
_cell_angle_beta	98.803625
_cell_angle_gamma	96.389716
loop_
_atom_site_label
_atom_site_type_symbol
_atom_site_fract_x
_atom_site_fract_y
_atom_site_fract_z
O1	O	-1.552943	-0.148821	-0.113353
O2	O	-1.226014	-0.165980	-0.113384
O3	O	-1.362382	0.019430	-0.113366
O4	O	-1.416574	-0.334231	-0.113371
O5	O	-1.336408	-0.016068	0.113619
O6	O	-1.200039	-0.201479	0.113601
O7	O	-1.526968	-0.184319	0.113632
Zn8	Zn	-1.359380	-0.198535	0.149655
Zn9	Zn	-1.393602	-0.151764	-0.149407
O10	O	-1.390600	-0.369730	0.113614
C11	C	-1.170522	-0.182651	0.000104
C12	C	-1.043869	-0.179422	0.000092
C13	C	-1.339398	0.046958	0.000124
C14	C	-1.309596	0.181870	0.000116
C15	C	-1.582461	-0.167648	0.000141
C16	C	-1.709115	-0.170876	0.000144
C17	C	-0.811974	-0.173493	0.000132
C18	C	-0.941016	-0.176787	0.000110
C19	C	-1.413585	-0.397257	0.000121
C20	C	-1.443387	-0.532167	0.000120
N21	N	-1.336032	-0.230453	0.353758
C22	C	-1.391885	0.255133	0.000122
C23	C	-1.361086	0.394571	0.000114
N24	N	-1.416957	-0.119836	-0.353510
C25	C	-1.385470	-0.162862	0.421543
C26	C	-1.367512	-0.187437	0.578708
H27	H	-1.485137	0.214625	0.000139
C28	C	-1.183612	0.236585	0.000106
N29	N	-1.088717	0.277794	0.000102
H30	H	-1.280406	-0.306510	0.412077
H31	H	-1.267828	0.435073	0.000096
C32	C	-1.292360	-0.290195	0.657484
N33	N	-1.235757	-0.367591	0.716821
C34	C	-1.569378	0.413125	0.000134
N35	N	-1.664272	0.371918	0.000146
H36	H	-1.441086	-0.086796	0.363226
C37	C	-1.492110	-0.017078	0.567717
N38	N	-1.548719	0.060314	0.508384
