data_functionalizedCrystal
_audit_creation_method	'MofGen! by Chris Wilmer'
_symmetry_space_group_name_H-M	'P1'
_symmetry_Int_Tables_number	1
_symmetry_cell_setting	triclinic
loop_
_symmetry_equiv_pos_as_xyz
  x,y,z
_cell_length_a	19.805407
_cell_length_b	12.759394
_cell_length_c	19.805399
_cell_angle_alpha	90.022004
_cell_angle_beta	90.019573
_cell_angle_gamma	90.014642
loop_
_atom_site_label
_atom_site_type_symbol
_atom_site_fract_x
_atom_site_fract_y
_atom_site_fract_z
Zn1	Zn	1.034791	-0.418291	0.382746
Zn2	Zn	1.034729	-0.593984	0.269569
Zn3	Zn	0.921606	-0.418320	0.269570
Zn4	Zn	0.921592	-0.593928	0.382715
O5	O	0.978180	-0.506131	0.326150
O6	O	1.129499	-0.441608	0.367745
O7	O	1.019703	-0.570717	0.174852
O8	O	0.936651	-0.271295	0.284597
O9	O	1.129454	-0.570689	0.284594
O10	O	1.019808	-0.271274	0.367746
O11	O	0.936591	-0.441658	0.174854
O12	O	0.826887	-0.441603	0.284567
O13	O	0.936629	-0.570594	0.477436
O14	O	0.826878	-0.570622	0.367695
O15	O	1.019795	-0.441554	0.477458
O16	O	1.019690	-0.740998	0.284564
O17	O	0.936569	-0.740957	0.367693
C18	C	0.802324	-0.506111	0.326128
C19	C	0.727092	-0.506127	0.326135
C20	C	0.978140	-0.779098	0.326140
C21	C	0.978184	-0.895875	0.326158
C22	C	0.691760	-0.573409	0.369349
C23	C	0.621072	-0.573411	0.369359
C24	C	0.585716	-0.506136	0.326150
C25	C	0.621052	-0.438847	0.282934
C26	C	0.691740	-0.438841	0.282928
C27	C	0.335979	-0.438870	0.282956
C28	C	0.265287	-0.438884	0.282964
C29	C	0.265311	-0.573440	0.369387
C30	C	0.335998	-0.573434	0.369381
C31	C	0.371329	-0.506142	0.326168
C32	C	0.447977	-0.506139	0.326159
C33	C	0.509069	-0.506143	0.326155
C34	C	1.064882	-1.115288	0.239689
C35	C	1.108175	-1.060411	0.196436
C36	C	1.108140	-0.950689	0.196423
C37	C	1.064806	-0.895842	0.239666
C38	C	1.021513	-0.950719	0.282918
C39	C	1.021554	-1.060443	0.282929
C40	C	0.934891	-0.950752	0.369411
C41	C	0.934929	-1.060474	0.369429
C42	C	0.891557	-0.895905	0.412654
C43	C	0.848266	-0.950782	0.455911
C44	C	0.848304	-1.060511	0.455923
C45	C	0.891636	-1.115351	0.412682
C46	C	1.154722	-0.506152	0.326172
C47	C	1.229954	-0.506161	0.326182
C48	C	0.978218	-0.506065	0.502693
C49	C	0.978234	-0.506036	0.577925
C50	C	0.978238	-0.232097	0.326175
C51	C	0.978263	-0.115321	0.326186
C52	C	0.978181	-0.506121	0.150294
C53	C	0.978296	-0.505853	0.075063
C54	C	1.021539	-0.438842	0.613282
C55	C	1.021546	-0.438811	0.683970
C56	C	0.978251	-0.505982	0.719301
C57	C	0.934940	-0.573179	0.683939
C58	C	0.934930	-0.573203	0.613252
C59	C	0.934978	-0.573081	0.969012
C60	C	0.934993	-0.573054	1.039704
C61	C	1.021594	-0.438689	1.039731
C62	C	1.021585	-0.438713	0.969044
C63	C	0.978272	-0.505907	0.933688
C64	C	0.978264	-0.505937	0.857040
C65	C	0.978261	-0.505957	0.795948
H66	H	0.720542	-0.628195	0.404532
F67	F	0.373623	-0.645041	0.415367
F68	F	0.888836	-0.644719	0.575622
F69	F	1.067690	-0.367172	1.077365
F70	F	1.067625	-0.367354	0.575687
F71	F	0.583472	-0.645020	0.415354
H72	H	0.364737	-0.384085	0.247764
H73	H	1.056843	-0.384020	0.940281
H74	H	1.056812	-0.384097	0.712755
F75	F	0.802220	-1.118907	0.501956
H76	H	0.812984	-0.906119	0.491113
H77	H	0.899733	-0.627754	1.068468
H78	H	0.899685	-0.627866	0.712710
F79	F	0.227705	-0.645058	0.415379
H80	H	1.064775	-0.806501	0.239645
F81	F	1.064717	-1.232063	0.239494
H82	H	0.899720	-0.627809	0.940234
F83	F	0.729342	-0.367229	0.236935
F84	F	1.154212	-0.892283	0.150384
H85	H	0.236502	-0.384094	0.247778
H86	H	0.592260	-0.384066	0.247756
F87	F	1.154293	-1.118790	0.150417
H88	H	0.891529	-0.806564	0.412637
H89	H	0.891673	-1.204692	0.412690
