data_functionalizedCrystal
_audit_creation_method	'MofGen! by Chris Wilmer'
_symmetry_space_group_name_H-M	'P1'
_symmetry_Int_Tables_number	1
_symmetry_cell_setting	triclinic
loop_
_symmetry_equiv_pos_as_xyz
  x,y,z
_cell_length_a	11.792241
_cell_length_b	26.809956
_cell_length_c	11.792241
_cell_angle_alpha	90.004232
_cell_angle_beta	95.806584
_cell_angle_gamma	90.004681
loop_
_atom_site_label
_atom_site_type_symbol
_atom_site_fract_x
_atom_site_fract_y
_atom_site_fract_z
O1	O	1.506918	0.041431	-0.155552
O2	O	1.176577	0.041443	-0.171585
O3	O	1.349763	0.041433	0.001602
O4	O	1.333731	0.041441	-0.328739
O5	O	1.349731	-0.041526	0.001576
O6	O	1.176544	-0.041516	-0.171611
O7	O	1.506885	-0.041528	-0.155578
Zn8	Zn	1.341709	-0.054694	-0.163599
Zn9	Zn	1.341752	0.054609	-0.163564
O10	O	1.333698	-0.041518	-0.328765
C11	C	1.134269	-0.000035	-0.170591
C12	C	1.008255	-0.000031	-0.167576
C13	C	0.777543	-0.000045	-0.162034
C14	C	0.905928	-0.000037	-0.165113
N15	N	1.341688	-0.129290	-0.163622
C16	C	1.418430	-0.473920	-0.086896
C17	C	1.418456	-0.682798	-0.086879
O18	O	1.483659	-0.709805	-0.021650
N19	N	1.341758	-0.708917	-0.163539
C20	C	1.265043	-0.682813	-0.240204
O21	O	1.199799	-0.709822	-0.305400
C22	C	1.265011	-0.473936	-0.240215
C23	C	1.341722	-0.447820	-0.163557
C24	C	1.495134	-0.447803	-0.010244
C25	C	1.495130	-0.395587	-0.010253
C26	C	1.418423	-0.369487	-0.086914
C27	C	1.341719	-0.395604	-0.163567
C28	C	1.188292	-0.447834	-0.316874
C29	C	1.188289	-0.395611	-0.316868
C30	C	1.265000	-0.369495	-0.240210
C31	C	1.265009	-0.317288	-0.240237
N32	N	1.341707	-0.291169	-0.163577
C33	C	1.418414	-0.317268	-0.086916
C34	C	1.265066	-0.792476	-0.240195
C35	C	1.265075	-0.844695	-0.240194
C36	C	1.418488	-0.844676	-0.086866
C37	C	1.418483	-0.792456	-0.086874
C38	C	1.341764	-0.766357	-0.163534
C39	C	1.418402	-0.207610	-0.086941
C40	C	1.418395	-0.155389	-0.086961
C41	C	1.264979	-0.155413	-0.240283
C42	C	1.264990	-0.207630	-0.240268
C43	C	1.341705	-0.233727	-0.163588
O44	O	1.199832	-0.290248	-0.305423
O45	O	1.483631	-0.290251	-0.021712
C46	C	1.418433	-0.526136	-0.086887
C47	C	1.341729	-0.552253	-0.163539
C48	C	1.265022	-0.526153	-0.240200
C49	C	1.341738	-0.604472	-0.163538
C50	C	1.418445	-0.630571	-0.086876
C51	C	1.495143	-0.604452	-0.010216
C52	C	1.495140	-0.552236	-0.010225
C53	C	1.188324	-0.552272	-0.316861
C54	C	1.188334	-0.604488	-0.316846
C55	C	1.265041	-0.630588	-0.240185
C56	C	1.549192	-0.000049	-0.156572
C57	C	1.675206	-0.000050	-0.159587
C58	C	1.348740	-0.000046	0.043880
C59	C	1.345726	-0.000045	0.169894
N60	N	1.341782	0.129205	-0.163532
C61	C	1.334721	-0.000038	-0.371043
C62	C	1.337736	-0.000035	-0.497057
C63	C	1.340183	-0.000037	0.400606
C64	C	1.343262	-0.000042	0.272221
H65	H	1.480866	-0.134127	-0.024537
Cl66	Cl	1.514848	-0.240410	0.009457
H67	H	1.557592	-0.374326	0.052171
Cl68	Cl	1.091833	-0.362805	-0.413246
H69	H	1.202591	-0.771230	-0.302624
Cl70	Cl	1.591579	-0.480606	0.086143
H71	H	1.480947	-0.771195	-0.024452
Cl72	Cl	1.514917	-0.877498	0.009508
H73	H	1.202622	-0.865956	-0.302627
Cl74	Cl	1.168562	-0.240460	-0.336653
H75	H	1.202528	-0.134155	-0.302703
H76	H	1.125858	-0.531025	-0.379287
Cl77	Cl	1.091848	-0.480655	-0.413245
Cl78	Cl	1.591580	-0.519411	0.086151
Cl79	Cl	1.591577	-0.637273	0.086155
H80	H	1.125869	-0.625749	-0.379280
