data_functionalizedCrystal
_audit_creation_method	'MofGen! by Chris Wilmer'
_symmetry_space_group_name_H-M	'P1'
_symmetry_Int_Tables_number	1
_symmetry_cell_setting	triclinic
loop_
_symmetry_equiv_pos_as_xyz
  x,y,z
_cell_length_a	16.109301
_cell_length_b	16.109301
_cell_length_c	14.586319
_cell_angle_alpha	89.994467
_cell_angle_beta	90.013784
_cell_angle_gamma	96.538519
loop_
_atom_site_label
_atom_site_type_symbol
_atom_site_fract_x
_atom_site_fract_y
_atom_site_fract_z
O1	O	0.106876	-1.103135	0.076185
O2	O	0.120175	-0.861073	0.076200
O3	O	-0.007505	-0.988754	0.076183
O4	O	0.234557	-0.975455	0.076203
O5	O	-0.007527	-0.988736	-0.076298
O6	O	0.120154	-0.861055	-0.076281
O7	O	0.106854	-1.103117	-0.076296
Cu8	Cu	0.113502	-0.982085	-0.090211
Cu9	Cu	0.113528	-0.982106	0.090115
O10	O	0.234535	-0.975437	-0.076278
C11	C	-0.038491	-0.988206	-0.000058
C12	C	-0.130786	-0.986591	-0.000059
C13	C	0.119626	-0.830090	-0.000038
C14	C	0.118011	-0.737794	-0.000033
C15	C	0.107404	-1.134101	-0.000055
C16	C	0.109019	-1.226397	-0.000054
C17	C	-0.353059	-1.058599	-0.000049
C18	C	-0.439779	-1.057075	-0.000041
C19	C	-0.419905	-0.905586	-0.000036
C20	C	-0.333186	-0.907111	-0.000037
C21	C	-0.299766	-0.983620	-0.000048
C22	C	-0.473205	-0.980571	-0.000039
C23	C	-0.567231	-0.978918	-0.000031
C24	C	-0.205734	-0.985273	-0.000055
C25	C	0.265521	-0.975984	-0.000035
C26	C	0.357816	-0.977600	-0.000028
C27	C	0.190018	-0.515522	-0.000038
C28	C	0.188494	-0.428801	-0.000044
C29	C	0.037006	-0.448676	-0.000052
C30	C	0.038530	-0.535394	-0.000053
C31	C	0.115039	-0.568815	-0.000041
C32	C	0.111990	-0.395376	-0.000046
C33	C	0.110337	-0.301350	-0.000053
C34	C	0.116693	-0.662847	-0.000036
N35	N	0.113484	-0.982076	-0.217042
C36	C	0.063079	-0.931693	-0.548072
C37	C	0.063067	-0.931687	-0.452091
C38	C	0.163946	-1.032510	-0.452030
C39	C	0.163953	-1.032520	-0.548009
C40	C	0.113521	-0.982107	-0.596028
C41	C	0.113503	-0.982090	-0.404067
C42	C	0.113490	-0.982083	-0.300000
C43	C	0.113531	-0.982115	-0.700102
N44	N	0.113539	-0.982122	0.216947
H45	H	-0.325851	-1.120897	-0.000056
H46	H	0.022013	-0.890644	-0.587167
H47	H	0.021992	-0.890635	-0.413050
H48	H	0.205007	-1.073553	-0.412921
H49	H	0.249550	-0.385413	-0.000043
H50	H	0.205029	-1.073578	-0.587056
C51	C	-0.456676	-0.821431	-0.000041
N52	N	-0.484371	-0.758043	-0.000052
C53	C	-0.274560	-0.824624	-0.000031
N54	N	-0.230402	-0.762497	-0.000024
C55	C	0.274180	-0.552281	-0.000036
N56	N	0.337573	-0.579965	-0.000040
C57	C	-0.498398	-1.139558	-0.000050
N58	N	-0.542550	-1.201688	-0.000059
H59	H	-0.025285	-0.421454	-0.000067
H60	H	-0.022530	-0.578788	-0.000058
