data_functionalizedCrystal
_audit_creation_method	'MofGen! by Chris Wilmer'
_symmetry_space_group_name_H-M	'P1'
_symmetry_Int_Tables_number	1
_symmetry_cell_setting	triclinic
loop_
_symmetry_equiv_pos_as_xyz
  x,y,z
_cell_length_a	13.339070
_cell_length_b	10.489741
_cell_length_c	11.804365
_cell_angle_alpha	101.953620
_cell_angle_beta	74.875130
_cell_angle_gamma	100.084234
loop_
_atom_site_label
_atom_site_type_symbol
_atom_site_fract_x
_atom_site_fract_y
_atom_site_fract_z
O1	O	1.367264	0.622515	-0.099068
O2	O	1.072122	0.538369	-0.099061
O3	O	1.226407	0.397145	-0.099058
O4	O	1.212978	0.763739	-0.099072
O5	O	1.185789	0.434272	0.098997
O6	O	1.031504	0.575496	0.098994
O7	O	1.326646	0.659642	0.098987
Cu8	Cu	1.175366	0.620959	0.117074
Cu9	Cu	1.223401	0.577052	-0.117149
O10	O	1.172361	0.800866	0.098983
C11	C	1.014020	0.542719	-0.000033
C12	C	0.901409	0.500350	-0.000030
C13	C	1.205084	0.367829	-0.000031
C14	C	1.202049	0.225160	-0.000033
C15	C	0.539023	0.829782	-0.000062
C16	C	0.644827	0.869592	-0.000068
C17	C	0.708977	0.777285	-0.000058
C18	C	0.667314	0.645161	-0.000043
C19	C	0.561501	0.605345	-0.000046
C20	C	0.731456	0.552848	-0.000042
C21	C	0.689793	0.420724	-0.000027
C22	C	0.583990	0.380914	-0.000029
C23	C	0.519840	0.473222	-0.000039
C24	C	0.837269	0.592664	-0.000039
C25	C	0.859747	0.368227	-0.000024
C26	C	0.753943	0.328417	-0.000017
C27	C	1.103883	0.123412	-0.000040
C28	C	1.130230	0.065470	0.097611
C29	C	1.170299	0.028899	-0.097656
C30	C	1.228420	0.169113	0.097698
C31	C	1.268494	0.132530	-0.097657
C32	C	1.294907	0.074645	0.000017
C33	C	1.384748	0.655292	-0.000044
C34	C	1.497361	0.697659	-0.000055
C35	C	1.193684	0.830182	-0.000046
C36	C	1.196721	0.972849	-0.000052
N37	N	1.141588	0.651843	0.281814
N38	N	1.257187	0.546161	-0.281889
C39	C	1.338301	0.471974	0.655767
C40	C	1.363852	0.448605	0.531106
C41	C	1.308288	0.499412	0.468777
C42	C	1.227169	0.573593	0.531121
C43	C	1.201620	0.596973	0.655794
C44	C	1.171607	0.624411	0.468804
C45	C	1.090488	0.698592	0.531148
C46	C	1.064942	0.721968	0.655809
C47	C	1.120506	0.671160	0.718139
C48	C	1.197156	0.601031	0.344131
C49	C	1.060475	0.726030	0.344158
C50	C	1.034923	0.749399	0.468819
H51	H	0.871179	0.700241	-0.000047
H52	H	1.329096	0.480381	0.367272
O53	O	0.986207	0.794052	0.716557
C54	C	0.975555	0.803763	0.839954
H55	H	1.052358	0.787760	0.856963
H56	H	0.955258	0.905486	0.887332
H57	H	0.910438	0.725899	0.875349
O58	O	0.417071	0.434335	0.000012
C59	C	0.394059	0.297919	-0.000018
H60	H	0.453706	0.264341	0.037482
H61	H	0.312161	0.275245	0.057479
H62	H	0.397700	0.243861	-0.095036
H63	H	1.429900	0.388209	0.480350
O64	O	0.956060	0.821298	0.529520
C65	C	0.878209	0.744130	0.601627
H66	H	0.914057	0.661890	0.620289
H67	H	0.844589	0.808248	0.689299
H68	H	0.813029	0.699856	0.553605
O69	O	1.392418	0.422781	0.716253
C70	C	1.499218	0.473424	0.685743
H71	H	1.507486	0.569558	0.651469
H72	H	1.533211	0.492129	0.767718
H73	H	1.543320	0.399536	0.613376
H74	H	1.099700	0.690183	0.819648
H75	H	0.795128	0.809707	-0.000066
H76	H	0.550074	0.273328	-0.000030
H77	H	0.678743	0.977166	-0.000090
O78	O	0.713462	0.200049	-0.000222
C79	C	0.673945	0.151090	-0.102781
H80	H	0.714162	0.213325	-0.174479
H81	H	0.689742	0.044932	-0.137206
H82	H	0.585981	0.155423	-0.079593
H83	H	0.486785	0.904922	-0.000080
H84	H	0.911980	0.293061	-0.000021
O85	O	1.007513	0.149688	0.000284
C86	C	0.934975	0.115918	0.103424
H87	H	0.978270	0.116463	0.175028
H88	H	0.876441	0.190298	0.137506
H89	H	0.891556	0.013690	0.081143
O90	O	1.006659	0.775470	0.283496
C91	C	1.076324	0.860123	0.211388
H92	H	1.159145	0.833828	0.192697
H93	H	1.052103	0.848904	0.123731
H94	H	1.074055	0.966086	0.259426
H95	H	1.071762	0.035715	0.180169
H96	H	1.252971	0.229646	0.180346
O97	O	1.391308	0.048607	-0.000158
C98	C	1.427368	-0.041864	-0.103203
H99	H	1.385689	-0.037250	-0.174897
H100	H	1.515362	-0.016195	-0.137219
H101	H	1.410214	-0.145300	-0.080820
O102	O	1.338082	0.167956	-0.196271
C103	C	1.307152	0.095587	-0.299030
H104	H	1.219590	0.060416	-0.275632
H105	H	1.324724	0.160711	-0.369891
H106	H	1.352130	0.007118	-0.334661
O107	O	1.140963	-0.043291	-0.196236
C108	C	1.122271	0.041470	-0.264766
H109	H	1.166852	0.143077	-0.243094
H110	H	1.149989	0.000853	-0.363432
H111	H	1.034858	0.049018	-0.243189
H112	H	1.263204	0.540633	0.293381
