data_functionalizedCrystal
_audit_creation_method	'MofGen! by Chris Wilmer'
_symmetry_space_group_name_H-M	'P1'
_symmetry_Int_Tables_number	1
_symmetry_cell_setting	triclinic
loop_
_symmetry_equiv_pos_as_xyz
  x,y,z
_cell_length_a	25.639239
_cell_length_b	25.639242
_cell_length_c	12.827885
_cell_angle_alpha	89.968859
_cell_angle_beta	90.035982
_cell_angle_gamma	89.966656
loop_
_atom_site_label
_atom_site_type_symbol
_atom_site_fract_x
_atom_site_fract_y
_atom_site_fract_z
Zn1	Zn	-0.208200	-0.799266	0.591134
Zn2	Zn	0.125133	-0.465932	0.924468
Zn3	Zn	0.458467	-0.132599	1.257801
Zn4	Zn	-0.295645	-0.799177	0.416376
Zn5	Zn	0.037688	-0.465844	0.749709
Zn6	Zn	0.371022	-0.132510	1.083042
Zn7	Zn	-0.208217	-0.711830	0.416372
Zn8	Zn	0.125116	-0.378497	0.749705
Zn9	Zn	0.458449	-0.045163	1.083039
Zn10	Zn	-0.295598	-0.711787	0.591040
Zn11	Zn	0.037735	-0.378454	0.924373
Zn12	Zn	0.371069	-0.045120	1.257706
O13	O	-0.251915	-0.755515	0.503730
O14	O	0.081418	-0.422182	0.837064
O15	O	0.414752	-0.088848	1.170397
O16	O	-0.219812	-0.872419	0.567994
O17	O	0.113521	-0.539086	0.901327
O18	O	0.446855	-0.205752	1.234660
O19	O	-0.284074	-0.787571	0.270139
O20	O	0.049259	-0.454238	0.603472
O21	O	0.382592	-0.120905	0.936806
O22	O	-0.135050	-0.723483	0.439593
O23	O	0.198284	-0.390150	0.772926
O24	O	0.531617	-0.056817	1.106259
O25	O	-0.284058	-0.872354	0.439599
O26	O	0.049276	-0.539021	0.772933
O27	O	0.382609	-0.205687	1.106266
O28	O	-0.135037	-0.787722	0.567990
O29	O	0.198296	-0.454389	0.901323
O30	O	0.531630	-0.121055	1.234657
O31	O	-0.219842	-0.723398	0.270136
O32	O	0.113492	-0.390064	0.603470
O33	O	0.446825	-0.056731	0.936803
O34	O	-0.219796	-0.638659	0.439501
O35	O	0.113537	-0.305326	0.772834
O36	O	0.446871	0.028008	1.106167
O37	O	-0.283978	-0.723410	0.737288
O38	O	0.049356	-0.390077	1.070622
O39	O	0.382689	-0.056744	1.403955
O40	O	-0.283994	-0.638628	0.567828
O41	O	0.049339	-0.305294	0.901162
O42	O	0.382672	0.028039	1.234495
O43	O	-0.219767	-0.787681	0.737358
O44	O	0.113567	-0.454347	1.070691
O45	O	0.446900	-0.121014	1.404025
O46	O	-0.368804	-0.787530	0.439507
O47	O	-0.035471	-0.454196	0.772841
O48	O	0.297863	-0.120863	1.106174
O49	O	-0.368769	-0.723325	0.567832
O50	O	-0.035436	-0.389991	0.901165
O51	O	0.297897	-0.056658	1.234499
C52	C	-0.251892	-0.619672	0.503654
C53	C	0.081441	-0.286339	0.836988
C54	C	0.414774	0.046994	1.170321
C55	C	-0.251895	-0.561558	0.503647
C56	C	0.081438	-0.228225	0.836980
C57	C	0.414771	0.105108	1.170313
C58	C	-0.218429	-0.310373	0.436999
C59	C	0.114904	0.022961	0.770333
C60	C	0.448237	0.356294	1.103666
C61	C	-0.218425	-0.364977	0.436989
C62	C	0.114909	-0.031644	0.770323
C63	C	0.448242	0.301690	1.103656
O64	O	-0.189941	-0.393220	0.380279
O65	O	0.143392	-0.059887	0.713612
O66	O	0.476726	0.273447	1.046946
N67	N	-0.251901	-0.392284	0.503689
N68	N	0.081432	-0.058951	0.837022
N69	N	0.414766	0.274382	1.170356
C70	C	-0.285380	-0.364985	0.570411
C71	C	0.047953	-0.031652	0.903744
C72	C	0.381286	0.301682	1.237077
O73	O	-0.313854	-0.393226	0.627144
O74	O	0.019479	-0.059893	0.960477
O75	O	0.352813	0.273441	1.293811
C76	C	-0.285382	-0.310382	0.570425
C77	C	0.047951	0.022952	0.903759
C78	C	0.381285	0.356285	1.237092
C79	C	-0.251907	-0.283077	0.503714
C80	C	0.081426	0.050256	0.837047
C81	C	0.414759	0.383590	1.170380
C82	C	-0.184957	-0.283068	0.370294
C83	C	0.148377	0.050266	0.703627
C84	C	0.481710	0.383599	1.036961
C85	C	-0.184962	-0.228467	0.370303
C86	C	0.148371	0.104866	0.703636
C87	C	0.481704	0.438199	1.036970
C88	C	-0.218440	-0.201171	0.437017
C89	C	0.114893	0.132162	0.770351
C90	C	0.448227	0.465495	1.103684
C91	C	-0.251913	-0.228476	0.503723
C92	C	0.081421	0.104857	0.837056
C93	C	0.414754	0.438190	1.170389
C94	C	-0.318858	-0.283083	0.637151
C95	C	0.014475	0.050250	0.970485
C96	C	0.347808	0.383584	1.303818
C97	C	-0.318857	-0.228476	0.637161
C98	C	0.014477	0.104857	0.970494
C99	C	0.347810	0.438191	1.303827
C100	C	-0.285382	-0.201171	0.570449
C101	C	0.047951	0.132162	0.903783
C102	C	0.381285	0.465495	1.237116
C103	C	-0.285396	-0.146580	0.570446
C104	C	0.047937	0.186753	0.903779
C105	C	0.381271	0.520087	1.237112
N106	N	-0.251920	-0.119272	0.503746
N107	N	0.081414	0.214061	0.837079
N108	N	0.414747	0.547394	1.170413
C109	C	-0.218442	-0.146568	0.437032
C110	C	0.114892	0.186765	0.770365
C111	C	0.448225	0.520099	1.103698
C112	C	-0.285374	-0.479656	0.570376
C113	C	0.047959	-0.146322	0.903710
C114	C	0.381293	0.187011	1.237043
C115	C	-0.285375	-0.534258	0.570357
C116	C	0.047958	-0.200925	0.903691
C117	C	0.381291	0.132409	1.237024
C118	C	-0.218419	-0.534246	0.436937
C119	C	0.114915	-0.200913	0.770270
C120	C	0.448248	0.132421	1.103604
C121	C	-0.218420	-0.479643	0.436952
C122	C	0.114913	-0.146309	0.770285
C123	C	0.448246	0.187024	1.103618
C124	C	-0.251898	-0.452348	0.503677
C125	C	0.081436	-0.119015	0.837010
C126	C	0.414769	0.214319	1.170343
C127	C	-0.218456	-0.031903	0.437055
C128	C	0.114877	0.301430	0.770388
C129	C	0.448211	0.634764	1.103722
C130	C	-0.218466	0.022702	0.437067
C131	C	0.114867	0.356036	0.770400
C132	C	0.448201	0.689369	1.103733
C133	C	-0.285420	0.022686	0.570490
C134	C	0.047913	0.356019	0.903824
C135	C	0.381246	0.689352	1.237157
C136	C	-0.285413	-0.031915	0.570475
C137	C	0.047921	0.301418	0.903809
C138	C	0.381254	0.634752	1.237142
C139	C	-0.251926	-0.059208	0.503754
C140	C	0.081407	0.274125	0.837087
C141	C	0.414741	0.607459	1.170421
O142	O	-0.313864	-0.118302	0.627130
O143	O	0.019470	0.215031	0.960463
O144	O	0.352803	0.548364	1.293797
O145	O	-0.189968	-0.118320	0.380318
O146	O	0.143365	0.215013	0.713651
O147	O	0.476698	0.548346	1.046985
C148	C	-0.387758	-0.755427	0.503683
C149	C	-0.054424	-0.422094	0.837016
C150	C	0.278909	-0.088760	1.170349
C151	C	-0.445872	-0.755437	0.503697
C152	C	-0.112538	-0.422104	0.837030
C153	C	0.220795	-0.088771	1.170364
C154	C	-0.806240	-0.789034	0.437026
C155	C	-0.472907	-0.455700	0.770359
C156	C	-0.139573	-0.122367	1.103692
C157	C	-0.860844	-0.789054	0.437040
C158	C	-0.527511	-0.455721	0.770373
C159	C	-0.194178	-0.122387	1.103706
O160	O	-0.889086	-0.817528	0.380301
O161	O	-0.555752	-0.484195	0.713634
O162	O	-0.222419	-0.150861	1.046967
N163	N	-0.888154	-0.755607	0.503800
N164	N	-0.554821	-0.422274	0.837133
N165	N	-0.221487	-0.088940	1.170466
C166	C	-0.860857	-0.722141	0.570558
C167	C	-0.527523	-0.388808	0.903891
C168	C	-0.194190	-0.055474	1.237224
O169	O	-0.889100	-0.693694	0.627344
O170	O	-0.555766	-0.360360	0.960678
O171	O	-0.222433	-0.027027	1.294011
C172	C	-0.806253	-0.722124	0.570548
C173	C	-0.472920	-0.388790	0.903882
C174	C	-0.139587	-0.055457	1.237215
C175	C	-0.778946	-0.755569	0.503776
C176	C	-0.445613	-0.422236	0.837110
C177	C	-0.112280	-0.088903	1.170443
C178	C	-0.778933	-0.822477	0.370260
C179	C	-0.445600	-0.489144	0.703593
C180	C	-0.112266	-0.155810	1.036927
C181	C	-0.724333	-0.822456	0.370245
C182	C	-0.390999	-0.489123	0.703578
C183	C	-0.057666	-0.155789	1.036912
C184	C	-0.697039	-0.788992	0.436995
C185	C	-0.363706	-0.455658	0.770329
C186	C	-0.030372	-0.122325	1.103662
C187	C	-0.724346	-0.755548	0.503761
C188	C	-0.391013	-0.422215	0.837094
C189	C	-0.057679	-0.088882	1.170428
C190	C	-0.778957	-0.688661	0.637311
C191	C	-0.445624	-0.355327	0.970644
C192	C	-0.112290	-0.021994	1.303977
C193	C	-0.724350	-0.688647	0.637296
C194	C	-0.391016	-0.355313	0.970629
C195	C	-0.057683	-0.021980	1.303963
C196	C	-0.697043	-0.722092	0.570524
C197	C	-0.363710	-0.388759	0.903857
C198	C	-0.030376	-0.055426	1.237191
C199	C	-0.642452	-0.722063	0.570497
C200	C	-0.309118	-0.388729	0.903830
C201	C	0.024215	-0.055396	1.237163
N202	N	-0.615142	-0.755510	0.503737
N203	N	-0.281809	-0.422177	0.837070
N204	N	0.051525	-0.088843	1.170403
C205	C	-0.642436	-0.788974	0.436986
C206	C	-0.309102	-0.455641	0.770319
C207	C	0.024231	-0.122308	1.103653
C208	C	-0.975527	-0.722180	0.570574
C209	C	-0.642194	-0.388847	0.903907
C210	C	-0.308861	-0.055514	1.237240
C211	C	-1.030130	-0.722195	0.570579
C212	C	-0.696796	-0.388861	0.903912
C213	C	-0.363463	-0.055528	1.237245
C214	C	-1.030114	-0.789108	0.437062
C215	C	-0.696780	-0.455775	0.770395
C216	C	-0.363447	-0.122442	1.103729
C217	C	-0.975510	-0.789091	0.437052
C218	C	-0.642177	-0.455758	0.770386
C219	C	-0.308844	-0.122425	1.103719
C220	C	-0.948218	-0.755628	0.503814
C221	C	-0.614884	-0.422294	0.837147
C222	C	-0.281551	-0.088961	1.170480
C223	C	-0.527771	-0.788927	0.436959
C224	C	-0.194437	-0.455594	0.770292
C225	C	0.138896	-0.122261	1.103625
C226	C	-0.473165	-0.788902	0.436946
C227	C	-0.139832	-0.455568	0.770280
C228	C	0.193501	-0.122235	1.103613
C229	C	-0.473186	-0.721990	0.570467
C230	C	-0.139853	-0.388657	0.903800
C231	C	0.193481	-0.055323	1.237133
C232	C	-0.527787	-0.722013	0.570476
C233	C	-0.194453	-0.388680	0.903809
C234	C	0.138880	-0.055347	1.237142
C235	C	-0.555078	-0.755486	0.503718
C236	C	-0.221744	-0.422153	0.837051
C237	C	0.111589	-0.088820	1.170385
O238	O	-0.614176	-0.693605	0.627210
O239	O	-0.280842	-0.360272	0.960543
O240	O	0.052491	-0.026938	1.293876
O241	O	-0.614186	-0.817422	0.380219
O242	O	-0.280853	-0.484088	0.713552
O243	O	0.052481	-0.150755	1.046885
C244	C	-0.115542	-0.755617	0.503801
C245	C	0.217791	-0.422284	0.837135
C246	C	0.551125	-0.088951	1.170468
C247	C	-0.057428	-0.755661	0.503832
C248	C	0.275905	-0.422328	0.837165
C249	C	0.609239	-0.088994	1.170498
C250	C	-0.251865	-0.755551	0.776301
C251	C	0.081468	-0.422217	1.109634
C252	C	0.414802	-0.088884	1.442967
C253	C	-0.251843	-0.755566	0.892454
C254	C	0.081490	-0.422232	1.225787
C255	C	0.414823	-0.088899	1.559121
C256	C	-0.251937	0.108112	0.503793
C257	C	0.081396	0.441445	0.837126
C258	C	0.414730	0.774779	1.170459
C259	C	-0.251944	0.049998	0.503781
C260	C	0.081390	0.383331	0.837114
C261	C	0.414723	0.716665	1.170448
C262	C	-0.251927	-0.755510	0.232221
C263	C	0.081406	-0.422176	0.565554
C264	C	0.414739	-0.088843	0.898887
C265	C	-0.251801	-0.755596	0.116068
C266	C	0.081532	-0.422262	0.449401
C267	C	0.414865	-0.088929	0.782735
C268	C	-0.220064	-0.787372	0.944273
C269	C	0.113270	-0.454039	1.277607
C270	C	0.446603	-0.120705	1.610940
C271	C	-0.220041	-0.787388	1.064324
C272	C	0.113293	-0.454055	1.397657
C273	C	0.446626	-0.120722	1.730990
H274	H	-0.157692	-0.305286	0.315967
H275	H	0.175641	0.028047	0.649301
H276	H	0.508975	0.361381	0.982634
H277	H	-0.312640	-0.556485	0.624670
H278	H	0.020694	-0.223152	0.958003
H279	H	0.354027	0.110182	1.291336
F280	F	-0.695277	-0.858060	0.299188
F281	F	-0.361944	-0.524727	0.632522
F282	F	-0.028611	-0.191393	0.965855
H283	H	-0.191160	-0.457415	0.382633
H284	H	0.142173	-0.124081	0.715966
H285	H	0.475506	0.209252	1.049299
H286	H	-0.192871	-0.814589	0.899761
H287	H	0.140463	-0.481255	1.233094
H288	H	0.473796	-0.147922	1.566427
F289	F	-0.946485	-0.686558	0.641628
F290	F	-0.613152	-0.353224	0.974961
F291	F	-0.279818	-0.019891	1.308295
H292	H	-0.192835	-0.814621	1.108887
H293	H	0.140499	-0.481288	1.442220
H294	H	0.473832	-0.147954	1.775554
F295	F	-0.807973	-0.858099	0.299210
F296	F	-0.474640	-0.524765	0.632544
F297	F	-0.141306	-0.191432	0.965877
F298	F	-0.287370	-0.720003	1.057831
F299	F	0.045964	-0.386670	1.391165
F300	F	0.379297	-0.053337	1.724498
H301	H	-0.191206	0.044931	0.382739
H302	H	0.142128	0.378265	0.716072
H303	H	0.475461	0.711598	1.049406
F304	F	-0.182816	-0.060943	0.366042
F305	F	0.150517	0.272391	0.699375
F306	F	0.483850	0.605724	1.032709
F307	F	-0.321045	-0.060976	0.641466
F308	F	0.012288	0.272358	0.974799
F309	F	0.345621	0.605691	1.308132
F310	F	-0.321054	0.051745	0.641477
F311	F	0.012279	0.385079	0.974810
F312	F	0.345613	0.718412	1.308144
H313	H	-0.279031	-0.728344	0.936966
H314	H	0.054302	-0.395011	1.270300
H315	H	0.387636	-0.061677	1.603633
F316	F	-0.444106	-0.824500	0.365875
F317	F	-0.110773	-0.491167	0.699208
F318	F	0.222560	-0.157834	1.032542
H319	H	-0.157704	-0.206240	0.315980
H320	H	0.175630	0.127093	0.649313
H321	H	0.508963	0.460426	0.982646
H322	H	-0.312639	-0.457436	0.624710
H323	H	0.020694	-0.124102	0.958043
H324	H	0.354027	0.209231	1.291377
F325	F	-0.182788	-0.563306	0.365934
F326	F	0.150545	-0.229972	0.699267
F327	F	0.483879	0.103361	1.032601
H328	H	-0.953280	-0.816326	0.382682
H329	H	-0.619947	-0.482992	0.716015
H330	H	-0.286613	-0.149659	1.049348
F331	F	-0.354487	-0.312131	0.708157
F332	F	-0.021154	0.021202	1.041491
F333	F	0.312180	0.354535	1.374824
H334	H	-0.550021	-0.694781	0.624850
H335	H	-0.216688	-0.361447	0.958183
H336	H	0.116646	-0.028114	1.291517
F337	F	-0.556808	-0.824553	0.365908
F338	F	-0.223475	-0.491219	0.699241
F339	F	0.109859	-0.157886	1.032574
F340	F	-1.059171	-0.824724	0.366018
F341	F	-0.725838	-0.491391	0.699351
F342	F	-0.392504	-0.158057	1.032684
F343	F	-1.059186	-0.686591	0.641635
F344	F	-0.725852	-0.353258	0.974968
F345	F	-0.392519	-0.019925	1.308301
H346	H	-0.346117	-0.206256	0.691501
H347	H	-0.012783	0.127078	1.024835
H348	H	0.320550	0.460411	1.358168
H349	H	-0.801181	-0.661423	0.691679
H350	H	-0.467847	-0.328090	1.025012
H351	H	-0.134514	0.005243	1.358345
H352	H	-0.702131	-0.661397	0.691664
H353	H	-0.368797	-0.328064	1.024998
H354	H	-0.035464	0.005270	1.358331
F355	F	-0.444129	-0.686378	0.641507
F356	F	-0.110795	-0.353045	0.974840
F357	F	0.222538	-0.019711	1.308173
