data_functionalizedCrystal
_audit_creation_method	'MofGen! by Chris Wilmer'
_symmetry_space_group_name_H-M	'P1'
_symmetry_Int_Tables_number	1
_symmetry_cell_setting	triclinic
loop_
_symmetry_equiv_pos_as_xyz
  x,y,z
_cell_length_a	29.839131
_cell_length_b	29.839135
_cell_length_c	21.395355
_cell_angle_alpha	89.971956
_cell_angle_beta	90.027826
_cell_angle_gamma	89.962946
loop_
_atom_site_label
_atom_site_type_symbol
_atom_site_fract_x
_atom_site_fract_y
_atom_site_fract_z
Zn1	Zn	-0.178883	-0.686793	0.354279
Zn2	Zn	0.321117	-0.186793	0.854279
Zn3	Zn	-0.253999	-0.686718	0.249485
Zn4	Zn	0.246001	-0.186718	0.749485
Zn5	Zn	-0.178886	-0.611660	0.249510
Zn6	Zn	0.321114	-0.111660	0.749510
Zn7	Zn	-0.253990	-0.611632	0.354219
Zn8	Zn	0.246010	-0.111632	0.854219
O9	O	-0.216439	-0.649201	0.301873
O10	O	0.283561	-0.149201	0.801873
O11	O	-0.188850	-0.749650	0.340393
O12	O	0.311150	-0.249650	0.840393
O13	O	-0.244040	-0.676741	0.161810
O14	O	0.255960	-0.176741	0.661810
O15	O	-0.116018	-0.621670	0.263443
O16	O	0.383982	-0.121670	0.763443
O17	O	-0.244037	-0.749595	0.263401
O18	O	0.255963	-0.249595	0.763401
O19	O	-0.116017	-0.676870	0.340417
O20	O	0.383983	-0.176870	0.840417
O21	O	-0.188855	-0.621597	0.161828
O22	O	0.311145	-0.121597	0.661828
O23	O	-0.188846	-0.548789	0.263384
O24	O	0.311154	-0.048789	0.763384
O25	O	-0.244022	-0.621622	0.441904
O26	O	0.255978	-0.121622	0.941904
O27	O	-0.244024	-0.548769	0.340314
O28	O	0.255976	-0.048769	0.840314
O29	O	-0.188842	-0.676843	0.441949
O30	O	0.311158	-0.176843	0.941949
O31	O	-0.316865	-0.676714	0.263342
O32	O	0.183135	-0.176714	0.763342
O33	O	-0.316858	-0.621549	0.340290
O34	O	0.183142	-0.121549	0.840290
C35	C	-0.216435	-0.532478	0.301846
C36	C	0.283565	-0.032478	0.801846
C37	C	-0.216443	-0.482544	0.301849
C38	C	0.283557	0.017456	0.801849
C39	C	-0.187741	-0.172926	0.342019
C40	C	0.312259	0.327074	0.842019
C41	C	-0.187742	0.014747	0.342035
C42	C	0.312258	0.514747	0.842035
O43	O	-0.163331	0.038989	0.376161
O44	O	0.336669	0.538989	0.876161
N45	N	-0.216431	0.038241	0.301892
N46	N	0.283569	0.538241	0.801892
C47	C	-0.245121	0.014815	0.261738
C48	C	0.254879	0.514815	0.761738
O49	O	-0.269519	0.039105	0.227589
O50	O	0.230481	0.539105	0.727589
C51	C	-0.245117	-0.172857	0.261719
C52	C	0.254883	0.327143	0.761719
C53	C	-0.216429	-0.196350	0.301869
C54	C	0.283571	0.303650	0.801869
C55	C	-0.159055	-0.196419	0.382166
C56	C	0.340945	0.303581	0.882166
C57	C	-0.159057	-0.243334	0.382164
C58	C	0.340943	0.256666	0.882164
C59	C	-0.187745	-0.266757	0.342014
C60	C	0.312255	0.233243	0.842014
C61	C	-0.216431	-0.243265	0.301867
C62	C	0.283569	0.256735	0.801867
C63	C	-0.273804	-0.196283	0.221562
C64	C	0.226196	0.303717	0.721562
C65	C	-0.273799	-0.243204	0.221560
C66	C	0.226201	0.256796	0.721560
C67	C	-0.245111	-0.266696	0.261711
C68	C	0.254889	0.233304	0.761711
C69	C	-0.245121	-0.313604	0.261716
C70	C	0.254879	0.186396	0.761716
N71	N	-0.216431	-0.337098	0.301860
N72	N	0.283569	0.162902	0.801860
C73	C	-0.187743	-0.313675	0.342009
C74	C	0.312257	0.186325	0.842009
C75	C	-0.245121	0.113345	0.261752
C76	C	0.254879	0.613345	0.761752
C77	C	-0.245122	0.160263	0.261757
C78	C	0.254878	0.660263	0.761757
C79	C	-0.187743	0.160192	0.342054
C80	C	0.312257	0.660192	0.842054
C81	C	-0.187744	0.113273	0.342051
C82	C	0.312256	0.613273	0.842051
C83	C	-0.216432	0.089851	0.301896
C84	C	0.283568	0.589851	0.801896
C85	C	-0.187750	-0.412201	0.342002
C86	C	0.312250	0.087799	0.842002
C87	C	-0.187755	-0.459121	0.341998
C88	C	0.312245	0.040879	0.841998
C89	C	-0.245133	-0.459045	0.261699
C90	C	0.254867	0.040955	0.761699
C91	C	-0.245129	-0.412130	0.261705
C92	C	0.254871	0.087870	0.761705
C93	C	-0.216434	-0.388709	0.301858
C94	C	0.283566	0.111291	0.801858
O95	O	-0.269515	-0.337875	0.227603
O96	O	0.230485	0.162125	0.727603
O97	O	-0.163341	-0.337973	0.376143
O98	O	0.336659	0.162027	0.876143
C99	C	-0.187739	-0.126011	0.342021
C100	C	0.312261	0.373989	0.842021
C101	C	-0.216426	-0.102519	0.301874
C102	C	0.283574	0.397481	0.801874
C103	C	-0.245113	-0.125942	0.261725
C104	C	0.254887	0.374058	0.761725
C105	C	-0.216427	-0.055601	0.301879
C106	C	0.283573	0.444399	0.801879
C107	C	-0.187739	-0.032178	0.342029
C108	C	0.312261	0.467822	0.842029
C109	C	-0.159050	-0.055672	0.382172
C110	C	0.340950	0.444328	0.882172
C111	C	-0.159052	-0.102588	0.382170
C112	C	0.340948	0.397412	0.882170
C113	C	-0.273803	-0.102447	0.221581
C114	C	0.226197	0.397553	0.721581
C115	C	-0.273799	-0.055532	0.221587
C116	C	0.226201	0.444468	0.721587
C117	C	-0.245111	-0.032109	0.261736
C118	C	0.254889	0.467891	0.761736
C119	C	-0.333162	-0.649132	0.301820
C120	C	0.166838	-0.149132	0.801820
C121	C	-0.383096	-0.649144	0.301819
C122	C	0.116904	-0.149144	0.801819
C123	C	-0.692704	-0.677937	0.342010
C124	C	-0.192704	-0.177937	0.842010
C125	C	-0.880377	-0.677986	0.342048
C126	C	-0.380377	-0.177986	0.842048
O127	O	-0.904611	-0.702400	0.376181
O128	O	-0.404611	-0.202400	0.876181
N129	N	-0.903881	-0.649277	0.301943
N130	N	-0.403881	-0.149277	0.801943
C131	C	-0.880465	-0.620552	0.261828
C132	C	-0.380465	-0.120552	0.761828
O133	O	-0.904763	-0.596131	0.227721
O134	O	-0.404763	-0.096131	0.727721
C135	C	-0.692793	-0.620501	0.261794
C136	C	-0.192793	-0.120501	0.761794
C137	C	-0.669291	-0.649215	0.301897
C138	C	-0.169291	-0.149215	0.801897
C139	C	-0.669202	-0.706649	0.382111
C140	C	-0.169202	-0.206649	0.882111
C141	C	-0.622286	-0.706638	0.382099
C142	C	-0.122286	-0.206638	0.882099
C143	C	-0.598873	-0.677916	0.341986
C144	C	-0.098873	-0.177916	0.841986
C145	C	-0.622375	-0.649204	0.301885
C146	C	-0.122375	-0.149204	0.801885
C147	C	-0.669377	-0.591774	0.221682
C148	C	-0.169377	-0.091774	0.721682
C149	C	-0.622456	-0.591763	0.221679
C150	C	-0.122456	-0.091763	0.721679
C151	C	-0.598954	-0.620477	0.261782
C152	C	-0.098954	-0.120477	0.761782
C153	C	-0.552046	-0.620472	0.261760
C154	C	-0.052046	-0.120472	0.761760
N155	N	-0.528542	-0.649181	0.301865
N156	N	-0.028542	-0.149181	0.801865
C157	C	-0.551955	-0.677903	0.341978
C158	C	-0.051955	-0.177903	0.841978
C159	C	-0.978995	-0.620581	0.261848
C160	C	-0.478995	-0.120581	0.761848
C161	C	-1.025913	-0.620594	0.261855
C162	C	-0.525913	-0.120594	0.761855
C163	C	-1.025822	-0.678028	0.342076
C164	C	-0.525822	-0.178028	0.842076
C165	C	-0.978903	-0.678017	0.342065
C166	C	-0.478903	-0.178017	0.842065
C167	C	-0.955491	-0.649290	0.301953
C168	C	-0.455491	-0.149290	0.801953
C169	C	-0.453429	-0.677878	0.341949
C170	C	0.046571	-0.177878	0.841949
C171	C	-0.406510	-0.677866	0.341932
C172	C	0.093490	-0.177866	0.841932
C173	C	-0.406605	-0.620431	0.261713
C174	C	0.093395	-0.120431	0.761713
C175	C	-0.453520	-0.620444	0.261728
C176	C	0.046480	-0.120444	0.761728
C177	C	-0.476932	-0.649170	0.301851
C178	C	0.023068	-0.149170	0.801851
O179	O	-0.527783	-0.596067	0.227649
O180	O	-0.027783	-0.096067	0.727649
O181	O	-0.527649	-0.702313	0.376090
O182	O	-0.027649	-0.202313	0.876090
C183	C	-0.739619	-0.677948	0.342023
C184	C	-0.239619	-0.177948	0.842023
C185	C	-0.763121	-0.649237	0.301922
C186	C	-0.263121	-0.149237	0.801922
C187	C	-0.739708	-0.620515	0.261809
C188	C	-0.239708	-0.120515	0.761809
C189	C	-0.810039	-0.649250	0.301929
C190	C	-0.310039	-0.149250	0.801929
C191	C	-0.833453	-0.677972	0.342042
C192	C	-0.333453	-0.177972	0.842042
C193	C	-0.809948	-0.706681	0.382148
C194	C	-0.309948	-0.206681	0.882148
C195	C	-0.763033	-0.706670	0.382136
C196	C	-0.263033	-0.206670	0.882136
C197	C	-0.763213	-0.591806	0.221703
C198	C	-0.263213	-0.091806	0.721703
C199	C	-0.810128	-0.591819	0.221718
C200	C	-0.310128	-0.091819	0.721718
C201	C	-0.833541	-0.620541	0.261831
C202	C	-0.333541	-0.120541	0.761831
C203	C	-0.099261	-0.649282	0.301940
C204	C	0.400739	-0.149282	0.801940
C205	C	-0.049327	-0.649316	0.301968
C206	C	0.450673	-0.149316	0.801968
C207	C	-0.216430	-0.649238	0.465296
C208	C	0.283570	-0.149238	0.965296
C209	C	-0.216426	-0.649254	0.534938
C210	C	0.283574	-0.149254	1.034938
C211	C	-0.216442	0.233621	0.301899
C212	C	0.283558	0.733621	0.801899
C213	C	-0.216435	0.183686	0.301907
C214	C	0.283565	0.683686	0.801907
C215	C	-0.216416	-0.649190	0.139085
C216	C	0.283584	-0.149190	0.639085
C217	C	-0.216293	-0.649261	0.069445
C218	C	0.283707	-0.149261	0.569445
C219	C	-0.187693	-0.678006	0.567675
C220	C	0.312307	-0.178006	1.067675
C221	C	-0.187674	-0.678006	0.633110
C222	C	0.312326	-0.178006	1.133110
C223	C	-0.216396	-0.649258	0.665806
C224	C	0.283604	-0.149258	1.165806
C225	C	-0.245131	-0.620500	0.633061
C226	C	0.254869	-0.120500	1.133061
C227	C	-0.245147	-0.620498	0.567627
C228	C	0.254853	-0.120498	1.067627
C229	C	-0.256847	-0.645686	0.769462
C230	C	0.243153	-0.145686	1.269462
C231	C	-0.256833	-0.645691	0.834895
C232	C	0.243167	-0.145691	1.334895
C233	C	-0.216348	-0.649260	0.867627
C234	C	0.283652	-0.149260	1.367627
C235	C	-0.175878	-0.652834	0.834918
C236	C	0.324122	-0.152834	1.334918
C237	C	-0.175893	-0.652832	0.769483
C238	C	0.324107	-0.152832	1.269483
C239	C	-0.216382	-0.649256	0.736758
C240	C	0.283618	-0.149256	1.236758
C241	C	-0.187591	-0.678013	0.971317
C242	C	0.312409	-0.178013	1.471317
C243	C	-0.187571	-0.678010	1.036754
C244	C	0.312429	-0.178010	1.536754
C245	C	-0.245033	-0.620506	1.036703
C246	C	0.254967	-0.120506	1.536703
C247	C	-0.245049	-0.620508	0.971267
C248	C	0.254951	-0.120508	1.471267
C249	C	-0.216329	-0.649264	0.938578
C250	C	0.283671	-0.149264	1.438578
H251	H	-0.164382	-0.393137	0.374697
H252	H	0.335618	0.106863	0.874697
O253	O	-0.156807	-0.484455	0.385303
O254	O	0.343193	0.015545	0.885303
H255	H	-0.176946	-0.505827	0.417132
H256	H	0.323054	-0.005827	0.917132
H257	H	-0.164171	-0.701422	1.063407
H258	H	0.335829	-0.201422	1.563407
O259	O	-0.737692	-0.737644	0.425391
O260	O	-0.237692	-0.237644	0.925391
H261	H	-0.716316	-0.717527	0.457240
H262	H	-0.216316	-0.217527	0.957240
O263	O	-0.835206	-0.737661	0.425414
O264	O	-0.335206	-0.237661	0.925414
H265	H	-0.826183	-0.729936	0.474575
H266	H	-0.326183	-0.229936	0.974575
O267	O	-1.051080	-0.709006	0.385345
O268	O	-0.551080	-0.209006	0.885345
H269	H	-1.042058	-0.701278	0.434505
H270	H	-0.542058	-0.201278	0.934505
O271	O	-0.694450	-0.737629	0.425382
O272	O	-0.194450	-0.237629	0.925382
H273	H	-0.715819	-0.760502	0.397377
H274	H	-0.215819	-0.260502	0.897377
O275	O	-0.128111	-0.171162	0.425477
O276	O	0.371889	0.328838	0.925477
H277	H	-0.105218	-0.149792	0.397506
H278	H	0.394782	0.350208	0.897506
O279	O	-0.381160	-0.708838	0.385187
O280	O	0.118840	-0.208838	0.885187
H281	H	-0.359782	-0.731701	0.357166
H282	H	0.140218	-0.231701	0.857166
H283	H	-0.164203	-0.701426	0.944700
H284	H	0.335797	-0.201426	1.444700
H285	H	-0.289806	-0.642660	0.742817
H286	H	0.210194	-0.142660	1.242817
O287	O	-0.276110	-0.589491	0.668319
O288	O	0.223890	-0.089491	1.168319
H289	H	-0.271275	-0.594325	0.719321
H290	H	0.228725	-0.094325	1.219321
H291	H	-0.603396	-0.568369	0.189015
H292	H	-0.103396	-0.068369	0.689015
O293	O	-0.300482	-0.641840	0.870168
O294	O	0.199518	-0.141840	1.370168
H295	H	-0.293672	-0.642448	0.921167
H296	H	0.206328	-0.142448	1.421167
O297	O	-0.276129	-0.589476	0.532311
O298	O	0.223871	-0.089476	1.032311
H299	H	-0.296096	-0.569481	0.566036
H300	H	0.203904	-0.069481	1.066036
O301	O	-0.128103	-0.030405	0.425473
O302	O	0.371897	0.469595	0.925473
H303	H	-0.132922	0.006166	0.418720
H304	H	0.367078	0.506166	0.918720
H305	H	-0.297164	-0.036408	0.188892
H306	H	0.202836	0.463592	0.688892
H307	H	-0.959936	-0.597188	0.229182
H308	H	-0.459936	-0.097188	0.729182
H309	H	-0.268494	-0.393001	0.229018
H310	H	0.231506	0.106999	0.729018
H311	H	-1.045045	-0.597217	0.229192
H312	H	-0.545045	-0.097217	0.729192
H313	H	-0.472657	-0.597067	0.229067
H314	H	0.027343	-0.097067	0.729067
O315	O	-0.478677	-0.708862	0.385219
O316	O	0.021323	-0.208862	0.885219
H317	H	-0.454446	-0.728826	0.413094
H318	H	0.045554	-0.228826	0.913094
H319	H	-0.164383	0.094149	0.374744
H320	H	0.335617	0.594149	0.874744
H321	H	-0.829259	-0.568437	0.189055
H322	H	-0.329259	-0.068437	0.689055
O323	O	-0.381348	-0.589452	0.218450
O324	O	0.118652	-0.089452	0.718450
H325	H	-0.344776	-0.594267	0.225189
H326	H	0.155224	-0.094267	0.725189
H327	H	-0.268450	-0.597097	0.944612
H328	H	0.231550	-0.097097	1.444612
H329	H	-0.688504	-0.568392	0.189025
H330	H	-0.188504	-0.068392	0.689025
O331	O	-0.737962	-0.560832	0.178427
O332	O	-0.237962	-0.060832	0.678427
H333	H	-0.762192	-0.540877	0.150540
H334	H	-0.262192	-0.040877	0.650540
O335	O	-0.276070	-0.484312	0.218390
O336	O	0.223930	0.015688	0.718390
H337	H	-0.271244	-0.520883	0.225131
H338	H	0.228756	-0.020883	0.725131
O339	O	-0.276011	-0.589498	1.071962
O340	O	0.223989	-0.089498	1.571962
H341	H	-0.268303	-0.554245	1.059385
H342	H	0.231697	-0.054245	1.559385
H343	H	-0.164306	-0.701421	0.541064
H344	H	0.335694	-0.201421	1.041064
O345	O	-0.156799	0.185460	0.385356
O346	O	0.343201	0.685460	0.885356
H347	H	-0.121529	0.176436	0.374701
H348	H	0.378471	0.676436	0.874701
H349	H	-0.135696	-0.262458	0.414858
H350	H	0.364304	0.237542	0.914858
O351	O	-0.156686	-0.709022	0.668433
O352	O	0.343314	-0.209022	1.168433
H353	H	-0.136720	-0.729019	0.634709
H354	H	0.363280	-0.229019	1.134709
O355	O	-0.128104	-0.127924	0.425467
O356	O	0.371896	0.372076	0.925467
H357	H	-0.108154	-0.103748	0.453377
H358	H	0.391846	0.396252	0.953377
H359	H	-0.268488	0.179387	0.229069
H360	H	0.231512	0.679387	0.729069
O361	O	-0.276064	0.088085	0.218439
O362	O	0.223936	0.588085	0.718439
H363	H	-0.296013	0.112309	0.190533
H364	H	0.203987	0.612309	0.690533
O365	O	-0.132247	-0.656684	0.734201
O366	O	0.367753	-0.156684	1.234201
H367	H	-0.104091	-0.659164	0.767949
H368	H	0.395909	-0.159164	1.267949
O369	O	-0.132206	-0.656671	0.870209
O370	O	0.367794	-0.156671	1.370209
H371	H	-0.138991	-0.656063	0.921205
H372	H	0.361009	-0.156063	1.421205
H373	H	-0.297160	-0.262272	0.188858
H374	H	0.202840	0.237728	0.688858
O375	O	-0.304740	-0.170951	0.178247
O376	O	0.195260	0.329049	0.678247
H377	H	-0.324679	-0.195128	0.150325
H378	H	0.175321	0.304872	0.650325
O379	O	-0.304745	-0.127707	0.178272
O380	O	0.195255	0.372293	0.678272
H381	H	-0.340014	-0.118682	0.188927
H382	H	0.159986	0.381318	0.688927
O383	O	-0.596946	-0.737616	0.425349
O384	O	-0.096946	-0.237616	0.925349
H385	H	-0.605936	-0.729898	0.474515
H386	H	-0.105936	-0.229898	0.974515
O387	O	-0.953555	-0.708988	0.385317
O388	O	-0.453555	-0.208988	0.885317
H389	H	-0.977723	-0.728961	0.413208
H390	H	-0.477723	-0.228961	0.913208
