data_functionalizedCrystal
_audit_creation_method	'MofGen! by Chris Wilmer'
_symmetry_space_group_name_H-M	'P1'
_symmetry_Int_Tables_number	1
_symmetry_cell_setting	triclinic
loop_
_symmetry_equiv_pos_as_xyz
  x,y,z
_cell_length_a	19.188925
_cell_length_b	19.188924
_cell_length_c	17.666332
_cell_angle_alpha	89.991448
_cell_angle_beta	89.989697
_cell_angle_gamma	83.142256
loop_
_atom_site_label
_atom_site_type_symbol
_atom_site_fract_x
_atom_site_fract_y
_atom_site_fract_z
O1	O	0.926150	0.087151	-0.062968
O2	O	0.722838	0.098889	-0.062966
O3	O	0.830363	-0.008636	-0.062958
O4	O	0.818624	0.194676	-0.062976
O5	O	0.830345	-0.008642	0.062938
O6	O	0.722819	0.098884	0.062930
O7	O	0.926131	0.087145	0.062929
Cu8	Cu	0.824473	0.093014	0.074425
Cu9	Cu	0.824495	0.093021	-0.074463
O10	O	0.818605	0.194670	0.062921
C11	C	0.696817	0.098507	-0.000018
C12	C	0.619313	0.097368	-0.000017
C13	C	0.057541	0.152832	-0.000023
C14	C	0.130364	0.153908	-0.000028
C15	C	0.175300	0.090816	-0.000021
C16	C	0.147408	0.026642	-0.000029
C17	C	0.074586	0.025568	-0.000033
N18	N	0.295972	0.045138	0.042839
N19	N	0.365149	0.046163	0.042844
C20	C	0.394709	0.094050	-0.000012
N21	N	0.352477	0.140884	-0.042864
N22	N	0.283293	0.139861	-0.042865
C23	C	0.254264	0.091974	-0.000018
C24	C	0.501557	0.159387	-0.000014
C25	C	0.574381	0.160461	-0.000022
C26	C	0.591424	0.033193	-0.000016
C27	C	0.518600	0.032121	-0.000015
C28	C	0.473671	0.095220	-0.000010
C29	C	0.829975	-0.034650	-0.000009
C30	C	0.828836	-0.112155	-0.000007
C31	C	0.828315	-0.148551	-0.068634
C32	C	0.827235	-0.221373	-0.068639
C33	C	0.826690	-0.257799	-0.000015
C34	C	0.827208	-0.221394	0.068621
C35	C	0.828280	-0.148572	0.068624
N36	N	0.864730	-0.377465	0.051061
N37	N	0.863713	-0.446644	0.051052
C38	C	0.823456	-0.477208	-0.000022
N39	N	0.784264	-0.435982	-0.051099
N40	N	0.785285	-0.366798	-0.051093
C41	C	0.825526	-0.336763	-0.000011
C42	C	0.821763	-0.592567	-0.068660
C43	C	0.820679	-0.665390	-0.068662
C44	C	0.820658	-0.665410	0.068600
C45	C	0.821736	-0.592587	0.068601
C46	C	0.822291	-0.556170	-0.000031
C47	C	0.952151	0.087528	-0.000022
C48	C	1.029656	0.088667	-0.000028
C49	C	0.818994	0.220684	-0.000030
C50	C	0.820133	0.298189	-0.000037
N51	N	0.824463	0.093009	0.179144
N52	N	0.824512	0.093020	-0.179182
C53	C	0.872090	0.045420	0.218758
C54	C	0.872095	0.045416	0.298005
C55	C	0.824477	0.093014	0.337636
C56	C	0.776841	0.140607	0.298014
C57	C	0.776833	0.140604	0.218768
N58	N	0.815400	0.154822	0.462050
N59	N	0.815411	0.154822	0.537330
C60	C	0.824496	0.093024	0.576400
N61	N	0.833583	0.031223	0.537346
N62	N	0.833575	0.031223	0.462059
C63	C	0.824480	0.093022	0.423566
C64	C	0.872131	0.045427	0.701943
C65	C	0.872130	0.045423	0.781192
C66	C	0.776879	0.140619	0.781199
C67	C	0.776877	0.140617	0.701951
C68	C	0.824506	0.093022	0.662328
H69	H	0.051883	-0.026685	-0.000036
O70	O	0.918426	-0.000712	0.819760
C71	C	0.961389	0.036579	0.865567
H72	H	0.933407	0.091282	0.877436
H73	H	1.012972	0.041199	0.835013
C74	C	1.010810	-0.070009	0.926270
C75	C	0.976438	-0.002824	0.940852
H76	H	1.020096	-0.094315	0.972708
H77	H	0.981866	-0.095134	0.895407
H78	H	1.053791	-0.066150	0.900807
H79	H	0.933454	-0.006684	0.966307
H80	H	1.005375	0.022300	0.971722
H81	H	0.910880	0.006662	0.330264
H82	H	0.828702	-0.118938	0.124510
H83	H	0.826762	-0.251056	0.124495
H84	H	0.738106	0.179371	0.813466
O85	O	0.828897	-0.113114	-0.135258
C86	C	0.889923	-0.079009	-0.139406
H87	H	0.931920	-0.106625	-0.100550
H88	H	0.877041	-0.022016	-0.120889
C89	C	0.865675	-0.047522	-0.269163
C90	C	0.917258	-0.081444	-0.221443
H91	H	0.882535	-0.049021	-0.319767
H92	H	0.824558	-0.070496	-0.266368
H93	H	0.854944	-0.000031	-0.253723
H94	H	0.927981	-0.128937	-0.236878
H95	H	0.958377	-0.058478	-0.224243
O96	O	0.826737	-0.256631	-0.135374
C97	C	0.827422	-0.208868	-0.195948
H98	H	0.850305	-0.159927	-0.175840
H99	H	0.771532	-0.193607	-0.217025
C100	C	0.844653	-0.303529	-0.285504
C101	C	0.872764	-0.243422	-0.260808
H102	H	0.872619	-0.324844	-0.325514
H103	H	0.844189	-0.335709	-0.244695
H104	H	0.798079	-0.290803	-0.303063
H105	H	0.919333	-0.256150	-0.243240
H106	H	0.873237	-0.211246	-0.301616
H107	H	0.822211	-0.562914	-0.124544
H108	H	0.738069	0.179360	0.330285
O109	O	0.730714	0.186884	0.663385
C110	C	0.767968	0.229875	0.617543
H111	H	0.822685	0.201927	0.605659
H112	H	0.772557	0.281465	0.648076
C113	C	0.661349	0.279228	0.556873
C114	C	0.728551	0.244899	0.542272
H115	H	0.637034	0.288498	0.510443
H116	H	0.636249	0.250266	0.587759
H117	H	0.665182	0.322215	0.582319
H118	H	0.724717	0.201908	0.516836
H119	H	0.753649	0.273854	0.511379
H120	H	0.738048	0.179357	0.186514
H121	H	0.153073	0.206161	-0.000017
H122	H	0.183999	-0.024728	-0.000026
O123	O	0.013998	0.214188	-0.000059
C124	C	0.054231	0.271054	-0.000037
H125	H	0.108645	0.253166	-0.023868
H126	H	0.059344	0.290726	0.060363
C127	C	-0.049059	0.352728	-0.020142
C128	C	0.017770	0.330760	-0.049417
H129	H	-0.071551	0.389560	-0.050599
H130	H	-0.076167	0.314418	-0.020154
H131	H	-0.044790	0.369117	0.030191
H132	H	0.013499	0.314364	-0.099745
H133	H	0.044876	0.369070	-0.049415
O134	O	0.458007	0.220742	-0.000053
C135	C	0.498239	0.277609	-0.000041
H136	H	0.552651	0.259721	-0.023873
H137	H	0.503352	0.297288	0.060356
C138	C	0.394944	0.359278	-0.020150
C139	C	0.461773	0.337309	-0.049427
H140	H	0.372450	0.396106	-0.050611
H141	H	0.367839	0.320966	-0.020156
H142	H	0.399215	0.375672	0.030180
H143	H	0.457501	0.320908	-0.099752
H144	H	0.488877	0.375620	-0.049431
O145	O	0.601499	0.222780	-0.000164
C146	C	0.643128	0.227208	-0.065364
H147	H	0.626026	0.190772	-0.110929
H148	H	0.700609	0.210934	-0.050627
C149	C	0.655062	0.347997	-0.038975
C150	C	0.634053	0.303250	-0.094942
H151	H	0.649468	0.394904	-0.057219
H152	H	0.627018	0.345014	0.004953
H153	H	0.702961	0.334427	-0.026700
H154	H	0.586153	0.316815	-0.107209
H155	H	0.662089	0.306238	-0.138872
O156	O	0.635165	-0.028032	0.000020
C157	C	0.705421	-0.013326	0.000000
H158	H	0.708040	0.041504	0.023836
H159	H	0.726498	-0.016029	-0.060399
C160	C	0.746936	-0.135018	0.020096
C161	C	0.750154	-0.067678	0.049377
H162	H	0.774531	-0.168546	0.050550
H163	H	0.699604	-0.144927	0.020106
H164	H	0.764499	-0.137261	-0.030237
H165	H	0.732583	-0.065433	0.099704
H166	H	0.797484	-0.057770	0.049376
H167	H	0.820210	-0.695067	0.124475
O168	O	0.491625	-0.030271	0.000024
C169	C	0.546900	-0.085729	0.000010
H170	H	0.596307	-0.066311	0.023845
H171	H	0.557275	-0.105177	-0.060387
C172	C	0.465837	-0.170119	0.020111
C173	C	0.526519	-0.146271	0.049392
H174	H	0.453265	-0.207466	0.050569
H175	H	0.428597	-0.132757	0.020118
H176	H	0.474492	-0.186320	-0.030219
H177	H	0.517862	-0.130062	0.099718
H178	H	0.563758	-0.183632	0.049395
H179	H	0.820251	-0.695022	-0.124549
O180	O	0.822283	-0.557342	0.135333
C181	C	0.821555	-0.605103	0.195904
H182	H	0.842888	-0.659970	0.175781
H183	H	0.765437	-0.605350	0.217009
C184	C	0.841544	-0.515436	0.285456
C185	C	0.867752	-0.582824	0.260742
H186	H	0.870038	-0.501692	0.325453
H187	H	0.842032	-0.483258	0.244649
H188	H	0.794779	-0.515651	0.303039
H189	H	0.914512	-0.582606	0.243151
H190	H	0.867273	-0.615002	0.301548
O191	O	0.918377	-0.000885	0.180386
C192	C	0.960427	-0.042878	0.232351
H193	H	0.931811	-0.043592	0.288849
H194	H	1.012221	-0.020335	0.240756
C195	C	1.010198	-0.117363	0.132046
C196	C	0.975049	-0.118243	0.201437
H197	H	1.019221	-0.163851	0.112976
H198	H	0.981871	-0.089070	0.097036
H199	H	1.053356	-0.098573	0.139059
H200	H	0.931889	-0.137024	0.194420
H201	H	1.003370	-0.146541	0.236445
O202	O	0.918315	-0.000797	0.663339
C203	C	0.881094	-0.043794	0.617495
H204	H	0.826355	-0.015886	0.605657
H205	H	0.876563	-0.095418	0.648002
C206	C	0.987733	-0.093005	0.556737
C207	C	0.920503	-0.058724	0.542193
H208	H	1.012044	-0.102217	0.510289
H209	H	1.012811	-0.064039	0.587625
H210	H	0.983948	-0.136020	0.582162
H211	H	0.924290	-0.015706	0.516778
H212	H	0.895428	-0.087683	0.511299
