data_functionalizedCrystal
_audit_creation_method	'MofGen! by Chris Wilmer'
_symmetry_space_group_name_H-M	'P1'
_symmetry_Int_Tables_number	1
_symmetry_cell_setting	triclinic
loop_
_symmetry_equiv_pos_as_xyz
  x,y,z
_cell_length_a	18.215407
_cell_length_b	12.759400
_cell_length_c	18.215399
_cell_angle_alpha	89.973045
_cell_angle_beta	89.983176
_cell_angle_gamma	90.015132
loop_
_atom_site_label
_atom_site_type_symbol
_atom_site_fract_x
_atom_site_fract_y
_atom_site_fract_z
Zn1	Zn	1.125102	-0.418240	-0.416133
Zn2	Zn	1.458436	-0.084906	-0.082800
Zn3	Zn	1.791769	0.248427	0.250533
Zn4	Zn	1.125039	-0.593944	-0.293074
Zn5	Zn	1.458372	-0.260611	0.040259
Zn6	Zn	1.791706	0.072722	0.373592
Zn7	Zn	1.002041	-0.418281	-0.293081
Zn8	Zn	1.335375	-0.084948	0.040253
Zn9	Zn	1.668708	0.248385	0.373586
Zn10	Zn	1.002023	-0.593878	-0.416099
Zn11	Zn	1.335356	-0.260545	-0.082766
Zn12	Zn	1.668689	0.072788	0.250567
O13	O	1.063551	-0.506086	-0.354597
O14	O	1.396885	-0.172753	-0.021264
O15	O	1.730218	0.160581	0.312070
O16	O	1.228078	-0.441557	-0.399821
O17	O	1.561411	-0.108224	-0.066488
O18	O	1.894745	0.225109	0.266846
O19	O	1.108704	-0.570687	-0.190091
O20	O	1.442038	-0.237354	0.143242
O21	O	1.775371	0.095979	0.476576
O22	O	1.018400	-0.271255	-0.309421
O23	O	1.351733	0.062079	0.023913
O24	O	1.685067	0.395412	0.357246
O25	O	1.228032	-0.570647	-0.309410
O26	O	1.561365	-0.237313	0.023923
O27	O	1.894698	0.096020	0.357257
O28	O	1.108812	-0.271224	-0.399827
O29	O	1.442146	0.062109	-0.066494
O30	O	1.775479	0.395443	0.266840
O31	O	1.018339	-0.441628	-0.190096
O32	O	1.351672	-0.108295	0.143238
O33	O	1.685005	0.225038	0.476571
O34	O	0.899055	-0.441565	-0.309388
O35	O	1.232388	-0.108231	0.023946
O36	O	1.565721	0.225102	0.357279
O37	O	1.018368	-0.570534	-0.519088
O38	O	1.351701	-0.237201	-0.185755
O39	O	1.685035	0.096132	0.147579
O40	O	0.899041	-0.570575	-0.399769
O41	O	1.232374	-0.237242	-0.066436
O42	O	1.565708	0.096092	0.266898
O43	O	1.108794	-0.441493	-0.519113
O44	O	1.442127	-0.108160	-0.185780
O45	O	1.775461	0.225173	0.147554
O46	O	1.108686	-0.740957	-0.309377
O47	O	1.442020	-0.407623	0.023956
O48	O	1.775353	-0.074290	0.357290
O49	O	1.018307	-0.740908	-0.399763
O50	O	1.351640	-0.407575	-0.066429
O51	O	1.684973	-0.074242	0.266904
C52	C	0.872345	-0.506068	-0.354576
C53	C	1.205678	-0.172735	-0.021242
C54	C	1.539012	0.160599	0.312091
C55	C	0.790546	-0.506086	-0.354584
C56	C	1.123879	-0.172752	-0.021251
C57	C	1.457213	0.160581	0.312082
C58	C	0.602364	-0.573367	-0.401587
C59	C	0.935698	-0.240034	-0.068253
C60	C	1.269031	0.093300	0.265080
C61	C	0.525506	-0.573370	-0.401596
C62	C	0.858839	-0.240037	-0.068262
C63	C	1.192172	0.093296	0.265071
C64	C	0.525490	-0.438824	-0.307623
C65	C	0.858824	-0.105491	0.025710
C66	C	1.192157	0.227843	0.359043
C67	C	0.602348	-0.438816	-0.307618
C68	C	0.935681	-0.105483	0.025715
C69	C	1.269014	0.227851	0.359048
C70	C	0.640783	-0.506094	-0.354599
C71	C	0.974116	-0.172760	-0.021266
C72	C	1.307449	0.160573	0.312068
C73	C	0.487067	-0.506105	-0.354613
C74	C	0.820400	-0.172771	-0.021280
C75	C	1.153733	0.160562	0.312054
C76	C	0.403733	-0.506108	-0.354623
C77	C	0.737066	-0.172774	-0.021289
C78	C	1.070400	0.160559	0.312044
C79	C	0.724122	-0.506089	-0.354590
C80	C	1.057455	-0.172756	-0.021257
C81	C	1.390788	0.160577	0.312076
C82	C	1.063508	-0.779053	-0.354582
C83	C	1.396841	-0.445720	-0.021248
C84	C	1.730174	-0.112387	0.312085
C85	C	1.063556	-0.895830	-0.354600
C86	C	1.396890	-0.562497	-0.021266
C87	C	1.730223	-0.229163	0.312067
C88	C	1.110669	-0.950682	-0.307588
C89	C	1.444002	-0.617349	0.025746
C90	C	1.777336	-0.284016	0.359079
C91	C	1.110714	-1.060406	-0.307610
C92	C	1.444048	-0.727073	0.025723
C93	C	1.777381	-0.393740	0.359056
C94	C	1.016527	-1.060416	-0.401659
C95	C	1.349861	-0.727083	-0.068326
C96	C	1.683194	-0.393749	0.265008
C97	C	1.016487	-0.950694	-0.401639
C98	C	1.349820	-0.617361	-0.068306
C99	C	1.683153	-0.284027	0.265027
C100	C	1.157739	-0.895818	-0.260548
C101	C	1.491072	-0.562485	0.072785
C102	C	1.824406	-0.229151	0.406119
C103	C	1.204855	-0.950671	-0.213532
C104	C	1.538188	-0.617337	0.119802
C105	C	1.871522	-0.284004	0.453135
C106	C	1.204900	-1.060395	-0.213554
C107	C	1.538234	-0.727061	0.119779
C108	C	1.871567	-0.393728	0.453112
C109	C	1.157829	-1.115266	-0.260593
C110	C	1.491163	-0.781933	0.072740
C111	C	1.824496	-0.448600	0.406073
C112	C	1.255504	-0.506105	-0.354618
C113	C	1.588838	-0.172771	-0.021285
C114	C	1.922171	0.160562	0.312048
C115	C	1.337303	-0.506113	-0.354628
C116	C	1.670636	-0.172779	-0.021294
C117	C	2.003970	0.160554	0.312039
C118	C	1.063586	-0.506002	-0.546550
C119	C	1.396919	-0.172669	-0.213217
C120	C	1.730253	0.160665	0.120117
C121	C	1.063601	-0.505966	-0.628349
C122	C	1.396934	-0.172633	-0.295015
C123	C	1.730268	0.160701	0.038318
C124	C	1.063615	-0.232053	-0.354628
C125	C	1.396949	0.101281	-0.021295
C126	C	1.730282	0.434614	0.312038
C127	C	1.063642	-0.115276	-0.354642
C128	C	1.396976	0.218057	-0.021308
C129	C	1.730309	0.551391	0.312025
C130	C	1.016587	-0.438720	-0.816546
C131	C	1.349920	-0.105387	-0.483213
C132	C	1.683254	0.227947	-0.149879
C133	C	1.016600	-0.438699	-0.893405
C134	C	1.349933	-0.105365	-0.560072
C135	C	1.683267	0.227968	-0.226738
C136	C	1.110703	-0.573087	-0.893389
C137	C	1.444036	-0.239754	-0.560056
C138	C	1.777369	0.093580	-0.226723
C139	C	1.110686	-0.573113	-0.816532
C140	C	1.444019	-0.239780	-0.483199
C141	C	1.777352	0.093554	-0.149865
C142	C	1.063629	-0.505923	-0.778112
C143	C	1.396962	-0.172590	-0.444779
C144	C	1.730296	0.160743	-0.111446
C145	C	1.063659	-0.505876	-0.931829
C146	C	1.396992	-0.172543	-0.598495
C147	C	1.730325	0.160790	-0.265162
C148	C	1.063673	-0.505854	-1.015162
C149	C	1.397006	-0.172521	-0.681829
C150	C	1.730340	0.160813	-0.348496
C151	C	1.063614	-0.505947	-0.694773
C152	C	1.396947	-0.172613	-0.361440
C153	C	1.730280	0.160720	-0.028107
C154	C	1.063559	-0.506094	-0.163391
C155	C	1.396892	-0.172760	0.169943
C156	C	1.730226	0.160573	0.503276
C157	C	1.063687	-0.505833	-0.081592
C158	C	1.397020	-0.172500	0.251741
C159	C	1.730353	0.160833	0.585075
H160	H	0.494187	-0.384051	-0.269372
H161	H	0.827520	-0.050717	0.063961
H162	H	1.160854	0.282616	0.397295
Cl163	Cl	1.169858	-0.657546	-0.941694
Cl164	Cl	1.503192	-0.324213	-0.608360
Cl165	Cl	1.836525	0.009120	-0.275027
H166	H	0.978204	-1.105101	-0.439955
H167	H	1.311537	-0.771768	-0.106622
H168	H	1.644871	-0.438434	0.226712
Cl169	Cl	0.957449	-0.354224	-0.941719
Cl170	Cl	1.290782	-0.020891	-0.608385
Cl171	Cl	1.624116	0.312442	-0.275052
H172	H	0.978124	-0.906033	-0.439921
H173	H	1.311457	-0.572699	-0.106588
H174	H	1.644790	-0.239366	0.226745
H175	H	0.633656	-0.628146	-0.439843
H176	H	0.966989	-0.294813	-0.106510
H177	H	1.300323	0.038521	0.226824
Cl178	Cl	1.169826	-0.657609	-0.768211
Cl179	Cl	1.503159	-0.324275	-0.434878
Cl180	Cl	1.836492	0.009058	-0.101545
Cl181	Cl	0.477211	-0.657944	-0.460670
Cl182	Cl	0.810545	-0.324611	-0.127337
Cl183	Cl	1.143878	0.008722	0.205996
Cl184	Cl	0.650649	-0.354230	-0.248548
Cl185	Cl	0.983982	-0.020897	0.084786
Cl186	Cl	1.317315	0.312437	0.418119
H187	H	1.243183	-0.905988	-0.175238
H188	H	1.576516	-0.572655	0.158095
H189	H	1.909850	-0.239322	0.491429
Cl190	Cl	1.157891	-0.757880	-0.260722
Cl191	Cl	1.491224	-0.424547	0.072611
Cl192	Cl	1.824558	-0.091214	0.405945
H193	H	0.978270	-0.384010	-0.785267
H194	H	1.311604	-0.050677	-0.451934
H195	H	1.644937	0.282657	-0.118600
H196	H	1.243270	-1.105053	-0.175277
H197	H	1.576603	-0.771719	0.158057
H198	H	1.909936	-0.438386	0.491390
H199	H	1.157876	-1.204611	-0.260614
H200	H	1.491209	-0.871278	0.072720
H201	H	1.824542	-0.537944	0.406053
