data_functionalizedCrystal
_audit_creation_method	'MofGen! by Chris Wilmer'
_symmetry_space_group_name_H-M	'P1'
_symmetry_Int_Tables_number	1
_symmetry_cell_setting	triclinic
loop_
_symmetry_equiv_pos_as_xyz
  x,y,z
_cell_length_a	16.992694
_cell_length_b	23.532407
_cell_length_c	15.455313
_cell_angle_alpha	92.643560
_cell_angle_beta	87.142206
_cell_angle_gamma	86.758451
loop_
_atom_site_label
_atom_site_type_symbol
_atom_site_fract_x
_atom_site_fract_y
_atom_site_fract_z
O1	O	1.042902	0.118384	-0.072037
O2	O	0.814628	0.117059	-0.072062
O3	O	0.935648	0.035132	-0.072033
O4	O	0.921882	0.200311	-0.072066
O5	O	0.928727	0.039796	0.072228
O6	O	0.807707	0.121723	0.072198
O7	O	1.035981	0.123049	0.072224
Cu8	Cu	0.921212	0.122812	0.085383
Cu9	Cu	0.929397	0.117296	-0.085222
O10	O	0.914962	0.204976	0.072194
C11	C	0.781968	0.117688	0.000065
C12	C	0.694964	0.112604	0.000056
C13	C	0.644342	0.161650	0.000047
C14	C	0.562592	0.156871	0.000060
C15	C	0.531466	0.103045	0.000076
C16	C	0.582095	0.053995	0.000088
C17	C	0.663843	0.058775	0.000081
C18	C	0.288022	0.083234	0.000103
C19	C	0.206267	0.078457	0.000107
C20	C	0.186770	0.181334	0.000081
C21	C	0.268521	0.186109	0.000069
C22	C	0.319142	0.137059	0.000085
N23	N	0.447905	0.098158	0.000086
N24	N	0.402701	0.141946	0.000081
C25	C	0.931837	0.016231	0.000100
C26	C	0.930782	-0.047038	0.000106
C27	C	0.995791	-0.442917	0.000066
C28	C	0.994812	-0.502366	0.000059
O29	O	1.055075	-0.536121	0.000034
N30	N	0.922865	-0.528562	0.000052
C31	C	0.851893	-0.495307	0.000042
O32	O	0.790607	-0.523048	0.000035
C33	C	0.852873	-0.435859	0.000043
C34	C	0.924824	-0.409666	0.000059
C35	C	1.067736	-0.416723	0.000081
C36	C	1.068714	-0.357278	0.000089
C37	C	0.997748	-0.324027	0.000083
C38	C	0.925803	-0.350221	0.000067
C39	C	0.781902	-0.402605	0.000027
C40	C	0.782889	-0.343154	0.000027
C41	C	0.854839	-0.316960	0.000043
C42	C	0.855814	-0.257525	0.000069
N43	N	0.927761	-0.231328	0.000076
C44	C	0.998728	-0.264579	0.000083
C45	C	0.849841	-0.620151	0.000040
C46	C	0.848860	-0.679598	0.000046
C47	C	0.991779	-0.686653	0.000061
C48	C	0.992759	-0.627205	0.000061
C49	C	0.921788	-0.593955	0.000047
C50	C	1.000777	-0.139740	0.000101
C51	C	1.001749	-0.080289	0.000113
C52	C	0.858831	-0.073240	0.000093
C53	C	0.857858	-0.132685	0.000086
C54	C	0.928838	-0.165934	0.000087
O55	O	0.795583	-0.223733	0.000090
O56	O	1.060004	-0.236831	0.000079
C57	C	1.068641	0.122420	0.000095
C58	C	1.155645	0.127504	0.000098
C59	C	0.918772	0.223877	0.000060
C60	C	0.919827	0.287146	0.000048
N61	N	0.915462	0.126692	0.205377
N62	N	0.935153	0.113412	-0.205216
C63	C	0.966893	0.091901	0.250784
C64	C	0.962551	0.094840	0.341591
C65	C	0.906782	0.132574	0.386989
C66	C	0.855345	0.167366	0.341576
C67	C	0.859684	0.164424	0.250771
C68	C	0.888055	0.145261	0.658566
C69	C	0.883722	0.148203	0.749378
C70	C	0.990928	0.075676	0.749386
C71	C	0.995265	0.072738	0.658579
C72	C	0.943825	0.107529	0.613174
N73	N	0.902344	0.135581	0.479808
N74	N	0.948260	0.104518	0.520356
H75	H	0.293858	0.229939	0.000046
H76	H	1.032806	0.047350	0.786363
Br77	Br	1.070955	0.021530	0.596965
Br78	Br	0.686577	0.234703	0.000016
Br79	Br	1.042590	0.040692	0.189181
Br80	Br	0.753513	-0.575032	0.000028
H81	H	0.556745	0.010169	0.000113
Br82	Br	0.164025	0.005404	0.000147
Br83	Br	1.032349	0.047621	0.403217
Br84	Br	0.118067	0.247897	0.000060
Br85	Br	0.493893	0.223437	0.000045
Br86	Br	0.751207	-0.715138	0.000044
H87	H	0.838305	0.178933	0.786337
Br88	Br	0.779650	0.218574	0.403185
H89	H	1.049564	-0.713737	0.000063
H90	H	0.329228	0.043294	0.000117
H91	H	0.846173	0.173590	0.621605
H92	H	0.705059	0.018836	0.000088
H93	H	1.060342	-0.058966	0.000129
Br94	Br	1.090409	-0.591663	0.000085
H95	H	0.723313	-0.423922	0.000009
Br96	Br	1.097108	-0.184855	0.000102
Br97	Br	0.789876	0.211638	0.189148
H98	H	1.127304	-0.335957	0.000099
H99	H	0.799269	-0.154012	0.000097
Br100	Br	0.686565	-0.298032	0.000004
Br101	Br	1.164062	-0.461839	0.000090
Br102	Br	0.762523	-0.028102	0.000084
