data_functionalizedCrystal
_audit_creation_method	'MofGen! by Chris Wilmer'
_symmetry_space_group_name_H-M	'P1'
_symmetry_Int_Tables_number	1
_symmetry_cell_setting	triclinic
loop_
_symmetry_equiv_pos_as_xyz
  x,y,z
_cell_length_a	10.654556
_cell_length_b	17.019294
_cell_length_c	9.130313
_cell_angle_alpha	86.116514
_cell_angle_beta	89.998135
_cell_angle_gamma	83.939732
loop_
_atom_site_label
_atom_site_type_symbol
_atom_site_fract_x
_atom_site_fract_y
_atom_site_fract_z
O1	O	1.666099	0.110819	-0.135718
O2	O	1.300457	0.121369	-0.137064
O3	O	1.493478	0.001317	-0.121908
O4	O	1.473078	0.230871	-0.150875
O5	O	1.493465	0.001313	0.121692
O6	O	1.300444	0.121365	0.106535
O7	O	1.666086	0.110815	0.107881
Cu8	Cu	1.483264	0.116090	0.129451
Cu9	Cu	1.483279	0.116094	-0.158634
O10	O	1.473065	0.230867	0.092725
C11	C	1.253665	0.120592	-0.015168
C12	C	1.114258	0.118271	-0.014881
C13	C	0.917771	0.115005	-0.147243
C14	C	1.048759	0.117181	-0.147527
C15	C	1.048764	0.117177	0.118058
C16	C	0.917779	0.114995	0.118341
C17	C	1.492698	-0.028078	0.003598
C18	C	1.490378	-0.115661	0.014640
C19	C	1.489298	-0.156802	-0.112957
C20	C	1.487109	-0.239095	-0.102577
C21	C	1.486010	-0.280247	0.035401
C22	C	1.487086	-0.239100	0.163008
C23	C	1.489266	-0.156808	0.152627
C24	C	1.479421	-0.528716	0.073390
C25	C	1.477245	-0.611014	0.083761
C26	C	1.477266	-0.611003	-0.181825
C27	C	1.479453	-0.528710	-0.192195
C28	C	1.480523	-0.487570	-0.064588
C29	C	1.483777	-0.364364	0.046015
C30	C	1.482746	-0.403454	-0.075203
C31	C	1.712879	0.111592	-0.014018
C32	C	1.852285	0.113913	-0.014315
C33	C	1.473845	0.260262	-0.032784
C34	C	1.476165	0.347845	-0.043836
N35	N	1.483262	0.116087	0.332074
N36	N	1.483291	0.116091	-0.361256
C37	C	1.568761	0.062950	0.415434
C38	C	1.568773	0.062950	0.568771
C39	C	1.397783	0.169230	0.555373
C40	C	1.397766	0.169226	0.402039
H41	H	1.490199	-0.123302	-0.225314
H42	H	1.638374	0.019680	0.358472
H43	H	1.638392	0.019681	0.636639
O44	O	1.486174	-0.278945	-0.226671
C45	C	1.487616	-0.224977	-0.350679
H46	H	1.528861	-0.169355	-0.318734
H47	H	1.547990	-0.253418	-0.439920
H48	H	1.387168	-0.208520	-0.393659
O49	O	1.112547	0.118132	0.246831
C50	C	1.202641	0.051188	0.263239
H51	H	1.227044	0.028778	0.150774
H52	H	1.291524	0.068062	0.317302
H53	H	1.162210	0.002592	0.334909
H54	H	0.864459	0.114106	0.226594
O55	O	1.480148	-0.488684	-0.326208
C56	C	1.372575	-0.432839	-0.341076
H57	H	1.336839	-0.417691	-0.227639
H58	H	1.398344	-0.376852	-0.404548
H59	H	1.295557	-0.458817	-0.403065
H60	H	1.476393	-0.644507	-0.285715
H61	H	0.864450	0.114123	-0.255260
O62	O	1.314694	0.220742	0.623519
C63	C	1.237297	0.178044	0.717601
H64	H	1.287432	0.116610	0.748323
H65	H	1.217386	0.210856	0.821285
H66	H	1.144490	0.172139	0.659277
O67	O	1.314662	0.220922	0.321270
C68	C	1.239191	0.267817	0.415901
H69	H	1.290682	0.269018	0.525043
H70	H	1.219906	0.330699	0.363647
H71	H	1.145959	0.241655	0.435533
H72	H	1.476344	-0.644517	0.196126
H73	H	1.102072	0.118068	-0.255771
H74	H	1.480317	-0.495232	0.177297
O75	O	1.485852	-0.279148	0.296957
C76	C	1.375872	-0.318402	0.309871
H77	H	1.339306	-0.327947	0.195782
H78	H	1.398794	-0.378147	0.373605
H79	H	1.300586	-0.280855	0.370667
O80	O	1.490354	-0.116967	0.276722
C81	C	1.488877	-0.170930	0.400732
H82	H	1.527084	-0.232635	0.369600
H83	H	1.550418	-0.151821	0.491212
H84	H	1.387937	-0.171968	0.441664
O85	O	1.483632	-0.363387	-0.209156
C86	C	1.376159	-0.307470	-0.224166
H87	H	1.340243	-0.292368	-0.110776
H88	H	1.402129	-0.251473	-0.287433
H89	H	1.299201	-0.333351	-0.286427
O90	O	1.482563	-0.404420	0.179957
C91	C	1.372583	-0.443674	0.192875
H92	H	1.336001	-0.453206	0.078787
H93	H	1.395512	-0.503425	0.256585
H94	H	1.297306	-0.406134	0.253697
