data_functionalizedCrystal
_audit_creation_method	'MofGen! by Chris Wilmer'
_symmetry_space_group_name_H-M	'P1'
_symmetry_Int_Tables_number	1
_symmetry_cell_setting	triclinic
loop_
_symmetry_equiv_pos_as_xyz
  x,y,z
_cell_length_a	19.077105
_cell_length_b	14.908579
_cell_length_c	14.908308
_cell_angle_alpha	83.636704
_cell_angle_beta	91.114342
_cell_angle_gamma	88.848323
loop_
_atom_site_label
_atom_site_type_symbol
_atom_site_fract_x
_atom_site_fract_y
_atom_site_fract_z
Zn1	Zn	1.029380	0.446213	-0.588788
Zn2	Zn	1.029297	0.588854	-0.446160
Zn3	Zn	0.919432	0.431498	-0.431442
Zn4	Zn	0.905060	0.590727	-0.590686
O5	O	0.970792	0.514323	-0.514269
O6	O	1.127376	0.470509	-0.575233
O7	O	1.020704	0.561038	-0.317873
O8	O	0.940066	0.307116	-0.445360
O9	O	1.127316	0.575306	-0.470445
O10	O	1.020844	0.317927	-0.560961
O11	O	0.939986	0.445429	-0.307060
O12	O	0.819518	0.447246	-0.447201
O13	O	0.915571	0.578500	-0.716769
O14	O	0.808959	0.564231	-0.564197
O15	O	1.006908	0.472325	-0.715374
O16	O	1.006768	0.715436	-0.472286
O17	O	0.915491	0.716813	-0.578469
C18	C	0.788826	0.504346	-0.504309
C19	C	0.710978	0.500100	-0.500070
C20	C	0.959579	0.748884	-0.527201
C21	C	0.954845	0.849235	-0.532767
C22	C	0.668926	0.559096	-0.558907
C23	C	0.595780	0.555095	-0.554928
C24	C	0.564688	0.492102	-0.492108
C25	C	0.606745	0.433101	-0.433269
C26	C	0.679890	0.437098	-0.437253
C27	C	0.346517	0.473604	-0.473675
C28	C	0.273366	0.469613	-0.469694
C29	C	0.262407	0.591607	-0.591354
C30	C	0.335553	0.595602	-0.595329
C31	C	0.377604	0.536597	-0.536493
N32	N	0.489921	0.488013	-0.488037
N33	N	0.452370	0.540682	-0.540569
C34	C	1.041082	1.036321	-0.432757
C35	C	1.036636	1.130610	-0.437984
C36	C	0.941511	1.132104	-0.548453
C37	C	0.945957	1.037815	-0.543226
C38	C	0.995743	0.989927	-0.485375
C39	C	1.000185	0.895636	-0.480143
C40	C	0.905064	0.897131	-0.590617
C41	C	0.900618	0.991420	-0.595844
C42	C	1.153469	0.524340	-0.524269
C43	C	1.231314	0.528609	-0.528530
C44	C	0.959646	0.527263	-0.749744
C45	C	0.954896	0.532777	-0.850090
C46	C	0.982062	1.278849	-0.501319
C47	C	0.986852	1.178505	-0.495829
C48	C	1.041079	0.432558	-1.037198
C49	C	1.036618	0.437736	-1.131481
C50	C	0.941511	0.548306	-1.132942
C51	C	0.945972	0.543128	-1.038658
C52	C	0.995758	0.485253	-0.990790
C53	C	1.000221	0.480080	-0.896505
C54	C	0.905112	0.590645	-0.897967
C55	C	0.900651	0.595823	-0.992250
C56	C	0.981939	0.501370	-0.279708
C57	C	0.986836	0.495609	-0.179357
H58	H	0.561544	0.603136	-0.602838
O59	O	0.221629	0.648877	-0.648639
C60	C	0.189874	0.700094	-0.803349
C61	C	0.236108	0.635206	-0.738569
H62	H	0.201553	0.689051	-0.876072
H63	H	0.201537	0.772797	-0.792256
H64	H	0.132261	0.686428	-0.789668
H65	H	0.293736	0.648791	-0.752211
H66	H	0.224385	0.562524	-0.749676
O67	O	0.720816	0.379920	-0.380064
C68	C	0.809710	0.365401	-0.261979
C69	C	0.763415	0.430260	-0.326709
H70	H	0.844152	0.406074	-0.218812
H71	H	0.844296	0.322428	-0.302727
H72	H	0.774912	0.319672	-0.216432
H73	H	0.798159	0.476045	-0.372270
H74	H	0.728824	0.473169	-0.285906
O75	O	0.861040	0.852173	-0.641866
C76	C	0.821050	0.829837	-0.791924
C77	C	0.870933	0.880830	-0.733999
H78	H	0.829042	0.852973	-0.866426
H79	H	0.764449	0.844509	-0.774018
H80	H	0.832764	0.754220	-0.778205
H81	H	0.859283	0.956460	-0.747687
H82	H	0.927519	0.866083	-0.751916
O83	O	0.893240	0.604611	-1.179505
C84	C	0.872932	0.731765	-1.292222
C85	C	0.927676	0.668084	-1.239534
H86	H	0.900751	0.783086	-1.340781
H87	H	0.841305	0.768612	-1.242911
H88	H	0.836203	0.690692	-1.332024
H89	H	0.964451	0.709089	-1.199730
H90	H	0.959252	0.631234	-1.288891
O91	O	0.852352	0.652021	-1.038895
C92	C	0.803299	0.708959	-1.184786
C93	C	0.858040	0.645290	-1.132078
H94	H	0.807869	0.703525	-1.260133
H95	H	0.812992	0.781435	-1.171002
H96	H	0.748470	0.689005	-1.162230
H97	H	0.912890	0.665162	-1.154602
H98	H	0.848286	0.572830	-1.145864
H99	H	0.248054	0.418307	-0.418543
O100	O	0.699159	0.620378	-0.619810
C101	C	0.775384	0.747421	-0.642985
C102	C	0.741182	0.678088	-0.573910
H103	H	0.809379	0.794086	-0.605903
H104	H	0.732790	0.788964	-0.684344
H105	H	0.809344	0.710494	-0.689857
H106	H	0.707227	0.714942	-0.526980
H107	H	0.783811	0.636548	-0.532617
O108	O	1.048600	0.423786	-0.850139
C109	C	1.142485	0.314697	-0.858649
C110	C	1.087719	0.378400	-0.911265
H111	H	1.174138	0.278000	-0.908048
H112	H	1.114711	0.263250	-0.810172
H113	H	1.179185	0.355735	-0.818769
H114	H	1.051004	0.337437	-0.951198
H115	H	1.115539	0.429849	-0.959688
H116	H	1.081620	0.385439	-0.998223
O117	O	0.365831	0.656669	-0.656403
C118	C	0.442034	0.680204	-0.783493
C119	C	0.407805	0.610948	-0.714365
H120	H	0.475966	0.643264	-0.830385
H121	H	0.476032	0.726930	-0.746490
H122	H	0.399397	0.721695	-0.824820
H123	H	0.450395	0.569395	-0.673019
H124	H	0.373792	0.564284	-0.751423
O125	O	0.387256	0.416249	-0.416432
C126	C	0.390401	0.294783	-0.295385
C127	C	0.344177	0.359703	-0.360146
H128	H	0.355591	0.249036	-0.249875
H129	H	0.424889	0.335373	-0.252190
H130	H	0.424950	0.251834	-0.336200
H131	H	0.309586	0.402666	-0.319402
H132	H	0.309735	0.319060	-0.403344
H133	H	0.581424	0.381807	-0.382123
H134	H	1.073557	1.168381	-0.395138
O135	O	1.080718	0.386518	-1.176425
C136	C	1.175493	0.276261	-1.165019
C137	C	1.125603	0.334234	-1.114010
H138	H	1.211785	0.233960	-1.114577
H139	H	1.208094	0.322095	-1.213422
H140	H	1.143493	0.229758	-1.204828
H141	H	1.157548	0.380743	-1.074150
H142	H	1.093000	0.288346	-1.065661
O143	O	1.048606	0.849256	-0.423932
C144	C	1.142461	0.857728	-0.314875
C145	C	1.087666	0.910361	-0.378512
H146	H	1.174046	0.907107	-0.278122
H147	H	1.179222	0.817834	-0.355877
H148	H	1.114642	0.809262	-0.263466
H149	H	1.115426	0.958874	-0.429934
H150	H	1.050909	0.950195	-0.337451
H151	H	0.868210	0.633555	-0.860171
O152	O	0.893173	1.178766	-0.604569
C153	C	0.844204	1.324696	-0.661619
C154	C	0.898968	1.271961	-0.598015
H155	H	0.848881	1.400054	-0.656355
H156	H	0.789345	1.302335	-0.641588
H157	H	0.853876	1.310733	-0.734056
H158	H	0.889362	1.285898	-0.525558
H159	H	0.953809	1.294329	-0.618122
H160	H	1.081616	0.997330	-0.385645
O161	O	0.852276	1.038078	-0.651959
C162	C	0.803295	1.184000	-0.709009
C163	C	0.858065	1.131274	-0.645408
H164	H	0.807966	1.259360	-0.703749
H165	H	0.748438	1.161633	-0.688973
H166	H	0.812965	1.170037	-0.781447
H167	H	0.848461	1.145212	-0.572951
H168	H	0.912903	1.153649	-0.665521
