data_functionalizedCrystal
_audit_creation_method	'MofGen! by Chris Wilmer'
_symmetry_space_group_name_H-M	'P1'
_symmetry_Int_Tables_number	1
_symmetry_cell_setting	triclinic
loop_
_symmetry_equiv_pos_as_xyz
  x,y,z
_cell_length_a	13.897449
_cell_length_b	12.759394
_cell_length_c	12.759387
_cell_angle_alpha	90.031660
_cell_angle_beta	90.021740
_cell_angle_gamma	90.016117
loop_
_atom_site_label
_atom_site_type_symbol
_atom_site_fract_x
_atom_site_fract_y
_atom_site_fract_z
Zn1	Zn	-1.474731	0.418175	-0.594033
Zn2	Zn	-1.474631	0.593892	-0.418351
Zn3	Zn	-1.313418	0.418232	-0.418366
Zn4	Zn	-1.313410	0.593817	-0.593986
O5	O	-1.394047	0.506029	-0.506184
O6	O	-1.609700	0.441492	-0.570742
O7	O	-1.453206	0.570646	-0.271332
O8	O	-1.334862	0.271203	-0.441695
O9	O	-1.609626	0.570591	-0.441669
O10	O	-1.453378	0.271162	-0.570757
O11	O	-1.334764	0.441589	-0.271343
O12	O	-1.178435	0.441515	-0.441650
O13	O	-1.334849	0.570462	-0.741014
O14	O	-1.178430	0.570517	-0.570677
O15	O	-1.453371	0.441419	-0.741048
O16	O	-1.453199	0.740903	-0.441624
O17	O	-1.334751	0.740848	-0.570662
C18	C	-1.393990	0.778996	-0.506159
C19	C	-1.394053	0.895773	-0.506183
C20	C	-1.143433	0.506015	-0.506160
C21	C	-1.036219	0.506034	-0.506175
C22	C	-1.645640	0.506044	-0.506209
C23	C	-1.752854	0.506050	-0.506220
C24	C	-0.839924	0.506038	-0.506203
C25	C	-0.949157	0.506033	-0.506184
C26	C	-1.394120	0.505926	-0.780218
C27	C	-1.394151	0.505882	-0.896995
C28	C	-1.394132	0.231996	-0.506233
C29	C	-1.394168	0.115219	-0.506253
C30	C	-1.517485	0.895778	-0.371916
C31	C	-1.579227	0.950641	-0.304795
C32	C	-1.579283	1.060362	-0.304823
C33	C	-1.517594	1.115223	-0.371983
C34	C	-1.455853	1.060360	-0.439104
C35	C	-1.455801	0.950636	-0.439066
C36	C	-1.332427	1.060356	-0.573375
C37	C	-1.332364	0.950634	-0.573342
C38	C	-1.270737	1.115217	-0.640534
C39	C	-1.208990	1.060354	-0.707651
C40	C	-1.208935	0.950626	-0.707619
C41	C	-1.270622	0.895771	-0.640464
C42	C	-1.517577	0.371518	-0.897050
C43	C	-1.579303	0.304321	-0.951939
C44	C	-1.579326	0.304283	-1.061661
C45	C	-1.517615	0.371447	-1.116496
C46	C	-1.455889	0.438644	-1.061608
C47	C	-1.455874	0.438678	-0.951883
C48	C	-1.332460	0.573001	-1.061552
C49	C	-1.332440	0.573046	-0.951830
C50	C	-1.270749	0.640165	-1.116388
C51	C	-1.209026	0.707370	-1.061499
C52	C	-1.209006	0.707406	-0.951771
C53	C	-1.270714	0.640244	-0.896942
C54	C	-1.394030	0.506056	-0.233217
C55	C	-1.394186	0.505804	-0.116441
H56	H	-1.629456	0.905963	-0.250116
H57	H	-1.270792	1.204558	-0.640557
H58	H	-1.270708	0.640272	-0.807600
H59	H	-1.629563	1.105031	-0.250173
N60	N	-1.145968	1.116375	-0.776243
N61	N	-1.090837	1.067383	-0.836159
H62	H	-1.046323	1.106950	-0.884602
N63	N	-1.145996	0.775975	-1.117502
N64	N	-1.152344	0.872928	-1.105240
H65	H	-1.107824	0.921381	-1.144793
N66	N	-1.642325	0.235718	-0.895910
N67	N	-1.642299	0.235756	-0.797944
H68	H	-1.686807	0.187304	-0.758375
N69	N	-1.145938	0.776046	-0.895723
N70	N	-1.090846	0.835998	-0.944700
H71	H	-1.046301	0.884476	-0.905121
H72	H	-1.158661	0.905962	-0.762281
H73	H	-1.517654	1.204564	-0.372009
H74	H	-1.270577	0.806430	-0.640424
H75	H	-1.517433	0.806436	-0.371872
N76	N	-1.517561	0.371541	-0.784973
N77	N	-1.497430	0.289598	-0.736013
H78	H	-1.497419	0.289610	-0.656857
N79	N	-1.642372	0.235626	-1.117717
N80	N	-1.697458	0.175657	-1.068753
H81	H	-1.741983	0.127166	-1.108342
N82	N	-1.517636	0.371380	-1.228574
N83	N	-1.572744	0.311368	-1.277568
H84	H	-1.572757	0.311319	-1.356725
N85	N	-1.270774	0.640107	-1.228465
N86	N	-1.325889	0.580105	-1.277462
H87	H	-1.325907	0.580065	-1.356619
