data_functionalizedCrystal
_audit_creation_method	'MofGen! by Chris Wilmer'
_symmetry_space_group_name_H-M	'P1'
_symmetry_Int_Tables_number	1
_symmetry_cell_setting	triclinic
loop_
_symmetry_equiv_pos_as_xyz
  x,y,z
_cell_length_a	10.654545
_cell_length_b	13.262508
_cell_length_c	9.730223
_cell_angle_alpha	105.913923
_cell_angle_beta	89.997167
_cell_angle_gamma	84.458219
loop_
_atom_site_label
_atom_site_type_symbol
_atom_site_fract_x
_atom_site_fract_y
_atom_site_fract_z
O1	O	1.667074	0.147399	-0.059174
O2	O	1.301522	0.161450	-0.053927
O3	O	1.493497	0.001703	-0.113633
O4	O	1.475100	0.307146	0.000532
O5	O	1.493485	0.001699	0.114945
O6	O	1.301510	0.161445	0.174651
O7	O	1.667062	0.147395	0.169405
Zn8	Zn	1.484284	0.154419	0.208320
Zn9	Zn	1.484300	0.154425	-0.092842
O10	O	1.475087	0.307141	0.229111
C11	C	1.254723	0.160417	0.059976
C12	C	1.115296	0.157333	0.058821
C13	C	1.492461	-0.037409	-0.013965
C14	C	1.489376	-0.153947	-0.057532
C15	C	1.049792	0.155879	0.182878
C16	C	0.918788	0.152965	0.181788
C17	C	0.918802	0.152962	-0.067423
C18	C	1.049805	0.155869	-0.066335
C19	C	1.480647	-0.482468	0.318067
C20	C	1.483535	-0.372975	0.359002
C21	C	1.484996	-0.318212	0.254872
C22	C	1.483567	-0.372954	0.109800
C23	C	1.480668	-0.482457	0.068861
C24	C	1.485017	-0.318201	0.005666
C25	C	1.483588	-0.372943	-0.139407
C26	C	1.480691	-0.482436	-0.180338
C27	C	1.479230	-0.537198	-0.076208
C28	C	1.487916	-0.208698	0.046605
C29	C	1.487938	-0.208687	-0.202601
C30	C	1.485049	-0.318181	-0.243537
C31	C	1.713861	0.148428	0.055498
C32	C	1.853288	0.151511	0.056644
C33	C	1.476124	0.346254	0.129440
C34	C	1.479209	0.462791	0.172998
N35	N	1.484282	0.154415	0.413854
N36	N	1.484312	0.154422	-0.298380
C37	C	1.569317	0.083709	0.459354
C38	C	1.569330	0.083710	0.603237
C39	C	1.399268	0.225130	0.656112
C40	C	1.399250	0.225124	0.512229
H41	H	1.103111	0.157071	0.284788
H42	H	1.476885	-0.626357	-0.109531
Br43	Br	1.489854	-0.134419	0.243481
H44	H	1.330038	0.282702	0.736223
Br45	Br	1.684734	-0.012256	0.664980
Br46	Br	1.478633	-0.556788	0.459370
Br47	Br	1.138713	0.157830	-0.234715
Br48	Br	1.485446	-0.298687	0.555877
Br49	Br	1.478727	-0.556724	-0.377221
Br50	Br	1.483117	-0.392486	-0.440415
Br51	Br	1.489887	-0.134373	-0.343930
H52	H	0.865463	0.151772	-0.169320
H53	H	1.638554	0.026132	0.379258
H54	H	1.329998	0.282701	0.475183
H55	H	0.865460	0.151781	0.282807
H56	H	1.487346	-0.229058	0.288210
