data_functionalizedCrystal
_audit_creation_method	'MofGen! by Chris Wilmer'
_symmetry_space_group_name_H-M	'P1'
_symmetry_Int_Tables_number	1
_symmetry_cell_setting	triclinic
loop_
_symmetry_equiv_pos_as_xyz
  x,y,z
_cell_length_a	16.120530
_cell_length_b	16.120444
_cell_length_c	13.897441
_cell_angle_alpha	92.866378
_cell_angle_beta	87.080937
_cell_angle_gamma	90.168401
loop_
_atom_site_label
_atom_site_type_symbol
_atom_site_fract_x
_atom_site_fract_y
_atom_site_fract_z
Zn1	Zn	1.254488	-0.395575	-0.642103
Zn2	Zn	1.504488	-0.145575	-0.392103
Zn3	Zn	1.754488	0.104425	-0.142103
Zn4	Zn	2.004488	0.354425	0.107897
Zn5	Zn	1.247324	-0.534643	-0.488534
Zn6	Zn	1.497324	-0.284643	-0.238534
Zn7	Zn	1.747324	-0.034643	0.011466
Zn8	Zn	1.997324	0.215357	0.261466
Zn9	Zn	1.115422	-0.388551	-0.472257
Zn10	Zn	1.365422	-0.138551	-0.222257
Zn11	Zn	1.615422	0.111449	0.027743
Zn12	Zn	1.865422	0.361449	0.277743
Zn13	Zn	1.108338	-0.527528	-0.641222
Zn14	Zn	1.358338	-0.277528	-0.391222
Zn15	Zn	1.608338	-0.027528	-0.141222
Zn16	Zn	1.858338	0.222472	0.108778
O17	O	1.181393	-0.461574	-0.561029
O18	O	1.431393	-0.211574	-0.311029
O19	O	1.681393	0.038426	-0.061029
O20	O	1.931393	0.288426	0.188971
O21	O	1.369904	-0.419940	-0.628912
O22	O	1.619904	-0.169940	-0.378912
O23	O	1.869904	0.080060	-0.128912
O24	O	2.119904	0.330060	0.121088
O25	O	1.229793	-0.515301	-0.351393
O26	O	1.479793	-0.265301	-0.101393
O27	O	1.729793	-0.015301	0.148607
O28	O	1.979793	0.234699	0.398607
O29	O	1.139833	-0.273119	-0.488344
O30	O	1.389833	-0.023119	-0.238344
O31	O	1.639833	0.226881	0.011656
O32	O	1.889833	0.476881	0.261656
O33	O	1.364640	-0.522112	-0.516085
O34	O	1.614640	-0.272112	-0.266085
O35	O	1.864640	-0.022112	-0.016085
O36	O	2.114640	0.227888	0.233915
O37	O	1.242004	-0.278280	-0.613129
O38	O	1.492004	-0.028280	-0.363129
O39	O	1.742004	0.221720	-0.113129
O40	O	1.992004	0.471720	0.136871
O41	O	1.132886	-0.407968	-0.339435
O42	O	1.382886	-0.157968	-0.089435
O43	O	1.632886	0.092032	0.160565
O44	O	1.882886	0.342032	0.410565
O45	O	0.998117	-0.401069	-0.487490
O46	O	1.248117	-0.151069	-0.237490
O47	O	1.498117	0.098931	0.012510
O48	O	1.748117	0.348931	0.262510
O49	O	1.127759	-0.509987	-0.776320
O50	O	1.377759	-0.259987	-0.526320
O51	O	1.627759	-0.009987	-0.276320
O52	O	1.877759	0.240013	-0.026320
O53	O	0.992912	-0.503176	-0.611628
O54	O	1.242912	-0.253176	-0.361628
O55	O	1.492912	-0.003176	-0.111628
O56	O	1.742912	0.246824	0.138372
O57	O	1.235135	-0.413041	-0.776967
O58	O	1.485135	-0.163041	-0.526967
O59	O	1.735135	0.086959	-0.276967
O60	O	1.985135	0.336959	-0.026967
O61	O	1.222924	-0.650062	-0.515231
O62	O	1.472924	-0.400062	-0.265231
O63	O	1.722924	-0.150062	-0.015231
O64	O	1.972924	0.099938	0.234769
O65	O	1.120812	-0.644835	-0.627411
O66	O	1.370812	-0.394835	-0.377411
O67	O	1.620812	-0.144835	-0.127411
O68	O	1.870812	0.105165	0.122589
C69	C	0.965342	-0.450589	-0.547698
C70	C	1.215342	-0.200589	-0.297698
C71	C	1.465342	0.049411	-0.047698
C72	C	1.715342	0.299411	0.202302
C73	C	0.872914	-0.445909	-0.542019
C74	C	1.122914	-0.195909	-0.292019
C75	C	1.372914	0.054091	-0.042019
C76	C	1.622914	0.304091	0.207981
C77	C	0.703686	-0.437346	-0.531658
C78	C	0.953686	-0.187346	-0.281658
C79	C	1.203686	0.062654	-0.031658
C80	C	1.453686	0.312654	0.218342
C81	C	0.659937	-0.485864	-0.590474
C82	C	0.909937	-0.235864	-0.340474
C83	C	1.159937	0.014136	-0.090474
C84	C	1.409937	0.264136	0.159526
C85	C	0.565773	-0.481099	-0.584709
C86	C	0.815773	-0.231099	-0.334709
C87	C	1.065773	0.018901	-0.084709
C88	C	1.315773	0.268901	0.165291
C89	C	0.797859	-0.442110	-0.537421
C90	C	1.047859	-0.192110	-0.287421
C91	C	1.297859	0.057890	-0.037421
C92	C	1.547859	0.307890	0.212579
C93	C	1.170344	-0.677622	-0.573014
C94	C	1.420344	-0.427622	-0.323014
C95	C	1.670344	-0.177622	-0.073014
C96	C	1.920344	0.072378	0.176986
C97	C	1.165694	-0.770052	-0.578178
C98	C	1.415694	-0.520052	-0.328178
C99	C	1.665694	-0.270052	-0.078178
C100	C	1.915694	-0.020052	0.171822
C101	C	1.205722	-0.983027	-0.534459
C102	C	1.455722	-0.733027	-0.284459
C103	C	1.705722	-0.483027	-0.034459
C104	C	1.955722	-0.233027	0.215541
C105	C	1.157218	-0.939278	-0.587618
C106	C	1.407218	-0.689278	-0.337618
C107	C	1.657218	-0.439278	-0.087618
C108	C	1.907218	-0.189278	0.162382
C109	C	1.161935	-0.845112	-0.582364
C110	C	1.411935	-0.595112	-0.332364
C111	C	1.661935	-0.345112	-0.082364
C112	C	1.911935	-0.095112	0.167636
C113	C	1.201006	-1.077202	-0.539712
C114	C	1.451006	-0.827202	-0.289712
C115	C	1.701006	-0.577202	-0.039712
C116	C	1.951006	-0.327202	0.210288
C117	C	1.398288	-0.472603	-0.574412
C118	C	1.648288	-0.222603	-0.324412
C119	C	1.898288	0.027397	-0.074412
C120	C	2.148288	0.277397	0.175588
C121	C	1.490715	-0.477303	-0.580116
C122	C	1.740715	-0.227303	-0.330116
C123	C	1.990715	0.022697	-0.080116
C124	C	2.240715	0.272697	0.169884
C125	C	1.181456	-0.461504	-0.812622
C126	C	1.431456	-0.211504	-0.562622
C127	C	1.681456	0.038496	-0.312622
C128	C	1.931456	0.288496	-0.062622
C129	C	1.181483	-0.461474	-0.919835
C130	C	1.431483	-0.211474	-0.669835
C131	C	1.681483	0.038526	-0.419835
C132	C	1.931483	0.288526	-0.169835
C133	C	1.192508	-0.244684	-0.549019
C134	C	1.442508	0.005316	-0.299019
C135	C	1.692508	0.255316	-0.049019
C136	C	1.942508	0.505316	0.200981
C137	C	1.197244	-0.152259	-0.543902
C138	C	1.447244	0.097741	-0.293902
C139	C	1.697244	0.347741	-0.043902
C140	C	1.947244	0.597741	0.206098
C141	C	1.181508	-0.461419	-1.116129
C142	C	1.431508	-0.211419	-0.866129
C143	C	1.681508	0.038581	-0.616129
C144	C	1.931508	0.288581	-0.366129
C145	C	1.181491	-0.461451	-1.006897
C146	C	1.431491	-0.211451	-0.756897
C147	C	1.681491	0.038549	-0.506897
C148	C	1.931491	0.288549	-0.256897
C149	C	1.181382	-0.461587	-0.310415
C150	C	1.431382	-0.211587	-0.060415
C151	C	1.681382	0.038413	0.189585
C152	C	1.931382	0.288413	0.439585
C153	C	1.181528	-0.461391	-0.203198
C154	C	1.431528	-0.211391	0.046802
C155	C	1.681528	0.038609	0.296802
C156	C	1.931528	0.288609	0.546802
H157	H	0.693202	-0.530978	-0.645159
H158	H	0.943202	-0.280978	-0.395159
H159	H	1.193202	-0.030978	-0.145159
H160	H	1.443202	0.219022	0.104841
F161	F	1.098307	-0.982756	-0.652260
F162	F	1.348307	-0.732756	-0.402260
F163	F	1.598307	-0.482756	-0.152260
F164	F	1.848307	-0.232756	0.097740
H165	H	0.670424	-0.392235	-0.476978
H166	H	0.920424	-0.142235	-0.226978
H167	H	1.170424	0.107765	0.023022
H168	H	1.420424	0.357765	0.273022
F169	F	1.264626	-0.939549	-0.469818
F170	F	1.514626	-0.689549	-0.219818
F171	F	1.764626	-0.439549	0.030182
F172	F	2.014626	-0.189549	0.280182
