data_functionalizedCrystal
_audit_creation_method	'MofGen! by Chris Wilmer'
_symmetry_space_group_name_H-M	'P1'
_symmetry_Int_Tables_number	1
_symmetry_cell_setting	triclinic
loop_
_symmetry_equiv_pos_as_xyz
  x,y,z
_cell_length_a	15.944551
_cell_length_b	17.038272
_cell_length_c	14.421503
_cell_angle_alpha	90.004327
_cell_angle_beta	89.996859
_cell_angle_gamma	87.305147
loop_
_atom_site_label
_atom_site_type_symbol
_atom_site_fract_x
_atom_site_fract_y
_atom_site_fract_z
O1	O	1.121728	0.100827	-0.077015
O2	O	0.878066	0.113259	-0.077039
O3	O	0.998449	-0.006773	-0.077020
O4	O	1.001345	0.220859	-0.077034
O5	O	0.998429	-0.006755	0.077204
O6	O	0.878046	0.113277	0.077185
O7	O	1.121708	0.100845	0.077208
Cu8	Cu	0.999875	0.107062	0.091278
Cu9	Cu	0.999899	0.107041	-0.091109
O10	O	1.001325	0.220877	0.077189
C11	C	0.846725	0.112752	0.000070
C12	C	0.753369	0.111205	0.000062
C13	C	0.995805	-0.035893	0.000092
C14	C	0.987945	-0.122688	0.000091
C15	C	0.532936	0.033105	0.000085
C16	C	0.474515	0.069363	-0.075958
C17	C	0.582443	0.108405	0.000073
C18	C	0.474519	0.069398	0.076094
C19	C	0.417337	0.105696	0.000088
C20	C	0.525252	0.144684	-0.076033
C21	C	0.525261	0.144709	0.076088
C22	C	0.466862	0.181022	0.000027
C23	C	0.677557	0.109964	0.000063
C24	C	0.322225	0.104143	0.000090
C25	C	1.060103	-0.172781	0.000098
C26	C	1.052713	-0.254334	0.000089
C27	C	0.973165	-0.285792	0.000078
C28	C	0.901002	-0.235693	0.000068
C29	C	0.908393	-0.154142	0.000071
C30	C	0.947056	-0.531558	0.000063
C31	C	0.939671	-0.613115	0.000063
C32	C	1.091383	-0.631751	0.000083
C33	C	1.098766	-0.550197	0.000091
C34	C	1.026603	-0.500105	0.000075
C35	C	0.965610	-0.369152	0.000071
C36	C	1.034159	-0.416747	0.000076
C37	C	1.153049	0.101352	0.000097
C38	C	1.246405	0.102899	0.000100
C39	C	1.003969	0.249997	0.000076
C40	C	1.011829	0.336792	0.000071
N41	N	0.999865	0.107077	0.219560
N42	N	0.999916	0.107021	-0.219390
C43	C	0.944187	0.162555	0.469205
C44	C	1.021171	0.177734	0.531013
C45	C	0.999884	0.107058	0.408721
C46	C	0.922921	0.091897	0.531006
C47	C	0.999895	0.107042	0.591442
C48	C	1.076908	0.122272	0.469169
C49	C	0.978606	0.036405	0.469156
C50	C	1.055642	0.051554	0.530937
C51	C	0.999876	0.107070	0.303460
C52	C	0.999912	0.107030	0.696701
H53	H	0.561807	-0.029389	-0.000006
H54	H	0.836233	-0.261313	0.000053
H55	H	0.547520	0.176502	-0.140391
O56	O	1.161392	-0.680521	0.000048
C57	C	1.137816	-0.759247	0.000066
H58	H	1.071620	-0.762379	-0.029136
H59	H	1.183458	-0.796193	-0.044707
H60	H	1.139308	-0.782828	0.074054
H61	H	0.857830	0.079082	0.558171
H62	H	1.163543	-0.524590	0.000100
H63	H	0.874891	-0.638725	0.000069
O64	O	0.876874	-0.483017	0.000101
C65	C	0.805082	-0.528274	0.000076
H66	H	0.822055	-0.589137	0.029271
H67	H	0.754160	-0.498195	0.044851
H68	H	0.780978	-0.534086	-0.073914
O69	O	1.042792	0.248944	0.563486
C70	C	1.116437	0.239614	0.617254
H71	H	1.152555	0.183096	0.596131
H72	H	1.157360	0.291774	0.605340
H73	H	1.098947	0.236430	0.693768
O74	O	0.447961	0.031307	-0.152676
C75	C	0.518009	0.005484	-0.206084
H76	H	0.575986	0.000058	-0.159857
H77	H	0.505923	-0.054193	-0.237880
H78	H	0.528761	0.049702	-0.263702
O79	O	0.551880	0.182787	0.152753
C80	C	0.516846	0.260322	0.153398
H81	H	0.457311	0.263504	0.109527
H82	H	0.500848	0.278425	0.227658
H83	H	0.564048	0.301733	0.123534
O84	O	1.122871	-0.302911	-0.000022
C85	C	1.170828	-0.288665	-0.079897
H86	H	1.154625	-0.226806	-0.106526
H87	H	1.240470	-0.294394	-0.061919
H88	H	1.156170	-0.333275	-0.135833
O89	O	0.432664	0.255663	-0.000188
C90	C	0.458616	0.295057	-0.080456
H91	H	0.477320	0.250164	-0.136237
H92	H	0.404809	0.335398	-0.106997
H93	H	0.514702	0.331462	-0.063044
H94	H	0.452149	0.037543	0.140380
O95	O	1.137331	-0.142133	-0.000015
C96	C	1.146162	-0.095538	-0.079899
H97	H	1.081413	-0.075230	-0.106532
H98	H	1.183462	-0.042135	-0.061931
H99	H	1.180753	-0.131570	-0.135828
O100	O	0.838213	-0.105590	0.000104
C101	C	0.766417	-0.150841	0.000070
H102	H	0.783380	-0.211704	0.029273
H103	H	0.715491	-0.120755	0.044835
H104	H	0.742322	-0.156656	-0.073922
O105	O	1.111476	-0.386285	0.000208
C106	C	1.155797	-0.411856	0.080100
H107	H	1.128864	-0.468418	0.106727
H108	H	1.224941	-0.423168	0.062147
H109	H	1.149425	-0.364662	0.136029
O110	O	0.888385	-0.399807	-0.000054
C111	C	0.879577	-0.446409	-0.079942
H112	H	0.944334	-0.466709	-0.106571
H113	H	0.842285	-0.499818	-0.061982
H114	H	0.844990	-0.410387	-0.135872
H115	H	0.897141	0.209524	0.442099
H116	H	1.142019	0.135160	0.442121
O117	O	1.112015	-0.004363	0.563036
C118	C	1.193028	0.011901	0.531337
H119	H	1.195282	0.077062	0.514091
H120	H	1.241013	-0.003841	0.587735
H121	H	1.208301	-0.024367	0.466556
H122	H	0.960576	-0.023318	0.441965
