data_functionalizedCrystal
_audit_creation_method	'MofGen! by Chris Wilmer'
_symmetry_space_group_name_H-M	'P1'
_symmetry_Int_Tables_number	1
_symmetry_cell_setting	triclinic
loop_
_symmetry_equiv_pos_as_xyz
  x,y,z
_cell_length_a	23.532407
_cell_length_b	23.532407
_cell_length_c	9.730223
_cell_angle_alpha	90.002492
_cell_angle_beta	89.994043
_cell_angle_gamma	82.848712
loop_
_atom_site_label
_atom_site_type_symbol
_atom_site_fract_x
_atom_site_fract_y
_atom_site_fract_z
O1	O	0.069133	0.755256	-0.114217
O2	O	0.079136	0.589393	-0.114241
O3	O	-0.008797	0.677326	-0.114203
O4	O	0.157066	0.667323	-0.114255
O5	O	-0.008795	0.677325	0.114377
O6	O	0.079138	0.589392	0.114339
O7	O	0.069135	0.755255	0.114363
Zn8	Zn	0.074137	0.672323	0.150643
Zn9	Zn	0.074134	0.672325	-0.150521
O10	O	0.157068	0.667322	0.114325
C11	C	0.078882	0.568176	0.000047
C12	C	0.078116	0.504959	0.000039
C13	C	-0.030012	0.677071	0.000091
C14	C	-0.093229	0.676305	0.000101
C15	C	0.022921	0.238792	0.000093
C16	C	0.023632	0.298192	0.000093
O17	O	-0.020153	0.334937	0.000154
N18	N	0.075909	0.320818	0.000067
C19	C	0.127477	0.284041	0.000056
O20	O	0.172007	0.308740	0.000035
C21	C	0.126765	0.224642	0.000066
C22	C	0.074485	0.202019	0.000078
C23	C	-0.029354	0.216169	0.000107
C24	C	-0.030066	0.156772	0.000105
C25	C	0.021499	0.119999	0.000089
C26	C	0.073774	0.142623	0.000076
C27	C	0.178333	0.187865	0.000065
C28	C	0.177616	0.128463	0.000077
C29	C	0.125336	0.105840	0.000088
C30	C	0.124627	0.046454	0.000059
N31	N	0.072351	0.023828	0.000085
C32	C	0.020787	0.060600	0.000100
C33	C	0.128968	0.408783	0.000036
C34	C	0.129681	0.468181	0.000016
C35	C	0.025836	0.482328	0.000056
C36	C	0.025124	0.422929	0.000066
C37	C	0.076692	0.386157	0.000062
C38	C	0.019297	-0.064136	0.000094
C39	C	0.018590	-0.123538	0.000087
C40	C	0.122435	-0.137680	0.000055
C41	C	0.123142	-0.078284	0.000055
C42	C	0.071568	-0.041512	0.000080
O43	O	0.168390	0.009675	0.000003
O44	O	-0.023737	0.035892	0.000138
C45	C	-0.492332	0.723538	0.000032
C46	C	-0.551733	0.722827	0.000022
O47	O	-0.588477	0.766613	-0.000023
N48	N	-0.574359	0.670551	0.000015
C49	C	-0.537581	0.618982	0.000005
O50	O	-0.562281	0.574452	-0.000002
C51	C	-0.478182	0.619695	0.000006
C52	C	-0.455559	0.671974	0.000027
C53	C	-0.469709	0.775814	0.000051
C54	C	-0.410313	0.776525	0.000064
C55	C	-0.373540	0.724961	0.000059
C56	C	-0.396163	0.672685	0.000040
C57	C	-0.441406	0.568127	-0.000014
C58	C	-0.382003	0.568843	-0.000014
C59	C	-0.359381	0.621123	0.000006
C60	C	-0.299994	0.621832	0.000047
N61	N	-0.277368	0.674109	0.000053
C62	C	-0.314141	0.725673	0.000059
C63	C	-0.662324	0.617491	0.000002
C64	C	-0.721722	0.616778	0.000011
C65	C	-0.735869	0.720623	0.000025
C66	C	-0.676470	0.721335	0.000025
C67	C	-0.639698	0.669767	0.000008
C68	C	-0.189404	0.727163	0.000088
C69	C	-0.130002	0.727869	0.000107
C70	C	-0.115860	0.624025	0.000086
C71	C	-0.175257	0.623318	0.000074
C72	C	-0.212028	0.674891	0.000071
O73	O	-0.263215	0.578069	0.000086
O74	O	-0.289433	0.770196	0.000049
C75	C	0.178283	0.667577	0.000029
C76	C	0.241500	0.668343	0.000009
C77	C	0.069389	0.776472	0.000073
C78	C	0.070155	0.839689	0.000072
N79	N	0.074139	0.672327	0.356179
N80	N	0.074128	0.672326	-0.356057
C81	C	0.035215	0.711273	0.428122
C82	C	0.035208	0.711272	0.572005
C83	C	0.113054	0.633375	0.571990
C84	C	0.113057	0.633374	0.428110
C85	C	-0.003704	0.750225	0.356192
C86	C	-0.042631	0.789176	0.428135
C87	C	-0.042638	0.789174	0.572018
C88	C	-0.003718	0.750223	0.643958
H89	H	-0.023984	-0.141954	0.000093
H90	H	-0.017447	0.404515	0.000076
H91	H	-0.072637	0.138359	0.000120
H92	H	0.165712	-0.059864	0.000044
H93	H	-0.765821	0.762610	0.000024
H94	H	0.170964	0.378846	0.000023
H95	H	-0.074321	0.820886	0.369554
C96	C	-0.075403	0.567309	0.000071
H97	H	-0.036788	0.575224	0.000065
H98	H	-0.082230	0.545851	0.079770
H99	H	-0.082225	0.545864	-0.079662
C100	C	0.155870	0.590534	0.348961
H101	H	0.150293	0.596109	0.252970
H102	H	0.193851	0.596496	0.372529
H103	H	0.149869	0.552562	0.372539
H104	H	-0.003701	0.750231	0.239035
H105	H	-0.074337	0.820885	0.630592
C106	C	-0.030886	0.522784	0.000083
H107	H	-0.062125	0.500807	0.000087
H108	H	-0.032761	0.546252	0.079792
H109	H	-0.032765	0.546246	-0.079639
C110	C	-0.003726	0.750217	0.802226
H111	H	0.025026	0.721441	0.834763
H112	H	0.003882	0.786570	0.834786
H113	H	-0.040091	0.742627	0.834768
H114	H	0.144741	0.601663	0.630573
C115	C	-0.385435	0.834033	0.000061
H116	H	-0.415850	0.864637	0.000046
H117	H	-0.362561	0.836479	0.079768
H118	H	-0.362557	0.836468	-0.079664
H119	H	-0.022699	-0.034204	0.000114
C120	C	0.235841	0.212737	0.000072
H121	H	0.266443	0.182322	0.000086
H122	H	0.238289	0.235614	-0.079633
H123	H	0.238275	0.235613	0.079798
H124	H	0.219610	0.098525	0.000080
C125	C	0.179151	-0.178138	0.000049
H126	H	0.171235	-0.216752	0.000067
H127	H	0.200607	-0.171318	-0.079662
H128	H	0.200597	-0.171308	0.079770
H129	H	-0.071347	0.246104	0.000123
H130	H	-0.632386	0.575496	-0.000001
H131	H	-0.111587	0.770443	0.000127
C132	C	-0.746600	0.559271	-0.000001
H133	H	-0.716188	0.528666	-0.000012
H134	H	-0.769484	0.556830	0.079702
H135	H	-0.769469	0.556834	-0.079729
C136	C	-0.510153	0.832538	0.000054
H137	H	-0.548773	0.824637	0.000041
H138	H	-0.503324	0.853986	0.079768
H139	H	-0.503317	0.853986	-0.079664
C140	C	0.187187	0.493063	-0.000019
H141	H	0.180231	0.533706	-0.000029
H142	H	0.208406	0.480420	0.079681
H143	H	0.208398	0.480417	-0.079751
C144	C	-0.229844	0.783892	0.000096
H145	H	-0.207856	0.815123	0.000122
H146	H	-0.253307	0.785781	-0.079615
H147	H	-0.253313	0.785773	0.079816
C148	C	-0.651590	0.778842	0.000035
H149	H	-0.682003	0.809447	0.000031
H150	H	-0.628715	0.781281	0.079742
H151	H	-0.628712	0.781281	-0.079689
C152	C	-0.466278	0.510618	-0.000048
H153	H	-0.435863	0.480016	-0.000069
H154	H	-0.489160	0.508171	0.079655
H155	H	-0.489147	0.508184	-0.079777
C156	C	-0.341557	0.512117	-0.000027
H157	H	-0.363541	0.480883	-0.000030
H158	H	-0.318084	0.510236	-0.079733
H159	H	-0.318098	0.510233	0.079699
H160	H	-0.193677	0.580747	0.000096
