data_functionalizedCrystal
_audit_creation_method	'MofGen! by Chris Wilmer'
_symmetry_space_group_name_H-M	'P1'
_symmetry_Int_Tables_number	1
_symmetry_cell_setting	triclinic
loop_
_symmetry_equiv_pos_as_xyz
  x,y,z
_cell_length_a	17.640280
_cell_length_b	11.169417
_cell_length_c	11.169409
_cell_angle_alpha	89.980487
_cell_angle_beta	78.765642
_cell_angle_gamma	78.802247
loop_
_atom_site_label
_atom_site_type_symbol
_atom_site_fract_x
_atom_site_fract_y
_atom_site_fract_z
Zn1	Zn	-0.314581	1.931508	-0.582042
Zn2	Zn	-0.446784	1.971971	-0.340808
Zn3	Zn	-0.314630	1.730809	-0.381362
Zn4	Zn	-0.446720	1.771356	-0.541473
O5	O	-0.380679	1.851411	-0.461421
O6	O	-0.332124	2.104827	-0.550047
O7	O	-0.429300	1.939946	-0.178223
O8	O	-0.204016	1.723530	-0.441932
O9	O	-0.429253	2.134555	-0.372814
O10	O	-0.203980	1.870983	-0.589371
O11	O	-0.332208	1.762765	-0.208018
O12	O	-0.332146	1.568236	-0.402595
O13	O	-0.429145	1.792635	-0.714819
O14	O	-0.429192	1.598026	-0.520228
O15	O	-0.332063	1.910299	-0.744624
O16	O	-0.557383	1.979262	-0.333477
O17	O	-0.557336	1.831870	-0.480905
C18	C	-0.380668	1.539583	-0.461411
C19	C	-0.380683	1.406188	-0.461429
C20	C	-0.586039	1.914389	-0.398414
C21	C	-0.673892	1.941441	-0.371500
C22	C	-0.962849	1.646392	-0.666324
C23	C	-1.045401	1.671814	-0.640996
C24	C	-1.045384	1.825388	-0.487634
C25	C	-0.962830	1.799983	-0.512954
C26	C	-0.921569	1.710483	-0.602299
C27	C	-0.921550	1.864073	-0.448929
C28	C	-0.839004	1.838666	-0.474243
C29	C	-0.797737	1.749167	-0.563581
C30	C	-0.839022	1.685075	-0.627613
C31	C	-0.962813	1.953567	-0.359578
C32	C	-0.921533	2.017658	-0.295553
C33	C	-0.838985	1.992257	-0.320872
C34	C	-0.797719	1.902758	-0.410211
C35	C	-0.797700	2.056349	-0.256841
C36	C	-0.715153	2.030941	-0.282154
C37	C	-0.715172	1.877351	-0.435525
C38	C	-0.174517	1.788220	-0.524700
C39	C	-0.086663	1.761291	-0.551666
C40	C	-0.380591	1.851476	-0.774491
C41	C	-0.380554	1.851504	-0.907902
C42	C	-0.380690	2.164457	-0.461432
C43	C	-0.380695	2.297858	-0.461437
C44	C	-0.380709	1.851398	-0.149587
C45	C	-0.380524	1.851534	-0.016245
H46	H	-0.730522	1.728474	-0.584182
H47	H	-0.805426	1.612204	-0.700376
C48	C	-1.090810	1.601309	-0.711425
H49	H	-1.145881	1.629249	-0.683547
H50	H	-1.077241	1.614645	-0.796242
H51	H	-1.077329	1.516528	-0.697907
C52	C	-0.669776	1.778910	-0.533809
H53	H	-0.614703	1.772966	-0.539717
H54	H	-0.683351	1.702455	-0.512022
H55	H	-0.683260	1.800596	-0.610333
C56	C	-0.966921	2.116102	-0.197279
H57	H	-0.930511	2.150629	-0.162770
H58	H	-0.999079	2.178265	-0.233373
H59	H	-0.999164	2.080137	-0.135050
C60	C	-0.669743	2.101443	-0.211734
H61	H	-0.706138	2.158393	-0.154908
H62	H	-0.637585	2.045663	-0.169263
H63	H	-0.637497	2.143787	-0.267591
C64	C	-0.917453	1.547951	-0.764609
H65	H	-0.862379	1.542008	-0.770516
H66	H	-0.931027	1.471496	-0.742822
H67	H	-0.930936	1.569637	-0.841133
C68	C	-1.090775	1.923837	-0.389368
H69	H	-1.145849	1.929798	-0.383466
H70	H	-1.077289	1.902177	-0.312847
H71	H	-1.077197	2.000290	-0.411186
H72	H	-0.831307	2.129211	-0.184088
H73	H	-1.030028	1.974254	-0.338974
