data_functionalizedCrystal
_audit_creation_method	'MofGen! by Chris Wilmer'
_symmetry_space_group_name_H-M	'P1'
_symmetry_Int_Tables_number	1
_symmetry_cell_setting	triclinic
loop_
_symmetry_equiv_pos_as_xyz
  x,y,z
_cell_length_a	18.215407
_cell_length_b	19.805399
_cell_length_c	18.215405
_cell_angle_alpha	90.030649
_cell_angle_beta	89.977671
_cell_angle_gamma	89.986379
loop_
_atom_site_label
_atom_site_type_symbol
_atom_site_fract_x
_atom_site_fract_y
_atom_site_fract_z
Zn1	Zn	1.125045	-0.382653	0.293041
Zn2	Zn	1.375045	-0.132653	0.543041
Zn3	Zn	1.625045	0.117347	0.793041
Zn4	Zn	1.875045	0.367347	1.043041
Zn5	Zn	1.124961	-0.269461	0.416113
Zn6	Zn	1.374961	-0.019461	0.666113
Zn7	Zn	1.624961	0.230539	0.916113
Zn8	Zn	1.874961	0.480539	1.166113
Zn9	Zn	1.001985	-0.269484	0.293059
Zn10	Zn	1.251985	-0.019484	0.543059
Zn11	Zn	1.501985	0.230516	0.793059
Zn12	Zn	1.751985	0.480516	1.043059
Zn13	Zn	1.001943	-0.382615	0.416065
Zn14	Zn	1.251943	-0.132615	0.666065
Zn15	Zn	1.501943	0.117385	0.916065
Zn16	Zn	1.751943	0.367385	1.166065
O17	O	1.063484	-0.326053	0.354570
O18	O	1.313484	-0.076053	0.604570
O19	O	1.563484	0.173947	0.854570
O20	O	1.813484	0.423947	1.104570
O21	O	1.228018	-0.367644	0.309380
O22	O	1.478018	-0.117644	0.559380
O23	O	1.728018	0.132356	0.809380
O24	O	1.978018	0.382356	1.059380
O25	O	1.108631	-0.174748	0.399817
O26	O	1.358631	0.075252	0.649817
O27	O	1.608631	0.325252	0.899817
O28	O	1.858631	0.575252	1.149817
O29	O	1.018362	-0.284521	0.190073
O30	O	1.268362	-0.034521	0.440073
O31	O	1.518362	0.215479	0.690073
O32	O	1.768362	0.465479	0.940073
O33	O	1.227956	-0.284483	0.399800
O34	O	1.477956	-0.034483	0.649800
O35	O	1.727956	0.215517	0.899800
O36	O	1.977956	0.465517	1.149800
O37	O	1.108773	-0.367666	0.190059
O38	O	1.358773	-0.117666	0.440059
O39	O	1.608773	0.132334	0.690059
O40	O	1.858773	0.382334	0.940059
O41	O	1.018281	-0.174764	0.309410
O42	O	1.268281	0.075236	0.559410
O43	O	1.518281	0.325236	0.809410
O44	O	1.768281	0.575236	1.059410
O45	O	0.898995	-0.284484	0.309364
O46	O	1.148995	-0.034484	0.559364
O47	O	1.398995	0.215516	0.809364
O48	O	1.648995	0.465516	1.059364
O49	O	1.018290	-0.477336	0.399718
O50	O	1.268290	-0.227336	0.649718
O51	O	1.518290	0.022664	0.899718
O52	O	1.768290	0.272664	1.149718
O53	O	0.898964	-0.367601	0.399736
O54	O	1.148964	-0.117601	0.649736
O55	O	1.398964	0.132399	0.899736
O56	O	1.648964	0.382399	1.149736
O57	O	1.108732	-0.477364	0.309333
O58	O	1.358732	-0.227364	0.559333
O59	O	1.608732	0.022636	0.809333
O60	O	1.858732	0.272636	1.059333
O61	O	1.108590	-0.284446	0.519091
O62	O	1.358590	-0.034446	0.769091
O63	O	1.608590	0.215554	1.019091
O64	O	1.858590	0.465554	1.269091
O65	O	1.018209	-0.367579	0.519056
O66	O	1.268209	-0.117579	0.769056
O67	O	1.518209	0.132421	1.019056
O68	O	1.768209	0.382421	1.269056
C69	C	0.872277	-0.326041	0.354547
C70	C	1.122277	-0.076041	0.604547
C71	C	1.372277	0.173959	0.854547
C72	C	1.622277	0.423959	1.104547
C73	C	0.790478	-0.326052	0.354555
C74	C	1.040478	-0.076052	0.604555
C75	C	1.290478	0.173948	0.854555
C76	C	1.540478	0.423948	1.104555
C77	C	1.063516	-0.502596	0.354519
C78	C	1.313516	-0.252596	0.604519
C79	C	1.563516	-0.002596	0.854519
C80	C	1.813516	0.247404	1.104519
C81	C	1.063530	-0.577828	0.354497
C82	C	1.313530	-0.327828	0.604497
C83	C	1.563530	-0.077828	0.854497
C84	C	1.813530	0.172172	1.104497
C85	C	0.602315	-0.369423	0.307570
C86	C	0.852315	-0.119423	0.557570
C87	C	1.102315	0.130577	0.807570
C88	C	1.352315	0.380577	1.057570
C89	C	0.525457	-0.369425	0.307577
C90	C	0.775457	-0.119425	0.557577
C91	C	1.025457	0.130575	0.807577
C92	C	1.275457	0.380575	1.057577
C93	C	0.525404	-0.282695	0.401590
C94	C	0.775404	-0.032695	0.651590
C95	C	1.025404	0.217305	0.901590
C96	C	1.275404	0.467305	1.151590
C97	C	0.602261	-0.282690	0.401579
C98	C	0.852261	-0.032690	0.651579
C99	C	1.102261	0.217310	0.901579
C100	C	1.352261	0.467310	1.151579
C101	C	0.640715	-0.326058	0.354570
C102	C	0.890715	-0.076058	0.604570
C103	C	1.140715	0.173942	0.854570
C104	C	1.390715	0.423942	1.104570
C105	C	0.486999	-0.326065	0.354587
C106	C	0.736999	-0.076065	0.604587
C107	C	0.986999	0.173935	0.854587
C108	C	1.236999	0.423935	1.104587
C109	C	0.403665	-0.326067	0.354595
C110	C	0.653665	-0.076067	0.604595
C111	C	0.903665	0.173933	0.854595
C112	C	1.153665	0.423933	1.104595
C113	C	0.724054	-0.326055	0.354562
C114	C	0.974054	-0.076055	0.604562
C115	C	1.224054	0.173945	0.854562
C116	C	1.474054	0.423945	1.104562
C117	C	1.016498	-0.613180	0.307417
C118	C	1.266498	-0.363180	0.557417
C119	C	1.516498	-0.113180	0.807417
C120	C	1.766498	0.136820	1.057417
C121	C	1.016508	-0.683869	0.307403
C122	C	1.266508	-0.433869	0.557403
C123	C	1.516508	-0.183869	0.807403
C124	C	1.766508	0.066131	1.057403
C125	C	1.063554	-0.719204	0.354465
C126	C	1.313554	-0.469204	0.604465
C127	C	1.563554	-0.219204	0.854465
C128	C	1.813554	0.030796	1.104465
C129	C	1.110588	-0.683846	0.401550
C130	C	1.360588	-0.433846	0.651550
C131	C	1.610588	-0.183846	0.901550
C132	C	1.860588	0.066154	1.151550
C133	C	1.110574	-0.613159	0.401567
C134	C	1.360574	-0.363159	0.651567
C135	C	1.610574	-0.113159	0.901567
C136	C	1.860574	0.136841	1.151567
C137	C	1.110646	-0.968920	0.401481
C138	C	1.360646	-0.718920	0.651481
C139	C	1.610646	-0.468920	0.901481
C140	C	1.860646	-0.218920	1.151481
C141	C	1.110659	-1.039612	0.401458
C142	C	1.360659	-0.789612	0.651458
C143	C	1.610659	-0.539612	0.901458
C144	C	1.860659	-0.289612	1.151458
C145	C	1.016581	-1.039629	0.307317
C146	C	1.266581	-0.789629	0.557317
C147	C	1.516581	-0.539629	0.807317
C148	C	1.766581	-0.289629	1.057317
C149	C	1.016566	-0.968942	0.307334
C150	C	1.266566	-0.718942	0.557334
C151	C	1.516566	-0.468942	0.807334
C152	C	1.766566	-0.218942	1.057334
C153	C	1.063597	-0.933591	0.354421
C154	C	1.313597	-0.683591	0.604421
C155	C	1.563597	-0.433591	0.854421
C156	C	1.813597	-0.183591	1.104421
C157	C	1.063585	-0.856943	0.354437
C158	C	1.313585	-0.606943	0.604437
C159	C	1.563585	-0.356943	0.854437
C160	C	1.813585	-0.106943	1.104437
C161	C	1.063571	-0.795851	0.354446
C162	C	1.313571	-0.545851	0.604446
C163	C	1.563571	-0.295851	0.854446
C164	C	1.813571	-0.045851	1.104446
C165	C	1.255436	-0.326065	0.354593
C166	C	1.505436	-0.076065	0.604593
C167	C	1.755436	0.173935	0.854593
C168	C	2.005436	0.423935	1.104593
C169	C	1.337235	-0.326071	0.354603
C170	C	1.587235	-0.076071	0.604603
C171	C	1.837235	0.173929	0.854603
C172	C	2.087235	0.423929	1.104603
C173	C	1.063406	-0.326021	0.545776
C174	C	1.313406	-0.076021	0.795776
C175	C	1.563406	0.173979	1.045776
C176	C	1.813406	0.423979	1.295776
C177	C	1.063440	-0.326029	0.627575
C178	C	1.313440	-0.076029	0.877575
C179	C	1.563440	0.173971	1.127575
C180	C	1.813440	0.423971	1.377575
C181	C	1.063494	-0.150197	0.354567
C182	C	1.313494	0.099803	0.604567
C183	C	1.563494	0.349803	0.854567
C184	C	1.813494	0.599803	1.104567
C185	C	1.063623	-0.074966	0.354382
C186	C	1.313623	0.175034	0.604382
C187	C	1.563623	0.425034	0.854382
C188	C	1.813623	0.675034	1.104382
C189	C	1.063582	-0.326101	0.162617
C190	C	1.313582	-0.076101	0.412617
C191	C	1.563582	0.173899	0.662617
C192	C	1.813582	0.423899	0.912617
C193	C	1.063623	-0.326121	0.080818
C194	C	1.313623	-0.076121	0.330818
C195	C	1.563623	0.173879	0.580818
C196	C	1.813623	0.423879	0.830818
C197	C	1.110612	-0.282822	0.815762
C198	C	1.360612	-0.032822	1.065762
C199	C	1.610612	0.217178	1.315762
C200	C	1.860612	0.467178	1.565762
C201	C	1.110645	-0.282838	0.892621
C202	C	1.360645	-0.032838	1.142621
C203	C	1.610645	0.217162	1.392621
C204	C	1.860645	0.467162	1.642621
C205	C	1.016450	-0.369333	0.892625
C206	C	1.266450	-0.119333	1.142625
C207	C	1.516450	0.130667	1.392625
C208	C	1.766450	0.380667	1.642625
C209	C	1.016421	-0.369320	0.815767
C210	C	1.266421	-0.119320	1.065767
C211	C	1.516421	0.130680	1.315767
C212	C	1.766421	0.380680	1.565767
C213	C	1.063501	-0.326060	0.777338
C214	C	1.313501	-0.076060	1.027338
C215	C	1.563501	0.173940	1.277338
C216	C	1.813501	0.423940	1.527338
C217	C	1.063562	-0.326090	0.931054
C218	C	1.313562	-0.076090	1.181054
C219	C	1.563562	0.173910	1.431054
C220	C	1.813562	0.423910	1.681054
C221	C	1.063598	-0.326108	1.014388
C222	C	1.313598	-0.076108	1.264388
C223	C	1.563598	0.173892	1.514388
C224	C	1.813598	0.423892	1.764388
C225	C	1.063467	-0.326043	0.693999
C226	C	1.313467	-0.076043	0.943999
C227	C	1.563467	0.173957	1.193999
C228	C	1.813467	0.423957	1.443999
H229	H	0.633622	-0.404733	0.269290
H230	H	0.883622	-0.154733	0.519290
H231	H	1.133622	0.095267	0.769290
H232	H	1.383622	0.345267	1.019290
F233	F	0.966423	-0.721490	0.257322
F234	F	1.216423	-0.471490	0.507322
F235	F	1.466423	-0.221490	0.757322
F236	F	1.716423	0.028510	1.007322
F237	F	0.484592	-0.415579	0.257551
F238	F	0.734592	-0.165579	0.507551
F239	F	0.984592	0.084421	0.757551
F240	F	1.234592	0.334421	1.007551
H241	H	0.978259	-0.940176	0.269009
H242	H	1.228259	-0.690176	0.519009
H243	H	1.478259	-0.440176	0.769009
H244	H	1.728259	-0.190176	1.019009
F245	F	0.643131	-0.236527	0.451600
F246	F	0.893131	0.013473	0.701600
F247	F	1.143131	0.263473	0.951600
F248	F	1.393131	0.513473	1.201600
F249	F	0.966428	-0.575580	0.257323
F250	F	1.216428	-0.325580	0.507323
F251	F	1.466428	-0.075580	0.757323
F252	F	1.716428	0.174420	1.007323
F253	F	1.160733	-1.077217	0.451551
F254	F	1.410733	-0.827217	0.701551
F255	F	1.660733	-0.577217	0.951551
F256	F	1.910733	-0.327217	1.201551
F257	F	1.160788	-0.236819	0.933512
F258	F	1.410788	0.013181	1.183512
F259	F	1.660788	0.263181	1.433512
F260	F	1.910788	0.513181	1.683512
F261	F	0.966280	-0.415346	0.774871
F262	F	1.216280	-0.165346	1.024871
F263	F	1.466280	0.084654	1.274871
F264	F	1.716280	0.334654	1.524871
F265	F	1.160654	-0.721454	0.451641
F266	F	1.410654	-0.471454	0.701641
F267	F	1.660654	-0.221454	0.951641
F268	F	1.910654	0.028546	1.201641
F269	F	1.160629	-0.575535	0.451678
F270	F	1.410629	-0.325535	0.701678
F271	F	1.660629	-0.075535	0.951678
F272	F	1.910629	0.174465	1.201678
H273	H	0.494085	-0.247388	0.439863
H274	H	0.744085	0.002612	0.689863
H275	H	0.994085	0.252612	0.939863
H276	H	1.244085	0.502612	1.189863
H277	H	0.978284	-1.068421	0.268978
H278	H	1.228284	-0.818421	0.518978
H279	H	1.478284	-0.568421	0.768978
H280	H	1.728284	-0.318421	1.018978
H281	H	1.148934	-0.940146	0.439830
H282	H	1.398934	-0.690146	0.689830
H283	H	1.648934	-0.440146	0.939830
H284	H	1.898934	-0.190146	1.189830
F285	F	0.966345	-0.415370	0.933530
F286	F	1.216345	-0.165370	1.183530
F287	F	1.466345	0.084630	1.433530
F288	F	1.716345	0.334630	1.683530
H289	H	1.148948	-0.247598	0.784475
H290	H	1.398948	0.002402	1.034475
H291	H	1.648948	0.252402	1.284475
H292	H	1.898948	0.502402	1.534475
