data_functionalizedCrystal
_audit_creation_method	'MofGen! by Chris Wilmer'
_symmetry_space_group_name_H-M	'P1'
_symmetry_Int_Tables_number	1
_symmetry_cell_setting	triclinic
loop_
_symmetry_equiv_pos_as_xyz
  x,y,z
_cell_length_a	10.489768
_cell_length_b	10.540553
_cell_length_c	9.616153
_cell_angle_alpha	90.014216
_cell_angle_beta	90.004568
_cell_angle_gamma	84.540921
loop_
_atom_site_label
_atom_site_type_symbol
_atom_site_fract_x
_atom_site_fract_y
_atom_site_fract_z
O1	O	-1.694026	-0.179264	-0.115613
O2	O	-1.322833	-0.196039	-0.115636
O3	O	-1.516889	-0.002948	-0.115572
O4	O	-1.499971	-0.372355	-0.115677
O5	O	-1.516862	-0.002952	0.115719
O6	O	-1.322807	-0.196043	0.115656
O7	O	-1.693999	-0.179268	0.115678
Zn8	Zn	-1.508399	-0.187656	0.152389
Zn9	Zn	-1.508434	-0.187650	-0.152347
O10	O	-1.499944	-0.372359	0.115615
C11	C	-1.275289	-0.194766	0.000008
C12	C	-1.133662	-0.190953	0.000002
C13	C	-0.980814	-0.065823	0.000058
C14	C	-1.058189	-0.128385	0.114074
C15	C	-1.058171	-0.128410	-0.113961
C16	C	-0.958691	-0.246786	0.114151
C17	C	-0.958667	-0.246794	-0.113987
C18	C	-1.035994	-0.309443	0.000057
C19	C	-1.515603	0.044353	0.000084
C20	C	-1.511795	0.185301	0.000114
C21	C	-1.370099	0.222003	0.000104
C22	C	-1.366093	0.368603	-0.000416
C23	C	-1.576477	0.394613	-0.131693
C24	C	-1.579502	0.247848	-0.131809
C25	C	-1.581533	0.247981	0.131222
C26	C	-1.574969	0.394328	0.132959
C27	C	-0.741546	-0.180520	0.000035
C28	C	-0.883181	-0.184273	0.000040
C29	C	-1.501213	0.580338	0.000007
C30	C	-1.504969	0.439384	0.000120
N31	N	-1.508384	-0.187659	0.360364
N32	N	-1.508459	-0.187638	-0.360321
C33	C	-1.404260	-0.290603	0.580700
C34	C	-1.404489	-0.290989	0.419532
C35	C	-1.641748	-0.217821	0.418812
C36	C	-1.641181	-0.218550	0.580029
C37	C	-1.480471	-0.054215	0.580311
C38	C	-1.477410	-0.055079	0.419084
H39	H	-1.101628	-0.078383	-0.210357
H40	H	-0.915397	-0.296757	0.210657
H41	H	-1.665658	-0.315892	0.617591
C42	C	-1.510229	0.436346	-0.264724
H43	H	-1.439004	0.481040	-0.240218
H44	H	-1.569168	0.490459	-0.317932
H45	H	-1.481616	0.363268	-0.318081
C46	C	-1.297833	0.163316	-0.127412
H47	H	-1.212307	0.185950	-0.126615
H48	H	-1.339470	0.194612	-0.209961
H49	H	-1.297122	0.073168	-0.124313
H50	H	-0.915175	-0.296751	-0.210415
C51	C	-1.069064	-0.448691	0.000100
H52	H	-1.034679	-0.490570	0.081172
H53	H	-1.033478	-0.491049	-0.080150
H54	H	-1.159452	-0.450354	-0.000665
C55	C	-1.116930	-0.060840	0.244324
H56	H	-1.098423	0.025655	0.244213
H57	H	-1.081538	-0.102059	0.325300
H58	H	-1.207080	-0.064421	0.243792
C59	C	-1.290541	0.408267	0.127195
H60	H	-1.262021	0.334721	0.179818
H61	H	-1.344273	0.465032	0.183287
H62	H	-1.218691	0.449494	0.097199
H63	H	-1.315679	0.180051	0.094606
C64	C	-1.749148	-0.121180	0.632740
H65	H	-1.793170	-0.081363	0.555620
H66	H	-1.713512	-0.058473	0.687662
H67	H	-1.807390	-0.163650	0.687438
C68	C	-1.351848	-0.015459	0.635292
H69	H	-1.336792	0.065311	0.598221
H70	H	-1.284734	-0.077194	0.607677
H71	H	-1.354676	-0.010571	0.733907
C72	C	-1.290956	0.407058	-0.128817
H73	H	-1.262775	0.333042	-0.180872
H74	H	-1.218918	0.448413	-0.099633
H75	H	-1.344834	0.463431	-0.185183
C76	C	-1.719818	0.216696	-0.139467
H77	H	-1.774721	0.293710	-0.142499
H78	H	-1.739399	0.168965	-0.059780
H79	H	-1.731901	0.168211	-0.220897
H80	H	-1.531237	0.207681	-0.230727
H81	H	-1.678730	0.441946	-0.136211
H82	H	-1.422018	-0.389029	0.621172
H83	H	-1.721180	-0.144875	0.380483
C84	C	-1.675564	-0.347834	0.364226
H85	H	-1.756442	-0.365233	0.400170
H86	H	-1.611951	-0.412564	0.393294
H87	H	-1.679179	-0.345903	0.265527
C88	C	-1.521773	0.190674	0.266228
H89	H	-1.453726	0.127978	0.243893
H90	H	-1.585097	0.152512	0.318050
H91	H	-1.489591	0.256188	0.320016
H92	H	-1.379300	-0.032217	0.380886
H93	H	-1.522933	0.422951	0.230476
H94	H	-1.304857	-0.272728	0.619511
H95	H	-1.676331	0.443341	0.141330
H96	H	-1.422480	-0.389976	0.380926
C97	C	-1.583089	0.049320	0.631845
H98	H	-1.642707	0.011490	0.689263
H99	H	-1.626565	0.088997	0.554327
H100	H	-1.543301	0.111332	0.683772
H101	H	-1.685782	0.225763	0.132508
C102	C	-1.270621	-0.266491	0.366144
H103	H	-1.215605	-0.256218	0.442986
H104	H	-1.276926	-0.191338	0.311091
H105	H	-1.236726	-0.336828	0.311437
H106	H	-1.548272	0.025226	0.378815
H107	H	-0.956101	0.037182	0.000203
