data_functionalizedCrystal
_audit_creation_method	'MofGen! by Chris Wilmer'
_symmetry_space_group_name_H-M	'P1'
_symmetry_Int_Tables_number	1
_symmetry_cell_setting	triclinic
loop_
_symmetry_equiv_pos_as_xyz
  x,y,z
_cell_length_a	9.065215
_cell_length_b	8.559648
_cell_length_c	8.140239
_cell_angle_alpha	89.991711
_cell_angle_beta	89.997810
_cell_angle_gamma	102.603319
loop_
_atom_site_label
_atom_site_type_symbol
_atom_site_fract_x
_atom_site_fract_y
_atom_site_fract_z
O1	O	1.931011	-0.233881	-0.136543
O2	O	2.431011	0.266119	0.363457
O3	O	1.499314	-0.253072	-0.136546
O4	O	1.999314	0.246928	0.363454
O5	O	1.753195	-0.011424	-0.136585
O6	O	2.253195	0.488576	0.363415
O7	O	1.677130	-0.475528	-0.136505
O8	O	2.177130	0.024472	0.363495
O9	O	1.753183	-0.011421	0.136642
O10	O	2.253183	0.488579	0.636642
O11	O	1.499302	-0.253069	0.136681
O12	O	1.999302	0.246931	0.636681
O13	O	1.930999	-0.233878	0.136684
O14	O	2.430999	0.266122	0.636684
Zn15	Zn	1.715148	-0.243473	0.180063
Zn16	Zn	2.215148	0.256527	0.680063
Zn17	Zn	1.715164	-0.243477	-0.179925
Zn18	Zn	2.215164	0.256523	0.320075
O19	O	1.677118	-0.475525	0.136722
O20	O	2.177118	0.024475	0.636722
C21	C	1.444553	-0.251227	0.000066
C22	C	1.944553	0.248773	0.500066
C23	C	1.281402	-0.245715	0.000062
C24	C	1.781402	0.254285	0.500062
C25	C	1.758954	0.048024	0.000015
C26	C	2.258954	0.548024	0.500015
C27	C	1.776112	0.225156	-0.000026
C28	C	2.276112	0.725156	0.499974
C29	C	1.985760	-0.235723	0.000068
C30	C	2.485760	0.264277	0.500068
C31	C	2.148910	-0.241234	0.000061
C32	C	2.648910	0.258766	0.500061
N33	N	1.715148	-0.243469	0.425746
N34	N	2.215148	0.256531	0.925746
C35	C	1.671359	0.465027	0.000073
C36	C	2.171359	0.965027	0.500073
C37	C	1.654200	0.287895	-0.000033
C38	C	2.154200	0.787895	0.499967
N39	N	1.715178	-0.243468	-0.425608
N40	N	2.215178	0.256532	0.074392
H41	H	1.536699	0.206097	-0.000015
H42	H	2.036699	0.706097	0.499985
O43	O	1.916193	0.322966	-0.000110
O44	O	2.416193	0.822966	0.499890
C45	C	1.902725	0.483983	-0.000082
C46	C	2.402725	0.983983	0.499918
H47	H	1.787721	0.491888	-0.051807
H48	H	2.287721	0.991888	0.448193
H49	H	1.913705	0.532015	0.130995
H50	H	2.413705	1.032015	0.630995
C51	C	2.169785	0.574601	-0.043714
C52	C	2.669785	1.074601	0.456286
C53	C	2.028539	0.584311	-0.107257
C54	C	2.528539	1.084311	0.392743
H55	H	2.247395	0.636491	-0.109818
H56	H	2.747395	1.136491	0.390182
H57	H	2.178861	0.466121	-0.043727
H58	H	2.678861	0.966121	0.456273
H59	H	2.178913	0.614625	0.065515
H60	H	2.678913	1.114625	0.565515
H61	H	2.019405	0.544269	-0.216476
H62	H	2.519405	1.044269	0.283524
H63	H	2.019464	0.692787	-0.107265
H64	H	2.519464	1.192787	0.392735
