data_functionalizedCrystal
_audit_creation_method	'MofGen! by Chris Wilmer'
_symmetry_space_group_name_H-M	'P1'
_symmetry_Int_Tables_number	1
_symmetry_cell_setting	triclinic
loop_
_symmetry_equiv_pos_as_xyz
  x,y,z
_cell_length_a	13.897449
_cell_length_b	16.625546
_cell_length_c	16.625539
_cell_angle_alpha	89.969603
_cell_angle_beta	89.980569
_cell_angle_gamma	90.023748
loop_
_atom_site_label
_atom_site_type_symbol
_atom_site_fract_x
_atom_site_fract_y
_atom_site_fract_z
Zn1	Zn	1.474658	-0.320973	-0.455873
Zn2	Zn	1.724658	-0.070973	-0.205873
Zn3	Zn	1.974658	0.179027	0.044127
Zn4	Zn	2.224658	0.429027	0.294127
Zn5	Zn	1.474542	-0.455816	-0.321035
Zn6	Zn	1.724542	-0.205816	-0.071035
Zn7	Zn	1.974542	0.044184	0.178965
Zn8	Zn	2.224542	0.294184	0.428965
Zn9	Zn	1.313351	-0.321004	-0.321056
Zn10	Zn	1.563351	-0.071004	-0.071056
Zn11	Zn	1.813351	0.178996	0.178944
Zn12	Zn	2.063351	0.428996	0.428944
Zn13	Zn	1.313316	-0.455770	-0.455828
Zn14	Zn	1.563316	-0.205770	-0.205828
Zn15	Zn	1.813316	0.044230	0.044172
Zn16	Zn	2.063316	0.294230	0.294172
O17	O	1.393967	-0.388391	-0.388448
O18	O	1.643967	-0.138391	-0.138448
O19	O	1.893967	0.111609	0.111552
O20	O	2.143967	0.361609	0.361552
O21	O	1.609624	-0.338866	-0.437997
O22	O	1.859624	-0.088866	-0.187997
O23	O	2.109624	0.161134	0.062003
O24	O	2.359624	0.411134	0.312003
O25	O	1.453126	-0.437965	-0.208206
O26	O	1.703126	-0.187965	0.041794
O27	O	1.953126	0.062035	0.291794
O28	O	2.203126	0.312035	0.541794
O29	O	1.334812	-0.208167	-0.338968
O30	O	1.584812	0.041833	-0.088968
O31	O	1.834812	0.291833	0.161032
O32	O	2.084812	0.541833	0.411032
O33	O	1.609539	-0.437935	-0.338932
O34	O	1.859539	-0.187935	-0.088932
O35	O	2.109539	0.062065	0.161068
O36	O	2.359539	0.312065	0.411068
O37	O	1.453324	-0.208144	-0.438017
O38	O	1.703324	0.041856	-0.188017
O39	O	1.953324	0.291856	0.061983
O40	O	2.203324	0.541856	0.311983
O41	O	1.334700	-0.338919	-0.208221
O42	O	1.584700	-0.088919	0.041779
O43	O	1.834700	0.161081	0.291779
O44	O	2.084700	0.411081	0.541779
O45	O	1.178365	-0.338875	-0.338924
O46	O	1.428365	-0.088875	-0.088924
O47	O	1.678365	0.161125	0.161076
O48	O	1.928365	0.411125	0.411076
O49	O	1.334752	-0.437857	-0.568666
O50	O	1.584752	-0.187857	-0.318666
O51	O	1.834752	0.062143	-0.068666
O52	O	2.084752	0.312143	0.181334
O53	O	1.178339	-0.437887	-0.437940
O54	O	1.428339	-0.187887	-0.187940
O55	O	1.678339	0.062113	0.062060
O56	O	1.928339	0.312113	0.312060
O57	O	1.453289	-0.338822	-0.568700
O58	O	1.703289	-0.088822	-0.318700
O59	O	1.953289	0.161178	-0.068700
O60	O	2.203289	0.411178	0.181300
O61	O	1.453092	-0.568642	-0.338888
O62	O	1.703092	-0.318642	-0.088888
O63	O	1.953092	-0.068642	0.161112
O64	O	2.203092	0.181358	0.411112
O65	O	1.334639	-0.568608	-0.437920
O66	O	1.584639	-0.318608	-0.187920
O67	O	1.834639	-0.068608	0.062080
O68	O	2.084639	0.181392	0.312080
C69	C	1.143352	-0.388380	-0.388430
C70	C	1.393352	-0.138380	-0.138430
C71	C	1.643352	0.111620	0.111570
C72	C	1.893352	0.361620	0.361570
C73	C	1.036139	-0.388395	-0.388441
C74	C	1.286139	-0.138395	-0.138441
C75	C	1.536139	0.111605	0.111559
C76	C	1.786139	0.361605	0.361559
C77	C	0.839843	-0.388397	-0.388462
C78	C	1.089843	-0.138397	-0.138462
C79	C	1.339843	0.111603	0.111538
C80	C	1.589843	0.361603	0.361538
C81	C	0.949076	-0.388393	-0.388448
C82	C	1.199076	-0.138393	-0.138448
C83	C	1.449076	0.111607	0.111552
C84	C	1.699076	0.361607	0.361552
C85	C	1.393876	-0.597881	-0.388415
C86	C	1.643876	-0.347881	-0.138415
C87	C	1.893876	-0.097881	0.111585
C88	C	2.143876	0.152119	0.361585
C89	C	1.393925	-0.687503	-0.388427
C90	C	1.643925	-0.437503	-0.138427
C91	C	1.893925	-0.187503	0.111573
C92	C	2.143925	0.062497	0.361573
C93	C	1.394093	-1.015678	-0.388511
C94	C	1.644093	-0.765678	-0.138511
C95	C	1.894093	-0.515678	0.111489
C96	C	2.144093	-0.265678	0.361489
C97	C	1.394043	-0.924370	-0.388490
C98	C	1.644043	-0.674370	-0.138490
C99	C	1.894043	-0.424370	0.111510
C100	C	2.144043	-0.174370	0.361510
C101	C	1.394008	-0.851593	-0.388469
C102	C	1.644008	-0.601593	-0.138469
C103	C	1.894008	-0.351593	0.111531
C104	C	2.144008	-0.101593	0.361531
C105	C	1.393960	-0.760279	-0.388448
C106	C	1.643960	-0.510279	-0.138448
C107	C	1.893960	-0.260279	0.111552
C108	C	2.143960	-0.010279	0.361552
C109	C	1.645560	-0.388402	-0.388467
C110	C	1.895560	-0.138402	-0.138467
C111	C	2.145560	0.111598	0.111533
C112	C	2.395560	0.361598	0.361533
C113	C	1.752774	-0.388407	-0.388475
C114	C	2.002774	-0.138407	-0.138475
C115	C	2.252774	0.111593	0.111525
C116	C	2.502774	0.361593	0.361525
C117	C	1.394030	-0.388331	-0.598757
C118	C	1.644030	-0.138331	-0.348757
C119	C	1.894030	0.111669	-0.098757
C120	C	2.144030	0.361669	0.151243
C121	C	1.394056	-0.388305	-0.688378
C122	C	1.644056	-0.138305	-0.438378
C123	C	1.894056	0.111695	-0.188378
C124	C	2.144056	0.361695	0.061622
C125	C	1.394085	-0.178082	-0.388500
C126	C	1.644085	0.071918	-0.138500
C127	C	1.894085	0.321918	0.111500
C128	C	2.144085	0.571918	0.361500
C129	C	1.394135	-0.088461	-0.388522
C130	C	1.644135	0.161539	-0.138522
C131	C	1.894135	0.411539	0.111478
C132	C	2.144135	0.661539	0.361478
C133	C	1.394101	-0.388215	-1.016554
C134	C	1.644101	-0.138215	-0.766554
C135	C	1.894101	0.111785	-0.516554
C136	C	2.144101	0.361785	-0.266554
C137	C	1.394086	-0.388242	-0.925246
C138	C	1.644086	-0.138242	-0.675246
C139	C	1.894086	0.111758	-0.425246
C140	C	2.144086	0.361758	-0.175246
C141	C	1.394079	-0.388260	-0.852469
C142	C	1.644079	-0.138260	-0.602469
C143	C	1.894079	0.111740	-0.352469
C144	C	2.144079	0.361740	-0.102469
C145	C	1.394063	-0.388287	-0.761155
C146	C	1.644063	-0.138287	-0.511155
C147	C	1.894063	0.111713	-0.261155
C148	C	2.144063	0.361713	-0.011155
C149	C	1.393960	-0.388392	-0.178957
C150	C	1.643960	-0.138392	0.071043
C151	C	1.893960	0.111608	0.321043
C152	C	2.143960	0.361608	0.571043
C153	C	1.394120	-0.388191	-0.089337
C154	C	1.644120	-0.138191	0.160663
C155	C	1.894120	0.111809	0.410663
C156	C	2.144120	0.361809	0.660663
