data_functionalizedCrystal
_audit_creation_method	'MofGen! by Chris Wilmer'
_symmetry_space_group_name_H-M	'P1'
_symmetry_Int_Tables_number	1
_symmetry_cell_setting	triclinic
loop_
_symmetry_equiv_pos_as_xyz
  x,y,z
_cell_length_a	9.616153
_cell_length_b	10.723024
_cell_length_c	10.723023
_cell_angle_alpha	84.467709
_cell_angle_beta	90.000902
_cell_angle_gamma	90.006580
loop_
_atom_site_label
_atom_site_type_symbol
_atom_site_fract_x
_atom_site_fract_y
_atom_site_fract_z
O1	O	-0.115632	-1.657193	-0.175022
O2	O	0.384368	-1.157193	0.324978
O3	O	-0.115637	-1.294040	-0.191776
O4	O	0.384363	-0.794040	0.308224
O5	O	-0.115630	-1.483994	-0.001823
O6	O	0.384370	-0.983994	0.498177
O7	O	-0.115639	-1.467239	-0.364975
O8	O	0.384361	-0.967239	0.135025
O9	O	0.115662	-1.483968	-0.001827
O10	O	0.615662	-0.983968	0.498173
O11	O	0.115655	-1.294014	-0.191780
O12	O	0.615655	-0.794014	0.308220
O13	O	0.115659	-1.657167	-0.175026
O14	O	0.615659	-1.157167	0.324974
Zn15	Zn	0.152380	-1.475586	-0.183404
Zn16	Zn	0.652380	-0.975586	0.316596
Zn17	Zn	-0.152357	-1.475621	-0.183398
Zn18	Zn	0.347643	-0.975621	0.316602
O19	O	0.115652	-1.467213	-0.364979
O20	O	0.615652	-0.967213	0.135021
C21	C	0.000009	-1.247528	-0.190558
C22	C	0.500009	-0.747528	0.309442
C23	C	0.000007	-1.108973	-0.186911
C24	C	0.500007	-0.608973	0.313089
N25	N	0.360354	-1.475572	-0.183406
N26	N	0.860354	-0.975572	0.316594
N27	N	-0.360331	-1.475645	-0.183386
N28	N	0.139669	-0.975645	0.316614
C29	C	0.580720	-1.373649	-0.284678
C30	C	1.080720	-0.873649	0.215322
C31	C	0.419553	-1.373873	-0.285057
C32	C	0.919553	-0.873873	0.214943
C33	C	0.418804	-1.606028	-0.212963
C34	C	0.918804	-1.106028	0.287037
C35	C	0.580022	-1.605473	-0.213680
C36	C	1.080022	-1.105473	0.286320
C37	C	0.580268	-1.448338	-0.052246
C38	C	1.080268	-0.948338	0.447754
C39	C	0.419042	-1.445342	-0.053098
C40	C	0.919042	-0.945342	0.446902
C41	C	0.000014	-1.482762	0.044675
C42	C	0.500014	-0.982762	0.544675
C43	C	0.000009	-1.479114	0.183229
C44	C	0.500009	-0.979114	0.683229
C45	C	0.000011	-1.703679	-0.176243
C46	C	0.500011	-1.203679	0.323757
C47	C	0.000004	-1.842234	-0.179891
C48	C	0.500004	-1.342234	0.320109
C49	C	0.000003	-1.033991	-0.293198
C50	C	0.500003	-0.533991	0.206802
C51	C	0.000001	-0.890787	-0.289431
C52	C	0.500001	-0.390787	0.210569
C53	C	0.000005	-1.468445	-0.411477
C54	C	0.500005	-0.968445	0.088523
C55	C	0.000002	-1.472093	-0.550031
C56	C	0.500002	-0.972093	-0.050031
C57	C	0.119822	-1.477475	0.245005
C58	C	0.619822	-0.977475	0.745005
C59	C	0.119819	-1.473705	0.388208
C60	C	0.619819	-0.973705	0.888208
H61	H	0.380037	-1.276939	-0.267283
H62	H	0.880037	-0.776939	0.232717
H63	H	0.222396	-1.472287	0.441333
H64	H	0.722396	-0.972287	0.941333
H65	H	-0.000007	-0.826354	-0.380421
H66	H	0.499993	-0.326354	0.119579
H67	H	-0.102580	-1.473492	0.396850
H68	H	0.397420	-0.973492	0.896850
H69	H	-0.000026	-1.067152	-0.093125
H70	H	0.499974	-0.567152	0.406875
Br71	Br	0.290804	-1.479799	0.156469
Br72	Br	0.790804	-0.979799	0.656469
Br73	Br	0.000008	-1.103682	-0.449524
Br74	Br	0.500008	-0.603682	0.050476
H75	H	-0.102570	-1.477733	0.236359
H76	H	0.397430	-0.977733	0.736359
H77	H	0.621217	-1.390968	-0.381422
H78	H	1.121217	-0.890968	0.118578
Br79	Br	0.645365	-1.211567	-0.255490
Br80	Br	1.145365	-0.711567	0.244510
Br81	Br	-0.000008	-0.949611	-0.028219
Br82	Br	0.499992	-0.449611	0.471781
H83	H	0.617608	-1.629365	-0.309353
H84	H	1.117608	-1.129365	0.190647
Br85	Br	0.355234	-1.403059	-0.447239
Br86	Br	0.855234	-0.903059	0.052761
H87	H	0.619013	-1.683799	-0.142872
H88	H	1.119013	-1.183799	0.357128
Br89	Br	0.354900	-1.735622	-0.093349
Br90	Br	0.854900	-1.235622	0.406651
H91	H	0.621005	-1.355223	-0.024100
H92	H	1.121005	-0.855223	0.475900
Br93	Br	0.351484	-1.646750	-0.370621
Br94	Br	0.851484	-1.146750	0.129379
H95	H	0.378750	-1.514712	0.025895
H96	H	0.878750	-1.014712	0.525895
Br97	Br	0.643798	-1.572286	0.073412
Br98	Br	1.143798	-1.072286	0.573412
Br99	Br	0.355378	-1.285384	-0.015750
Br100	Br	0.855378	-0.785384	0.484250
