data_functionalizedCrystal
_audit_creation_method	'MofGen! by Chris Wilmer'
_symmetry_space_group_name_H-M	'P1'
_symmetry_Int_Tables_number	1
_symmetry_cell_setting	triclinic
loop_
_symmetry_equiv_pos_as_xyz
  x,y,z
_cell_length_a	19.077236
_cell_length_b	19.076808
_cell_length_c	19.076919
_cell_angle_alpha	89.878360
_cell_angle_beta	89.887323
_cell_angle_gamma	94.519737
loop_
_atom_site_label
_atom_site_type_symbol
_atom_site_fract_x
_atom_site_fract_y
_atom_site_fract_z
Zn1	Zn	1.048453	-0.255469	-0.429870
Zn2	Zn	1.381786	0.077865	-0.096536
Zn3	Zn	1.715119	0.411198	0.236797
Zn4	Zn	1.048749	-0.368252	-0.307652
Zn5	Zn	1.382082	-0.034919	0.025682
Zn6	Zn	1.715416	0.298415	0.359015
Zn7	Zn	0.935682	-0.255100	-0.307665
Zn8	Zn	1.269016	0.078234	0.025668
Zn9	Zn	1.602349	0.411567	0.359002
Zn10	Zn	0.926207	-0.377641	-0.419997
Zn11	Zn	1.259540	-0.044308	-0.086664
Zn12	Zn	1.592873	0.289026	0.246669
O13	O	0.989773	-0.314115	-0.366296
O14	O	1.323106	0.019218	-0.032963
O15	O	1.656439	0.352551	0.300371
O16	O	1.146971	-0.266655	-0.417783
O17	O	1.480304	0.066679	-0.084450
O18	O	1.813638	0.400012	0.248884
O19	O	1.037840	-0.349158	-0.209493
O20	O	1.371174	-0.015825	0.123840
O21	O	1.704507	0.317508	0.457174
O22	O	0.954483	-0.156664	-0.328013
O23	O	1.287816	0.176669	0.005320
O24	O	1.621150	0.510002	0.338654
O25	O	1.147189	-0.349516	-0.327990
O26	O	1.480522	-0.016183	0.005343
O27	O	1.813856	0.317151	0.338677
O28	O	1.037335	-0.156935	-0.417796
O29	O	1.370668	0.176398	-0.084463
O30	O	1.704002	0.509731	0.248870
O31	O	0.954771	-0.266026	-0.209503
O32	O	1.288104	0.067308	0.123830
O33	O	1.621437	0.400641	0.457164
O34	O	0.835946	-0.275130	-0.318440
O35	O	1.169280	0.058203	0.014893
O36	O	1.502613	0.391537	0.348226
O37	O	0.938333	-0.365518	-0.519467
O38	O	1.271667	-0.032185	-0.186134
O39	O	1.605000	0.301148	0.147199
O40	O	0.828985	-0.365160	-0.400970
O41	O	1.162318	-0.031827	-0.067637
O42	O	1.495651	0.301506	0.265696
O43	O	1.028147	-0.275759	-0.526720
O44	O	1.361480	0.057575	-0.193387
O45	O	1.694813	0.390908	0.139946
O46	O	1.028652	-0.467982	-0.318417
O47	O	1.361985	-0.134648	0.014916
O48	O	1.695319	0.198685	0.348249
O49	O	0.938621	-0.474880	-0.400957
O50	O	1.271954	-0.141546	-0.067624
O51	O	1.605287	0.191787	0.265709
C52	C	0.806931	-0.321124	-0.358636
C53	C	1.140264	0.012209	-0.025303
C54	C	1.473598	0.345542	0.308031
C55	C	0.728709	-0.324141	-0.355375
C56	C	1.062042	0.009193	-0.022042
C57	C	1.395376	0.342526	0.311292
C58	C	0.691842	-0.282491	-0.400659
C59	C	1.025175	0.050843	-0.067326
C60	C	1.358509	0.384176	0.266008
C61	C	0.618344	-0.285321	-0.397589
C62	C	0.951678	0.048012	-0.064256
C63	C	1.285011	0.381346	0.269078
C64	C	0.581715	-0.329806	-0.349238
C65	C	0.915049	0.003528	-0.015905
C66	C	1.248382	0.336861	0.317429
C67	C	0.618588	-0.371457	-0.303949
C68	C	0.951921	-0.038124	0.029384
C69	C	1.285254	0.295209	0.362717
C70	C	0.692084	-0.368623	-0.307016
C71	C	1.025417	-0.035290	0.026317
C72	C	1.358751	0.298044	0.359650
C73	C	0.361918	-0.342898	-0.335042
C74	C	0.695251	-0.009565	-0.001708
C75	C	1.028584	0.323769	0.331625
C76	C	0.288416	-0.345731	-0.331979
C77	C	0.621749	-0.012398	0.001354
C78	C	0.955083	0.320936	0.334687
C79	C	0.288178	-0.259593	-0.425619
C80	C	0.621511	0.073740	-0.092285
C81	C	0.954845	0.407073	0.241048
C82	C	0.361676	-0.256766	-0.428684
C83	C	0.695009	0.076568	-0.095351
C84	C	1.028342	0.409901	0.237982
C85	C	0.398542	-0.298415	-0.383393
C86	C	0.731875	0.034919	-0.050060
C87	C	1.065208	0.368252	0.283274
N88	N	0.506589	-0.332702	-0.346100
N89	N	0.839922	0.000632	-0.012767
N90	N	1.173256	0.333965	0.320566
N91	N	0.473667	-0.295515	-0.386528
N92	N	0.807000	0.037819	-0.053195
N93	N	1.140334	0.371152	0.280139
C94	C	0.982659	-0.496966	-0.358631
C95	C	1.315992	-0.163633	-0.025297
C96	C	1.649325	0.169700	0.308036
C97	C	0.979679	-0.575189	-0.355377
C98	C	1.313012	-0.241856	-0.022044
C99	C	1.646345	0.091477	0.311289
C100	C	1.021380	-0.612022	-0.400629
C101	C	1.354713	-0.278689	-0.067296
C102	C	1.688047	0.054645	0.266037
C103	C	1.018577	-0.685521	-0.397574
C104	C	1.351911	-0.352188	-0.064240
C105	C	1.685244	-0.018854	0.269093
C106	C	0.974076	-0.722186	-0.349263
C107	C	1.307410	-0.388852	-0.015929
C108	C	1.640743	-0.055519	0.317404
C109	C	0.932370	-0.685348	-0.304009
C110	C	1.265704	-0.352014	0.029325
C111	C	1.599037	-0.018681	0.362658
C112	C	0.935170	-0.611851	-0.307068
C113	C	1.268503	-0.278517	0.026265
C114	C	1.601837	0.054816	0.359599
C115	C	0.961078	-0.941990	-0.335099
C116	C	1.294411	-0.608657	-0.001766
C117	C	1.627745	-0.275324	0.331568
C118	C	0.958283	-1.015493	-0.332042
C119	C	1.291616	-0.682159	0.001292
C120	C	1.624950	-0.348826	0.334625
C121	C	1.044489	-1.015661	-0.425608
C122	C	1.377823	-0.682328	-0.092275
C123	C	1.711156	-0.348994	0.241059
C124	C	1.047288	-0.942162	-0.428660
C125	C	1.380621	-0.608829	-0.095327
C126	C	1.713955	-0.275495	0.238006
C127	C	1.005579	-0.905331	-0.383409
C128	C	1.338913	-0.571998	-0.050076
C129	C	1.672246	-0.238664	0.283258
N130	N	0.971212	-0.797313	-0.346137
N131	N	1.304545	-0.463980	-0.012803
N132	N	1.637878	-0.130647	0.320530
N133	N	1.008441	-0.830205	-0.386539
N134	N	1.341774	-0.496872	-0.053206
N135	N	1.675107	-0.163538	0.280128
C136	C	1.173328	-0.307079	-0.373986
C137	C	1.506662	0.026254	-0.040653
C138	C	1.839995	0.359587	0.292681
C139	C	1.251549	-0.304081	-0.377263
C140	C	1.584882	0.029252	-0.043930
C141	C	1.918216	0.362586	0.289403
C142	C	0.982150	-0.321727	-0.549257
C143	C	1.315483	0.011606	-0.215924
C144	C	1.648817	0.344940	0.117409
C145	C	0.978902	-0.324971	-0.627224
C146	C	1.312235	0.008363	-0.293891
C147	C	1.645568	0.341696	0.039442
C148	C	0.996933	-0.130550	-0.374007
C149	C	1.330266	0.202783	-0.040674
C150	C	1.663600	0.536117	0.292659
C151	C	0.999984	-0.052326	-0.377294
C152	C	1.333318	0.281008	-0.043960
C153	C	1.666651	0.614341	0.289373
C154	C	1.024134	-0.279764	-0.667631
C155	C	1.357468	0.053570	-0.334298
C156	C	1.690801	0.386903	-0.000964
C157	C	1.021074	-0.282809	-0.740889
C158	C	1.354407	0.050524	-0.407556
C159	C	1.687740	0.383857	-0.074222
C160	C	0.972783	-0.331065	-0.773740
C161	C	1.306117	0.002268	-0.440406
C162	C	1.639450	0.335601	-0.107073
C163	C	0.927546	-0.376274	-0.733328
C164	C	1.260879	-0.042941	-0.399994
C165	C	1.594212	0.290392	-0.066661
C166	C	0.930604	-0.373225	-0.660071
C167	C	1.263937	-0.039892	-0.326738
C168	C	1.597270	0.293442	0.006596
C169	C	0.958621	-0.345193	-0.992429
C170	C	1.291954	-0.011860	-0.659095
C171	C	1.625288	0.321473	-0.325762
C172	C	0.955568	-0.348241	-1.065691
C173	C	1.288901	-0.014907	-0.732358
C174	C	1.622235	0.318426	-0.399024
C175	C	1.049095	-0.254774	-1.073247
C176	C	1.382429	0.078559	-0.739914
C177	C	1.715762	0.411893	-0.406581
C178	C	1.052152	-0.251732	-0.999989
C179	C	1.385485	0.081601	-0.666655
C180	C	1.718818	0.414935	-0.333322
C181	C	1.006912	-0.296938	-0.959583
C182	C	1.340245	0.036395	-0.626250
C183	C	1.673578	0.369728	-0.292917
N184	N	0.969655	-0.334181	-0.848621
N185	N	1.302988	-0.000848	-0.515288
N186	N	1.636322	0.332486	-0.181954
N187	N	1.010037	-0.293819	-0.884703
N188	N	1.343370	0.039515	-0.551370
N189	N	1.676704	0.372848	-0.218036
C190	C	0.997408	-0.306481	-0.184050
C191	C	1.330742	0.026853	0.149283
C192	C	1.664075	0.360186	0.482616
C193	C	1.000801	-0.303034	-0.106097
C194	C	1.334134	0.030300	0.227236
C195	C	1.667467	0.363633	0.560569
H196	H	0.721660	-0.246268	-0.440033
H197	H	1.054993	0.087065	-0.106700
H198	H	1.388327	0.420399	0.226633
F199	F	0.579603	-0.418798	-0.252486
F200	F	0.912936	-0.085464	0.080847
F201	F	1.246269	0.247869	0.414180
H202	H	0.722100	-0.402538	-0.270141
H203	H	1.055434	-0.069205	0.063193
H204	H	1.388767	0.264128	0.396526
H205	H	0.258595	-0.381959	-0.292605
H206	H	0.591928	-0.048626	0.040728
H207	H	0.925261	0.284707	0.374061
H208	H	0.922042	-1.045343	-0.292700
H209	H	1.255375	-0.712010	0.040633
H210	H	1.588708	-0.378677	0.373967
H211	H	0.921793	-0.382013	-0.959539
H212	H	1.255127	-0.048680	-0.626206
H213	H	1.588460	0.284653	-0.292873
F214	F	1.088873	-1.054865	-0.473766
F215	F	1.422207	-0.721531	-0.140433
F216	F	1.755540	-0.388198	0.192901
F217	F	1.068748	-0.573007	-0.452046
F218	F	1.402082	-0.239674	-0.118713
F219	F	1.735415	0.093660	0.214621
H220	H	0.588330	-0.251406	-0.434465
H221	H	0.921664	0.081927	-0.101132
H222	H	1.254997	0.415260	0.232201
H223	H	0.258154	-0.225684	-0.462491
H224	H	0.591487	0.107649	-0.129158
H225	H	0.924820	0.440983	0.204175
H226	H	0.893763	-0.410031	-0.627173
H227	H	1.227097	-0.076697	-0.293839
H228	H	1.560430	0.256636	0.039494
H229	H	1.052540	-0.715507	-0.434417
H230	H	1.385874	-0.382173	-0.101084
H231	H	1.719207	-0.048840	0.232249
H232	H	1.083524	-0.912311	-0.467999
H233	H	1.416858	-0.578978	-0.134666
H234	H	1.750191	-0.245645	0.198667
F235	F	0.876149	-0.427630	-0.768292
F236	F	1.209482	-0.094297	-0.434958
F237	F	1.542815	0.239037	-0.101625
H238	H	0.927118	-0.912008	-0.298252
H239	H	1.260452	-0.578675	0.035081
H240	H	1.593785	-0.245341	0.368414
H241	H	0.896134	-0.715206	-0.264675
H242	H	1.229467	-0.381873	0.068658
H243	H	1.562800	-0.048540	0.401991
H244	H	1.063460	-0.240470	-0.640890
H245	H	1.396793	0.092863	-0.307556
H246	H	1.730126	0.426196	0.025777
F247	F	0.400653	-0.209423	-0.480150
F248	F	0.733987	0.123911	-0.146816
F249	F	1.067320	0.457244	0.186517
H250	H	0.901211	-0.581862	-0.270220
H251	H	1.234545	-0.248529	0.063113
H252	H	1.567878	0.084805	0.396446
F253	F	0.401145	-0.387212	-0.286827
F254	F	0.734478	-0.053879	0.046507
F255	F	1.067812	0.279454	0.379840
F256	F	1.069240	-0.234717	-0.783890
F257	F	1.402573	0.098617	-0.450556
F258	F	1.735907	0.431950	-0.117223
H259	H	0.916242	-0.387538	-1.092435
H260	H	1.249575	-0.054205	-0.759102
H261	H	1.582909	0.279128	-0.425769
H262	H	1.091477	-0.212438	-0.973247
H263	H	1.424810	0.120895	-0.639914
H264	H	1.758143	0.454228	-0.306581
F265	F	1.097238	-0.206664	-1.116255
F266	F	1.430571	0.126669	-0.782921
F267	F	1.763904	0.460002	-0.449588
