data_functionalizedCrystal
_audit_creation_method	'MofGen! by Chris Wilmer'
_symmetry_space_group_name_H-M	'P1'
_symmetry_Int_Tables_number	1
_symmetry_cell_setting	triclinic
loop_
_symmetry_equiv_pos_as_xyz
  x,y,z
_cell_length_a	13.635800
_cell_length_b	10.992421
_cell_length_c	17.078481
_cell_angle_alpha	84.925644
_cell_angle_beta	99.306161
_cell_angle_gamma	71.235237
loop_
_atom_site_label
_atom_site_type_symbol
_atom_site_fract_x
_atom_site_fract_y
_atom_site_fract_z
V1	V	2.003266	-0.177461	0.247351
O2	O	1.983353	0.008836	0.242653
O3	O	1.992426	-0.352172	0.245648
O4	O	1.968572	-0.174596	0.355234
O5	O	2.007372	-0.169969	0.132309
V6	V	2.244709	-0.155193	0.233592
O7	O	2.134595	-0.226306	0.277531
O8	O	2.338479	-0.106348	0.203411
O9	O	2.143946	0.019517	0.235295
O10	O	2.323321	-0.341491	0.238289
O11	O	2.299301	-0.162685	0.348634
O12	O	2.167800	-0.158059	0.125709
V13	V	2.503266	-0.177461	0.247351
O14	O	2.483353	0.008836	0.242653
O15	O	2.492426	-0.352172	0.245648
O16	O	2.468572	-0.174596	0.355234
O17	O	2.507372	-0.169969	0.132309
V18	V	2.744709	-0.155193	0.233592
O19	O	2.634595	-0.226306	0.277531
O20	O	2.838479	-0.106348	0.203411
O21	O	2.643946	0.019517	0.235295
O22	O	2.823321	-0.341491	0.238289
O23	O	2.799301	-0.162685	0.348634
O24	O	2.667800	-0.158059	0.125709
C25	C	1.918517	-0.394767	0.241743
C26	C	1.950227	-0.537594	0.241070
C27	C	1.885240	-0.732888	0.235645
C28	C	1.852116	-0.584243	0.236030
C29	C	2.001641	-0.576319	0.167085
C30	C	2.033929	-0.724864	0.166302
C31	C	2.066659	-0.763261	0.317967
C32	C	2.031782	-0.614746	0.319572
C33	C	1.888087	-0.168249	0.381530
C34	C	1.900451	-0.167063	0.469725
C35	C	2.049527	0.062106	0.239197
C36	C	2.007435	0.204932	0.239875
C37	C	2.079956	-0.164409	0.099409
C38	C	2.057211	-0.165589	0.011213
C39	C	2.418517	-0.394767	0.241743
C40	C	2.450227	-0.537594	0.241070
C41	C	2.388087	-0.168249	0.381530
C42	C	2.400451	-0.167063	0.469725
C43	C	1.997416	-0.172919	0.515200
C44	C	2.009027	-0.171803	0.598068
C45	C	1.923674	-0.164840	0.635460
C46	C	1.826700	-0.158980	0.589978
C47	C	1.815088	-0.160086	0.507111
C48	C	1.948626	-0.160835	0.882864
C49	C	1.960246	-0.159733	0.965738
C50	C	2.142572	-0.172554	0.973822
C51	C	2.130953	-0.173668	0.890953
C52	C	2.033980	-0.167800	0.845478
N53	N	1.935541	-0.163704	0.720165
N54	N	2.022112	-0.168928	0.760773
C55	C	2.549527	0.062106	0.239197
C56	C	2.507435	0.204932	0.239875
C57	C	2.579956	-0.164409	0.099409
C58	C	2.557211	-0.165589	0.011213
C59	C	2.497421	-0.172906	0.515185
C60	C	2.509048	-0.171775	0.598053
C61	C	2.423706	-0.164808	0.635459
C62	C	2.326728	-0.158960	0.589991
C63	C	2.315099	-0.160083	0.507125
C64	C	2.460320	-0.172541	-0.026172
C65	C	2.438930	-0.173634	-0.109043
C66	C	2.514436	-0.167786	-0.154525
C67	C	2.611334	-0.160830	-0.117134
C68	C	2.632720	-0.159727	-0.034266
C69	C	2.385240	-0.732888	0.235645
C70	C	2.352116	-0.584243	0.236030
C71	C	2.501641	-0.576319	0.167085
C72	C	2.533929	-0.724864	0.166302
C73	C	2.566659	-0.763261	0.317967
C74	C	2.531782	-0.614746	0.319572
H75	H	1.860890	-0.779245	0.288182
C76	C	2.208433	-0.153676	0.457128
H77	H	2.159283	-0.149382	0.491281
H78	H	2.182219	-0.078592	0.417382
H79	H	2.217989	-0.229126	0.431890
H80	H	2.433189	-0.163896	0.702935
H81	H	2.566923	-0.178582	0.484741
C82	C	2.323587	-0.760712	0.159554
H83	H	2.371991	-0.810057	0.130353
H84	H	2.280632	-0.808316	0.174345
H85	H	2.280113	-0.680909	0.127008
H86	H	1.890735	-0.154059	0.996179
C87	C	2.045871	-0.830006	0.393594
H88	H	2.000877	-0.877904	0.378248
H89	H	2.111023	-0.887265	0.425246
H90	H	2.012846	-0.765997	0.423936
H91	H	2.257247	-0.153289	0.620460
H92	H	2.398826	-0.177303	0.010849
H93	H	2.360890	-0.779245	0.288182
C94	C	2.332348	-0.181304	-0.150155
H95	H	2.290457	-0.184654	-0.111193
H96	H	2.296313	-0.106742	-0.189554
H97	H	2.344525	-0.257273	-0.175071
C98	C	1.823587	-0.760712	0.159554
H99	H	1.871991	-0.810057	0.130353
H100	H	1.780632	-0.808316	0.174345
H101	H	1.780113	-0.680909	0.127008
C102	C	2.694385	-0.154411	-0.167170
H103	H	2.667766	-0.156081	-0.221874
H104	H	2.709228	-0.076344	-0.162502
H105	H	2.757397	-0.226879	-0.148011
C106	C	2.423775	-0.503177	0.088569
H107	H	2.455614	-0.527267	0.044137
H108	H	2.361329	-0.524929	0.084807
H109	H	2.406354	-0.412207	0.088321
H110	H	2.312043	-0.558415	0.288895
H111	H	2.497014	-0.168700	-0.221999
C112	C	2.615732	-0.178230	0.648054
H113	H	2.664893	-0.182565	0.613906
H114	H	2.606205	-0.102801	0.673303
H115	H	2.641925	-0.253332	0.687793
C116	C	2.115688	-0.178252	0.648092
H117	H	2.110379	-0.176582	0.702799
H118	H	2.169110	-0.256331	0.643416
H119	H	2.133369	-0.105799	0.628929
C120	C	2.739311	-0.152103	0.006851
H121	H	2.781214	-0.148794	-0.032109
H122	H	2.727164	-0.076151	0.031774
H123	H	2.775330	-0.226686	0.046245
H124	H	1.995364	-0.590783	0.374309
C125	C	2.268268	-0.513481	0.159890
H126	H	2.254349	-0.575574	0.128597
H127	H	2.204981	-0.463215	0.174688
H128	H	2.293759	-0.458013	0.129397
C129	C	2.476364	-0.748629	0.086952
H130	H	2.433500	-0.667588	0.055499
H131	H	2.526928	-0.794950	0.058257
H132	H	2.433126	-0.797990	0.098148
C133	C	2.652981	-0.780099	0.166137
H134	H	2.681414	-0.711736	0.166542
H135	H	2.687937	-0.843267	0.212424
H136	H	2.663032	-0.819346	0.119324
C137	C	2.249230	-0.178990	1.023844
H138	H	2.243923	-0.177323	1.078551
H139	H	2.302659	-0.257063	1.019166
H140	H	2.266901	-0.106529	1.004679
H141	H	2.604874	-0.584528	0.327835
H142	H	2.066924	-0.178597	0.484762
H143	H	2.122060	-0.765747	0.166185
C144	C	2.599752	-0.535466	0.168228
H145	H	2.610251	-0.494324	0.213944
H146	H	2.660117	-0.610168	0.170529
H147	H	2.589401	-0.476672	0.120918
C148	C	2.686996	-0.818797	0.323209
H149	H	2.701124	-0.861173	0.278057
H150	H	2.715026	-0.750093	0.323792
H151	H	2.719074	-0.879419	0.371006
C152	C	1.797968	-0.549341	0.307438
H153	H	1.796060	-0.626090	0.336470
H154	H	1.836562	-0.509771	0.341760
H155	H	1.727859	-0.490648	0.288132
C156	C	1.841965	-0.154398	0.832853
H157	H	1.792802	-0.150109	0.866995
H158	H	1.815766	-0.079302	0.793116
H159	H	1.851520	-0.229835	0.807602
H160	H	2.551300	-0.812710	0.373949
C161	C	2.130531	-0.573943	0.330733
H162	H	2.123285	-0.509038	0.287467
H163	H	2.137812	-0.540294	0.379866
H164	H	2.191423	-0.647329	0.331733
C165	C	1.708429	-0.153652	0.457089
H166	H	1.659261	-0.149360	0.491226
H167	H	1.682236	-0.078557	0.417352
H168	H	1.717986	-0.229090	0.431838
H169	H	1.757203	-0.153303	0.620429
H170	H	2.495364	-0.590783	0.374309
H171	H	1.991320	-0.742449	0.107559
H172	H	1.790048	-0.531869	0.179667
H173	H	2.074271	-0.546083	0.167938
C174	C	2.186996	-0.818797	0.323209
H175	H	2.201124	-0.861173	0.278057
H176	H	2.215026	-0.750093	0.323792
H177	H	2.219074	-0.879419	0.371006
C178	C	1.923777	-0.503159	0.088572
H179	H	1.859915	-0.448989	0.100717
H180	H	1.954198	-0.451326	0.060046
H181	H	1.909163	-0.564038	0.056521
H182	H	2.200459	-0.179336	0.860514
