data_functionalizedCrystal
_audit_creation_method	'MofGen! by Chris Wilmer'
_symmetry_space_group_name_H-M	'P1'
_symmetry_Int_Tables_number	1
_symmetry_cell_setting	triclinic
loop_
_symmetry_equiv_pos_as_xyz
  x,y,z
_cell_length_a	14.853558
_cell_length_b	14.853569
_cell_length_c	17.766277
_cell_angle_alpha	89.992474
_cell_angle_beta	89.991167
_cell_angle_gamma	83.633349
loop_
_atom_site_label
_atom_site_type_symbol
_atom_site_fract_x
_atom_site_fract_y
_atom_site_fract_z
O1	O	1.196377	0.117666	-0.062587
O2	O	1.696377	0.617666	0.437413
O3	O	0.933916	0.131696	-0.062591
O4	O	1.433916	0.631696	0.437409
O5	O	1.072156	-0.006549	-0.062582
O6	O	1.572156	0.493451	0.437418
O7	O	1.058137	0.255911	-0.062596
O8	O	1.558137	0.755911	0.437404
O9	O	1.072132	-0.006556	0.062607
O10	O	1.572132	0.493444	0.562607
O11	O	0.933892	0.131689	0.062598
O12	O	1.433892	0.631689	0.562598
O13	O	1.196352	0.117659	0.062601
O14	O	1.696352	0.617659	0.562601
Cu15	Cu	1.065120	0.124673	0.074030
Cu16	Cu	1.565120	0.624673	0.574030
Cu17	Cu	1.065149	0.124681	-0.074020
Cu18	Cu	1.565149	0.624681	0.425980
O19	O	1.058112	0.255903	0.062592
O20	O	1.558112	0.755903	0.562592
C21	C	0.900315	0.131058	0.000003
C22	C	1.400315	0.631058	0.500003
C23	C	0.800231	0.129158	0.000002
C24	C	1.300231	0.629158	0.500002
C25	C	0.753224	0.128270	-0.068241
C26	C	1.253224	0.628270	0.431759
C27	C	0.753196	0.128252	0.068244
C28	C	1.253196	0.628252	0.568244
C29	C	0.659162	0.126461	0.068245
C30	C	1.159162	0.626461	0.568245
C31	C	0.612155	0.125574	0.000002
C32	C	1.112155	0.625574	0.500002
C33	C	0.659182	0.126477	-0.068242
C34	C	1.159182	0.626477	0.431758
C35	C	0.612130	0.125549	0.136489
C36	C	1.112130	0.625549	0.636489
C37	C	0.518090	0.123757	0.136493
C38	C	1.018090	0.623757	0.636493
C39	C	0.471081	0.122876	0.068249
C40	C	0.971081	0.622876	0.568249
C41	C	0.518113	0.123780	0.000002
C42	C	1.018113	0.623780	0.500002
C43	C	0.471106	0.122893	-0.068241
C44	C	0.971106	0.622893	0.431759
C45	C	0.518136	0.123804	-0.136489
C46	C	1.018136	0.623804	0.363511
C47	C	0.612173	0.125596	-0.136486
C48	C	1.112173	0.625596	0.363514
C49	C	0.377045	0.121084	0.068245
C50	C	0.877045	0.621084	0.568245
C51	C	0.377064	0.121100	-0.068242
C52	C	0.877064	0.621100	0.431758
C53	C	1.071509	-0.040141	0.000013
C54	C	1.571509	0.459859	0.500013
C55	C	1.069604	-0.140225	0.000014
C56	C	1.569604	0.359775	0.500014
C57	C	0.986593	-0.176599	0.000014
C58	C	1.486593	0.323401	0.500014
C59	C	1.150826	-0.197894	0.000008
C60	C	1.650826	0.302106	0.500008
C61	C	1.149040	-0.291928	0.000005
C62	C	1.649040	0.208072	0.500005
C63	C	1.066029	-0.328302	0.000005
C64	C	1.566029	0.171698	0.500005
C65	C	0.984804	-0.270641	0.000008
C66	C	1.484804	0.229359	0.500008
C67	C	1.230263	-0.349595	-0.000006
C68	C	1.730263	0.150405	0.499994
C69	C	1.228480	-0.443635	-0.000010
C70	C	1.728480	0.056365	0.499990
C71	C	1.145468	-0.480011	-0.000005
C72	C	1.645468	0.019989	0.499995
C73	C	1.064240	-0.422344	-0.000001
C74	C	1.564240	0.077656	0.499999
C75	C	0.981229	-0.458718	-0.000001
C76	C	1.481229	0.041282	0.499999
C77	C	0.900000	-0.401053	0.000009
C78	C	1.400000	0.098947	0.500009
C79	C	0.901792	-0.307017	0.000014
C80	C	1.401792	0.192983	0.500014
C81	C	1.143675	-0.574047	-0.000010
C82	C	1.643675	-0.074047	0.499990
C83	C	0.979439	-0.552760	-0.000006
C84	C	1.479439	-0.052760	0.499994
C85	C	1.229953	0.118296	0.000006
C86	C	1.729953	0.618296	0.500006
C87	C	1.330038	0.120197	0.000002
C88	C	1.830038	0.620197	0.500002
C89	C	1.058760	0.289496	-0.000004
C90	C	1.558760	0.789496	0.499996
C91	C	1.060664	0.389579	-0.000010
C92	C	1.560664	0.889579	0.499990
N93	N	1.065106	0.124666	0.178161
N94	N	1.565106	0.624666	0.678161
N95	N	1.065170	0.124681	-0.178150
N96	N	1.565170	0.624681	0.321850
C97	C	1.126339	0.063482	0.217552
C98	C	1.626339	0.563482	0.717552
C99	C	1.126344	0.063478	0.296353
C100	C	1.626344	0.563478	0.796353
C101	C	1.065125	0.124674	0.335761
C102	C	1.565125	0.624674	0.835761
C103	C	1.003881	0.185863	0.296361
C104	C	1.503881	0.685863	0.796361
C105	C	1.003872	0.185859	0.217560
C106	C	1.503872	0.685859	0.717560
C107	C	1.053416	0.206766	0.460595
C108	C	1.553416	0.706766	0.960595
C109	C	1.053432	0.206771	0.539393
C110	C	1.553432	0.706771	1.039393
C111	C	1.065149	0.124685	0.578808
C112	C	1.565149	0.624685	1.078808
C113	C	1.076870	0.042590	0.539413
C114	C	1.576870	0.542590	1.039413
C115	C	1.076861	0.042587	0.460613
C116	C	1.576861	0.542587	0.960613
C117	C	1.065128	0.124684	0.421207
C118	C	1.565128	0.624684	0.921207
C119	C	1.126391	0.063490	0.703644
C120	C	1.626391	0.563490	1.203644
C121	C	1.126390	0.063485	0.782448
C122	C	1.626390	0.563485	1.282448
C123	C	1.003931	0.185878	0.782453
C124	C	1.503931	0.685878	1.282453
C125	C	1.003928	0.185876	0.703652
C126	C	1.503928	0.685876	1.203652
C127	C	1.065163	0.124683	0.664252
C128	C	1.565163	0.624683	1.164252
H129	H	0.338756	0.120351	0.123812
H130	H	0.838756	0.620351	0.623812
H131	H	1.176250	0.013656	0.814520
H132	H	1.676250	0.513656	1.314520
H133	H	1.176209	0.013652	0.328431
H134	H	1.676209	0.513652	0.828431
N135	N	1.040783	0.295309	0.581880
N136	N	1.540783	0.795309	1.081880
H137	H	1.090930	0.332998	0.568148
H138	H	1.590930	0.832998	1.068148
H139	H	0.980346	0.329320	0.568155
H140	H	1.480346	0.829320	1.068155
H141	H	1.086402	-0.024257	0.428541
H142	H	1.586402	0.475743	0.928541
H143	H	0.911841	-0.582368	0.000001
H144	H	1.411841	-0.082368	0.500001
N145	N	1.089514	-0.045954	0.581911
N146	N	1.589514	0.454046	1.081911
H147	H	1.087738	-0.033499	0.637808
H148	H	1.587738	0.466501	1.137808
H149	H	1.039349	-0.083591	0.568150
H150	H	1.539349	0.416409	1.068150
N151	N	1.319790	-0.310363	-0.000002
N152	N	1.819790	0.189637	0.499998
H153	H	1.370974	-0.361159	-0.000010
H154	H	1.870974	0.138841	0.499990
H155	H	1.324111	-0.271794	-0.046406
H156	H	1.824111	0.228206	0.453594
H157	H	0.791520	0.129015	-0.123807
H158	H	1.291520	0.629015	0.376193
H159	H	1.209811	-0.620993	-0.000025
H160	H	1.709811	-0.120993	0.499975
H161	H	0.791476	0.128967	0.123804
H162	H	1.291476	0.628967	0.623804
N163	N	1.192415	-0.002510	0.661129
N164	N	1.692415	0.497490	1.161129
H165	H	1.256415	0.007978	0.674822
H166	H	1.756415	0.507978	1.174822
H167	H	1.181873	-0.066487	0.674863
H168	H	1.681873	0.433513	1.174863
H169	H	1.176198	0.013653	0.185475
H170	H	1.676198	0.513653	0.685475
H171	H	0.650411	0.126263	0.192048
H172	H	1.150411	0.626263	0.692048
N173	N	0.810468	-0.440288	0.000002
N174	N	1.310468	0.059712	0.500002
H175	H	0.821666	-0.508610	-0.000006
H176	H	1.321666	-0.008610	0.499994
H177	H	0.774914	-0.419222	0.046415
H178	H	1.274914	0.080778	0.546415
N179	N	0.814187	-0.244824	0.000042
N180	N	1.314187	0.255176	0.500042
H181	H	0.827919	-0.179733	0.000048
H182	H	1.327919	0.320267	0.500048
H183	H	0.778006	-0.256592	-0.046360
H184	H	1.278006	0.243408	0.453640
N185	N	0.326375	0.120138	-0.141852
N186	N	0.826375	0.620138	0.358148
H187	H	0.294605	0.063550	-0.144895
H188	H	0.794605	0.563550	0.355105
H189	H	0.280161	0.175272	-0.144853
H190	H	0.780161	0.675272	0.355147
H191	H	0.920459	-0.129644	0.000025
H192	H	1.420459	0.370356	0.500025
N193	N	0.467368	0.122776	0.210098
N194	N	0.967368	0.622776	0.710098
H195	H	0.511496	0.122983	0.253327
H196	H	1.011496	0.622983	0.753327
H197	H	0.421539	0.178198	0.213296
H198	H	0.921539	0.678198	0.713296
H199	H	1.218411	-0.168272	0.000023
H200	H	1.718411	0.331728	0.500023
N201	N	1.316085	-0.505827	-0.000016
N202	N	1.816085	-0.005827	0.499984
H203	H	1.368942	-0.468514	-0.000014
H204	H	1.868942	0.031486	0.499986
H205	H	1.318911	-0.545312	0.046394
H206	H	1.818911	-0.045312	0.546394
H207	H	0.954082	0.235702	0.814539
H208	H	1.454082	0.735702	1.314539
H209	H	0.954070	0.235702	0.671577
H210	H	1.454070	0.735702	1.171577
N211	N	1.040779	0.295307	0.418087
N212	N	1.540779	0.795307	0.918087
H213	H	1.033366	0.347312	0.454998
H214	H	1.533366	0.847312	0.954998
H215	H	1.095551	0.300663	0.385382
H216	H	1.595551	0.800663	0.885382
N217	N	0.937846	0.251864	0.338859
N218	N	1.437846	0.751864	0.838859
H219	H	0.947145	0.242584	0.394757
H220	H	1.447145	0.742584	0.894757
H221	H	0.948331	0.315840	0.325072
H222	H	1.448331	0.815840	0.825072
N223	N	0.937822	0.251851	0.175069
N224	N	1.437822	0.751851	0.675069
H225	H	0.899036	0.290617	0.211988
H226	H	1.399036	0.790617	0.711988
H227	H	0.972377	0.291771	0.142361
H228	H	1.472377	0.791771	0.642361
H229	H	0.650473	0.126336	-0.192050
H230	H	1.150473	0.626336	0.307950
N231	N	0.467434	0.122834	-0.210093
N232	N	0.967434	0.622834	0.289907
H233	H	0.400728	0.121555	-0.199732
H234	H	0.900728	0.621555	0.300268
H235	H	0.476624	0.178996	-0.239897
H236	H	0.976624	0.678996	0.260103
