data_functionalizedCrystal
_audit_creation_method	'MofGen! by Chris Wilmer'
_symmetry_space_group_name_H-M	'P1'
_symmetry_Int_Tables_number	1
_symmetry_cell_setting	triclinic
loop_
_symmetry_equiv_pos_as_xyz
  x,y,z
_cell_length_a	9.065218
_cell_length_b	9.065215
_cell_length_c	22.010155
_cell_angle_alpha	90.000450
_cell_angle_beta	90.016259
_cell_angle_gamma	85.015325
loop_
_atom_site_label
_atom_site_type_symbol
_atom_site_fract_x
_atom_site_fract_y
_atom_site_fract_z
O1	O	-1.960425	-0.216353	-0.050522
O2	O	-1.531140	-0.234100	-0.050522
O3	O	-1.754658	-0.010584	-0.050523
O4	O	-1.736907	-0.439869	-0.050521
O5	O	-1.754587	-0.010584	0.050527
O6	O	-1.531069	-0.234100	0.050528
O7	O	-1.960354	-0.216354	0.050529
Cu8	Cu	-1.745705	-0.225227	0.059755
Cu9	Cu	-1.745789	-0.225226	-0.059748
O10	O	-1.736837	-0.439870	0.050530
C11	C	-1.476118	-0.232394	0.000003
C12	C	-1.312275	-0.227295	0.000003
C13	C	-1.752917	0.044403	0.000001
C14	C	-1.747819	0.208246	-0.000004
C15	C	-2.015376	-0.218059	0.000002
C16	C	-2.179219	-0.223159	-0.000001
N17	N	-1.745658	-0.225227	0.143808
C18	C	-1.738577	0.505144	0.000000
C19	C	-1.743674	0.341301	-0.000012
C20	C	-1.836462	-0.315965	0.563588
C21	C	-1.836478	-0.315963	0.627195
O22	O	-1.913637	-0.393095	0.660088
N23	N	-1.745802	-0.225225	0.659015
C24	C	-1.655115	-0.134472	0.627223
O25	O	-1.577990	-0.057291	0.660129
C26	C	-1.655108	-0.134467	0.563617
C27	C	-1.745779	-0.225222	0.531801
C28	C	-1.927127	-0.406712	0.531772
C29	C	-1.927109	-0.406716	0.468168
C30	C	-1.836425	-0.315973	0.436381
C31	C	-1.745760	-0.225226	0.468198
C32	C	-1.564429	-0.043707	0.531827
C33	C	-1.564431	-0.043709	0.468216
C34	C	-1.655102	-0.134465	0.436400
C35	C	-1.655059	-0.134487	0.372807
N36	N	-1.745735	-0.225225	0.340988
C37	C	-1.836418	-0.315968	0.372775
C38	C	-1.655138	-0.134487	0.760801
C39	C	-1.655137	-0.134498	0.824406
C40	C	-1.836503	-0.315988	0.824374
C41	C	-1.836495	-0.315983	0.760768
C42	C	-1.745815	-0.225225	0.728982
C43	C	-1.836372	-0.315970	0.239204
C44	C	-1.836341	-0.315970	0.175595
C45	C	-1.654982	-0.134475	0.175633
C46	C	-1.655006	-0.134480	0.239236
C47	C	-1.745713	-0.225232	0.271020
O48	O	-1.577943	-0.057390	0.339875
O49	O	-1.913545	-0.393122	0.339862
N50	N	-1.745826	-0.225236	0.856199
H51	H	-1.910235	-0.389868	0.265075
O52	O	-2.015339	-0.494903	0.437361
C53	C	-2.095348	-0.575007	0.479067
H54	H	-2.103130	-0.514034	0.524406
H55	H	-2.036113	-0.689987	0.485840
C56	C	-2.242691	-0.664438	0.398546
C57	C	-2.252260	-0.589544	0.454230
H58	H	-2.339479	-0.673413	0.383224
H59	H	-2.188784	-0.610476	0.370447
H60	H	-2.193322	-0.760248	0.404197
H61	H	-2.301611	-0.493731	0.448576
H62	H	-2.306179	-0.643490	0.482328
O63	O	-1.924660	-0.403926	0.729797
C64	C	-2.024175	-0.315358	0.693006
H65	H	-1.976806	-0.205231	0.683480
H66	H	-2.134784	-0.294318	0.717508
C67	C	-2.105632	-0.531058	0.644283
C68	C	-2.047447	-0.395802	0.632580
H69	H	-2.119994	-0.580680	0.607011
H70	H	-2.038592	-0.590729	0.669072
H71	H	-2.197800	-0.513505	0.664704
H72	H	-1.955273	-0.413357	0.612167
H73	H	-2.114472	-0.336135	0.607787
H74	H	-1.490587	0.030200	0.442339
O75	O	-1.566878	-0.046194	0.270050
C76	C	-1.486803	0.033858	0.228350
H77	H	-1.547754	0.041601	0.182998
H78	H	-1.371791	-0.025317	0.221607
C79	C	-1.397498	0.181268	0.308870
C80	C	-1.472366	0.190789	0.253170
H81	H	-1.388586	0.278068	0.324180
H82	H	-1.451441	0.127332	0.336965
H83	H	-1.301663	0.131950	0.303243
H84	H	-1.568205	0.240089	0.258798
H85	H	-1.418439	0.244736	0.225076
O86	O	-1.924816	-0.404048	0.855191
C87	C	-2.074038	-0.365220	0.839639
H88	H	-2.079604	-0.308090	0.793454
H89	H	-2.127326	-0.286806	0.875428
C90	C	-2.150701	-0.576075	0.893420
C91	C	-2.157538	-0.505918	0.836693
H92	H	-2.202211	-0.662861	0.891605
H93	H	-2.050168	-0.602232	0.903900
H94	H	-2.195106	-0.510715	0.923239
H95	H	-2.113117	-0.571271	0.806877
H96	H	-2.258065	-0.479775	0.826208
H97	H	-2.000980	-0.480606	0.557646
H98	H	-1.581286	-0.060613	0.850306
O99	O	-1.566890	-0.046293	0.730021
C100	C	-1.486894	0.033810	0.771751
H101	H	-1.479119	-0.027166	0.817090
H102	H	-1.546135	0.148788	0.778510
C103	C	-1.339538	0.123255	0.691272
C104	C	-1.329978	0.048356	0.746957
H105	H	-1.242747	0.132234	0.675977
H106	H	-1.393436	0.069293	0.663157
H107	H	-1.388911	0.219062	0.696912
H108	H	-1.280622	-0.047455	0.741314
H109	H	-1.276068	0.102302	0.775070
O110	O	-1.476527	0.044678	0.562698
C111	C	-1.515413	0.193872	0.547132
H112	H	-1.634211	0.206455	0.529632
H113	H	-1.437612	0.229201	0.510218
C114	C	-1.356603	0.276666	0.625125
C115	C	-1.502517	0.292123	0.603636
H116	H	-1.348642	0.337274	0.659979
H117	H	-1.330399	0.176151	0.635611
H118	H	-1.291785	0.306105	0.594359
H119	H	-1.567330	0.262666	0.634400
H120	H	-1.528732	0.392635	0.593157
H121	H	-1.581145	-0.060599	0.149740
H122	H	-1.910176	-0.389881	0.149693
