data_functionalizedCrystal
_audit_creation_method	'MofGen! by Chris Wilmer'
_symmetry_space_group_name_H-M	'P1'
_symmetry_Int_Tables_number	1
_symmetry_cell_setting	triclinic
loop_
_symmetry_equiv_pos_as_xyz
  x,y,z
_cell_length_a	12.827893
_cell_length_b	21.295417
_cell_length_c	12.827885
_cell_angle_alpha	89.961900
_cell_angle_beta	89.980538
_cell_angle_gamma	90.030477
loop_
_atom_site_label
_atom_site_type_symbol
_atom_site_fract_x
_atom_site_fract_y
_atom_site_fract_z
Zn1	Zn	1.597562	-0.250579	-0.590788
Zn2	Zn	2.097562	0.249421	-0.090788
Zn3	Zn	1.597409	-0.355861	-0.416023
Zn4	Zn	2.097409	0.144139	0.083977
Zn5	Zn	1.422803	-0.250610	-0.416062
Zn6	Zn	1.922803	0.249390	0.083938
Zn7	Zn	1.422742	-0.355814	-0.590723
Zn8	Zn	1.922742	0.144186	-0.090723
O9	O	1.510129	-0.303216	-0.503399
O10	O	2.010129	0.196784	-0.003399
O11	O	1.743778	-0.264552	-0.567616
O12	O	2.243778	0.235448	-0.067616
O13	O	1.574209	-0.341932	-0.269792
O14	O	2.074209	0.158068	0.230208
O15	O	1.446074	-0.162516	-0.439283
O16	O	1.946074	0.337484	0.060717
O17	O	1.743665	-0.341902	-0.439217
O18	O	2.243665	0.158098	0.060783
O19	O	1.574469	-0.162494	-0.567654
O20	O	2.074469	0.337506	-0.067654
O21	O	1.445926	-0.264604	-0.269821
O22	O	1.945926	0.235396	0.230179
O23	O	1.276559	-0.264559	-0.439220
O24	O	1.776559	0.235441	0.060780
O25	O	1.445971	-0.341822	-0.736968
O26	O	1.945971	0.158178	-0.236968
O27	O	1.276514	-0.341852	-0.567543
O28	O	1.776514	0.158148	-0.067543
O29	O	1.574410	-0.264506	-0.737016
O30	O	2.074410	0.235494	-0.237016
O31	O	1.574150	-0.443944	-0.439154
O32	O	2.074150	0.056056	0.060846
O33	O	1.445823	-0.443910	-0.567505
O34	O	1.945823	0.056090	-0.067505
C35	C	1.238619	-0.303204	-0.503379
C36	C	1.738619	0.196796	-0.003379
C37	C	1.122466	-0.303214	-0.503396
C38	C	1.622466	0.196786	-0.003396
C39	C	1.070687	-0.341521	-0.566796
C40	C	1.570687	0.158479	-0.066796
C41	C	0.950637	-0.341532	-0.566814
C42	C	1.450637	0.158468	-0.066814
C43	C	1.509992	-0.466768	-0.503341
C44	C	2.009992	0.033232	-0.003341
C45	C	1.510029	-0.536736	-0.503351
C46	C	2.010029	-0.036736	-0.003351
C47	C	1.576908	-0.569600	-0.436587
C48	C	2.076908	-0.069600	0.063413
C49	C	1.576957	-0.635342	-0.436611
C50	C	2.076957	-0.135342	0.063389
C51	C	1.510108	-0.668218	-0.503387
C52	C	2.010108	-0.168218	-0.003387
C53	C	1.443224	-0.635347	-0.570165
C54	C	1.943224	-0.135347	-0.070165
C55	C	1.443185	-0.569606	-0.570147
C56	C	1.943185	-0.069606	-0.070147
N57	N	1.418692	-0.771484	-0.511347
N58	N	1.918692	-0.271484	-0.011347
N59	N	1.418732	-0.833935	-0.511358
N60	N	1.918732	-0.333935	-0.011358
C61	C	1.510225	-0.866293	-0.503447
C62	C	2.010225	-0.366293	-0.003447
N63	N	1.601678	-0.833840	-0.495504
N64	N	2.101678	-0.333840	0.004496
N65	N	1.601636	-0.771383	-0.495488
N66	N	2.101636	-0.271383	0.004512
C67	C	1.510144	-0.739504	-0.503415
C68	C	2.010144	-0.239504	-0.003415
C69	C	1.577163	-0.970442	-0.436705
C70	C	2.077163	-0.470442	0.063295
C71	C	1.577214	-1.036186	-0.436736
C72	C	2.077214	-0.536186	0.063264
C73	C	1.443472	-1.036189	-0.570284
C74	C	1.943472	-0.536189	-0.070284
C75	C	1.443431	-0.970447	-0.570259
C76	C	1.943431	-0.470447	-0.070259
C77	C	1.510275	-0.937577	-0.503464
C78	C	2.010275	-0.437577	-0.003464
C79	C	1.782699	-0.303229	-0.503420
C80	C	2.282699	0.196771	-0.003420
C81	C	1.898852	-0.303234	-0.503428
C82	C	2.398852	0.196766	-0.003428
C83	C	1.510201	-0.303156	-0.775969
C84	C	2.010201	0.196844	-0.275969
C85	C	1.510232	-0.303130	-0.892123
C86	C	2.010232	0.196870	-0.392123
C87	C	1.510295	-0.139026	-0.503480
C88	C	2.010295	0.360974	-0.003480
C89	C	1.510366	-0.069058	-0.503515
C90	C	2.010366	0.430942	-0.003515
C91	C	1.446774	-0.264858	-0.943921
C92	C	1.946774	0.235142	-0.443921
C93	C	1.446804	-0.264831	-1.063972
C94	C	1.946804	0.235169	-0.563972
C95	C	1.510117	-0.303231	-0.231889
C96	C	2.010117	0.196769	0.268111
C97	C	1.510289	-0.303079	-0.115737
C98	C	2.010289	0.196921	0.384263
H99	H	0.906108	-0.374330	-0.621090
H100	H	1.406108	0.125670	-0.121090
C101	C	1.650445	-0.533446	-0.363128
C102	C	2.150445	-0.033446	0.136872
H103	H	1.690291	-0.562439	-0.323376
H104	H	2.190291	-0.062439	0.176624
H105	H	1.610486	-0.507842	-0.317553
H106	H	2.110486	-0.007842	0.182447
H107	H	1.695946	-0.507760	-0.403145
H108	H	2.195946	-0.007760	0.096855
H109	H	0.943374	-0.270439	-0.449143
H110	H	1.443374	0.229561	0.050857
H111	H	1.392418	-0.232115	-0.899392
H112	H	1.892418	0.267885	-0.399392
H113	H	1.077919	-0.270424	-0.449134
H114	H	1.577919	0.229576	0.050866
H115	H	1.388967	-0.943688	-0.624620
H116	H	1.888967	-0.443688	-0.124620
C117	C	1.369613	-0.533451	-0.643585
C118	C	1.869613	-0.033451	-0.143585
H119	H	1.379167	-0.489590	-0.634012
H120	H	1.879167	0.010410	-0.134012
H121	H	1.299414	-0.544271	-0.628237
H122	H	1.799414	-0.044271	-0.128237
H123	H	1.384885	-0.544180	-0.713819
H124	H	1.884885	-0.044180	-0.213819
H125	H	1.631422	-0.662105	-0.382244
H126	H	2.131422	-0.162105	0.117756
C127	C	1.369691	-0.671508	-0.643615
C128	C	1.869691	-0.171508	-0.143615
H129	H	1.379285	-0.715368	-0.634056
H130	H	1.879285	-0.215368	-0.134056
H131	H	1.384938	-0.660692	-0.713839
H132	H	1.884938	-0.160692	-0.213839
H133	H	1.299475	-0.660778	-0.628249
H134	H	1.799475	-0.160778	-0.128249
C135	C	1.650698	-0.934283	-0.363247
C136	C	2.150698	-0.434283	0.136753
H137	H	1.690549	-0.963274	-0.323498
H138	H	2.190549	-0.463274	0.176502
H139	H	1.610736	-0.908683	-0.317669
H140	H	2.110736	-0.408683	0.182331
H141	H	1.696194	-0.908592	-0.403264
H142	H	2.196194	-0.408592	0.096736
C143	C	1.373397	-0.220571	-1.124141
C144	C	1.873397	0.279429	-0.624141
H145	H	1.383038	-0.226365	-1.196935
H146	H	1.883038	0.273635	-0.696935
H147	H	1.388700	-0.178269	-1.106331
H148	H	1.888700	0.321731	-0.606331
H149	H	1.303153	-0.229786	-1.106290
H150	H	1.803153	0.270214	-0.606290
H151	H	1.631682	-1.062942	-0.382371
H152	H	2.131682	-0.562942	0.117629
C153	C	1.583690	-0.347348	-1.055579
C154	C	2.083690	0.152652	-0.555579
H155	H	1.623527	-0.371339	-1.103629
H156	H	2.123527	0.128661	-0.603629
H157	H	1.543639	-0.374760	-1.012981
H158	H	2.043639	0.125240	-0.512981
H159	H	1.629203	-0.323253	-1.013018
H160	H	2.129203	0.176747	-0.513018
H161	H	1.115234	-0.374306	-0.621065
H162	H	1.615234	0.125694	-0.121065
H163	H	1.389047	-1.062957	-0.624660
H164	H	1.889047	-0.562957	-0.124660
H165	H	1.564582	-0.335876	-0.936653
H166	H	2.064582	0.164124	-0.436653
