data_functionalizedCrystal
_audit_creation_method	'MofGen! by Chris Wilmer'
_symmetry_space_group_name_H-M	'P1'
_symmetry_Int_Tables_number	1
_symmetry_cell_setting	triclinic
loop_
_symmetry_equiv_pos_as_xyz
  x,y,z
_cell_length_a	21.295417
_cell_length_b	12.759395
_cell_length_c	12.759387
_cell_angle_alpha	90.017738
_cell_angle_beta	90.039692
_cell_angle_gamma	90.030352
loop_
_atom_site_label
_atom_site_type_symbol
_atom_site_fract_x
_atom_site_fract_y
_atom_site_fract_z
Zn1	Zn	-0.250571	1.606136	0.593918
Zn2	Zn	-0.355856	1.605983	0.418215
Zn3	Zn	-0.250605	1.430439	0.418259
Zn4	Zn	-0.355806	1.430378	0.593857
O5	O	-0.303210	1.518234	0.506062
O6	O	-0.264545	1.753137	0.570618
O7	O	-0.341929	1.582659	0.271200
O8	O	-0.162511	1.453835	0.441604
O9	O	-0.341897	1.753024	0.441530
O10	O	-0.162486	1.582919	0.570660
O11	O	-0.264602	1.453687	0.271232
O12	O	-0.264553	1.283410	0.441545
O13	O	-0.341812	1.453731	0.740887
O14	O	-0.341844	1.283365	0.570557
O15	O	-0.264496	1.582859	0.740931
O16	O	-0.443939	1.582599	0.441471
O17	O	-0.443902	1.453583	0.570514
C18	C	-0.303197	1.245266	0.506049
C19	C	-0.303207	1.128490	0.506069
C20	C	-0.222790	1.128587	0.640706
C21	C	-0.182589	1.073775	0.708033
C22	C	-0.182601	0.964053	0.708046
C23	C	-0.222816	0.909141	0.640722
C24	C	-0.263016	0.963954	0.573396
C25	C	-0.263002	1.073678	0.573392
C26	C	-0.343429	0.963856	0.438755
C27	C	-0.343422	1.073578	0.438745
C28	C	-0.383644	0.908944	0.371432
C29	C	-0.423849	0.963756	0.304108
C30	C	-0.423837	1.073484	0.304099
C31	C	-0.383623	1.128390	0.371419
C32	C	-0.466761	1.518096	0.506004
C33	C	-0.536730	1.518133	0.506014
C34	C	-0.569594	1.585372	0.438890
C35	C	-0.635337	1.585421	0.438914
C36	C	-0.668212	1.518213	0.506051
C37	C	-0.635339	1.450970	0.573188
C38	C	-0.569598	1.450930	0.573170
N39	N	-0.771477	1.426306	0.514056
N40	N	-0.833928	1.426347	0.514067
C41	C	-0.866287	1.518331	0.506111
N42	N	-0.833834	1.610275	0.498123
N43	N	-0.771377	1.610232	0.498106
C44	C	-0.739497	1.518249	0.506078
C45	C	-0.970437	1.585628	0.439009
C46	C	-1.036181	1.585679	0.439040
C47	C	-1.036182	1.451219	0.573308
C48	C	-0.970439	1.451177	0.573283
C49	C	-0.937571	1.518380	0.506127
C50	C	-0.139019	1.518401	0.506144
C51	C	-0.069051	1.518472	0.506178
C52	C	-0.303145	1.518305	0.780096
C53	C	-0.303117	1.518336	0.896873
C54	C	-0.303223	1.792267	0.506076
C55	C	-0.303228	1.909044	0.506082
C56	C	-0.303229	1.518223	0.233095
C57	C	-0.303079	1.518397	0.116319
C58	C	-0.222590	1.384046	0.896925
C59	C	-0.182314	1.316921	0.951812
C60	C	-0.182291	1.316953	1.061533
C61	C	-0.222550	1.384114	1.116371
C62	C	-0.262826	1.451240	1.061484
C63	C	-0.262843	1.451203	0.951760
C64	C	-0.343355	1.585522	1.061432
C65	C	-0.343376	1.585497	0.951710
C66	C	-0.383614	1.652684	1.116269
C67	C	-0.423888	1.719816	1.061382
C68	C	-0.423909	1.719783	0.951654
C69	C	-0.383652	1.652623	0.896823
H70	H	-0.383649	0.819603	0.371444
H71	H	-1.062938	1.640440	0.384381
N72	N	-0.383678	1.652586	0.778481
H73	H	-0.372121	1.724664	0.752057
H74	H	-0.352070	1.599809	0.752158
N75	N	-0.222818	0.790800	0.640715
H76	H	-0.191245	0.764409	0.693574
H77	H	-0.266036	0.764422	0.659855
H78	H	-0.662110	1.396250	0.627853
N79	N	-1.071630	1.378736	0.645731
H80	H	-1.118265	1.388965	0.635560
H81	H	-1.060189	1.303703	0.629313
H82	H	-0.149537	1.262237	0.907151
H83	H	-0.542839	1.396175	0.627832
N84	N	-0.934987	1.378647	0.645674
H85	H	-0.965787	1.336076	0.688208
H86	H	-0.907760	1.330036	0.602854
H87	H	-0.383606	1.217731	0.371412
N88	N	-0.467223	0.904539	0.231503
H89	H	-0.457389	0.923615	0.156467
H90	H	-0.461109	0.826733	0.241809
N91	N	-0.222607	1.384027	0.778583
H92	H	-0.190991	1.331301	0.752173
H93	H	-0.265812	1.364688	0.752202
N94	N	-0.383586	1.652715	1.234611
H95	H	-0.372019	1.724810	1.261046
H96	H	-0.426770	1.633312	1.260934
N97	N	-0.467192	1.132601	0.231473
H98	H	-0.492666	1.081162	0.188829
H99	H	-0.496354	1.178125	0.274135
H100	H	-0.456666	1.774490	1.106039
N101	N	-0.222789	1.246929	0.640708
H102	H	-0.191217	1.273398	0.693574
H103	H	-0.211180	1.273264	0.568639
N104	N	-0.138857	1.244549	1.120741
H105	H	-0.113357	1.201995	1.069358
H106	H	-0.109722	1.287365	1.166284
H107	H	-0.542835	1.640095	0.384211
N108	N	-0.670795	1.657946	0.366515
H109	H	-0.639997	1.700514	0.323972
H110	H	-0.698118	1.615215	0.317871
H111	H	-0.149862	0.919426	0.762863
H112	H	-0.943675	1.640353	0.384330
H113	H	-0.222534	1.384125	1.205712
N114	N	-0.467355	1.792177	0.892459
H115	H	-0.492852	1.834721	0.943853
H116	H	-0.441748	1.840821	0.846953
H117	H	-0.149846	1.118497	0.762844
