data_functionalizedCrystal
_audit_creation_method	'MofGen! by Chris Wilmer'
_symmetry_space_group_name_H-M	'P1'
_symmetry_Int_Tables_number	1
_symmetry_cell_setting	triclinic
loop_
_symmetry_equiv_pos_as_xyz
  x,y,z
_cell_length_a	11.792241
_cell_length_b	14.421503
_cell_length_c	11.792241
_cell_angle_alpha	89.995827
_cell_angle_beta	84.193416
_cell_angle_gamma	90.003481
loop_
_atom_site_label
_atom_site_type_symbol
_atom_site_fract_x
_atom_site_fract_y
_atom_site_fract_z
O1	O	1.506916	0.077022	0.155552
O2	O	1.176575	0.077044	0.171585
O3	O	1.349761	0.077026	-0.001602
O4	O	1.333729	0.077040	0.328739
O5	O	1.349733	-0.077198	-0.001576
O6	O	1.176546	-0.077180	0.171611
O7	O	1.506887	-0.077201	0.155578
Cu8	Cu	1.341714	-0.091272	0.163597
Cu9	Cu	1.341748	0.091115	0.163566
O10	O	1.333700	-0.077184	0.328765
C11	C	1.134269	-0.000065	0.170591
C12	C	1.008255	-0.000057	0.167576
N13	N	1.341698	-0.219554	0.163618
C14	C	0.777543	-0.000084	0.162034
C15	C	0.905928	-0.000069	0.165113
C16	C	1.261602	-0.469199	0.243663
C17	C	1.364297	-0.531008	0.266324
C18	C	1.341726	-0.408715	0.163591
C19	C	1.239057	-0.531001	0.140956
C20	C	1.341743	-0.591437	0.163567
C21	C	1.444473	-0.469163	0.186303
C22	C	1.319165	-0.469150	0.060891
C23	C	1.421934	-0.530931	0.083508
C24	C	1.341714	-0.303454	0.163607
C25	C	1.341766	-0.696695	0.163550
C26	C	1.549192	-0.000090	0.156572
C27	C	1.675206	-0.000092	0.159587
C28	C	1.348740	-0.000086	-0.043880
C29	C	1.345726	-0.000084	-0.169894
N30	N	1.341772	0.219396	0.163537
C31	C	1.340183	-0.000069	-0.400606
C32	C	1.343262	-0.000077	-0.272221
C33	C	1.334721	-0.000070	0.371043
C34	C	1.337736	-0.000065	0.497057
H35	H	1.193914	-0.442094	0.311433
H36	H	1.489774	-0.557866	0.015780
H37	H	1.383396	-0.558178	0.353165
C38	C	1.293324	-0.432405	-0.056386
C39	C	1.179596	-0.456755	-0.102890
C40	C	1.153740	-0.420007	-0.220166
C41	C	1.241611	-0.358909	-0.290938
C42	C	1.355347	-0.334557	-0.244436
C43	C	1.381203	-0.371305	-0.127160
H44	H	1.114541	-0.501986	-0.050499
H45	H	1.069545	-0.438035	-0.254590
H46	H	1.222471	-0.331706	-0.377753
H47	H	1.420402	-0.289326	-0.296826
H48	H	1.465398	-0.353277	-0.092736
H49	H	1.531325	-0.442114	0.205540
C50	C	1.121755	-0.567695	0.115096
C51	C	1.014387	-0.543329	0.194913
C52	C	0.897084	-0.580020	0.169063
C53	C	0.887148	-0.641077	0.063396
C54	C	0.994520	-0.665446	-0.016428
C55	C	1.111824	-0.628755	0.009422
H56	H	1.021739	-0.498128	0.273140
H57	H	0.817600	-0.561980	0.228155
H58	H	0.800313	-0.668238	0.044261
H59	H	0.987168	-0.710647	-0.094655
H60	H	1.191307	-0.646795	-0.049670
