data_functionalizedCrystal
_audit_creation_method	'MofGen! by Chris Wilmer'
_symmetry_space_group_name_H-M	'P1'
_symmetry_Int_Tables_number	1
_symmetry_cell_setting	triclinic
loop_
_symmetry_equiv_pos_as_xyz
  x,y,z
_cell_length_a	12.645331
_cell_length_b	12.645330
_cell_length_c	18.215399
_cell_angle_alpha	89.974416
_cell_angle_beta	89.980457
_cell_angle_gamma	90.012860
loop_
_atom_site_label
_atom_site_type_symbol
_atom_site_fract_x
_atom_site_fract_y
_atom_site_fract_z
Zn1	Zn	1.620734	-0.422040	-0.416134
Zn2	Zn	1.620642	-0.599323	-0.293074
Zn3	Zn	1.443459	-0.422075	-0.293081
Zn4	Zn	1.443446	-0.599262	-0.416098
O5	O	1.532070	-0.510675	-0.354597
O6	O	1.769069	-0.445568	-0.399822
O7	O	1.597104	-0.575851	-0.190090
O8	O	1.467019	-0.273723	-0.309422
O9	O	1.769001	-0.575817	-0.309410
O10	O	1.597262	-0.273697	-0.399829
O11	O	1.466929	-0.445628	-0.190096
O12	O	1.295110	-0.445569	-0.309387
O13	O	1.466997	-0.575713	-0.519087
O14	O	1.295101	-0.575747	-0.399768
O15	O	1.597250	-0.445508	-0.519113
O16	O	1.597092	-0.747662	-0.309375
O17	O	1.466907	-0.747618	-0.399761
C18	C	1.256640	-0.510656	-0.354575
C19	C	1.138810	-0.510673	-0.354583
C20	C	1.093899	-0.428650	-0.297818
C21	C	0.971339	-0.428347	-0.298012
C22	C	0.970972	-0.480884	-0.432271
C23	C	1.093570	-0.480271	-0.431917
C24	C	1.093607	-0.622730	-0.334393
C25	C	0.970999	-0.622145	-0.332709
C26	C	1.532017	-0.786105	-0.354579
C27	C	1.532091	-0.903935	-0.354596
C28	C	1.613859	-1.071483	-0.297619
C29	C	1.614125	-0.948923	-0.297759
C30	C	1.562385	-0.948320	-0.432171
C31	C	1.563034	-1.070918	-0.431869
C32	C	1.419998	-1.071262	-0.334763
C33	C	1.420535	-0.948657	-0.333024
C34	C	1.808575	-0.510695	-0.354619
C35	C	1.926405	-0.510704	-0.354628
C36	C	1.532132	-0.510600	-0.546550
C37	C	1.532159	-0.510568	-0.628349
C38	C	1.532152	-0.234170	-0.354630
C39	C	1.532187	-0.116340	-0.354645
C40	C	1.600021	-0.442679	-0.893421
C41	C	1.600008	-0.442708	-0.816562
C42	C	1.464383	-0.578303	-0.816525
C43	C	1.464402	-0.578279	-0.893382
C44	C	1.532219	-0.510461	-0.931828
C45	C	1.532188	-0.510514	-0.778112
C46	C	1.532174	-0.510545	-0.694778
C47	C	1.532235	-0.510431	-1.015167
C48	C	1.532069	-0.510673	-0.163390
C49	C	1.532248	-0.510407	-0.081592
H50	H	0.941202	-0.446952	-0.240450
F51	F	1.589403	-1.110113	-0.222215
H52	H	1.409189	-0.633481	-0.924654
F53	F	1.672196	-0.370499	-0.934336
F54	F	1.672174	-0.370567	-0.775690
F55	F	1.132372	-0.452659	-0.222327
H56	H	1.124717	-0.346088	-0.311050
H57	H	0.942021	-0.345322	-0.311420
H58	H	1.409167	-0.633517	-0.785212
H59	H	1.123286	-0.537440	-0.475676
F60	F	0.932942	-0.556594	-0.489092
F61	F	1.130968	-0.373227	-0.454224
H62	H	1.595172	-0.918918	-0.240239
F63	F	0.930861	-0.375028	-0.454979
H64	H	0.941867	-0.644639	-0.275567
F65	F	1.133955	-0.658320	-0.261619
H66	H	1.122648	-0.683836	-0.375739
F67	F	1.721890	-1.111645	-0.314614
F68	F	0.931055	-0.706256	-0.382803
F69	F	1.722736	-0.910479	-0.314950
F70	F	1.486994	-0.910239	-0.489195
F71	F	1.488649	-1.109701	-0.489291
F72	F	1.670220	-1.108189	-0.453879
F73	F	1.668361	-0.908081	-0.454551
H74	H	1.392449	-1.102269	-0.279181
H75	H	1.397693	-0.919659	-0.275935
F76	F	1.340458	-1.109181	-0.389049
H77	H	1.356401	-0.918045	-0.371512
