data_functionalizedCrystal
_audit_creation_method	'MofGen! by Chris Wilmer'
_symmetry_space_group_name_H-M	'P1'
_symmetry_Int_Tables_number	1
_symmetry_cell_setting	triclinic
loop_
_symmetry_equiv_pos_as_xyz
  x,y,z
_cell_length_a	12.827892
_cell_length_b	12.827893
_cell_length_c	12.827885
_cell_angle_alpha	90.021189
_cell_angle_beta	89.970214
_cell_angle_gamma	89.986589
loop_
_atom_site_label
_atom_site_type_symbol
_atom_site_fract_x
_atom_site_fract_y
_atom_site_fract_z
Zn1	Zn	-0.416038	-1.597670	-0.590902
Zn2	Zn	-0.590815	-1.597564	-0.416162
Zn3	Zn	-0.416083	-1.422911	-0.416170
Zn4	Zn	-0.590731	-1.422896	-0.590857
O5	O	-0.503417	-1.510260	-0.503523
O6	O	-0.439238	-1.743892	-0.567738
O7	O	-0.567690	-1.574358	-0.269927
O8	O	-0.269841	-1.446144	-0.439371
O9	O	-0.567647	-1.743814	-0.439358
O10	O	-0.269808	-1.574538	-0.567746
O11	O	-0.439315	-1.446041	-0.269933
O12	O	-0.439234	-1.276673	-0.439327
O13	O	-0.567504	-1.446118	-0.737099
O14	O	-0.567548	-1.276662	-0.567668
O15	O	-0.439157	-1.574524	-0.737132
O16	O	-0.737040	-1.574343	-0.439314
O17	O	-0.736978	-1.446016	-0.567661
C18	C	-0.503387	-1.238750	-0.503494
C19	C	-0.503400	-1.122597	-0.503506
C20	C	-0.566991	-1.070835	-0.566914
C21	C	-0.567005	-0.950784	-0.566928
C22	C	-0.774927	-1.510195	-0.503504
C23	C	-0.891080	-1.510262	-0.503531
C24	C	-0.942860	-1.573838	-0.440092
C25	C	-1.062910	-1.573910	-0.440118
C26	C	-0.230846	-1.510354	-0.503564
C27	C	-0.114693	-1.510394	-0.503582
C28	C	-0.503316	-1.510331	-0.776093
C29	C	-0.503274	-1.510362	-0.892246
C30	C	-0.503438	-0.782830	-0.503544
C31	C	-0.503426	-0.898983	-0.503532
C32	C	-0.439751	-1.573907	-0.944048
C33	C	-0.439705	-1.573940	-1.064098
C34	C	-0.503441	-1.510249	-0.232013
C35	C	-0.503190	-1.510422	-0.115860
H36	H	-0.621451	-0.906270	-0.621211
H37	H	-0.898317	-1.628220	-0.385762
Br38	Br	-0.593851	-1.419745	-1.041625
Br39	Br	-1.137123	-1.664627	-0.349578
Br40	Br	-0.412662	-1.048337	-0.413047
H41	H	-0.385325	-1.628348	-1.108646
Br42	Br	-1.040488	-1.419657	-0.594107
H43	H	-0.557617	-1.455975	-0.936774
H44	H	-0.621419	-1.115396	-0.621193
H45	H	-0.448984	-0.943491	-0.449239
Br46	Br	-0.349127	-1.664518	-0.869843
H47	H	-0.935625	-1.455890	-0.557868
