data_functionalizedCrystal
_audit_creation_method	'MofGen! by Chris Wilmer'
_symmetry_space_group_name_H-M	'P1'
_symmetry_Int_Tables_number	1
_symmetry_cell_setting	triclinic
loop_
_symmetry_equiv_pos_as_xyz
  x,y,z
_cell_length_a	10.723024
_cell_length_b	10.723024
_cell_length_c	9.798715
_cell_angle_alpha	90.002251
_cell_angle_beta	89.997785
_cell_angle_gamma	95.532131
loop_
_atom_site_label
_atom_site_type_symbol
_atom_site_fract_x
_atom_site_fract_y
_atom_site_fract_z
O1	O	-0.175025	1.657187	0.113450
O2	O	-0.191778	1.294034	0.113460
O3	O	-0.001825	1.483987	0.113450
O4	O	-0.364978	1.467234	0.113460
O5	O	-0.001824	1.483974	-0.113532
O6	O	-0.191777	1.294021	-0.113522
O7	O	-0.175023	1.657174	-0.113532
Zn8	Zn	-0.183400	1.475595	-0.149565
Zn9	Zn	-0.183402	1.475613	0.149493
O10	O	-0.364976	1.467221	-0.113522
C11	C	-0.190558	1.247528	-0.000029
C12	C	-0.186911	1.108974	-0.000025
C13	C	0.044675	1.482762	-0.000040
C14	C	0.183229	1.479114	-0.000035
C15	C	-0.176243	1.703680	-0.000040
C16	C	-0.179891	1.842234	-0.000035
C17	C	-0.411477	1.468447	-0.000029
C18	C	-0.550031	1.472094	-0.000025
C19	C	0.258212	1.585401	-0.000036
C20	C	0.401415	1.581634	-0.000031
N21	N	-0.183398	1.475592	-0.353665
C22	C	-0.073603	1.917217	-0.000036
C23	C	-0.077371	2.060420	-0.000031
C24	C	-0.103469	1.555546	-0.578601
C25	C	-0.103471	1.555529	-0.421439
N26	N	-0.183394	1.475625	0.353593
H27	H	0.216390	1.679187	-0.000047
C28	C	0.362934	1.349160	-0.000022
N29	N	0.297370	1.256566	-0.000017
C30	C	-0.275840	1.383168	-0.567651
N31	N	-0.345472	1.313525	-0.508334
H32	H	0.465848	1.672624	-0.000038
C33	C	0.053102	1.860723	-0.000045
N34	N	0.148540	1.818175	-0.000051
H35	H	-0.277906	2.044549	-0.000019
C36	C	-0.306597	1.898727	-0.000030
N37	N	-0.402035	1.941276	-0.000024
C38	C	0.045558	2.147462	-0.000036
N39	N	0.138152	2.213027	-0.000043
C40	C	-0.011018	1.647961	-0.342667
N41	N	0.058622	1.717582	-0.283332
C42	C	-0.011022	1.648002	-0.657357
N43	N	0.058614	1.717641	-0.716674
H44	H	0.225051	1.385328	-0.000023
H45	H	-0.251824	1.407161	-0.411966
