data_functionalizedCrystal
_audit_creation_method	'MofGen! by Chris Wilmer'
_symmetry_space_group_name_H-M	'P1'
_symmetry_Int_Tables_number	1
_symmetry_cell_setting	triclinic
loop_
_symmetry_equiv_pos_as_xyz
  x,y,z
_cell_length_a	19.288840
_cell_length_b	23.532407
_cell_length_c	17.766277
_cell_angle_alpha	90.012379
_cell_angle_beta	89.983415
_cell_angle_gamma	97.012658
loop_
_atom_site_label
_atom_site_type_symbol
_atom_site_fract_x
_atom_site_fract_y
_atom_site_fract_z
O1	O	0.921145	-0.070977	-0.062730
O2	O	1.421145	0.429023	0.437270
O3	O	0.718853	-0.080576	-0.062705
O4	O	1.218853	0.419424	0.437295
O5	O	0.826099	0.007143	-0.062702
O6	O	1.326099	0.507143	0.437298
O7	O	0.813899	-0.158696	-0.062733
O8	O	1.313899	0.341304	0.437267
O9	O	0.826080	0.007147	0.062487
O10	O	1.326080	0.507147	0.562487
O11	O	0.718834	-0.080572	0.062484
O12	O	1.218834	0.419428	0.562484
O13	O	0.921127	-0.070973	0.062459
O14	O	1.421127	0.429027	0.562459
Cu15	Cu	0.819978	-0.075772	0.073902
Cu16	Cu	1.319978	0.424228	0.573902
Cu17	Cu	0.820001	-0.075777	-0.074148
Cu18	Cu	1.320001	0.424223	0.425852
O19	O	0.813880	-0.158692	0.062456
O20	O	1.313880	0.341308	0.562456
C21	C	0.692967	-0.080267	-0.000107
C22	C	1.192967	0.419733	0.499893
C23	C	0.615866	-0.079347	-0.000097
C24	C	1.115866	0.420653	0.499903
C25	C	0.825779	0.028362	-0.000105
C26	C	1.325779	0.528362	0.499895
C27	C	0.824845	0.091581	-0.000097
C28	C	1.324845	0.591581	0.499903
C29	C	0.579674	-0.078908	-0.068339
C30	C	1.079674	0.421092	0.431661
C31	C	0.507230	-0.078037	-0.068348
C32	C	1.007230	0.421963	0.431652
C33	C	0.470982	-0.077594	-0.000111
C34	C	0.970982	0.422406	0.499889
C35	C	0.507182	-0.078037	0.068140
C36	C	1.007182	0.421963	0.568140
C37	C	0.579624	-0.078914	0.068147
C38	C	1.079624	0.421086	0.568147
C39	C	0.361754	-0.042846	0.052164
C40	C	0.861754	0.457154	0.552164
C41	C	0.289314	-0.041966	0.052154
C42	C	0.789314	0.458034	0.552154
C43	C	0.247547	-0.074894	-0.000130
C44	C	0.747547	0.425106	0.499870
C45	C	0.278230	-0.108694	-0.052417
C46	C	0.778230	0.391306	0.447583
C47	C	0.350672	-0.109570	-0.052410
C48	C	0.850672	0.390430	0.447590
C49	C	0.392431	-0.076644	-0.000111
C50	C	0.892431	0.423356	0.499889
C51	C	0.132802	-0.073511	-0.068387
C52	C	0.632802	0.426489	0.431613
C53	C	0.060356	-0.072643	-0.068393
C54	C	0.560356	0.427357	0.431607
C55	C	0.060311	-0.072638	0.068097
C56	C	0.560311	0.427362	0.568097
C57	C	0.132755	-0.073511	0.068101
C58	C	0.632755	0.426489	0.568101
C59	C	0.168997	-0.073944	-0.000143
C60	C	0.668997	0.426056	0.499857
C61	C	0.882453	0.490568	-0.000133
C62	C	1.382453	0.990568	0.499867
C63	C	0.881585	0.549970	-0.000137
C64	C	1.381585	1.049970	0.499863
O65	O	0.934988	0.586608	-0.000170
O66	O	1.434988	1.086608	0.499830
N67	N	0.817827	0.572724	-0.000128
N68	N	1.317827	1.072724	0.499872
C69	C	0.754932	0.536072	-0.000122
C70	C	1.254932	1.036072	0.499878
O71	O	0.700622	0.560880	-0.000116
O72	O	1.200622	1.060880	0.499884
C73	C	0.755801	0.476671	-0.000124
C74	C	1.255801	0.976671	0.499876
C75	C	0.819563	0.453921	-0.000125
C76	C	1.319563	0.953921	0.499875
C77	C	0.946209	0.467818	-0.000135
C78	C	1.446209	0.967818	0.499865
C79	C	0.947077	0.408420	-0.000130
C80	C	1.447077	0.908420	0.499870
C81	C	0.884187	0.371773	-0.000123
C82	C	1.384187	0.871773	0.499877
C83	C	0.820430	0.394523	-0.000120
C84	C	1.320430	0.894523	0.499880
C85	C	0.692907	0.440021	-0.000124
C86	C	1.192907	0.940021	0.499876
C87	C	0.693781	0.380616	-0.000126
C88	C	1.193781	0.880616	0.499874
C89	C	0.757543	0.357866	-0.000128
C90	C	1.257543	0.857866	0.499872
C91	C	0.758408	0.298478	-0.000108
C92	C	1.258408	0.798478	0.499892
N93	N	0.822166	0.275725	-0.000117
N94	N	1.322166	0.775725	0.499883
C95	C	0.885056	0.312372	-0.000124
C96	C	1.385056	0.812372	0.499876
C97	C	0.753113	0.660818	-0.000120
C98	C	1.253113	1.160818	0.499880
C99	C	0.752244	0.720218	-0.000113
C100	C	1.252244	1.220218	0.499887
C101	C	0.878897	0.734112	-0.000129
C102	C	1.378897	1.234112	0.499871
C103	C	0.879765	0.674711	-0.000131
C104	C	1.379765	1.174711	0.499869
C105	C	0.816871	0.638065	-0.000129
C106	C	1.316871	1.138065	0.499871
C107	C	0.886873	0.187631	-0.000113
C108	C	1.386873	0.687631	0.499887
C109	C	0.887735	0.128228	-0.000104
C110	C	1.387735	0.628228	0.499896
C111	C	0.761082	0.114339	-0.000093
C112	C	1.261082	0.614339	0.499907
C113	C	0.760220	0.173737	-0.000097
C114	C	1.260220	0.673737	0.499903
C115	C	0.823121	0.210383	-0.000110
C116	C	1.323121	0.710383	0.499890
O117	O	0.705034	0.261806	-0.000077
O118	O	1.205034	0.761806	0.499923
O119	O	0.939358	0.287555	-0.000141
O120	O	1.439358	0.787555	0.499859
C121	C	0.947012	-0.071282	-0.000141
C122	C	1.447012	0.428718	0.499859
C123	C	1.024113	-0.072202	-0.000156
C124	C	1.524113	0.427798	0.499844
C125	C	0.814200	0.820089	-0.000135
C126	C	1.314200	1.320089	0.499865
C127	C	0.815134	0.756870	-0.000125
C128	C	1.315134	1.256870	0.499875
N129	N	0.819968	-0.075768	0.178032
N130	N	1.319968	0.424232	0.678032
N131	N	0.820017	-0.075777	-0.178278
N132	N	1.320017	0.424223	0.321722
C133	C	0.867472	-0.036945	0.217421
C134	C	1.367472	0.463055	0.717421
C135	C	0.867476	-0.036942	0.296222
C136	C	1.367476	0.463058	0.796222
C137	C	0.819983	-0.075772	0.335633
C138	C	1.319983	0.424228	0.835633
C139	C	0.772470	-0.114598	0.296235
C140	C	1.272470	0.385402	0.796235
C141	C	0.772462	-0.114596	0.217435
C142	C	1.272462	0.385404	0.717435
C143	C	0.810524	-0.127664	0.460462
C144	C	1.310524	0.372336	0.960462
C145	C	0.810536	-0.127667	0.539261
C146	C	1.310536	0.372333	1.039261
C147	C	0.820001	-0.075779	0.578679
C148	C	1.320001	0.424221	1.078679
C149	C	0.829469	-0.023886	0.539289
C150	C	1.329469	0.476114	1.039289
C151	C	0.829462	-0.023884	0.460489
C152	C	1.329462	0.476116	0.960489
C153	C	0.819985	-0.075779	0.421078
C154	C	1.319985	0.424221	0.921078
C155	C	0.867512	-0.036950	0.703513
C156	C	1.367512	0.463050	1.203513
C157	C	0.867511	-0.036947	0.782317
C158	C	1.367511	0.463053	1.282317
C159	C	0.772508	-0.114608	0.782328
C160	C	1.272508	0.385392	1.282328
C161	C	0.772506	-0.114606	0.703526
C162	C	1.272506	0.385394	1.203526
C163	C	0.820011	-0.075778	0.664124
C164	C	1.320011	0.424222	1.164124
H165	H	0.477756	-0.077680	-0.123921
H166	H	0.977756	0.422320	0.376079
O167	O	0.721270	-0.156480	0.661035
O168	O	1.221270	0.343520	1.161035
H169	H	0.750310	-0.184093	0.625105
H170	H	1.250310	0.315907	1.125105
O171	O	0.956511	0.103693	-0.000119
O172	O	1.456511	0.603693	0.499881
H173	H	0.986708	0.118441	0.050896
H174	H	1.486708	0.618441	0.550896
H175	H	0.733778	-0.146211	0.185364
H176	H	1.233778	0.353789	0.685364
H177	H	0.997425	0.497651	-0.000144
H178	H	1.497425	0.997651	0.499856
O179	O	0.691453	0.198284	-0.000086
O180	O	1.191453	0.698284	0.499914
H181	H	0.661264	0.183543	-0.051109
H182	H	1.161264	0.683543	0.448891
H183	H	0.030798	-0.072281	0.123657
H184	H	0.530798	0.427719	0.623657
H185	H	0.162223	-0.073865	0.123671
H186	H	0.662223	0.426135	0.623671
H187	H	0.609177	-0.079261	-0.123909
H188	H	1.109177	0.420739	0.376091
H189	H	0.906152	-0.005327	0.185341
H190	H	1.406152	0.494673	0.685341
O191	O	0.948536	0.650174	-0.000146
O192	O	1.448536	1.150174	0.499854
H193	H	0.992117	0.685642	-0.000157
H194	H	1.492117	1.185642	0.499843
H195	H	0.709879	0.084490	-0.000084
H196	H	1.209879	0.584490	0.499916
O197	O	0.383768	-0.146030	-0.108791
O198	O	0.883768	0.353970	0.391209
H199	H	0.342560	-0.168785	-0.145147
H200	H	0.842560	0.331215	0.354853
O201	O	1.015852	0.383890	-0.000139
O202	O	1.515852	0.883890	0.499861
H203	H	1.005902	0.336427	-0.000132
H204	H	1.505902	0.836427	0.499868
O205	O	0.233193	-0.144217	-0.108812
O206	O	0.733193	0.355783	0.391188
H207	H	0.177664	-0.137937	-0.100029
H208	H	0.677664	0.362063	0.399971
O209	O	0.918721	0.004926	0.338721
O210	O	1.418721	0.504926	0.838721
H211	H	0.951756	0.031923	0.298083
H212	H	1.451756	0.531923	0.798083
H213	H	0.733799	-0.146213	0.328327
H214	H	1.233799	0.353787	0.828327
H215	H	0.938093	0.217462	-0.000126
H216	H	1.438093	0.717462	0.499874
O217	O	0.618660	-0.079396	0.141757
O218	O	1.118660	0.420604	0.641757
H219	H	0.611217	-0.040420	0.174493
H220	H	1.111217	0.459580	0.674493
H221	H	0.930105	0.763961	-0.000138
H222	H	1.430105	1.263961	0.499862
H223	H	0.701894	0.630983	-0.000113
H224	H	1.201894	1.130983	0.499887
H225	H	0.700323	0.738735	-0.000099
H226	H	1.200323	1.238735	0.499901
O227	O	0.918750	0.004932	0.824800
O228	O	1.418750	0.504932	1.324800
H229	H	0.910769	-0.001586	0.886215
H230	H	1.410769	0.498414	1.386215
H231	H	0.162311	-0.073870	-0.123955
H232	H	0.662311	0.426130	0.376045
H233	H	0.640985	0.458533	-0.000127
H234	H	1.140985	0.958533	0.499873
O235	O	0.800339	-0.183634	0.581745
O236	O	1.300339	0.316366	1.081745
H237	H	0.793746	-0.219714	0.541098
H238	H	1.293746	0.280286	1.041098
H239	H	0.837169	0.018369	0.428421
H240	H	1.337169	0.518369	0.928421
H241	H	0.642564	0.350781	-0.000126
H242	H	1.142564	0.850781	0.499874
H243	H	0.837176	0.018366	0.571382
H244	H	1.337176	0.518366	1.071382
H245	H	0.395755	-0.016031	0.094744
H246	H	0.895755	0.483969	0.594744
H247	H	0.906192	-0.005332	0.671431
H248	H	1.406192	0.494668	1.171431
H249	H	0.802804	-0.169920	0.428374
H250	H	1.302804	0.330080	0.928374
O251	O	0.021318	-0.072149	-0.142000
O252	O	0.521318	0.427851	0.358000
H253	H	0.058695	-0.072585	-0.189450
H254	H	0.558695	0.427415	0.310550
O255	O	0.256225	-0.005515	0.108551
O256	O	0.756225	0.494485	0.608551
H257	H	0.277759	0.040044	0.100845
H258	H	0.777759	0.540044	0.600845
O259	O	0.468048	-0.077835	0.141740
O260	O	0.968048	0.422165	0.641740
H261	H	0.411578	-0.077247	0.130271
H262	H	0.911578	0.422753	0.630271
O263	O	0.721282	-0.156492	0.824822
O264	O	1.221282	0.343508	1.324822
H265	H	0.729270	-0.149975	0.886235
H266	H	1.229270	0.350025	1.386235
