data_functionalizedCrystal
_audit_creation_method	'MofGen! by Chris Wilmer'
_symmetry_space_group_name_H-M	'P1'
_symmetry_Int_Tables_number	1
_symmetry_cell_setting	triclinic
loop_
_symmetry_equiv_pos_as_xyz
  x,y,z
_cell_length_a	16.992695
_cell_length_b	14.853567
_cell_length_c	15.455313
_cell_angle_alpha	87.317942
_cell_angle_beta	92.847427
_cell_angle_gamma	87.151577
loop_
_atom_site_label
_atom_site_type_symbol
_atom_site_fract_x
_atom_site_fract_y
_atom_site_fract_z
O1	O	0.098956	1.207295	-0.072071
O2	O	0.111152	0.945698	-0.072086
O3	O	-0.009090	1.075447	-0.072072
O4	O	0.219197	1.077545	-0.072086
O5	O	-0.002242	1.068026	0.072189
O6	O	0.117999	0.938276	0.072175
O7	O	0.105804	1.199873	0.072190
Cu8	Cu	0.112527	1.068397	0.085355
Cu9	Cu	0.104429	1.077174	-0.085251
O10	O	0.226045	1.070124	0.072176
C11	C	-0.034881	1.069038	0.000058
C12	C	-0.121934	1.060988	0.000058
C13	C	0.114023	0.908359	0.000042
C14	C	0.112366	0.808159	0.000037
C15	C	-0.172090	1.138663	0.000063
C16	C	-0.253885	1.131094	0.000054
C17	C	-0.285523	1.045849	0.000047
C18	C	-0.235361	0.968168	0.000039
C19	C	-0.153568	0.975738	0.000041
C20	C	-0.529155	1.014473	0.000033
C21	C	-0.610955	1.006908	0.000033
C22	C	-0.629474	1.169835	0.000047
C23	C	-0.547678	1.177398	0.000055
C24	C	-0.497523	1.099717	0.000042
N25	N	-0.369130	1.038110	0.000040
N26	N	-0.413918	1.107458	0.000042
C27	C	0.033941	0.390086	0.000061
C28	C	0.176791	0.378892	0.000052
C29	C	0.178348	0.473036	0.000049
C30	C	0.107700	0.525709	0.000051
C31	C	0.035496	0.484239	0.000055
C32	C	0.250550	0.514514	0.000035
C33	C	0.252110	0.608663	0.000031
C34	C	0.181462	0.661338	0.000039
C35	C	0.109255	0.619862	0.000045
C36	C	0.038607	0.672536	0.000047
C37	C	-0.033600	0.631061	0.000059
C38	C	-0.035152	0.536914	0.000064
C39	C	0.183014	0.755485	0.000035
C40	C	0.040162	0.766688	0.000042
C41	C	0.251837	1.076533	0.000043
C42	C	0.338889	1.084583	0.000038
C43	C	0.102933	1.237212	0.000059
C44	C	0.104589	1.337413	0.000059
N45	N	0.118222	1.062230	0.205349
N46	N	0.098727	1.083347	-0.205246
C47	C	0.067158	1.117374	0.250750
C48	C	0.071473	1.112719	0.341557
C49	C	0.126855	1.052925	0.386963
C50	C	0.177921	0.997774	0.341556
C51	C	0.173602	1.002425	0.250750
C52	C	0.145475	1.032848	0.658542
C53	C	0.149791	1.028203	0.749354
C54	C	0.043341	1.143148	0.749349
C55	C	0.039031	1.147797	0.658541
C56	C	0.090094	1.092644	0.613143
N57	N	0.131268	1.048167	0.479782
N58	N	0.085677	1.097397	0.520324
H59	H	-0.146337	1.208079	0.000075
Br60	Br	-0.278297	0.852477	0.000013
Br61	Br	0.242901	0.927577	0.189136
Br62	Br	-0.085498	0.870318	0.000027
H63	H	0.310906	0.642423	0.000021
H64	H	-0.017368	0.809569	0.000047
Br65	Br	0.272664	0.307408	0.000033
Br66	Br	-0.036128	1.228951	0.596918
Br67	Br	0.002168	1.187555	0.403175
Br68	Br	-0.025957	1.217993	0.810964
H69	H	0.308067	0.471621	0.000025
Br70	Br	-0.129475	0.702558	0.000052
Br71	Br	0.224963	0.947050	0.810970
H72	H	-0.093939	0.503136	0.000094
H73	H	-0.294719	1.194346	0.000061
H74	H	0.241804	0.789250	0.000027
Br75	Br	0.214774	0.958001	0.596934
Br76	Br	0.253079	0.916615	0.403174
H77	H	-0.521925	1.246814	0.000061
H78	H	-0.670318	1.233078	0.000056
H79	H	0.022063	1.166070	0.213786
Br80	Br	-0.653891	0.891210	0.000031
Br81	Br	-0.064050	0.333803	0.000085
Br82	Br	-0.461099	0.909048	0.000010
