data_functionalizedCrystal
_audit_creation_method	'MofGen! by Chris Wilmer'
_symmetry_space_group_name_H-M	'P1'
_symmetry_Int_Tables_number	1
_symmetry_cell_setting	triclinic
loop_
_symmetry_equiv_pos_as_xyz
  x,y,z
_cell_length_a	14.908783
_cell_length_b	18.101397
_cell_length_c	14.908308
_cell_angle_alpha	93.262730
_cell_angle_beta	89.788727
_cell_angle_gamma	93.311144
loop_
_atom_site_label
_atom_site_type_symbol
_atom_site_fract_x
_atom_site_fract_y
_atom_site_fract_z
Zn1	Zn	1.345316	-0.259021	-0.587809
Zn2	Zn	1.845316	0.240979	-0.087809
Zn3	Zn	1.353897	-0.375344	-0.437440
Zn4	Zn	1.853897	0.124656	0.062560
Zn5	Zn	1.203629	-0.258219	-0.428781
Zn6	Zn	1.703629	0.241781	0.071219
Zn7	Zn	1.194922	-0.389525	-0.579061
Zn8	Zn	1.694922	0.110475	-0.079061
O9	O	1.274441	-0.320527	-0.508273
O10	O	1.774441	0.179473	-0.008273
O11	O	1.472282	-0.268852	-0.575148
O12	O	1.972282	0.231148	-0.075148
O13	O	1.341198	-0.353537	-0.310469
O14	O	1.841198	0.146463	0.189531
O15	O	1.222476	-0.154692	-0.449913
O16	O	1.722476	0.345308	0.050087
O17	O	1.478586	-0.354314	-0.464672
O18	O	1.978586	0.145686	0.035328
O19	O	1.326573	-0.155281	-0.566751
O20	O	1.826573	0.344719	-0.066751
O21	O	1.230797	-0.267486	-0.304107
O22	O	1.730797	0.232514	0.195893
O23	O	1.076646	-0.281237	-0.441430
O24	O	1.576646	0.218763	0.058570
O25	O	1.207637	-0.378483	-0.706044
O26	O	1.707637	0.121517	-0.206044
O27	O	1.070249	-0.377706	-0.551841
O28	O	1.570249	0.122294	-0.051841
O29	O	1.318131	-0.282603	-0.712472
O30	O	1.818131	0.217397	-0.212472
O31	O	1.332756	-0.480859	-0.456189
O32	O	1.832756	0.019141	0.043811
O33	O	1.215958	-0.491277	-0.560237
O34	O	1.715958	0.008723	-0.060237
C35	C	1.040822	-0.330924	-0.494747
C36	C	1.540822	0.169076	0.005253
C37	C	0.940878	-0.335390	-0.488982
C38	C	1.440878	0.164610	0.011018
C39	C	0.746495	-0.254930	-0.593363
C40	C	1.246495	0.245070	-0.093363
C41	C	0.652588	-0.259125	-0.587949
C42	C	1.152588	0.240875	-0.087949
C43	C	0.659156	-0.347969	-0.472736
C44	C	1.159156	0.152031	0.027264
C45	C	0.753062	-0.343775	-0.478150
C46	C	1.253062	0.156225	0.021850
C47	C	0.796728	-0.297255	-0.538466
C48	C	1.296728	0.202745	-0.038466
C49	C	0.890637	-0.293065	-0.543884
C50	C	1.390637	0.206935	-0.043884
C51	C	0.897203	-0.381905	-0.428668
C52	C	1.397203	0.118095	0.071332
C53	C	0.803296	-0.386099	-0.423254
C54	C	1.303296	0.113901	0.076746
C55	C	1.274366	-0.512939	-0.508225
C56	C	1.774366	-0.012939	-0.008225
C57	C	1.274415	-0.595252	-0.508239
C58	C	1.774415	-0.095252	-0.008239
C59	C	1.274525	-0.894341	-0.508328
C60	C	1.774525	-0.394341	-0.008328
C61	C	1.347828	-0.856430	-0.442666
C62	C	1.847828	-0.356430	0.057334
C63	C	1.348058	-0.770809	-0.442861
C64	C	1.848058	-0.270809	0.057139
C65	C	1.274471	-0.745959	-0.508283
C66	C	1.774471	-0.245959	-0.008283
C67	C	1.294687	-0.780566	-0.604541
C68	C	1.794687	-0.280566	-0.104541
C69	C	1.295245	-0.866168	-0.604193
C70	C	1.795245	-0.366168	-0.104193
C71	C	1.180774	-0.865875	-0.478541
C72	C	1.680774	-0.365875	0.021459
C73	C	1.181366	-0.780099	-0.476452
C74	C	1.681366	-0.280099	0.023548
C75	C	1.274438	-0.662101	-0.508263
C76	C	1.774438	-0.162101	-0.008263
C77	C	1.274560	-0.978200	-0.508354
C78	C	1.774560	-0.478200	-0.008354
C79	C	1.508972	-0.310091	-0.521852
C80	C	2.008972	0.189909	-0.021852
C81	C	1.608915	-0.305643	-0.527639
C82	C	2.108915	0.194357	-0.027639
C83	C	1.260955	-0.332214	-0.742795
C84	C	1.760955	0.167786	-0.242795
C85	C	1.255209	-0.337194	-0.842734
C86	C	1.755209	0.162806	-0.342734
C87	C	1.274539	-0.127364	-0.508342
C88	C	1.774539	0.372636	-0.008342
C89	C	1.274581	-0.045049	-0.508372
C90	C	1.774581	0.454951	-0.008372
C91	C	1.359465	-0.246695	-1.037224
C92	C	1.859465	0.253305	-0.537224
C93	C	1.354068	-0.251372	-1.131126
C94	C	1.854068	0.248628	-0.631126
C95	C	1.239015	-0.351221	-1.124441
C96	C	1.739015	0.148779	-0.624441
C97	C	1.244412	-0.346544	-1.030539
C98	C	1.744412	0.153456	-0.530539
C99	C	1.304639	-0.294280	-0.986934
C100	C	1.804639	0.205720	-0.486934
C101	C	1.310040	-0.289607	-0.893031
C102	C	1.810040	0.210393	-0.393031
C103	C	1.194983	-0.389452	-0.886347
C104	C	1.694983	0.110548	-0.386347
C105	C	1.189586	-0.394129	-0.980249
C106	C	1.689586	0.105871	-0.480249
C107	C	1.287925	-0.308830	-0.274667
C108	C	1.787925	0.191170	0.225333
C109	C	1.293846	-0.303633	-0.174738
C110	C	1.793846	0.196367	0.325262
H111	H	0.767731	-0.423972	-0.374144
H112	H	1.267731	0.076028	0.125856
C113	C	1.425719	-0.189208	-0.989257
C114	C	1.925719	0.310792	-0.489257
N115	N	1.475622	-0.145908	-0.953130
N116	N	1.975622	0.354092	-0.453130
H117	H	0.623587	-0.385835	-0.423620
H118	H	1.123587	0.114165	0.076380
C119	C	0.952468	-0.428466	-0.368279
C120	C	1.452468	0.071534	0.131721
N121	N	0.994094	-0.463537	-0.322798
N122	N	1.494094	0.036463	0.177202
H123	H	0.926188	-0.255186	-0.592997
H124	H	1.426188	0.244814	-0.092997
H125	H	1.336044	-0.747046	-0.371659
H126	H	1.836044	-0.247046	0.128341
H127	H	1.398710	-0.212621	-1.172069
H128	H	1.898710	0.287379	-0.672069
H129	H	0.782048	-0.217055	-0.642478
H130	H	1.282048	0.282945	-0.142478
C131	C	1.331885	-0.880514	-0.346205
C132	C	1.831885	-0.380514	0.153795
N133	N	1.319875	-0.898657	-0.273548
N134	N	1.819875	-0.398657	0.226452
C135	C	1.224449	-0.759608	-0.672735
C136	C	1.724449	-0.259608	-0.172735
N137	N	1.171546	-0.743819	-0.724097
N138	N	1.671546	-0.243819	-0.224097
C139	C	0.597333	-0.212567	-0.648342
C140	C	1.097333	0.287433	-0.148342
N141	N	0.555716	-0.177497	-0.693833
N142	N	1.055716	0.322503	-0.193833
H143	H	1.150343	-0.428201	-0.845390
H144	H	1.650343	0.071799	-0.345390
C145	C	1.385971	-0.748792	-0.638173
C146	C	1.885971	-0.248792	-0.138173
N147	N	1.454729	-0.724862	-0.663499
N148	N	1.954729	-0.224862	-0.163499
H149	H	1.166023	-0.757212	-0.405587
H150	H	1.666023	-0.257212	0.094413
H151	H	1.417010	-0.875569	-0.462603
H152	H	1.917010	-0.375569	0.037397
H153	H	1.417614	-0.747929	-0.463004
H154	H	1.917614	-0.247929	0.036996
H155	H	1.189980	-0.393771	-1.159960
H156	H	1.689980	0.106229	-0.659960
C157	C	1.387607	-0.890283	-0.637406
C158	C	1.887607	-0.390283	-0.137406
N159	N	1.457178	-0.908442	-0.662419
N160	N	1.957178	-0.408442	-0.162419
H161	H	1.140549	-0.436679	-1.015765
H162	H	1.640549	0.063321	-0.515765
C163	C	1.225858	-0.900708	-0.672948
C164	C	1.725858	-0.400708	-0.172948
N165	N	1.173602	-0.926719	-0.724740
N166	N	1.673602	-0.426719	-0.224740
C167	C	1.154504	-0.891945	-0.384967
C168	C	1.654504	-0.391945	0.115033
N169	N	1.134728	-0.911580	-0.314485
N170	N	1.634728	-0.411580	0.185515
H171	H	1.126225	-0.890982	-0.526298
H172	H	1.626225	-0.390982	-0.026298
H173	H	1.359082	-0.247052	-0.857529
H174	H	1.859082	0.252948	-0.357529
C175	C	1.104208	-0.757663	-0.535733
C176	C	1.604208	-0.257663	-0.035733
N177	N	1.046095	-0.740766	-0.580390
N178	N	1.546095	-0.240766	-0.080390
