data_functionalizedCrystal
_audit_creation_method	'MofGen! by Chris Wilmer'
_symmetry_space_group_name_H-M	'P1'
_symmetry_Int_Tables_number	1
_symmetry_cell_setting	triclinic
loop_
_symmetry_equiv_pos_as_xyz
  x,y,z
_cell_length_a	19.188930
_cell_length_b	14.519709
_cell_length_c	12.996460
_cell_angle_alpha	90.007090
_cell_angle_beta	90.019467
_cell_angle_gamma	83.412462
loop_
_atom_site_label
_atom_site_type_symbol
_atom_site_fract_x
_atom_site_fract_y
_atom_site_fract_z
O1	O	-0.926556	-0.115137	-0.085900
O2	O	-0.426556	0.384863	0.414100
O3	O	-0.723300	-0.130636	-0.085830
O4	O	-0.223300	0.369364	0.414170
O5	O	-0.830317	0.011385	-0.085857
O6	O	-0.330317	0.511385	0.414143
O7	O	-0.819539	-0.257159	-0.085872
O8	O	-0.319539	0.242841	0.414128
O9	O	-0.830306	0.011393	0.085276
O10	O	-0.330306	0.511393	0.585276
O11	O	-0.723288	-0.130629	0.085304
O12	O	-0.223288	0.369371	0.585304
O13	O	-0.926545	-0.115129	0.085234
O14	O	-0.426545	0.384871	0.585234
Cu15	Cu	-0.824915	-0.122878	0.100895
Cu16	Cu	-0.324915	0.377122	0.600895
Cu17	Cu	-0.824929	-0.122887	-0.101491
Cu18	Cu	-0.324929	0.377113	0.398509
O19	O	-0.819527	-0.257151	0.085262
O20	O	-0.319527	0.242849	0.585262
C21	C	-0.697281	-0.130131	-0.000254
C22	C	-0.197281	0.369869	0.499746
C23	C	-0.619771	-0.128624	-0.000227
C24	C	-0.119771	0.371376	0.499773
C25	C	-0.829809	0.045746	-0.000290
C26	C	-0.329809	0.545746	0.499710
C27	C	-0.828304	0.148118	-0.000289
C28	C	-0.328304	0.648118	0.499711
C29	C	-0.952563	-0.115635	-0.000344
C30	C	-0.452563	0.384365	0.499656
C31	C	-1.030073	-0.117142	-0.000378
C32	C	-0.530073	0.382858	0.499622
C33	C	-0.575144	-0.211957	-0.000247
C34	C	-0.075144	0.288043	0.499753
C35	C	-0.502315	-0.210542	-0.000259
C36	C	-0.002315	0.289458	0.499741
C37	C	-0.474117	-0.125788	-0.000270
C38	C	0.025883	0.374212	0.499730
C39	C	-0.518754	-0.042444	-0.000243
C40	C	-0.018754	0.457556	0.499757
C41	C	-0.591581	-0.043861	-0.000222
C42	C	-0.091581	0.456139	0.499778
N43	N	-0.365910	-0.061007	-0.058552
N44	N	0.134090	0.438993	0.441448
N45	N	-0.296727	-0.059666	-0.058575
N46	N	0.203273	0.440334	0.441425
C47	C	-0.254693	-0.121511	-0.000332
C48	C	0.245307	0.378489	0.499668
N49	N	-0.284455	-0.184762	0.057920
N50	N	0.215545	0.315238	0.557920
N51	N	-0.353645	-0.186106	0.057938
N52	N	0.146355	0.313894	0.557938
C53	C	-0.395149	-0.124241	-0.000292
C54	C	0.104851	0.375759	0.499708
C55	C	-0.131096	-0.203315	-0.000364
C56	C	0.368904	0.296685	0.499636
C57	C	-0.058266	-0.201896	-0.000369
C58	C	0.441734	0.298104	0.499631
C59	C	-0.074706	-0.033796	-0.000364
C60	C	0.425294	0.466204	0.499636
C61	C	-0.147535	-0.035217	-0.000348
C62	C	0.352465	0.464783	0.499652
C63	C	-0.175725	-0.119980	-0.000353
C64	C	0.324275	0.380020	0.499647
C65	C	-0.820035	-0.291511	-0.000308
C66	C	-0.320035	0.208489	0.499692
C67	C	-0.821541	-0.393883	-0.000316
C68	C	-0.321541	0.106117	0.499684
N69	N	-0.824911	-0.122871	0.243242
N70	N	-0.324911	0.377129	0.743242
C71	C	-0.822762	0.522979	-0.000314
C72	C	-0.322762	1.022979	0.499686
C73	C	-0.824301	0.418681	-0.000307
C74	C	-0.324301	0.918681	0.499693
C75	C	-0.825533	0.335552	-0.000300
C76	C	-0.325533	0.835552	0.499700
C77	C	-0.827072	0.231247	-0.000295
C78	C	-0.327072	0.731247	0.499705
N79	N	-0.824938	-0.122887	-0.243838
N80	N	-0.324938	0.377113	0.256162
C81	C	-0.824928	-0.122888	0.663056
C82	C	-0.324928	0.377112	1.163056
C83	C	-0.824921	-0.122887	0.546251
C84	C	-0.324921	0.377113	1.046251
C85	C	-0.824920	-0.122880	0.453153
C86	C	-0.324920	0.377120	0.953153
C87	C	-0.824913	-0.122877	0.336340
C88	C	-0.324913	0.377123	0.836340
H89	H	-0.598091	-0.280978	-0.000253
H90	H	-0.098091	0.219022	0.499747
C91	C	-0.493373	-0.376845	-0.000299
C92	C	0.006627	0.123155	0.499701
C93	C	-0.453249	-0.302148	-0.000296
C94	C	0.046751	0.197852	0.499704
H95	H	-0.463081	-0.433397	-0.000331
H96	H	0.036919	0.066603	0.499669
H97	H	-0.522092	-0.373912	0.059389
H98	H	-0.022092	0.126088	0.559389
H99	H	-0.522148	-0.373889	-0.059968
H100	H	-0.022148	0.126111	0.440032
H101	H	-0.424477	-0.305100	0.059378
H102	H	0.075523	0.194900	0.559378
H103	H	-0.424518	-0.305082	-0.059989
H104	H	0.075482	0.194918	0.440011
C105	C	-0.414413	0.034367	-0.000293
C106	C	0.085587	0.534367	0.499707
C107	C	-0.487761	0.050720	-0.000261
C108	C	0.012239	0.550720	0.499739
H109	H	-0.395282	0.091886	-0.000307
H110	H	0.104718	0.591886	0.499693
H111	H	-0.399082	0.000076	0.059377
H112	H	0.100918	0.500076	0.559377
H113	H	-0.399132	0.000062	-0.059980
H114	H	0.100868	0.500062	0.440020
H115	H	-0.503043	0.085020	0.059431
H116	H	-0.003043	0.585020	0.559431
H117	H	-0.503099	0.085026	-0.059937
H118	H	-0.003099	0.585026	0.440063
C119	C	-0.628046	0.098972	-0.088187
C120	C	-0.128046	0.598972	0.411813
C121	C	-0.640642	0.047745	-0.000210
C122	C	-0.140642	0.547745	0.499790
H123	H	-0.658339	0.155523	-0.088184
H124	H	-0.158339	0.655523	0.411816
H125	H	-0.580644	0.111947	-0.088188
H126	H	-0.080644	0.611947	0.411812
H127	H	-0.636624	0.064192	-0.147857
H128	H	-0.136624	0.564192	0.352143
H129	H	-0.632058	0.082522	0.059459
H130	H	-0.132058	0.582522	0.559459
H131	H	-0.688055	0.034772	-0.000200
H132	H	-0.188055	0.534772	0.499800
H133	H	-0.183871	0.032642	-0.000337
H134	H	0.316129	0.532642	0.499663
H135	H	-0.051748	0.035213	-0.000437
H136	H	0.448252	0.535213	0.499563
H137	H	-0.021931	-0.269760	-0.000380
H138	H	0.478069	0.230240	0.499620
C139	C	-0.107533	-0.369332	-0.000359
C140	C	0.392467	0.130668	0.499641
C141	C	-0.162089	-0.296483	-0.000353
C142	C	0.337911	0.203517	0.499647
H143	H	-0.126667	-0.426849	-0.000346
H144	H	0.373333	0.073151	0.499654
H145	H	-0.079491	-0.365289	-0.060040
H146	H	0.420509	0.134711	0.439960
H147	H	-0.079450	-0.365270	0.059317
H148	H	0.420550	0.134730	0.559317
H149	H	-0.190169	-0.300541	-0.060034
H150	H	0.309831	0.199459	0.439966
H151	H	-0.190143	-0.300528	0.059334
H152	H	0.309857	0.199472	0.559334
