data_functionalizedCrystal
_audit_creation_method	'MofGen! by Chris Wilmer'
_symmetry_space_group_name_H-M	'P1'
_symmetry_Int_Tables_number	1
_symmetry_cell_setting	triclinic
loop_
_symmetry_equiv_pos_as_xyz
  x,y,z
_cell_length_a	19.077142
_cell_length_b	19.077391
_cell_length_c	13.897449
_cell_angle_alpha	87.689280
_cell_angle_beta	87.696632
_cell_angle_gamma	85.338989
loop_
_atom_site_label
_atom_site_type_symbol
_atom_site_fract_x
_atom_site_fract_y
_atom_site_fract_z
Zn1	Zn	-1.088858	0.324163	0.587474
Zn2	Zn	-1.093522	0.442014	0.419936
Zn3	Zn	-0.971001	0.319405	0.419965
Zn4	Zn	-0.975660	0.437264	0.574960
O5	O	-1.032260	0.380712	0.500584
O6	O	-1.188126	0.343776	0.570475
O7	O	-1.077271	0.425747	0.284959
O8	O	-0.982733	0.221391	0.447434
O9	O	-1.191553	0.430361	0.447386
O10	O	-1.069322	0.224887	0.570502
O11	O	-0.987255	0.335666	0.284980
O12	O	-0.872969	0.331059	0.435300
O13	O	-0.990674	0.422264	0.711601
O14	O	-0.876392	0.417650	0.549174
O15	O	-1.073840	0.339170	0.720795
O16	O	-1.081789	0.540030	0.435252
O17	O	-0.995196	0.536539	0.549147
C18	C	-0.849102	0.373323	0.490883
C19	C	-0.770747	0.370179	0.486755
C20	C	-1.039523	0.563863	0.490860
C21	C	-1.042695	0.642218	0.486736
C22	C	-1.032256	0.380718	0.752176
C23	C	-1.032254	0.380720	0.859390
C24	C	-0.735739	0.413853	0.544003
C25	C	-0.662116	0.410890	0.540129
C26	C	-0.623502	0.364256	0.479002
C27	C	-0.658515	0.320577	0.421751
C28	C	-0.732137	0.323537	0.425630
C29	C	-0.403123	0.350557	0.461057
C30	C	-0.329496	0.347602	0.457180
C31	C	-0.333102	0.437914	0.575560
C32	C	-0.406725	0.440873	0.579430
C33	C	-0.441732	0.397192	0.522183
N34	N	-0.548247	0.361227	0.475038
N35	N	-0.516985	0.400217	0.526152
C36	C	-0.216133	0.388126	0.510312
C37	C	-0.294488	0.391276	0.514429
C38	C	-0.999070	0.677237	0.544045
C39	C	-1.002054	0.750861	0.540167
C40	C	-1.048666	0.789464	0.478983
C41	C	-1.092293	0.754440	0.421668
C42	C	-1.089305	0.680818	0.425542
C43	C	-1.062435	1.009844	0.461038
C44	C	-1.065421	1.083471	0.457170
C45	C	-0.975180	1.079886	0.575669
C46	C	-0.972200	1.006262	0.579542
C47	C	-1.015824	0.971245	0.522222
N48	N	-1.051718	0.864719	0.475019
N49	N	-1.012768	0.895991	0.526182
C50	C	-1.024964	1.196845	0.510353
C51	C	-1.021796	1.118490	0.514479
C52	C	-1.032253	0.380723	0.946459
C53	C	-1.032252	0.380719	1.055692
C54	C	-1.032258	0.380720	1.249969
C55	C	-1.032255	0.380713	1.142755
H56	H	-0.633616	0.446454	0.586746
O57	O	-0.926949	0.968848	0.639099
C58	C	-0.943029	0.987402	0.735126
H59	H	-0.972300	1.041919	0.735785
H60	H	-0.892225	0.987914	0.775481
H61	H	-0.977561	0.947378	0.771764
H62	H	-0.304592	0.473476	0.622169
H63	H	-0.431616	0.314994	0.414435
O64	O	-0.620901	0.275334	0.362398
C65	C	-0.548413	0.282073	0.371266
H66	H	-0.540522	0.336109	0.399309
H67	H	-0.520229	0.276077	0.297810
H68	H	-0.525872	0.239483	0.423849
H69	H	-0.760639	0.287969	0.379018
O70	O	-0.953732	0.639847	0.603506
C71	C	-0.915881	0.686547	0.653274
H72	H	-0.915591	0.738942	0.610869
H73	H	-0.859471	0.663088	0.661683
H74	H	-0.941970	0.695375	0.727514
H75	H	-0.939663	1.108405	0.622333
O76	O	-1.110719	1.120864	0.397646
C77	C	-1.148595	1.074171	0.347902
H78	H	-1.117595	1.020556	0.345755
H79	H	-1.157021	1.095766	0.271194
H80	H	-1.201794	1.068434	0.386529
H81	H	-0.298058	0.309619	0.407409
H82	H	-0.966523	0.779369	0.586825
H83	H	-1.130242	0.785877	0.371846
O84	O	-1.104713	0.975801	0.405258
C85	C	-1.062895	0.931644	0.343035
H86	H	-1.008278	0.951645	0.332906
H87	H	-1.088405	0.931841	0.270229
H88	H	-1.058189	0.875740	0.375654
O89	O	-1.131651	0.646874	0.369733
C90	C	-1.117020	0.664273	0.271817
H91	H	-1.092094	0.716665	0.265541
H92	H	-1.168022	0.668802	0.231183
H93	H	-1.079113	0.621424	0.239549
O94	O	-0.773137	0.459172	0.603468
C95	C	-0.726448	0.497095	0.653149
H96	H	-0.672822	0.466114	0.655318
H97	H	-0.748030	0.505557	0.729850
H98	H	-0.720736	0.550278	0.614456
H99	H	-0.438160	0.478849	0.629205
