data_functionalizedCrystal
_audit_creation_method	'MofGen! by Chris Wilmer'
_symmetry_space_group_name_H-M	'P1'
_symmetry_Int_Tables_number	1
_symmetry_cell_setting	triclinic
loop_
_symmetry_equiv_pos_as_xyz
  x,y,z
_cell_length_a	31.640172
_cell_length_b	14.628931
_cell_length_c	14.628931
_cell_angle_alpha	59.999836
_cell_angle_beta	90.003905
_cell_angle_gamma	59.998250
loop_
_atom_site_label
_atom_site_type_symbol
_atom_site_fract_x
_atom_site_fract_y
_atom_site_fract_z
Zr1	Zr	0.407183	1.000467	-0.119845
O2	O	0.339693	1.191191	-0.265825
O3	O	0.427872	0.809756	-0.075094
O4	O	0.427872	1.000462	-0.265800
O5	O	0.339693	1.000486	0.075312
O6	O	0.497429	1.000443	-0.265780
O7	O	0.339693	1.000486	-0.075120
O8	O	0.497429	0.659305	0.075358
O9	O	0.339693	1.341623	-0.265826
O10	O	0.488605	0.888180	-0.055993
O11	O	0.436695	0.888194	0.056257
O12	O	0.436696	1.112725	-0.168274
O13	O	0.384786	1.112739	-0.056024
Zr14	Zr	0.518118	1.000437	0.120109
Zr15	Zr	0.518118	1.000437	-0.119813
Zr16	Zr	0.407183	1.000467	0.120077
Zr17	Zr	0.407183	1.240389	-0.119845
Zr18	Zr	0.518118	0.760516	0.120109
O19	O	0.497429	1.191148	0.075358
O20	O	0.497429	1.191148	-0.265780
O21	O	0.339693	1.191191	0.075312
O22	O	0.585607	0.809713	0.266089
O23	O	0.585608	0.809713	-0.075048
O24	O	0.427871	0.809756	0.266044
O25	O	0.585608	1.000419	-0.075049
O26	O	0.497429	1.000443	0.266063
O27	O	0.427872	1.000462	0.266043
O28	O	0.585608	1.000419	0.075383
O29	O	0.427872	1.341599	-0.265800
O30	O	0.497428	0.659305	0.266064
O31	O	0.585607	0.659281	0.266089
O32	O	0.585607	0.659281	0.075384
O33	O	0.339693	1.341623	-0.075120
O34	O	0.427872	1.341599	-0.075095
O35	O	0.488605	0.888180	0.168538
O36	O	0.540515	0.888165	0.056287
O37	O	0.488605	1.112711	-0.055994
O38	O	0.436696	1.112725	0.056257
C39	C	0.462650	0.700347	0.000132
C40	C	0.462650	0.598494	0.000132
C41	C	0.488401	0.553078	-0.055551
C42	C	0.488401	0.447808	-0.055553
C43	C	0.323887	1.000490	0.000092
C44	C	0.276792	1.000503	0.000078
C45	C	0.011882	0.883230	0.058764
C46	C	-0.165103	0.883207	0.058786
O47	O	-0.164944	0.783524	0.108672
N48	N	-0.214329	1.000417	0.000175
C49	C	-0.219308	1.117640	-0.058440
O50	O	-0.265238	1.217334	-0.108282
C51	C	-0.042323	1.117661	-0.058454
C52	C	0.006902	1.000444	0.000151
C53	C	0.061105	0.766022	0.117366
C54	C	0.105349	0.766029	0.117355
C55	C	0.100369	0.883243	0.058742
C56	C	0.051146	1.000451	0.000140
C57	C	-0.047302	1.234884	-0.117062
C58	C	-0.003051	1.234878	-0.117058
C59	C	0.046174	1.117661	-0.058453
C60	C	0.090409	1.117672	-0.058484
N61	N	0.139635	1.000463	0.000127
C62	C	0.144615	0.883248	0.058740
C63	C	-0.312225	1.117621	-0.058429
C64	C	-0.356471	1.117616	-0.058427
C65	C	-0.302263	0.883183	0.058800
C66	C	-0.258017	0.883189	0.058791
C67	C	-0.262999	1.000412	0.000182
C68	C	0.237527	0.883271	0.058711
C69	C	0.281772	0.883289	0.058691
C70	C	0.227560	1.117721	-0.058531
C71	C	0.183319	1.117705	-0.058516
C72	C	0.188306	1.000469	0.000113
O73	O	0.090290	1.217304	-0.108334
O74	O	0.190550	0.783570	0.108595
C75	C	-0.032361	0.883223	0.058775
C76	C	-0.081584	1.000431	0.000173
C77	C	-0.086564	1.117645	-0.058440
C78	C	-0.125830	1.000426	0.000175
C79	C	-0.120851	0.883211	0.058788
C80	C	-0.071625	0.766002	0.117399
C81	C	-0.027381	0.766009	0.117388
C82	C	-0.135790	1.234855	-0.117051
C83	C	-0.180031	1.234838	-0.117036
C84	C	-0.175051	1.117624	-0.058423
C85	C	0.601414	1.000415	0.000172
C86	C	0.648509	1.000402	0.000185
C87	C	0.462651	1.000452	-0.299973
C88	C	0.462651	1.000452	-0.401826
C89	C	0.462651	1.300558	0.000131
C90	C	0.462651	1.402411	0.000131
C91	C	0.499067	1.000442	-0.552490
C92	C	0.499068	1.000442	-0.447220
C93	C	0.462650	1.000452	0.300237
C94	C	0.462650	1.000452	0.402090
C95	C	0.601413	0.700309	0.000172
C96	C	0.648508	0.598443	0.000186
C97	C	0.462650	0.700347	0.300238
C98	C	0.462650	0.598494	0.402091
C99	C	0.601413	0.700309	0.300278
C100	C	0.648508	0.598443	0.402144
C101	C	0.323888	1.300595	-0.300014
C102	C	0.276793	1.402461	-0.401880
C103	C	0.323887	1.300595	0.000091
C104	C	0.276792	1.402461	0.000078
C105	C	0.462651	1.300558	-0.299974
C106	C	0.462651	1.402411	-0.401827
C107	C	0.643528	0.550614	-0.058427
C108	C	0.687775	0.454913	-0.058436
C109	C	0.737001	0.407038	0.000174
C110	C	0.741980	0.454877	0.058789
C111	C	0.697734	0.550582	0.058791
C112	C	0.697725	0.550599	0.391388
C113	C	0.741980	0.454898	0.487094
C114	C	0.737017	0.407038	0.593554
C115	C	0.687794	0.454892	0.604308
C116	C	0.643540	0.550597	0.508603
C117	C	0.227575	1.450317	-0.391124
C118	C	0.183321	1.546048	-0.486830
C119	C	0.188284	1.593913	-0.593290
C120	C	0.237507	1.546053	-0.604044
C121	C	0.281760	1.450331	-0.508340
C122	C	0.281772	1.450301	0.058681
C123	C	0.237526	1.546028	0.058664
C124	C	0.188300	1.593907	0.000050
C125	C	0.183321	1.546063	-0.058560
C126	C	0.227567	1.450344	-0.058549
C127	C	0.488400	0.553078	0.503199
C128	C	0.488401	0.447808	0.608471
H129	H	0.321853	0.787832	0.106418
H130	H	0.510444	0.592135	0.511825
H131	H	0.431471	1.000468	-0.558865
H132	H	0.701777	0.589553	0.304711
Br133	Br	0.116510	1.611052	-0.138100
Br134	Br	0.808775	0.389971	0.472473
Br135	Br	0.348573	1.385348	0.138234
H136	H	0.440601	0.441467	0.047801
Br137	Br	0.220799	1.385424	-0.138084
H138	H	0.773055	0.329108	0.671473
Br139	Br	0.525151	0.618151	-0.135007
H140	H	0.510445	0.408757	-0.103231
Br141	Br	-0.064875	0.606926	0.196938
Br142	Br	0.525153	0.382706	0.753036
H143	H	0.683760	0.415910	0.691001
H144	H	0.603450	0.589593	-0.106168
Br145	Br	0.425908	0.533403	0.079605
H146	H	0.143237	1.213153	-0.106252
H147	H	0.603467	0.589540	0.517377
H148	H	0.782065	0.415883	0.106507
H149	H	0.431473	1.000454	-0.440876
H150	H	0.440606	0.441456	0.511443
H151	H	0.440602	0.559447	0.393464
Br152	Br	0.704502	0.615476	0.138352
H153	H	0.223524	1.411351	-0.304448
Br154	Br	0.116526	1.610978	-0.472209
H155	H	0.241595	0.787807	0.106454
H156	H	0.152276	1.671847	0.000050
H157	H	0.152246	1.671856	-0.671210
H158	H	0.241542	1.585038	-0.690735
H159	H	0.145427	0.670579	0.165073
H160	H	0.321834	1.411367	-0.517111
H161	H	0.241590	1.584966	0.106395
H162	H	0.530243	1.000441	-0.591541
H163	H	0.065169	0.670567	0.165101
H164	H	-0.217938	0.787740	0.106523
H165	H	-0.396549	1.213066	-0.106164
Br166	Br	-0.318997	1.276725	-0.137980
Br167	Br	-0.114099	1.393975	-0.196594
Br168	Br	-0.295513	0.724106	0.138345
H169	H	0.223514	1.213154	-0.106256
Br170	Br	-0.009818	1.393976	-0.196599
H171	H	0.012697	0.670558	0.165113
Br172	Br	0.797044	0.277150	0.000160
Br173	Br	-0.246835	1.393935	-0.196585
H174	H	0.683711	0.415974	-0.106167
H175	H	-0.139853	1.330307	-0.164783
H176	H	0.530247	1.000427	-0.408157
