data_functionalizedCrystal
_audit_creation_method	'MofGen! by Chris Wilmer'
_symmetry_space_group_name_H-M	'P1'
_symmetry_Int_Tables_number	1
_symmetry_cell_setting	triclinic
loop_
_symmetry_equiv_pos_as_xyz
  x,y,z
_cell_length_a	18.050589
_cell_length_b	18.050591
_cell_length_c	18.050582
_cell_angle_alpha	89.979078
_cell_angle_beta	90.018205
_cell_angle_gamma	89.975773
loop_
_atom_site_label
_atom_site_type_symbol
_atom_site_fract_x
_atom_site_fract_y
_atom_site_fract_z
Zn1	Zn	-0.295786	-1.135293	0.420054
Zn2	Zn	0.204214	-0.635293	0.920054
Zn3	Zn	-0.419969	-1.135203	0.295873
Zn4	Zn	0.080031	-0.635203	0.795873
Zn5	Zn	-0.295789	-1.011112	0.295865
Zn6	Zn	0.204211	-0.511112	0.795865
Zn7	Zn	-0.419930	-1.011060	0.420009
Zn8	Zn	0.080070	-0.511060	0.920009
O9	O	-0.357868	-1.073167	0.357950
O10	O	0.142132	-0.573167	0.857950
O11	O	-0.312274	-1.239205	0.403603
O12	O	0.187726	-0.739205	0.903603
O13	O	-0.403514	-1.118727	0.191948
O14	O	0.096486	-0.618727	0.691948
O15	O	-0.191864	-1.027644	0.312354
O16	O	0.308136	-0.527644	0.812354
O17	O	-0.403511	-1.239140	0.312369
O18	O	0.096489	-0.739140	0.812369
O19	O	-0.191862	-1.118879	0.403595
O20	O	0.308138	-0.618879	0.903595
O21	O	-0.312279	-1.027557	0.191942
O22	O	0.187721	-0.527557	0.691942
O23	O	-0.312241	-0.907180	0.312311
O24	O	0.187759	-0.407180	0.812311
O25	O	-0.403444	-1.027555	0.523940
O26	O	0.096556	-0.527555	1.023940
O27	O	-0.403447	-0.907142	0.403519
O28	O	0.096553	-0.407142	0.903519
O29	O	-0.312236	-1.118828	0.523973
O30	O	0.187764	-0.618828	1.023973
O31	O	-0.523888	-1.118676	0.312325
O32	O	-0.023888	-0.618676	0.812325
O33	O	-0.523860	-1.027468	0.403527
O34	O	-0.023860	-0.527468	0.903527
C35	C	-0.357841	-0.880215	0.357909
C36	C	0.142159	-0.380215	0.857909
C37	C	-0.357847	-0.797669	0.357909
C38	C	0.142153	-0.297669	0.857909
C39	C	-0.550820	-1.073077	0.357938
C40	C	-0.050820	-0.573077	0.857938
C41	C	-0.633366	-1.073107	0.357958
C42	C	-0.133366	-0.573107	0.857958
C43	C	-0.357835	-1.073196	0.551656
C44	C	0.142165	-0.573196	1.051656
C45	C	-0.357821	-1.073208	0.634202
C46	C	0.142179	-0.573208	1.134202
C47	C	-0.832828	-1.023557	0.407536
C48	C	-0.332828	-0.523557	0.907536
C49	C	-0.882261	-1.005459	0.339767
C50	C	-0.382261	-0.505459	0.839767
C51	C	-0.784497	-1.073180	0.357967
C52	C	-0.284497	-0.573180	0.857967
C53	C	-0.882146	-1.091314	0.425744
C54	C	-0.382146	-0.591314	0.925744
C55	C	-0.930482	-1.073249	0.357983
C56	C	-0.430482	-0.573249	0.857983
C57	C	-0.832842	-1.055046	0.290162
C58	C	-0.332842	-0.555046	0.790162
C59	C	-0.832722	-1.140933	0.376186
C60	C	-0.332722	-0.640933	0.876186
C61	C	-0.882133	-1.122861	0.308370
C62	C	-0.382133	-0.622861	0.808370
C63	C	-0.700398	-1.073138	0.357959
C64	C	-0.200398	-0.573138	0.857959
C65	C	-1.014578	-1.073291	0.357983
C66	C	-0.514578	-0.573291	0.857983
C67	C	-0.164163	-1.073277	0.357979
C68	C	0.335837	-0.573277	0.857979
C69	C	-0.081617	-1.073324	0.357991
C70	C	0.418383	-0.573324	0.857991
C71	C	-0.357897	-1.266872	0.357992
C72	C	0.142103	-0.766872	0.857992
C73	C	-0.357909	-1.349418	0.358010
C74	C	0.142091	-0.849418	0.858010
C75	C	-0.308191	-0.598217	0.308425
C76	C	0.191809	-0.098217	0.808425
C77	C	-0.375927	-0.548798	0.290154
C78	C	0.124073	-0.048798	0.790154
C79	C	-0.357869	-0.646539	0.357943
C80	C	0.142131	-0.146539	0.857943
C81	C	-0.290157	-0.548877	0.376212
C82	C	0.209843	-0.048877	0.876212
C83	C	-0.357885	-0.500553	0.357974
C84	C	0.142115	-0.000553	0.857974
C85	C	-0.425641	-0.598206	0.339637
C86	C	0.074359	-0.098206	0.839637
C87	C	-0.339825	-0.598289	0.425726
C88	C	0.160175	-0.098289	0.925726
C89	C	-0.407607	-0.548892	0.407481
C90	C	0.092393	-0.048892	0.907481
C91	C	-0.357859	-0.730637	0.357923
C92	C	0.142141	-0.230637	0.857923
C93	C	-0.357903	-0.416457	0.357994
C94	C	0.142097	0.083543	0.857994
C95	C	-0.357848	-1.073181	0.164998
C96	C	0.142152	-0.573181	0.664998
C97	C	-0.357652	-1.073312	0.082453
C98	C	0.142348	-0.573312	0.582453
C99	C	-0.407353	-1.023612	0.833635
C100	C	0.092647	-0.523612	1.333635
C101	C	-0.425511	-1.091367	0.883034
C102	C	0.074489	-0.591367	1.383034
C103	C	-0.357765	-1.073245	0.785332
C104	C	0.142235	-0.573245	1.285332
C105	C	-0.339586	-1.005527	0.883014
C106	C	0.160414	-0.505527	1.383014
C107	C	-0.357711	-1.073274	0.931317
C108	C	0.142289	-0.573274	1.431317
C109	C	-0.375958	-1.141036	0.833645
C110	C	0.124042	-0.641036	1.333645
C111	C	-0.290002	-1.055150	0.833620
C112	C	0.209998	-0.555150	1.333620
C113	C	-0.308134	-1.122952	0.882998
C114	C	0.191866	-0.622952	1.382998
C115	C	-0.357797	-1.073227	0.701234
C116	C	0.142203	-0.573227	1.201234
C117	C	-0.357679	-1.073300	1.015414
C118	C	0.142321	-0.573300	1.515414
H119	H	-0.811178	-0.981531	0.449395
H120	H	-0.311178	-0.481531	0.949395
C121	C	-0.886161	-1.160420	0.180843
C122	C	-0.386161	-0.660420	0.680843
C123	C	-0.911184	-1.179550	0.251729
C124	C	-0.411184	-0.679550	0.751729
H125	H	-0.904102	-1.195413	0.145875
H126	H	-0.404102	-0.695413	0.645875
H127	H	-0.833545	-1.160417	0.180251
H128	H	-0.333545	-0.660417	0.680251
H129	H	-0.903878	-1.112458	0.168324
H130	H	-0.403878	-0.612458	0.668324
H131	H	-0.893463	-1.227509	0.264250
H132	H	-0.393463	-0.727509	0.764250
H133	H	-0.963812	-1.179561	0.252323
H134	H	-0.463812	-0.679561	0.752323
C135	C	-0.521985	-0.601732	0.247963
C136	C	-0.021985	-0.101732	0.747963
C137	C	-0.502977	-0.627328	0.318700
C138	C	-0.002977	-0.127328	0.818700
H139	H	-0.569730	-0.619708	0.235040
H140	H	-0.069730	-0.119708	0.735040
H141	H	-0.486670	-0.619019	0.213005
H142	H	0.013330	-0.119019	0.713005
H143	H	-0.522460	-0.549107	0.247877
H144	H	-0.022460	-0.049107	0.747877
H145	H	-0.502497	-0.679953	0.318785
H146	H	-0.002497	-0.179953	0.818785
H147	H	-0.538302	-0.610044	0.353667
H148	H	-0.038302	-0.110044	0.853667
C149	C	-0.461045	-1.213274	0.761326
C150	C	0.038955	-0.713274	1.261326
C151	C	-0.396783	-1.218385	0.804502
C152	C	0.103217	-0.718385	1.304502
H153	H	-0.473904	-1.261026	0.743338
H154	H	0.026096	-0.761026	1.243338
H155	H	-0.452382	-1.180962	0.720703
H156	H	0.047618	-0.680962	1.220703
H157	H	-0.500433	-1.194378	0.790663
H158	H	-0.000433	-0.694378	1.290663
H159	H	-0.357394	-1.237276	0.775164
H160	H	0.142606	-0.737276	1.275164
H161	H	-0.405442	-1.250709	0.845131
H162	H	0.094558	-0.750709	1.345131
C163	C	-0.954336	-0.933192	0.254384
C164	C	-0.454336	-0.433192	0.754384
C165	C	-0.911641	-0.928153	0.318964
C166	C	-0.411641	-0.428153	0.818964
H167	H	-0.972468	-0.885464	0.241545
H168	H	-0.472468	-0.385464	0.741545
H169	H	-0.994860	-0.965704	0.262660
H170	H	-0.494860	-0.465704	0.762660
H171	H	-0.924630	-0.951813	0.215147
H172	H	-0.424630	-0.451813	0.715147
H173	H	-0.941348	-0.909537	0.358203
H174	H	-0.441348	-0.409537	0.858203
H175	H	-0.871111	-0.895630	0.310693
H176	H	-0.371111	-0.395630	0.810693
C177	C	-0.828160	-1.237063	0.468038
C178	C	-0.328160	-0.737063	0.968038
C179	C	-0.803318	-1.218218	0.397011
C180	C	-0.303318	-0.718218	0.897011
H181	H	-0.810001	-1.284774	0.480901
H182	H	-0.310001	-0.784774	0.980901
H183	H	-0.880774	-1.237542	0.468638
H184	H	-0.380774	-0.737542	0.968638
H185	H	-0.810540	-1.201659	0.502746
H186	H	-0.310540	-0.701659	1.002746
H187	H	-0.820943	-1.253619	0.362303
H188	H	-0.320943	-0.753619	0.862303
H189	H	-0.750693	-1.217745	0.396406
H190	H	-0.250693	-0.717745	0.896406
H191	H	-0.266177	-1.164986	0.904535
H192	H	0.233823	-0.664986	1.404535
H193	H	-0.449673	-0.527370	0.449370
H194	H	0.050327	-0.027370	0.949370
H195	H	-0.324530	-0.620045	0.483019
H196	H	0.175470	-0.120045	0.983019
C197	C	-0.160914	-0.544529	0.345111
C198	C	0.339086	-0.044529	0.845111
C199	C	-0.212846	-0.519626	0.397062
C200	C	0.287154	-0.019626	0.897062
H201	H	-0.113185	-0.526476	0.357982
H202	H	0.386815	-0.026476	0.857982
H203	H	-0.174079	-0.526853	0.297316
H204	H	0.325921	-0.026853	0.797316
H205	H	-0.160252	-0.597151	0.344811
H206	H	0.339748	-0.097151	0.844811
H207	H	-0.213513	-0.467003	0.397357
H208	H	0.286487	0.032997	0.897357
H209	H	-0.199677	-0.537299	0.444868
H210	H	0.300323	-0.037299	0.944868
H211	H	-0.324232	-0.948246	0.904701
H212	H	0.175768	-0.448246	1.404701
C213	C	-0.988949	-1.112453	0.502129
C214	C	-0.488949	-0.612453	1.002129
C215	C	-0.911383	-1.111986	0.503111
C216	C	-0.411383	-0.611986	1.003111
H217	H	-1.006995	-1.125206	0.549895
H218	H	-0.506995	-0.625206	1.049895
H219	H	-1.005824	-1.147781	0.466986
H220	H	-0.505824	-0.647781	0.966986
H221	H	-1.006630	-1.064683	0.488851
H222	H	-0.506630	-0.564683	0.988851
H223	H	-0.893701	-1.159758	0.516384
H224	H	-0.393701	-0.659758	1.016384
H225	H	-0.894501	-1.076657	0.538266
H226	H	-0.394501	-0.576657	1.038266
H227	H	-0.449342	-0.981678	0.811961
H228	H	0.050658	-0.481678	1.311961
H229	H	-0.482794	-1.106690	0.904739
H230	H	0.017206	-0.606690	1.404739
C231	C	-0.217945	-0.970609	0.760490
C232	C	0.282055	-0.470609	1.260490
C233	C	-0.212697	-1.034441	0.804285
C234	C	0.287303	-0.534441	1.304285
H235	H	-0.170221	-0.957822	0.742374
H236	H	0.329779	-0.457822	1.242374
H237	H	-0.236927	-0.930986	0.789438
H238	H	0.263073	-0.430986	1.289438
H239	H	-0.250240	-0.979735	0.719947
H240	H	0.249760	-0.479735	1.219947
H241	H	-0.180407	-1.025312	0.844830
H242	H	0.319593	-0.525312	1.344830
H243	H	-0.193706	-1.074073	0.775335
H244	H	0.306294	-0.574073	1.275335
C245	C	-0.760614	-0.970012	0.217765
C246	C	-0.260614	-0.470012	0.717765
C247	C	-0.803736	-1.034282	0.212770
C248	C	-0.303736	-0.534282	0.712770
H249	H	-0.742649	-0.957190	0.169987
H250	H	-0.242649	-0.457190	0.669987
H251	H	-0.719975	-0.978643	0.250078
H252	H	-0.219975	-0.478643	0.750078
H253	H	-0.789978	-0.930611	0.236606
H254	H	-0.289978	-0.430611	0.736606
H255	H	-0.774370	-1.073684	0.193934
H256	H	-0.274370	-0.573684	0.693934
H257	H	-0.844381	-1.025654	0.180445
H258	H	-0.344381	-0.525654	0.680445
C259	C	-0.270628	-0.602474	0.180905
C260	C	0.229372	-0.102474	0.680905
C261	C	-0.251539	-0.627462	0.251837
C262	C	0.248461	-0.127462	0.751837
H263	H	-0.235657	-0.620533	0.145971
H264	H	0.264343	-0.120533	0.645971
H265	H	-0.270556	-0.549858	0.180220
H266	H	0.229444	-0.049858	0.680220
H267	H	-0.318613	-0.620096	0.168417
H268	H	0.181387	-0.120096	0.668417
H269	H	-0.203556	-0.609836	0.264329
H270	H	0.296444	-0.109836	0.764329
H271	H	-0.251603	-0.680089	0.252525
H272	H	0.248397	-0.180089	0.752525
H273	H	-0.391202	-0.527060	0.232844
H274	H	0.108798	-0.027060	0.732844
