data_functionalizedCrystal
_audit_creation_method	'MofGen! by Chris Wilmer'
_symmetry_space_group_name_H-M	'P1'
_symmetry_Int_Tables_number	1
_symmetry_cell_setting	triclinic
loop_
_symmetry_equiv_pos_as_xyz
  x,y,z
_cell_length_a	14.044191
_cell_length_b	10.489716
_cell_length_c	12.503572
_cell_angle_alpha	93.562900
_cell_angle_beta	86.162165
_cell_angle_gamma	88.860456
loop_
_atom_site_label
_atom_site_type_symbol
_atom_site_fract_x
_atom_site_fract_y
_atom_site_fract_z
O1	O	1.265205	0.301031	-0.089250
O2	O	0.989161	0.289915	-0.089265
O3	O	1.133477	0.110512	-0.089261
O4	O	1.120890	0.480435	-0.089254
O5	O	1.122624	0.124028	0.089381
O6	O	0.978308	0.303432	0.089377
O7	O	1.254352	0.314548	0.089391
Cu8	Cu	1.115339	0.310224	0.105696
Cu9	Cu	1.128174	0.294239	-0.105569
O10	O	1.110036	0.493951	0.089388
C11	C	0.948388	0.291811	0.000054
C12	C	0.843064	0.277308	0.000048
C13	C	0.593293	0.353654	0.000060
C14	C	0.650227	0.250814	0.000057
C15	C	0.757531	0.265558	0.000052
C16	C	0.485978	0.338912	0.000065
C17	C	1.127105	0.069642	0.000056
C18	C	1.124276	-0.072277	0.000047
C19	C	1.212774	-0.160971	0.000061
C20	C	1.171360	-0.249741	-0.088018
C21	C	1.160640	-0.236380	0.088108
C22	C	1.082904	-0.159183	-0.088106
C23	C	1.072191	-0.145810	0.088100
C24	C	1.030714	-0.234539	-0.000001
C25	C	1.295126	0.312651	0.000070
C26	C	1.400450	0.327155	0.000069
C27	C	1.116409	0.534821	0.000068
C28	C	1.119238	0.676740	0.000071
N29	N	1.106318	0.321467	0.254288
N30	N	1.137202	0.282987	-0.254161
C31	C	1.093049	0.338017	0.473402
C32	C	1.150469	0.266441	0.526731
C33	C	1.143086	0.275649	0.648654
C34	C	1.100431	0.328810	0.351468
H35	H	1.213243	-0.295079	-0.162481
H36	H	1.205174	0.198248	0.480819
O37	O	1.027664	0.419226	0.528118
C38	C	0.861237	0.478142	0.562771
C39	C	0.935177	0.386066	0.500740
H40	H	0.786445	0.451382	0.540642
H41	H	0.866756	0.471156	0.652780
H42	H	0.875784	0.580123	0.540756
H43	H	0.920678	0.284045	0.522665
H44	H	0.929641	0.393163	0.410746
H45	H	1.050094	-0.125308	-0.162652
H46	H	0.625137	0.452765	0.000059
H47	H	0.618386	0.151689	-0.000021
O48	O	0.938813	-0.272978	-0.000246
C49	C	0.793989	-0.277108	-0.093301
C50	C	0.898057	-0.233524	-0.093164
H51	H	0.761001	-0.245204	-0.168405
H52	H	0.792374	-0.385675	-0.092653
H53	H	0.751526	-0.232630	-0.018891
H54	H	0.940582	-0.277910	-0.167561
H55	H	0.899600	-0.124949	-0.093756
H56	H	1.289758	-0.128491	-0.000025
O57	O	1.022395	-0.091739	0.177044
C58	C	1.007098	-0.069617	0.370446
C59	C	1.063580	-0.130915	0.269798
H60	H	1.040362	-0.101288	0.445463
H61	H	1.009213	0.038875	0.369232
H62	H	0.929850	-0.101127	0.371150
H63	H	1.140851	-0.099505	0.269028
H64	H	1.061385	-0.239397	0.271052
O65	O	1.199960	-0.276851	0.176916
C66	C	1.340343	-0.285666	0.277216
C67	C	1.295916	-0.239737	0.176618
H68	H	1.417936	-0.255701	0.276997
H69	H	1.298902	-0.241190	0.352314
H70	H	1.337092	-0.394202	0.276772
H71	H	1.299159	-0.131212	0.176958
H72	H	1.337368	-0.284308	0.101565
