data_functionalizedCrystal
_audit_creation_method	'MofGen! by Chris Wilmer'
_symmetry_space_group_name_H-M	'P1'
_symmetry_Int_Tables_number	1
_symmetry_cell_setting	triclinic
loop_
_symmetry_equiv_pos_as_xyz
  x,y,z
_cell_length_a	17.699083
_cell_length_b	23.532407
_cell_length_c	16.176319
_cell_angle_alpha	89.988536
_cell_angle_beta	89.998611
_cell_angle_gamma	83.065847
loop_
_atom_site_label
_atom_site_type_symbol
_atom_site_fract_x
_atom_site_fract_y
_atom_site_fract_z
O1	O	1.003713	0.072020	-0.068639
O2	O	0.783287	0.081390	-0.068667
O3	O	0.900147	-0.006208	-0.068637
O4	O	0.886853	0.159618	-0.068669
O5	O	0.900131	-0.006213	0.068856
O6	O	0.783271	0.081384	0.068826
O7	O	1.003697	0.072014	0.068854
Cu8	Cu	0.893483	0.076699	0.081394
Cu9	Cu	0.893502	0.076705	-0.081207
O10	O	0.886837	0.159612	0.068824
C11	C	0.755084	0.081051	0.000076
C12	C	0.671071	0.080044	0.000066
C13	C	0.622189	0.131462	0.000056
C14	C	0.543251	0.130512	0.000067
C15	C	0.513196	0.078144	0.000082
C16	C	0.562084	0.026722	0.000094
C17	C	0.641021	0.027672	0.000089
C18	C	0.243740	0.022888	0.000115
C19	C	0.164797	0.021942	0.000117
C20	C	0.145970	0.125728	0.000093
C21	C	0.224907	0.126678	0.000088
C22	C	0.273788	0.075257	0.000105
C23	C	0.359382	0.076287	0.000094
C24	C	0.427603	0.077113	0.000086
C25	C	0.899801	-0.027427	0.000111
C26	C	0.898783	-0.090647	0.000118
C27	C	0.961554	-0.489570	0.000080
C28	C	0.960609	-0.548973	0.000074
O29	O	1.018799	-0.585550	0.000051
N30	N	0.891136	-0.571799	0.000066
C31	C	0.822604	-0.535218	0.000055
O32	O	0.763424	-0.560088	0.000047
C33	C	0.823550	-0.475816	0.000056
C34	C	0.893028	-0.452994	0.000073
C35	C	1.031026	-0.466747	0.000096
C36	C	1.031972	-0.407348	0.000104
C37	C	0.963445	-0.370772	0.000096
C38	C	0.893973	-0.393595	0.000080
C39	C	0.755019	-0.439237	0.000040
C40	C	0.755971	-0.379832	0.000039
C41	C	0.825448	-0.357009	0.000056
C42	C	0.826391	-0.297620	0.000081
N43	N	0.895864	-0.274795	0.000089
C44	C	0.964391	-0.311371	0.000097
C45	C	0.820622	-0.659966	0.000053
C46	C	0.819674	-0.719367	0.000058
C47	C	0.957680	-0.733118	0.000075
C48	C	0.958626	-0.673716	0.000076
C49	C	0.890095	-0.637141	0.000061
C50	C	0.966371	-0.186628	0.000114
C51	C	0.967310	-0.127223	0.000125
C52	C	0.829305	-0.113478	0.000104
C53	C	0.828365	-0.172877	0.000097
C54	C	0.896904	-0.209452	0.000099
O55	O	0.768232	-0.261008	0.000100
O56	O	1.023560	-0.286493	0.000094
C57	C	1.031901	0.072353	0.000109
C58	C	1.115914	0.073360	0.000114
C59	C	0.887184	0.180832	0.000073
C60	C	0.888202	0.244052	0.000062
N61	N	0.893475	0.076694	0.195759
N62	N	0.893516	0.076706	-0.195573
C63	C	0.945236	0.037921	0.239037
C64	C	0.945240	0.037921	0.325584
C65	C	0.893486	0.076696	0.368852
C66	C	0.841719	0.115470	0.325568
C67	C	0.841713	0.115467	0.239023
C68	C	0.841745	0.115481	0.674597
C69	C	0.841758	0.115481	0.761148
C70	C	0.945273	0.037934	0.761158
C71	C	0.945266	0.037932	0.674612
C72	C	0.893497	0.076704	0.631336
C73	C	0.893493	0.076703	0.537492
C74	C	0.893493	0.076700	0.462695
H75	H	0.503454	0.172382	0.000058
H76	H	0.283530	-0.018983	0.000129
H77	H	0.537607	-0.015917	0.000117
H78	H	0.680820	-0.014197	0.000096
O79	O	0.762671	-0.078023	0.000127
C80	C	0.701142	-0.110900	0.000086
H81	H	0.720681	-0.155263	0.026125
H82	H	0.653148	-0.088926	0.039987
H83	H	0.679843	-0.115094	-0.065883
H84	H	0.987383	0.006349	0.203814
H85	H	0.987387	0.006349	0.360820
H86	H	1.013478	-0.762909	0.000079
H87	H	0.249373	0.169322	0.000072
O88	O	0.651255	0.182383	0.000077
C89	C	0.591179	0.227562	0.000052
H90	H	0.537673	0.211669	0.026089
H91	H	0.607402	0.264130	0.039961
H92	H	0.579886	0.243420	-0.065913
H93	H	1.023889	-0.108645	0.000141
O94	O	0.687460	-0.461302	-0.000017
C95	C	0.627190	-0.416271	-0.000009
H96	H	0.648111	-0.375943	-0.026029
H97	H	0.578662	-0.428609	-0.039942
H98	H	0.606061	-0.407847	0.065949
H99	H	1.015201	-0.655139	0.000089
O100	O	1.033018	-0.222070	0.000156
C101	C	1.094531	-0.189177	0.000151
H102	H	1.074962	-0.144823	0.026181
H103	H	1.142514	-0.211150	0.040078
H104	H	1.115858	-0.184961	-0.065806
H105	H	0.106161	0.167598	0.000084
O106	O	0.135475	-0.028882	0.000100
C107	C	0.055321	-0.018691	0.000118
H108	H	0.036453	0.025777	-0.025927
H109	H	0.031331	-0.052194	-0.039788
H110	H	0.033365	-0.021418	0.066082
O111	O	0.995568	0.000210	0.632711
C112	C	1.041268	-0.034004	0.689468
H113	H	1.010250	-0.034616	0.751166
H114	H	1.053155	-0.079497	0.664477
H115	H	1.097351	-0.015565	0.698657
H116	H	0.987424	0.006362	0.796402
H117	H	0.799576	0.147040	0.360802
H118	H	0.799610	0.147058	0.796376
O119	O	1.099529	-0.385278	0.000077
C120	C	1.159801	-0.430308	0.000102
H121	H	1.138890	-0.470628	-0.025932
H122	H	1.208341	-0.417956	-0.039812
H123	H	1.180911	-0.438752	0.066066
O124	O	1.097580	-0.502295	-0.000041
C125	C	1.101179	-0.537070	-0.071237
H126	H	1.062310	-0.515268	-0.121018
H127	H	1.162201	-0.543813	-0.095126
H128	H	1.081936	-0.580249	-0.055140
O129	O	0.752117	-0.741438	0.000015
C130	C	0.691842	-0.696411	0.000032
H131	H	0.712755	-0.656080	-0.025990
H132	H	0.643311	-0.708752	-0.039895
H133	H	0.670720	-0.687989	0.065992
H134	H	0.764811	-0.630189	0.000048
H135	H	0.700163	-0.350054	0.000026
H136	H	0.771791	-0.191460	0.000106
H137	H	0.799563	0.147039	0.203787
H138	H	0.799595	0.147051	0.639368
