data_functionalizedCrystal
_audit_creation_method	'MofGen! by Chris Wilmer'
_symmetry_space_group_name_H-M	'P1'
_symmetry_Int_Tables_number	1
_symmetry_cell_setting	triclinic
loop_
_symmetry_equiv_pos_as_xyz
  x,y,z
_cell_length_a	16.625548
_cell_length_b	29.839131
_cell_length_c	29.839125
_cell_angle_alpha	89.982291
_cell_angle_beta	89.987766
_cell_angle_gamma	90.042488
loop_
_atom_site_label
_atom_site_type_symbol
_atom_site_fract_x
_atom_site_fract_y
_atom_site_fract_z
Zn1	Zn	1.232508	-0.178904	-0.254008
Zn2	Zn	1.565841	0.154430	0.079325
Zn3	Zn	1.899175	0.487763	0.412658
Zn4	Zn	1.232386	-0.254016	-0.178878
Zn5	Zn	1.565719	0.079318	0.154455
Zn6	Zn	1.899053	0.412651	0.487788
Zn7	Zn	1.097689	-0.178902	-0.178891
Zn8	Zn	1.431023	0.154432	0.154443
Zn9	Zn	1.764356	0.487765	0.487776
Zn10	Zn	1.097596	-0.254009	-0.253979
Zn11	Zn	1.430929	0.079325	0.079354
Zn12	Zn	1.764262	0.412658	0.412687
O13	O	1.165045	-0.216457	-0.216439
O14	O	1.498378	0.116876	0.116894
O15	O	1.831711	0.450209	0.450228
O16	O	1.345324	-0.188871	-0.244049
O17	O	1.678657	0.144462	0.089284
O18	O	2.011991	0.477796	0.422618
O19	O	1.214507	-0.244054	-0.116013
O20	O	1.547840	0.089280	0.217321
O21	O	1.881173	0.422613	0.550654
O22	O	1.115663	-0.116035	-0.188872
O23	O	1.448997	0.217298	0.144461
O24	O	1.782330	0.550632	0.477794
O25	O	1.345235	-0.244055	-0.188851
O26	O	1.678568	0.089278	0.144482
O27	O	2.011901	0.422611	0.477815
O28	O	1.214714	-0.116036	-0.244061
O29	O	1.548047	0.217297	0.089272
O30	O	1.881381	0.550631	0.422606
O31	O	1.115545	-0.188868	-0.116022
O32	O	1.448879	0.144465	0.217312
O33	O	1.782212	0.477799	0.550645
O34	O	0.984845	-0.188861	-0.188844
O35	O	1.318178	0.144472	0.144489
O36	O	1.651511	0.477805	0.477822
O37	O	1.115504	-0.244044	-0.316850
O38	O	1.448837	0.089290	0.016483
O39	O	1.782170	0.422623	0.349816
O40	O	0.984776	-0.244042	-0.244012
O41	O	1.318109	0.089291	0.089322
O42	O	1.651442	0.422625	0.422655
O43	O	1.214623	-0.188864	-0.316872
O44	O	1.547957	0.144469	0.016462
O45	O	1.881290	0.477802	0.349795
O46	O	1.214416	-0.316882	-0.188823
O47	O	1.547749	0.016452	0.144510
O48	O	1.881082	0.349785	0.477843
O49	O	1.115386	-0.316877	-0.244000
O50	O	1.448719	0.016457	0.089334
O51	O	1.782052	0.349790	0.422667
C52	C	0.955554	-0.216451	-0.216427
C53	C	1.288887	0.116882	0.116907
C54	C	1.622221	0.450216	0.450240
C55	C	0.865933	-0.216459	-0.216432
C56	C	1.199266	0.116874	0.116902
C57	C	1.532599	0.450208	0.450235
C58	C	0.537757	-0.216462	-0.216451
C59	C	0.871090	0.116871	0.116882
C60	C	1.204424	0.450205	0.450216
C61	C	0.629066	-0.216460	-0.216444
C62	C	0.962399	0.116873	0.116889
C63	C	1.295732	0.450207	0.450222
C64	C	0.701842	-0.216461	-0.216441
C65	C	1.035175	0.116873	0.116892
C66	C	1.368509	0.450206	0.450226
C67	C	0.793156	-0.216458	-0.216435
C68	C	1.126490	0.116875	0.116898
C69	C	1.459823	0.450208	0.450232
C70	C	1.164899	-0.333180	-0.216417
C71	C	1.498232	0.000153	0.116917
C72	C	1.831566	0.333487	0.450250
C73	C	1.164911	-0.383114	-0.216422
C74	C	1.498244	-0.049781	0.116911
C75	C	1.831577	0.283552	0.450244
C76	C	1.216703	-0.692748	-0.187751
C77	C	1.550037	-0.359414	0.145583
C78	C	1.883370	-0.026081	0.478916
C79	C	1.216803	-0.880421	-0.187768
C80	C	1.550136	-0.547087	0.145565
C81	C	1.883470	-0.213754	0.478899
O82	O	1.260724	-0.904677	-0.163373
O83	O	1.594057	-0.571344	0.169960
O84	O	1.927390	-0.238010	0.503293
N85	N	1.165212	-0.903899	-0.216473
N86	N	1.498545	-0.570566	0.116860
N87	N	1.831879	-0.237233	0.450194
C88	C	1.113596	-0.880457	-0.245178
C89	C	1.446929	-0.547124	0.088156
C90	C	1.780263	-0.213790	0.421489
O91	O	1.069723	-0.904733	-0.269597
O92	O	1.403056	-0.571400	0.063737
O93	O	1.736390	-0.238066	0.397070
C94	C	1.113501	-0.692785	-0.245162
C95	C	1.446835	-0.359451	0.088171
C96	C	1.780168	-0.026118	0.421505
C97	C	1.165090	-0.669309	-0.216452
C98	C	1.498423	-0.335975	0.116881
C99	C	1.831757	-0.002642	0.450215
C100	C	1.268288	-0.669272	-0.159043
C101	C	1.601622	-0.335938	0.174290
C102	C	1.934955	-0.002605	0.507623
C103	C	1.268260	-0.622356	-0.159038
C104	C	1.601593	-0.289023	0.174296
C105	C	1.934927	0.044311	0.507629
C106	C	1.216646	-0.598917	-0.187739
C107	C	1.549980	-0.265584	0.145594
C108	C	1.883313	0.067750	0.478928
C109	C	1.165061	-0.622393	-0.216446
C110	C	1.498395	-0.289060	0.116887
C111	C	1.831728	0.044274	0.450220
C112	C	1.061890	-0.669343	-0.273869
C113	C	1.395223	-0.336010	0.059465
C114	C	1.728557	-0.002676	0.392798
C115	C	1.061872	-0.622422	-0.273863
C116	C	1.395206	-0.289089	0.059470
C117	C	1.728539	0.044245	0.392804
C118	C	1.113461	-0.598946	-0.245153
C119	C	1.446794	-0.265613	0.088180
C120	C	1.780128	0.067721	0.421514
C121	C	1.113419	-0.552038	-0.245142
C122	C	1.446753	-0.218705	0.088191
C123	C	1.780086	0.114628	0.421525
N124	N	1.165010	-0.528560	-0.216437
N125	N	1.498344	-0.195226	0.116896
N126	N	1.831677	0.138107	0.450230
C127	C	1.216624	-0.551999	-0.187736
C128	C	1.549957	-0.218666	0.145598
C129	C	1.883291	0.114668	0.478931
C130	C	1.113648	-0.978987	-0.245183
C131	C	1.446982	-0.645654	0.088150
C132	C	1.780315	-0.312321	0.421484
C133	C	1.113671	-1.025905	-0.245186
C134	C	1.447004	-0.692572	0.088147
C135	C	1.780338	-0.359239	0.421480
C136	C	1.216879	-1.025866	-0.187777
C137	C	1.550212	-0.692533	0.145556
C138	C	1.883546	-0.359199	0.478889
C139	C	1.216852	-0.978947	-0.187772
C140	C	1.550185	-0.645614	0.145561
C141	C	1.883519	-0.312281	0.478895
C142	C	1.165239	-0.955509	-0.216478
C143	C	1.498573	-0.622176	0.116855
C144	C	1.831906	-0.288842	0.450188
C145	C	1.216560	-0.453473	-0.187725
C146	C	1.549893	-0.120140	0.145608
C147	C	1.883226	0.213193	0.478941
C148	C	1.216524	-0.406554	-0.187721
C149	C	1.549858	-0.073220	0.145613
C150	C	1.883191	0.260113	0.478946
C151	C	1.113319	-0.406597	-0.245131
C152	C	1.446653	-0.073264	0.088202
C153	C	1.779986	0.260070	0.421535
C154	C	1.113351	-0.453513	-0.245134
C155	C	1.446685	-0.120179	0.088199
C156	C	1.780018	0.213154	0.421532
C157	C	1.164978	-0.476949	-0.216430
C158	C	1.498311	-0.143616	0.116903
C159	C	1.831645	0.189717	0.450237
O160	O	1.069528	-0.527753	-0.269528
O161	O	1.402861	-0.194420	0.063806
O162	O	1.736195	0.138914	0.397139
O163	O	1.260503	-0.527715	-0.163327
O164	O	1.593836	-0.194381	0.170006
O165	O	1.927170	0.138952	0.503339
C166	C	1.216732	-0.739663	-0.187756
C167	C	1.550065	-0.406330	0.145577
C168	C	1.883399	-0.072997	0.478910
C169	C	1.165147	-0.763139	-0.216464
C170	C	1.498480	-0.429806	0.116870
C171	C	1.831814	-0.096473	0.450203
C172	C	1.113533	-0.739700	-0.245165
C173	C	1.446867	-0.406367	0.088168
C174	C	1.780200	-0.073034	0.421501
C175	C	1.165169	-0.810057	-0.216467
C176	C	1.498503	-0.476724	0.116866
C177	C	1.831836	-0.143391	0.450200
C178	C	1.216783	-0.833496	-0.187766
C179	C	1.550116	-0.500163	0.145568
C180	C	1.883450	-0.166830	0.478901
C181	C	1.268374	-0.810018	-0.159061
C182	C	1.601707	-0.476685	0.174273
C183	C	1.935041	-0.143351	0.507606
C184	C	1.268345	-0.763102	-0.159055
C185	C	1.601679	-0.429769	0.174278
C186	C	1.935012	-0.096436	0.507612
C187	C	1.061942	-0.763179	-0.273870
C188	C	1.395276	-0.429845	0.059463
C189	C	1.728609	-0.096512	0.392797
C190	C	1.061974	-0.810094	-0.273873
C191	C	1.395308	-0.476761	0.059460
C192	C	1.728641	-0.143428	0.392793
C193	C	1.113588	-0.833534	-0.245172
C194	C	1.446921	-0.500200	0.088162
C195	C	1.780255	-0.166867	0.421495
C196	C	1.375354	-0.216464	-0.216452
C197	C	1.708687	0.116869	0.116881
C198	C	2.042020	0.450203	0.450215
C199	C	1.464975	-0.216467	-0.216457
C200	C	1.798308	0.116866	0.116876
C201	C	2.131641	0.450200	0.450209
C202	C	1.165067	-0.216453	-0.333617
C203	C	1.498400	0.116880	-0.000284
C204	C	1.831733	0.450213	0.333049
C205	C	1.165076	-0.216452	-0.383552
C206	C	1.498409	0.116882	-0.050219
C207	C	1.831742	0.450215	0.283115
C208	C	1.165213	-0.099279	-0.216471
C209	C	1.498546	0.234054	0.116862
C210	C	1.831880	0.567388	0.450195
C211	C	1.165284	-0.049345	-0.216485
C212	C	1.498618	0.283989	0.116848
C213	C	1.831951	0.617322	0.450182
C214	C	1.216742	-0.187644	-0.693209
C215	C	1.550075	0.145689	-0.359876
C216	C	1.883408	0.479022	-0.026543
C217	C	1.216782	-0.187606	-0.880883
C218	C	1.550115	0.145727	-0.547549
C219	C	1.883448	0.479061	-0.214216
O220	O	1.260650	-0.163156	-0.905159
O221	O	1.593983	0.170178	-0.571826
O222	O	1.927316	0.503511	-0.238493
N223	N	1.165183	-0.216331	-0.904337
N224	N	1.498516	0.117002	-0.571004
N225	N	1.831849	0.450335	-0.237671
C226	C	1.113566	-0.245066	-0.880871
C227	C	1.446900	0.088267	-0.547537
C228	C	1.780233	0.421601	-0.214204
O229	O	1.069674	-0.269494	-0.905126
O230	O	1.403007	0.063839	-0.571793
O231	O	1.736340	0.397172	-0.238460
C232	C	1.113523	-0.245102	-0.693198
C233	C	1.446856	0.088232	-0.359865
C234	C	1.780190	0.421565	-0.026532
C235	C	1.165131	-0.216378	-0.669746
C236	C	1.498464	0.116955	-0.336413
C237	C	1.831798	0.450289	-0.003080
C238	C	1.268345	-0.158923	-0.669757
C239	C	1.601678	0.174411	-0.336424
C240	C	1.935012	0.507744	-0.003091
C241	C	1.268337	-0.158934	-0.622842
C242	C	1.601671	0.174399	-0.289508
C243	C	1.935004	0.507732	0.043825
C244	C	1.216727	-0.187668	-0.599379
C245	C	1.550060	0.145666	-0.266045
C246	C	1.883393	0.478999	0.067288
C247	C	1.165124	-0.216389	-0.622831
C248	C	1.498457	0.116944	-0.289497
C249	C	1.831790	0.450277	0.043836
C250	C	1.061903	-0.273834	-0.669733
C251	C	1.395237	0.059500	-0.336399
C252	C	1.728570	0.392833	-0.003066
C253	C	1.061896	-0.273839	-0.622812
C254	C	1.395229	0.059494	-0.289478
C255	C	1.728562	0.392827	0.043855
C256	C	1.113504	-0.245116	-0.599359
C257	C	1.446837	0.088218	-0.266026
C258	C	1.780170	0.421551	0.067307
C259	C	1.113506	-0.245134	-0.552452
C260	C	1.446839	0.088199	-0.219119
C261	C	1.780172	0.421532	0.114215
N262	N	1.165104	-0.216409	-0.528997
N263	N	1.498438	0.116924	-0.195664
N264	N	1.831771	0.450257	0.137669
C265	C	1.216715	-0.187676	-0.552461
C266	C	1.550048	0.145657	-0.219127
C267	C	1.883382	0.478991	0.114206
C268	C	1.113594	-0.245046	-0.979401
C269	C	1.446927	0.088287	-0.646068
C270	C	1.780261	0.421621	-0.312735
C271	C	1.113606	-0.245038	-1.026319
C272	C	1.446939	0.088296	-0.692986
C273	C	1.780272	0.421629	-0.359653
C274	C	1.216820	-0.187577	-1.026328
C275	C	1.550153	0.145756	-0.692995
C276	C	1.883487	0.479090	-0.359661
C277	C	1.216812	-0.187588	-0.979409
C278	C	1.550145	0.145745	-0.646076
C279	C	1.883479	0.479079	-0.312743
C280	C	1.165193	-0.216321	-0.955947
C281	C	1.498526	0.117013	-0.622613
C282	C	1.831860	0.450346	-0.289280
C283	C	1.216696	-0.187703	-0.453935
C284	C	1.550029	0.145631	-0.120601
C285	C	1.883363	0.478964	0.212732
C286	C	1.216686	-0.187718	-0.407015
C287	C	1.550020	0.145615	-0.073682
C288	C	1.883353	0.478948	0.259651
C289	C	1.113469	-0.245177	-0.407011
C290	C	1.446803	0.088156	-0.073677
C291	C	1.780136	0.421490	0.259656
C292	C	1.113482	-0.245163	-0.453926
C293	C	1.446815	0.088170	-0.120593
C294	C	1.780148	0.421503	0.212741
C295	C	1.165098	-0.216423	-0.477387
C296	C	1.498431	0.116911	-0.144054
C297	C	1.831764	0.450244	0.189280
O298	O	1.069654	-0.269568	-0.528146
O299	O	1.402987	0.063765	-0.194813
O300	O	1.736321	0.397098	0.138520
O301	O	1.260589	-0.163244	-0.528197
O302	O	1.593922	0.170089	-0.194863
O303	O	1.927256	0.503422	0.138470
C304	C	1.216749	-0.187633	-0.740125
C305	C	1.550082	0.145700	-0.406792
C306	C	1.883416	0.479034	-0.073458
C307	C	1.165146	-0.216355	-0.763577
C308	C	1.498479	0.116979	-0.430244
C309	C	1.831813	0.450312	-0.096910
C310	C	1.113535	-0.245088	-0.740114
C311	C	1.446869	0.088245	-0.406781
C312	C	1.780202	0.421579	-0.073447
C313	C	1.165158	-0.216346	-0.810495
C314	C	1.498491	0.116987	-0.477162
C315	C	1.831824	0.450320	-0.143828
C316	C	1.216768	-0.187613	-0.833958
C317	C	1.550102	0.145720	-0.500625
C318	C	1.883435	0.479054	-0.167292
C319	C	1.268367	-0.158888	-0.810504
C320	C	1.601700	0.174445	-0.477170
C321	C	1.935034	0.507779	-0.143837
C322	C	1.268360	-0.158899	-0.763588
C323	C	1.601693	0.174434	-0.430255
C324	C	1.935026	0.507767	-0.096922
C325	C	1.061936	-0.273813	-0.763568
C326	C	1.395270	0.059520	-0.430235
C327	C	1.728603	0.392853	-0.096902
C328	C	1.061949	-0.273800	-0.810484
C329	C	1.395282	0.059534	-0.477151
C330	C	1.728615	0.392867	-0.143817
C331	C	1.113559	-0.245066	-0.833947
C332	C	1.446893	0.088267	-0.500614
C333	C	1.780226	0.421600	-0.167281
C334	C	1.165069	-0.216429	-0.099717
C335	C	1.498403	0.116904	0.233617
C336	C	1.831736	0.450238	0.566950
C337	C	1.165216	-0.216304	-0.049782
C338	C	1.498550	0.117029	0.283551
C339	C	1.831883	0.450363	0.616884
H340	H	1.258534	-0.387441	-0.164340
H341	H	1.591867	-0.054107	0.168993
H342	H	1.925200	0.279226	0.502327
Cl343	Cl	1.333241	-0.122787	-0.734112
Cl344	Cl	1.666574	0.210547	-0.400779
Cl345	Cl	1.999907	0.543880	-0.067446
Cl346	Cl	1.048480	-0.483026	-0.281218
Cl347	Cl	1.381813	-0.149693	0.052115
Cl348	Cl	1.715147	0.183640	0.385449
H349	H	1.071466	-0.268557	-0.473022
H350	H	1.404799	0.064777	-0.139688
H351	H	1.738133	0.398110	0.193645
H352	H	1.258601	-0.472550	-0.164352
H353	H	1.591934	-0.139217	0.168981
H354	H	1.925267	0.194117	0.502314
Cl355	Cl	1.333207	-0.733597	-0.122962
Cl356	Cl	1.666540	-0.400263	0.210371
Cl357	Cl	1.999874	-0.066930	0.543704
Cl358	Cl	1.333246	-0.122801	-0.699245
Cl359	Cl	1.666580	0.210532	-0.365912
Cl360	Cl	1.999913	0.543865	-0.032579
Cl361	Cl	1.048696	-0.281172	-0.949912
Cl362	Cl	1.382030	0.052162	-0.616579
Cl363	Cl	1.715363	0.385495	-0.283246
Cl364	Cl	1.281582	-0.151569	-0.483421
Cl365	Cl	1.614915	0.181764	-0.150088
Cl366	Cl	1.948249	0.515098	0.183245
H367	H	1.310270	-0.603244	-0.135661
H368	H	1.643603	-0.269911	0.197672
H369	H	1.976937	0.063422	0.531006
H370	H	1.310323	-0.688351	-0.135671
H371	H	1.643656	-0.355017	0.197662
H372	H	1.976990	-0.021684	0.530996
Cl373	Cl	0.997023	-0.309948	-0.699204
Cl374	Cl	1.330356	0.023386	-0.365871
Cl375	Cl	1.663689	0.356719	-0.032537
H376	H	1.258860	-0.959836	-0.164394
H377	H	1.592193	-0.626502	0.168939
H378	H	1.925527	-0.293169	0.502272
Cl379	Cl	0.996998	-0.309962	-0.593319
Cl380	Cl	1.330331	0.023371	-0.259986
Cl381	Cl	1.663665	0.356704	0.073348
Cl382	Cl	1.281763	-1.055341	-0.151695
Cl383	Cl	1.615097	-0.722008	0.181638
Cl384	Cl	1.948430	-0.388674	0.514971
Cl385	Cl	1.048589	-0.281296	-0.377505
Cl386	Cl	1.381922	0.052038	-0.044172
Cl387	Cl	1.715255	0.385371	0.289162
Cl388	Cl	1.048804	-1.055412	-0.281275
Cl389	Cl	1.382138	-0.722079	0.052058
Cl390	Cl	1.715471	-0.388746	0.385391
H391	H	1.071590	-0.268432	-1.045410
H392	H	1.404924	0.064901	-0.712077
H393	H	1.738257	0.398234	-0.378743
H394	H	1.310361	-0.135543	-0.603751
H395	H	1.643694	0.197790	-0.270418
H396	H	1.977027	0.531123	0.062915
H397	H	1.310397	-0.829110	-0.135690
H398	H	1.643731	-0.495777	0.197644
H399	H	1.977064	-0.162444	0.530977
H400	H	1.258834	-0.164198	-0.960317
H401	H	1.592168	0.169136	-0.626984
H402	H	1.925501	0.502469	-0.293651
H403	H	1.258844	-0.164181	-1.045440
H404	H	1.592177	0.169152	-0.712106
H405	H	1.925511	0.502485	-0.378773
H406	H	1.019958	-0.829205	-0.297252
H407	H	1.353291	-0.495871	0.036081
H408	H	1.686624	-0.162538	0.369415
H409	H	1.310393	-0.135494	-0.829616
H410	H	1.643726	0.197840	-0.496282
H411	H	1.977060	0.531173	-0.162949
Cl412	Cl	0.997068	-0.309916	-0.839961
Cl413	Cl	1.330401	0.023417	-0.506628
Cl414	Cl	1.663735	0.356750	-0.173294
Cl415	Cl	1.048755	-0.949529	-0.281274
Cl416	Cl	1.382088	-0.616195	0.052060
Cl417	Cl	1.715422	-0.282862	0.385393
Cl418	Cl	0.997047	-0.309939	-0.734079
Cl419	Cl	1.330381	0.023394	-0.400746
Cl420	Cl	1.663714	0.356728	-0.067412
H421	H	1.019877	-0.688449	-0.297245
H422	H	1.353210	-0.355116	0.036088
H423	H	1.686544	-0.021783	0.369421
H424	H	1.019844	-0.603341	-0.297241
H425	H	1.353177	-0.270007	0.036093
H426	H	1.686511	0.063326	0.369426
H427	H	1.071294	-0.387506	-0.268498
H428	H	1.404627	-0.054172	0.064835
H429	H	1.737960	0.279161	0.398168
H430	H	1.019913	-0.744098	-0.297243
H431	H	1.353246	-0.410765	0.036090
H432	H	1.686580	-0.077432	0.369424
H433	H	1.258715	-0.164327	-0.387923
H434	H	1.592048	0.169006	-0.054589
H435	H	1.925381	0.502339	0.278744
