data_functionalizedCrystal
_audit_creation_method	'MofGen! by Chris Wilmer'
_symmetry_space_group_name_H-M	'P1'
_symmetry_Int_Tables_number	1
_symmetry_cell_setting	triclinic
loop_
_symmetry_equiv_pos_as_xyz
  x,y,z
_cell_length_a	26.210047
_cell_length_b	17.699083
_cell_length_c	17.699083
_cell_angle_alpha	83.283015
_cell_angle_beta	90.003602
_cell_angle_gamma	89.997010
loop_
_atom_site_label
_atom_site_type_symbol
_atom_site_fract_x
_atom_site_fract_y
_atom_site_fract_z
O1	O	0.042358	-1.004082	-0.095700
O2	O	0.042375	-0.783704	-0.108153
O3	O	0.042362	-0.900119	0.008263
O4	O	0.042372	-0.887667	-0.212116
O5	O	-0.042496	-0.900097	0.008244
O6	O	-0.042483	-0.783681	-0.108171
O7	O	-0.042500	-1.004060	-0.095719
Cu8	Cu	-0.050239	-0.893868	-0.101946
Cu9	Cu	0.050115	-0.893895	-0.101925
O10	O	-0.042486	-0.887644	-0.212134
C11	C	-0.000052	-0.755495	-0.107716
C12	C	-0.000045	-0.671477	-0.106377
C13	C	-0.000067	-0.899662	0.036451
C14	C	-0.000067	-0.898323	0.120469
N15	N	-0.120823	-0.893855	-0.101961
C16	C	-0.473343	-0.945438	-0.050388
C17	C	-0.687002	-0.945455	-0.050377
O18	O	-0.714629	-0.989284	-0.006531
N19	N	-0.713717	-0.893899	-0.101908
C20	C	-0.687015	-0.842332	-0.153442
O21	O	-0.714640	-0.798475	-0.197267
C22	C	-0.473357	-0.842312	-0.153449
C23	C	-0.446644	-0.893877	-0.101919
C24	C	-0.446631	-0.996998	0.001138
C25	C	-0.393219	-0.996996	0.001132
C26	C	-0.366520	-0.945434	-0.050400
C27	C	-0.393233	-0.893875	-0.101925
C28	C	-0.446655	-0.790742	-0.204978
C29	C	-0.393238	-0.790740	-0.204974
C30	C	-0.366525	-0.842305	-0.153445
C31	C	-0.313123	-0.842311	-0.153463
N32	N	-0.286407	-0.893867	-0.101932
C33	C	-0.313106	-0.945429	-0.050400
C34	C	-0.799188	-0.842347	-0.153436
C35	C	-0.852602	-0.842352	-0.153436
C36	C	-0.852586	-0.945475	-0.050370
C37	C	-0.799171	-0.945472	-0.050374
C38	C	-0.772473	-0.893903	-0.101905
C39	C	-0.200938	-0.945421	-0.050417
C40	C	-0.147522	-0.945417	-0.050429
C41	C	-0.147543	-0.842292	-0.153493
C42	C	-0.200955	-0.842299	-0.153483
C43	C	-0.227651	-0.893866	-0.101939
O44	O	-0.285463	-0.798499	-0.197280
O45	O	-0.285471	-0.989268	-0.006571
C46	C	-0.526755	-0.945440	-0.050382
C47	C	-0.553467	-0.893880	-0.101908
C48	C	-0.526769	-0.842319	-0.153439
C49	C	-0.606881	-0.893886	-0.101907
C50	C	-0.633580	-0.945448	-0.050375
C51	C	-0.606865	-0.997004	0.001156
C52	C	-0.553454	-0.997002	0.001150
C53	C	-0.553484	-0.790763	-0.204970
C54	C	-0.606895	-0.790769	-0.204961
C55	C	-0.633594	-0.842331	-0.153429
N56	N	0.120699	-0.893914	-0.101904
C57	C	-0.000072	-1.032268	-0.096156
C58	C	-0.000074	-1.116286	-0.097494
C59	C	-0.000042	-0.622856	-0.174711
C60	C	-0.000049	-0.543913	-0.173448
C61	C	-0.000055	-0.513592	-0.103852
C62	C	-0.000059	-0.562219	-0.035513
C63	C	-0.000056	-0.641161	-0.036776
C64	C	-0.000072	-0.243856	-0.030418
C65	C	-0.000074	-0.164908	-0.029160
C66	C	-0.000065	-0.146608	-0.167090
C67	C	-0.000062	-0.225550	-0.168353
C68	C	-0.000069	-0.274170	-0.100015
C69	C	-0.000063	-0.359769	-0.101384
C70	C	-0.000058	-0.427995	-0.102481
C71	C	-0.000056	-0.888102	-0.240322
C72	C	-0.000053	-0.889440	-0.324340
C73	C	-0.000073	-0.966656	0.169090
C74	C	-0.000069	-0.965394	0.248033
C75	C	-0.000062	-0.895798	0.278354
C76	C	-0.000054	-0.827459	0.229727
C77	C	-0.000055	-0.828722	0.150785
C78	C	-0.000050	-0.822364	0.548090
C79	C	-0.000050	-0.821106	0.627038
C80	C	-0.000063	-0.959036	0.645338
C81	C	-0.000064	-0.960299	0.566396
C82	C	-0.000054	-0.891961	0.517776
C83	C	-0.000058	-0.893330	0.432177
C84	C	-0.000061	-0.894427	0.363951
H85	H	-0.125774	-0.987410	-0.008468
H86	H	-0.222705	-0.800317	-0.195450
H87	H	-0.000075	-1.021038	0.287617
H88	H	-0.777424	-0.987460	-0.008415
H89	H	-0.874333	-0.987460	-0.008412
H90	H	-0.000042	-0.766718	0.508512
Br91	Br	-0.643142	-0.720787	-0.274904
H92	H	-0.000079	-0.283434	0.025228
H93	H	-0.628612	-1.038990	0.043112
H94	H	-0.000037	-0.647537	-0.231384
H95	H	-0.000046	-0.504328	-0.229092
Br96	Br	-0.000056	-0.080619	-0.259837
Br97	Br	-0.000041	-0.726647	0.668186
H98	H	-0.000045	-0.770792	0.254420
Br99	Br	-0.000043	-0.735980	0.084797
Br100	Br	-0.237160	-1.015406	0.019537
Br101	Br	-0.000073	-1.054754	0.525250
H102	H	-0.000082	-1.023330	0.144409
H103	H	-0.371473	-1.038982	0.043093
H104	H	-0.000072	-0.537526	0.021154
H105	H	-0.000055	-0.250232	-0.225025
H106	H	-0.000059	-0.680748	0.018868
Br107	Br	-0.482856	-1.066983	0.071084
Br108	Br	-0.888849	-0.772382	-0.223383
H109	H	-0.000079	-0.140225	0.027517
H110	H	-0.777454	-0.800351	-0.195401
Br111	Br	-0.482897	-0.720758	-0.274914
H112	H	-0.371503	-0.748743	-0.246936
H113	H	-0.125797	-0.800313	-0.195451
H114	H	-0.000069	-1.014680	0.684934
H115	H	-0.531708	-1.038991	0.043110
H116	H	-0.531750	-0.748774	-0.246932
