data_functionalizedCrystal
_audit_creation_method	'MofGen! by Chris Wilmer'
_symmetry_space_group_name_H-M	'P1'
_symmetry_Int_Tables_number	1
_symmetry_cell_setting	triclinic
loop_
_symmetry_equiv_pos_as_xyz
  x,y,z
_cell_length_a	14.971482
_cell_length_b	14.971494
_cell_length_c	13.448316
_cell_angle_alpha	89.995115
_cell_angle_beta	89.993798
_cell_angle_gamma	83.615083
loop_
_atom_site_label
_atom_site_type_symbol
_atom_site_fract_x
_atom_site_fract_y
_atom_site_fract_z
O1	O	1.186953	0.116548	-0.082675
O2	O	0.926553	0.130511	-0.082679
O3	O	1.063728	-0.006670	-0.082675
O4	O	1.049777	0.253729	-0.082680
O5	O	1.063711	-0.006679	0.082709
O6	O	0.926536	0.130502	0.082704
O7	O	1.186936	0.116540	0.082709
Cu8	Cu	1.056734	0.123520	0.097807
Cu9	Cu	1.056754	0.123530	-0.097778
O10	O	1.049760	0.253721	0.082704
C11	C	0.893219	0.129883	0.000012
C12	C	0.793922	0.128013	0.000010
C13	C	0.747268	0.127128	0.090162
C14	C	0.653969	0.125357	0.090163
C15	C	0.607326	0.124478	0.000011
C16	C	0.653987	0.125361	-0.090148
C17	C	0.747284	0.127125	-0.090148
C18	C	0.459525	0.121685	-0.090141
C19	C	0.366220	0.119923	-0.090141
C20	C	0.366210	0.119918	0.090170
C21	C	0.459507	0.121682	0.090169
C22	C	0.506162	0.122566	0.000010
C23	C	1.063094	-0.039999	0.000015
C24	C	1.061221	-0.139296	0.000011
C25	C	1.220269	0.117168	0.000015
C26	C	1.319566	0.119037	0.000010
C27	C	1.060352	-0.185936	-0.090141
C28	C	1.058586	-0.279235	-0.090142
C29	C	1.057695	-0.325893	0.000009
C30	C	1.058561	-0.279246	0.090168
C31	C	1.060321	-0.185948	0.090168
C32	C	1.054895	-0.473709	0.090161
C33	C	1.053137	-0.567014	0.090162
C34	C	1.053160	-0.566996	-0.090149
C35	C	1.054920	-0.473698	-0.090149
C36	C	1.055787	-0.427057	0.000010
C37	C	1.050394	0.287050	0.000012
C38	C	1.052268	0.386346	0.000010
N39	N	1.056726	0.123513	0.235372
N40	N	1.056769	0.123531	-0.235342
C41	C	1.117486	0.062794	0.287414
C42	C	1.117492	0.062793	0.391517
C43	C	1.056741	0.123516	0.443576
C44	C	0.995974	0.184238	0.391527
C45	C	0.995965	0.184234	0.287425
C46	C	0.995999	0.184244	0.608507
C47	C	0.996009	0.184250	0.712615
C48	C	1.117526	0.062804	0.712599
C49	C	1.117517	0.062799	0.608497
C50	C	1.056751	0.123522	0.556455
H51	H	0.328246	0.119207	-0.163551
O52	O	1.061363	-0.140588	-0.177686
C53	C	1.139769	-0.096638	-0.183083
H54	H	1.193351	-0.131780	-0.131940
H55	H	1.123596	-0.023663	-0.158848
C56	C	1.109072	-0.056572	-0.353613
C57	C	1.174885	-0.099739	-0.290806
H58	H	1.130732	-0.058480	-0.420062
H59	H	1.056247	-0.086179	-0.349977
H60	H	1.095601	0.004237	-0.333406
H61	H	1.188347	-0.160549	-0.311006
H62	H	1.227714	-0.070142	-0.294448
O63	O	0.792688	0.127864	0.177674
C64	C	0.856690	0.051466	0.183080
H65	H	0.874026	0.025930	0.104805
H66	H	0.827766	-0.003420	0.227568
C67	C	0.920962	0.108015	0.330763
C68	C	0.942260	0.076656	0.234624
H69	H	0.973745	0.123551	0.362562
H70	H	0.877841	0.159484	0.327124
H71	H	0.896858	0.062271	0.367824
H72	H	0.966353	0.122403	0.197562
H73	H	0.985388	0.025194	0.238259
H74	H	1.061015	-0.147973	0.163579
H75	H	1.057830	-0.317241	0.163571
O76	O	0.937095	0.243267	0.557841
C77	C	0.985051	0.298539	0.497624
H78	H	1.055000	0.263026	0.482020
H79	H	0.991201	0.364658	0.537732
C80	C	0.848724	0.361187	0.417910
C81	C	0.934635	0.317566	0.398738
H82	H	0.817624	0.372928	0.356915
H83	H	0.816415	0.323953	0.458482
H84	H	0.853862	0.416282	0.451336
H85	H	0.929496	0.262468	0.365325
H86	H	0.966942	0.354792	0.358159
H87	H	0.497481	0.122404	0.163579
O88	O	0.321028	0.119096	0.177841
C89	C	0.382206	0.120235	0.257410
H90	H	0.445038	0.149791	0.230976
H91	H	0.401439	0.048720	0.285136
C92	C	0.261003	0.141856	0.375048
C93	C	0.338171	0.178164	0.342584
H94	H	0.233840	0.177586	0.427590
H95	H	0.219786	0.141086	0.321442
H96	H	0.277042	0.082261	0.398147
H97	H	0.322130	0.237753	0.319474
H98	H	0.379384	0.178946	0.396188
O99	O	0.504702	0.122588	-0.177810
C100	C	0.443531	0.121418	-0.257381
H101	H	0.373348	0.148447	-0.230949
H102	H	0.442926	0.049531	-0.285110
C103	C	0.558536	0.147538	-0.375015
C104	C	0.472337	0.180743	-0.342552
H105	H	0.576306	0.184128	-0.427554
H106	H	0.599749	0.148323	-0.321407
H107	H	0.558021	0.087633	-0.398115
H108	H	0.472856	0.240642	-0.319440
H109	H	0.431124	0.179969	-0.396158
O110	O	1.052157	-0.612309	-0.177711
C111	C	0.973745	-0.656246	-0.183119
H112	H	0.920161	-0.621118	-0.131963
H113	H	0.989905	-0.729232	-0.158909
C114	C	1.004457	-0.696247	-0.353664
C115	C	0.938641	-0.653097	-0.290839
H116	H	0.982804	-0.694308	-0.420111
H117	H	1.057286	-0.666649	-0.350020
H118	H	1.017918	-0.757064	-0.333477
H119	H	0.925189	-0.592278	-0.311019
H120	H	0.885808	-0.682685	-0.294489
O121	O	1.176611	0.003788	0.441917
C122	C	1.230222	-0.049815	0.373645
H123	H	1.231251	-0.013143	0.299431
H124	H	1.201127	-0.116319	0.362595
C125	C	1.325434	-0.113107	0.505399
C126	C	1.326704	-0.068063	0.414250
H127	H	1.384947	-0.124367	0.530447
H128	H	1.289313	-0.076997	0.551396
H129	H	1.301183	-0.168522	0.496178
H130	H	1.350943	-0.012644	0.423474
H131	H	1.362831	-0.104164	0.368256
H132	H	1.166961	0.013350	0.245034
H133	H	0.616003	0.124638	-0.163551
H134	H	1.055652	-0.435712	-0.163559
H135	H	1.055582	-0.435735	0.163579
H136	H	0.946505	0.233677	0.433919
O137	O	1.052442	-0.612391	0.177714
C138	C	1.128829	-0.676407	0.183094
H139	H	1.183455	-0.655304	0.131922
H140	H	1.110007	-0.744850	0.158885
C141	C	1.096812	-0.708307	0.353647
C142	C	1.163907	-0.682383	0.290803
H143	H	1.118448	-0.711997	0.420087
H144	H	1.045346	-0.665180	0.350022
H145	H	1.081133	-0.765340	0.333461
H146	H	1.179577	-0.625346	0.310982
H147	H	1.215377	-0.725500	0.294434
H148	H	1.166989	0.013359	0.566111
O149	O	0.792463	0.128028	-0.177810
C150	C	0.731293	0.126854	-0.257382
H151	H	0.661111	0.153890	-0.230952
H152	H	0.730684	0.054966	-0.285102
C153	C	0.846302	0.152956	-0.375018
C154	C	0.760103	0.186169	-0.342559
H155	H	0.864074	0.189540	-0.427561
H156	H	0.887515	0.153743	-0.321410
H157	H	0.845783	0.093049	-0.398111
H158	H	0.760626	0.246070	-0.319454
H159	H	0.718891	0.185393	-0.396165
H160	H	1.167003	0.013361	0.754978
H161	H	0.615990	0.124622	0.163574
H162	H	1.057882	-0.317205	-0.163553
H163	H	0.946538	0.233695	0.754996
H164	H	0.946487	0.233676	0.245053
