data_functionalizedCrystal
_audit_creation_method	'MofGen! by Chris Wilmer'
_symmetry_space_group_name_H-M	'P1'
_symmetry_Int_Tables_number	1
_symmetry_cell_setting	triclinic
loop_
_symmetry_equiv_pos_as_xyz
  x,y,z
_cell_length_a	14.395555
_cell_length_b	14.395555
_cell_length_c	17.917603
_cell_angle_alpha	63.036904
_cell_angle_beta	90.004294
_cell_angle_gamma	59.996404
loop_
_atom_site_label
_atom_site_type_symbol
_atom_site_fract_x
_atom_site_fract_y
_atom_site_fract_z
Zr1	Zr	0.900162	1.006159	-0.093827
O2	O	0.758284	1.187029	-0.208042
O3	O	0.943663	0.816321	-0.058814
O4	O	0.952097	0.993218	-0.208034
O5	O	0.743188	1.023468	0.058886
O6	O	1.104971	0.993212	-0.208028
O7	O	0.749850	1.010132	-0.058822
O8	O	1.089884	0.676775	0.058900
O9	O	0.758274	1.339904	-0.208042
O10	O	1.076294	0.897721	-0.043876
O11	O	0.957234	0.907678	0.043963
O12	O	0.967164	1.115952	-0.131725
O13	O	0.848104	1.125909	-0.043885
Zr14	Zr	1.133352	1.027418	0.093914
Zr15	Zr	1.143978	1.006150	-0.093817
Zr16	Zr	0.889536	1.027428	0.093904
Zr17	Zr	0.900147	1.249978	-0.093826
Zr18	Zr	1.133367	0.783600	0.093913
O19	O	1.089851	1.217257	0.058901
O20	O	1.104959	1.187015	-0.208028
O21	O	0.743176	1.217271	0.058887
O22	O	1.275230	0.846549	0.208129
O23	O	1.290338	0.816307	-0.058800
O24	O	0.928555	0.846563	0.208115
O25	O	1.290326	1.010110	-0.058799
O26	O	1.081417	1.040360	0.208121
O27	O	0.928543	1.040366	0.208115
O28	O	1.283664	1.023446	0.058908
O29	O	0.952076	1.339897	-0.208034
O30	O	1.081438	0.693681	0.208121
O31	O	1.275240	0.693673	0.208129
O32	O	1.283685	0.676767	0.058908
O33	O	0.749829	1.356810	-0.058821
O34	O	0.943630	1.356802	-0.058813
O35	O	1.066350	0.917626	0.131812
O36	O	1.185410	0.907669	0.043972
O37	O	1.076280	1.125900	-0.043876
O38	O	0.957220	1.135856	0.043963
C39	C	1.016776	0.711809	0.000043
C40	C	1.016782	0.608302	0.000043
C41	C	1.081674	0.480388	-0.047853
C42	C	0.976377	0.614585	-0.082579
C43	C	1.122061	0.475511	0.034728
C44	C	0.911374	0.558168	-0.034730
C45	C	1.057133	0.419024	0.082623
C46	C	0.951771	0.553215	0.047918
C47	C	0.711780	1.016801	0.000031
C48	C	0.608274	1.016805	0.000027
C49	C	0.488182	1.135795	-0.047864
C50	C	0.459315	1.069667	-0.082572
C51	C	0.452718	1.082928	0.034728
C52	C	0.580773	0.950671	-0.034729
C53	C	0.574171	0.963955	0.082617
C54	C	0.545376	0.897738	0.047930
C55	C	1.321734	1.016777	0.000056
C56	C	1.425240	1.016772	0.000060
C57	C	1.030048	0.990185	-0.234779
C58	C	1.034559	0.981156	-0.314475
C59	C	1.016738	1.321769	0.000044
C60	C	1.016732	1.425276	0.000044
C61	C	1.042822	0.964663	-0.460407
C62	C	0.990695	1.068910	-0.539509
C63	C	0.995292	1.059733	-0.620710
C64	C	1.038225	0.973837	-0.379197
C65	C	1.003466	1.043393	0.234866
C66	C	0.998955	1.052422	0.314562
C67	C	1.321753	0.711797	0.000055
C68	C	1.425265	0.608285	0.000059
C69	C	1.003485	0.738413	0.234865
C70	C	0.998981	0.643935	0.314562
C71	C	1.308462	0.738401	0.234878
C72	C	1.407463	0.643919	0.314578
C73	C	0.725052	1.295177	-0.234791
C74	C	0.626050	1.389659	-0.314491
C75	C	0.711761	1.321781	0.000031
C76	C	0.608249	1.425292	0.000027
C77	C	1.030029	1.295164	-0.234778
C78	C	1.034533	1.389642	-0.314475
C79	C	1.053822	0.604761	0.397852
C80	C	1.049585	0.516003	0.472742
C81	C	0.990512	0.466415	0.464340
C82	C	0.935664	0.505598	0.381041
C83	C	0.939895	0.594361	0.306153
C84	C	1.516114	0.594352	0.306155
C85	C	1.609147	0.505588	0.381035
C86	C	1.593526	0.466387	0.464337
C87	C	1.484864	0.515964	0.472759
C88	C	1.391834	0.604732	0.397880
C89	C	0.517400	1.439238	-0.306068
C90	C	0.424367	1.528032	-0.380948
C91	C	0.439988	1.567238	-0.464251
C92	C	0.548650	1.517655	-0.472672
C93	C	0.641680	1.428870	-0.397793
C94	C	1.093616	1.439203	-0.306045
C95	C	1.097870	1.527963	-0.380921
C96	C	1.043034	1.567168	-0.464226
C97	C	0.983950	1.517597	-0.472654
C98	C	0.979703	1.428832	-0.397779
C99	C	1.545354	0.553146	0.047935
C100	C	1.574260	0.418961	0.082626
C101	C	1.580796	0.558082	-0.034674
C102	C	1.452805	0.475407	0.034799
C103	C	1.459347	0.614596	-0.082546
C104	C	1.488181	0.480419	-0.047876
H105	H	1.136486	0.448678	-0.088405
H106	H	0.895240	0.626244	0.238337
H107	H	1.145981	1.568315	-0.374041
H108	H	1.094254	0.484111	0.540560
H109	H	0.635800	0.894793	-0.064143
H110	H	0.942611	1.165051	-0.546246
H111	H	1.623853	0.335227	0.152451
H112	H	1.568497	0.584813	0.088505
H113	H	1.409756	0.698355	-0.152356
H114	H	1.090897	0.868529	-0.453671
H115	H	1.472162	0.484033	0.540593
H116	H	0.504660	1.407321	-0.238246
H117	H	1.635929	0.591997	-0.064019
H118	H	1.101926	0.645127	0.404710
H119	H	1.397804	0.441323	0.064219
H120	H	0.623737	0.919327	0.152433
H121	H	0.568747	0.797036	0.088434
H122	H	1.046501	1.639447	-0.525187
H123	H	0.730146	1.388502	-0.404661
H124	H	1.303369	0.645079	0.404750
H125	H	0.561355	1.549588	-0.540505
H126	H	0.397549	1.138858	0.064062
H127	H	0.364227	1.639533	-0.525215
H128	H	0.335899	1.568388	-0.374074
H129	H	0.987076	0.394139	0.525326
H130	H	1.138271	1.407298	-0.238220
H131	H	0.939305	1.549532	-0.540491
H132	H	1.464818	0.448812	-0.088388
H133	H	0.409747	1.114339	-0.152404
H134	H	0.887568	0.465210	0.374213
H135	H	0.931587	1.388489	-0.404655
H136	H	1.528854	0.626255	0.238333
H137	H	1.697616	0.465231	0.374163
H138	H	0.465028	1.236405	-0.088426
H139	H	0.942222	0.698289	-0.152416
H140	H	0.822282	0.592246	-0.064148
H141	H	1.091316	0.335296	0.152445
H142	H	0.896800	0.584866	0.088412
H143	H	1.211117	0.441613	0.064063
H144	H	1.669287	0.394105	0.525302
