data_functionalizedCrystal
_audit_creation_method	'MofGen! by Chris Wilmer'
_symmetry_space_group_name_H-M	'P1'
_symmetry_Int_Tables_number	1
_symmetry_cell_setting	triclinic
loop_
_symmetry_equiv_pos_as_xyz
  x,y,z
_cell_length_a	27.732048
_cell_length_b	26.809956
_cell_length_c	27.732048
_cell_angle_alpha	89.999364
_cell_angle_beta	97.357345
_cell_angle_gamma	90.003258
loop_
_atom_site_label
_atom_site_type_symbol
_atom_site_fract_x
_atom_site_fract_y
_atom_site_fract_z
O1	O	0.640931	0.041421	-0.057510
O2	O	1.140931	0.541421	0.442490
O3	O	0.500138	0.041436	-0.066256
O4	O	1.000138	0.541436	0.433744
O5	O	0.574907	0.041419	0.008514
O6	O	1.074907	0.541419	0.508514
O7	O	0.566162	0.041439	-0.132280
O8	O	1.066162	0.541439	0.367720
O9	O	0.574893	-0.041541	0.008502
O10	O	1.074893	0.458459	0.508502
O11	O	0.500123	-0.041523	-0.066267
O12	O	1.000123	0.458477	0.433733
O13	O	0.640917	-0.041539	-0.057522
O14	O	1.140917	0.458461	0.442478
Zn15	Zn	0.570518	-0.054702	-0.061896
Zn16	Zn	1.070518	0.445298	0.438104
Zn17	Zn	0.570536	0.054600	-0.061881
Zn18	Zn	1.070536	0.554600	0.438119
O19	O	0.566147	-0.041521	-0.132291
O20	O	1.066147	0.458479	0.367709
C21	C	0.482124	-0.000041	-0.066078
C22	C	0.982124	0.499959	0.433922
C23	C	0.428469	-0.000036	-0.065525
C24	C	0.928469	0.499964	0.434475
N25	N	0.570509	-0.129298	-0.061906
N26	N	1.070509	0.370702	0.438094
C27	C	0.089654	-0.000051	-0.106229
C28	C	0.589654	0.499949	0.393771
C29	C	-0.112006	-0.000056	-0.104178
C30	C	0.387994	0.499944	0.395822
O31	O	-0.143262	-0.000073	-0.141398
O32	O	0.356738	0.499927	0.358602
N33	N	-0.131130	-0.000062	-0.059843
N34	N	0.368870	0.499938	0.440157
C35	C	-0.099835	-0.000069	-0.016017
C36	C	0.400165	0.499931	0.483983
O37	O	-0.120728	-0.000079	0.021740
O38	O	0.379272	0.499921	0.521740
C39	C	0.101824	-0.000068	-0.018068
C40	C	0.601824	0.499932	0.481932
C41	C	0.120944	-0.000057	-0.062407
C42	C	0.620944	0.499943	0.437593
C43	C	0.108775	-0.000042	-0.150563
C44	C	0.608775	0.499958	0.349437
C45	C	0.159187	-0.000038	-0.151076
C46	C	0.659187	0.499962	0.348924
C47	C	0.190477	-0.000044	-0.107253
C48	C	0.690477	0.499956	0.392747
C49	C	0.171356	-0.000054	-0.062919
C50	C	0.671356	0.499946	0.437081
C51	C	0.133117	-0.000079	0.025757
C52	C	0.633117	0.499921	0.525757
C53	C	0.183535	-0.000080	0.025240
C54	C	0.683535	0.499920	0.525240
C55	C	0.202655	-0.000069	-0.019098
C56	C	0.702655	0.499931	0.480902
C57	C	0.253059	-0.000056	-0.019609
C58	C	0.753059	0.499944	0.480391
N59	N	0.272183	-0.000050	-0.063944
N60	N	0.772183	0.499950	0.436056
C61	C	0.240892	-0.000044	-0.107766
C62	C	0.740892	0.499956	0.392234
C63	C	-0.205709	-0.000069	-0.014943
C64	C	0.294291	0.499931	0.485057
C65	C	-0.256124	-0.000068	-0.014430
C66	C	0.243876	0.499932	0.485570
C67	C	-0.268291	-0.000056	-0.102591
C68	C	0.231709	0.499944	0.397409
C69	C	-0.217876	-0.000053	-0.103104
C70	C	0.282124	0.499947	0.396896
C71	C	-0.186585	-0.000063	-0.059278
C72	C	0.313415	0.499937	0.440722
C73	C	0.346761	-0.000036	-0.108839
C74	C	0.846761	0.499964	0.391161
C75	C	0.397178	-0.000030	-0.109347
C76	C	0.897178	0.499970	0.390653
C77	C	0.409341	-0.000044	-0.021186
C78	C	0.909341	0.499956	0.478814
C79	C	0.358929	-0.000048	-0.020678
C80	C	0.858929	0.499952	0.479322
C81	C	0.327639	-0.000045	-0.064508
C82	C	0.827639	0.499955	0.435492
O83	O	0.284343	-0.000045	0.017592
O84	O	0.784343	0.499955	0.517592
O85	O	0.261794	-0.000045	-0.145518
O86	O	0.761794	0.499955	0.354482
C87	C	0.039242	-0.000055	-0.105716
C88	C	0.539242	0.499945	0.394284
C89	C	0.020120	-0.000065	-0.061382
C90	C	0.520120	0.499935	0.438618
C91	C	0.051411	-0.000071	-0.017560
C92	C	0.551411	0.499929	0.482440
C93	C	-0.030294	-0.000065	-0.060869
C94	C	0.469706	0.499935	0.439131
C95	C	-0.061585	-0.000059	-0.104691
C96	C	0.438415	0.499941	0.395309
C97	C	-0.042461	-0.000053	-0.149026
C98	C	0.457539	0.499947	0.350974
C99	C	0.007951	-0.000049	-0.149539
C100	C	0.507951	0.499951	0.350461
C101	C	0.032287	-0.000077	0.026775
C102	C	0.532287	0.499923	0.526775
C103	C	-0.018125	-0.000080	0.027284
C104	C	0.481875	0.499920	0.527284
C105	C	-0.049416	-0.000074	-0.016538
C106	C	0.450584	0.499926	0.483462
C107	C	0.603640	-0.473932	-0.028781
C108	C	1.103640	0.026068	0.471219
C109	C	0.603652	-0.682810	-0.028774
C110	C	1.103652	-0.182810	0.471226
O111	O	0.631801	-0.709820	-0.000613
O112	O	1.131801	-0.209820	0.499387
N113	N	0.570539	-0.708925	-0.061870
N114	N	1.070539	-0.208925	0.438130
C115	C	0.537419	-0.682818	-0.094969
C116	C	1.037419	-0.182818	0.405031
O117	O	0.509252	-0.709824	-0.123116
O118	O	1.009252	-0.209824	0.376884
C119	C	0.537406	-0.473941	-0.094974
C120	C	1.037406	0.026059	0.405026
C121	C	0.570524	-0.447829	-0.061878
C122	C	1.070524	0.052171	0.438122
C123	C	0.636755	-0.447819	0.004312
C124	C	1.136755	0.052181	0.504312
C125	C	0.636754	-0.395603	0.004308
C126	C	1.136754	0.104397	0.504308
C127	C	0.603637	-0.369500	-0.028789
C128	C	1.103637	0.130500	0.471211
C129	C	0.570522	-0.395612	-0.061882
C130	C	1.070522	0.104388	0.438118
C131	C	0.504284	-0.447835	-0.128070
C132	C	1.004284	0.052165	0.371930
C133	C	0.504283	-0.395613	-0.128067
C134	C	1.004283	0.104387	0.371933
C135	C	0.537401	-0.369500	-0.094972
C136	C	1.037401	0.130500	0.405028
C137	C	0.537405	-0.317293	-0.094983
C138	C	1.037405	0.182707	0.405017
N139	N	0.570517	-0.291177	-0.061887
N140	N	1.070517	0.208823	0.438113
C141	C	0.603633	-0.317281	-0.028790
C142	C	1.103633	0.182719	0.471210
C143	C	0.537429	-0.792481	-0.094965
C144	C	1.037429	-0.292481	0.405035
C145	C	0.537433	-0.844700	-0.094964
C146	C	1.037433	-0.344700	0.405036
C147	C	0.603665	-0.844689	-0.028768
C148	C	1.103665	-0.344689	0.471232
C149	C	0.603663	-0.792469	-0.028772
C150	C	1.103663	-0.292469	0.471228
C151	C	0.570542	-0.766366	-0.061868
C152	C	1.070542	-0.266366	0.438132
C153	C	0.603628	-0.207623	-0.028801
C154	C	1.103628	0.292377	0.471199
C155	C	0.603625	-0.155402	-0.028809
C156	C	1.103625	0.344598	0.471191
C157	C	0.537392	-0.155418	-0.095003
C158	C	1.037392	0.344582	0.404997
C159	C	0.537396	-0.207635	-0.094997
C160	C	1.037396	0.292365	0.405003
C161	C	0.570516	-0.233735	-0.061892
C162	C	1.070516	0.266265	0.438108
O163	O	0.509266	-0.290250	-0.123126
O164	O	1.009266	0.209750	0.376874
O165	O	0.631789	-0.290266	-0.000640
O166	O	1.131789	0.209734	0.499360
C167	C	0.603642	-0.526149	-0.028777
C168	C	1.103642	-0.026149	0.471223
C169	C	0.570527	-0.552261	-0.061870
C170	C	1.070527	-0.052261	0.438130
C171	C	0.537410	-0.526158	-0.094968
C172	C	1.037410	-0.026158	0.405032
C173	C	0.570531	-0.604480	-0.061870
C174	C	1.070531	-0.104480	0.438130
C175	C	0.603647	-0.630584	-0.028773
C176	C	1.103647	-0.130584	0.471227
C177	C	0.636759	-0.604468	0.004324
C178	C	1.136759	-0.104468	0.504324
C179	C	0.636758	-0.552252	0.004320
C180	C	1.136758	-0.052252	0.504320
C181	C	0.504298	-0.552273	-0.128064
C182	C	1.004298	-0.052273	0.371936
C183	C	0.504303	-0.604489	-0.128058
C184	C	1.004303	-0.104489	0.371942
C185	C	0.537419	-0.630593	-0.094961
C186	C	1.037419	-0.130593	0.405039
C187	C	0.658931	-0.000060	-0.057699
C188	C	1.158931	0.499940	0.442301
C189	C	0.712586	-0.000062	-0.058252
C190	C	1.212586	0.499938	0.441748
C191	C	0.574716	-0.000062	0.026515
C192	C	1.074716	0.499938	0.526515
C193	C	0.574164	-0.000066	0.080170
C194	C	1.074164	0.499934	0.580170
N195	N	0.570549	0.129196	-0.061867
N196	N	1.070549	0.629196	0.438133
C197	C	0.566338	-0.000039	-0.150292
C198	C	1.066338	0.499961	0.349708
C199	C	0.566891	-0.000031	-0.203947
C200	C	1.066891	0.499969	0.296053
C201	C	0.614867	-0.000045	0.418985
C202	C	1.114867	0.499955	0.918985
C203	C	0.612816	-0.000038	0.620645
C204	C	1.112816	0.499962	1.120645
O205	O	0.650037	-0.000021	0.651900
O206	O	1.150037	0.499979	1.151900
N207	N	0.568481	-0.000034	0.639768
N208	N	1.068481	0.499966	1.139768
C209	C	0.524656	-0.000028	0.608474
C210	C	1.024656	0.499972	1.108474
O211	O	0.486899	-0.000019	0.629367
O212	O	0.986899	0.499981	1.129367
C213	C	0.526707	-0.000031	0.406815
C214	C	1.026707	0.499969	0.906815
C215	C	0.571045	-0.000041	0.387694
C216	C	1.071045	0.499959	0.887694
C217	C	0.659202	-0.000054	0.399864
C218	C	1.159202	0.499946	0.899864
C219	C	0.659714	-0.000059	0.349452
C220	C	1.159714	0.499941	0.849452
C221	C	0.615892	-0.000054	0.318161
C222	C	1.115892	0.499946	0.818161
C223	C	0.571557	-0.000045	0.337282
C224	C	1.071557	0.499955	0.837282
C225	C	0.482882	-0.000022	0.375521
C226	C	0.982882	0.499978	0.875521
C227	C	0.483399	-0.000021	0.325104
C228	C	0.983399	0.499979	0.825104
C229	C	0.527737	-0.000031	0.305983
C230	C	1.027737	0.499969	0.805983
C231	C	0.528247	-0.000045	0.255580
C232	C	1.028247	0.499955	0.755580
N233	N	0.572583	-0.000050	0.236456
N234	N	1.072583	0.499950	0.736456
C235	C	0.616405	-0.000054	0.267747
C236	C	1.116405	0.499946	0.767747
C237	C	0.523582	-0.000027	0.714348
C238	C	1.023582	0.499973	1.214348
C239	C	0.523069	-0.000027	0.764762
C240	C	1.023069	0.499973	1.264762
C241	C	0.611230	-0.000036	0.776930
C242	C	1.111230	0.499964	1.276930
C243	C	0.611742	-0.000040	0.726514
C244	C	1.111742	0.499960	1.226514
C245	C	0.567917	-0.000031	0.695224
C246	C	1.067917	0.499969	1.195224
C247	C	0.617477	-0.000064	0.161878
C248	C	1.117477	0.499936	0.661878
C249	C	0.617986	-0.000071	0.111461
C250	C	1.117986	0.499929	0.611461
C251	C	0.529825	-0.000059	0.099298
C252	C	1.029825	0.499941	0.599298
C253	C	0.529316	-0.000055	0.149710
C254	C	1.029316	0.499945	0.649710
C255	C	0.573147	-0.000056	0.180999
C256	C	1.073147	0.499944	0.680999
O257	O	0.491047	-0.000057	0.224296
O258	O	0.991047	0.499943	0.724296
O259	O	0.654156	-0.000053	0.246844
O260	O	1.154156	0.499947	0.746844
C261	C	0.614355	-0.000041	0.469397
C262	C	1.114355	0.499959	0.969397
C263	C	0.570021	-0.000032	0.488518
C264	C	1.070021	0.499968	0.988518
C265	C	0.526198	-0.000027	0.457228
C266	C	1.026198	0.499973	0.957228
C267	C	0.569508	-0.000032	0.538933
C268	C	1.069508	0.499968	1.038933
C269	C	0.613330	-0.000036	0.570223
C270	C	1.113330	0.499964	1.070223
C271	C	0.657665	-0.000041	0.551100
C272	C	1.157665	0.499959	1.051100
C273	C	0.658177	-0.000045	0.500688
C274	C	1.158177	0.499955	1.000688
C275	C	0.481863	-0.000023	0.476351
C276	C	0.981863	0.499977	0.976351
C277	C	0.481355	-0.000019	0.526764
C278	C	0.981355	0.499981	1.026764
C279	C	0.525177	-0.000023	0.558054
C280	C	1.025177	0.499977	1.058054
H281	H	0.321291	-0.000035	-0.144530
H282	H	0.821291	0.499965	0.355470
H283	H	0.477317	-0.469089	-0.155019
H284	H	0.977317	0.030911	0.344981
H285	H	0.486964	-0.000028	0.780325
H286	H	0.986964	0.499972	1.280325
N287	N	0.470464	-0.631159	-0.161860
N288	N	0.970464	-0.131159	0.338140
N289	N	0.440574	-0.660293	-0.146723
N290	N	0.940574	-0.160293	0.353277
H291	H	0.416672	-0.679127	-0.170593
H292	H	0.916672	-0.179127	0.329407
N293	N	0.637484	-0.871353	0.005053
N294	N	1.137484	-0.371353	0.505053
N295	N	0.637145	-0.865518	0.049727
N296	N	1.137145	-0.365518	0.549727
H297	H	0.661025	-0.884350	0.073617
H298	H	1.161025	-0.384350	0.573617
H299	H	0.663722	-0.469068	0.031266
H300	H	1.163722	0.030932	0.531266
H301	H	0.117558	-0.000088	0.061861
H302	H	0.617558	0.499912	0.561861
H303	H	0.445246	-0.000015	0.542327
H304	H	0.945246	0.499985	1.042327
H305	H	0.174750	-0.000029	-0.187180
H306	H	0.674750	0.499971	0.312820
H307	H	0.487892	-0.000020	0.688875
H308	H	0.987892	0.499980	1.188875
H309	H	0.694889	-0.000056	0.425336
H310	H	1.194889	0.499944	0.925336
H311	H	-0.180236	-0.000077	0.020747
H312	H	0.319764	0.499923	0.520747
N313	N	0.637471	-0.765805	0.005062
N314	N	1.137471	-0.265805	0.505062
N315	N	0.667019	-0.789125	0.034624
N316	N	1.167019	-0.289125	0.534624
H317	H	0.690888	-0.770296	0.058531
H318	H	1.190888	-0.270296	0.558531
H319	H	0.477310	-0.374362	-0.155018
H320	H	0.977310	0.125638	0.344982
N321	N	0.076824	-0.000039	-0.195335
N322	N	0.576824	0.499961	0.304665
N323	N	0.093913	-0.000032	-0.234912
N324	N	0.593913	0.499968	0.265088
H325	H	0.071350	-0.000027	-0.266536
H326	H	0.571350	0.499973	0.233464
N327	N	0.339401	-0.000060	0.024615
N328	N	0.839401	0.499940	0.524615
N329	N	0.349111	-0.035034	0.054066
N330	N	0.849111	0.464966	0.554066
H331	H	0.335323	-0.035047	0.086055
H332	H	0.835323	0.464953	0.586055
H333	H	0.446177	-0.000018	0.450879
H334	H	0.946177	0.499982	0.950879
N335	N	-0.275661	-0.000070	0.030855
N336	N	0.224339	0.499930	0.530855
N337	N	-0.302433	0.034897	0.040985
N338	N	0.197567	0.534897	0.540985
H339	H	-0.316230	0.034893	0.072969
H340	H	0.183770	0.534893	0.572969
H341	H	-0.293777	-0.000051	-0.138273
H342	H	0.206223	0.499949	0.361727
N343	N	0.416700	-0.000016	-0.154644
N344	N	0.916700	0.499984	0.345356
N345	N	0.388753	-0.000011	-0.193766
N346	N	0.888753	0.499989	0.306234
H347	H	0.402539	-0.000001	-0.225757
H348	H	0.902539	0.499999	0.274243
N349	N	0.438635	-0.000020	0.293136
N350	N	0.938635	0.499980	0.793136
N351	N	0.439095	-0.000025	0.248124
N352	N	0.939095	0.499975	0.748124
H353	H	0.407481	-0.000026	0.225546
H354	H	0.907481	0.499974	0.725546
H355	H	0.510471	-0.865958	-0.121919
H356	H	1.010471	-0.365958	0.378081
H357	H	0.693347	-0.000047	0.576585
H358	H	1.193347	0.499953	1.076585
H359	H	0.653168	-0.000063	0.187348
H360	H	1.153168	0.499937	0.687348
N361	N	-0.198338	-0.000042	-0.148389
N362	N	0.301662	0.499958	0.351611
N363	N	-0.171561	0.034927	-0.158508
N364	N	0.328439	0.534927	0.341492
H365	H	-0.157764	0.034934	-0.190493
H366	H	0.342236	0.534934	0.309507
N367	N	0.470463	-0.525621	-0.161875
N368	N	0.970463	-0.025621	0.338125
N369	N	0.440902	-0.548950	-0.191419
N370	N	0.940902	-0.048950	0.308581
H371	H	0.417005	-0.530130	-0.215302
H372	H	0.917005	-0.030130	0.284698
N373	N	0.215489	-0.000096	0.070012
N374	N	0.715489	0.499904	0.570012
N375	N	0.198406	-0.000107	0.109592
N376	N	0.698406	0.499893	0.609592
H377	H	0.220973	-0.000118	0.141213
H378	H	0.720973	0.499882	0.641213
H379	H	0.434827	-0.000047	0.014492
H380	H	0.934827	0.499953	0.514492
N381	N	0.657032	-0.000036	0.706986
N382	N	1.157032	0.499964	1.206986
N383	N	0.667163	0.034935	0.680217
N384	N	1.167163	0.534935	1.180217
H385	H	0.699151	0.034940	0.666427
H386	H	1.199151	0.534940	1.166427
N387	N	0.027470	-0.000037	-0.194834
N388	N	0.527470	0.499963	0.305166
N389	N	-0.000481	-0.000031	-0.233954
N390	N	0.499519	0.499969	0.266046
H391	H	0.013301	-0.000022	-0.265946
H392	H	0.513301	0.499978	0.234054
H393	H	0.695819	-0.000065	0.333889
H394	H	1.195819	0.499935	0.833889
N395	N	0.655999	-0.000043	0.808890
N396	N	1.155999	0.499957	1.308890
N397	N	0.685570	-0.035012	0.807338
N398	N	1.185570	0.464988	1.307338
H399	H	0.717187	-0.035014	0.829910
H400	H	1.217187	0.464986	1.329910
N401	N	0.437587	-0.000011	0.395036
N402	N	0.937587	0.499989	0.895036
N403	N	0.398468	-0.000001	0.367083
N404	N	0.898468	0.499999	0.867083
H405	H	0.366474	0.000008	0.380864
H406	H	0.866474	0.500008	0.880864
N407	N	0.484023	-0.000060	0.169236
N408	N	0.984023	0.499940	0.669236
N409	N	0.444900	-0.000064	0.141290
N410	N	0.944900	0.499936	0.641290
H411	H	0.412910	-0.000067	0.155077
H412	H	0.912910	0.499933	0.655077
H413	H	0.663725	-0.530995	0.031269
H414	H	1.163725	-0.030995	0.531269
H415	H	0.057760	-0.000083	0.062462
H416	H	0.557760	0.499917	0.562462
N417	N	-0.074436	-0.000044	-0.193786
N418	N	0.425564	0.499956	0.306214
N419	N	-0.119446	-0.000048	-0.193315
N420	N	0.380554	0.499952	0.306685
H421	H	-0.142031	-0.000044	-0.224924
H422	H	0.357969	0.499956	0.275076
N423	N	-0.037645	-0.000085	0.072582
N424	N	0.462355	0.499915	0.572582
N425	N	-0.009695	-0.000090	0.111703
N426	N	0.490305	0.499910	0.611703
H427	H	-0.023479	-0.000097	0.143695
H428	H	0.476521	0.499903	0.643695
H429	H	0.630595	-0.134142	-0.001859
H430	H	1.130595	0.365858	0.498141
H431	H	0.654093	-0.000080	0.095896
H432	H	1.154093	0.499920	0.595896
H433	H	0.494146	-0.000057	0.073812
H434	H	0.994146	0.499943	0.573812
N435	N	0.637460	-0.234271	0.005020
N436	N	1.137460	0.265729	0.505020
N437	N	0.667022	-0.210942	0.034562
N438	N	1.167022	0.289058	0.534562
H439	H	0.690918	-0.229762	0.058447
H440	H	1.190918	0.270238	0.558447
N441	N	0.703472	-0.000057	0.481168
N442	N	1.203472	0.499943	0.981168
N443	N	0.742592	-0.000062	0.509120
N444	N	1.242592	0.499938	1.009120
H445	H	0.774585	-0.000070	0.495338
H446	H	1.274585	0.499930	0.995338
N447	N	0.670614	-0.368962	0.038108
N448	N	1.170614	0.131038	0.538108
N449	N	0.670324	-0.374803	0.082788
N450	N	1.170324	0.125197	0.582788
H451	H	0.694251	-0.355999	0.106656
H452	H	1.194251	0.144001	0.606656
N453	N	0.503590	-0.765830	-0.128777
N454	N	1.003590	-0.265830	0.371223
N455	N	0.474030	-0.789159	-0.158322
N456	N	0.974030	-0.289159	0.341678
H457	H	0.450131	-0.770339	-0.182203
H458	H	0.950131	-0.270339	0.317797
N459	N	0.503567	-0.234303	-0.128807
N460	N	1.003567	0.265697	0.371193
N461	N	0.474001	-0.210988	-0.158355
N462	N	0.974001	0.289012	0.341645
H463	H	0.450104	-0.229819	-0.182231
H464	H	0.950104	0.270181	0.317769
H465	H	0.510430	-0.134157	-0.121952
H466	H	1.010430	0.365843	0.378048
N467	N	0.670578	-0.631144	0.038136
N468	N	1.170578	-0.131144	0.538136
N469	N	0.655459	-0.660282	0.068033
N470	N	1.155459	-0.160282	0.568033
H471	H	0.679339	-0.679124	0.091914
H472	H	1.179339	-0.179124	0.591914
