data_functionalizedCrystal
_audit_creation_method	'MofGen! by Chris Wilmer'
_symmetry_space_group_name_H-M	'P1'
_symmetry_Int_Tables_number	1
_symmetry_cell_setting	triclinic
loop_
_symmetry_equiv_pos_as_xyz
  x,y,z
_cell_length_a	12.827893
_cell_length_b	12.827892
_cell_length_c	12.827885
_cell_angle_alpha	89.970214
_cell_angle_beta	89.980728
_cell_angle_gamma	90.015362
loop_
_atom_site_label
_atom_site_type_symbol
_atom_site_fract_x
_atom_site_fract_y
_atom_site_fract_z
Zn1	Zn	1.597670	-0.415983	-0.590849
Zn2	Zn	1.597564	-0.590761	-0.416109
Zn3	Zn	1.422911	-0.416034	-0.416122
Zn4	Zn	1.422896	-0.590683	-0.590809
O5	O	1.510260	-0.503365	-0.503472
O6	O	1.743892	-0.439179	-0.567680
O7	O	1.574357	-0.567637	-0.269875
O8	O	1.446144	-0.269791	-0.439322
O9	O	1.743814	-0.567587	-0.439300
O10	O	1.574538	-0.269754	-0.567693
O11	O	1.446041	-0.439266	-0.269884
O12	O	1.276673	-0.439190	-0.439284
O13	O	1.446118	-0.567455	-0.737050
O14	O	1.276662	-0.567504	-0.567625
O15	O	1.574524	-0.439104	-0.737080
O16	O	1.574343	-0.736986	-0.439261
O17	O	1.446016	-0.736929	-0.567612
C18	C	1.238750	-0.503345	-0.503452
C19	C	1.122597	-0.503362	-0.503469
C20	C	1.070835	-0.566954	-0.566878
C21	C	0.950784	-0.566973	-0.566896
C22	C	1.510195	-0.774875	-0.503454
C23	C	1.510262	-0.891028	-0.503481
C24	C	1.573838	-0.942807	-0.440039
C25	C	1.573910	-1.062857	-0.440066
C26	C	1.782830	-0.503386	-0.503493
C27	C	1.898983	-0.503395	-0.503502
C28	C	1.510331	-0.503265	-0.776043
C29	C	1.510362	-0.503222	-0.892196
C30	C	1.510354	-0.230795	-0.503514
C31	C	1.510394	-0.114642	-0.503531
C32	C	1.573907	-0.439697	-0.943995
C33	C	1.573940	-0.439652	-1.064045
C34	C	1.510249	-0.503390	-0.231962
C35	C	1.510422	-0.503138	-0.115810
H36	H	1.078036	-0.448927	-0.449199
Cl37	Cl	1.657944	-1.131599	-0.356197
H38	H	1.115396	-0.621381	-0.621155
Cl39	Cl	0.967698	-0.419336	-0.419673
Cl40	Cl	1.426346	-1.045907	-0.587391
H41	H	1.455890	-0.935576	-0.557819
Cl42	Cl	1.657844	-0.355752	-0.875254
H43	H	0.906270	-0.621420	-0.621181
H44	H	1.628220	-0.898262	-0.385708
H45	H	1.455975	-0.557567	-0.936725
H46	H	1.628348	-0.385270	-1.108591
Cl47	Cl	1.426424	-0.587119	-1.047047
