data_functionalizedCrystal
_audit_creation_method	'MofGen! by Chris Wilmer'
_symmetry_space_group_name_H-M	'P1'
_symmetry_Int_Tables_number	1
_symmetry_cell_setting	triclinic
loop_
_symmetry_equiv_pos_as_xyz
  x,y,z
_cell_length_a	12.759401
_cell_length_b	29.839131
_cell_length_c	12.759393
_cell_angle_alpha	90.045545
_cell_angle_beta	90.019437
_cell_angle_gamma	90.035241
loop_
_atom_site_label
_atom_site_type_symbol
_atom_site_fract_x
_atom_site_fract_y
_atom_site_fract_z
Zn1	Zn	1.606106	-0.178827	0.593906
Zn2	Zn	1.605937	-0.253965	0.418183
Zn3	Zn	1.430407	-0.178850	0.418242
Zn4	Zn	1.430333	-0.253930	0.593821
O5	O	1.518196	-0.216393	0.506038
O6	O	1.753104	-0.188799	0.570606
O7	O	1.582613	-0.244025	0.271170
O8	O	1.453816	-0.115980	0.441604
O9	O	1.752980	-0.244003	0.441503
O10	O	1.582900	-0.115963	0.570664
O11	O	1.453652	-0.188839	0.271213
O12	O	1.283377	-0.188805	0.441523
O13	O	1.453689	-0.243943	0.740854
O14	O	1.283322	-0.243966	0.570520
O15	O	1.582828	-0.188765	0.740916
O16	O	1.582541	-0.316828	0.441422
O17	O	1.453526	-0.316802	0.570463
C18	C	1.245228	-0.216385	0.506019
C19	C	1.128452	-0.216392	0.506036
C20	C	0.963864	-0.245165	0.573118
C21	C	1.073588	-0.245159	0.573100
C22	C	1.073586	-0.187631	0.438977
C23	C	0.963864	-0.187640	0.438989
C24	C	0.909006	-0.273931	0.640194
C25	C	0.963864	-0.302692	0.707252
C26	C	1.073588	-0.302687	0.707235
C27	C	1.128454	-0.273920	0.640160
C28	C	1.518036	-0.333116	0.505949
C29	C	1.518063	-0.383050	0.505947
C30	C	1.585395	-0.692650	0.573335
C31	C	1.585509	-0.880323	0.573398
O32	O	1.642601	-0.904550	0.630628
N33	N	1.518374	-0.903835	0.506155
C34	C	1.451201	-0.880426	0.438895
O35	O	1.394093	-0.904731	0.381710
C36	C	1.451082	-0.692754	0.438838
C37	C	1.518229	-0.669244	0.506079
C38	C	1.652536	-0.669140	0.640571
C39	C	1.652511	-0.622224	0.640550
C40	C	1.585345	-0.598819	0.573294
C41	C	1.518204	-0.622329	0.506058
C42	C	1.383904	-0.669346	0.371585
C43	C	1.383879	-0.622425	0.371579
C44	C	1.451026	-0.598915	0.438819
C45	C	1.451013	-0.552008	0.438782
N46	N	1.518148	-0.528496	0.506025
C47	C	1.585314	-0.551901	0.573281
C48	C	1.451269	-0.978957	0.438929
C49	C	1.451300	-1.025875	0.438941
C50	C	1.585608	-1.025768	0.573446
C51	C	1.585581	-0.978849	0.573427
C52	C	1.518404	-0.955445	0.506172
C53	C	1.585257	-0.453375	0.573232
C54	C	1.585229	-0.406456	0.573203
C55	C	1.450918	-0.406567	0.438703
C56	C	1.450950	-0.453482	0.438728
C57	C	1.518123	-0.476885	0.506001
O58	O	1.393943	-0.527751	0.381590
O59	O	1.642397	-0.527588	0.630475
C60	C	1.585421	-0.739565	0.573355
C61	C	1.518280	-0.763075	0.506120
C62	C	1.451114	-0.739670	0.438864
C63	C	1.518310	-0.809993	0.506132
C64	C	1.585477	-0.833398	0.573389
C65	C	1.652612	-0.809886	0.640632
C66	C	1.652587	-0.762970	0.640612
C67	C	1.383978	-0.763182	0.371620
C68	C	1.384010	-0.810098	0.371645
C69	C	1.451176	-0.833503	0.438901
C70	C	1.792229	-0.216402	0.506057
C71	C	1.909006	-0.216406	0.506066
C72	C	1.518269	-0.216348	0.780071
C73	C	1.518301	-0.216328	0.896848
C74	C	1.518385	-0.099215	0.506150
C75	C	1.518466	-0.049280	0.506198
C76	C	1.518183	-0.216406	0.233071
C77	C	1.518355	-0.216299	0.116295
C78	C	1.585553	-0.187594	0.951744
C79	C	1.585578	-0.187578	1.061468
C80	C	1.451096	-0.245034	1.061391
C81	C	1.451066	-0.245048	0.951669
C82	C	1.652787	-0.158875	0.896924
C83	C	1.720046	-0.130139	0.951820
C84	C	1.720071	-0.130123	1.061544
C85	C	1.652837	-0.158843	1.116372
H86	H	1.639912	-0.387315	0.627958
H87	H	0.919185	-0.326116	0.761856
H88	H	1.774778	-0.106754	0.907171
O89	O	0.802421	-0.274007	0.640313
C90	C	0.765762	-0.305554	0.713913
H91	H	0.828967	-0.331807	0.728499
H92	H	0.746358	-0.287776	0.790603
C93	C	0.588923	-0.296320	0.653097
C94	C	0.666548	-0.328567	0.671004
H95	H	0.527720	-0.310515	0.626632
H96	H	0.613619	-0.275066	0.603513
H97	H	0.572765	-0.281508	0.717010
H98	H	0.682713	-0.343375	0.607090
H99	H	0.641852	-0.349825	0.720577
H100	H	1.118251	-0.326108	0.761830
H101	H	1.217799	-0.273920	0.640145
O102	O	1.717703	-0.832648	0.706079
C103	C	1.657849	-0.859789	0.773862
H104	H	1.575097	-0.845671	0.780270
H105	H	1.654256	-0.895359	0.741377
C106	C	1.810746	-0.877796	0.875261
C107	C	1.709110	-0.860454	0.883139
H108	H	1.842367	-0.878209	0.942667
H109	H	1.851072	-0.859512	0.829592
H110	H	1.807737	-0.907437	0.848187
H111	H	1.712121	-0.830812	0.910200
H112	H	1.668785	-0.878733	0.928815
H113	H	1.707185	-0.603085	0.695306
H114	H	1.639949	-0.472424	0.628020
O115	O	1.126997	-0.159749	0.373779
C116	C	1.190390	-0.185289	0.305783
H117	H	1.206804	-0.219353	0.342680
H118	H	1.148068	-0.190189	0.227905
C119	C	1.274474	-0.118718	0.241552
C120	C	1.294642	-0.160554	0.286873
H121	H	1.338779	-0.103459	0.229882
H122	H	1.231762	-0.101511	0.287359
H123	H	1.239203	-0.122807	0.176658
H124	H	1.329900	-0.156464	0.351771
H125	H	1.337362	-0.177760	0.241076
O126	O	1.385708	-0.383756	0.373474
C127	C	1.400107	-0.337305	0.387869
H128	H	1.434478	-0.330857	0.468975
H129	H	1.456077	-0.323994	0.325593
C130	C	1.251584	-0.321176	0.278541
C131	C	1.293791	-0.313256	0.378161
H132	H	1.186006	-0.306341	0.272548
H133	H	1.241885	-0.352471	0.268839
H134	H	1.298236	-0.310084	0.226656
H135	H	1.247146	-0.324354	0.430043
H136	H	1.303481	-0.281962	0.387871
H137	H	0.919197	-0.164219	0.384396
O138	O	1.385728	-0.273011	0.898498
C139	C	1.326390	-0.298356	0.970410
H140	H	1.369428	-0.299895	1.048633
H141	H	1.246613	-0.281911	0.982075
C142	C	1.258341	-0.344289	0.831462
C143	C	1.311206	-0.346182	0.927535
H144	H	1.248969	-0.373790	0.805015
H145	H	1.298314	-0.327213	0.783013
H146	H	1.191865	-0.330583	0.841196
H147	H	1.377684	-0.359883	0.917798
H148	H	1.271243	-0.363261	0.975982
H149	H	1.707231	-0.688191	0.695345
H150	H	1.640258	-0.959710	0.628180
H151	H	1.652777	-0.158886	0.807581
H152	H	1.640298	-1.044832	0.628207
H153	H	1.396633	-1.045013	0.384176
H154	H	1.396564	-0.959904	0.384159
H155	H	1.774828	-0.106721	1.106237
O156	O	1.653027	-0.158785	1.222959
C157	C	1.726781	-0.127256	1.259659
H158	H	1.788157	-0.120973	1.196439
H159	H	1.685181	-0.094494	1.279165
C160	C	1.705252	-0.153272	1.436445
C161	C	1.780639	-0.145559	1.358800
H162	H	1.738471	-0.164561	1.497603
H163	H	1.655559	-0.174513	1.411721
H164	H	1.670591	-0.125969	1.452687
H165	H	1.815289	-0.172863	1.342550
H166	H	1.830339	-0.124323	1.383524
H167	H	1.329226	-0.688480	0.316831
H168	H	1.329172	-0.603372	0.316813
H169	H	1.396357	-0.268416	1.106041
H170	H	1.707264	-0.743832	0.695365
O171	O	1.385631	-0.476253	0.373374
C172	C	1.326367	-0.445531	0.313985
H173	H	1.322697	-0.412069	0.356997
H174	H	1.364880	-0.440564	0.234223
C175	C	1.219070	-0.504984	0.245930
C176	C	1.214555	-0.463886	0.298762
H177	H	1.150101	-0.516306	0.236534
H178	H	1.258999	-0.525682	0.285937
H179	H	1.251169	-0.500839	0.179466
H180	H	1.182469	-0.468032	0.365228
H181	H	1.174618	-0.443188	0.258765
O182	O	1.318702	-0.740520	0.306180
C183	C	1.259441	-0.771338	0.246860
H184	H	1.302500	-0.804768	0.243291
H185	H	1.179626	-0.776341	0.285258
C186	C	1.191473	-0.712028	0.139395
C187	C	1.244363	-0.753086	0.135005
H188	H	1.182168	-0.700769	0.070400
H189	H	1.231395	-0.691265	0.179363
H190	H	1.124967	-0.716203	0.171398
H191	H	1.310873	-0.748910	0.103015
H192	H	1.204453	-0.773849	0.095030
O193	O	1.318722	-0.832981	0.306470
C194	C	1.250827	-0.860107	0.366247
H195	H	1.287852	-0.867094	0.445895
H196	H	1.172963	-0.842042	0.377729
C197	C	1.186354	-0.896121	0.210616
C198	C	1.231834	-0.904705	0.308439
H199	H	1.174633	-0.923630	0.174957
H200	H	1.232093	-0.877844	0.170343
H201	H	1.121473	-0.881066	0.220199
H202	H	1.296720	-0.919755	0.298854
H203	H	1.186105	-0.922985	0.348710
