data_functionalizedCrystal
_audit_creation_method	'MofGen! by Chris Wilmer'
_symmetry_space_group_name_H-M	'P1'
_symmetry_Int_Tables_number	1
_symmetry_cell_setting	triclinic
loop_
_symmetry_equiv_pos_as_xyz
  x,y,z
_cell_length_a	12.759401
_cell_length_b	12.759400
_cell_length_c	12.759393
_cell_angle_alpha	90.029373
_cell_angle_beta	90.020435
_cell_angle_gamma	90.014872
loop_
_atom_site_label
_atom_site_type_symbol
_atom_site_fract_x
_atom_site_fract_y
_atom_site_fract_z
Zn1	Zn	1.606278	-0.418168	0.594014
Zn2	Zn	1.606173	-0.593883	0.418338
Zn3	Zn	1.430576	-0.418224	0.418351
Zn4	Zn	1.430573	-0.593810	0.593977
O5	O	1.518400	-0.506021	0.506170
O6	O	1.753285	-0.441484	0.570721
O7	O	1.582838	-0.570636	0.271318
O8	O	1.453928	-0.271196	0.441674
O9	O	1.753208	-0.570581	0.441652
O10	O	1.583015	-0.271154	0.570733
O11	O	1.453827	-0.441580	0.271328
O12	O	1.283555	-0.441509	0.441638
O13	O	1.453923	-0.570457	0.741003
O14	O	1.283552	-0.570512	0.570669
O15	O	1.583012	-0.441413	0.741030
O16	O	1.582835	-0.740895	0.441615
O17	O	1.453822	-0.740841	0.570656
C18	C	1.245433	-0.506009	0.506151
C19	C	1.128656	-0.506029	0.506168
C20	C	0.964115	-0.438926	0.573490
C21	C	1.073839	-0.438923	0.573479
C22	C	1.073743	-0.573151	0.438872
C23	C	0.964021	-0.573158	0.438890
C24	C	0.964171	-0.361427	0.651201
C25	C	1.073895	-0.361424	0.651190
C26	C	1.518345	-0.778989	0.506153
C27	C	1.518417	-0.895765	0.506181
C28	C	1.585599	-0.950526	0.573437
C29	C	1.585648	-1.060250	0.573463
C30	C	1.451330	-1.060443	0.438967
C31	C	1.451277	-0.950721	0.438948
C32	C	1.663150	-0.950415	0.651084
C33	C	1.663199	-1.060140	0.651110
C34	C	1.792433	-0.506034	0.506189
C35	C	1.909210	-0.506040	0.506197
C36	C	1.518479	-0.505920	0.780203
C37	C	1.518512	-0.505877	0.896980
C38	C	1.518484	-0.231988	0.506210
C39	C	1.518520	-0.115211	0.506226
C40	C	1.518382	-0.506046	0.233202
C41	C	1.518552	-0.505793	0.116426
C42	C	1.585734	-0.438674	0.951858
C43	C	1.585752	-0.438628	1.061582
C44	C	1.451323	-0.573000	1.061541
C45	C	1.451301	-0.573039	0.951818
H46	H	1.118384	-0.627798	0.384075
H47	H	0.934433	-0.383314	0.732540
N48	N	0.919078	-0.259010	0.612768
H49	H	0.977993	-0.209518	0.594188
H50	H	0.874535	-0.226803	0.669718
N51	N	1.113347	-0.253610	0.622483
H52	H	1.157301	-0.258203	0.556825
H53	H	1.157314	-0.224949	0.681771
N54	N	1.378810	-0.891662	0.366410
H55	H	1.421505	-0.846139	0.317749
H56	H	1.330096	-0.846206	0.409135
N57	N	1.634201	-0.910919	0.758831
H58	H	1.568537	-0.866985	0.754099
H59	H	1.693412	-0.866921	0.787597
H60	H	1.634011	-1.094137	0.728381
H61	H	1.107958	-0.390658	0.728433
N62	N	1.378921	-1.119717	0.366450
H63	H	1.389148	-1.197535	0.376667
H64	H	1.395307	-1.100578	0.291427
N65	N	1.765520	-0.905273	0.612546
H66	H	1.815023	-0.964163	0.593943
H67	H	1.797750	-0.860630	0.669452
N68	N	0.904808	-0.645553	0.366313
H69	H	0.859266	-0.602808	0.317701
H70	H	0.859358	-0.694277	0.409013
H71	H	1.396604	-0.627683	1.106203
H72	H	1.744596	-1.089873	0.629396
N73	N	1.658221	-0.366238	0.892709
H74	H	1.700807	-0.323657	0.944128
H75	H	1.615463	-0.317631	0.847184
N76	N	1.658243	-0.366132	1.120774
H77	H	1.700811	-0.323591	1.069381
H78	H	1.706860	-0.408875	1.166308
N79	N	1.378772	-0.645505	0.892619
H80	H	1.336197	-0.688046	0.944006
H81	H	1.421496	-0.694149	0.847082
