data_functionalizedCrystal
_audit_creation_method	'MofGen! by Chris Wilmer'
_symmetry_space_group_name_H-M	'P1'
_symmetry_Int_Tables_number	1
_symmetry_cell_setting	triclinic
loop_
_symmetry_equiv_pos_as_xyz
  x,y,z
_cell_length_a	16.120530
_cell_length_b	16.120444
_cell_length_c	10.685986
_cell_angle_alpha	88.261534
_cell_angle_beta	91.231987
_cell_angle_gamma	90.168401
loop_
_atom_site_label
_atom_site_type_symbol
_atom_site_fract_x
_atom_site_fract_y
_atom_site_fract_z
Zn1	Zn	1.214549	-0.351248	-0.833525
Zn2	Zn	1.216937	-0.500918	-0.634174
Zn3	Zn	1.086048	-0.355949	-0.613045
Zn4	Zn	1.068454	-0.483263	-0.832382
O5	O	1.146497	-0.422845	-0.728282
O6	O	1.330785	-0.376524	-0.816402
O7	O	1.207936	-0.491044	-0.456150
O8	O	1.109457	-0.239407	-0.633928
O9	O	1.332539	-0.486485	-0.669940
O10	O	1.203867	-0.235954	-0.795914
O11	O	1.111773	-0.384536	-0.440626
O12	O	0.967795	-0.367416	-0.632820
O13	O	1.079471	-0.456395	-1.007755
O14	O	0.954869	-0.460953	-0.793965
O15	O	1.186807	-0.359404	-1.008595
O16	O	1.190876	-0.614494	-0.668831
O17	O	1.081786	-0.601523	-0.814453
C18	C	0.931275	-0.412779	-0.710976
C19	C	0.839200	-0.408492	-0.703604
C20	C	0.670617	-0.400644	-0.690154
C21	C	0.623209	-0.445101	-0.766505
C22	C	0.529404	-0.440735	-0.759021
C23	C	0.764431	-0.405010	-0.697636
C24	C	1.134702	-0.638065	-0.743840
C25	C	1.129730	-0.730138	-0.750544
C26	C	1.172479	-0.946132	-0.693791
C27	C	1.120668	-0.898713	-0.762798
C28	C	1.125712	-0.804909	-0.755978
C29	C	1.167436	-1.039944	-0.700609
C30	C	1.362559	-0.432950	-0.745655
C31	C	1.454632	-0.437256	-0.753059
C32	C	1.130910	-0.405406	-1.054879
C33	C	1.124268	-0.397974	-1.194055
C34	C	1.158358	-0.206784	-0.712692
C35	C	1.163413	-0.114711	-0.706048
C36	C	1.162074	-0.440158	-0.402955
C37	C	1.168889	-0.447363	-0.263775
H38	H	0.653073	-0.486440	-0.837493
H39	H	1.080989	-0.350006	-1.240838
H40	H	1.220620	-0.916284	-0.629593
H41	H	0.640755	-0.359308	-0.619173
N42	N	1.223198	-0.507528	-1.205071
N43	N	1.228705	-0.513675	-1.088303
H44	H	1.267062	-0.556164	-1.046841
H45	H	1.072522	-0.928564	-0.826999
