data_functionalizedCrystal
_audit_creation_method	'MofGen! by Chris Wilmer'
_symmetry_space_group_name_H-M	'P1'
_symmetry_Int_Tables_number	1
_symmetry_cell_setting	triclinic
loop_
_symmetry_equiv_pos_as_xyz
  x,y,z
_cell_length_a	8.559649
_cell_length_b	10.654545
_cell_length_c	7.088929
_cell_angle_alpha	83.718243
_cell_angle_beta	95.325015
_cell_angle_gamma	77.132046
loop_
_atom_site_label
_atom_site_type_symbol
_atom_site_fract_x
_atom_site_fract_y
_atom_site_fract_z
O1	O	2.103417	-0.028084	-0.158958
O2	O	1.638931	0.036703	-0.158965
O3	O	1.881852	-0.179533	-0.158960
O4	O	1.860495	0.188152	-0.158963
O5	O	1.914316	-0.208489	0.159016
O6	O	1.671394	0.007747	0.159011
O7	O	2.135880	-0.057040	0.159018
Cu8	Cu	1.906601	-0.027291	0.188048
Cu9	Cu	1.868210	0.006953	-0.187995
O10	O	1.892959	0.159196	0.159013
C11	C	1.595687	0.027135	0.000022
C12	C	1.418468	0.041749	0.000019
C13	C	1.896515	-0.240647	0.000024
C14	C	1.891821	-0.379604	0.000013
C15	C	1.856448	-0.348046	-0.346654
C16	C	1.836562	-0.397550	-0.519987
C17	C	1.832153	-0.528113	-0.519989
C18	C	1.847627	-0.609176	-0.346640
C19	C	1.867512	-0.559672	-0.173307
C20	C	1.871924	-0.429105	-0.173324
C21	C	1.902873	-0.591228	0.173356
C22	C	1.907294	-0.460667	0.173362
C23	C	1.918347	-0.672291	0.346705
C24	C	1.938244	-0.622790	0.520042
C25	C	1.942654	-0.492219	0.520037
C26	C	1.927180	-0.411164	0.346695
C27	C	2.179124	-0.047472	0.000027
C28	C	2.356341	-0.062085	0.000017
C29	C	1.878295	0.220310	0.000024
C30	C	1.882988	0.359268	0.000023
N31	N	1.933616	-0.051378	0.452537
N32	N	1.841208	0.031029	-0.452484
H33	H	1.438727	-0.162162	0.000008
H34	H	1.745438	0.116427	0.465868
H35	H	1.823962	-0.331534	-0.661124
C36	C	2.009380	-0.196946	-0.252270
C37	C	1.861312	-0.204532	-0.346661
H38	H	2.012384	-0.108344	-0.252290
H39	H	2.021421	-0.238126	-0.124244
H40	H	2.094754	-0.239206	-0.316285
H41	H	1.775939	-0.162280	-0.282637
H42	H	1.849255	-0.163334	-0.474710
C43	C	1.947168	-0.836943	0.673962
C44	C	1.955251	-0.711893	0.710569
H45	H	1.957679	-0.891955	0.791591
H46	H	1.846269	-0.833302	0.602746
H47	H	2.032097	-0.870386	0.602748
H48	H	1.870314	-0.678446	0.781771
H49	H	2.056163	-0.715530	0.781816
H50	H	1.336071	0.141835	0.000008
H51	H	1.815946	-0.568414	-0.661132
H52	H	1.844015	-0.715482	-0.346657
H53	H	1.914746	-0.778600	0.346691
C54	C	1.786890	-0.188220	0.252293
C55	C	1.932019	-0.267645	0.346690
H56	H	1.789873	-0.099616	0.252298
H57	H	1.772853	-0.206105	0.124272
H58	H	1.699520	-0.205061	0.316314
H59	H	2.019388	-0.250810	0.282660
H60	H	1.946074	-0.249752	0.474733
H61	H	1.958823	-0.451917	0.661186
H62	H	2.029404	-0.136774	0.534194
