data_functionalizedCrystal
_audit_creation_method	'MofGen! by Chris Wilmer'
_symmetry_space_group_name_H-M	'P1'
_symmetry_Int_Tables_number	1
_symmetry_cell_setting	triclinic
loop_
_symmetry_equiv_pos_as_xyz
  x,y,z
_cell_length_a	12.759401
_cell_length_b	13.032721
_cell_length_c	12.759393
_cell_angle_alpha	82.850774
_cell_angle_beta	90.020938
_cell_angle_gamma	97.205831
loop_
_atom_site_label
_atom_site_type_symbol
_atom_site_fract_x
_atom_site_fract_y
_atom_site_fract_z
Zn1	Zn	1.553113	-0.415945	0.647098
Zn2	Zn	2.053113	0.084055	1.147098
Zn3	Zn	1.530669	-0.590725	0.493722
Zn4	Zn	2.030669	-0.090725	0.993722
Zn5	Zn	1.377404	-0.416001	0.471441
Zn6	Zn	1.877404	0.083999	0.971441
Zn7	Zn	1.355078	-0.590652	0.669350
Zn8	Zn	1.855078	-0.090652	1.169350
O9	O	1.454066	-0.503331	0.570403
O10	O	1.954066	-0.003331	1.070403
O11	O	1.697156	-0.439137	0.626765
O12	O	2.197156	0.060863	1.126765
O13	O	1.510289	-0.567601	0.343752
O14	O	2.010289	-0.067601	0.843752
O15	O	1.419449	-0.269756	0.476105
O16	O	1.919449	0.230244	0.976105
O17	O	1.680666	-0.567547	0.514080
O18	O	2.180666	-0.067547	1.014080
O19	O	1.548541	-0.269715	0.605160
O20	O	2.048541	0.230285	1.105160
O21	O	1.397686	-0.439232	0.327382
O22	O	1.897686	0.060768	0.827382
O23	O	1.227423	-0.439161	0.497681
O24	O	1.727423	0.060839	0.997681
O25	O	1.381397	-0.567423	0.813412
O26	O	1.881397	-0.067423	1.313412
O27	O	1.211019	-0.567477	0.643084
O28	O	1.711019	-0.067477	1.143084
O29	O	1.526892	-0.439067	0.797064
O30	O	2.026892	0.060933	1.297064
O31	O	1.488640	-0.736953	0.535656
O32	O	1.988640	-0.236953	1.035656
O33	O	1.359634	-0.736899	0.664689
O34	O	1.859634	-0.236899	1.164689
C35	C	1.181100	-0.503318	0.570380
C36	C	1.681100	-0.003318	1.070380
C37	C	1.064321	-0.503338	0.570399
C38	C	1.564321	-0.003338	1.070399
C39	C	1.419307	-0.774844	0.605028
C40	C	1.919307	-0.274844	1.105028
C41	C	1.404533	-0.890999	0.619876
C42	C	1.904533	-0.390999	1.119876
C43	C	1.000932	-0.570253	0.646017
C44	C	1.500932	-0.070253	1.146017
C45	C	0.891208	-0.570257	0.646038
C46	C	1.391208	-0.070257	1.146038
C47	C	0.908271	-0.436427	0.494813
C48	C	1.408271	0.063573	0.994813
C49	C	1.017994	-0.436419	0.494797
C50	C	1.517994	0.063581	0.994797
C51	C	1.461832	-0.942776	0.562700
C52	C	1.961832	-0.442776	1.062700
C53	C	1.446564	-1.062828	0.578045
C54	C	1.946564	-0.562828	1.078045
C55	C	1.728097	-0.503344	0.570426
C56	C	2.228097	-0.003344	1.070426
C57	C	1.844873	-0.503350	0.570436
C58	C	2.344873	-0.003350	1.070436
C59	C	1.454157	-0.503230	0.844423
C60	C	1.954157	-0.003230	1.344423
C61	C	1.454196	-0.503188	0.961194
C62	C	1.954196	-0.003188	1.461194
C63	C	1.488989	-0.230757	0.535665
C64	C	1.988989	0.269243	1.035665
C65	C	1.503872	-0.114602	0.520862
C66	C	2.003872	0.385398	1.020862
C67	C	1.454045	-0.503355	0.297438
C68	C	1.954045	-0.003355	0.797438
C69	C	1.454247	-0.503104	0.180630
C70	C	1.954247	-0.003104	0.680630
C71	C	1.529962	-0.436342	1.007544
C72	C	2.029962	0.063658	1.507544
C73	C	1.529986	-0.436297	1.117263
C74	C	2.029986	0.063703	1.617263
C75	C	1.378473	-0.569952	1.134273
C76	C	1.878473	-0.069952	1.634273
C77	C	1.378446	-0.569991	1.024556
C78	C	1.878446	-0.069991	1.524556
H79	H	1.038649	-0.624740	0.707579
H80	H	1.538649	-0.124740	1.207579
C81	C	0.786688	-0.421744	0.351660
C82	C	1.286688	0.078256	0.851660
C83	C	0.857342	-0.362878	0.411711
C84	C	1.357342	0.137122	0.911711
H85	H	0.755254	-0.376336	0.300351
H86	H	1.255254	0.123664	0.800351
H87	H	0.733238	-0.461590	0.396697
H88	H	1.233238	0.038410	0.896697
H89	H	0.823663	-0.467217	0.317191
H90	H	1.323663	0.032783	0.817191
H91	H	0.820365	-0.317410	0.446187
H92	H	1.320365	0.182590	0.946187
H93	H	0.910800	-0.323015	0.366668
H94	H	1.410800	0.176985	0.866668
H95	H	1.316741	-0.624424	0.986817
H96	H	1.816741	-0.124424	1.486817
H97	H	1.344178	-0.935548	0.680190
H98	H	1.844178	-0.435548	1.180190
C99	C	0.885370	-0.702549	0.795505
C100	C	1.385370	-0.202549	1.295505
C101	C	0.821530	-0.643818	0.729157
C102	C	1.321530	-0.143818	1.229157
H103	H	0.842351	-0.747967	0.846816
H104	H	1.342351	-0.247967	1.346816
H105	H	0.934006	-0.657066	0.829961
H106	H	1.434006	-0.157066	1.329961
H107	H	0.923034	-0.742460	0.754731
H108	H	1.423034	-0.242460	1.254731
H109	H	0.783872	-0.603901	0.769929
H110	H	1.283872	-0.103901	1.269929
H111	H	0.772875	-0.689307	0.694699
H112	H	1.272875	-0.189307	1.194699
C113	C	1.159373	-0.295819	0.462487
C114	C	1.659373	0.204181	0.962487
C115	C	1.087679	-0.362859	0.411670
C116	C	1.587679	0.137141	0.911670
H117	H	1.202388	-0.250404	0.411170
H118	H	1.702388	0.249596	0.911170
H119	H	1.202661	-0.335668	0.507502
H120	H	1.702661	0.164332	1.007502
H121	H	1.121688	-0.255907	0.503239
H122	H	1.621688	0.244093	1.003239
H123	H	1.125365	-0.402777	0.370924
H124	H	1.625365	0.097223	0.870924
H125	H	1.044386	-0.323006	0.366637
H126	H	1.544386	0.176994	0.866637
C127	C	1.679718	-0.304216	1.001754
C128	C	2.179718	0.195784	1.501754
C129	C	1.613216	-0.362902	0.937896
C130	C	2.113216	0.137098	1.437896
H131	H	1.731110	-0.258870	0.958755
H132	H	2.231110	0.241130	1.458755
H133	H	1.714082	-0.349733	1.050353
H134	H	2.214082	0.150267	1.550353
H135	H	1.639061	-0.264230	1.039449
H136	H	2.139061	0.235770	1.539449
H137	H	1.653872	-0.402894	0.900206
H138	H	2.153872	0.097106	1.400206
H139	H	1.578850	-0.317379	0.889278
H140	H	2.078850	0.182621	1.389278
C141	C	1.492002	-0.819992	0.405809
C142	C	1.992002	-0.319992	0.905809
C143	C	1.543317	-0.882647	0.481278
C144	C	2.043317	-0.382647	0.981278
H145	H	1.542309	-0.782878	0.355539
H146	H	2.042309	-0.282878	0.855539
H147	H	1.458042	-0.771957	0.439696
H148	H	1.958042	-0.271957	0.939696
H149	H	1.440864	-0.862654	0.370999
H150	H	1.940864	-0.362654	0.870999
H151	H	1.594449	-0.839983	0.516094
H152	H	2.094449	-0.339983	1.016094
H153	H	1.577294	-0.930686	0.447388
H154	H	2.077294	-0.430686	0.947388
C155	C	1.365719	-1.230242	0.658909
C156	C	1.865719	-0.730242	1.158909
C157	C	1.365072	-1.122953	0.659469
C158	C	1.865072	-0.622953	1.159469
H159	H	1.315406	-1.267359	0.709172
H160	H	1.815406	-0.767359	1.209172
H161	H	1.434052	-1.247997	0.676605
H162	H	1.934052	-0.747997	1.176605
H163	H	1.348120	-1.248134	0.590572
H164	H	1.848120	-0.748134	1.090572
H165	H	1.382679	-1.105060	0.727804
H166	H	1.882679	-0.605060	1.227804
H167	H	1.296725	-1.105191	0.641780
H168	H	1.796725	-0.605191	1.141780
H169	H	1.564240	-1.070058	0.460551
H170	H	2.064240	-0.570058	0.960551
C171	C	1.562625	-0.295671	1.222716
C172	C	2.062625	0.204329	1.722716
C173	C	1.613269	-0.362812	1.168205
C174	C	2.113269	0.137188	1.668205
H175	H	1.614044	-0.250297	1.254157
H176	H	2.114044	0.249703	1.754157
H177	H	1.517534	-0.335449	1.276155
H178	H	2.017534	0.164551	1.776155
H179	H	1.521964	-0.255720	1.174797
H180	H	2.021964	0.244280	1.674797
H181	H	1.653925	-0.402769	1.216126
H182	H	2.153925	0.097231	1.716126
H183	H	1.658379	-0.323030	1.114760
H184	H	2.158379	0.176970	1.614760
C185	C	1.194056	-0.620830	1.174516
C186	C	1.694056	-0.120830	1.674516
C187	C	1.295217	-0.643387	1.203924
C188	C	1.795217	-0.143387	1.703924
H189	H	1.142659	-0.666166	1.217520
H190	H	1.642659	-0.166166	1.717520
H191	H	1.183202	-0.630422	1.102548
H192	H	1.683202	-0.130422	1.602548
H193	H	1.187695	-0.550607	1.183555
H194	H	1.687695	-0.050607	1.683555
H195	H	1.301581	-0.713609	1.194877
H196	H	1.801581	-0.213609	1.694877
H197	H	1.306074	-0.633805	1.275909
H198	H	1.806074	-0.133805	1.775909
