data_functionalizedCrystal
_audit_creation_method	'MofGen! by Chris Wilmer'
_symmetry_space_group_name_H-M	'P1'
_symmetry_Int_Tables_number	1
_symmetry_cell_setting	triclinic
loop_
_symmetry_equiv_pos_as_xyz
  x,y,z
_cell_length_a	19.077105
_cell_length_b	12.759393
_cell_length_c	19.076919
_cell_angle_alpha	92.277838
_cell_angle_beta	89.923776
_cell_angle_gamma	92.288570
loop_
_atom_site_label
_atom_site_type_symbol
_atom_site_fract_x
_atom_site_fract_y
_atom_site_fract_z
Zn1	Zn	1.058326	0.508277	0.440454
Zn2	Zn	1.062985	0.677205	0.322959
Zn3	Zn	0.945542	0.494203	0.318246
Zn4	Zn	0.940806	0.676571	0.435712
O5	O	1.001915	0.589064	0.379343
O6	O	1.157277	0.536841	0.428825
O7	O	1.051337	0.647304	0.224002
O8	O	0.960536	0.349051	0.334470
O9	O	1.160699	0.660951	0.342502
O10	O	1.043398	0.359392	0.424255
O11	O	0.965053	0.512853	0.220540
O12	O	0.846582	0.512239	0.329871
O13	O	0.952464	0.659871	0.534672
O14	O	0.843102	0.646224	0.416173
O15	O	1.038805	0.536227	0.538156
O16	O	1.046745	0.824139	0.337903
O17	O	0.956981	0.823673	0.420742
C18	C	0.819345	0.577636	0.371996
C19	C	0.741241	0.572774	0.368870
C20	C	0.702756	0.640345	0.412263
C21	C	0.629369	0.635763	0.409329
C22	C	0.594467	0.563613	0.362998
C23	C	0.632956	0.496034	0.319603
C24	C	0.706342	0.500612	0.322541
C25	C	0.375177	0.542425	0.349404
C26	C	0.301785	0.537854	0.346468
C27	C	0.298203	0.677582	0.436195
C28	C	0.371591	0.682158	0.439126
C29	C	0.410074	0.614576	0.395734
N30	N	0.519452	0.558930	0.359997
N31	N	0.485087	0.619255	0.398740
C32	C	1.001873	0.862028	0.379336
C33	C	1.001918	0.978809	0.379359
C34	C	1.095454	0.979249	0.293169
C35	C	1.142240	1.034331	0.250085
C36	C	1.142280	1.144056	0.250111
C37	C	1.095531	1.198702	0.293226
C38	C	1.048745	1.143620	0.336310
C39	C	1.048709	1.033892	0.336278
C40	C	0.955214	1.143181	0.422502
C41	C	0.955169	1.033455	0.422474
C42	C	0.908465	1.197827	0.465618
C43	C	0.861674	1.142744	0.508699
C44	C	0.861635	1.033012	0.508671
C45	C	0.908383	0.978373	0.465558
C46	C	1.185197	0.600537	0.386718
C47	C	1.263301	0.605426	0.389861
C48	C	0.994587	0.599548	0.562624
C49	C	0.991464	0.604016	0.640727
C50	C	1.001975	1.315036	0.379377
C51	C	1.002000	1.198263	0.379419
C52	C	1.009255	0.578547	0.196776
C53	C	1.012514	0.573792	0.118679
C54	C	1.034948	0.541743	0.679235
C55	C	1.032005	0.545936	0.752621
C56	C	0.985581	0.612409	0.787498
C57	C	0.942092	0.674685	0.748984
C58	C	0.945032	0.670485	0.675600
C59	C	0.971965	0.631867	1.006780
C60	C	0.969030	0.636065	1.080171
C61	C	1.058942	0.507314	1.083802
C62	C	1.061881	0.503125	1.010416
C63	C	1.018389	0.565397	0.971909
N64	N	0.982573	0.616700	0.862510
N65	N	1.021394	0.561100	0.896898
H66	H	0.737675	0.445583	0.287210
C67	C	0.741145	0.719712	0.463230
C68	C	0.789406	0.680622	0.520468
C69	C	0.827792	0.759989	0.571438
C70	C	0.817917	0.878445	0.565169
C71	C	0.769653	0.917541	0.507929
C72	C	0.731267	0.838175	0.456959
H73	H	0.796719	0.592929	0.525110
H74	H	0.863520	0.731047	0.613811
H75	H	0.846332	0.937197	0.602900
H76	H	0.762340	1.005235	0.503286
H77	H	0.695539	0.867117	0.414586
C78	C	1.106775	0.438812	1.126161
C79	C	1.157839	0.365693	1.087798
C80	C	1.205674	0.297184	1.130156
C81	C	1.202444	0.301795	1.210877
C82	C	1.151378	0.374917	1.249244
C83	C	1.103543	0.443425	1.206886
H84	H	1.160232	0.362277	1.028040
H85	H	1.243476	0.243054	1.101754
H86	H	1.237853	0.251081	1.242233
H87	H	1.148985	0.378332	1.309002
H88	H	1.065741	0.497555	1.235288
H89	H	0.823539	0.988170	0.543758
H90	H	1.072753	0.487617	0.650844
C91	C	0.810257	1.202854	0.556123
C92	C	0.810306	1.323549	0.556159
C93	C	0.758888	1.383663	0.603584
C94	C	0.707421	1.323082	0.650974
C95	C	0.707370	1.202380	0.650940
C96	C	0.758788	1.142266	0.603515
H97	H	0.848407	1.368401	0.521076
H98	H	0.758926	1.473015	0.603609
H99	H	0.669359	1.367582	0.686081
H100	H	0.669270	1.157529	0.686023
H101	H	0.758750	1.052915	0.603490
H102	H	1.095417	0.889903	0.293134
H103	H	0.604533	0.437284	0.281882
C104	C	0.587039	0.710098	0.457062
C105	C	0.597348	0.829812	0.451591
C106	C	0.555020	0.904151	0.499328
C107	C	0.502384	0.858776	0.552536
C108	C	0.492073	0.739055	0.558009
C109	C	0.534400	0.664717	0.510272
H110	H	0.636315	0.863408	0.412202
H111	H	0.562653	0.992776	0.495277
H112	H	0.471050	0.913806	0.587874
H113	H	0.453106	0.705460	0.597398
H114	H	0.526767	0.576092	0.514324
H115	H	0.904291	0.728805	0.777387
H116	H	0.400003	0.740913	0.476852
H117	H	1.099686	0.448999	0.982025
H118	H	0.406501	0.487402	0.314066
C119	C	1.079839	0.477432	0.794977
C120	C	1.160124	0.490434	0.788107
C121	C	1.207960	0.421923	0.830461
C122	C	1.175511	0.340409	0.879685
C123	C	1.095222	0.327403	0.886556
C124	C	1.047386	0.395915	0.844203
H125	H	1.184148	0.550779	0.751667
H126	H	1.267395	0.431551	0.825374
H127	H	1.210922	0.289692	0.911038
H128	H	1.071198	0.267059	0.922997
H129	H	0.987951	0.386287	0.849290
C130	C	1.193664	0.974220	0.202662
C131	C	1.193625	0.853526	0.202628
C132	C	1.245052	0.793420	0.155208
C133	C	1.296518	0.854009	0.107821
C134	C	1.296558	0.974710	0.107853
C135	C	1.245132	1.034816	0.155273
H136	H	1.155526	0.808669	0.237709
H137	H	1.245022	0.704069	0.155185
H138	H	1.334587	0.809515	0.072718
H139	H	1.334658	1.019568	0.072772
H140	H	1.245162	1.124167	0.155296
H141	H	0.266863	0.732603	0.471524
C142	C	0.917983	0.709224	1.118538
C143	C	0.870160	0.777747	1.076184
C144	C	0.819129	0.850922	1.114552
C145	C	0.815920	0.855573	1.195274
C146	C	0.863744	0.787047	1.237632
C147	C	0.914775	0.713872	1.199264
H148	H	0.872534	0.774306	1.016425
H149	H	0.783726	0.901649	1.083195
H150	H	0.778144	0.909741	1.223676
H151	H	0.861370	0.790488	1.297391
H152	H	0.950178	0.663145	1.230620
C153	C	0.924118	0.700373	0.964444
C154	C	0.843836	0.687363	0.971343
C155	C	0.795981	0.755873	0.929009
C156	C	0.828408	0.837393	0.879777
C157	C	0.908694	0.850406	0.872876
C158	C	0.956549	0.781896	0.915209
H159	H	0.819829	0.627014	1.007789
H160	H	0.736548	0.746239	0.934118
H161	H	0.792983	0.888108	0.848439
H162	H	0.932701	0.910755	0.836429
H163	H	1.015982	0.791530	0.910100
H164	H	0.273370	0.479089	0.308744
H165	H	1.180381	1.188905	0.215032
H166	H	1.095574	1.288047	0.293249
H167	H	0.908504	1.287172	0.465639
H168	H	0.908352	0.889028	0.465526
H169	H	0.909616	0.721184	0.644247
