data_functionalizedCrystal
_audit_creation_method	'MofGen! by Chris Wilmer'
_symmetry_space_group_name_H-M	'P1'
_symmetry_Int_Tables_number	1
_symmetry_cell_setting	triclinic
loop_
_symmetry_equiv_pos_as_xyz
  x,y,z
_cell_length_a	15.995343
_cell_length_b	14.853567
_cell_length_c	13.930277
_cell_angle_alpha	90.000757
_cell_angle_beta	90.002897
_cell_angle_gamma	83.562057
loop_
_atom_site_label
_atom_site_type_symbol
_atom_site_fract_x
_atom_site_fract_y
_atom_site_fract_z
O1	O	-1.111128	-0.116172	-0.079726
O2	O	-0.867369	-0.130530	-0.079748
O3	O	-0.995760	0.007888	-0.079740
O4	O	-0.982737	-0.254590	-0.079735
O5	O	-0.995742	0.007891	0.079922
O6	O	-0.867351	-0.130527	0.079913
O7	O	-1.111110	-0.116169	0.079936
Zn8	Zn	-0.989228	-0.123347	0.105274
Zn9	Zn	-0.989251	-0.123351	-0.105087
O10	O	-0.982719	-0.254587	0.079927
C11	C	-0.995161	0.041477	0.000088
C12	C	-0.993392	0.141558	0.000080
C13	C	-0.836164	-0.129936	0.000080
C14	C	-0.743211	-0.128160	0.000071
C15	C	-1.142315	-0.116763	0.000105
C16	C	-1.235267	-0.118539	0.000108
C17	C	-0.573021	-0.124937	0.000084
C18	C	-0.549559	-0.025021	0.000082
C19	C	-0.452879	-0.023141	0.000450
C20	C	-0.405458	-0.121762	0.000095
C21	C	-0.434597	-0.172000	0.091089
C22	C	-0.531391	-0.173185	0.091160
C23	C	-0.531324	-0.174651	-0.090412
C24	C	-0.434825	-0.170963	-0.091602
C25	C	-0.310757	-0.119973	0.000105
C26	C	-0.667721	-0.126729	0.000080
C27	C	-0.983318	-0.288176	0.000097
C28	C	-0.985086	-0.388257	0.000099
N29	N	-0.989218	-0.123344	0.248840
C30	C	-0.909651	0.553977	0.000091
C31	C	-1.062182	0.575468	0.000104
C32	C	-1.063845	0.481437	0.000099
C33	C	-0.988409	0.423671	0.000091
C34	C	-0.911311	0.459936	0.000088
C35	C	-1.140942	0.445164	0.000111
C36	C	-1.142607	0.351127	0.000107
C37	C	-1.067171	0.293359	0.000092
C38	C	-0.990070	0.329630	0.000088
C39	C	-0.914634	0.271865	0.000080
C40	C	-0.837532	0.308134	0.000069
C41	C	-0.835875	0.402169	0.000073
C42	C	-1.068828	0.199324	0.000088
C43	C	-0.916294	0.177824	0.000077
N44	N	-0.989268	-0.123347	-0.248653
C45	C	-0.932397	-0.184619	0.701106
C46	C	-1.046128	-0.062077	0.701083
C47	C	-1.046118	-0.062074	0.600587
C48	C	-0.989248	-0.123345	0.550346
C49	C	-0.932387	-0.184619	0.600601
C50	C	-1.102983	-0.000808	0.550325
C51	C	-1.102976	-0.000803	0.449823
C52	C	-1.046101	-0.062071	0.399580
C53	C	-0.989238	-0.123346	0.449841
C54	C	-0.932367	-0.184617	0.399600
C55	C	-0.875500	-0.245890	0.449859
C56	C	-0.875512	-0.245887	0.550358
C57	C	-1.046088	-0.062073	0.299081
C58	C	-0.932357	-0.184618	0.299095
H59	H	-0.433821	0.016185	-0.064766
H60	H	-0.773102	0.431708	0.000065
C61	C	-0.391682	-0.270053	0.095327
N62	N	-0.359353	-0.343905	0.098518
C63	C	-1.223915	0.508711	0.000127
N64	N	-1.286413	0.556579	0.000138
H65	H	-0.886043	-0.234510	0.258195
H66	H	-0.829199	-0.295781	0.408941
H67	H	-1.205388	0.321605	0.000114
C68	C	-0.407397	-0.125427	0.182921
N69	N	-0.386912	-0.090343	0.252087
C70	C	-0.824842	0.593873	0.000088
N71	N	-0.760964	0.623925	0.000090
H72	H	-0.401952	-0.242923	-0.097377
C73	C	-1.145157	0.639013	0.000118
N74	N	-1.207656	0.686879	0.000127
C75	C	-0.569470	-0.132060	-0.183618
N76	N	-0.598203	-0.099970	-0.253816
C77	C	-1.165525	0.066604	0.394547
N78	N	-1.212634	0.117379	0.352913
C79	C	-0.812959	-0.313276	0.605650
N80	N	-0.765844	-0.364031	0.647300
H81	H	-1.131603	0.169798	0.000103
H82	H	-0.886094	-0.234503	0.742029
H83	H	-1.092434	-0.012196	0.741992
H84	H	-1.092393	-0.012190	0.258165
C85	C	-0.754556	0.244580	0.000060
N86	N	-0.692060	0.196707	0.000052
H87	H	-1.149289	0.049073	0.591234
H88	H	-0.578492	0.013078	0.065236
C89	C	-0.587361	0.027307	-0.088048
N90	N	-0.615844	0.066723	-0.154426
H91	H	-0.434390	0.016003	0.066058
C92	C	-0.567516	-0.126723	0.183396
N93	N	-0.594722	-0.091724	0.252869
H94	H	-0.546050	-0.246456	0.095052
H95	H	-0.416232	-0.134377	-0.158921
H96	H	-0.545423	-0.248196	-0.091287
H97	H	-0.854864	0.130796	0.000066
