data_functionalizedCrystal
_audit_creation_method	'MofGen! by Chris Wilmer'
_symmetry_space_group_name_H-M	'P1'
_symmetry_Int_Tables_number	1
_symmetry_cell_setting	triclinic
loop_
_symmetry_equiv_pos_as_xyz
  x,y,z
_cell_length_a	10.686220
_cell_length_b	10.686685
_cell_length_c	10.686551
_cell_angle_alpha	89.638883
_cell_angle_beta	90.308082
_cell_angle_gamma	89.688259
loop_
_atom_site_label
_atom_site_type_symbol
_atom_site_fract_x
_atom_site_fract_y
_atom_site_fract_z
Zn1	Zn	-1.997271	0.304031	0.583828
Zn2	Zn	-1.497271	0.804031	1.083828
Zn3	Zn	-1.999590	0.529747	0.389988
Zn4	Zn	-1.499590	1.029747	0.889988
Zn5	Zn	-1.774011	0.335932	0.392395
Zn6	Zn	-1.274011	0.835932	0.892395
Zn7	Zn	-1.805813	0.527220	0.615588
Zn8	Zn	-1.305813	1.027220	1.115588
O9	O	-1.894172	0.424233	0.495450
O10	O	-1.394172	0.924233	0.995450
O11	O	-2.172111	0.321680	0.543816
O12	O	-1.672111	0.821680	1.043816
O13	O	-1.957328	0.518446	0.215778
O14	O	-1.457328	1.018446	0.715778
O15	O	-1.789348	0.157183	0.405505
O16	O	-1.289348	0.657183	0.905505
O17	O	-2.173814	0.487512	0.401403
O18	O	-1.673814	0.987512	0.901403
O19	O	-1.953376	0.133745	0.546150
O20	O	-1.453376	0.633745	1.046150
O21	O	-1.791596	0.376051	0.217547
O22	O	-1.291596	0.876051	0.717547
O23	O	-1.603698	0.373600	0.436301
O24	O	-1.103698	0.873600	0.936301
O25	O	-1.843549	0.483205	0.785904
O26	O	-1.343549	0.983205	1.285904
O27	O	-1.627063	0.514138	0.600280
O28	O	-1.127063	1.014138	1.100280
O29	O	-1.984213	0.319229	0.762570
O30	O	-1.484213	0.819229	1.262570
O31	O	-1.988165	0.703929	0.432198
O32	O	-1.488165	1.203929	0.932198
O33	O	-1.845797	0.702073	0.597945
O34	O	-1.345797	1.202073	1.097945
C35	C	-1.920720	0.748247	0.518281
C36	C	-1.420720	1.248247	1.018281
C37	C	-1.932194	0.886850	0.528081
C38	C	-1.432194	1.386850	1.028081
C39	C	-1.570126	0.447058	0.521999
C40	C	-1.070126	0.947058	1.021999
C41	C	-1.431503	0.456850	0.533388
C42	C	-0.931503	0.956850	1.033388
C43	C	-1.917169	0.397377	0.820756
C44	C	-1.417169	0.897377	1.320756
C45	C	-1.926970	0.385932	0.959382
C46	C	-1.426970	0.885932	1.459382
C47	C	-2.219482	0.401319	0.468798
C48	C	-1.719482	0.901319	0.968798
C49	C	-2.358110	0.391555	0.457441
C50	C	-1.858110	0.891555	0.957441
C51	C	-1.867556	0.098948	0.472553
C52	C	-1.367556	0.598948	0.972553
C53	C	-1.856214	-0.039668	0.462796
C54	C	-1.356214	0.460332	0.962796
C55	C	-1.871328	0.450889	0.171397
C56	C	-1.371328	0.950889	0.671397
C57	C	-1.861740	0.461965	0.032727
C58	C	-1.361740	0.961965	0.532727
H59	H	-1.401326	0.328163	0.383704
H60	H	-0.901326	0.828163	0.883704
H61	H	-2.006030	0.929981	0.591465
H62	H	-1.506030	1.429981	1.091465
O63	O	-1.777822	0.559789	0.975441
O64	O	-1.277822	1.059789	1.475441
H65	H	-1.783023	0.553721	0.871897
H66	H	-1.283023	1.053721	1.371897
O67	O	-2.010888	0.288106	1.016684
O68	O	-1.510888	0.788106	1.516684
H69	H	-2.057133	0.234220	0.941155
H70	H	-1.557133	0.734220	1.441155
H71	H	-1.388282	0.520254	0.607122
H72	H	-0.888282	1.020254	1.107122
H73	H	-1.782391	0.917207	0.399406
H74	H	-1.282391	1.417207	0.899406
