data_functionalizedCrystal
_audit_creation_method	'MofGen! by Chris Wilmer'
_symmetry_space_group_name_H-M	'P1'
_symmetry_Int_Tables_number	1
_symmetry_cell_setting	triclinic
loop_
_symmetry_equiv_pos_as_xyz
  x,y,z
_cell_length_a	10.654546
_cell_length_b	17.699092
_cell_length_c	9.730223
_cell_angle_alpha	90.000361
_cell_angle_beta	89.998853
_cell_angle_gamma	83.884926
loop_
_atom_site_label
_atom_site_type_symbol
_atom_site_fract_x
_atom_site_fract_y
_atom_site_fract_z
O1	O	1.665981	0.106286	-0.114314
O2	O	1.300325	0.116417	-0.114310
O3	O	1.493479	0.001228	-0.114309
O4	O	1.472828	0.221475	-0.114315
O5	O	1.493476	0.001231	0.114271
O6	O	1.300323	0.116420	0.114270
O7	O	1.665979	0.106289	0.114266
Zn8	Zn	1.483151	0.111355	0.150560
Zn9	Zn	1.483154	0.111351	-0.150604
O10	O	1.472826	0.221478	0.114265
C11	C	1.253539	0.115675	-0.000019
C12	C	1.114135	0.113451	-0.000018
C13	C	1.048659	0.112397	-0.124623
C14	C	0.917675	0.110302	-0.124634
C15	C	0.917654	0.110311	0.124576
C16	C	1.048634	0.112412	0.124586
C17	C	1.048671	0.112389	-0.268503
C18	C	0.917687	0.110293	-0.268514
C19	C	1.492736	-0.026972	-0.000021
C20	C	1.490511	-0.111004	-0.000028
C21	C	1.489469	-0.150479	-0.124628
C22	C	1.487371	-0.229436	-0.124630
C23	C	1.486322	-0.268915	-0.000029
C24	C	1.487360	-0.229434	0.124581
C25	C	1.489449	-0.150478	0.124581
C26	C	1.478930	-0.547853	0.124583
C27	C	1.476844	-0.626814	0.124573
C28	C	1.476851	-0.626810	-0.124628
C29	C	1.478941	-0.547854	-0.124628
C30	C	1.479972	-0.508379	-0.000018
C31	C	1.482245	-0.422766	-0.000018
C32	C	1.484058	-0.354528	-0.000028
C33	C	1.712765	0.107031	-0.000028
C34	C	1.852170	0.109255	-0.000039
C35	C	1.473569	0.249678	-0.000026
C36	C	1.475794	0.333710	-0.000029
N37	N	1.483158	0.111357	0.356096
N38	N	1.483157	0.111343	-0.356141
C39	C	1.568708	0.060369	0.428023
C40	C	1.568705	0.060360	0.571906
C41	C	1.397597	0.162333	0.571923
C42	C	1.397596	0.162338	0.428043
C43	C	1.667499	0.001498	0.428014
C44	C	1.667496	0.001488	0.571897
H45	H	0.864307	0.109466	0.226024
O46	O	1.628348	-0.071326	0.631007
H47	H	1.629948	-0.068327	0.744926
O48	O	1.486196	-0.271996	-0.259035
H49	H	1.572147	-0.263149	-0.318810
H50	H	1.763781	0.014455	0.610946
H51	H	1.486498	-0.261584	0.226033
O52	O	1.480057	-0.505269	-0.259016
H53	H	1.478963	-0.545983	-0.345662
H54	H	1.476006	-0.658959	-0.226091
O55	O	1.475699	-0.669400	0.258968
H56	H	1.476752	-0.628685	0.345619
O57	O	1.480074	-0.505282	0.258975
H58	H	1.479017	-0.546003	0.345613
H59	H	1.101335	0.058488	-0.313136
H60	H	1.490280	-0.118337	0.226043
H61	H	1.327924	0.203850	0.369481
O62	O	0.886040	0.039502	-0.341674
H63	H	0.835902	0.004303	-0.269911
O64	O	1.080331	0.183175	-0.341662
H65	H	0.991954	0.216170	-0.377475
H66	H	0.865035	0.164191	-0.313174
H67	H	1.327934	0.203840	0.630517
O68	O	1.640428	-0.075551	0.376263
H69	H	1.627162	-0.113275	0.465035
H70	H	1.490330	-0.118341	-0.226092
H71	H	1.758361	0.019930	0.383386
H72	H	1.101937	0.113279	0.226051
