data_functionalizedCrystal
_audit_creation_method	'MofGen! by Chris Wilmer'
_symmetry_space_group_name_H-M	'P1'
_symmetry_Int_Tables_number	1
_symmetry_cell_setting	triclinic
loop_
_symmetry_equiv_pos_as_xyz
  x,y,z
_cell_length_a	18.050591
_cell_length_b	25.639239
_cell_length_c	18.050582
_cell_angle_alpha	89.975362
_cell_angle_beta	89.979078
_cell_angle_gamma	90.034692
loop_
_atom_site_label
_atom_site_type_symbol
_atom_site_fract_x
_atom_site_fract_y
_atom_site_fract_z
Zn1	Zn	1.135238	-0.208240	-0.420021
Zn2	Zn	1.468572	0.125094	-0.086687
Zn3	Zn	1.801905	0.458427	0.246646
Zn4	Zn	1.135126	-0.295667	-0.295826
Zn5	Zn	1.468460	0.037666	0.037507
Zn6	Zn	1.801793	0.370999	0.370840
Zn7	Zn	1.011058	-0.208242	-0.295832
Zn8	Zn	1.344391	0.125092	0.037502
Zn9	Zn	1.677724	0.458425	0.370835
Zn10	Zn	1.010983	-0.295640	-0.419962
Zn11	Zn	1.344316	0.037693	-0.086628
Zn12	Zn	1.677650	0.371027	0.246705
O13	O	1.073101	-0.251947	-0.357910
O14	O	1.406435	0.081386	-0.024577
O15	O	1.739768	0.414719	0.308757
O16	O	1.239148	-0.219848	-0.403568
O17	O	1.572482	0.113485	-0.070235
O18	O	1.905815	0.446819	0.263098
O19	O	1.118653	-0.284083	-0.191902
O20	O	1.451986	0.049251	0.141431
O21	O	1.785320	0.382584	0.474764
O22	O	1.027609	-0.135076	-0.312333
O23	O	1.360942	0.198257	0.021001
O24	O	1.694275	0.531590	0.354334
O25	O	1.239066	-0.284081	-0.312323
O26	O	1.572399	0.049253	0.021010
O27	O	1.905733	0.382586	0.354343
O28	O	1.118844	-0.135075	-0.403574
O29	O	1.452177	0.198259	-0.070241
O30	O	1.785510	0.531592	0.263093
O31	O	1.027500	-0.219851	-0.191906
O32	O	1.360833	0.113482	0.141427
O33	O	1.694167	0.446815	0.474760
O34	O	0.907123	-0.219825	-0.312276
O35	O	1.240457	0.113509	0.021058
O36	O	1.573790	0.446842	0.354391
O37	O	1.027481	-0.284034	-0.523894
O38	O	1.360815	0.049300	-0.190561
O39	O	1.694148	0.382633	0.142772
O40	O	0.907068	-0.284036	-0.403473
O41	O	1.240402	0.049298	-0.070140
O42	O	1.573735	0.382631	0.263193
O43	O	1.118771	-0.219821	-0.523938
O44	O	1.452105	0.113512	-0.190604
O45	O	1.785438	0.446846	0.142729
O46	O	1.118580	-0.368829	-0.312266
O47	O	1.451914	-0.035496	0.021067
O48	O	1.785247	0.297838	0.354401
O49	O	1.027373	-0.368809	-0.403468
O50	O	1.360706	-0.035475	-0.070135
O51	O	1.694039	0.297858	0.263199
C52	C	0.880149	-0.251928	-0.357869
C53	C	1.213483	0.081406	-0.024536
C54	C	1.546816	0.414739	0.308798
C55	C	0.797604	-0.251932	-0.357869
C56	C	1.130937	0.081401	-0.024536
C57	C	1.464270	0.414735	0.308798
C58	C	1.072977	-0.387790	-0.357876
C59	C	1.406310	-0.054456	-0.024543
C60	C	1.739643	0.278877	0.308791
C61	C	1.072991	-0.445904	-0.357886
C62	C	1.406324	-0.112570	-0.024553
C63	C	1.739658	0.220763	0.308780
C64	C	0.598161	-0.216974	-0.308390
C65	C	0.931495	0.116360	0.024943
C66	C	1.264828	0.449693	0.358277
C67	C	0.548729	-0.264661	-0.290112
C68	C	0.882062	0.068672	0.043222
C69	C	1.215396	0.402006	0.376555
C70	C	0.646473	-0.251948	-0.357903
C71	C	0.979806	0.081385	-0.024569
C72	C	1.313140	0.414719	0.308764
C73	C	0.548824	-0.204277	-0.376179
C74	C	0.882157	0.129056	-0.042846
C75	C	1.215490	0.462390	0.290487
C76	C	0.500488	-0.251959	-0.357934
C77	C	0.833821	0.081374	-0.024600
C78	C	1.167155	0.414708	0.308733
C79	C	0.598128	-0.299660	-0.339589
C80	C	0.931462	0.033673	-0.006255
C81	C	1.264795	0.367006	0.327078
C82	C	0.598227	-0.239244	-0.425688
C83	C	0.931560	0.094089	-0.092355
C84	C	1.264894	0.427423	0.240979
C85	C	0.548817	-0.286965	-0.407435
C86	C	0.882151	0.046369	-0.074102
C87	C	1.215484	0.379702	0.259231
C88	C	0.730571	-0.251941	-0.357883
C89	C	1.063905	0.081393	-0.024550
C90	C	1.397238	0.414726	0.308784
C91	C	0.416392	-0.251971	-0.357954
C92	C	0.749725	0.081362	-0.024620
C93	C	1.083058	0.414695	0.308713
C94	C	1.120717	-0.806265	-0.310502
C95	C	1.454051	-0.472932	0.022831
C96	C	1.787384	-0.139598	0.356164
C97	C	1.120746	-0.860869	-0.310512
C98	C	1.454079	-0.527536	0.022821
C99	C	1.787413	-0.194202	0.356154
O100	O	1.161195	-0.889104	-0.270187
O101	O	1.494528	-0.555771	0.063146
O102	O	1.827862	-0.222438	0.396479
N103	N	1.073232	-0.888186	-0.357959
N104	N	1.406565	-0.554853	-0.024626
N105	N	1.739899	-0.221520	0.308707
C106	C	1.025691	-0.860896	-0.405405
C107	C	1.359025	-0.527563	-0.072072
C108	C	1.692358	-0.194230	0.261262
O109	O	0.985280	-0.889145	-0.445764
O110	O	1.318613	-0.555812	-0.112431
O111	O	1.651947	-0.222479	0.220903
C112	C	1.025667	-0.806293	-0.405398
C113	C	1.359000	-0.472960	-0.072065
C114	C	1.692334	-0.139626	0.261268
C115	C	1.073179	-0.778979	-0.357943
C116	C	1.406512	-0.445645	-0.024609
C117	C	1.739845	-0.112312	0.308724
C118	C	1.168226	-0.778951	-0.263051
C119	C	1.501559	-0.445617	0.070282
C120	C	1.834892	-0.112284	0.403615
C121	C	1.168196	-0.724350	-0.263040
C122	C	1.501529	-0.391017	0.070293
C123	C	1.834862	-0.057683	0.403626
C124	C	1.120657	-0.697064	-0.310481
C125	C	1.453991	-0.363730	0.022853
C126	C	1.787324	-0.030397	0.356186
C127	C	1.073149	-0.724378	-0.357932
C128	C	1.406482	-0.391045	-0.024599
C129	C	1.739815	-0.057711	0.308735
C130	C	0.978131	-0.779004	-0.452847
C131	C	1.311464	-0.445670	-0.119514
C132	C	1.644797	-0.112337	0.213820
C133	C	0.978111	-0.724397	-0.452837
C134	C	1.311444	-0.391063	-0.119503
C135	C	1.644777	-0.057730	0.213830
C136	C	1.025622	-0.697083	-0.405381
C137	C	1.358956	-0.363749	-0.072048
C138	C	1.692289	-0.030416	0.261286
C139	C	1.025580	-0.642491	-0.405362
C140	C	1.358914	-0.309158	-0.072028
C141	C	1.692247	0.024175	0.261305
N142	N	1.073094	-0.615174	-0.357914
N143	N	1.406428	-0.281841	-0.024581
N144	N	1.739761	0.051492	0.308752
C145	C	1.120633	-0.642460	-0.310474
C146	C	1.453966	-0.309127	0.022859
C147	C	1.787299	0.024206	0.356193
C148	C	1.025747	-0.975567	-0.405416
C149	C	1.359081	-0.642233	-0.072083
C150	C	1.692414	-0.308900	0.261250
C151	C	1.025768	-1.030169	-0.405420
C152	C	1.359101	-0.696836	-0.072087
C153	C	1.692434	-0.363502	0.261247
C154	C	1.120823	-1.030138	-0.310528
C155	C	1.454157	-0.696805	0.022805
C156	C	1.787490	-0.363472	0.356139
C157	C	1.120799	-0.975535	-0.310521
C158	C	1.454132	-0.642202	0.022812
C159	C	1.787465	-0.308868	0.356145
C160	C	1.073261	-0.948250	-0.357969
C161	C	1.406595	-0.614916	-0.024636
C162	C	1.739928	-0.281583	0.308697
C163	C	1.120566	-0.527795	-0.310455
C164	C	1.453899	-0.194462	0.022879
C165	C	1.787233	0.138871	0.356212
C166	C	1.120530	-0.473190	-0.310446
C167	C	1.453863	-0.139857	0.022887
C168	C	1.787196	0.193477	0.356221
C169	C	1.025477	-0.473226	-0.405340
C170	C	1.358810	-0.139892	-0.072007
C171	C	1.692144	0.193441	0.261326
C172	C	1.025510	-0.527826	-0.405347
C173	C	1.358843	-0.194493	-0.072013
C174	C	1.692177	0.138840	0.261320
C175	C	1.073061	-0.555110	-0.357901
C176	C	1.406394	-0.221776	-0.024568
C177	C	1.739727	0.111557	0.308765
O178	O	0.985154	-0.614222	-0.445668
O179	O	1.318488	-0.280888	-0.112335
O180	O	1.651821	0.052445	0.220999
O181	O	1.161044	-0.614205	-0.270129
O182	O	1.494377	-0.280871	0.063204
O183	O	1.827711	0.052462	0.396538
C184	C	1.266807	-0.251967	-0.357952
C185	C	1.600140	0.081366	-0.024618
C186	C	1.933474	0.414700	0.308715
C187	C	1.349353	-0.251976	-0.357970
C188	C	1.682686	0.081358	-0.024636
C189	C	2.016019	0.414691	0.308697
C190	C	1.073131	-0.251924	-0.551616
C191	C	1.406464	0.081409	-0.218282
C192	C	1.739797	0.414743	0.115051
C193	C	1.073143	-0.251914	-0.634162
C194	C	1.406476	0.081419	-0.300828
C195	C	1.739810	0.414753	0.032505
C196	C	1.073247	-0.115574	-0.357961
C197	C	1.406580	0.217759	-0.024627
C198	C	1.739914	0.551093	0.308706
C199	C	1.073309	-0.057460	-0.357982
C200	C	1.406642	0.275873	-0.024649
C201	C	1.739976	0.609207	0.308685
C202	C	1.023537	-0.286785	-0.833589
C203	C	1.356871	0.046548	-0.500256
C204	C	1.690204	0.379881	-0.166922
C205	C	1.091289	-0.299569	-0.882987
C206	C	1.424623	0.033764	-0.549653
C207	C	1.757956	0.367098	-0.216320
C208	C	1.073180	-0.251874	-0.785292
C209	C	1.406513	0.081459	-0.451959
C210	C	1.739846	0.414792	-0.118625
C211	C	1.005465	-0.239076	-0.882976
C212	C	1.338798	0.094257	-0.549643
C213	C	1.672132	0.427591	-0.216309
C214	C	1.073209	-0.251837	-0.931277
C215	C	1.406542	0.081497	-0.597944
C216	C	1.739876	0.414830	-0.264611
C217	C	1.140967	-0.264683	-0.833603
C218	C	1.474300	0.068650	-0.500269
C219	C	1.807634	0.401984	-0.166936
C220	C	1.055097	-0.204168	-0.833588
C221	C	1.388430	0.129166	-0.500254
C222	C	1.721764	0.462499	-0.166921
C223	C	1.122896	-0.216933	-0.882963
C224	C	1.456229	0.116400	-0.549630
C225	C	1.789562	0.449733	-0.216297
C226	C	1.073162	-0.251897	-0.701194
C227	C	1.406495	0.081436	-0.367860
C228	C	1.739828	0.414769	-0.034527
C229	C	1.073235	-0.251814	-1.015374
C230	C	1.406568	0.081520	-0.682041
C231	C	1.739901	0.414853	-0.348707
C232	C	1.073115	-0.251933	-0.164958
C233	C	1.406449	0.081401	0.168375
C234	C	1.739782	0.414734	0.501709
C235	C	1.073247	-0.251795	-0.082413
C236	C	1.406580	0.081538	0.250921
C237	C	1.739913	0.414871	0.584254
H238	H	0.619827	-0.187429	-0.266473
H239	H	0.953160	0.145905	0.066860
H240	H	1.286493	0.479238	0.400193
H241	H	0.948187	-0.228267	-0.904665
H242	H	1.281520	0.105067	-0.571331
H243	H	1.614854	0.438400	-0.237998
H244	H	1.198261	-0.275538	-0.812006
H245	H	1.531595	0.057795	-0.478672
H246	H	1.864928	0.391129	-0.145339
H247	H	0.527288	-0.316580	-0.449320
H248	H	0.860621	0.016753	-0.115986
H249	H	1.193955	0.350087	0.217347
H250	H	0.526989	-0.275415	-0.232800
H251	H	0.860322	0.057919	0.100533
H252	H	1.193655	0.391252	0.433867
F253	F	0.520509	-0.151578	-0.396367
F254	F	0.853843	0.181756	-0.063033
F255	F	1.187176	0.515089	0.270300
F256	F	1.171174	-0.556825	-0.259958
F257	F	1.504508	-0.223492	0.073375
F258	F	1.837841	0.109842	0.406709
F259	F	1.111305	-0.352280	-0.911349
F260	F	1.444638	-0.018947	-0.578016
F261	F	1.777971	0.314386	-0.244683
F262	F	1.177845	-0.178324	-0.911125
F263	F	1.511179	0.155009	-0.577791
F264	F	1.844512	0.488343	-0.244458
H265	H	0.619696	-0.339992	-0.324080
H266	H	0.953030	-0.006659	0.009254
H267	H	1.286363	0.326675	0.342587
F268	F	1.035057	-0.151470	-0.805203
F269	F	1.368391	0.181863	-0.471870
F270	F	1.701724	0.515196	-0.138536
F271	F	1.218773	-0.695287	-0.212540
F272	F	1.552107	-0.361954	0.120794
F273	F	1.885440	-0.028620	0.454127
H274	H	0.619985	-0.228476	-0.482982
H275	H	0.953319	0.104857	-0.149649
H276	H	1.286652	0.438191	0.183684
H277	H	1.159219	-0.450952	-0.271799
H278	H	1.492553	-0.117619	0.061534
H279	H	1.825886	0.215714	0.394867
H280	H	1.206941	-0.801161	-0.224419
H281	H	1.540275	-0.467828	0.108914
H282	H	1.873608	-0.134495	0.442247
H283	H	1.159487	-0.953299	-0.271879
H284	H	1.492821	-0.619966	0.061454
H285	H	1.826154	-0.286632	0.394787
F286	F	1.171417	-1.059188	-0.260036
F287	F	1.504751	-0.725855	0.073297
F288	F	1.838084	-0.392521	0.406630
H289	H	0.987072	-1.052404	-0.444056
H290	H	1.320405	-0.719070	-0.110723
H291	H	1.653738	-0.385737	0.222611
H292	H	0.939438	-0.801234	-0.491487
H293	H	1.272771	-0.467900	-0.158154
H294	H	1.606104	-0.134567	0.175180
F295	F	0.975143	-0.946532	-0.455916
F296	F	1.308476	-0.613199	-0.122582
F297	F	1.641810	-0.279866	0.210751
F298	F	0.927515	-0.695361	-0.503340
F299	F	1.260848	-0.362028	-0.170007
F300	F	1.594181	-0.028694	0.163326
H301	H	0.986824	-0.550067	-0.443991
H302	H	1.320158	-0.216733	-0.110658
H303	H	1.653491	0.116600	0.222676
H304	H	0.986769	-0.451001	-0.443964
H305	H	1.320103	-0.117667	-0.110630
H306	H	1.653436	0.215666	0.222703
F307	F	0.968717	-0.325423	-0.805251
F308	F	1.302050	0.007911	-0.471917
F309	F	1.635384	0.341244	-0.138584
