data_functionalizedCrystal
_audit_creation_method	'MofGen! by Chris Wilmer'
_symmetry_space_group_name_H-M	'P1'
_symmetry_Int_Tables_number	1
_symmetry_cell_setting	triclinic
loop_
_symmetry_equiv_pos_as_xyz
  x,y,z
_cell_length_a	6.817900
_cell_length_b	14.125465
_cell_length_c	11.168129
_cell_angle_alpha	94.659518
_cell_angle_beta	108.508637
_cell_angle_gamma	100.398878
loop_
_atom_site_label
_atom_site_type_symbol
_atom_site_fract_x
_atom_site_fract_y
_atom_site_fract_z
V1	V	-4.016763	-0.299985	-0.173620
V2	V	-3.683430	0.033349	0.159713
V3	V	-3.350096	0.366682	0.493047
O4	O	-3.978122	-0.294266	0.009459
O5	O	-3.644788	0.039068	0.342793
O6	O	-3.311455	0.372401	0.676126
O7	O	-3.993686	-0.297941	-0.345333
O8	O	-3.660353	0.035392	-0.011999
O9	O	-3.327019	0.368725	0.321334
O10	O	-3.952442	-0.430815	-0.170460
O11	O	-3.619109	-0.097481	0.162874
O12	O	-3.285775	0.235852	0.496207
O13	O	-4.019651	-0.160472	-0.166624
O14	O	-3.686318	0.172861	0.166709
O15	O	-3.352985	0.506194	0.500042
V16	V	-4.499173	-0.283297	-0.151779
V17	V	-4.165839	0.050036	0.181554
V18	V	-3.832506	0.383370	0.514887
O19	O	-4.280464	-0.336591	-0.221529
O20	O	-3.947130	-0.003257	0.111804
O21	O	-3.613797	0.330076	0.445138
O22	O	-4.685669	-0.246691	-0.103870
O23	O	-4.352336	0.086642	0.229463
O24	O	-4.019003	0.419976	0.562796
O25	O	-4.299043	-0.285340	0.019933
O26	O	-3.965710	0.047993	0.353267
O27	O	-3.632377	0.381326	0.686600
O28	O	-4.655211	-0.289016	-0.334859
O29	O	-4.321877	0.044317	-0.001525
O30	O	-3.988544	0.377651	0.331808
O31	O	-4.613681	-0.422809	-0.158775
O32	O	-4.280348	-0.089476	0.174558
O33	O	-3.947015	0.243858	0.507892
O34	O	-4.340287	-0.152467	-0.154940
O35	O	-4.006954	0.180866	0.178393
O36	O	-3.673621	0.514200	0.511727
C37	C	-3.845362	-0.293211	-0.387208
C38	C	-3.512029	0.040122	-0.053875
C39	C	-3.178696	0.373456	0.279459
C40	C	-3.907675	-0.292412	-0.527582
C41	C	-3.574341	0.040921	-0.194249
C42	C	-3.241008	0.374254	0.139084
C43	C	-3.904634	-0.208324	-0.573332
C44	C	-3.571301	0.125009	-0.239999
C45	C	-3.237967	0.458343	0.093335
C46	C	-3.969036	-0.207497	-0.718416
C47	C	-3.635703	0.125837	-0.385083
C48	C	-3.302370	0.459170	-0.051749
C49	C	-3.792750	-0.462703	-0.164138
C50	C	-3.459417	-0.129370	0.169195
C51	C	-3.126084	0.203964	0.502528
C52	C	-3.821612	-0.569657	-0.162690
C53	C	-3.488279	-0.236324	0.170643
C54	C	-3.154945	0.097010	0.503976
C55	C	-3.874513	-0.765480	-0.160035
C56	C	-3.541180	-0.432147	0.173298
C57	C	-3.207846	-0.098813	0.506631
C58	C	-4.060791	-0.817802	-0.165361
C59	C	-3.727458	-0.484468	0.167972
C60	C	-3.394124	-0.151135	0.501305
C61	C	-4.090228	-0.926764	-0.163884
C62	C	-3.756895	-0.593431	0.169449
C63	C	-3.423561	-0.260098	0.502783
C64	C	-3.845068	-0.656507	-0.161513
C65	C	-3.511735	-0.323174	0.171821
C66	C	-3.178402	0.010159	0.505154
C67	C	-4.110710	-0.290068	0.061802
C68	C	-3.777377	0.043265	0.395135
C69	C	-3.444044	0.376599	0.728468
C70	C	-4.027635	-0.290873	0.202175
C71	C	-3.694302	0.042461	0.535508
C72	C	-3.360969	0.375794	0.868842
C73	C	-4.163322	-0.120574	-0.161265
C74	C	-3.829989	0.212760	0.172068
C75	C	-3.496655	0.546093	0.505401
C76	C	-4.113698	-0.013619	-0.162707
C77	C	-3.780365	0.319715	0.170627
C78	C	-3.447032	0.653048	0.503960
H79	H	-4.030127	-0.362869	-0.758425
H80	H	-3.696793	-0.029535	-0.425092
H81	H	-3.363460	0.303798	-0.091759
H82	H	-3.966526	-0.135504	-0.757824
H83	H	-3.633193	0.197830	-0.424491
H84	H	-3.299860	0.531163	-0.091157
H85	H	-3.957963	-0.363791	-0.595824
H86	H	-3.624630	-0.030458	-0.262491
H87	H	-3.291297	0.302875	0.070843
H88	H	-4.198167	-0.780763	-0.171043
H89	H	-3.864834	-0.447430	0.162290
H90	H	-3.531501	-0.114097	0.495623
H91	H	-3.737155	-0.802518	-0.154368
H92	H	-3.403822	-0.469184	0.178965
H93	H	-3.070488	-0.135851	0.512298
H94	H	-3.854363	-0.136946	-0.505091
H95	H	-3.521030	0.196388	-0.171758
H96	H	-3.187696	0.529721	0.161576
