data_functionalizedCrystal
_audit_creation_method	'MofGen! by Chris Wilmer'
_symmetry_space_group_name_H-M	'P1'
_symmetry_Int_Tables_number	1
_symmetry_cell_setting	triclinic
loop_
_symmetry_equiv_pos_as_xyz
  x,y,z
_cell_length_a	14.519731
_cell_length_b	9.565339
_cell_length_c	14.519709
_cell_angle_alpha	89.998241
_cell_angle_beta	96.315501
_cell_angle_gamma	89.997352
loop_
_atom_site_label
_atom_site_type_symbol
_atom_site_fract_x
_atom_site_fract_y
_atom_site_fract_z
O1	O	1.223846	0.116266	-0.120981
O2	O	1.723846	0.616266	0.379019
O3	O	0.955372	0.116269	-0.135197
O4	O	1.455372	0.616269	0.364803
O5	O	1.096727	0.116255	0.006149
O6	O	1.596727	0.616255	0.506149
O7	O	1.082491	0.116280	-0.262326
O8	O	1.582491	0.616280	0.237674
O9	O	1.096733	-0.116265	0.006145
O10	O	1.596733	0.383735	0.506145
O11	O	0.955378	-0.116252	-0.135201
O12	O	1.455378	0.383748	0.364799
O13	O	1.223852	-0.116254	-0.120985
O14	O	1.723852	0.383746	0.379015
Zn15	Zn	1.089616	-0.153170	-0.128093
Zn16	Zn	1.589616	0.346830	0.371907
Zn17	Zn	1.089608	0.153185	-0.128088
Zn18	Zn	1.589608	0.653185	0.371912
O19	O	1.082497	-0.116240	-0.262331
O20	O	1.582497	0.383760	0.237669
C21	C	0.921016	0.000009	-0.134532
C22	C	1.421016	0.500009	0.365468
C23	C	0.818635	0.000009	-0.132536
C24	C	1.318635	0.500009	0.367464
N25	N	1.089629	-0.362250	-0.128096
N26	N	1.589629	0.137750	0.371904
C27	C	0.735491	0.000015	-0.130915
C28	C	1.235491	0.500015	0.369085
C29	C	0.631182	0.000015	-0.128888
C30	C	1.131182	0.500015	0.371112
C31	C	0.548043	0.000015	-0.127280
C32	C	1.048043	0.500015	0.372720
C33	C	0.443728	0.000018	-0.125253
C34	C	0.943728	0.500018	0.374747
C35	C	1.155022	-0.453422	-0.062733
C36	C	1.655022	0.046578	0.437267
C37	C	1.071657	-0.546593	-0.044676
C38	C	1.571657	-0.046593	0.455324
C39	C	1.172961	-0.546634	-0.146093
C40	C	1.672961	-0.046634	0.353907
C41	C	1.006221	-0.453369	-0.109999
C42	C	1.506221	0.046631	0.390001
C43	C	1.107581	-0.453402	-0.211451
C44	C	1.607581	0.046598	0.288549
C45	C	1.024155	-0.546531	-0.193430
C46	C	1.524155	-0.046531	0.306570
C47	C	1.258209	0.000009	-0.121649
C48	C	1.758209	0.500009	0.378351
C49	C	1.360589	0.000017	-0.123645
C50	C	1.860589	0.500017	0.376355
C51	C	1.096067	-0.000006	0.040507
C52	C	1.596067	0.499994	0.540507
C53	C	1.094079	-0.000006	0.142889
C54	C	1.594079	0.499994	0.642889
N55	N	1.089603	0.362264	-0.128077
N56	N	1.589603	0.862264	0.371923
C57	C	1.083157	0.000023	-0.296688
C58	C	1.583157	0.500023	0.203312
C59	C	1.085146	0.000033	-0.399070
C60	C	1.585146	0.500033	0.100930
C61	C	1.086759	0.000030	0.517785
C62	C	1.586759	0.500030	1.017785
C63	C	1.088792	0.000019	0.413477
C64	C	1.588792	0.500019	0.913477
C65	C	1.090419	0.000010	0.330340
C66	C	1.590419	0.500010	0.830340
C67	C	1.092452	0.000003	0.226025
C68	C	1.592452	0.500003	0.726025
H69	H	1.210269	-0.412538	-0.007429
H70	H	1.710269	0.087462	0.492571
O71	O	0.958153	-0.594841	-0.259479
O72	O	1.458153	-0.094841	0.240521
C73	C	0.901669	-0.600255	-0.421826
C74	C	1.401669	-0.100255	0.078174
C75	C	0.976465	-0.545419	-0.347125
C76	C	1.476465	-0.045419	0.152875
H77	H	0.916458	-0.560345	-0.492707
H78	H	1.416458	-0.060345	0.007293
H79	H	0.830679	-0.561686	-0.406379
H80	H	1.330679	-0.061686	0.093621
H81	H	0.902531	-0.719431	-0.421696
H82	H	1.402531	-0.219431	0.078304
H83	H	0.975687	-0.426247	-0.347213
H84	H	1.475687	0.073753	0.152787
H85	H	1.047420	-0.584095	-0.362599
H86	H	1.547420	-0.084095	0.137401
O87	O	1.053676	-0.595378	0.039490
O88	O	1.553676	-0.095378	0.539490
C89	C	1.102237	-0.603219	0.203533
C90	C	1.602237	-0.103219	0.703533
C91	C	1.122712	-0.547912	0.108269
C92	C	1.622712	-0.047912	0.608269
H93	H	1.158029	-0.564841	0.259169
H94	H	1.658029	-0.064841	0.759169
H95	H	1.101776	-0.722394	0.202578
H96	H	1.601776	-0.222394	0.702578
H97	H	1.031699	-0.563287	0.219382
H98	H	1.531699	-0.063287	0.719382
H99	H	1.193251	-0.587741	0.092360
H100	H	1.693251	-0.087741	0.592360
H101	H	1.123112	-0.428739	0.109272
H102	H	1.623112	0.071261	0.609272
O103	O	1.125688	-0.404284	-0.295489
O104	O	1.625688	0.095716	0.204511
C105	C	1.145247	-0.201455	-0.389829
C106	C	1.645247	0.298545	0.110171
C107	C	1.124697	-0.256893	-0.294621
C108	C	1.624697	0.243107	0.205379
H109	H	1.144472	-0.082284	-0.389152
H110	H	1.644472	0.417716	0.110848
H111	H	1.090202	-0.241272	-0.445717
H112	H	1.590202	0.258728	0.054283
H113	H	1.216352	-0.239783	-0.405082
H114	H	1.716352	0.260217	0.094918
H115	H	1.053618	-0.218588	-0.279279
H116	H	1.553618	0.281412	0.220721
H117	H	1.179798	-0.217087	-0.238785
H118	H	1.679798	0.282913	0.261215
H119	H	0.935722	-0.412575	-0.094689
H120	H	1.435722	0.087425	0.405311
H121	H	1.243444	-0.587600	-0.161323
H122	H	1.743444	-0.087600	0.338677
