data_functionalizedCrystal
_audit_creation_method	'MofGen! by Chris Wilmer'
_symmetry_space_group_name_H-M	'P1'
_symmetry_Int_Tables_number	1
_symmetry_cell_setting	triclinic
loop_
_symmetry_equiv_pos_as_xyz
  x,y,z
_cell_length_a	12.759401
_cell_length_b	18.215405
_cell_length_c	12.759393
_cell_angle_alpha	89.962227
_cell_angle_beta	89.982620
_cell_angle_gamma	90.025046
loop_
_atom_site_label
_atom_site_type_symbol
_atom_site_fract_x
_atom_site_fract_y
_atom_site_fract_z
Zn1	Zn	1.606169	-0.292936	-0.593937
Zn2	Zn	1.606036	-0.416023	-0.418239
Zn3	Zn	1.430475	-0.292975	-0.418277
Zn4	Zn	1.430429	-0.415966	-0.593881
O5	O	1.518277	-0.354475	-0.506084
O6	O	1.753173	-0.309272	-0.570639
O7	O	1.582711	-0.399741	-0.271223
O8	O	1.453856	-0.189986	-0.441618
O9	O	1.753075	-0.399703	-0.441554
O10	O	1.582938	-0.189957	-0.570675
O11	O	1.453727	-0.309338	-0.271251
O12	O	1.283448	-0.309283	-0.441563
O13	O	1.453778	-0.399606	-0.740909
O14	O	1.283414	-0.399643	-0.570578
O15	O	1.582894	-0.309216	-0.740951
O16	O	1.582666	-0.519000	-0.441499
O17	O	1.453648	-0.518958	-0.570542
C18	C	1.245310	-0.354462	-0.506069
C19	C	1.128533	-0.354473	-0.506088
C20	C	1.073681	-0.401600	-0.573155
C21	C	0.963957	-0.401609	-0.573167
C22	C	0.963947	-0.307364	-0.439035
C23	C	1.073669	-0.307351	-0.439029
C24	C	1.073686	-0.456014	-0.650592
C25	C	0.963962	-0.456023	-0.650604
C26	C	1.518166	-0.545681	-0.506033
C27	C	1.518215	-0.627480	-0.506047
C28	C	1.585552	-0.815672	-0.438977
C29	C	1.585599	-0.892530	-0.439003
C30	C	1.451137	-0.892527	-0.573265
C31	C	1.451096	-0.815669	-0.573244
C32	C	1.518302	-0.777244	-0.506094
C33	C	1.518390	-0.930960	-0.506141
C34	C	1.518440	-1.014293	-0.506169
C35	C	1.518253	-0.693905	-0.506067
C36	C	1.792311	-0.354489	-0.506098
C37	C	1.909087	-0.354495	-0.506105
C38	C	1.518346	-0.354400	-0.780117
C39	C	1.518375	-0.354368	-0.896894
C40	C	1.518417	-0.162522	-0.506157
C41	C	1.518477	-0.080723	-0.506189
C42	C	1.451241	-0.307287	-0.951776
C43	C	1.451273	-0.307265	-1.061500
C44	C	1.585581	-0.401408	-1.061450
C45	C	1.585543	-0.401433	-0.951728
C46	C	1.373703	-0.252932	-0.951806
C47	C	1.373734	-0.252910	-1.061530
C48	C	1.518270	-0.354497	-0.233116
C49	C	1.518444	-0.354321	-0.116340
H50	H	1.118326	-0.268972	-0.384424
Cl51	Cl	1.254398	-0.284422	-1.114068
H52	H	1.107687	-0.510127	-0.621300
H53	H	0.919263	-0.268998	-0.384439
H54	H	0.934152	-0.513006	-0.628663
Cl55	Cl	1.119720	-0.432547	-0.776277
H56	H	0.929968	-0.435678	-0.727959
H57	H	1.640277	-0.784387	-0.384302
Cl58	Cl	1.366650	-0.940838	-0.657674
H59	H	1.292309	-0.268195	-0.922027
Cl60	Cl	1.670149	-0.940836	-0.354626
H61	H	1.640268	-0.439726	-1.106109
H62	H	1.396332	-0.784379	-0.627904
Cl63	Cl	1.418750	-0.169359	-0.899292
H64	H	1.395566	-0.195904	-1.091336
H65	H	1.640194	-0.439782	-0.907047
