data_functionalizedCrystal
_audit_creation_method	'MofGen! by Chris Wilmer'
_symmetry_space_group_name_H-M	'P1'
_symmetry_Int_Tables_number	1
_symmetry_cell_setting	triclinic
loop_
_symmetry_equiv_pos_as_xyz
  x,y,z
_cell_length_a	12.811457
_cell_length_b	10.489716
_cell_length_c	11.892095
_cell_angle_alpha	93.932635
_cell_angle_beta	91.498327
_cell_angle_gamma	84.284886
loop_
_atom_site_label
_atom_site_type_symbol
_atom_site_fract_x
_atom_site_fract_y
_atom_site_fract_z
O1	O	1.390509	0.175987	0.048557
O2	O	1.087268	0.191987	0.017469
O3	O	1.245802	-0.001593	0.033718
O4	O	1.231975	0.369567	0.032308
O5	O	1.232584	0.014522	0.220371
O6	O	1.074049	0.208102	0.204122
O7	O	1.377291	0.192102	0.235210
Zn8	Zn	1.223571	0.202661	0.249301
Zn9	Zn	1.240987	0.181428	0.003378
O10	O	1.218756	0.385682	0.218961
C11	C	1.041829	0.198654	0.106814
C12	C	0.926128	0.194496	0.094952
C13	C	0.694302	0.204229	0.276173
C14	C	0.585591	0.200322	0.265033
C15	C	0.599992	0.182766	0.061533
C16	C	0.708704	0.186673	0.072673
C17	C	0.755854	0.197406	0.179997
C18	C	0.864567	0.201322	0.191136
C19	C	0.878967	0.183757	-0.012363
C20	C	0.770256	0.179850	-0.023503
C21	C	1.238154	-0.041071	0.126934
C22	C	1.235047	-0.182712	0.126605
C23	C	1.332264	-0.280098	0.136582
C24	C	1.287409	-0.365556	0.039289
C25	C	1.274354	-0.349631	0.223312
C26	C	1.190238	-0.266310	0.029240
C27	C	1.177191	-0.250373	0.213347
C28	C	1.132266	-0.335784	0.116024
C29	C	1.422730	0.185435	0.145862
C30	C	1.538431	0.189592	0.157717
C31	C	1.226404	0.425160	0.125742
C32	C	1.229512	0.566800	0.126064
N33	N	1.211693	0.217151	0.417138
N34	N	1.252874	0.166929	-0.164458
C35	C	1.335528	0.066028	0.666478
C36	C	1.327233	0.076166	0.783970
C37	C	1.186803	0.247557	0.769614
C38	C	1.195098	0.237419	0.652123
C39	C	1.269464	0.146653	0.600559
C40	C	1.277764	0.136522	0.483066
C41	C	1.137330	0.307906	0.468712
C42	C	1.129034	0.318044	0.586204
H43	H	0.902954	0.210070	0.278524
H44	H	0.732691	0.212985	0.363560
H45	H	1.333959	-0.415647	-0.034307
O46	O	1.316598	-0.393232	0.321256
C47	C	1.259426	-0.332274	0.412976
H48	H	1.177149	-0.296697	0.382779
H49	H	1.253885	-0.403479	0.480306
H50	H	1.301012	-0.247357	0.450010
H51	H	1.381027	0.010512	0.837638
O52	O	0.938851	0.177311	-0.105717
C53	C	0.991156	0.289308	-0.106494
H54	H	0.997531	0.334265	-0.016855
H55	H	1.073119	0.263554	-0.141477
H56	H	0.945116	0.360665	-0.161777
H57	H	1.338319	0.062620	0.441084
O58	O	0.525946	0.207024	0.358575
C59	C	0.590883	0.217300	0.455684
H60	H	0.666473	0.257810	0.433388
H61	H	0.548282	0.284109	0.523003
H62	H	0.610403	0.118293	0.489189
O63	O	1.433170	-0.250393	0.146596
C64	C	1.490943	-0.309586	0.054600
H65	H	1.435094	-0.330448	-0.019075
H66	H	1.549539	-0.242818	0.028226
H67	H	1.534913	-0.403354	0.080255
O68	O	1.148078	-0.222807	-0.068773
C69	C	1.224024	-0.163940	-0.125144
H70	H	1.305788	-0.202579	-0.095741
H71	H	1.215117	-0.186014	-0.219917
H72	H	1.212578	-0.055627	-0.105359
O73	O	1.031312	-0.365197	0.105421
C74	C	0.987323	-0.322566	0.003062
H75	H	1.052721	-0.313545	-0.058239
H76	H	0.933067	-0.394645	-0.034849
H77	H	0.940610	-0.225040	0.019501
H78	H	1.396086	-0.007869	0.624495
H79	H	1.130677	-0.200258	0.286949
H80	H	1.068484	0.391941	0.628200
O81	O	1.114611	0.335874	0.819587
C82	C	1.134516	0.459940	0.792748
H83	H	1.180713	0.453035	0.711555
H84	H	1.056932	0.521240	0.780762
H85	H	1.181995	0.505867	0.864220
H86	H	0.731851	0.171105	-0.110883
O87	O	0.554103	0.172562	-0.042687
C88	C	0.480642	0.279997	-0.056318
H89	H	0.501647	0.363214	0.003989
H90	H	0.482074	0.309190	-0.146813
H91	H	0.398806	0.254464	-0.037154
O92	O	1.073206	0.386101	0.404508
C93	C	1.096496	0.357725	0.289751
H94	H	1.135811	0.255493	0.277599
H95	H	1.020844	0.366914	0.237032
H96	H	1.151662	0.427821	0.261825
