data_functionalizedCrystal
_audit_creation_method	'MofGen! by Chris Wilmer'
_symmetry_space_group_name_H-M	'P1'
_symmetry_Int_Tables_number	1
_symmetry_cell_setting	triclinic
loop_
_symmetry_equiv_pos_as_xyz
  x,y,z
_cell_length_a	18.215407
_cell_length_b	18.050589
_cell_length_c	18.215399
_cell_angle_alpha	89.976397
_cell_angle_beta	89.980167
_cell_angle_gamma	90.028669
loop_
_atom_site_label
_atom_site_type_symbol
_atom_site_fract_x
_atom_site_fract_y
_atom_site_fract_z
Zn1	Zn	1.125055	-0.295658	-0.416138
Zn2	Zn	1.625055	0.204342	0.083862
Zn3	Zn	1.124956	-0.419853	-0.293081
Zn4	Zn	1.624956	0.080147	0.206919
Zn5	Zn	1.001987	-0.295682	-0.293085
Zn6	Zn	1.501987	0.204318	0.206915
Zn7	Zn	1.001946	-0.419812	-0.416106
Zn8	Zn	1.501946	0.080188	0.083894
O9	O	1.063486	-0.357751	-0.354603
O10	O	1.563486	0.142249	0.145397
O11	O	1.228026	-0.312140	-0.399826
O12	O	1.728026	0.187860	0.100174
O13	O	1.108620	-0.403409	-0.190097
O14	O	1.608620	0.096591	0.309903
O15	O	1.018371	-0.191755	-0.309424
O16	O	1.518371	0.308245	0.190576
O17	O	1.227953	-0.403386	-0.309417
O18	O	1.727953	0.096614	0.190583
O19	O	1.108788	-0.191737	-0.399830
O20	O	1.608788	0.308263	0.100170
O21	O	1.018275	-0.312181	-0.190101
O22	O	1.518275	0.187819	0.309899
O23	O	0.898998	-0.312141	-0.309393
O24	O	1.398998	0.187859	0.190607
O25	O	1.018301	-0.403315	-0.519095
O26	O	1.518301	0.096685	-0.019095
O27	O	0.898967	-0.403339	-0.399775
O28	O	1.398967	0.096661	0.100225
O29	O	1.108748	-0.312100	-0.519118
O30	O	1.608748	0.187900	-0.019118
O31	O	1.108580	-0.523772	-0.309385
O32	O	1.608580	-0.023772	0.190615
O33	O	1.018205	-0.523742	-0.399771
O34	O	1.518205	-0.023742	0.100229
C35	C	0.872280	-0.357739	-0.354582
C36	C	1.372280	0.142261	0.145418
C37	C	0.790481	-0.357751	-0.354590
C38	C	1.290481	0.142249	0.145410
C39	C	1.063397	-0.550704	-0.354590
C40	C	1.563397	-0.050704	0.145410
C41	C	1.063427	-0.633249	-0.354610
C42	C	1.563427	-0.133249	0.145390
C43	C	0.602291	-0.405312	-0.401593
C44	C	1.102291	0.094688	0.098407
C45	C	0.525432	-0.405315	-0.401602
C46	C	1.025432	0.094685	0.098398
C47	C	0.525434	-0.310204	-0.307628
C48	C	1.025434	0.189796	0.192372
C49	C	0.602291	-0.310199	-0.307623
C50	C	1.102291	0.189801	0.192377
C51	C	0.640718	-0.357757	-0.354605
C52	C	1.140718	0.142243	0.145395
C53	C	0.487001	-0.357765	-0.354619
C54	C	0.987001	0.142235	0.145381
C55	C	0.403668	-0.357767	-0.354628
C56	C	0.903668	0.142233	0.145372
C57	C	0.724056	-0.357754	-0.354596
C58	C	1.224056	0.142246	0.145404
C59	C	1.014329	-0.832710	-0.403744
C60	C	1.514329	-0.332710	0.096256
C61	C	0.996389	-0.882151	-0.336590
C62	C	1.496389	-0.382151	0.163410
C63	C	1.063499	-0.784380	-0.354619
C64	C	1.563499	-0.284380	0.145381
C65	C	1.081475	-0.882021	-0.421781
C66	C	1.581475	-0.382021	0.078219
C67	C	1.063567	-0.930365	-0.354635
C68	C	1.563567	-0.430365	0.145365
C69	C	1.045524	-0.832733	-0.287430
C70	C	1.545524	-0.332733	0.212570
C71	C	1.130641	-0.832599	-0.372666
C72	C	1.630641	-0.332599	0.127334
C73	C	1.112726	-0.882017	-0.305466
C74	C	1.612726	-0.382017	0.194534
C75	C	1.063458	-0.700281	-0.354612
C76	C	1.563458	-0.200281	0.145388
C77	C	1.063609	-1.014461	-0.354635
C78	C	1.563609	-0.514461	0.145365
C79	C	1.255439	-0.357765	-0.354624
C80	C	1.755439	0.142235	0.145376
C81	C	1.337238	-0.357770	-0.354634
C82	C	1.837238	0.142230	0.145366
C83	C	1.063531	-0.357700	-0.546556
C84	C	1.563531	0.142300	-0.046556
C85	C	1.063550	-0.357678	-0.628355
C86	C	1.563550	0.142322	-0.128355
C87	C	1.063595	-0.164046	-0.354631
C88	C	1.563595	0.335954	0.145369
C89	C	1.063642	-0.081500	-0.354643
C90	C	1.563642	0.418500	0.145357
C91	C	1.110663	-0.310138	-0.816562
C92	C	1.610663	0.189862	-0.316562
C93	C	1.110672	-0.310117	-0.893421
C94	C	1.610672	0.189883	-0.393421
C95	C	1.016489	-0.405104	-0.893385
C96	C	1.516489	0.094896	-0.393385
C97	C	1.016477	-0.405121	-0.816528
C98	C	1.516477	0.094879	-0.316528
C99	C	1.063568	-0.357639	-0.778118
C100	C	1.563568	0.142361	-0.278118
C101	C	1.063589	-0.357600	-0.931834
C102	C	1.563589	0.142400	-0.431834
C103	C	1.063598	-0.357577	-1.015168
C104	C	1.563598	0.142423	-0.515168
C105	C	1.063558	-0.357661	-0.694779
C106	C	1.563558	0.142339	-0.194779
C107	C	1.063484	-0.357749	-0.163396
C108	C	1.563484	0.142251	0.336604
C109	C	1.063607	-0.357561	-0.081598
C110	C	1.563607	0.142439	0.418402
H111	H	0.633575	-0.444035	-0.439850
H112	H	1.133575	0.055965	0.060150
H113	H	0.494148	-0.444038	-0.439866
H114	H	0.994148	0.055962	0.060134
C115	C	0.954896	-0.829265	-0.191748
C116	C	1.454896	-0.329265	0.308252
C117	C	1.024943	-0.803637	-0.210739
C118	C	1.524943	-0.303637	0.289261
H119	H	0.942193	-0.811305	-0.144402
H120	H	1.442193	-0.311305	0.355598
H121	H	0.920170	-0.811985	-0.226661
H122	H	1.420170	-0.311985	0.273339
H123	H	0.954826	-0.881891	-0.191289
H124	H	1.454826	-0.381891	0.308711
H125	H	1.025012	-0.751011	-0.211203
H126	H	1.525012	-0.251011	0.288797
H127	H	1.059678	-0.820913	-0.175817
H128	H	1.559678	-0.320913	0.324183
C129	C	0.923029	-0.863315	-0.493827
C130	C	1.423029	-0.363315	0.006173
C131	C	0.958117	-0.803476	-0.459746
C132	C	1.458117	-0.303476	0.040254
H133	H	0.888322	-0.845264	-0.528393
H134	H	1.388322	-0.345264	-0.028393
H135	H	0.958443	-0.892941	-0.518359
H136	H	1.458443	-0.392941	-0.018359
H137	H	0.898514	-0.892313	-0.457839
H138	H	1.398514	-0.392313	0.042161
H139	H	0.982636	-0.774480	-0.495734
H140	H	1.482636	-0.274480	0.004266
H141	H	0.922697	-0.773837	-0.435213
H142	H	1.422697	-0.273837	0.064787
C143	C	0.920815	-0.989104	-0.315565
C144	C	1.420815	-0.489104	0.184435
C145	C	0.919782	-0.911539	-0.315985
C146	C	1.419782	-0.411539	0.184015
H147	H	0.873520	-1.007243	-0.302844
H148	H	1.373520	-0.507243	0.197156
H149	H	0.933894	-1.006698	-0.362930
H150	H	1.433894	-0.506698	0.137070
H151	H	0.955724	-1.005972	-0.280627
H152	H	1.455724	-0.505972	0.219373
H153	H	0.884876	-0.894671	-0.350927
H154	H	1.384876	-0.394671	0.149073
H155	H	0.906693	-0.893938	-0.268613
H156	H	1.406693	-0.393938	0.231387
H157	H	1.187375	-0.810819	-0.387948
H158	H	1.687375	-0.310819	0.112052
H159	H	1.154337	-0.903530	-0.263881
H160	H	1.654337	-0.403530	0.236119
C161	C	1.146597	-0.184360	-0.917099
C162	C	1.646597	0.315640	-0.417099
C163	C	1.162443	-0.257902	-0.935675
C164	C	1.662443	0.242098	-0.435675
H165	H	1.178563	-0.152124	-0.943181
H166	H	1.678563	0.347876	-0.443181
H167	H	1.097165	-0.173490	-0.929692
H168	H	1.597165	0.326510	-0.429692
H169	H	1.153328	-0.177590	-0.865826
H170	H	1.653328	0.322410	-0.365826
H171	H	1.155706	-0.264673	-0.986947
H172	H	1.655706	0.235327	-0.486947
H173	H	1.211887	-0.268776	-0.923087
H174	H	1.711887	0.231224	-0.423087
C175	C	0.438965	-0.299765	-0.208659
C176	C	0.938965	0.200235	0.291341
C177	C	0.483192	-0.257934	-0.255985
C178	C	0.983192	0.242066	0.244015
H179	H	0.412892	-0.267494	-0.176773
H180	H	0.912892	0.232506	0.323227
H181	H	0.405083	-0.328082	-0.236644
H182	H	0.905083	0.171918	0.263356
H183	H	0.468931	-0.332080	-0.180454
H184	H	0.968931	0.167920	0.319546
H185	H	0.453225	-0.225623	-0.284193
H186	H	0.953225	0.274377	0.215807
H187	H	0.517078	-0.229604	-0.227996
H188	H	1.017078	0.270396	0.272004
C189	C	0.974692	-0.447258	-1.011187
C190	C	1.474692	0.052742	-0.511187
C191	C	0.964734	-0.457300	-0.935608
C192	C	1.464734	0.042700	-0.435608
H193	H	0.942743	-0.479487	-1.037250
H194	H	1.442743	0.020513	-0.537250
H195	H	0.963948	-0.397363	-1.023787
H196	H	1.463948	0.102637	-0.523787
H197	H	1.024138	-0.458126	-1.023781
H198	H	1.524138	0.041874	-0.523781
H199	H	0.915290	-0.446426	-0.923012
H200	H	1.415290	0.053574	-0.423012
H201	H	0.975473	-0.507206	-0.923003
H202	H	1.475473	-0.007206	-0.423003
C203	C	1.113932	-0.851405	-0.545909
C204	C	1.613932	-0.351405	-0.045909
C205	C	1.101971	-0.911248	-0.498446
C206	C	1.601971	-0.411248	0.001554
H207	H	1.126585	-0.869448	-0.593237
H208	H	1.626585	-0.369448	-0.093237
H209	H	1.070496	-0.822502	-0.549188
H210	H	1.570496	-0.322502	-0.049188
H211	H	1.152835	-0.821685	-0.527495
H212	H	1.652835	-0.321685	-0.027495
H213	H	1.063064	-0.940965	-0.516857
H214	H	1.563064	-0.440965	-0.016857
H215	H	1.145412	-0.940163	-0.495169
H216	H	1.645412	-0.440163	0.004831
C217	C	1.120922	-0.210262	-0.730151
C218	C	1.620922	0.289738	-0.230151
C219	C	1.162416	-0.257939	-0.774341
C220	C	1.662416	0.242061	-0.274341
H221	H	1.152873	-0.178038	-0.704084
H222	H	1.652873	0.321962	-0.204084
H223	H	1.088882	-0.181854	-0.760134
H224	H	1.588882	0.318146	-0.260134
H225	H	1.092878	-0.238564	-0.696255
H226	H	1.592878	0.261436	-0.196255
H227	H	1.190456	-0.229638	-0.808241
H228	H	1.690456	0.270362	-0.308241
H229	H	1.194469	-0.286351	-0.744355
H230	H	1.694469	0.213649	-0.244355
C231	C	0.720111	-0.267958	-0.265893
C232	C	1.220111	0.232042	0.234107
C233	C	0.644537	-0.257922	-0.255970
C234	C	1.144537	0.242078	0.244030
H235	H	0.746191	-0.235680	-0.234010
H236	H	1.246191	0.264320	0.265990
H237	H	0.732676	-0.317835	-0.255037
H238	H	1.232676	0.182165	0.244963
H239	H	0.732721	-0.257150	-0.315360
H240	H	1.232721	0.242850	0.184640
H241	H	0.631926	-0.268734	-0.206504
H242	H	1.131926	0.231266	0.293496
H243	H	0.631967	-0.208032	-0.266820
H244	H	1.131967	0.291968	0.233180
C245	C	0.923386	-0.499021	-0.824206
C246	C	1.423386	0.000979	-0.324206
C247	C	0.964710	-0.457342	-0.774264
C248	C	1.464710	0.042658	-0.274264
H249	H	0.891432	-0.531260	-0.798113
H250	H	1.391432	-0.031260	-0.298113
H251	H	0.895257	-0.466659	-0.854182
H252	H	1.395257	0.033341	-0.354182
H253	H	0.955447	-0.527422	-0.854186
H254	H	1.455447	-0.027422	-0.354186
H255	H	0.932649	-0.428937	-0.744288
H256	H	1.432649	0.071063	-0.244288
H257	H	0.992841	-0.489708	-0.744276
H258	H	1.492841	0.010292	-0.244276
