data_functionalizedCrystal
_audit_creation_method	'MofGen! by Chris Wilmer'
_symmetry_space_group_name_H-M	'P1'
_symmetry_Int_Tables_number	1
_symmetry_cell_setting	triclinic
loop_
_symmetry_equiv_pos_as_xyz
  x,y,z
_cell_length_a	19.077105
_cell_length_b	25.639239
_cell_length_c	19.076919
_cell_angle_alpha	87.731593
_cell_angle_beta	89.923776
_cell_angle_gamma	87.734929
loop_
_atom_site_label
_atom_site_type_symbol
_atom_site_fract_x
_atom_site_fract_y
_atom_site_fract_z
Zn1	Zn	1.058187	-0.252939	0.440398
Zn2	Zn	1.308187	-0.002939	0.690398
Zn3	Zn	1.558187	0.247061	0.940398
Zn4	Zn	1.808187	0.497061	1.190398
Zn5	Zn	1.062799	-0.337004	0.322884
Zn6	Zn	1.312799	-0.087004	0.572884
Zn7	Zn	1.562799	0.162996	0.822884
Zn8	Zn	1.812799	0.412996	1.072884
Zn9	Zn	0.945407	-0.245935	0.318192
Zn10	Zn	1.195407	0.004065	0.568192
Zn11	Zn	1.445407	0.254065	0.818192
Zn12	Zn	1.695407	0.504065	1.068192
Zn13	Zn	0.940620	-0.336689	0.435637
Zn14	Zn	1.190620	-0.086689	0.685637
Zn15	Zn	1.440620	0.163311	0.935637
Zn16	Zn	1.690620	0.413311	1.185637
O17	O	1.001753	-0.293142	0.379278
O18	O	1.251753	-0.043142	0.629278
O19	O	1.501753	0.206858	0.879278
O20	O	1.751753	0.456858	1.129278
O21	O	1.157129	-0.267153	0.428766
O22	O	1.407129	-0.017153	0.678766
O23	O	1.657129	0.232847	0.928766
O24	O	1.907129	0.482847	1.178766
O25	O	1.051160	-0.322124	0.223931
O26	O	1.301160	-0.072124	0.473931
O27	O	1.551160	0.177876	0.723931
O28	O	1.801160	0.427876	0.973931
O29	O	0.960440	-0.173702	0.334431
O30	O	1.210440	0.076298	0.584431
O31	O	1.460440	0.326298	0.834431
O32	O	1.710440	0.576298	1.084431
O33	O	1.160518	-0.328916	0.342429
O34	O	1.410518	-0.078916	0.592429
O35	O	1.660518	0.171084	0.842429
O36	O	1.910518	0.421084	1.092429
O37	O	1.043299	-0.178848	0.424215
O38	O	1.293299	0.071152	0.674215
O39	O	1.543299	0.321152	0.924215
O40	O	1.793299	0.571152	1.174215
O41	O	0.964912	-0.255216	0.220483
O42	O	1.214912	-0.005216	0.470483
O43	O	1.464912	0.244784	0.720483
O44	O	1.714912	0.494784	0.970483
O45	O	0.846441	-0.254910	0.329815
O46	O	1.096441	-0.004910	0.579815
O47	O	1.346441	0.245090	0.829815
O48	O	1.596441	0.495090	1.079815
O49	O	0.952283	-0.328378	0.534600
O50	O	1.202283	-0.078378	0.784600
O51	O	1.452283	0.171622	1.034600
O52	O	1.702283	0.421622	1.284600
O53	O	0.842925	-0.321587	0.416101
O54	O	1.092925	-0.071587	0.666101
O55	O	1.342925	0.178413	0.916101
O56	O	1.592925	0.428413	1.166101
O57	O	1.038658	-0.266848	0.538097
O58	O	1.288658	-0.016848	0.788097
O59	O	1.538658	0.233152	1.038097
O60	O	1.788658	0.483152	1.288097
O61	O	1.046519	-0.410124	0.337813
O62	O	1.296519	-0.160124	0.587813
O63	O	1.546519	0.089876	0.837813
O64	O	1.796519	0.339876	1.087813
O65	O	0.956755	-0.409893	0.420652
O66	O	1.206755	-0.159893	0.670652
O67	O	1.456755	0.090107	0.920652
O68	O	1.706755	0.340107	1.170652
C69	C	0.819187	-0.287455	0.371933
C70	C	1.069187	-0.037455	0.621933
C71	C	1.319187	0.212545	0.871933
C72	C	1.569187	0.462545	1.121933
C73	C	0.741083	-0.285035	0.368807
C74	C	0.991083	-0.035035	0.618807
C75	C	1.241083	0.214965	0.868807
C76	C	1.491083	0.464965	1.118807
C77	C	0.702581	-0.318661	0.412193
C78	C	0.952581	-0.068661	0.662193
C79	C	1.202581	0.181339	0.912193
C80	C	1.452581	0.431339	1.162193
C81	C	0.629194	-0.316381	0.409259
C82	C	0.879194	-0.066381	0.659259
C83	C	1.129194	0.183619	0.909259
C84	C	1.379194	0.433619	1.159259
C85	C	0.594312	-0.280476	0.362936
C86	C	0.844312	-0.030476	0.612936
C87	C	1.094312	0.219524	0.862936
C88	C	1.344312	0.469524	1.112936
C89	C	0.632820	-0.246846	0.319549
C90	C	0.882820	0.003154	0.569549
C91	C	1.132820	0.253154	0.819549
C92	C	1.382820	0.503154	1.069549
C93	C	0.706205	-0.249125	0.322486
C94	C	0.956205	0.000875	0.572486
C95	C	1.206205	0.250875	0.822486
C96	C	1.456205	0.500875	1.072486
C97	C	0.375028	-0.269932	0.349344
C98	C	0.625028	-0.019932	0.599344
C99	C	0.875028	0.230068	0.849344
C100	C	1.125028	0.480068	1.099344
C101	C	0.301638	-0.267658	0.346409
C102	C	0.551638	-0.017658	0.596409
C103	C	0.801638	0.232342	0.846409
C104	C	1.051638	0.482342	1.096409
C105	C	0.298017	-0.337192	0.436121
C106	C	0.548017	-0.087192	0.686121
C107	C	0.798017	0.162808	0.936121
C108	C	1.048017	0.412808	1.186121
C109	C	0.371404	-0.339469	0.439051
C110	C	0.621404	-0.089469	0.689051
C111	C	0.871404	0.160531	0.939051
C112	C	1.121404	0.410531	1.189051
C113	C	0.409905	-0.305837	0.395666
C114	C	0.659905	-0.055837	0.645666
C115	C	0.909905	0.194163	0.895666
C116	C	1.159905	0.444163	1.145666
N117	N	0.519299	-0.278146	0.359935
N118	N	0.769299	-0.028146	0.609935
N119	N	1.019299	0.221854	0.859935
N120	N	1.269299	0.471854	1.109935
N121	N	0.484917	-0.308166	0.398671
N122	N	0.734917	-0.058166	0.648671
N123	N	0.984917	0.191834	0.898671
N124	N	1.234917	0.441834	1.148671
C125	C	1.001636	-0.428980	0.379241
C126	C	1.251636	-0.178980	0.629241
C127	C	1.501636	0.071020	0.879241
C128	C	1.751636	0.321020	1.129241
C129	C	1.001650	-0.487094	0.379251
C130	C	1.251650	-0.237094	0.629251
C131	C	1.501650	0.012906	0.879251
C132	C	1.751650	0.262906	1.129251
C133	C	1.048607	-0.847575	0.336225
C134	C	1.298607	-0.597575	0.586225
C135	C	1.548607	-0.347575	0.836225
C136	C	1.798607	-0.097575	1.086225
C137	C	1.048634	-0.902180	0.336235
C138	C	1.298634	-0.652180	0.586235
C139	C	1.548634	-0.402180	0.836235
C140	C	1.798634	-0.152180	1.086235
O141	O	1.088438	-0.930513	0.299613
O142	O	1.338438	-0.680513	0.549613
O143	O	1.588438	-0.430513	0.799613
O144	O	1.838438	-0.180513	1.049613
N145	N	1.001875	-0.929386	0.379329
N146	N	1.251875	-0.679386	0.629329
N147	N	1.501875	-0.429386	0.879329
N148	N	1.751875	-0.179386	1.129329
C149	C	0.955090	-0.901983	0.422421
C150	C	1.205090	-0.651983	0.672421
C151	C	1.455090	-0.401983	0.922421
C152	C	1.705090	-0.151983	1.172421
O153	O	0.915321	-0.930137	0.459077
O154	O	1.165321	-0.680137	0.709077
O155	O	1.415321	-0.430137	0.959077
O156	O	1.665321	-0.180137	1.209077
C157	C	0.955067	-0.847379	0.422413
C158	C	1.205067	-0.597379	0.672413
C159	C	1.455067	-0.347379	0.922413
C160	C	1.705067	-0.097379	1.172413
C161	C	1.001825	-0.820176	0.379311
C162	C	1.251825	-0.570176	0.629311
C163	C	1.501825	-0.320176	0.879311
C164	C	1.751825	-0.070176	1.129311
C165	C	1.095362	-0.820372	0.293127
C166	C	1.345362	-0.570372	0.543127
C167	C	1.595362	-0.320372	0.793127
C168	C	1.845362	-0.070372	1.043127
C169	C	1.095334	-0.765771	0.293116
C170	C	1.345334	-0.515771	0.543116
C171	C	1.595334	-0.265771	0.793116
C172	C	1.845334	-0.015771	1.043116
C173	C	1.048551	-0.738372	0.336202
C174	C	1.298551	-0.488372	0.586202
C175	C	1.548551	-0.238372	0.836202
C176	C	1.798551	0.011628	1.086202
C177	C	1.001797	-0.765574	0.379300
C178	C	1.251797	-0.515574	0.629300
C179	C	1.501797	-0.265574	0.879300
C180	C	1.751797	-0.015574	1.129300
C181	C	0.908287	-0.819977	0.465508
C182	C	1.158287	-0.569977	0.715508
C183	C	1.408287	-0.319977	0.965508
C184	C	1.658287	-0.069977	1.215508
C185	C	0.908268	-0.765369	0.465497
C186	C	1.158268	-0.515369	0.715497
C187	C	1.408268	-0.265369	0.965497
C188	C	1.658268	-0.015369	1.215497
C189	C	0.955026	-0.738167	0.422395
C190	C	1.205026	-0.488167	0.672395
C191	C	1.455026	-0.238167	0.922395
C192	C	1.705026	0.011833	1.172395
C193	C	0.954987	-0.683574	0.422375
C194	C	1.204987	-0.433574	0.672375
C195	C	1.454987	-0.183574	0.922375
C196	C	1.704987	0.066426	1.172375
N197	N	1.001746	-0.656368	0.379282
N198	N	1.251746	-0.406368	0.629282
N199	N	1.501746	-0.156368	0.879282
N200	N	1.751746	0.093632	1.129282
C201	C	1.048528	-0.683767	0.336195
C202	C	1.298528	-0.433767	0.586195
C203	C	1.548528	-0.183767	0.836195
C204	C	1.798528	0.066233	1.086195
C205	C	0.955143	-1.016656	0.422434
C206	C	1.205143	-0.766656	0.672434
C207	C	1.455143	-0.516656	0.922434
C208	C	1.705143	-0.266656	1.172434
C209	C	0.955162	-1.071259	0.422438
C210	C	1.205162	-0.821259	0.672438
C211	C	1.455162	-0.571259	0.922438
C212	C	1.705162	-0.321259	1.172438
C213	C	1.048707	-1.071452	0.336253
C214	C	1.298707	-0.821452	0.586253
C215	C	1.548707	-0.571452	0.836253
C216	C	1.798707	-0.321452	1.086253
C217	C	1.048684	-1.016848	0.336246
C218	C	1.298684	-0.766848	0.586246
C219	C	1.548684	-0.516848	0.836246
C220	C	1.798684	-0.266848	1.086246
C221	C	1.001902	-0.989450	0.379340
C222	C	1.251902	-0.739450	0.629340
C223	C	1.501902	-0.489450	0.879340
C224	C	1.751902	-0.239450	1.129340
C225	C	1.048466	-0.569100	0.336174
C226	C	1.298466	-0.319100	0.586174
C227	C	1.548466	-0.069100	0.836174
C228	C	1.798466	0.180900	1.086174
C229	C	1.048432	-0.514493	0.336164
C230	C	1.298432	-0.264493	0.586164
C231	C	1.548432	-0.014493	0.836164
C232	C	1.798432	0.235507	1.086164
C233	C	0.954890	-0.514304	0.422351
C234	C	1.204890	-0.264304	0.672351
C235	C	1.454890	-0.014304	0.922351
C236	C	1.704890	0.235696	1.172351
C237	C	0.954921	-0.568906	0.422359
C238	C	1.204921	-0.318906	0.672359
C239	C	1.454921	-0.068906	0.922359
C240	C	1.704921	0.181094	1.172359
C241	C	1.001715	-0.596303	0.379268
C242	C	1.251715	-0.346303	0.629268
C243	C	1.501715	-0.096303	0.879268
C244	C	1.751715	0.153697	1.129268
O245	O	0.915205	-0.655207	0.458982
O246	O	1.165205	-0.405207	0.708982
O247	O	1.415205	-0.155207	0.958982
O248	O	1.665205	0.094793	1.208982
O249	O	1.088298	-0.655607	0.299552
O250	O	1.338298	-0.405607	0.549552
O251	O	1.588298	-0.155607	0.799552
O252	O	1.838298	0.094393	1.049552
C253	C	1.185032	-0.298851	0.386652
C254	C	1.435032	-0.048851	0.636652
C255	C	1.685032	0.201149	0.886652
C256	C	1.935032	0.451149	1.136652
C257	C	1.263135	-0.301284	0.389794
C258	C	1.513135	-0.051284	0.639794
C259	C	1.763135	0.198716	0.889794
C260	C	2.013135	0.448716	1.139794
C261	C	0.994422	-0.298359	0.562557
C262	C	1.244422	-0.048359	0.812557
C263	C	1.494422	0.201641	1.062557
C264	C	1.744422	0.451641	1.312557
C265	C	0.991298	-0.300582	0.640660
C266	C	1.241298	-0.050582	0.890660
C267	C	1.491298	0.199418	1.140660
C268	C	1.741298	0.449418	1.390660
C269	C	1.001889	-0.156774	0.379331
C270	C	1.251889	0.093226	0.629331
C271	C	1.501889	0.343226	0.879331
C272	C	1.751889	0.593226	1.129331
C273	C	1.001947	-0.098662	0.379354
C274	C	1.251947	0.151338	0.629354
C275	C	1.501947	0.401338	0.879354
C276	C	1.751947	0.651338	1.129354
C277	C	1.009096	-0.287908	0.196713
C278	C	1.259096	-0.037908	0.446713
C279	C	1.509096	0.212092	0.696713
C280	C	1.759096	0.462092	0.946713
C281	C	1.012356	-0.285541	0.118616
C282	C	1.262356	-0.035541	0.368616
C283	C	1.512356	0.214459	0.618616
C284	C	1.762356	0.464459	0.868616
C285	C	1.034799	-0.269593	0.679175
C286	C	1.284799	-0.019593	0.929175
C287	C	1.534799	0.230407	1.179175
C288	C	1.784799	0.480407	1.429175
C289	C	1.031855	-0.271680	0.752561
C290	C	1.281855	-0.021680	1.002561
C291	C	1.531855	0.228320	1.252561
C292	C	1.781855	0.478320	1.502561
C293	C	0.985413	-0.304759	0.787430
C294	C	1.235413	-0.054759	1.037430
C295	C	1.485413	0.195241	1.287430
C296	C	1.735413	0.445241	1.537430
C297	C	0.941907	-0.335750	0.748910
C298	C	1.191907	-0.085750	0.998910
C299	C	1.441907	0.164250	1.248910
C300	C	1.691907	0.414250	1.498910
C301	C	0.944848	-0.333660	0.675526
C302	C	1.194848	-0.083660	0.925526
C303	C	1.444848	0.166340	1.175526
C304	C	1.694848	0.416340	1.425526
C305	C	0.971792	-0.314442	1.006711
C306	C	1.221792	-0.064442	1.256711
C307	C	1.471792	0.185558	1.506711
C308	C	1.721792	0.435558	1.756711
C309	C	0.968856	-0.316531	1.080100
C310	C	1.218856	-0.066531	1.330100
C311	C	1.468856	0.183469	1.580100
C312	C	1.718856	0.433469	1.830100
C313	C	1.058803	-0.252460	1.083746
C314	C	1.308803	-0.002460	1.333746
C315	C	1.558803	0.247540	1.583746
C316	C	1.808803	0.497540	1.833746
C317	C	1.061742	-0.250375	1.010361
C318	C	1.311742	-0.000375	1.260361
C319	C	1.561742	0.249625	1.510361
C320	C	1.811742	0.499625	1.760361
C321	C	1.018234	-0.281364	0.971846
C322	C	1.268234	-0.031364	1.221846
C323	C	1.518234	0.218636	1.471846
C324	C	1.768234	0.468636	1.721846
N325	N	0.982404	-0.306894	0.862442
N326	N	1.232404	-0.056894	1.112442
N327	N	1.482404	0.193106	1.362442
N328	N	1.732404	0.443106	1.612442
N329	N	1.021240	-0.279226	0.896836
N330	N	1.271240	-0.029226	1.146836
N331	N	1.521240	0.220774	1.396836
N332	N	1.771240	0.470774	1.646836
H333	H	0.406367	-0.242551	0.314012
H334	H	0.656367	0.007449	0.564012
H335	H	0.906367	0.257449	0.814012
H336	H	1.156367	0.507449	1.064012
H337	H	0.904091	-0.362682	0.777306
H338	H	1.154091	-0.112682	1.027306
H339	H	1.404091	0.137318	1.277306
H340	H	1.654091	0.387318	1.527306
Cl341	Cl	0.890156	-0.372619	0.627106
Cl342	Cl	1.140156	-0.122619	0.877106
Cl343	Cl	1.390156	0.127381	1.127106
Cl344	Cl	1.640156	0.377381	1.377106
H345	H	0.737553	-0.221740	0.287160
H346	H	0.987553	0.028260	0.537160
H347	H	1.237553	0.278260	0.787160
H348	H	1.487553	0.528260	1.037160
Cl349	Cl	0.257787	-0.222521	0.288164
Cl350	Cl	0.507787	0.027479	0.538164
Cl351	Cl	0.757787	0.277479	0.788164
Cl352	Cl	1.007787	0.527479	1.038164
Cl353	Cl	0.588967	-0.201705	0.261318
Cl354	Cl	0.838967	0.048295	0.511318
Cl355	Cl	1.088967	0.298295	0.761318
Cl356	Cl	1.338967	0.548295	1.011318
H357	H	0.870208	-0.842116	0.500603
H358	H	1.120208	-0.592116	0.750603
H359	H	1.370208	-0.342116	1.000603
H360	H	1.620208	-0.092116	1.250603
H361	H	0.936374	-0.339684	0.975362
H362	H	1.186374	-0.089684	1.225362
H363	H	1.436374	0.160316	1.475362
H364	H	1.686374	0.410316	1.725362
H365	H	1.067280	-0.246446	0.783917
H366	H	1.317280	0.003554	1.033917
H367	H	1.567280	0.253554	1.283917
H368	H	1.817280	0.503554	1.533917
Cl369	Cl	0.415251	-0.384609	0.497286
Cl370	Cl	0.665251	-0.134609	0.747286
Cl371	Cl	0.915251	0.115391	0.997286
Cl372	Cl	1.165251	0.365391	1.247286
Cl373	Cl	0.249611	-0.379470	0.490657
Cl374	Cl	0.499611	-0.129470	0.740657
Cl375	Cl	0.749611	0.120530	0.990657
Cl376	Cl	0.999611	0.370530	1.240657
H377	H	1.086507	-0.492346	0.301063
H378	H	1.336507	-0.242346	0.551063
H379	H	1.586507	0.007654	0.801063
H380	H	1.836507	0.257654	1.051063
Cl381	Cl	0.896126	-0.603104	0.476530
Cl382	Cl	1.146126	-0.353104	0.726530
Cl383	Cl	1.396126	-0.103104	0.976530
Cl384	Cl	1.646126	0.146896	1.226530
H385	H	0.730976	-0.347900	0.449912
H386	H	0.980976	-0.097900	0.699912
H387	H	1.230976	0.152100	0.949912
H388	H	1.480976	0.402100	1.199912
H389	H	0.917081	-1.093402	0.457529
H390	H	1.167081	-0.843402	0.707529
H391	H	1.417081	-0.593402	0.957529
H392	H	1.667081	-0.343402	1.207529
Cl393	Cl	1.107292	-0.603533	0.282001
Cl394	Cl	1.357292	-0.353533	0.532001
Cl395	Cl	1.607292	-0.103533	0.782001
Cl396	Cl	1.857292	0.146467	1.032001
Cl397	Cl	0.580794	-0.358656	0.463804
Cl398	Cl	0.830794	-0.108656	0.713804
Cl399	Cl	1.080794	0.141344	0.963804
Cl400	Cl	1.330794	0.391344	1.213804
H401	H	1.133410	-0.743625	0.258020
H402	H	1.383410	-0.493625	0.508020
H403	H	1.633410	-0.243625	0.758020
H404	H	1.883410	0.006375	1.008020
H405	H	1.099562	-0.223440	0.981975
H406	H	1.349562	0.026560	1.231975
H407	H	1.599562	0.276560	1.481975
H408	H	1.849562	0.526560	1.731975
H409	H	1.133461	-0.842675	0.258040
H410	H	1.383461	-0.592675	0.508040
H411	H	1.633461	-0.342675	0.758040
H412	H	1.883461	-0.092675	1.008040
Cl413	Cl	1.093190	-0.228007	0.635347
Cl414	Cl	1.343190	0.021993	0.885347
Cl415	Cl	1.593190	0.271993	1.135347
Cl416	Cl	1.843190	0.521993	1.385347
Cl417	Cl	1.107468	-0.982656	0.282060
Cl418	Cl	1.357468	-0.732656	0.532060
Cl419	Cl	1.607468	-0.482656	0.782060
Cl420	Cl	1.857468	-0.232656	1.032060
Cl421	Cl	0.896084	-0.479850	0.476518
Cl422	Cl	1.146084	-0.229850	0.726518
Cl423	Cl	1.396084	0.020150	0.976518
Cl424	Cl	1.646084	0.270150	1.226518
Cl425	Cl	1.113492	-0.213503	1.132168
Cl426	Cl	1.363492	0.036497	1.382168
Cl427	Cl	1.613492	0.286497	1.632168
Cl428	Cl	1.863492	0.536497	1.882168
H429	H	0.870174	-0.743065	0.500592
H430	H	1.120174	-0.493065	0.750592
H431	H	1.370174	-0.243065	1.000592
H432	H	1.620174	0.006935	1.250592
Cl433	Cl	1.107518	-1.105907	0.282085
Cl434	Cl	1.357518	-0.855907	0.532085
Cl435	Cl	1.607518	-0.605907	0.782085
Cl436	Cl	1.857518	-0.355907	1.032085
Cl437	Cl	0.896320	-0.982218	0.476608
Cl438	Cl	1.146320	-0.732218	0.726608
Cl439	Cl	1.396320	-0.482218	0.976608
Cl440	Cl	1.646320	-0.232218	1.226608
Cl441	Cl	0.910463	-0.358117	1.123935
Cl442	Cl	1.160463	-0.108117	1.373935
Cl443	Cl	1.410463	0.141883	1.623935
Cl444	Cl	1.660463	0.391883	1.873935
