data_functionalizedCrystal
_audit_creation_method	'MofGen! by Chris Wilmer'
_symmetry_space_group_name_H-M	'P1'
_symmetry_Int_Tables_number	1
_symmetry_cell_setting	triclinic
loop_
_symmetry_equiv_pos_as_xyz
  x,y,z
_cell_length_a	11.026607
_cell_length_b	15.538191
_cell_length_c	9.482900
_cell_angle_alpha	95.622696
_cell_angle_beta	78.636152
_cell_angle_gamma	77.929055
loop_
_atom_site_label
_atom_site_type_symbol
_atom_site_fract_x
_atom_site_fract_y
_atom_site_fract_z
O1	O	1.472126	0.356312	-0.120861
O2	O	1.137231	0.314516	-0.120867
O3	O	1.369870	0.209339	-0.120870
O4	O	1.239487	0.461490	-0.120859
O5	O	1.322567	0.230813	0.120923
O6	O	1.089928	0.335990	0.120926
O7	O	1.424823	0.377786	0.120932
Cu8	Cu	1.253057	0.358849	0.143006
Cu9	Cu	1.308998	0.333454	-0.142942
O10	O	1.192184	0.482963	0.120934
C11	C	1.071765	0.317542	0.000028
C12	C	0.947176	0.294556	0.000025
C13	C	0.845415	0.358024	0.000027
C14	C	0.716645	0.334268	0.000024
C15	C	1.359861	0.187293	0.000022
C16	C	1.400496	0.089608	0.000008
C17	C	0.996815	-0.266633	0.000032
C18	C	1.035024	-0.358419	0.000036
C19	C	1.249941	-0.344417	0.000039
C20	C	1.211752	-0.252629	0.000028
C21	C	1.085187	-0.213744	0.000026
C22	C	1.300124	-0.199740	0.000022
C23	C	1.261936	-0.107958	0.000019
C24	C	1.135376	-0.069066	0.000021
C25	C	1.046999	-0.121963	0.000023
C26	C	1.426686	-0.238625	0.000035
C27	C	1.515058	-0.185736	0.000029
C28	C	1.476872	-0.093954	0.000015
C29	C	1.350312	-0.055062	0.000017
C30	C	1.565249	-0.041058	0.000013
C31	C	1.527061	0.050724	0.000010
C32	C	1.312124	0.036719	0.000014
C33	C	1.490290	0.374760	0.000033
C34	C	1.614881	0.397745	0.000026
C35	C	1.202194	0.505009	0.000039
C36	C	1.161561	0.602693	0.000043
N37	N	1.213720	0.376711	0.344127
N38	N	1.348347	0.315586	-0.344063
C39	C	1.297389	0.338716	0.416325
C40	C	1.264665	0.353586	0.583743
H41	H	0.708449	0.262337	-0.000016
C42	C	1.135152	0.412403	0.667669
N43	N	1.037604	0.456704	0.730884
C44	C	1.084213	0.435525	0.428058
N45	N	0.986665	0.479826	0.491274
H46	H	0.943940	-0.090302	0.000010
H47	H	0.623080	0.469674	0.000039
C48	C	0.937799	-0.416596	0.000034
N49	N	0.864570	-0.460415	0.000032
C50	C	1.654275	-0.228520	0.000029
N51	N	1.759138	-0.260745	0.000024
C52	C	0.936092	0.197389	0.000021
N53	N	0.927746	0.124200	0.000015
H54	H	1.209065	0.068380	0.000002
C55	C	1.468691	-0.339589	0.000034
N56	N	1.500329	-0.415635	0.000030
C57	C	1.704463	-0.083843	0.000028
N58	N	1.809322	-0.116068	0.000039
H59	H	0.853624	0.429947	0.000039
C60	C	1.093369	0.031896	0.000015
N61	N	1.061730	0.107941	0.000007
H62	H	0.893756	-0.234972	0.000020
C63	C	1.624276	0.108904	-0.000004
N64	N	1.697501	0.152727	-0.000013
H65	H	1.352989	-0.376090	0.000047
H66	H	1.393246	0.295175	0.354196
C67	C	1.477861	0.256769	0.572015
N68	N	1.575412	0.212472	0.508803
