data_functionalizedCrystal
_audit_creation_method	'MofGen! by Chris Wilmer'
_symmetry_space_group_name_H-M	'P1'
_symmetry_Int_Tables_number	1
_symmetry_cell_setting	triclinic
loop_
_symmetry_equiv_pos_as_xyz
  x,y,z
_cell_length_a	12.594517
_cell_length_b	21.295416
_cell_length_c	12.594510
_cell_angle_alpha	89.960522
_cell_angle_beta	90.022787
_cell_angle_gamma	89.969869
loop_
_atom_site_label
_atom_site_type_symbol
_atom_site_fract_x
_atom_site_fract_y
_atom_site_fract_z
Zn1	Zn	1.627177	0.250558	0.601819
Zn2	Zn	1.627019	0.355847	0.423823
Zn3	Zn	1.449176	0.250596	0.423848
Zn4	Zn	1.449118	0.355793	0.601753
O5	O	1.538122	0.303199	0.512811
O6	O	1.776102	0.264532	0.578225
O7	O	1.603385	0.341924	0.274881
O8	O	1.472878	0.162501	0.447494
O9	O	1.775985	0.341888	0.447452
O10	O	1.603655	0.162474	0.578249
O11	O	1.472725	0.264596	0.274899
O12	O	1.300223	0.264543	0.447430
O13	O	1.472780	0.341795	0.750708
O14	O	1.300180	0.341831	0.578137
O15	O	1.603599	0.264479	0.750756
O16	O	1.603330	0.443930	0.447388
O17	O	1.472627	0.443890	0.578113
C18	C	1.261582	0.303186	0.512780
C19	C	1.143276	0.303196	0.512791
C20	C	1.074015	0.261101	0.441836
C21	C	1.003179	0.318523	0.415646
C22	C	1.003313	0.245802	0.538999
C23	C	1.073998	0.360647	0.486551
C24	C	1.074138	0.287888	0.609949
C25	C	1.003334	0.345349	0.583796
C26	C	1.537984	0.466750	0.512764
C27	C	1.538022	0.536718	0.512779
C28	C	1.606139	0.569585	0.444783
C29	C	1.606190	0.635327	0.444812
C30	C	1.538103	0.668201	0.512826
C31	C	1.469981	0.635326	0.580835
C32	C	1.469940	0.569585	0.580812
N33	N	1.444994	0.771465	0.520937
N34	N	1.445035	0.833917	0.520953
C35	C	1.538224	0.866275	0.512901
N36	N	1.631371	0.833823	0.504812
N37	N	1.631328	0.771366	0.504791
C38	C	1.538140	0.739486	0.512859
C39	C	1.606401	0.970427	0.444933
C40	C	1.606453	1.036171	0.444969
C41	C	1.470235	1.036169	0.580986
C42	C	1.470193	0.970426	0.580956
C43	C	1.538274	0.937560	0.512923
C44	C	1.815743	0.303212	0.512843
C45	C	1.934049	0.303217	0.512857
C46	C	1.538201	0.303127	0.790432
C47	C	1.538234	0.303097	0.908737
C48	C	1.538292	1.139008	0.512900
C49	C	1.538368	1.069040	0.512984
C50	C	1.538106	0.303224	0.236270
C51	C	1.538279	0.303077	0.117965
C52	C	1.609412	0.261032	1.048781
C53	C	1.635375	0.318471	0.977950
C54	C	1.512318	0.245664	0.977996
C55	C	1.564292	0.360547	1.048693
C56	C	1.441190	0.287701	1.048745
C57	C	1.467117	0.345180	0.977947
H58	H	1.661578	0.542826	0.389390
H59	H	1.104919	0.409208	0.464321
H60	H	0.972495	0.380997	0.643829
Br61	Br	1.126125	0.266259	0.746813
Br62	Br	1.601019	0.441511	1.100229
Br63	Br	1.709775	0.201828	1.100621
H64	H	1.414803	1.062934	0.636369
Br65	Br	1.377740	0.925819	0.673239
H66	H	1.406943	0.380785	0.947043
H67	H	0.972207	0.197262	0.561101
H68	H	1.717461	0.331488	0.946850
Br69	Br	1.475752	0.164727	0.926227
H70	H	1.661663	0.662092	0.389442
Br71	Br	0.951231	0.340128	0.278750
Br72	Br	1.125745	0.201825	0.341708
Br73	Br	1.304412	0.265975	1.100622
H74	H	1.414547	0.662096	0.636214
H75	H	1.661841	0.943666	0.389540
Br76	Br	1.377489	0.524977	0.673101
H77	H	1.661929	1.062930	0.389600
