data_functionalizedCrystal
_audit_creation_method	'MofGen! by Chris Wilmer'
_symmetry_space_group_name_H-M	'P1'
_symmetry_Int_Tables_number	1
_symmetry_cell_setting	triclinic
loop_
_symmetry_equiv_pos_as_xyz
  x,y,z
_cell_length_a	8.559649
_cell_length_b	14.519709
_cell_length_c	7.681481
_cell_angle_alpha	84.246308
_cell_angle_beta	94.913240
_cell_angle_gamma	76.729405
loop_
_atom_site_label
_atom_site_type_symbol
_atom_site_fract_x
_atom_site_fract_y
_atom_site_fract_z
O1	O	2.104962	-0.021482	-0.146399
O2	O	2.604962	0.478518	0.353601
O3	O	1.639893	0.026136	-0.146411
O4	O	2.139893	0.526136	0.353589
O5	O	1.884759	-0.132798	-0.146389
O6	O	2.384759	0.367202	0.353611
O7	O	1.860095	0.137451	-0.146421
O8	O	2.360095	0.637451	0.353579
O9	O	1.914898	-0.152399	0.146471
O10	O	2.414898	0.347601	0.646471
O11	O	1.670032	0.006535	0.146450
O12	O	2.170032	0.506535	0.646450
O13	O	2.135101	-0.041084	0.146461
O14	O	2.635101	0.458916	0.646461
Zn15	Zn	1.907351	-0.020387	0.192953
Zn16	Zn	2.407351	0.479613	0.692953
Zn17	Zn	1.867642	0.005439	-0.192903
Zn18	Zn	2.367642	0.505439	0.307097
O19	O	1.890234	0.117850	0.146439
O20	O	2.390234	0.617850	0.646439
C21	C	1.595442	0.019944	0.000018
C22	C	2.095442	0.519944	0.500018
C23	C	1.418093	0.030686	0.000014
C24	C	1.918093	0.530686	0.500014
C25	C	1.898680	-0.176876	0.000042
C26	C	2.398680	0.323124	0.500042
C27	C	1.895236	-0.279010	0.000042
C28	C	2.395236	0.220990	0.500042
C29	C	1.882552	-0.652993	-0.000004
C30	C	2.382552	-0.152993	0.499996
C31	C	1.886074	-0.548938	0.000010
C32	C	2.386074	-0.048938	0.500010
C33	C	1.888894	-0.466005	0.000021
C34	C	2.388894	0.033995	0.500021
C35	C	1.892416	-0.361944	0.000031
C36	C	2.392416	0.138056	0.500031
C37	C	2.179550	-0.034892	0.000028
C38	C	2.679550	0.465108	0.500028
C39	C	2.356899	-0.045633	0.000021
C40	C	2.856899	0.454367	0.500021
C41	C	1.876313	0.161928	0.000005
C42	C	2.376313	0.661928	0.500005
C43	C	1.879756	0.264063	-0.000008
C44	C	2.379756	0.764063	0.499992
N45	N	1.934464	-0.038014	0.456290
N46	N	2.434464	0.461986	0.956290
N47	N	1.840542	0.023058	-0.456240
N48	N	2.340542	0.523058	0.043760
H49	H	1.440186	-0.119190	0.000021
H50	H	1.940186	0.380810	0.500021
H51	H	2.030356	-0.100348	0.531504
H52	H	2.530356	0.399652	1.031504
C53	C	1.711009	0.107269	0.442173
C54	C	2.211009	0.607269	0.942173
C55	C	1.576004	0.088387	0.314947
C56	C	2.076004	0.588387	0.814947
C57	C	1.446468	0.172600	0.213347
C58	C	1.946468	0.672600	0.713347
C59	C	1.451938	0.275696	0.238974
C60	C	1.951938	0.775696	0.738974
C61	C	1.586948	0.294583	0.366206
C62	C	2.086948	0.794583	0.866206
C63	C	1.716484	0.210370	0.467806
C64	C	2.216484	0.710370	0.967806
H65	H	1.571951	0.012065	0.295971
H66	H	2.071951	0.512065	0.795971
H67	H	1.346525	0.158618	0.119162
H68	H	1.846525	0.658618	0.619162
H69	H	1.356048	0.338035	0.163764
H70	H	1.856048	0.838035	0.663764
H71	H	1.591002	0.370905	0.385182
H72	H	2.091002	0.870905	0.885182
H73	H	1.816427	0.224352	0.561992
H74	H	2.316427	0.724352	1.061992
C75	C	1.305579	0.130068	-0.000001
C76	C	1.805579	0.630068	0.499999
C77	C	1.297179	0.209295	-0.152083
C78	C	1.797179	0.709295	0.347917
C79	C	1.184667	0.308674	-0.152098
C80	C	1.684667	0.808674	0.347902
C81	C	1.080554	0.328828	-0.000031
C82	C	1.580554	0.828828	0.499969
C83	C	1.088950	0.249599	0.152062
C84	C	1.588950	0.749599	0.652062
C85	C	1.201463	0.150219	0.152077
C86	C	1.701463	0.650219	0.652077
H87	H	1.374253	0.194378	-0.264662
H88	H	1.874253	0.694378	0.235338
H89	H	1.178452	0.367325	-0.264688
H90	H	1.678452	0.867325	0.235312
H91	H	0.997265	0.402395	-0.000042
H92	H	1.497265	0.902395	0.499958
H93	H	1.011876	0.264515	0.264642
H94	H	1.511876	0.764515	0.764642
H95	H	1.207678	0.091569	0.264668
H96	H	1.707678	0.591569	0.764668
