data_functionalizedCrystal
_audit_creation_method	'MofGen! by Chris Wilmer'
_symmetry_space_group_name_H-M	'P1'
_symmetry_Int_Tables_number	1
_symmetry_cell_setting	triclinic
loop_
_symmetry_equiv_pos_as_xyz
  x,y,z
_cell_length_a	10.654562
_cell_length_b	10.654550
_cell_length_c	9.130313
_cell_angle_alpha	89.999890
_cell_angle_beta	90.001839
_cell_angle_gamma	95.512517
loop_
_atom_site_label
_atom_site_type_symbol
_atom_site_fract_x
_atom_site_fract_y
_atom_site_fract_z
O1	O	-1.667825	0.176468	-0.121850
O2	O	-1.302348	0.193258	-0.121840
O3	O	-1.493490	0.002124	-0.121840
O4	O	-1.476684	0.367602	-0.121850
O5	O	-1.493487	0.002130	0.121759
O6	O	-1.302346	0.193263	0.121758
O7	O	-1.667822	0.176474	0.121749
Cu8	Cu	-1.485084	0.184869	0.143996
Cu9	Cu	-1.485087	0.184863	-0.144088
O10	O	-1.476681	0.367607	0.121748
C11	C	-1.255549	0.192025	-0.000040
C12	C	-1.116107	0.188326	-0.000036
C13	C	-1.064567	0.072313	-0.000028
C14	C	-0.933545	0.068846	-0.000035
C15	C	-0.905613	0.297415	-0.000053
C16	C	-1.036633	0.300881	-0.000057
C17	C	-1.080693	-0.059649	-0.000011
C18	C	-0.949671	-0.063117	-0.000018
C19	C	-1.492254	-0.044671	-0.000042
C20	C	-1.488563	-0.184114	-0.000047
C21	C	-1.601103	-0.263595	-0.000046
C22	C	-1.597627	-0.394616	-0.000056
C23	C	-1.369059	-0.366663	-0.000063
C24	C	-1.372537	-0.235645	-0.000063
C25	C	-1.733066	-0.279735	-0.000035
C26	C	-1.729589	-0.410756	-0.000045
C27	C	-0.714622	0.177704	-0.000048
C28	C	-0.854065	0.181393	-0.000040
C29	C	-1.477916	0.414403	-0.000053
C30	C	-1.481608	0.553846	-0.000057
N31	N	-1.485091	0.184872	0.346619
N32	N	-1.485089	0.184849	-0.346710
C33	C	-1.569750	0.100267	0.423271
C34	C	-1.569747	0.100252	0.576608
C35	C	-1.400421	0.269458	0.576627
C36	C	-1.400419	0.269466	0.423293
C37	C	-1.667513	0.002581	0.423261
C38	C	-1.667510	0.002566	0.576598
H39	H	-0.840890	0.389053	-0.000070
H40	H	-1.775086	-0.244104	0.105145
C41	C	-1.040205	-0.170943	-0.221096
C42	C	-1.137063	-0.126771	-0.137626
H43	H	-1.075008	-0.212370	-0.306056
H44	H	-0.997702	-0.228518	-0.164457
H45	H	-0.982226	-0.101889	-0.249403
H46	H	-1.195038	-0.195826	-0.109309
H47	H	-1.179586	-0.069192	-0.194276
H48	H	-1.779310	-0.452511	0.101897
C49	C	-1.876809	0.049258	0.513503
C50	C	-1.797791	0.031615	0.632790
H51	H	-1.957233	0.067196	0.548197
H52	H	-1.885724	-0.025185	0.455701
H53	H	-1.841066	0.117745	0.455726
H54	H	-1.833531	-0.036879	0.690561
H55	H	-1.788880	0.106066	0.690616
C56	C	-0.968907	-0.256044	0.137607
C57	C	-0.910008	-0.132766	0.137606
H58	H	-0.944424	-0.299034	0.222572
H59	H	-0.944440	-0.299028	0.052663
H60	H	-1.057807	-0.253672	0.137611
H61	H	-0.821108	-0.135138	0.137591
H62	H	-0.934468	-0.089771	0.222572
C63	C	-1.503996	-0.136935	0.593403
C64	C	-1.626358	-0.120602	0.640779
H65	H	-1.478605	-0.212981	0.633015
H66	H	-1.447801	-0.067828	0.625568
H67	H	-1.502607	-0.141093	0.489493
H68	H	-1.627745	-0.116434	0.744689
H69	H	-1.682568	-0.189726	0.608623
H70	H	-1.769471	-0.456399	-0.105226
H71	H	-0.914042	-0.105150	-0.105197
H72	H	-1.078590	0.395350	-0.000088
H73	H	-1.331473	0.338347	0.360884
C74	C	-1.243838	-0.072075	0.125130
C75	C	-1.248833	-0.148271	-0.000086
H76	H	-1.167468	-0.018128	0.125105
H77	H	-1.247208	-0.123763	0.210066
H78	H	-1.313441	-0.022642	0.125124
H79	H	-1.179235	-0.197711	-0.000075
H80	H	-1.245450	-0.096577	-0.085044
C81	C	-1.183647	0.341154	0.623855
C82	C	-1.307355	0.362440	0.660916
H83	H	-1.126193	0.398554	0.675899
H84	H	-1.171540	0.353278	0.521578
H85	H	-1.169306	0.257197	0.648979
H86	H	-1.321699	0.446395	0.635782
H87	H	-1.319467	0.350326	0.763216
H88	H	-1.758697	0.033174	0.375700
C89	C	-1.528788	-0.114616	0.281879
C90	C	-1.638543	-0.127724	0.367071
H91	H	-1.510905	-0.195058	0.247186
H92	H	-1.460311	-0.078931	0.339690
H93	H	-1.540726	-0.060984	0.200968
H94	H	-1.626602	-0.181348	0.447988
H95	H	-1.707036	-0.163427	0.309257
H96	H	-1.126333	-0.099514	0.105171
H97	H	-1.784682	-0.250376	-0.101975
C98	C	-1.262237	-0.555094	-0.000070
C99	C	-1.241527	-0.423310	-0.000068
H100	H	-1.183501	-0.590061	-0.000062
H101	H	-1.308617	-0.582297	-0.085014
H102	H	-1.308622	-0.582299	0.084884
H103	H	-1.195150	-0.396105	-0.085028
H104	H	-1.195127	-0.396096	0.084885
