data_functionalizedCrystal
_audit_creation_method	'MofGen! by Chris Wilmer'
_symmetry_space_group_name_H-M	'P1'
_symmetry_Int_Tables_number	1
_symmetry_cell_setting	triclinic
loop_
_symmetry_equiv_pos_as_xyz
  x,y,z
_cell_length_a	23.096457
_cell_length_b	14.560438
_cell_length_c	14.560438
_cell_angle_alpha	119.998724
_cell_angle_beta	89.999285
_cell_angle_gamma	59.996909
loop_
_atom_site_label
_atom_site_type_symbol
_atom_site_fract_x
_atom_site_fract_y
_atom_site_fract_z
Zr1	Zr	0.557723	1.005341	0.120576
O2	O	0.465263	1.196949	0.267222
O3	O	0.586072	0.813731	0.075619
O4	O	0.586059	1.005342	0.267226
O5	O	0.465280	1.005337	-0.075524
O6	O	0.681340	1.005345	0.267231
O7	O	0.465276	1.005338	0.075616
O8	O	0.681362	0.662587	-0.075518
O9	O	0.465257	1.348095	0.267225
O10	O	0.669263	0.892545	0.056452
O11	O	0.598159	0.892543	-0.056346
O12	O	0.598144	1.118140	0.169246
O13	O	0.527041	1.118138	0.056448
Zr14	Zr	0.709691	1.005343	-0.120466
Zr15	Zr	0.709684	1.005345	0.120585
Zr16	Zr	0.557729	1.005339	-0.120474
Zr17	Zr	0.557714	1.246400	0.120581
Zr18	Zr	0.709700	0.764284	-0.120470
O19	O	0.681342	1.196953	-0.075508
O20	O	0.681332	1.196955	0.267235
O21	O	0.465272	1.196947	-0.075521
O22	O	0.802150	0.813735	-0.267111
O23	O	0.802141	0.813737	0.075632
O24	O	0.586081	0.813729	-0.267124
O25	O	0.802134	1.005347	0.075635
O26	O	0.681354	1.005342	-0.267115
O27	O	0.586074	1.005339	-0.267120
O28	O	0.802138	1.005346	-0.075505
O29	O	0.586046	1.348098	0.267232
O30	O	0.681367	0.662586	-0.267121
O31	O	0.802156	0.662589	-0.267114
O32	O	0.802151	0.662590	-0.075511
O33	O	0.465262	1.348094	0.075622
O34	O	0.586051	1.348097	0.075629
O35	O	0.669269	0.892544	-0.169136
O36	O	0.740373	0.892546	-0.056337
O37	O	0.669254	1.118141	0.056457
O38	O	0.598151	1.118139	-0.056342
C39	C	0.633718	0.703813	0.000050
C40	C	0.633722	0.601477	0.000048
C41	C	0.686196	0.373986	-0.083206
C42	C	0.686213	0.470121	-0.083211
C43	C	0.581215	0.636698	0.083325
C44	C	0.581201	0.540563	0.083334
C45	C	0.443626	1.005337	0.000044
C46	C	0.379115	1.005335	0.000041
C47	C	0.385932	0.887580	-0.058826
C48	C	0.325317	0.887579	-0.058831
C49	C	0.257884	1.005338	0.000053
C50	C	0.251069	1.123109	0.058922
C51	C	0.311685	1.123107	0.058916
N52	N	0.135083	1.092993	0.095881
N53	N	0.077503	1.092987	0.095885
C54	C	0.075252	1.005350	0.000073
N55	N	0.132761	0.917700	-0.095742
N56	N	0.190347	0.917703	-0.095743
C57	C	0.192153	1.005353	0.000065
C58	C	0.016345	0.887585	-0.058804
C59	C	-0.044273	0.887588	-0.058812
C60	C	-0.118520	1.123121	0.058951
C61	C	-0.057902	1.123115	0.058948
C62	C	0.009528	1.005343	0.000073
C63	C	0.823787	1.005347	0.000066
C64	C	0.888298	1.005349	0.000070
C65	C	0.633698	1.005343	0.301573
C66	C	0.633696	1.005344	0.403905
C67	C	0.633695	1.306871	0.000061
C68	C	0.633691	1.409207	0.000063
C69	C	0.581207	1.005347	0.548142
C70	C	0.581206	1.005340	0.451986
C71	C	0.686194	1.005342	0.451978
C72	C	0.686198	1.005339	0.548127
C73	C	0.633710	1.005343	0.698539
C74	C	0.633700	1.005348	0.596210
C75	C	0.823799	0.703818	0.000061
C76	C	0.888314	0.601484	0.000063
C77	C	0.633726	0.703812	-0.301468
C78	C	0.633733	0.601475	-0.403802
C79	C	0.823807	0.703817	-0.301457
C80	C	0.888325	0.601482	-0.403787
C81	C	0.443607	1.306867	0.301568
C82	C	0.379088	1.409202	0.403898
C83	C	0.443615	1.306866	0.000050
C84	C	0.379099	1.409200	0.000048
C85	C	0.633687	1.306872	0.301579
C86	C	0.633680	1.409209	0.403913
C87	C	0.881493	0.553426	0.058949
C88	C	0.942106	0.457285	0.058973
C89	C	1.009540	0.409197	0.000104
C90	C	1.016360	0.457265	-0.058784
C91	C	0.955747	0.553411	-0.058801
C92	C	0.955745	0.553426	-0.392963
C93	C	1.016373	0.457284	-0.489104
C94	C	1.009578	0.409195	-0.596068
C95	C	0.942151	0.457261	-0.606890
C96	C	0.881525	0.553406	-0.510750
C97	C	0.311668	1.457270	0.393074
C98	C	0.251041	1.553441	0.489215
C99	C	0.257835	1.601536	0.596179
C100	C	0.325262	1.553464	0.607001
C101	C	0.385888	1.457301	0.510861
C102	C	0.385921	1.457268	-0.058828
C103	C	0.325307	1.553436	-0.058826
C104	C	0.257873	1.601527	0.000047
C105	C	0.251053	1.553455	0.058930
C106	C	0.311666	1.457296	0.058934
C107	C	0.670854	0.553396	-0.510754
C108	C	0.670852	0.457249	-0.606904
C109	C	0.596608	0.457265	-0.489136
C110	C	0.596606	0.553417	-0.392989
H111	H	0.538478	0.743657	0.151120
H112	H	0.208463	1.679837	0.674454
H113	H	-0.173424	1.219004	0.106896
H114	H	0.728969	0.441432	-0.151016
H115	H	0.208524	1.679825	0.000035
H116	H	0.306128	1.219000	0.106850
C117	C	0.176880	1.606292	0.477291
H118	H	0.181522	1.563854	0.399817
H119	H	0.151682	1.697068	0.512333
H120	H	0.151689	1.590530	0.512353
C121	C	0.807323	0.606312	0.123717
H122	H	0.811952	0.563921	0.158797
H123	H	0.782132	0.590551	0.072903
H124	H	0.782133	0.697097	0.179435
H125	H	0.330868	0.791686	-0.106768
H126	H	-0.063457	1.219004	0.106892
H127	H	1.071273	0.418098	-0.106713
H128	H	1.071269	0.418159	-0.480273
H129	H	1.058950	0.330906	-0.674343
C130	C	0.523479	1.005305	0.601004
H131	H	0.492224	1.005280	0.558590
H132	H	0.497539	1.080626	0.676183
H133	H	0.545066	0.929947	0.600822
C134	C	0.743932	1.005345	0.399091
H135	H	0.736409	1.005359	0.334950
H136	H	0.789251	0.930012	0.377179
H137	H	0.741747	1.080691	0.452521
C138	C	0.743942	1.005345	0.601007
H139	H	0.775201	1.005358	0.558611
H140	H	0.769874	0.930009	0.600848
H141	H	0.722371	1.080688	0.676186
H142	H	0.701083	0.592527	-0.519565
C143	C	0.090518	0.758045	-0.123584
H144	H	0.085895	0.687911	-0.158662
H145	H	0.115713	0.753137	-0.072774
H146	H	0.115701	0.753161	-0.179304
H147	H	0.330786	1.592635	0.694103
C148	C	0.460092	1.404386	-0.123586
H149	H	0.495221	1.340224	-0.115167
H150	H	0.465404	1.473418	-0.094501
H151	H	0.465412	1.366875	-0.201052
C152	C	0.711689	0.404360	-0.724547
H153	H	0.733803	0.446749	-0.717211
H154	H	0.679653	0.420122	-0.764506
H155	H	0.746818	0.313574	-0.764499
C156	C	0.555780	0.404384	-0.477250
H157	H	0.561103	0.340222	-0.549829
H158	H	0.506944	0.473409	-0.437299
H159	H	0.574117	0.366868	-0.437299
H160	H	0.961291	0.592566	-0.305876
H161	H	0.538462	1.005336	0.412851
H162	H	0.936539	0.418160	0.106926
C163	C	0.934687	0.404341	-0.724553
H164	H	0.980453	0.340187	-0.780252
H165	H	0.909500	0.473350	-0.733012
H166	H	0.909512	0.366807	-0.732994
H167	H	0.961311	0.592527	-0.106760
H168	H	-0.038715	0.791694	-0.106757
C169	C	0.332822	1.606285	-0.123612
H170	H	0.381665	1.563849	-0.158688
H171	H	0.310726	1.697062	-0.072804
H172	H	0.310721	1.590519	-0.179334
C173	C	0.176876	1.606350	0.123677
H174	H	0.181487	1.563961	0.158752
H175	H	0.151696	1.590590	0.072841
H176	H	0.151684	1.697136	0.179396
C177	C	1.076207	0.303428	0.000120
H178	H	1.062481	0.281690	0.043615
H179	H	1.103633	0.334929	0.031644
H180	H	1.103631	0.228394	-0.074897
C181	C	0.555767	0.606313	-0.275335
H182	H	0.533662	0.563911	-0.282664
H183	H	0.520642	0.697092	-0.235387
H184	H	0.587807	0.590549	-0.235376
H185	H	0.826631	0.592521	-0.519579
H186	H	0.306123	1.418117	0.305987
H187	H	0.440783	1.418165	0.519688
H188	H	0.538444	0.569253	0.151148
C189	C	0.743934	0.229500	-0.174792
H190	H	0.736404	0.177286	-0.162869
H191	H	0.789252	0.211028	-0.171338
H192	H	0.741759	0.211043	-0.246676
C193	C	0.460102	0.758041	-0.123598
H194	H	0.495228	0.774900	-0.115168
H195	H	0.465417	0.709655	-0.201057
H196	H	0.465423	0.709657	-0.094513
C197	C	0.176897	1.252641	0.123695
H198	H	0.141773	1.235777	0.115278
H199	H	0.171575	1.301028	0.094619
H200	H	0.171582	1.301024	0.201160
H201	H	0.306102	1.418161	0.106875
