data_functionalizedCrystal
_audit_creation_method	'MofGen! by Chris Wilmer'
_symmetry_space_group_name_H-M	'P1'
_symmetry_Int_Tables_number	1
_symmetry_cell_setting	triclinic
loop_
_symmetry_equiv_pos_as_xyz
  x,y,z
_cell_length_a	17.699083
_cell_length_b	27.732048
_cell_length_c	16.176319
_cell_angle_alpha	89.988239
_cell_angle_beta	89.998611
_cell_angle_gamma	82.962835
loop_
_atom_site_label
_atom_site_type_symbol
_atom_site_fract_x
_atom_site_fract_y
_atom_site_fract_z
O1	O	1.003540	0.061127	-0.068640
O2	O	0.783091	0.069080	-0.068668
O3	O	0.900162	-0.005269	-0.068637
O4	O	0.886469	0.135475	-0.068670
O5	O	0.900146	-0.005273	0.068856
O6	O	0.783075	0.069075	0.068825
O7	O	1.003524	0.061122	0.068853
Cu8	Cu	0.893298	0.065098	0.081394
Cu9	Cu	0.893317	0.065104	-0.081208
O10	O	0.886453	0.135471	0.068823
C11	C	0.754889	0.068792	0.000075
C12	C	0.670878	0.067938	0.000065
C13	C	0.899867	-0.023279	0.000112
C14	C	0.899001	-0.076937	0.000118
C15	C	0.621873	0.111579	0.000055
C16	C	0.542936	0.110772	0.000066
C17	C	0.513007	0.066325	0.000081
C18	C	0.562019	0.022680	0.000094
C19	C	0.640954	0.023487	0.000089
C20	C	0.243685	0.019426	0.000115
C21	C	0.164744	0.018623	0.000117
C22	C	0.145667	0.106712	0.000092
C23	C	0.224602	0.107518	0.000087
C24	C	0.273607	0.063874	0.000104
C25	C	0.359199	0.064749	0.000094
C26	C	0.427418	0.065450	0.000085
C27	C	0.962734	-0.415523	0.000084
C28	C	0.959522	-0.617194	0.000072
O29	O	1.017801	-0.648240	0.000043
N30	N	0.890104	-0.636567	0.000064
C31	C	0.821484	-0.605520	0.000053
O32	O	0.762366	-0.626625	0.000038
C33	C	0.824696	-0.403849	0.000059
C34	C	0.894119	-0.384479	0.000076
C35	C	1.032151	-0.396152	0.000100
C36	C	1.032953	-0.345737	0.000107
C37	C	0.964338	-0.314693	0.000099
C38	C	0.894921	-0.334064	0.000083
C39	C	0.756076	-0.372802	0.000043
C40	C	0.756886	-0.322382	0.000042
C41	C	0.826308	-0.303012	0.000059
C42	C	0.827108	-0.252605	0.000083
N43	N	0.896526	-0.233232	0.000091
C44	C	0.965141	-0.264276	0.000099
C45	C	0.819802	-0.711400	0.000052
C46	C	0.818999	-0.761817	0.000052
C47	C	0.957038	-0.773488	0.000069
C48	C	0.957840	-0.723070	0.000075
C49	C	0.889220	-0.692026	0.000060
C50	C	0.966820	-0.158401	0.000115
C51	C	0.967616	-0.107981	0.000126
C52	C	0.829578	-0.096314	0.000105
C53	C	0.828781	-0.146730	0.000098
C54	C	0.897409	-0.177772	0.000101
O55	O	0.768860	-0.221531	0.000102
O56	O	1.024251	-0.243161	0.000096
C57	C	0.961931	-0.465938	0.000077
C58	C	0.892514	-0.485309	0.000061
C59	C	0.823899	-0.454265	0.000053
C60	C	0.891711	-0.535726	0.000061
C61	C	0.960326	-0.566770	0.000069
C62	C	1.029744	-0.547397	0.000077
C63	C	1.030546	-0.496982	0.000085
C64	C	0.754481	-0.473638	0.000045
C65	C	0.753685	-0.524053	0.000038
C66	C	0.822300	-0.555097	0.000046
C67	C	1.031726	0.061410	0.000108
C68	C	1.115737	0.062264	0.000113
C69	C	0.886748	0.153481	0.000072
C70	C	0.887614	0.207139	0.000060
N71	N	0.893290	0.065094	0.195759
N72	N	0.893331	0.065104	-0.195573
C73	C	0.945145	0.032186	0.239037
C74	C	0.945149	0.032185	0.325584
C75	C	0.893301	0.065096	0.368851
C76	C	0.841441	0.098005	0.325568
C77	C	0.841434	0.098003	0.239022
C78	C	0.841467	0.098014	0.674596
C79	C	0.841479	0.098015	0.761147
C80	C	0.945181	0.032197	0.761157
C81	C	0.945174	0.032194	0.674612
C82	C	0.893312	0.065102	0.631336
C83	C	0.893308	0.065102	0.537491
C84	C	0.893309	0.065099	0.462694
H85	H	0.646234	0.147773	0.000042
H86	H	0.503039	0.146309	0.000057
H87	H	0.799222	0.124800	0.360801
C88	C	0.529103	-0.026212	0.000109
H89	H	0.569597	-0.052088	0.000121
H90	H	0.498707	-0.028357	-0.047836
H91	H	0.498709	-0.028359	0.048064
H92	H	0.799256	0.124815	0.796374
C93	C	0.131820	-0.030270	0.000137
H94	H	0.077791	-0.024498	0.000127
H95	H	0.148673	-0.048237	0.048089
H96	H	0.148676	-0.048235	-0.047811
C97	C	0.257520	0.156410	0.000074
H98	H	0.217028	0.182287	0.000078
H99	H	0.287916	0.158559	-0.047873
H100	H	0.287915	0.158552	0.048027
H101	H	1.014370	-0.707302	0.000088
H102	H	0.105758	0.142249	0.000083
H103	H	0.697148	-0.539820	0.000032
C104	C	1.043982	-0.086674	0.000145
H105	H	1.034638	-0.052201	0.000157
H106	H	1.072217	-0.097328	-0.047797
H107	H	1.072199	-0.097344	0.048103
C108	C	0.784428	0.134215	0.627003
H109	H	0.753558	0.153819	0.665169
H110	H	0.753122	0.116854	0.593253
H111	H	0.811418	0.154316	0.593230
C112	C	0.297580	-0.028580	0.000128
H113	H	0.268448	-0.055165	0.000129
H114	H	0.328770	-0.030100	0.048074
H115	H	0.328768	-0.030096	-0.047826
H116	H	0.680855	-0.012050	0.000096
H117	H	0.799209	0.124800	0.203786
C118	C	0.754108	-0.062160	0.000091
H119	H	0.764534	-0.029360	0.000088
H120	H	0.725603	-0.068027	0.048029
H121	H	0.725630	-0.068017	-0.047871
H122	H	1.089484	-0.329971	0.000117
C123	C	1.042308	-0.192540	0.000125
H124	H	1.083760	-0.173777	0.000143
H125	H	1.044881	-0.212446	-0.047821
H126	H	1.044859	-0.212456	0.048078
H127	H	1.012907	-0.798773	0.000076
C128	C	1.107634	-0.430293	0.000115
H129	H	1.149084	-0.411528	0.000131
H130	H	1.110209	-0.450202	-0.047828
H131	H	1.110185	-0.450206	0.048072
C132	C	0.742634	-0.783119	0.000040
H133	H	0.701889	-0.757406	0.000027
H134	H	0.739439	-0.802551	0.047984
H135	H	0.739458	-0.802536	-0.047916
H136	H	0.987396	0.005397	0.639386
H137	H	0.763920	-0.686128	0.000040
C138	C	0.679710	-0.394099	0.000018
H139	H	0.638968	-0.368383	0.000002
H140	H	0.676508	-0.413531	0.047960
H141	H	0.676535	-0.413515	-0.047940
C142	C	1.002177	-0.004017	0.191450
H143	H	1.033055	-0.023618	0.229623
H144	H	1.033475	0.013344	0.157675
H145	H	0.975180	-0.024119	0.157703
H146	H	0.701006	-0.297108	0.000029
C147	C	0.752419	-0.168038	0.000078
H148	H	0.711670	-0.142327	0.000069
H149	H	0.749223	-0.187476	0.048015
H150	H	0.749248	-0.187451	-0.047884
H151	H	1.087078	-0.481215	0.000098
C152	C	1.105219	-0.581551	0.000080
H153	H	1.094791	-0.614351	0.000066
H154	H	1.133711	-0.575699	0.048028
H155	H	1.133709	-0.575681	-0.047872
H156	H	0.698605	-0.448366	0.000036
C157	C	1.002196	-0.004009	0.373186
H158	H	1.033080	-0.023604	0.335022
H159	H	0.975219	-0.024112	0.406962
H160	H	1.033496	0.013362	0.406933
H161	H	0.987408	0.005400	0.796402
