data_functionalizedCrystal
_audit_creation_method	'MofGen! by Chris Wilmer'
_symmetry_space_group_name_H-M	'P1'
_symmetry_Int_Tables_number	1
_symmetry_cell_setting	triclinic
loop_
_symmetry_equiv_pos_as_xyz
  x,y,z
_cell_length_a	15.944551
_cell_length_b	15.538191
_cell_length_c	14.750135
_cell_angle_alpha	82.461907
_cell_angle_beta	102.681730
_cell_angle_gamma	65.385416
loop_
_atom_site_label
_atom_site_type_symbol
_atom_site_fract_x
_atom_site_fract_y
_atom_site_fract_z
O1	O	-1.053012	-0.141873	0.079728
O2	O	-0.803888	-0.156858	0.079751
O3	O	-0.976943	-0.012239	0.079740
O4	O	-0.879957	-0.286492	0.079740
O5	O	-1.025929	0.028586	-0.079929
O6	O	-0.852874	-0.116032	-0.079918
O7	O	-1.101999	-0.101048	-0.079941
Zn8	Zn	-0.985214	-0.102058	-0.105280
Zn9	Zn	-0.920672	-0.155847	0.105091
O10	O	-0.928944	-0.245667	-0.079929
C11	C	-0.797276	-0.135824	-0.000080
C12	C	-0.704595	-0.133962	-0.000071
C13	C	-1.011582	0.043268	-0.000093
C14	C	-1.041806	0.147838	-0.000086
C15	C	-1.108610	-0.122082	-0.000107
C16	C	-1.201288	-0.123946	-0.000110
C17	C	-0.518437	-0.039862	-0.000090
C18	C	-0.419940	-0.103686	0.078636
C19	C	-0.534902	-0.130587	-0.000082
C20	C	-0.468253	-0.063457	-0.078786
C21	C	-0.370989	-0.127319	-0.000098
C22	C	-0.437605	-0.194452	0.078708
C23	C	-0.485950	-0.154192	-0.078784
C24	C	-0.387444	-0.218087	-0.000040
C25	C	-0.629328	-0.132467	-0.000073
C26	C	-0.276559	-0.125447	-0.000100
C27	C	-0.894303	-0.301174	-0.000095
C28	C	-0.864078	-0.405746	-0.000095
N29	N	-1.029269	-0.065348	-0.248853
C30	C	-0.741523	0.435645	-0.000078
C31	C	-0.769947	0.533911	-0.000083
C32	C	-0.929821	0.556347	-0.000098
C33	C	-0.901409	0.458081	-0.000088
C34	C	-0.807260	0.397737	-0.000080
C35	C	-0.967145	0.420173	-0.000089
C36	C	-0.938737	0.321916	-0.000085
C37	C	-0.844592	0.261567	-0.000079
C38	C	-0.778851	0.299481	-0.000075
C39	C	-1.061297	0.480519	-0.000105
C40	C	-1.127033	0.442611	-0.000106
C41	C	-1.098623	0.344351	-0.000095
C42	C	-1.004478	0.284003	-0.000089
C43	C	-1.164364	0.306438	-0.000099
C44	C	-1.135955	0.208181	-0.000094
C45	C	-0.976070	0.185746	-0.000085
N46	N	-0.876627	-0.192550	0.248664
C47	C	-1.152218	0.037091	0.600375
C48	C	-1.121369	0.011393	0.700886
C49	C	-0.967979	-0.116417	0.700908
C50	C	-0.998813	-0.090726	0.600395
C51	C	-1.090934	-0.013972	0.550136
C52	C	-0.937529	-0.141790	0.550156
C53	C	-0.968363	-0.116104	0.449652
C54	C	-1.060481	-0.039355	0.399386
C55	C	-1.121768	0.011714	0.449632
C56	C	-0.845412	-0.218548	0.600417
C57	C	-0.784128	-0.269612	0.550178
C58	C	-0.814959	-0.243922	0.449672
C59	C	-0.907077	-0.167173	0.399406
C60	C	-0.753672	-0.294990	0.399427
C61	C	-0.784506	-0.269304	0.298922
C62	C	-0.937911	-0.141487	0.298902
H63	H	-0.574700	0.035406	0.000008
C64	C	-0.380987	-0.074839	0.168543
H65	H	-0.426821	-0.011508	0.168449
H66	H	-0.370473	-0.120751	0.224449
H67	H	-0.321642	-0.074441	0.168183
C68	C	-0.866650	-0.200837	0.756198
H69	H	-0.857059	-0.208818	0.823250
H70	H	-0.861521	-0.259540	0.739734
H71	H	-0.818850	-0.186220	0.739727
H72	H	-1.006479	0.605493	-0.000108
C73	C	-0.311577	-0.319914	0.000018
H74	H	-0.300135	-0.366296	0.055992
H75	H	-0.334899	-0.338216	-0.055375
H76	H	-0.252880	-0.318051	-0.000506
C77	C	-1.092552	0.588601	-0.000112
H78	H	-1.158041	0.619114	-0.000131
H79	H	-1.052377	0.592457	0.055570
H80	H	-1.086535	0.620918	-0.055797
H81	H	-0.709123	-0.332109	0.591111
H82	H	-0.425459	-0.249831	0.145337
H83	H	-1.241023	0.355586	-0.000115
H84	H	-0.480292	-0.008051	-0.145340
C85	C	-0.524949	-0.182993	-0.168697
H86	H	-0.536611	-0.136378	-0.224583
H87	H	-0.478630	-0.245801	-0.169264
H88	H	-0.583687	-0.184543	-0.167728
C89	C	-0.652348	-0.379416	0.454718
H90	H	-0.642761	-0.387398	0.521770
H91	H	-0.647226	-0.438116	0.438251
H92	H	-0.604541	-0.364808	0.438254
C93	C	-0.717077	-0.325436	0.243656
H94	H	-0.657788	-0.374810	0.287982
H95	H	-0.747230	-0.354733	0.204433
H96	H	-0.704592	-0.281384	0.204466
H97	H	-1.012921	-0.078979	0.257980
H98	H	-0.899401	0.136608	-0.000070
C99	C	-0.697627	0.575602	-0.000068
H100	H	-0.637486	0.525587	-0.000053
H101	H	-0.722462	0.627703	-0.055746
H102	H	-0.688303	0.599224	0.055622
H103	H	-1.203691	0.491757	-0.000117
H104	H	-0.702183	0.250343	-0.000061
C105	C	-0.813336	0.153486	-0.000075
H106	H	-0.747853	0.122981	-0.000077
H107	H	-0.819350	0.121163	0.055602
H108	H	-0.853516	0.149638	-0.055765
C109	C	-0.637957	0.369260	-0.000060
H110	H	-0.602872	0.405907	-0.000061
H111	H	-0.606476	0.316229	0.055622
H112	H	-0.640636	0.344701	-0.055746
C113	C	-1.208261	0.166478	-0.000094
H114	H	-1.268399	0.216486	-0.000091
H115	H	-1.217584	0.142849	-0.055773
H116	H	-1.183415	0.114378	0.055594
H117	H	-1.085587	-0.018446	0.317549
C118	C	-1.223095	0.096151	0.394341
H119	H	-1.255181	0.122888	0.438654
H120	H	-1.216960	0.145472	0.355131
H121	H	-1.259660	0.072175	0.355137
C122	C	-1.253545	0.121529	0.545084
H123	H	-1.285631	0.148265	0.589397
H124	H	-1.247409	0.170850	0.505874
H125	H	-1.290109	0.097553	0.505880
H126	H	-1.171282	0.052981	0.741785
H127	H	-0.820312	-0.239462	0.682254
