data_functionalizedCrystal
_audit_creation_method	'MofGen! by Chris Wilmer'
_symmetry_space_group_name_H-M	'P1'
_symmetry_Int_Tables_number	1
_symmetry_cell_setting	triclinic
loop_
_symmetry_equiv_pos_as_xyz
  x,y,z
_cell_length_a	19.077713
_cell_length_b	18.050591
_cell_length_c	19.077174
_cell_angle_alpha	92.323056
_cell_angle_beta	94.475462
_cell_angle_gamma	92.273359
loop_
_atom_site_label
_atom_site_type_symbol
_atom_site_fract_x
_atom_site_fract_y
_atom_site_fract_z
Zn1	Zn	-0.296790	-1.165246	-0.410033
Zn2	Zn	0.036543	-0.831912	-0.076700
Zn3	Zn	0.369876	-0.498579	0.256634
Zn4	Zn	-0.409937	-1.165149	-0.296885
Zn5	Zn	-0.076604	-0.831816	0.036448
Zn6	Zn	0.256730	-0.498482	0.369782
Zn7	Zn	-0.292061	-1.035866	-0.292144
Zn8	Zn	0.041272	-0.702532	0.041189
Zn9	Zn	0.374605	-0.369199	0.374523
Zn10	Zn	-0.414618	-1.046200	-0.414714
Zn11	Zn	-0.081285	-0.712867	-0.081381
Zn12	Zn	0.252048	-0.379534	0.251953
O13	O	-0.353352	-1.103115	-0.353444
O14	O	-0.020018	-0.769782	-0.020111
O15	O	0.313315	-0.436449	0.313223
O16	O	-0.311819	-1.269159	-0.395049
O17	O	0.021514	-0.935826	-0.061715
O18	O	0.354848	-0.602493	0.271618
O19	O	-0.390362	-1.143634	-0.197607
O20	O	-0.057029	-0.810301	0.135726
O21	O	0.276304	-0.476967	0.469060
O22	O	-0.194046	-1.048744	-0.303839
O23	O	0.139288	-0.715410	0.029494
O24	O	0.472621	-0.382077	0.362828
O25	O	-0.394948	-1.269088	-0.311919
O26	O	-0.061614	-0.935755	0.021414
O27	O	0.271719	-0.602422	0.354747
O28	O	-0.197520	-1.143799	-0.390452
O29	O	0.135813	-0.810465	-0.057118
O30	O	0.469147	-0.477132	0.276215
O31	O	-0.303760	-1.048650	-0.194124
O32	O	0.029574	-0.715317	0.139209
O33	O	0.362907	-0.381983	0.472543
O34	O	-0.308299	-0.933310	-0.308378
O35	O	0.025034	-0.599977	0.024955
O36	O	0.358368	-0.266644	0.358289
O37	O	-0.402926	-1.066357	-0.512742
O38	O	-0.069593	-0.733024	-0.179409
O39	O	0.263740	-0.399691	0.153925
O40	O	-0.398341	-0.940903	-0.398430
O41	O	-0.065008	-0.607570	-0.065096
O42	O	0.268326	-0.274236	0.268237
O43	O	-0.316359	-1.153820	-0.509303
O44	O	0.016975	-0.820486	-0.175970
O45	O	0.350308	-0.487153	0.157364
O46	O	-0.509201	-1.153655	-0.316458
O47	O	-0.175867	-0.820322	0.016875
O48	O	0.157466	-0.486988	0.350208
O49	O	-0.512640	-1.066264	-0.403027
O50	O	-0.179307	-0.732930	-0.069694
O51	O	0.154026	-0.399597	0.263640
C52	C	-0.353315	-0.910160	-0.353398
C53	C	-0.019982	-0.576826	-0.020064
C54	C	0.313351	-0.243493	0.313269
C55	C	-0.353318	-0.827614	-0.353395
C56	C	-0.019984	-0.494281	-0.020062
C57	C	0.313349	-0.160947	0.313271
C58	C	-0.304296	-0.574639	-0.304522
C59	C	0.029038	-0.241306	0.028811
C60	C	0.362371	0.092027	0.362145
C61	C	-0.289715	-0.626153	-0.368171
C62	C	0.043618	-0.292820	-0.034837
C63	C	0.376952	0.040514	0.298496
C64	C	-0.353340	-0.530496	-0.353439
C65	C	-0.020007	-0.197163	-0.020106
C66	C	0.313326	0.136170	0.313227
C67	C	-0.367877	-0.626062	-0.289772
C68	C	-0.034543	-0.292728	0.043562
C69	C	0.298790	0.040605	0.376895
C70	C	-0.353327	-0.676480	-0.353414
C71	C	-0.019994	-0.343146	-0.020081
C72	C	0.313339	-0.009813	0.313252
C73	C	-0.338728	-0.580923	-0.417121
C74	C	-0.005395	-0.247589	-0.083787
C75	C	0.327938	0.085744	0.249546
C76	C	-0.416918	-0.580826	-0.338680
C77	C	-0.083584	-0.247493	-0.005346
C78	C	0.249749	0.085840	0.327987
C79	C	-0.402364	-0.632321	-0.402373
C80	C	-0.069030	-0.298987	-0.069040
C81	C	0.264303	0.034346	0.264293
C82	C	-0.353346	-0.446399	-0.353453
C83	C	-0.020013	-0.113065	-0.020119
C84	C	0.313320	0.220268	0.313214
C85	C	-0.353322	-0.760576	-0.353408
C86	C	-0.019989	-0.427242	-0.020075
C87	C	0.313345	-0.093909	0.313258
C88	C	-0.536498	-1.111091	-0.360780
C89	C	-0.203165	-0.777758	-0.027447
C90	C	0.130169	-0.444424	0.305886
C91	C	-0.614850	-1.114572	-0.363943
C92	C	-0.281517	-0.781239	-0.030609
C93	C	0.051817	-0.447906	0.302724
C94	C	-1.056075	-1.139536	-0.386601
C95	C	-0.722742	-0.806202	-0.053268
C96	C	-0.389409	-0.472869	0.280065
C97	C	-0.982455	-1.136256	-0.383624
C98	C	-0.649122	-0.802923	-0.050291
C99	C	-0.315789	-0.469590	0.283043
C100	C	-0.943902	-1.085163	-0.337011
C101	C	-0.610568	-0.751830	-0.003677
C102	C	-0.277235	-0.418497	0.329656
C103	C	-0.978971	-1.037351	-0.293367
C104	C	-0.645638	-0.704018	0.039967
C105	C	-0.312305	-0.370685	0.373300
C106	C	-1.052590	-1.040635	-0.296341
C107	C	-0.719257	-0.707301	0.036992
C108	C	-0.385923	-0.373968	0.370326
C109	C	-0.723538	-1.070044	-0.323273
C110	C	-0.390205	-0.736710	0.010060
C111	C	-0.056872	-0.403377	0.343394
C112	C	-0.649915	-1.066762	-0.320303
C113	C	-0.316581	-0.733429	0.013030
C114	C	0.016752	-0.400096	0.346363
C115	C	-0.653404	-1.165669	-0.410560
C116	C	-0.320070	-0.832336	-0.077227
C117	C	0.013263	-0.499002	0.256106
C118	C	-0.727024	-1.168945	-0.413533
C119	C	-0.393690	-0.835611	-0.080200
C120	C	-0.060357	-0.502278	0.253133
C121	C	-0.762087	-1.121136	-0.369887
C122	C	-0.428754	-0.787802	-0.036554
C123	C	-0.095420	-0.454469	0.296780
N124	N	-0.868650	-1.081808	-0.333968
N125	N	-0.535317	-0.748475	-0.000634
N126	N	-0.201983	-0.415142	0.332699
N127	N	-0.837337	-1.124495	-0.372927
N128	N	-0.504004	-0.791161	-0.039593
N129	N	-0.170670	-0.457828	0.293740
C130	C	-0.169491	-1.095129	-0.346094
C131	C	0.163843	-0.761796	-0.012761
C132	C	0.497176	-0.428462	0.320572
C133	C	-0.091140	-1.091726	-0.342962
C134	C	0.242193	-0.758393	-0.009629
C135	C	0.575526	-0.425059	0.323704
C136	C	-0.360692	-1.111252	-0.537316
C137	C	-0.027359	-0.777919	-0.203983
C138	C	0.305974	-0.444585	0.129351
C139	C	-0.363820	-1.114720	-0.615672
C140	C	-0.030487	-0.781386	-0.282338
C141	C	0.302846	-0.448053	0.050995
C142	C	-0.353376	-0.296823	-0.353478
C143	C	-0.020042	0.036510	-0.020145
C144	C	0.313291	0.369843	0.313189
C145	C	-0.353352	-0.379367	-0.353459
C146	C	-0.020019	-0.046034	-0.020126
C147	C	0.313314	0.287299	0.313207
C148	C	-0.320201	-1.066898	-0.650669
C149	C	0.013132	-0.733564	-0.317336
C150	C	0.346465	-0.400231	0.015998
C151	C	-0.323146	-1.070153	-0.724292
C152	C	0.010187	-0.736820	-0.390959
C153	C	0.343520	-0.403486	-0.057626
C154	C	-0.369707	-1.121235	-0.762917
C155	C	-0.036374	-0.787901	-0.429584
C156	C	0.296959	-0.454568	-0.096250
C157	C	-0.413331	-1.169059	-0.727914
C158	C	-0.079998	-0.835725	-0.394581
C159	C	0.253336	-0.502392	-0.061248
C160	C	-0.410389	-1.165799	-0.654292
C161	C	-0.077056	-0.832466	-0.320959
C162	C	0.256278	-0.499132	0.012374
C163	C	-0.383344	-1.136283	-0.983298
C164	C	-0.050011	-0.802949	-0.649964
C165	C	0.283323	-0.469616	-0.316631
C166	C	-0.386281	-1.139540	-1.056925
C167	C	-0.052948	-0.806207	-0.723591
C168	C	0.280385	-0.472874	-0.390258
C169	C	-0.296097	-1.040633	-1.053298
C170	C	0.037236	-0.707300	-0.719964
C171	C	0.370569	-0.373967	-0.386631
C172	C	-0.293156	-1.037381	-0.979674
C173	C	0.040177	-0.704048	-0.646341
C174	C	0.373510	-0.370715	-0.313008
C175	C	-0.336783	-1.085203	-0.944678
C176	C	-0.003449	-0.751869	-0.611345
C177	C	0.329884	-0.418536	-0.278012
N178	N	-0.372717	-1.124565	-0.838172
N179	N	-0.039384	-0.791232	-0.504839
N180	N	0.293950	-0.457898	-0.171505
N181	N	-0.333776	-1.081868	-0.869425
N182	N	-0.000443	-0.748535	-0.536092
N183	N	0.332891	-0.415201	-0.202758
C184	C	-0.345989	-1.095051	-0.170285
C185	C	-0.012656	-0.761717	0.163048
C186	C	0.320678	-0.428384	0.496382
C187	C	-0.342662	-1.091718	-0.091922
C188	C	-0.009329	-0.758385	0.241411
C189	C	0.324004	-0.425052	0.574744
H190	H	-0.262797	-0.549451	-0.263213
H191	H	0.070536	-0.216118	0.070121
H192	H	0.403869	0.117216	0.403454
Cl193	Cl	-0.775486	-1.233167	-0.472147
Cl194	Cl	-0.442153	-0.899834	-0.138814
Cl195	Cl	-0.108820	-0.566500	0.194519
Cl196	Cl	-0.938377	-1.196363	-0.438488
Cl197	Cl	-0.605044	-0.863029	-0.105155
Cl198	Cl	-0.271710	-0.529696	0.228178
Cl199	Cl	-0.930504	-0.973122	-0.234764
Cl200	Cl	-0.597170	-0.639789	0.098570
Cl201	Cl	-0.263837	-0.306456	0.431903
Cl202	Cl	-0.206696	-0.656992	-0.387442
Cl203	Cl	0.126637	-0.323658	-0.054109
Cl204	Cl	0.459970	0.009675	0.279224
H205	H	-0.380177	-0.645960	-0.235939
H206	H	-0.046843	-0.312626	0.097394
H207	H	0.286490	0.020707	0.430727
Cl208	Cl	-0.319638	-0.550345	-0.500255
Cl209	Cl	0.013695	-0.217012	-0.166921
Cl210	Cl	0.347028	0.116322	0.166412
Cl211	Cl	-0.444813	-1.203768	-1.105480
Cl212	Cl	-0.111480	-0.870435	-0.772147
Cl213	Cl	0.221854	-0.537101	-0.438814
Cl214	Cl	-0.466395	-0.671007	-0.466293
Cl215	Cl	-0.133062	-0.337674	-0.132960
Cl216	Cl	0.200271	-0.004341	0.200373
H217	H	-0.445903	-1.204746	-0.625798
H218	H	-0.112570	-0.871413	-0.292465
H219	H	0.220764	-0.538079	0.040868
H220	H	-1.087461	-1.181134	-0.424566
H221	H	-0.754128	-0.847801	-0.091233
H222	H	-0.420794	-0.514468	0.242100
Cl223	Cl	-0.609320	-1.225769	-0.465426
Cl224	Cl	-0.275986	-0.892435	-0.132092
Cl225	Cl	0.057347	-0.559102	0.201241
H226	H	-0.470673	-0.560831	-0.326182
H227	H	-0.137339	-0.227498	0.007152
H228	H	0.195994	0.105836	0.340485
H229	H	-1.081139	-1.001703	-0.260805
H230	H	-0.747805	-0.668370	0.072528
H231	H	-0.414472	-0.335036	0.405861
H232	H	-0.418875	-1.175214	-0.954813
H233	H	-0.085542	-0.841881	-0.621480
H234	H	0.247791	-0.508548	-0.288147
H235	H	-0.618527	-1.025153	-0.282343
H236	H	-0.285194	-0.691820	0.050990
H237	H	0.048139	-0.358486	0.384324
Cl238	Cl	-0.234619	-0.973163	-0.931123
Cl239	Cl	0.098714	-0.639830	-0.597790
Cl240	Cl	0.432048	-0.306497	-0.264456
H241	H	-0.282282	-1.025306	-0.619226
H242	H	0.051051	-0.691972	-0.285893
H243	H	0.384384	-0.358639	0.047441
Cl244	Cl	-0.767608	-1.009936	-0.268407
Cl245	Cl	-0.434275	-0.676602	0.064926
Cl246	Cl	-0.100942	-0.343269	0.398260
H247	H	-0.287630	-1.031209	-0.752784
H248	H	0.045704	-0.697875	-0.419451
H249	H	0.379037	-0.364542	-0.086117
Cl250	Cl	-0.241259	-0.980516	-1.097297
Cl251	Cl	0.092074	-0.647183	-0.763964
Cl252	Cl	0.425407	-0.313850	-0.430630
Cl253	Cl	-0.471869	-1.233271	-0.776471
Cl254	Cl	-0.138536	-0.899938	-0.443138
Cl255	Cl	0.194797	-0.566605	-0.109805
