data_functionalizedCrystal
_audit_creation_method	'MofGen! by Chris Wilmer'
_symmetry_space_group_name_H-M	'P1'
_symmetry_Int_Tables_number	1
_symmetry_cell_setting	triclinic
loop_
_symmetry_equiv_pos_as_xyz
  x,y,z
_cell_length_a	18.426585
_cell_length_b	21.606444
_cell_length_c	21.606444
_cell_angle_alpha	90.001146
_cell_angle_beta	60.004022
_cell_angle_gamma	59.997708
loop_
_atom_site_label
_atom_site_type_symbol
_atom_site_fract_x
_atom_site_fract_y
_atom_site_fract_z
Zr1	Zr	0.794316	0.596243	-0.081181
O2	O	0.945715	0.497416	-0.180001
O3	O	0.642916	0.626540	-0.050891
O4	O	0.794309	0.626539	-0.180003
O5	O	0.794327	0.497416	0.050961
O6	O	0.794304	0.728393	-0.180001
O7	O	0.794322	0.497417	-0.050889
O8	O	0.523490	0.728394	0.050957
O9	O	1.065142	0.497416	-0.179997
O10	O	0.705185	0.715473	-0.037967
O11	O	0.705193	0.639460	0.038041
O12	O	0.883439	0.639460	-0.113972
O13	O	0.883446	0.563447	-0.037964
Zr14	Zr	0.794316	0.758689	0.081261
Zr15	Zr	0.794308	0.758689	-0.081178
Zr16	Zr	0.794324	0.596243	0.081257
Zr17	Zr	0.984787	0.596243	-0.081175
Zr18	Zr	0.603844	0.758690	0.081255
O19	O	0.945715	0.728392	0.050971
O20	O	0.945704	0.728393	-0.179996
O21	O	0.945727	0.497416	0.050966
O22	O	0.642916	0.857516	0.180081
O23	O	0.642905	0.857516	-0.050886
O24	O	0.642928	0.626539	0.180076
O25	O	0.794304	0.857516	-0.050881
O26	O	0.794322	0.728393	0.180083
O27	O	0.794327	0.626539	0.180081
O28	O	0.794309	0.857516	0.050968
O29	O	1.065135	0.626538	-0.179995
O30	O	0.523496	0.728394	0.180074
O31	O	0.523490	0.857517	0.180077
O32	O	0.523483	0.857517	0.050960
O33	O	1.065148	0.497415	-0.050880
O34	O	1.065142	0.626538	-0.050878
O35	O	0.705193	0.715473	0.114052
O36	O	0.705185	0.791485	0.038044
O37	O	0.883439	0.715472	-0.037961
O38	O	0.883446	0.639459	0.038046
C39	C	0.556065	0.677467	0.000032
C40	C	0.475205	0.677467	0.000030
C41	C	0.794326	0.677466	0.203226
C42	C	0.794330	0.677466	0.272185
C43	C	0.794306	0.880661	0.000044
C44	C	0.794302	0.949623	0.000046
C45	C	0.179095	0.677463	0.000052
C46	C	0.261482	0.677462	0.000047
C47	C	0.327148	0.677465	0.000040
C48	C	0.409539	0.677465	0.000037
C49	C	1.032567	0.677465	0.000047
C50	C	1.113427	0.677465	0.000050
C51	C	0.794326	0.474272	0.000035
C52	C	0.794330	0.405309	0.000034
C53	C	0.701256	1.021700	0.039721
C54	C	0.701259	1.086495	0.039717
C55	C	0.794309	1.079211	0.000041
C56	C	0.887362	1.007127	-0.039639
C57	C	0.887358	0.942334	-0.039639
C58	C	0.887380	1.268430	-0.039642
C59	C	0.887376	1.333231	-0.039638
C60	C	0.701281	1.412591	0.039714
C61	C	0.701277	1.347798	0.039714
C62	C	0.794329	1.275719	0.000031
C63	C	0.794325	1.205462	0.000035
C64	C	0.794314	1.149467	0.000041
C65	C	0.794306	0.677466	-0.203146
C66	C	0.794302	0.677466	-0.272106
C67	C	0.887375	0.637789	0.264910
C68	C	0.887372	0.637786	0.329708
C69	C	0.794323	0.677464	0.401779
C70	C	0.701270	0.717142	0.409052
C71	C	0.701274	0.717140	0.344256
C72	C	0.701252	0.717148	0.670370
C73	C	0.701255	0.717148	0.735168
C74	C	0.887351	0.637793	0.655822
C75	C	0.887355	0.637792	0.591026
C76	C	0.794302	0.677466	0.598304
C77	C	0.794307	0.677468	0.528043
C78	C	0.794317	0.677467	0.472039
C79	C	0.556055	0.880662	0.000037
C80	C	0.475191	0.949624	0.000035
C81	C	0.556075	0.677467	0.203218
C82	C	0.475219	0.677467	0.272175
C83	C	0.556065	0.880661	0.203222
C84	C	0.475205	0.949624	0.272181
C85	C	1.032567	0.474271	-0.203143
C86	C	1.113427	0.405308	-0.272101
C87	C	1.032577	0.474270	0.000043
C88	C	1.113440	0.405308	0.000044
C89	C	1.032556	0.677465	-0.203139
C90	C	1.113413	0.677465	-0.272095
C91	C	0.437217	0.942332	-0.039649
C92	C	0.361247	1.007124	-0.039665
C93	C	0.323249	1.079207	0.000008
C94	C	0.361230	1.086498	0.039693
C95	C	0.437204	1.021707	0.039705
C96	C	0.437248	0.717145	0.344242
C97	C	0.361285	0.717142	0.409040
C98	C	0.323289	0.677466	0.401770
C99	C	0.361268	0.637783	0.329696
C100	C	0.437234	0.637782	0.264899
C101	C	0.437228	1.021694	0.264889
C102	C	0.361262	1.086498	0.329677
C103	C	0.323269	1.079230	0.401755
C104	C	0.361253	1.007152	0.409045
C105	C	0.437223	0.942350	0.344258
C106	C	1.151413	0.333238	-0.264810
C107	C	1.227402	0.268434	-0.329597
C108	C	1.265400	0.275702	-0.401675
C109	C	1.227410	0.347780	-0.408966
C110	C	1.151427	0.412582	-0.344179
C111	C	1.151423	0.412600	0.039722
C112	C	1.227413	0.347808	0.039720
C113	C	1.265415	0.275725	0.000045
C114	C	1.227429	0.268435	-0.039638
C115	C	1.151445	0.333226	-0.039640
C116	C	1.151384	0.717149	-0.264801
C117	C	1.227348	0.717164	-0.329587
C118	C	1.265343	0.677489	-0.401667
C119	C	1.227365	0.637804	-0.408959
C120	C	1.151397	0.637794	-0.344174
H121	H	0.625484	1.027640	0.072033
Cl122	Cl	0.484950	0.851750	0.353438
Cl123	Cl	1.275140	0.177831	-0.320415
Cl124	Cl	1.360921	0.194228	-0.483115
Cl125	Cl	0.227761	1.160705	0.483195
H126	H	0.625479	0.749459	0.793854
Cl127	Cl	1.275185	0.356904	-0.499585
Cl128	Cl	0.484982	1.030851	0.174284
Cl129	Cl	0.227736	1.160652	-0.000012
H130	H	0.963118	0.605485	0.649902
H131	H	0.625513	1.471287	0.072023
H132	H	0.330308	1.001246	0.467740
Cl133	Cl	1.103675	0.503182	-0.353359
Cl134	Cl	0.584282	1.177105	0.089597
Cl135	Cl	1.004350	0.587876	0.320557
Cl136	Cl	1.275083	0.767053	-0.320402
H137	H	1.120480	0.327306	-0.206126
H138	H	0.330281	1.145196	0.071993
Cl139	Cl	0.584296	1.356960	0.089599
H140	H	1.120488	0.471288	0.072035
H141	H	1.327201	0.677503	-0.454413
H142	H	0.330343	1.145181	0.323727
Cl143	Cl	1.275146	0.356991	0.089614
Cl144	Cl	0.484954	0.587901	0.174304
Cl145	Cl	1.103681	0.587892	-0.353357
Cl146	Cl	0.584272	0.767025	0.679529
Cl147	Cl	1.004362	1.324070	-0.089521
H148	H	1.327286	0.222975	0.000053
H149	H	0.468113	1.027655	0.072025
Cl150	Cl	0.584292	0.767019	0.499657
H151	H	0.963148	1.209749	-0.071953
H152	H	0.468155	0.883645	-0.071965
Cl153	Cl	1.103633	0.767034	-0.174195
H154	H	1.258312	0.605502	-0.467655
Cl155	Cl	1.004339	0.997970	-0.089511
Cl156	Cl	1.275209	0.177810	-0.089508
Cl157	Cl	1.103698	0.324045	-0.089520
H158	H	0.963125	0.883645	-0.071949
Cl159	Cl	0.584297	0.767019	0.353403
H160	H	0.963125	0.605484	0.532345
Cl161	Cl	1.004359	0.587909	0.174310
Cl162	Cl	0.484995	0.767032	0.353401
H163	H	0.330372	0.749459	0.467720
Cl164	Cl	0.227785	0.677477	0.483238
Cl165	Cl	0.313510	0.997941	-0.089555
H166	H	0.330321	0.605480	0.323788
