data_functionalizedCrystal
_audit_creation_method	'MofGen! by Chris Wilmer'
_symmetry_space_group_name_H-M	'P1'
_symmetry_Int_Tables_number	1
_symmetry_cell_setting	triclinic
loop_
_symmetry_equiv_pos_as_xyz
  x,y,z
_cell_length_a	21.295417
_cell_length_b	21.295420
_cell_length_c	21.295411
_cell_angle_alpha	90.025571
_cell_angle_beta	89.978356
_cell_angle_gamma	89.972078
loop_
_atom_site_label
_atom_site_type_symbol
_atom_site_fract_x
_atom_site_fract_y
_atom_site_fract_z
Zn1	Zn	-0.250724	-0.962355	-0.355928
Zn2	Zn	-0.355976	-0.962258	-0.250654
Zn3	Zn	-0.250720	-0.857079	-0.250672
Zn4	Zn	-0.355955	-0.857048	-0.355884
O5	O	-0.303344	-0.909685	-0.303284
O6	O	-0.264697	-1.050432	-0.341975
O7	O	-0.342021	-0.948277	-0.162567
O8	O	-0.162631	-0.871097	-0.264660
O9	O	-0.342025	-1.050360	-0.264630
O10	O	-0.162634	-0.948444	-0.341992
O11	O	-0.264690	-0.871003	-0.162580
O12	O	-0.264669	-0.768985	-0.264617
O13	O	-0.341989	-0.871045	-0.443979
O14	O	-0.341985	-0.768963	-0.341916
O15	O	-0.264676	-0.948414	-0.444012
O16	O	-0.444063	-0.948248	-0.264587
O17	O	-0.444047	-0.870951	-0.341898
C18	C	-0.303324	-0.746133	-0.303264
C19	C	-0.303331	-0.676165	-0.303270
C20	C	-0.466895	-0.909602	-0.303249
C21	C	-0.536864	-0.909625	-0.303256
C22	C	-0.343665	-0.176712	-0.343484
C23	C	-0.343667	-0.242454	-0.343478
C24	C	-0.303349	-0.275326	-0.303294
C25	C	-0.263038	-0.242449	-0.263102
C26	C	-0.263043	-0.176708	-0.263104
N27	N	-0.248233	-0.378566	-0.298563
N28	N	-0.248231	-0.441018	-0.298565
C29	C	-0.303334	-0.473400	-0.303284
N30	N	-0.358441	-0.440972	-0.308014
N31	N	-0.358443	-0.378515	-0.308016
C32	C	-0.303340	-0.346611	-0.303287
C33	C	-0.343646	-0.577555	-0.343465
C34	C	-0.343649	-0.643298	-0.343455
C35	C	-0.263015	-0.643292	-0.263082
C36	C	-0.263018	-0.577549	-0.263089
C37	C	-0.303333	-0.544685	-0.303283
C38	C	-0.569717	-0.949909	-0.263041
C39	C	-0.635460	-0.949939	-0.263055
C40	C	-0.668346	-0.909672	-0.303277
C41	C	-0.635484	-0.869385	-0.343500
C42	C	-0.569743	-0.869361	-0.343489
N43	N	-0.771610	-0.854605	-0.308069
N44	N	-0.834062	-0.854630	-0.308076
C45	C	-0.866421	-0.909743	-0.303313
N46	N	-0.833969	-0.964832	-0.298532
N47	N	-0.771512	-0.964807	-0.298522
C48	C	-0.739631	-0.909694	-0.303294
C49	C	-0.970560	-0.950063	-0.263112
C50	C	-1.036304	-0.950093	-0.263130
C51	C	-1.036327	-0.869534	-0.343572
C52	C	-0.970584	-0.869509	-0.343557
C53	C	-0.937705	-0.909773	-0.303323
C54	C	-0.139154	-0.909785	-0.303333
C55	C	-0.069185	-0.909827	-0.303354
C56	C	-0.303331	-0.909737	-0.467475
C57	C	-0.303325	-0.909759	-0.537443
C58	C	-0.303360	-0.073875	-0.303302
C59	C	-0.303358	-0.143843	-0.303299
C60	C	-0.263067	-0.950044	-0.570328
C61	C	-0.263039	-0.950043	-0.636070
C62	C	-0.303282	-0.909764	-0.668925
C63	C	-0.343543	-0.869472	-0.636033
C64	C	-0.343564	-0.869470	-0.570291
N65	N	-0.358349	-0.904908	-0.772141
N66	N	-0.358327	-0.904914	-0.834592
C67	C	-0.303218	-0.909768	-0.867000
N68	N	-0.248131	-0.914629	-0.834598
N69	N	-0.248154	-0.914626	-0.772140
C70	C	-0.303262	-0.909762	-0.740211
C71	C	-0.262926	-0.950054	-0.971171
C72	C	-0.262898	-0.950048	-1.036914
C73	C	-0.343407	-0.869481	-1.036876
C74	C	-0.343430	-0.869483	-0.971133
C75	C	-0.303190	-0.909773	-0.938285
C76	C	-0.303312	-0.909669	-0.139733
C77	C	-0.303140	-0.909769	-0.069765
H78	H	-0.376490	-0.269221	-0.376203
N79	N	-0.937023	-0.828363	-0.384642
N80	N	-0.944333	-0.832516	-0.442733
H81	H	-0.920631	-0.803456	-0.471754
N82	N	-0.221832	-0.676851	-0.222025
N83	N	-0.225926	-0.669475	-0.163933
H84	H	-0.196841	-0.693178	-0.134933
N85	N	-0.221948	-0.991182	-0.536777
N86	N	-0.181840	-0.969055	-0.500092
H87	H	-0.152797	-0.998108	-0.476396
N88	N	-0.221862	-0.276033	-0.222055
N89	N	-0.221863	-0.334730	-0.222059
H90	H	-0.192784	-0.358449	-0.193066
N91	N	-0.536170	-0.828208	-0.384561
N92	N	-0.477474	-0.828191	-0.384543
H93	H	-0.453761	-0.799127	-0.413550
H94	H	-1.063102	-0.836752	-0.376325
N95	N	-0.384700	-0.828329	-0.536696
N96	N	-0.424829	-0.850454	-0.500022
H97	H	-0.453883	-0.821399	-0.476294
N98	N	-0.221906	-0.991193	-0.669661
N99	N	-0.185979	-1.027158	-0.640324
H100	H	-0.156927	-1.056220	-0.664045
N101	N	-0.221840	-0.543981	-0.222037
N102	N	-0.185846	-0.573335	-0.186158
H103	H	-0.156764	-0.549627	-0.157161
N104	N	-0.669084	-0.828253	-0.384577
N105	N	-0.705813	-0.788164	-0.362394
H106	H	-0.729544	-0.759114	-0.391407
N107	N	-0.936980	-0.991193	-0.222012
N108	N	-0.966325	-1.027163	-0.186111
H109	H	-0.942611	-1.056212	-0.157084
N110	N	-0.384643	-0.828317	-0.669584
N111	N	-0.380453	-0.770234	-0.662218
H112	H	-0.409477	-0.741162	-0.685914
H113	H	-0.376216	-0.836683	-0.944358
N114	N	-0.221818	-0.991207	-0.937622
N115	N	-0.185869	-1.027169	-0.966994
H116	H	-0.156835	-1.056234	-0.943303
N117	N	-1.069854	-0.991248	-0.222042
N118	N	-1.062547	-0.987094	-0.163951
H119	H	-1.086241	-1.016161	-0.134931
N120	N	-0.221865	-0.143139	-0.222049
N121	N	-0.185873	-0.172492	-0.186169
H122	H	-0.156790	-0.148784	-0.157173
H123	H	-0.542949	-0.982695	-0.230281
N124	N	-0.221780	-0.991200	-1.070517
N125	N	-0.221764	-0.991195	-1.129214
H126	H	-0.192724	-1.020259	-1.152948
H127	H	-0.376495	-0.149958	-0.376211
H128	H	-0.662215	-0.982745	-0.230307
N129	N	-0.384504	-0.828335	-1.070438
N130	N	-0.384477	-0.828338	-1.129135
H131	H	-0.413501	-0.799276	-1.152842
H132	H	-0.376477	-0.670059	-0.376176
N133	N	-0.384830	-0.543989	-0.384523
N134	N	-0.420823	-0.573348	-0.420396
H135	H	-0.449910	-0.549645	-0.449394
