data_functionalizedCrystal
_audit_creation_method	'MofGen! by Chris Wilmer'
_symmetry_space_group_name_H-M	'P1'
_symmetry_Int_Tables_number	1
_symmetry_cell_setting	triclinic
loop_
_symmetry_equiv_pos_as_xyz
  x,y,z
_cell_length_a	19.188929
_cell_length_b	19.188905
_cell_length_c	9.730223
_cell_angle_alpha	89.992681
_cell_angle_beta	90.023102
_cell_angle_gamma	96.860334
loop_
_atom_site_label
_atom_site_type_symbol
_atom_site_fract_x
_atom_site_fract_y
_atom_site_fract_z
O1	O	-0.087081	0.926152	-0.114582
O2	O	-0.098834	0.722838	-0.114543
O3	O	0.008699	0.830362	-0.114479
O4	O	-0.194614	0.818628	-0.114646
O5	O	0.008696	0.830361	0.114101
O6	O	-0.098837	0.722837	0.114036
O7	O	-0.087084	0.926151	0.113998
Zn8	Zn	-0.092961	0.824494	0.150309
Zn9	Zn	-0.092957	0.824495	-0.150855
O10	O	-0.194617	0.818627	0.113934
C11	C	-0.098458	0.696826	-0.000247
C12	C	-0.097324	0.619321	-0.000228
C13	C	-0.096778	0.582930	-0.124830
C14	C	-0.095705	0.510106	-0.124846
C15	C	-0.095164	0.473678	-0.000253
C16	C	-0.095714	0.510078	0.124365
C17	C	-0.096794	0.582899	0.124378
N18	N	-0.053736	0.364657	0.092503
N19	N	-0.052709	0.295480	0.092482
C20	C	-0.091911	0.254272	-0.000284
N21	N	-0.132171	0.284854	-0.093050
N22	N	-0.133196	0.354038	-0.093034
C23	C	-0.093993	0.394716	-0.000253
C24	C	-0.090203	0.138917	-0.124912
C25	C	-0.089134	0.066091	-0.124923
C26	C	-0.089136	0.066065	0.124292
C27	C	-0.090212	0.138888	0.124299
C28	C	-0.090742	0.175310	-0.000307
C29	C	-0.220626	0.819007	-0.000378
C30	C	-0.298131	0.820148	-0.000444
C31	C	-0.343060	0.757056	-0.000404
C32	C	-0.415884	0.758128	-0.000374
C33	C	-0.443775	0.822295	-0.000355
C34	C	-0.398835	0.885395	-0.000402
C35	C	-0.326013	0.884321	-0.000447
N36	N	-0.551740	0.871342	0.077514
N37	N	-0.620918	0.872357	0.077559
C38	C	-0.663183	0.825533	-0.000223
N39	N	-0.633657	0.777644	-0.078035
N40	N	-0.564473	0.776627	-0.078074
C41	C	-0.522737	0.823466	-0.000307
C42	C	-0.787077	0.763599	-0.000152
C43	C	-0.859902	0.764673	-0.000130
C44	C	-0.842851	0.891942	-0.000144
C45	C	-0.770028	0.890866	-0.000181
C46	C	-0.742146	0.826693	-0.000178
C47	C	0.034708	0.829982	-0.000170
C48	C	0.112213	0.828841	-0.000113
C49	C	-0.087460	0.952163	-0.000301
C50	C	-0.088594	1.029668	-0.000329
N51	N	-0.092963	0.824498	0.355846
N52	N	-0.092950	0.824497	-0.356391
C53	C	-0.045363	0.872121	0.427800
C54	C	-0.045355	0.872119	0.571683
C55	C	-0.140551	0.776868	0.571644
C56	C	-0.140556	0.776867	0.427764
C57	C	0.002230	0.919752	0.355882
C58	C	0.049833	0.967380	0.427837
C59	C	0.049841	0.967378	0.571720
C60	C	0.002247	0.919748	0.643648
H61	H	-0.095261	0.480470	-0.226316
C62	C	-0.979101	0.709809	-0.000075
C63	C	-0.909293	0.695318	-0.000097
H64	H	-1.009592	0.666990	-0.000065
H65	H	-0.987504	0.736126	0.079631
H66	H	-0.987550	0.736130	-0.079791
H67	H	-0.900842	0.669001	0.079625
H68	H	-0.900886	0.668990	-0.079811
H69	H	-0.764374	0.711345	-0.000142
C70	C	-0.650828	0.945727	-0.000266
C71	C	-0.720636	0.960219	-0.000216
H72	H	-0.620336	0.988545	-0.000302
H73	H	-0.642370	0.919412	0.079439
H74	H	-0.642434	0.919403	-0.079984
H75	H	-0.729031	0.986538	0.079507
H76	H	-0.729098	0.986544	-0.079929
H77	H	-0.421549	0.937640	-0.000412
C78	C	-0.031406	0.228863	-0.269446
C79	C	-0.090795	0.178953	-0.261878
H80	H	-0.031771	0.253573	-0.354008
H81	H	-0.031885	0.260961	-0.195246
H82	H	0.009716	0.205900	-0.264238
H83	H	-0.131916	0.201916	-0.267076
H84	H	-0.090322	0.146851	-0.336098
C85	C	-0.095828	0.517364	0.370697
C86	C	-0.095119	0.470040	0.261322
H87	H	-0.095467	0.492645	0.455250
H88	H	-0.055546	0.551223	0.365555
H89	H	-0.136959	0.540311	0.365474
H90	H	-0.053985	0.447097	0.266540
H91	H	-0.135405	0.436168	0.266467
H92	H	-0.289431	0.935700	-0.000480
H93	H	0.002226	0.919759	0.238726
H94	H	0.088586	1.006155	0.369266
H95	H	-0.088694	0.036462	-0.226393
H96	H	-0.179315	0.738087	0.369178
H97	H	0.088606	1.006154	0.630304
C98	C	-0.425430	0.632221	-0.000330
C99	C	-0.465282	0.688773	-0.000322
H100	H	-0.455927	0.589405	-0.000289
H101	H	-0.396705	0.634443	-0.080056
H102	H	-0.396639	0.634456	0.079366
H103	H	-0.494069	0.686541	-0.080024
H104	H	-0.494020	0.686550	0.079412
C105	C	-0.946908	0.950097	-0.000081
C106	C	-0.873500	0.962477	-0.000126
H107	H	-0.965829	0.993645	-0.000067
H108	H	-0.962367	0.924133	-0.079777
H109	H	-0.962310	0.924127	0.079646
H110	H	-0.858098	0.988442	-0.079859
H111	H	-0.858035	0.988452	0.079577
H112	H	0.002262	0.919746	0.760808
C113	C	-0.089250	0.073358	0.370625
C114	C	-0.088545	0.026032	0.261251
H115	H	-0.088892	0.048638	0.455178
H116	H	-0.048966	0.107214	0.365483
H117	H	-0.130379	0.096308	0.365400
H118	H	-0.047413	0.003085	0.266470
H119	H	-0.128833	-0.007836	0.266396
H120	H	-0.097239	0.612528	0.225847
C121	C	-0.271017	0.682011	0.117055
C122	C	-0.312411	0.686519	-0.000421
H123	H	-0.252098	0.638462	0.117042
H124	H	-0.233837	0.719429	0.117019
H125	H	-0.299048	0.685074	0.196776
H126	H	-0.284378	0.683461	-0.080143
H127	H	-0.349596	0.649090	-0.000397
H128	H	-0.179301	0.738090	0.630218
H129	H	-0.097209	0.612580	-0.226294
H130	H	-0.090652	0.168519	0.225764
