data_functionalizedCrystal
_audit_creation_method	'MofGen! by Chris Wilmer'
_symmetry_space_group_name_H-M	'P1'
_symmetry_Int_Tables_number	1
_symmetry_cell_setting	triclinic
loop_
_symmetry_equiv_pos_as_xyz
  x,y,z
_cell_length_a	15.995350
_cell_length_b	15.072220
_cell_length_c	15.995300
_cell_angle_alpha	90.003415
_cell_angle_beta	96.517909
_cell_angle_gamma	90.008851
loop_
_atom_site_label
_atom_site_type_symbol
_atom_site_fract_x
_atom_site_fract_y
_atom_site_fract_z
O1	O	1.110976	0.073698	-0.107924
O2	O	0.867199	0.073715	-0.121251
O3	O	0.995773	0.073711	0.007303
O4	O	0.982402	0.073703	-0.236478
O5	O	0.995742	-0.073854	0.007296
O6	O	0.867167	-0.073850	-0.121259
O7	O	1.110945	-0.073867	-0.107931
Zn8	Zn	0.989051	-0.097287	-0.114596
Zn9	Zn	0.989093	0.097136	-0.114586
O10	O	0.982370	-0.073862	-0.236485
C11	C	0.835988	-0.000065	-0.120704
C12	C	0.743038	-0.000058	-0.119052
C13	C	0.405292	-0.000076	-0.113120
C14	C	0.452742	-0.000402	-0.021566
C15	C	0.549432	-0.000064	-0.023218
C16	C	0.572852	-0.000068	-0.116062
C17	C	0.531775	0.084194	-0.161216
C18	C	0.435139	0.084259	-0.158916
C19	C	0.434764	-0.083550	-0.160816
C20	C	0.531709	-0.084658	-0.160794
C21	C	0.667549	-0.000060	-0.117730
C22	C	0.310594	-0.000078	-0.111455
N23	N	0.989028	-0.229976	-0.114602
C24	C	0.989091	-0.589178	-0.114583
C25	C	0.920062	-0.551568	-0.183139
C26	C	0.920220	-0.448743	-0.183390
C27	C	0.989059	-0.410974	-0.114592
C28	C	1.076421	-0.448272	-0.133674
C29	C	1.076034	-0.551130	-0.134162
C30	C	0.971537	-0.551274	-0.026742
C31	C	0.969533	-0.448410	-0.027327
C32	C	0.989047	-0.310260	-0.114596
C33	C	0.989109	-0.689891	-0.114581
C34	C	1.142155	-0.000085	-0.108478
C35	C	1.235105	-0.000086	-0.110130
C36	C	0.995212	-0.000069	0.038495
C37	C	0.993577	-0.000060	0.131448
N38	N	0.989122	0.229825	-0.114574
C39	C	0.982931	-0.000081	-0.267677
C40	C	0.984566	-0.000084	-0.360630
C41	C	0.990558	-0.000068	0.301631
C42	C	1.082105	-0.000073	0.349096
C43	C	1.080435	-0.000411	0.445784
C44	C	0.987586	-0.000076	0.469187
C45	C	0.942148	-0.084173	0.428049
C46	C	0.944464	-0.084240	0.331415
C47	C	0.943145	0.083575	0.331148
C48	C	0.943153	0.084677	0.428092
C49	C	0.985901	-0.000083	0.563883
C50	C	0.992239	-0.000067	0.206935
H51	H	0.547061	-0.089750	-0.228499
N52	N	0.934291	-0.417845	-0.265154
N53	N	0.936855	-0.336435	-0.279549
H54	H	0.946796	-0.314613	-0.337297
N55	N	0.585101	-0.075819	0.021329
N56	N	0.638149	-0.065708	0.084259
H57	H	0.663339	-0.119210	0.115728
H58	H	1.091504	-0.575115	-0.198224
H59	H	0.434214	-0.060830	0.015028
H60	H	0.877239	-0.087825	0.299142
N61	N	1.127568	-0.075621	0.324519
N62	N	1.202029	-0.087804	0.355372
H63	H	1.234136	-0.141163	0.338016
N64	N	0.888911	-0.417849	-0.009150
N65	N	0.832216	-0.472448	0.001382
H66	H	0.775275	-0.450861	0.014216
N67	N	1.142392	-0.417579	-0.072696
N68	N	1.125719	-0.367752	-0.014355
H69	H	1.172310	-0.346073	0.028714
N70	N	0.981222	-0.162983	0.463629
N71	N	1.042524	-0.157432	0.519273
H72	H	1.070125	-0.213089	0.544402
N73	N	0.565936	-0.162873	-0.119445
N74	N	0.603585	-0.218649	-0.159275
H75	H	0.627752	-0.273892	-0.130070
H76	H	1.116138	0.059859	0.474252
H77	H	1.016545	-0.422703	0.026079
H78	H	0.414220	-0.147419	-0.130888
N79	N	0.412203	0.163283	-0.117602
N80	N	0.467539	0.218002	-0.090664
H81	H	0.451345	0.273815	-0.061484
H82	H	0.873923	-0.087059	0.442148
H83	H	0.433168	0.059694	0.014865
H84	H	0.875644	0.084382	0.299377
H85	H	1.129003	-0.576007	-0.086197
N86	N	0.980981	0.163559	0.305437
N87	N	1.043358	0.159884	0.265040
H88	H	1.070090	0.216369	0.246884
N89	N	0.984642	0.162727	0.462567
N90	N	1.046709	0.156028	0.517195
H91	H	1.075959	0.211152	0.541612
N92	N	1.034669	-0.581801	0.037268
N93	N	1.014239	-0.626990	0.097252
H94	H	1.058826	-0.648555	0.142454
N95	N	0.858233	0.091351	0.447336
N96	N	0.806746	0.031019	0.425391
H97	H	0.746767	0.035724	0.438982
N98	N	0.584398	0.075848	0.021617
N99	N	0.537381	0.128747	0.054221
H100	H	0.562074	0.182365	0.085887
H101	H	0.854914	-0.576325	-0.171957
N102	N	0.394676	0.089051	-0.243240
N103	N	0.437834	0.092344	-0.303600
H104	H	0.409261	0.095733	-0.363154
H105	H	1.118904	0.060233	0.330621
N106	N	0.549480	0.088114	-0.246785
N107	N	0.592675	0.028707	-0.275512
H108	H	0.605181	0.031472	-0.335945
N109	N	1.096288	-0.415942	-0.213123
N110	N	1.046253	-0.365444	-0.255820
H111	H	1.060280	-0.342611	-0.311933
N112	N	1.125006	-0.076483	0.480709
N113	N	1.157438	-0.129494	0.433664
H114	H	1.188918	-0.183224	0.458329
H115	H	0.977184	-0.147347	0.313092
N116	N	0.567404	0.162879	-0.121901
N117	N	0.644606	0.177246	-0.119512
H118	H	0.669773	0.232819	-0.091751
N119	N	0.394902	-0.084260	-0.245495
N120	N	0.344994	-0.023620	-0.270706
H121	H	0.316837	-0.024114	-0.330508
N122	N	0.838618	-0.417279	-0.169417
N123	N	0.808340	-0.437210	-0.103218
H124	H	0.750651	-0.415060	-0.093462
N125	N	0.933931	-0.583992	-0.264450
N126	N	0.994433	-0.634678	-0.272128
H127	H	1.004232	-0.657580	-0.329553
N128	N	0.893337	-0.583841	-0.003750
N129	N	0.849589	-0.635391	-0.051832
H130	H	0.794354	-0.658389	-0.035606
