data_functionalizedCrystal
_audit_creation_method	'MofGen! by Chris Wilmer'
_symmetry_space_group_name_H-M	'P1'
_symmetry_Int_Tables_number	1
_symmetry_cell_setting	triclinic
loop_
_symmetry_equiv_pos_as_xyz
  x,y,z
_cell_length_a	9.065218
_cell_length_b	14.971486
_cell_length_c	13.448316
_cell_angle_alpha	90.001801
_cell_angle_beta	89.995277
_cell_angle_gamma	95.684993
loop_
_atom_site_label
_atom_site_type_symbol
_atom_site_fract_x
_atom_site_fract_y
_atom_site_fract_z
O1	O	0.192261	-1.188380	-0.082573
O2	O	0.215285	-0.928152	-0.082600
O3	O	-0.010978	-1.063645	-0.082584
O4	O	0.418525	-1.052887	-0.082589
O5	O	-0.010992	-1.063628	0.082800
O6	O	0.215271	-0.928134	0.082784
O7	O	0.192248	-1.188363	0.082811
Cu8	Cu	0.203758	-1.058247	0.097898
Cu9	Cu	0.203775	-1.058268	-0.097687
O10	O	0.418511	-1.052870	0.082795
C11	C	0.214248	-0.894811	0.000089
C12	C	0.211163	-0.795491	0.000078
C13	C	-0.065951	-1.062602	0.000106
C14	C	-0.229731	-1.059511	0.000101
C15	C	0.193284	-1.221704	0.000120
C16	C	0.196370	-1.321024	0.000124
C17	C	0.473483	-1.053912	0.000102
C18	C	0.637264	-1.057004	0.000101
N19	N	0.203746	-1.058239	0.235462
C20	C	0.344086	-0.739256	0.000078
C21	C	0.341178	-0.645935	0.000093
C22	C	0.205345	-0.608850	0.000101
C23	C	0.072412	-0.665092	0.000104
C24	C	0.075321	-0.758411	0.000096
C25	C	0.066357	-0.470584	0.000118
C26	C	0.063446	-0.377259	0.000124
C27	C	0.332214	-0.358108	0.000115
C28	C	0.335123	-0.451427	0.000107
C29	C	0.202189	-0.507663	0.000108
N30	N	0.203775	-1.058283	-0.235252
C31	C	0.103597	-1.118255	0.287510
C32	C	0.103596	-1.118260	0.391613
C33	C	0.203751	-1.058254	0.443667
C34	C	0.303904	-0.998232	0.391612
C35	C	0.303897	-0.998223	0.287511
C36	C	0.303914	-0.998257	0.608592
C37	C	0.303924	-0.998267	0.712701
C38	C	0.103613	-1.118294	0.712694
C39	C	0.103606	-1.118285	0.608593
C40	C	0.203761	-1.058264	0.556546
H41	H	0.449418	-0.600152	0.000092
O42	O	0.401245	-0.939851	0.442020
C43	C	0.489658	-0.886890	0.373755
H44	H	0.429163	-0.885389	0.299553
H45	H	0.599340	-0.916810	0.362669
C46	C	0.594094	-0.792493	0.505529
C47	C	0.519787	-0.790643	0.414396
H48	H	0.612686	-0.733125	0.530599
H49	H	0.534534	-0.828176	0.551522
H50	H	0.685488	-0.817431	0.496279
H51	H	0.428389	-0.765717	0.423649
H52	H	0.579334	-0.754954	0.368405
O53	O	0.401045	-0.939845	0.763229
C54	C	0.376810	-0.851113	0.737794
H55	H	0.258690	-0.849736	0.709175
H56	H	0.458515	-0.825479	0.677376
C57	C	0.544603	-0.792366	0.865436
C58	C	0.399522	-0.790673	0.830294
H59	H	0.558619	-0.755082	0.922492
H60	H	0.560936	-0.852146	0.882571
H61	H	0.612674	-0.771006	0.815079
H62	H	0.331455	-0.812044	0.880646
H63	H	0.383178	-0.730895	0.813170
H64	H	-0.032919	-0.804197	0.000096
H65	H	0.022046	-1.167122	0.245134
O66	O	0.401246	-0.940049	0.236839
C67	C	0.492417	-0.988676	0.176624
H68	H	0.433850	-1.058191	0.161023
H69	H	0.601476	-0.995635	0.216731
C70	C	0.595732	-0.853113	0.096903
C71	C	0.523793	-0.938490	0.077736
H72	H	0.615093	-0.822155	0.035906
H73	H	0.534314	-0.820351	0.137474
H74	H	0.686607	-0.858924	0.130328
H75	H	0.432913	-0.932678	0.044323
H76	H	0.585198	-0.971250	0.037157
H77	H	0.022047	-1.167129	0.433990
H78	H	0.022060	-1.167151	0.566211
O79	O	0.467197	-0.487306	0.000141
C80	C	0.583905	-0.417662	0.000118
H81	H	0.542444	-0.353948	0.031435
H82	H	0.624921	-0.404792	-0.079225
C83	C	0.762916	-0.523299	0.026506
C84	C	0.711996	-0.445045	0.064978
H85	H	0.841932	-0.540190	0.066510
H86	H	0.684290	-0.570219	0.026518
H87	H	0.797086	-0.512563	-0.039613
H88	H	0.677810	-0.455785	0.131090
H89	H	0.790620	-0.398126	0.064979
H90	H	0.454697	-0.769442	0.000071
H91	H	0.440454	-0.312316	0.000118
H92	H	-0.038186	-0.634890	0.000125
O93	O	-0.068459	-0.341186	-0.000034
C94	C	-0.078170	-0.287758	-0.085669
H95	H	-0.001054	-0.310452	-0.145549
H96	H	-0.044250	-0.214462	-0.066303
C97	C	-0.333485	-0.269879	-0.050940
C98	C	-0.238779	-0.297757	-0.124489
H99	H	-0.432556	-0.276043	-0.074884
H100	H	-0.326942	-0.305872	0.006757
H101	H	-0.305200	-0.208801	-0.034808
H102	H	-0.267053	-0.358836	-0.140610
H103	H	-0.245330	-0.261774	-0.182189
H104	H	-0.041893	-0.516370	0.000120
H105	H	0.022064	-1.167165	0.755078
H106	H	0.385467	-0.949378	0.566219
