data_functionalizedCrystal
_audit_creation_method	'MofGen! by Chris Wilmer'
_symmetry_space_group_name_H-M	'P1'
_symmetry_Int_Tables_number	1
_symmetry_cell_setting	triclinic
loop_
_symmetry_equiv_pos_as_xyz
  x,y,z
_cell_length_a	19.077105
_cell_length_b	12.759399
_cell_length_c	19.077482
_cell_angle_alpha	87.809393
_cell_angle_beta	94.581225
_cell_angle_gamma	87.711582
loop_
_atom_site_label
_atom_site_type_symbol
_atom_site_fract_x
_atom_site_fract_y
_atom_site_fract_z
Zn1	Zn	-1.094238	0.509540	-0.441866
Zn2	Zn	-1.089315	0.678129	-0.323982
Zn3	Zn	-0.971490	0.495115	-0.319262
Zn4	Zn	-0.976331	0.677819	-0.437102
O5	O	-1.032844	0.590151	-0.380553
O6	O	-1.192240	0.538070	-0.430198
O7	O	-1.069599	0.647945	-0.224705
O8	O	-0.987807	0.350010	-0.335544
O9	O	-1.188624	0.661932	-0.343590
O10	O	-1.077990	0.360608	-0.425621
O11	O	-0.983033	0.513485	-0.221236
O12	O	-0.873477	0.513184	-0.330924
O13	O	-0.996058	0.661404	-0.536385
O14	O	-0.877034	0.647417	-0.417500
O15	O	-1.082684	0.537770	-0.539885
O16	O	-1.074294	0.825106	-0.338970
O17	O	-0.991284	0.824878	-0.422078
C18	C	-0.849675	0.578702	-0.373183
C19	C	-0.771316	0.573831	-0.370047
C20	C	-1.032800	0.863115	-0.380535
C21	C	-1.032847	0.979895	-0.380554
C22	C	-1.216727	0.601645	-0.387952
C23	C	-1.295088	0.606543	-0.391105
C24	C	-0.736369	0.641527	-0.413579
C25	C	-0.662742	0.636936	-0.410635
C26	C	-0.624063	0.564653	-0.364156
C27	C	-0.659014	0.496950	-0.320623
C28	C	-0.732640	0.501537	-0.323570
C29	C	-0.403665	0.543426	-0.350519
C30	C	-0.330034	0.538847	-0.347573
C31	C	-0.333767	0.678832	-0.437587
C32	C	-0.407394	0.683416	-0.440527
C33	C	-0.442339	0.615710	-0.396997
N34	N	-0.548804	0.559961	-0.361145
N35	N	-0.517597	0.620397	-0.400012
C36	C	-1.040460	0.601161	-0.564430
C37	C	-1.043706	0.605853	-0.642787
C38	C	-1.032908	0.316123	-0.380587
C39	C	-1.032935	0.199349	-0.380601
C40	C	-1.076123	1.034847	-0.337333
C41	C	-1.076169	1.144575	-0.337358
C42	C	-0.989657	1.144390	-0.423828
C43	C	-0.989615	1.034664	-0.423805
C44	C	-1.025297	0.579110	-0.197393
C45	C	-1.022188	0.574130	-0.119042
C46	C	-1.066120	0.641324	-0.084016
C47	C	-1.063188	0.636651	-0.010396
C48	C	-1.016328	0.564779	0.028196
C49	C	-0.972392	0.497583	-0.006835
C50	C	-0.975321	0.502261	-0.080453
C51	C	-1.002698	0.543335	0.248563
C52	C	-0.999775	0.538660	0.322187
C53	C	-1.090570	0.677730	0.318621
C54	C	-1.093497	0.682398	0.245001
C55	C	-1.049559	0.615206	0.209976
N56	N	-1.013332	0.559999	0.103448
N57	N	-1.052552	0.619992	0.134727
H58	H	-0.634293	0.692062	-0.446083
O59	O	-1.105940	0.701958	0.023517
C60	C	-1.147921	0.766406	-0.026332
H61	H	-1.152245	0.726827	-0.078981
H62	H	-1.122788	0.845379	-0.032950
C63	C	-1.216574	0.832203	0.063943
C64	C	-1.221891	0.783587	-0.000721
H65	H	-1.262201	0.842805	0.079741
H66	H	-1.188289	0.788786	0.097527
H67	H	-1.195628	0.898008	0.058419
H68	H	-1.242828	0.717777	0.004806
H69	H	-1.250180	0.826993	-0.034304
H70	H	-0.627515	0.438092	-0.282782
H71	H	-1.126342	0.732436	0.347146
O72	O	-0.954183	0.468818	0.359571
C73	C	-0.916039	0.410501	0.312871
H74	H	-0.915884	0.456745	0.260563
H75	H	-0.941793	0.332522	0.303834
C76	C	-0.839980	0.332871	0.408973
C77	C	-0.839785	0.389672	0.344729
H78	H	-0.792944	0.320018	0.428624
H79	H	-0.865680	0.372157	0.440436
H80	H	-0.861445	0.267895	0.401433
H81	H	-0.818329	0.454652	0.352271
H82	H	-0.814080	0.350396	0.313268
O83	O	-0.959938	0.478216	0.214526
C84	C	-0.916377	0.538398	0.173943
H85	H	-0.911535	0.619526	0.196442
H86	H	-0.940396	0.546679	0.117236
C87	C	-0.848834	0.383715	0.148191
C88	C	-0.842882	0.483355	0.175827
H89	H	-0.803500	0.349761	0.149350
H90	H	-0.878183	0.343168	0.175529
H91	H	-0.868853	0.390630	0.100937
H92	H	-0.822872	0.476438	0.223083
H93	H	-0.813528	0.523899	0.148496
H94	H	-1.111410	1.189312	-0.302164
O95	O	-0.947507	0.981436	-0.465813
C96	C	-0.909368	1.053304	-0.504001
H97	H	-0.905779	1.129663	-0.475044
H98	H	-0.937367	1.069722	-0.558601
C99	C	-0.839139	0.912695	-0.546642
C100	C	-0.834726	1.006478	-0.511073
H101	H	-0.793098	0.883810	-0.551008
H102	H	-0.864836	0.864275	-0.520917
H103	H	-0.862475	0.926389	-0.592139
H104	H	-0.811399	0.992780	-0.465575
H105	H	-0.809023	1.054894	-0.536792
H106	H	-0.761092	0.446406	-0.288126
H107	H	-0.438883	0.742279	-0.478374
H108	H	-0.432108	0.488302	-0.315068
O109	O	-0.926906	0.427628	0.030571
C110	C	-0.942559	0.324840	0.011778
H111	H	-0.971779	0.327462	-0.042812
H112	H	-0.976994	0.288687	0.051636
C113	C	-0.837781	0.254631	0.078199
C114	C	-0.873665	0.257852	0.011147
H115	H	-0.795285	0.213308	0.077812
H116	H	-0.827237	0.323881	0.090862
H117	H	-0.866484	0.224507	0.111406
H118	H	-0.844965	0.287988	-0.022057
H119	H	-0.884203	0.188605	-0.001522
H120	H	-0.939548	0.447544	-0.108970
H121	H	-0.298543	0.479974	-0.309729
O122	O	-1.118185	0.981809	-0.295303
C123	C	-1.156379	1.053845	-0.257148
H124	H	-1.160023	1.133918	-0.286141
H125	H	-1.128390	1.060770	-0.202552
C126	C	-1.226508	0.916667	-0.214447
C127	C	-1.230989	1.015012	-0.250059
H128	H	-1.272530	0.892712	-0.210071
H129	H	-1.200775	0.868134	-0.240151
H130	H	-1.203181	0.922451	-0.168955
H131	H	-1.254308	1.009224	-0.295554
H132	H	-1.256728	1.063543	-0.224363
H133	H	-0.767857	0.700390	-0.451425
O134	O	-0.299712	0.744485	-0.479847
C135	C	-0.226433	0.724959	-0.467270
H136	H	-0.215429	0.641825	-0.443872
H137	H	-0.203965	0.783638	-0.428822
C138	C	-0.205118	0.838773	-0.565815
C139	C	-0.191603	0.736663	-0.537082
H140	H	-0.183632	0.845997	-0.608877
H141	H	-0.254487	0.851932	-0.574288
H142	H	-0.186394	0.887661	-0.533768
H143	H	-0.210334	0.687778	-0.569125
H144	H	-0.142236	0.723496	-0.528617
O145	O	-1.139033	0.752313	0.207623
C146	C	-1.177193	0.810602	0.254325
H147	H	-1.146245	0.809412	0.308019
H148	H	-1.230251	0.774399	0.259848
C149	C	-1.227017	0.926251	0.159399
C150	C	-1.189004	0.924796	0.225345
H151	H	-1.234307	0.996690	0.141522
H152	H	-1.201311	0.886978	0.127934
H153	H	-1.271228	0.896076	0.164010
H154	H	-1.144791	0.954958	0.220732
H155	H	-1.214704	0.964076	0.256809
H156	H	-0.954458	1.188996	-0.459040
H157	H	-1.104281	0.699845	-0.115432
