data_functionalizedCrystal
_audit_creation_method	'MofGen! by Chris Wilmer'
_symmetry_space_group_name_H-M	'P1'
_symmetry_Int_Tables_number	1
_symmetry_cell_setting	triclinic
loop_
_symmetry_equiv_pos_as_xyz
  x,y,z
_cell_length_a	16.992697
_cell_length_b	16.992700
_cell_length_c	16.053802
_cell_angle_alpha	92.734161
_cell_angle_beta	92.750118
_cell_angle_gamma	89.332188
loop_
_atom_site_label
_atom_site_type_symbol
_atom_site_fract_x
_atom_site_fract_y
_atom_site_fract_z
O1	O	-1.053958	0.163817	-0.069330
O2	O	-0.825559	0.161984	-0.069357
O3	O	-0.938843	0.048701	-0.069322
O4	O	-0.940674	0.277099	-0.069365
O5	O	-0.932606	0.054909	0.069535
O6	O	-0.819322	0.168192	0.069500
O7	O	-1.047721	0.170025	0.069527
Zn8	Zn	-0.932531	0.170094	0.091560
Zn9	Zn	-0.940749	0.161915	-0.091390
O10	O	-0.934437	0.283307	0.069492
C11	C	-0.793080	0.162732	0.000068
C12	C	-0.705596	0.155703	0.000058
C13	C	-0.659605	0.223520	0.000046
C14	C	-0.577404	0.216911	0.000057
C15	C	-0.541196	0.142484	0.000075
C16	C	-0.587193	0.074662	0.000090
C17	C	-0.669392	0.081272	0.000085
C18	C	-0.295881	0.115091	0.000099
C19	C	-0.213675	0.108486	0.000102
C20	C	-0.203892	0.250736	0.000070
C21	C	-0.286094	0.257339	0.000059
C22	C	-0.332084	0.189517	0.000079
N23	N	-0.457173	0.135728	0.000084
N24	N	-0.416104	0.196274	0.000076
C25	C	-0.933369	0.022445	0.000109
C26	C	-0.926340	-0.065039	0.000120
C27	C	-0.879122	-0.556961	0.000038
C28	C	-0.885731	-0.474760	0.000047
C29	C	-0.960158	-0.438552	0.000067
C30	C	-1.027981	-0.484550	0.000070
C31	C	-1.021371	-0.566750	0.000055
C32	C	-0.987553	-0.193236	0.000108
C33	C	-0.994158	-0.111030	0.000125
C34	C	-0.851907	-0.101246	0.000100
C35	C	-0.845304	-0.183448	0.000090
C36	C	-0.913127	-0.229439	0.000089
N37	N	-0.966916	-0.354529	0.000079
N38	N	-0.906369	-0.313460	0.000071
C39	C	-0.080199	0.169276	0.000096
C40	C	-0.167684	0.176303	0.000089
C41	C	-0.939911	0.309563	0.000059
C42	C	-0.946940	0.397047	0.000043
N43	N	-0.926928	0.175676	0.216419
N44	N	-0.946357	0.156327	-0.216249
C45	C	-0.975151	0.127494	0.260127
C46	C	-0.971239	0.131406	0.347533
C47	C	-0.919109	0.183506	0.391228
C48	C	-0.870881	0.231690	0.347513
C49	C	-0.874789	0.227773	0.260109
C50	C	-0.902037	0.200594	0.652632
C51	C	-0.898135	0.204509	0.740043
C52	C	-0.998492	0.104224	0.740056
C53	C	-1.002399	0.100315	0.652651
C54	C	-0.954168	0.148496	0.608943
N55	N	-0.915112	0.187508	0.480571
N56	N	-0.958162	0.144489	0.519602
H57	H	-0.315569	0.317944	0.000035
F58	F	-1.059737	-0.242173	0.000113
F59	F	-0.344816	0.042907	0.000119
F60	F	-1.093552	-0.615697	0.000057
F61	F	-0.766089	-0.221977	0.000066
F62	F	-0.799906	-0.595489	0.000022
F63	F	-1.022562	0.080124	0.394051
H64	H	-0.557705	0.014063	0.000117
H65	H	-0.166439	0.305952	0.000056
F66	F	-0.850710	0.251874	0.606123
F67	F	-0.813551	-0.425816	0.000034
F68	F	-0.815396	0.287135	0.394017
H69	H	-0.706837	0.026047	0.000094
H70	H	-1.088581	-0.455063	0.000088
F71	F	-0.175141	0.029268	0.000135
F72	F	-0.779731	-0.052294	0.000098
H73	H	-1.054768	-0.081553	0.000142
H74	H	-1.017604	0.085072	0.224557
H75	H	-0.835520	0.267007	0.224522
F76	F	-0.842648	0.259966	0.786541
F77	F	-0.698134	0.302736	0.000021
F78	F	-0.528461	0.289092	0.000040
F79	F	-1.057882	0.044866	0.606148
H80	H	-1.037758	0.064996	0.775651
