data_functionalizedCrystal
_audit_creation_method	'MofGen! by Chris Wilmer'
_symmetry_space_group_name_H-M	'P1'
_symmetry_Int_Tables_number	1
_symmetry_cell_setting	triclinic
loop_
_symmetry_equiv_pos_as_xyz
  x,y,z
_cell_length_a	14.971482
_cell_length_b	14.971486
_cell_length_c	9.730223
_cell_angle_alpha	89.995390
_cell_angle_beta	89.997266
_cell_angle_gamma	83.613368
loop_
_atom_site_label
_atom_site_type_symbol
_atom_site_fract_x
_atom_site_fract_y
_atom_site_fract_z
O1	O	1.186945	0.116547	-0.114273
O2	O	1.686945	0.616547	0.385727
O3	O	0.926545	0.130509	-0.114280
O4	O	1.426545	0.630509	0.385720
O5	O	1.063724	-0.006672	-0.114266
O6	O	1.563724	0.493328	0.385734
O7	O	1.049765	0.253728	-0.114286
O8	O	1.549765	0.753728	0.385714
O9	O	1.063716	-0.006676	0.114314
O10	O	1.563716	0.493324	0.614314
O11	O	0.926536	0.130505	0.114300
O12	O	1.426536	0.630505	0.614300
O13	O	1.186936	0.116543	0.114307
O14	O	1.686936	0.616543	0.614307
Zn15	Zn	1.056735	0.123523	0.150596
Zn16	Zn	1.556735	0.623523	0.650596
Zn17	Zn	1.056746	0.123528	-0.150568
Zn18	Zn	1.556746	0.623528	0.349432
O19	O	1.049757	0.253724	0.114294
O20	O	1.549757	0.753724	0.614294
C21	C	0.893215	0.129883	0.000010
C22	C	1.393215	0.629883	0.500010
C23	C	0.793918	0.128014	0.000007
C24	C	1.293918	0.628014	0.500007
C25	C	1.063096	-0.039999	0.000023
C26	C	1.563096	0.460001	0.500023
C27	C	1.061225	-0.139296	0.000022
C28	C	1.561225	0.360704	0.500022
C29	C	0.747269	0.127131	0.124608
C30	C	1.247269	0.627131	0.624608
C31	C	0.653970	0.125360	0.124609
C32	C	1.153970	0.625360	0.624609
C33	C	0.607322	0.124479	0.000009
C34	C	1.107322	0.624479	0.500009
C35	C	0.653978	0.125358	-0.124601
C36	C	1.153978	0.625358	0.375399
C37	C	0.747276	0.127123	-0.124601
C38	C	1.247276	0.627123	0.375399
C39	C	0.459517	0.121683	-0.124592
C40	C	0.959517	0.621683	0.375408
C41	C	0.366212	0.119920	-0.124592
C42	C	0.866212	0.619920	0.375408
C43	C	0.366211	0.119921	0.124619
C44	C	0.866211	0.619921	0.624619
C45	C	0.459508	0.121685	0.124619
C46	C	0.959508	0.621685	0.624619
C47	C	0.506158	0.122567	0.000008
C48	C	1.006158	0.622567	0.500008
C49	C	1.141814	-0.196522	0.000025
C50	C	1.641814	0.303478	0.500025
C51	C	1.140051	-0.289822	0.000011
C52	C	1.640051	0.210178	0.500011
C53	C	1.057698	-0.325893	0.000004
C54	C	1.557698	0.174107	0.500004
C55	C	0.977102	-0.268659	-0.000003
C56	C	1.477102	0.231341	0.499997
C57	C	0.978866	-0.175362	0.000001
C58	C	1.478866	0.324638	0.500001
C59	C	0.973431	-0.463122	-0.000008
C60	C	1.473431	0.036878	0.499992
C61	C	0.971667	-0.556426	-0.000010
C62	C	1.471667	-0.056426	0.499990
C63	C	1.134616	-0.577582	0.000002
C64	C	1.634616	-0.077582	0.500002
C65	C	1.136380	-0.484284	0.000006
C66	C	1.636380	0.015716	0.500006
C67	C	1.055784	-0.427057	0.000002
C68	C	1.555784	0.072943	0.500002
C69	C	1.220266	0.117168	0.000015
C70	C	1.720266	0.617168	0.500015
C71	C	1.319563	0.119038	0.000008
C72	C	1.819563	0.619038	0.500008
C73	C	1.050385	0.287051	0.000001
C74	C	1.550385	0.787051	0.500001
C75	C	1.052256	0.386348	-0.000007
C76	C	1.552256	0.886348	0.499993
N77	N	1.056733	0.123520	0.356132
N78	N	1.556733	0.623520	0.856132
N79	N	1.056755	0.123525	-0.356105
N80	N	1.556755	0.623525	0.143895
C81	C	1.117497	0.062801	0.428064
C82	C	1.617497	0.562801	0.928064
C83	C	1.117506	0.062801	0.571947
C84	C	1.617506	0.562801	1.071947
C85	C	0.995985	0.184246	0.571954
C86	C	1.495985	0.684246	1.071954
C87	C	0.995972	0.184241	0.428073
C88	C	1.495972	0.684241	0.928073
H89	H	0.785242	0.127857	0.226072
H90	H	1.285242	0.627857	0.726072
H91	H	1.166971	0.013357	0.369493
H92	H	1.666971	0.513357	0.869493
H93	H	0.615991	0.124634	-0.226053
H94	H	1.115991	0.624634	0.273947
H95	H	0.946487	0.233686	0.369502
H96	H	1.446487	0.733686	0.869502
H97	H	1.166984	0.013358	0.630510
H98	H	1.666984	0.513358	1.130510
H99	H	0.946515	0.233686	0.630542
H100	H	1.446515	0.733686	1.130542
H101	H	0.615994	0.124627	0.226072
H102	H	1.115994	0.624627	0.726072
F103	F	0.509152	0.122633	0.257232
F104	F	1.009152	0.622633	0.757232
H105	H	0.328224	0.119203	0.226081
H106	H	0.828224	0.619203	0.726081
H107	H	0.785257	0.127843	-0.226064
H108	H	1.285257	0.627843	0.273936
H109	H	0.497496	0.122401	-0.226063
H110	H	0.997496	0.622401	0.273937
F111	F	0.316568	0.118980	-0.257206
F112	F	0.816568	0.618980	0.242794
F113	F	0.893092	-0.114457	-0.000006
F114	F	1.393092	0.385543	0.499994
F115	F	0.887651	-0.402218	-0.000016
F116	F	1.387651	0.097782	0.499984
H117	H	0.910049	-0.298036	-0.000017
H118	H	1.410049	0.201964	0.499983
H119	H	0.904607	-0.585792	0.000007
H120	H	1.404607	-0.085792	0.500007
H121	H	1.208876	-0.167161	0.000039
H122	H	1.708876	0.332839	0.500039
F123	F	1.225826	-0.350723	0.000017
F124	F	1.725826	0.149277	0.500017
H125	H	1.203439	-0.454919	0.000022
H126	H	1.703439	0.045081	0.500022
F127	F	1.220393	-0.638488	0.000001
F128	F	1.720393	-0.138488	0.500001
