data_functionalizedCrystal
_audit_creation_method	'MofGen! by Chris Wilmer'
_symmetry_space_group_name_H-M	'P1'
_symmetry_Int_Tables_number	1
_symmetry_cell_setting	triclinic
loop_
_symmetry_equiv_pos_as_xyz
  x,y,z
_cell_length_a	16.109301
_cell_length_b	16.109301
_cell_length_c	14.586319
_cell_angle_alpha	90.000846
_cell_angle_beta	90.000787
_cell_angle_gamma	96.538519
loop_
_atom_site_label
_atom_site_type_symbol
_atom_site_fract_x
_atom_site_fract_y
_atom_site_fract_z
O1	O	-1.103131	0.106866	-0.076173
O2	O	-0.769797	0.440199	0.257161
O3	O	-0.436464	0.773533	0.590494
O4	O	-0.861069	0.120165	-0.076186
O5	O	-0.527735	0.453499	0.257147
O6	O	-0.194402	0.786832	0.590480
O7	O	-0.988749	-0.007515	-0.076184
O8	O	-0.655416	0.325818	0.257149
O9	O	-0.322083	0.659151	0.590483
O10	O	-0.975450	0.234547	-0.076175
O11	O	-0.642117	0.567880	0.257158
O12	O	-0.308783	0.901213	0.590492
O13	O	-0.988741	-0.007517	0.076297
O14	O	-0.655407	0.325816	0.409630
O15	O	-0.322074	0.659150	0.742964
O16	O	-0.861060	0.120164	0.076295
O17	O	-0.527727	0.453497	0.409628
O18	O	-0.194393	0.786830	0.742961
O19	O	-1.103122	0.106864	0.076308
O20	O	-0.769789	0.440198	0.409641
O21	O	-0.436455	0.773531	0.742975
Cu22	Cu	-0.982090	0.113514	0.090224
Cu23	Cu	-0.648757	0.446847	0.423557
Cu24	Cu	-0.315423	0.780180	0.756891
Cu25	Cu	-0.982101	0.113516	-0.090102
Cu26	Cu	-0.648767	0.446849	0.243231
Cu27	Cu	-0.315434	0.780183	0.576564
O28	O	-0.975441	0.234545	0.076306
O29	O	-0.642108	0.567878	0.409639
O30	O	-0.308775	0.901212	0.742972
C31	C	-0.830090	0.119626	0.000052
C32	C	-0.496756	0.452959	0.333386
C33	C	-0.163423	0.786292	0.666719
C34	C	-0.737794	0.118011	0.000047
C35	C	-0.404461	0.451344	0.333380
C36	C	-0.071128	0.784677	0.666713
C37	C	-0.988206	-0.038491	0.000053
C38	C	-0.654873	0.294842	0.333387
C39	C	-0.321540	0.628176	0.666720
C40	C	-0.986591	-0.130786	0.000044
C41	C	-0.653258	0.202547	0.333377
C42	C	-0.319925	0.535880	0.666710
N43	N	-0.982089	0.113512	0.217056
N44	N	-0.648755	0.446845	0.550389
N45	N	-0.315422	0.780178	0.883722
C46	C	-1.134101	0.107404	0.000067
C47	C	-0.800768	0.440737	0.333401
C48	C	-0.467435	0.774071	0.666734
C49	C	-1.226397	0.109019	0.000067
C50	C	-0.893063	0.442352	0.333400
C51	C	-0.559730	0.775686	0.666734
C52	C	-0.515522	0.190018	0.000060
C53	C	-0.182188	0.523352	0.333393
C54	C	0.151145	0.856685	0.666727
C55	C	-0.428801	0.188494	0.000066
C56	C	-0.095468	0.521828	0.333399
C57	C	0.237865	0.855161	0.666732
C58	C	-0.448676	0.037006	0.000057
C59	C	-0.115342	0.370339	0.333390
C60	C	0.217991	0.703672	0.666723
C61	C	-0.535394	0.038530	0.000057
C62	C	-0.202061	0.371864	0.333391
C63	C	0.131272	0.705197	0.666724
C64	C	-0.568815	0.115039	0.000054
C65	C	-0.235482	0.448373	0.333388
C66	C	0.097852	0.781706	0.666721
C67	C	-0.395376	0.111990	0.000059
C68	C	-0.062042	0.445324	0.333393
C69	C	0.271291	0.778657	0.666726
C70	C	-0.301350	0.110337	0.000066
C71	C	0.031984	0.443671	0.333399
C72	C	0.365317	0.777004	0.666732
C73	C	-0.662847	0.116693	0.000050
C74	C	-0.329514	0.450026	0.333383
C75	C	0.003820	0.783359	0.666716
C76	C	-0.975984	0.265521	0.000066
C77	C	-0.642651	0.598854	0.333400
C78	C	-0.309318	0.932187	0.666733
C79	C	-0.977600	0.357816	0.000070
C80	C	-0.644266	0.691149	0.333403
C81	C	-0.310933	1.024483	0.666737
C82	C	-0.905592	0.580088	0.000053
C83	C	-0.572259	0.913422	0.333386
C84	C	-0.238925	1.246755	0.666719
C85	C	-0.907116	0.666809	0.000046
C86	C	-0.573783	1.000142	0.333379
C87	C	-0.240449	1.333475	0.666713
C88	C	-1.058605	0.646934	0.000058
C89	C	-0.725271	0.980268	0.333392
C90	C	-0.391938	1.313601	0.666725
C91	C	-1.057080	0.560216	0.000059
C92	C	-0.723746	0.893549	0.333392
C93	C	-0.390413	1.226882	0.666725
C94	C	-0.980571	0.526795	0.000060
C95	C	-0.647238	0.860129	0.333394
C96	C	-0.313904	1.193462	0.666727
C97	C	-0.983620	0.700234	0.000053
C98	C	-0.650287	1.033568	0.333387
C99	C	-0.316953	1.366901	0.666720
C100	C	-0.985273	0.794260	0.000046
C101	C	-0.651940	1.127594	0.333379
C102	C	-0.318606	1.460927	0.666713
C103	C	-0.978917	0.432763	0.000066
C104	C	-0.645584	0.766097	0.333399
C105	C	-0.312251	1.099430	0.666733
N106	N	-0.982109	0.113511	-0.216934
N107	N	-0.648775	0.446845	0.116399
N108	N	-0.315442	0.780178	0.449733
C109	C	-1.038644	0.056994	0.452063
C110	C	-0.705311	0.390327	0.785397
C111	C	-0.371978	0.723660	1.118730
C112	C	-1.038647	0.056992	0.548044
C113	C	-0.705314	0.390325	0.881378
C114	C	-0.371980	0.723658	1.214711
C115	C	-0.925547	0.170032	0.548052
C116	C	-0.592213	0.503366	0.881385
C117	C	-0.258880	0.836699	1.214719
C118	C	-0.925541	0.170030	0.452072
C119	C	-0.592208	0.503363	0.785406
C120	C	-0.258874	0.836696	1.118739
C121	C	-0.982095	0.113511	0.404081
C122	C	-0.648761	0.446845	0.737414
C123	C	-0.315428	0.780178	1.070747
C124	C	-0.982103	0.113512	0.596041
C125	C	-0.648769	0.446845	0.929375
C126	C	-0.315436	0.780178	1.262708
C127	C	-0.982105	0.113510	0.700108
C128	C	-0.648772	0.446843	1.033442
C129	C	-0.315438	0.780177	1.366775
C130	C	-0.982092	0.113512	0.300007
C131	C	-0.648758	0.446845	0.633340
C132	C	-0.315425	0.780178	0.966673
H133	H	-0.385413	0.249550	0.000072
H134	H	-0.052080	0.582883	0.333406
H135	H	0.281254	0.916217	0.666739
H136	H	-0.542730	0.252317	0.000065
H137	H	-0.209396	0.585650	0.333398
H138	H	0.123937	0.918983	0.666731
O139	O	-0.416071	-0.037239	0.000011
O140	O	-0.082737	0.296095	0.333345
O141	O	0.250596	0.629428	0.666678
C142	C	-0.328102	-0.022509	0.000032
C143	C	0.005231	0.310824	0.333366
C144	C	0.338564	0.644158	0.666699
H145	H	-0.307719	0.042379	-0.028831
H146	H	0.025614	0.375712	0.304503
H147	H	0.358948	0.709046	0.637836
H148	H	-0.301493	-0.071460	-0.044242
H149	H	0.031841	0.261874	0.289091
H150	H	0.365174	0.595207	0.622425
H151	H	-0.303962	-0.026536	0.073184
H152	H	0.029371	0.306797	0.406517
H153	H	0.362705	0.640131	0.739851
O154	O	-1.132849	0.679539	0.000106
O155	O	-0.799516	1.012873	0.333439
O156	O	-0.466182	1.346206	0.666772
C157	C	-1.118119	0.767508	0.000084
C158	C	-0.784786	1.100841	0.333417
C159	C	-0.451452	1.434174	0.666750
H160	H	-1.053229	0.787892	0.028944
H161	H	-0.719896	1.121225	0.362278
H162	H	-0.386563	1.454559	0.695611
H163	H	-1.167067	0.794119	0.044360
H164	H	-0.833734	1.127452	0.377693
H165	H	-0.500400	1.460786	0.711027
H166	H	-1.122151	0.791646	-0.073068
H167	H	-0.788817	1.124979	0.260266
H168	H	-0.455484	1.458312	0.593599
H169	H	-0.843293	0.552881	0.000057
H170	H	-0.509960	0.886214	0.333391
H171	H	-0.176627	1.219547	0.666724
H172	H	-0.578788	-0.022530	0.000055
H173	H	-0.245455	0.310803	0.333389
H174	H	0.087878	0.644136	0.666722
H175	H	-0.846060	0.710197	0.000038
H176	H	-0.512727	1.043531	0.333372
H177	H	-0.179394	1.376864	0.666705
H178	H	-1.118140	0.516822	0.000061
H179	H	-0.784807	0.850155	0.333395
H180	H	-0.451474	1.183488	0.666728
H181	H	-1.084693	0.010972	0.412990
H182	H	-0.751359	0.344305	0.746324
H183	H	-0.418026	0.677638	1.079657
O184	O	-0.870650	0.225048	0.594570
O185	O	-0.537316	0.558382	0.927903
O186	O	-0.203983	0.891715	1.261236
C187	C	-0.884150	0.307355	0.571128
C188	C	-0.550817	0.640689	0.904461
C189	C	-0.217483	0.974022	1.237795
H190	H	-0.916194	0.307259	0.501439
H191	H	-0.582861	0.640592	0.834772
H192	H	-0.249528	0.973926	1.168106
H193	H	-0.821645	0.348280	0.567845
H194	H	-0.488312	0.681613	0.901179
H195	H	-0.154979	1.014947	1.234512
H196	H	-0.925525	0.333083	0.625143
H197	H	-0.592192	0.666416	0.958476
H198	H	-0.258859	0.999749	1.291810
H199	H	-1.084694	0.010969	0.587109
H200	H	-0.751361	0.344302	0.920443
H201	H	-0.418027	0.677635	1.253776
H202	H	-0.879487	0.216053	0.413002
H203	H	-0.546154	0.549387	0.746336
H204	H	-0.212821	0.882720	1.079669
