data_functionalizedCrystal
_audit_creation_method	'MofGen! by Chris Wilmer'
_symmetry_space_group_name_H-M	'P1'
_symmetry_Int_Tables_number	1
_symmetry_cell_setting	triclinic
loop_
_symmetry_equiv_pos_as_xyz
  x,y,z
_cell_length_a	15.944564
_cell_length_b	22.010155
_cell_length_c	15.944551
_cell_angle_alpha	90.003301
_cell_angle_beta	83.501336
_cell_angle_gamma	89.996026
loop_
_atom_site_label
_atom_site_type_symbol
_atom_site_fract_x
_atom_site_fract_y
_atom_site_fract_z
O1	O	-1.114524	0.050463	-0.108371
O2	O	-0.869975	0.050478	-0.121716
O3	O	-0.998928	0.050465	0.007231
O4	O	-0.985571	0.050477	-0.237318
O5	O	-0.998904	-0.050585	0.007211
O6	O	-0.869952	-0.050572	-0.121736
O7	O	-1.114500	-0.050587	-0.108391
Cu8	Cu	-0.992224	-0.059806	-0.115065
Cu9	Cu	-0.992252	0.059697	-0.115042
O10	O	-0.985548	-0.050574	-0.237338
C11	C	-0.838670	-0.000045	-0.121170
C12	C	-0.745425	-0.000039	-0.119504
N13	N	-0.992211	-0.143859	-0.115080
C14	C	-0.530569	-0.000055	-0.035589
C15	C	-0.469561	0.049770	-0.074539
C16	C	-0.574700	-0.000047	-0.116488
C17	C	-0.469560	-0.049858	-0.074578
C18	C	-0.409788	-0.000056	-0.113570
C19	C	-0.514920	0.049820	-0.155461
C20	C	-0.514925	-0.049853	-0.155488
C21	C	-0.453935	-0.000016	-0.194497
C22	C	-0.669701	-0.000040	-0.118167
C23	C	-0.314787	-0.000058	-0.111898
C24	C	-1.049355	-0.563644	-0.057952
C25	C	-1.049359	-0.627252	-0.057947
O26	O	-1.097911	-0.660148	-0.009385
N27	N	-0.992251	-0.659066	-0.115024
C28	C	-0.935130	-0.627269	-0.172106
O29	O	-0.886555	-0.660170	-0.220654
C30	C	-0.935123	-0.563663	-0.172107
C31	C	-0.992240	-0.531852	-0.115031
C32	C	-1.106467	-0.531833	-0.000881
C33	C	-1.106464	-0.468230	-0.000888
C34	C	-1.049349	-0.436438	-0.057966
C35	C	-0.992237	-0.468249	-0.115038
C36	C	-0.877998	-0.531867	-0.229184
C37	C	-0.877996	-0.468256	-0.229180
C38	C	-0.935113	-0.436445	-0.172104
C39	C	-0.935119	-0.372853	-0.172124
N40	N	-0.992227	-0.341039	-0.115046
C41	C	-1.049342	-0.372831	-0.057968
C42	C	-0.935149	-0.760847	-0.172098
C43	C	-0.935159	-0.824452	-0.172102
C44	C	-1.049387	-0.824430	-0.057941
C45	C	-1.049380	-0.760824	-0.057942
C46	C	-0.992256	-0.729033	-0.115021
C47	C	-1.049331	-0.239260	-0.057987
C48	C	-1.049326	-0.175651	-0.058002
C49	C	-0.935095	-0.175678	-0.172159
C50	C	-0.935103	-0.239282	-0.172148
C51	C	-0.992225	-0.271071	-0.115055
O52	O	-0.886589	-0.339916	-0.220659
O53	O	-1.097901	-0.339922	-0.009420
C54	C	-0.145807	-0.000063	-0.108925
C55	C	-0.239057	-0.000064	-0.110558
C56	C	-0.998361	-0.000060	0.038515
C57	C	-0.996699	-0.000061	0.131761
N58	N	-0.992272	0.143750	-0.115020
C59	C	-0.986114	-0.000047	-0.268622
C60	C	-0.987777	-0.000043	-0.361868
C61	C	-0.912795	-0.000047	0.346622
C62	C	-0.951746	-0.049873	0.407628
C63	C	-0.993692	-0.000056	0.302487
C64	C	-0.951788	0.049754	0.407630
C65	C	-0.990781	-0.000048	0.467400
C66	C	-1.032665	-0.049923	0.362265
C67	C	-1.032696	0.049749	0.362261
C68	C	-1.071705	-0.000089	0.423249
C69	C	-0.995366	-0.000061	0.207485
C70	C	-0.989113	-0.000048	0.562401
H71	H	-0.563902	0.000003	0.031547
C72	C	-0.409132	0.000025	-0.285280
H73	H	-0.424650	0.035451	-0.313871
H74	H	-0.425350	-0.035030	-0.314236
H75	H	-0.349747	-0.000307	-0.283735
H76	H	-1.138912	-0.000122	0.456405
H77	H	-0.845647	-0.000093	0.313317
C78	C	-1.169284	-0.433246	0.061906
H79	H	-1.203288	-0.461298	0.095903
H80	H	-1.204252	-0.408429	0.031676
H81	H	-1.139060	-0.408438	0.096897
C82	C	-0.905568	0.106659	0.434782
H83	H	-0.943002	0.130121	0.472459
H84	H	-0.886829	0.130276	0.386405
H85	H	-0.858359	0.094682	0.462248
C86	C	-0.815166	-0.566848	-0.291962
H87	H	-0.823342	-0.609285	-0.283799
H88	H	-0.759114	-0.556422	-0.282793
H89	H	-0.824287	-0.556424	-0.348033
C90	C	-0.542119	-0.106754	-0.201681
H91	H	-0.526769	-0.142124	-0.172863
H92	H	-0.514823	-0.107110	-0.257815
H93	H	-0.601551	-0.106141	-0.202845
C94	C	-1.078889	0.106651	0.335065
H95	H	-1.050073	0.142021	0.350416
H96	H	-1.135024	0.107006	0.362358
H97	H	-1.080050	0.106037	0.275632
C98	C	-1.112153	-0.140663	0.004788
H99	H	-1.146161	-0.168710	0.038788
H100	H	-1.147118	-0.115849	-0.025450
H101	H	-1.081932	-0.115851	0.039776
C102	C	-0.442404	0.106673	-0.028314
H103	H	-0.404738	0.130133	-0.065751
H104	H	-0.414944	0.094700	0.018896
H105	H	-0.490788	0.130297	-0.009578
H106	H	-0.534917	0.091989	-0.189644
H107	H	-0.888595	-0.149783	-0.218634
C108	C	-0.815162	-0.433290	-0.291972
H109	H	-0.781155	-0.461349	-0.325964
H110	H	-0.780197	-0.408475	-0.261737
H111	H	-0.845378	-0.408480	-0.326967
H112	H	-0.449464	-0.091979	-0.040354
C113	C	-0.872340	-0.859440	-0.234891
H114	H	-0.880520	-0.901876	-0.226723
H115	H	-0.816284	-0.849017	-0.225733
H116	H	-0.881470	-0.849017	-0.290960
H117	H	-1.095844	-0.265136	-0.011496
C118	C	-1.169303	-0.566795	0.061907
H119	H	-1.203315	-0.538731	0.095887
H120	H	-1.139106	-0.591612	0.096903
H121	H	-1.204276	-0.591601	0.031661
H122	H	-1.095889	-0.734927	-0.011466
C123	C	-1.112205	-0.859410	0.004853
H124	H	-1.104018	-0.901847	-0.003318
H125	H	-1.168264	-0.848987	-0.004299
H126	H	-1.103072	-0.848984	0.060921
H127	H	-1.066842	-0.092094	0.342265
H128	H	-0.888602	-0.265183	-0.218632
C129	C	-0.872320	-0.725882	-0.234900
H130	H	-0.838319	-0.753943	-0.268895
H131	H	-0.837348	-0.701069	-0.204670
H132	H	-0.902538	-0.701071	-0.269892
H133	H	-0.917520	-0.091993	0.427729
