data_functionalizedCrystal
_audit_creation_method	'MofGen! by Chris Wilmer'
_symmetry_space_group_name_H-M	'P1'
_symmetry_Int_Tables_number	1
_symmetry_cell_setting	triclinic
loop_
_symmetry_equiv_pos_as_xyz
  x,y,z
_cell_length_a	8.559649
_cell_length_b	14.044190
_cell_length_c	13.101018
_cell_angle_alpha	93.660631
_cell_angle_beta	87.112224
_cell_angle_gamma	81.485221
loop_
_atom_site_label
_atom_site_type_symbol
_atom_site_fract_x
_atom_site_fract_y
_atom_site_fract_z
O1	O	2.123561	-0.037633	-0.085194
O2	O	1.665265	0.010816	-0.085204
O3	O	1.887526	-0.150890	-0.085179
O4	O	1.901300	0.124074	-0.085219
O5	O	1.871561	-0.139278	0.085249
O6	O	1.649300	0.022429	0.085224
O7	O	2.107595	-0.026020	0.085235
Zn8	Zn	1.875912	0.000048	0.112289
Zn9	Zn	1.896948	-0.015252	-0.112258
O10	O	1.885334	0.135687	0.085209
C11	C	1.598276	0.020294	0.000009
C12	C	1.422455	0.031223	0.000006
C13	C	1.873519	-0.179960	0.000038
C14	C	1.855550	-0.283877	0.000047
C15	C	1.950139	-0.541052	0.000009
C16	C	1.822729	-0.474147	0.000013
C17	C	1.840995	-0.368272	0.000032
C18	C	1.931875	-0.646938	-0.000010
C19	C	2.174584	-0.035498	0.000019
C20	C	2.350406	-0.046427	0.000016
C21	C	1.899341	0.164756	-0.000010
C22	C	1.917311	0.268673	-0.000025
N23	N	1.861568	0.010489	0.265536
N24	N	1.911304	-0.025701	-0.265506
C25	C	1.930812	-0.039909	0.525453
C26	C	1.842065	0.024694	0.474570
C27	C	1.852919	0.016788	0.358253
C28	C	1.919959	-0.032005	0.641781
H29	H	1.423232	-0.121269	0.000021
F30	F	1.662223	-0.503209	0.000006
H31	H	1.349621	0.106069	-0.000011
F32	F	2.110633	-0.511988	0.000025
H33	H	1.757935	0.085939	0.518366
H34	H	2.014938	-0.101149	0.481663
