data_functionalizedCrystal
_audit_creation_method	'MofGen! by Chris Wilmer'
_symmetry_space_group_name_H-M	'P1'
_symmetry_Int_Tables_number	1
_symmetry_cell_setting	triclinic
loop_
_symmetry_equiv_pos_as_xyz
  x,y,z
_cell_length_a	21.395356
_cell_length_b	12.759401
_cell_length_c	12.759399
_cell_angle_alpha	89.983359
_cell_angle_beta	89.976567
_cell_angle_gamma	90.021779
loop_
_atom_site_label
_atom_site_type_symbol
_atom_site_fract_x
_atom_site_fract_y
_atom_site_fract_z
Zn1	Zn	-0.354250	-1.606272	-0.418250
Zn2	Zn	-0.249480	-1.606159	-0.593943
Zn3	Zn	-0.249490	-1.430568	-0.418283
Zn4	Zn	-0.354223	-1.430561	-0.593892
O5	O	-0.301861	-1.518390	-0.506092
O6	O	-0.340359	-1.753278	-0.441564
O7	O	-0.161803	-1.582822	-0.570676
O8	O	-0.263401	-1.453926	-0.271258
O9	O	-0.263385	-1.753195	-0.570644
O10	O	-0.340368	-1.583015	-0.271234
O11	O	-0.161810	-1.453816	-0.441620
O12	O	-0.263376	-1.283546	-0.441571
O13	O	-0.441905	-1.453914	-0.570558
O14	O	-0.340323	-1.283541	-0.570590
O15	O	-0.441924	-1.583008	-0.441515
O16	O	-0.263359	-1.582816	-0.740957
O17	O	-0.340314	-1.453805	-0.740920
C18	C	-0.301848	-1.245423	-0.506079
C19	C	-0.301858	-1.128646	-0.506099
C20	C	-0.301846	-1.518326	-0.779060
C21	C	-0.301861	-1.518394	-0.895836
C22	C	-0.465284	-1.518473	-0.506027
C23	C	-0.534925	-1.518508	-0.505999
C24	C	-0.567632	-1.451353	-0.438792
C25	C	-0.633068	-1.451349	-0.438773
C26	C	-0.665794	-1.518520	-0.505949
C27	C	-0.633079	-1.585680	-0.573170
C28	C	-0.567645	-1.585674	-0.573195
C29	C	-0.769479	-1.613182	-0.514207
C30	C	-0.834912	-1.613190	-0.514174
C31	C	-0.867615	-1.518537	-0.505878
C32	C	-0.834876	-1.423874	-0.497593
C33	C	-0.769442	-1.423868	-0.497618
C34	C	-0.736746	-1.518533	-0.505930
C35	C	-0.971274	-1.451372	-0.438646
C36	C	-1.036711	-1.451367	-0.438634
C37	C	-1.036721	-1.585707	-0.573026
C38	C	-0.971285	-1.585703	-0.573043
C39	C	-0.938566	-1.518537	-0.505848
C40	C	-0.139073	-1.518368	-0.506081
C41	C	-0.069432	-1.518537	-0.505813
C42	C	-0.301874	-1.792423	-0.506106
C43	C	-0.301879	-1.909200	-0.506112
C44	C	-0.341861	-1.073809	-0.573382
C45	C	-0.341874	-0.964085	-0.573386
C46	C	-0.261874	-0.964045	-0.438822
C47	C	-0.261865	-1.073767	-0.438813
C48	C	-0.261837	-1.585647	-0.950682
C49	C	-0.261858	-1.585715	-1.060407
C50	C	-0.341930	-1.451268	-1.060428
C51	C	-0.341911	-1.451206	-0.950706
C52	C	-0.301889	-1.518483	-0.232059
C53	C	-0.301901	-1.518523	-0.115282
H54	H	-0.540996	-1.396657	-0.384080
Cl55	Cl	-0.392274	-1.366804	-1.129415
H56	H	-0.374428	-1.118489	-0.628168
H57	H	-0.944633	-1.396681	-0.383933
Cl58	Cl	-0.674219	-1.670118	-0.657625
Cl59	Cl	-0.930166	-1.670139	-0.657530
Cl60	Cl	-0.392167	-0.895152	-0.657972
Cl61	Cl	-0.211598	-0.895046	-0.354241
Cl62	Cl	-0.211575	-1.142710	-0.354215
Cl63	Cl	-0.392236	-1.366659	-0.881751
H64	H	-0.659703	-1.396665	-0.384039
Cl65	Cl	-0.728288	-1.304868	-0.487209
Cl66	Cl	-0.875981	-1.304873	-0.487157
H67	H	-1.063340	-1.396673	-0.383909
H68	H	-0.229226	-1.640357	-0.906010
Cl69	Cl	-0.211540	-1.670268	-1.129352
Cl70	Cl	-1.077856	-1.670144	-0.657485
H71	H	-0.742857	-1.690267	-0.520953
Cl72	Cl	-0.526525	-1.670107	-0.657689
Cl73	Cl	-0.876061	-1.732192	-0.524602
