data_functionalizedCrystal
_audit_creation_method	'MofGen! by Chris Wilmer'
_symmetry_space_group_name_H-M	'P1'
_symmetry_Int_Tables_number	1
_symmetry_cell_setting	triclinic
loop_
_symmetry_equiv_pos_as_xyz
  x,y,z
_cell_length_a	19.288840
_cell_length_b	10.908878
_cell_length_c	18.366186
_cell_angle_alpha	89.993183
_cell_angle_beta	89.983729
_cell_angle_gamma	71.605404
loop_
_atom_site_label
_atom_site_type_symbol
_atom_site_fract_x
_atom_site_fract_y
_atom_site_fract_z
O1	O	0.903136	0.160148	-0.060667
O2	O	1.403136	0.660148	0.439333
O3	O	0.698408	0.181806	-0.060641
O4	O	1.198408	0.681806	0.439359
O5	O	0.827911	-0.016117	-0.060655
O6	O	1.327911	0.483883	0.439345
O7	O	0.773633	0.358070	-0.060654
O8	O	1.273633	0.858070	0.439346
O9	O	0.827894	-0.016126	0.060444
O10	O	1.327894	0.483874	0.560444
O11	O	0.698391	0.181796	0.060458
O12	O	1.198391	0.681796	0.560458
O13	O	0.903119	0.160138	0.060432
O14	O	1.403119	0.660138	0.560432
Zn15	Zn	0.800752	0.170966	0.079672
Zn16	Zn	1.300752	0.670966	0.579672
Zn17	Zn	0.800775	0.170978	-0.079881
Zn18	Zn	1.300775	0.670978	0.420119
O19	O	0.773616	0.358061	0.060446
O20	O	1.273616	0.858061	0.560446
C21	C	0.672601	0.181110	-0.000089
C22	C	1.172601	0.681110	0.499911
C23	C	0.595733	0.179034	-0.000079
C24	C	1.095733	0.679034	0.499921
C25	C	0.559652	0.178042	-0.066092
C26	C	1.059652	0.678042	0.433908
C27	C	0.487429	0.176077	-0.066101
C28	C	0.987429	0.676077	0.433899
C29	C	0.451294	0.175078	-0.000093
C30	C	0.951294	0.675078	0.499907
C31	C	0.487382	0.176078	0.065929
C32	C	0.987382	0.676078	0.565929
C33	C	0.559602	0.178056	0.065936
C34	C	1.059602	0.678056	0.565936
C35	C	0.350883	0.096675	0.050468
C36	C	0.850883	0.596675	0.550468
C37	C	0.278666	0.094689	0.050458
C38	C	0.778666	0.594689	0.550458
C39	C	0.228544	0.168984	-0.000112
C40	C	0.728544	0.668984	0.499888
C41	C	0.250651	0.245249	-0.050685
C42	C	0.750651	0.745249	0.449315
C43	C	0.322870	0.247226	-0.050678
C44	C	0.822870	0.747226	0.449322
C45	C	0.372984	0.172935	-0.000093
C46	C	0.872984	0.672935	0.499907
C47	C	0.114150	0.165864	-0.066139
C48	C	0.614150	0.665864	0.433861
C49	C	0.041924	0.163907	-0.066145
C50	C	0.541924	0.663907	0.433855
C51	C	0.041881	0.163895	0.065886
C52	C	0.541881	0.663895	0.565886
C53	C	0.114103	0.165864	0.065891
C54	C	0.614103	0.665864	0.565891
C55	C	0.150235	0.166843	-0.000124
C56	C	0.650235	0.666843	0.499876
C57	C	0.832975	-0.063993	-0.000107
C58	C	1.332975	0.436007	0.499893
C59	C	0.848082	-0.206636	-0.000111
C60	C	1.348082	0.293364	0.499889
C61	C	0.792961	-0.255316	-0.000106
C62	C	1.292961	0.244684	0.499894
C63	C	0.808573	-0.402745	-0.000110
C64	C	1.308573	0.097255	0.499890
C65	C	0.928925	0.160835	-0.000122
C66	C	1.428925	0.660835	0.499878
C67	C	1.005794	0.162910	-0.000137
C68	C	1.505794	0.662910	0.499863
C69	C	0.768551	0.405937	-0.000104
C70	C	1.268551	0.905937	0.499896
C71	C	0.753445	0.548580	-0.000104
C72	C	1.253445	1.048580	0.499896
N73	N	0.800742	0.170956	0.188563
N74	N	1.300742	0.670956	0.688563
N75	N	0.800791	0.170978	-0.188773
N76	N	1.300791	0.670978	0.311227
C77	C	0.858097	0.083359	0.226658
C78	C	1.358097	0.583359	0.726658
C79	C	0.858102	0.083353	0.302886
C80	C	1.358102	0.583353	0.802886
C81	C	0.800756	0.170967	0.341016
C82	C	1.300756	0.670967	0.841016
C83	C	0.743392	0.258571	0.302912
C84	C	1.243392	0.758571	0.802912
C85	C	0.743385	0.258565	0.226686
C86	C	1.243385	0.758565	0.726686
C87	C	0.778131	0.288052	0.461777
C88	C	1.278131	0.788052	0.961777
C89	C	0.778143	0.288059	0.538002
C90	C	1.278143	0.788059	1.038002
C91	C	0.800774	0.170983	0.576124
C92	C	1.300774	0.670983	1.076124
C93	C	0.823409	0.053895	0.538010
C94	C	1.323409	0.553895	1.038010
C95	C	0.823402	0.053890	0.461784
C96	C	1.323402	0.553890	0.961784
C97	C	0.800757	0.170982	0.423671
C98	C	1.300757	0.670982	0.923671
C99	C	0.858138	0.083372	0.696873
C100	C	1.358138	0.583372	1.196873
C101	C	0.858138	0.083365	0.773102
C102	C	1.358138	0.583365	1.273102
C103	C	0.743430	0.258593	0.773128
C104	C	1.243430	0.758593	1.273128
C105	C	0.743428	0.258590	0.696900
C106	C	1.243428	0.758590	1.196900
C107	C	0.800785	0.170980	0.658777
C108	C	1.300785	0.670980	1.158777
H109	H	0.340866	0.309326	-0.091854
H110	H	0.840866	0.809326	0.408146
H111	H	0.759717	0.383399	0.569028
H112	H	1.259717	0.883399	1.069028
N113	N	0.681521	0.353062	0.185601
N114	N	1.181521	0.853062	0.685601
H115	H	0.701500	0.409830	0.153962
H116	H	1.201500	0.909830	0.653962
H117	H	0.656444	0.304014	0.154030
H118	H	1.156444	0.804014	0.654030
H119	H	0.759690	0.383395	0.430746
H120	H	1.259690	0.883395	0.930746
H121	H	0.696699	0.329905	0.333962
H122	H	1.196699	0.829905	0.833962
N123	N	0.675618	-0.362073	-0.000087
N124	N	1.175618	0.137927	0.499913
H125	H	0.675495	-0.269420	-0.000084
H126	H	1.175495	0.230580	0.499916
H127	H	0.649657	-0.378568	-0.044977
H128	H	1.149657	0.121432	0.455023
H129	H	0.143567	0.166674	-0.119892
H130	H	0.643567	0.666674	0.380108
N131	N	0.003004	0.162841	-0.137349
N132	N	0.503004	0.662841	0.362651
H133	H	0.036855	0.163756	-0.179164
H134	H	0.536855	0.663756	0.320836
H135	H	-0.012122	0.082378	-0.140221
H136	H	0.487878	0.582378	0.359779
H137	H	0.143482	0.166664	0.119646
H138	H	0.643482	0.666664	0.619646
H139	H	0.458046	0.175271	-0.119858
H140	H	0.958046	0.675271	0.380142
H141	H	0.867326	-0.470209	-0.000115
H142	H	1.367326	0.029791	0.499885
H143	H	0.588978	0.178864	0.119694
H144	H	1.088978	0.678864	0.619694
N145	N	0.925902	-0.295998	-0.000116
N146	N	1.425902	0.204002	0.499884
H147	H	0.934660	-0.352296	-0.045008
H148	H	1.434660	0.147704	0.454992
H149	H	0.960494	-0.243170	-0.000090
H150	H	1.460494	0.256830	0.499910
N151	N	0.598623	0.179092	-0.137290
N152	N	1.098623	0.679092	0.362710
H153	H	0.564803	0.178163	-0.179111
H154	H	1.064803	0.678163	0.320889
H155	H	0.613752	0.259553	-0.140169
H156	H	1.113752	0.759553	0.359831
H157	H	0.904799	0.012020	0.195620
H158	H	1.404799	0.512020	0.695620
H159	H	0.260674	0.032584	0.091634
H160	H	0.760674	0.532584	0.591634
H161	H	0.734213	-0.187848	-0.000094
H162	H	1.234213	0.312152	0.499906
H163	H	0.904808	0.012018	0.333908
H164	H	1.404808	0.512018	0.833908
H165	H	0.696726	0.329925	0.665881
H166	H	1.196726	0.829925	1.165881
H167	H	0.841829	-0.041447	0.430755
H168	H	1.341829	0.458553	0.930755
H169	H	0.841837	-0.041440	0.569047
H170	H	1.341837	0.458560	1.069047
N171	N	0.196602	0.325385	-0.105236
N172	N	0.696602	0.825385	0.394764
H173	H	0.147496	0.312568	-0.097566
H174	H	0.647496	0.812568	0.402434
H175	H	0.191736	0.419612	-0.098462
H176	H	0.691736	0.919612	0.401538
H177	H	0.391688	0.036171	0.091652
H178	H	0.891688	0.536171	0.591652
N179	N	0.002919	0.162807	0.137082
N180	N	0.502919	0.662807	0.637082
H181	H	-0.041886	0.241623	0.140026
H182	H	0.458114	0.741623	0.640026
H183	H	-0.012155	0.082290	0.139972
H184	H	0.487845	0.582290	0.639972
N185	N	0.448568	0.174177	0.137123
N186	N	0.948568	0.674177	0.637123
H187	H	0.397394	0.172492	0.127101
H188	H	0.897394	0.672492	0.627101
H189	H	0.476254	0.094611	0.165620
H190	H	0.976254	0.594611	0.665620
H191	H	0.904840	0.012031	0.665832
H192	H	1.404840	0.512031	1.165832
H193	H	0.904842	0.012026	0.804119
H194	H	1.404842	0.512026	1.304119
H195	H	0.696736	0.329925	0.804173
H196	H	1.196736	0.829925	1.304173
