data_functionalizedCrystal
_audit_creation_method	'MofGen! by Chris Wilmer'
_symmetry_space_group_name_H-M	'P1'
_symmetry_Int_Tables_number	1
_symmetry_cell_setting	triclinic
loop_
_symmetry_equiv_pos_as_xyz
  x,y,z
_cell_length_a	12.594517
_cell_length_b	12.594516
_cell_length_c	10.685880
_cell_angle_alpha	94.339738
_cell_angle_beta	85.602337
_cell_angle_gamma	90.011248
loop_
_atom_site_label
_atom_site_type_symbol
_atom_site_fract_x
_atom_site_fract_y
_atom_site_fract_z
Zn1	Zn	1.673478	-0.469821	-0.713544
Zn2	Zn	1.659727	-0.634201	-0.502550
Zn3	Zn	1.481827	-0.456236	-0.502554
Zn4	Zn	1.495473	-0.647753	-0.713485
O5	O	1.577626	-0.552003	-0.608033
O6	O	1.820601	-0.491641	-0.685578
O7	O	1.624662	-0.599237	-0.325974
O8	O	1.507293	-0.309094	-0.530569
O9	O	1.810498	-0.612410	-0.530562
O10	O	1.648099	-0.319075	-0.685583
O11	O	1.493959	-0.468486	-0.325977
O12	O	1.334690	-0.481627	-0.530511
O13	O	1.530552	-0.635507	-0.890069
O14	O	1.344716	-0.622333	-0.685481
O15	O	1.661331	-0.504781	-0.890113
O16	O	1.637894	-0.784943	-0.530504
O17	O	1.517218	-0.794899	-0.685477
C18	C	1.301082	-0.551977	-0.607991
C19	C	1.182778	-0.551993	-0.608003
C20	C	1.037289	-0.475398	-0.523908
C21	C	1.115598	-0.456903	-0.639051
C22	C	1.106041	-0.570441	-0.492872
C23	C	1.050311	-0.533500	-0.723300
C24	C	1.040743	-0.647079	-0.577043
C25	C	1.119025	-0.628626	-0.692266
C26	C	1.577575	-0.828542	-0.608011
C27	C	1.577654	-0.946850	-0.608044
C28	C	1.643378	-1.010655	-0.523844
C29	C	1.676842	-1.088792	-0.639017
C30	C	1.544327	-1.079517	-0.492945
C31	C	1.611172	-1.023432	-0.723277
C32	C	1.478606	-1.014146	-0.577128
C33	C	1.512039	-1.092256	-0.692379
C34	C	1.855250	-0.552030	-0.608076
C35	C	1.973556	-0.552041	-0.608095
C36	C	1.598998	-0.573171	-0.937156
C37	C	1.608105	-0.582192	-1.077408
C38	C	1.577708	-0.274385	-0.608083
C39	C	1.577743	-0.156081	-0.608104
C40	C	1.556399	-0.530840	-0.280191
C41	C	1.547498	-0.521520	-0.139940
H42	H	1.148395	-0.376509	-0.665300
O43	O	1.445645	-1.134438	-0.777367
C44	C	1.341600	-1.094816	-0.745567
H45	H	1.345441	-1.016080	-0.686039
H46	H	1.301409	-1.081618	-0.835194
H47	H	1.293818	-1.154709	-0.689757
O48	O	1.135360	-0.589100	-0.376612
C49	C	1.043593	-0.601184	-0.294824
H50	H	0.973858	-0.626087	-0.352239
H51	H	1.058829	-0.664884	-0.227912
H52	H	1.023887	-0.522355	-0.238185
O53	O	1.776889	-1.127653	-0.670215
C54	C	1.847166	-1.042519	-0.691007
H55	H	1.812468	-0.966324	-0.639351
H56	H	1.927341	-1.060618	-0.654319
H57	H	1.858517	-1.031775	-0.796159
H58	H	1.639319	-0.998689	-0.820723
H59	H	1.025714	-0.517822	-0.820732
O60	O	1.709849	-0.968179	-0.439116
C61	C	1.814244	-1.006336	-0.472207
H62	H	1.822985	-1.032888	-0.576880
H63	H	1.873589	-0.940218	-0.451210
H64	H	1.830576	-1.076755	-0.415290
H65	H	1.394827	-0.981394	-0.550910
H66	H	1.488634	-0.462677	-1.086178
H67	H	1.666969	-0.641043	-1.131176
O68	O	1.510528	-1.109330	-0.376893
C69	C	1.417871	-1.171469	-0.385486
H70	H	1.414903	-1.208417	-0.485886
H71	H	1.419177	-1.237320	-0.318052
H72	H	1.344610	-1.118922	-0.359467
H73	H	1.001590	-0.410563	-0.452840
H74	H	1.007903	-0.727444	-0.550776
H75	H	1.154541	-0.693427	-0.763503
