data_functionalizedCrystal
_audit_creation_method	'MofGen! by Chris Wilmer'
_symmetry_space_group_name_H-M	'P1'
_symmetry_Int_Tables_number	1
_symmetry_cell_setting	triclinic
loop_
_symmetry_equiv_pos_as_xyz
  x,y,z
_cell_length_a	15.944493
_cell_length_b	15.944493
_cell_length_c	17.766277
_cell_angle_alpha	89.999511
_cell_angle_beta	89.991205
_cell_angle_gamma	83.475044
loop_
_atom_site_label
_atom_site_type_symbol
_atom_site_fract_x
_atom_site_fract_y
_atom_site_fract_z
O1	O	1.114538	0.108104	-0.062574
O2	O	1.614538	0.608104	0.437426
O3	O	0.869979	0.121512	-0.062577
O4	O	1.369979	0.621512	0.437423
O5	O	0.998962	-0.007471	-0.062582
O6	O	1.498962	0.492529	0.437418
O7	O	0.985554	0.237088	-0.062569
O8	O	1.485554	0.737088	0.437431
O9	O	0.998939	-0.007478	0.062607
O10	O	1.498939	0.492522	0.562607
O11	O	0.869956	0.121505	0.062612
O12	O	1.369956	0.621505	0.562612
O13	O	1.114515	0.108098	0.062614
O14	O	1.614515	0.608098	0.562614
Cu15	Cu	0.992233	0.114801	0.074044
Cu16	Cu	1.492233	0.614801	0.574044
Cu17	Cu	0.992260	0.114809	-0.074006
Cu18	Cu	1.492260	0.614809	0.425994
O19	O	0.985532	0.237081	0.062619
O20	O	1.485532	0.737081	0.562619
C21	C	0.838673	0.120961	0.000017
C22	C	1.338673	0.620961	0.500017
C23	C	0.745424	0.119318	0.000016
C24	C	1.245424	0.619318	0.500016
C25	C	0.509649	0.195240	0.000019
C26	C	1.009649	0.695240	0.500019
C27	C	0.459088	0.154295	0.061745
C28	C	0.959088	0.654295	0.561745
C29	C	0.574704	0.116273	0.000017
C30	C	1.074704	0.616273	0.500017
C31	C	0.459115	0.154283	-0.061682
C32	C	0.959115	0.654283	0.438318
C33	C	0.409795	0.113339	0.000015
C34	C	0.909795	0.613339	0.500015
C35	C	0.525371	0.075350	0.061793
C36	C	1.025371	0.575350	0.561793
C37	C	0.525401	0.075349	-0.061688
C38	C	1.025401	0.575349	0.438312
C39	C	0.474873	0.034346	0.000053
C40	C	0.974873	0.534346	0.500053
C41	C	0.669704	0.117966	0.000019
C42	C	1.169704	0.617966	0.500019
C43	C	0.314798	0.111640	0.000018
C44	C	0.814798	0.611640	0.500018
C45	C	0.998403	-0.038769	0.000009
C46	C	1.498403	0.461231	0.500009
C47	C	0.996760	-0.132018	-0.000000
C48	C	1.496760	0.367982	0.500000
C49	C	1.072682	-0.367793	0.000015
C50	C	1.572682	0.132207	0.500015
C51	C	1.031751	-0.418350	-0.061710
C52	C	1.531751	0.081650	0.438290
C53	C	0.993716	-0.302738	0.000009
C54	C	1.493716	0.197262	0.500009
C55	C	1.031711	-0.418332	0.061716
C56	C	1.531711	0.081668	0.561716
C57	C	0.990781	-0.467647	0.000021
C58	C	1.490781	0.032353	0.500021
C59	C	0.952806	-0.352066	-0.061767
C60	C	1.452806	0.147934	0.438233
C61	C	0.952777	-0.352045	0.061715
C62	C	1.452777	0.147955	0.561715
C63	C	0.911788	-0.402569	-0.000025
C64	C	1.411788	0.097431	0.499975
C65	C	0.995408	-0.207739	0.000001
C66	C	1.495408	0.292261	0.500001
C67	C	0.989082	-0.562644	0.000023
C68	C	1.489082	-0.062644	0.500023
C69	C	1.145821	0.108649	0.000019
C70	C	1.645821	0.608649	0.500019
C71	C	1.239069	0.110292	0.000015
C72	C	1.739069	0.610292	0.500015
C73	C	0.986091	0.268379	0.000026
C74	C	1.486091	0.768379	0.500026
C75	C	0.987734	0.361627	0.000031
C76	C	1.487734	0.861627	0.500031
N77	N	0.992221	0.114795	0.178174
N78	N	1.492221	0.614795	0.678174
N79	N	0.992280	0.114808	-0.178137
N80	N	1.492280	0.614808	0.321863
C81	C	1.049353	0.057709	0.217559
C82	C	1.549353	0.557709	0.717559
C83	C	1.049358	0.057705	0.296361
C84	C	1.549358	0.557705	0.796361
C85	C	0.992238	0.114802	0.335775
C86	C	1.492238	0.614802	0.835775
C87	C	0.935095	0.171892	0.296380
C88	C	1.435095	0.671892	0.796380
C89	C	0.935087	0.171888	0.217580
C90	C	1.435087	0.671888	0.717580
C91	C	0.981221	0.191304	0.460616
C92	C	1.481221	0.691304	0.960616
C93	C	0.981236	0.191309	0.539415
C94	C	1.481236	0.691309	1.039415
C95	C	0.992261	0.114812	0.578821
C96	C	1.492261	0.614812	1.078821
C97	C	1.003289	0.038307	0.539418
C98	C	1.503289	0.538307	1.039418
C99	C	1.003280	0.038304	0.460618
C100	C	1.503280	0.538304	0.960618
C101	C	0.992241	0.114811	0.421220
C102	C	1.492241	0.614811	0.921220
C103	C	1.049402	0.057717	0.703652
C104	C	1.549402	0.557717	1.203652
C105	C	1.049401	0.057712	0.782455
C106	C	1.549401	0.557712	1.282455
C107	C	0.935142	0.171906	0.782473
C108	C	1.435142	0.671906	1.282473
C109	C	0.935139	0.171904	0.703671
C110	C	1.435139	0.671904	1.203671
C111	C	0.992273	0.114810	0.664265
C112	C	1.492273	0.614810	1.164265
H113	H	0.554197	0.042018	0.114029
H114	H	1.054197	0.542018	0.614029
H115	H	0.459422	-0.033727	0.000085
H116	H	0.959422	0.466273	0.500085
H117	H	0.888562	0.218375	0.185512
H118	H	1.388562	0.718375	0.685512
C119	C	0.907809	-0.313129	-0.132345
C120	C	1.407809	0.186871	0.367655
H121	H	0.909173	-0.253717	-0.131933
H122	H	1.409173	0.246283	0.368067
H123	H	0.850834	-0.325234	-0.132528
H124	H	1.350834	0.174766	0.367472
H125	H	0.935678	-0.336407	-0.176121
H126	H	1.435678	0.163593	0.323879
C127	C	1.076761	-0.457427	0.132210
C128	C	1.576761	0.042573	0.632210
H129	H	1.038166	-0.485152	0.161279
H130	H	1.538166	0.014848	0.661279
H131	H	1.097128	-0.414167	0.161467
H132	H	1.597128	0.085833	0.661467
H133	H	1.122783	-0.497095	0.117366
H134	H	1.622783	0.002905	0.617366
H135	H	0.525258	0.263261	0.000080
H136	H	1.025258	0.763261	0.500080
H137	H	0.430134	0.187641	0.113931
H138	H	0.930134	0.687641	0.613931
C139	C	0.564546	0.030346	-0.132189
C140	C	1.064546	0.530346	0.367811
H141	H	0.541748	0.058499	-0.176003
H142	H	1.041748	0.558499	0.323997
H143	H	0.552039	-0.026498	-0.132636
H144	H	1.052039	0.473502	0.367364
H145	H	0.624007	0.031293	-0.131431
H146	H	1.124007	0.531293	0.368569
H147	H	0.919447	-0.323080	0.113900
H148	H	1.419447	0.176920	0.613900
H149	H	0.843715	-0.418021	-0.000059
H150	H	1.343715	0.081979	0.499941
H151	H	0.888587	0.218379	0.328475
H152	H	1.388587	0.718379	0.828475
H153	H	1.065109	-0.447300	-0.113893
H154	H	1.565109	0.052700	0.386107
H155	H	0.430179	0.187650	-0.113858
H156	H	0.930179	0.687650	0.386142
C157	C	1.164566	-0.346692	-0.000066
C158	C	1.664566	0.153308	0.499934
H159	H	1.192505	-0.369514	-0.043978
H160	H	1.692505	0.130486	0.456022
H161	H	1.192879	-0.370372	0.043338
H162	H	1.692879	0.129628	0.543338
H163	H	1.164994	-0.287162	0.000376
H164	H	1.664994	0.212838	0.500376
C165	C	1.112189	-0.005100	0.174216
C166	C	1.612189	0.494900	0.674216
H167	H	1.146211	-0.039104	0.208963
H168	H	1.646211	0.460896	0.708963
H169	H	1.147144	0.025127	0.143463
H170	H	1.647144	0.525127	0.643463
H171	H	1.081971	-0.040086	0.143489
H172	H	1.581971	0.459914	0.643489
C173	C	1.112207	-0.005090	0.339693
C174	C	1.612207	0.494910	0.839693
H175	H	1.146235	-0.039090	0.304938
H176	H	1.646235	0.460910	0.804938
H177	H	1.082006	-0.040069	0.370444
H178	H	1.582006	0.459931	0.870444
H179	H	1.147168	0.025155	0.370421
H180	H	1.647168	0.525155	0.870421
H181	H	1.012258	-0.023989	0.428539
H182	H	1.512258	0.476011	0.928539
C183	C	1.015411	-0.045844	0.582753
C184	C	1.515411	0.454156	1.082753
H185	H	1.013826	-0.034889	0.635327
H186	H	1.513826	0.465111	1.135327
H187	H	1.068389	-0.075780	0.569833
H188	H	1.568389	0.424220	1.069833
H189	H	0.971481	-0.078773	0.569845
H190	H	1.471481	0.421227	1.069845
H191	H	1.095921	0.011225	0.671566
H192	H	1.595921	0.511225	1.171566
H193	H	1.095922	0.011221	0.814522
H194	H	1.595922	0.511221	1.314522
C195	C	0.872311	0.234711	0.825819
C196	C	1.372311	0.734711	1.325819
H197	H	0.880501	0.226541	0.878391
H198	H	1.380501	0.726541	1.378391
H199	H	0.816255	0.225565	0.812917
H200	H	1.316255	0.725565	1.312917
H201	H	0.881427	0.290779	0.812901
H202	H	1.381427	0.790779	1.312901
C203	C	0.872302	0.234708	0.660346
C204	C	1.372302	0.734708	1.160346
H205	H	0.838288	0.268718	0.695103
H206	H	1.338288	0.768718	1.195103
H207	H	0.837340	0.204477	0.629613
H208	H	1.337340	0.704477	1.129613
H209	H	0.902514	0.269689	0.629600
H210	H	1.402514	0.769689	1.129600
C211	C	0.969106	0.275456	0.582755
C212	C	1.469106	0.775456	1.082755
H213	H	0.970701	0.264504	0.635328
H214	H	1.470701	0.764504	1.135328
H215	H	0.916121	0.305382	0.569853
H216	H	1.416121	0.805382	1.069853
H217	H	1.013028	0.308393	0.569827
H218	H	1.513028	0.808393	1.069827
C219	C	0.969099	0.275456	0.417277
C220	C	1.469099	0.775456	0.917277
H221	H	0.962546	0.321018	0.452028
H222	H	1.462546	0.821018	0.952028
H223	H	0.920188	0.277140	0.386546
H224	H	1.420188	0.777140	0.886546
H225	H	1.017097	0.280130	0.386530
H226	H	1.517097	0.780130	0.886530
