data_functionalizedCrystal
_audit_creation_method	'MofGen! by Chris Wilmer'
_symmetry_space_group_name_H-M	'P1'
_symmetry_Int_Tables_number	1
_symmetry_cell_setting	triclinic
loop_
_symmetry_equiv_pos_as_xyz
  x,y,z
_cell_length_a	21.295417
_cell_length_b	12.759401
_cell_length_c	21.295396
_cell_angle_alpha	89.933068
_cell_angle_beta	89.893877
_cell_angle_gamma	90.029551
loop_
_atom_site_label
_atom_site_type_symbol
_atom_site_fract_x
_atom_site_fract_y
_atom_site_fract_z
Zn1	Zn	-0.250172	1.606642	-0.355860
Zn2	Zn	0.249828	2.106642	0.144140
Zn3	Zn	-0.355579	1.606339	-0.250585
Zn4	Zn	0.144421	2.106339	0.249415
Zn5	Zn	-0.250326	1.430795	-0.250610
Zn6	Zn	0.249674	1.930795	0.249390
Zn7	Zn	-0.355406	1.430884	-0.355823
Zn8	Zn	0.144594	1.930884	0.144177
O9	O	-0.302871	1.518665	-0.303219
O10	O	0.197129	2.018665	0.196781
O11	O	-0.264163	1.753623	-0.341900
O12	O	0.235837	2.253623	0.158100
O13	O	-0.341754	1.582889	-0.162499
O14	O	0.158246	2.082889	0.337501
O15	O	-0.162216	1.454211	-0.264598
O16	O	0.337784	1.954211	0.235402
O17	O	-0.341605	1.753400	-0.264555
O18	O	0.158395	2.253400	0.235445
O19	O	-0.162103	1.583405	-0.341924
O20	O	0.337897	2.083405	0.158076
O21	O	-0.264425	1.453918	-0.162517
O22	O	0.235575	1.953918	0.337483
O23	O	-0.264257	1.283786	-0.264562
O24	O	0.235743	1.783786	0.235438
O25	O	-0.341309	1.454362	-0.443917
O26	O	0.158691	1.954362	0.056083
O27	O	-0.341458	1.283851	-0.341861
O28	O	0.158542	1.783851	0.158139
O29	O	-0.263995	1.583491	-0.443944
O30	O	0.236005	2.083491	0.056056
O31	O	-0.443646	1.582975	-0.264519
O32	O	0.056354	2.082975	0.235481
O33	O	-0.443518	1.454069	-0.341836
O34	O	0.056482	1.954069	0.158164
C35	C	-0.302856	1.245698	-0.303211
C36	C	0.197144	1.745698	0.196789
C37	C	-0.302865	1.128921	-0.303222
C38	C	0.197135	1.628921	0.196778
C39	C	-0.262617	1.074168	-0.343558
C40	C	0.237383	1.574168	0.156442
C41	C	-0.262629	0.964444	-0.343562
C42	C	0.237371	1.464444	0.156438
C43	C	-0.343143	0.964236	-0.262892
C44	C	0.156857	1.464236	0.237108
C45	C	-0.343127	1.073958	-0.262885
C46	C	0.156873	1.573958	0.237115
C47	C	-0.222355	1.129131	-0.383894
C48	C	0.277645	1.629131	0.116106
C49	C	-0.182104	1.074378	-0.424234
C50	C	0.317896	1.574378	0.075766
C51	C	-0.182116	0.964654	-0.424238
C52	C	0.317884	1.464654	0.075762
C53	C	-0.222379	0.909683	-0.383902
C54	C	0.277621	1.409683	0.116098
C55	C	-0.466423	1.518527	-0.303184
C56	C	0.033577	2.018527	0.196816
C57	C	-0.536391	1.518564	-0.303191
C58	C	-0.036391	2.018564	0.196809
C59	C	-0.569303	1.585746	-0.262973
C60	C	-0.069303	2.085746	0.237027
C61	C	-0.635045	1.585795	-0.262987
C62	C	-0.135045	2.085795	0.237013
C63	C	-0.667873	1.518644	-0.303212
C64	C	-0.167873	2.018644	0.196788
C65	C	-0.634953	1.451458	-0.343438
C66	C	-0.134953	1.951458	0.156562
C67	C	-0.569212	1.451418	-0.343427
C68	C	-0.069212	1.951418	0.156573
N69	N	-0.771132	1.426744	-0.308008
N70	N	-0.271132	1.926744	0.191992
N71	N	-0.833583	1.426785	-0.308015
N72	N	-0.333583	1.926785	0.191985
C73	C	-0.865948	1.518762	-0.303248
C74	C	-0.365948	2.018762	0.196752
N75	N	-0.833502	1.610699	-0.298463
N76	N	-0.333502	2.110699	0.201537
N77	N	-0.771044	1.610657	-0.298453
N78	N	-0.271044	2.110657	0.201547
C79	C	-0.739158	1.518680	-0.303229
C80	C	-0.239158	2.018680	0.196771
C81	C	-0.970145	1.586002	-0.263044
C82	C	-0.470145	2.086002	0.236956
C83	C	-1.035889	1.586053	-0.263062
C84	C	-0.535889	2.086053	0.236938
C85	C	-1.035796	1.451707	-0.343510
C86	C	-0.535796	1.951707	0.156490
C87	C	-0.970053	1.451666	-0.343495
C88	C	-0.470053	1.951666	0.156505
C89	C	-0.937232	1.518812	-0.303258
C90	C	-0.437232	2.018812	0.196742
C91	C	-0.138680	1.518832	-0.303268
C92	C	0.361320	2.018832	0.196732
C93	C	-0.068712	1.518903	-0.303289
C94	C	0.431288	2.018903	0.196711
C95	C	-0.302615	1.518970	-0.467410
C96	C	0.197385	2.018970	0.032590
C97	C	-0.302507	1.519100	-0.537378
C98	C	0.197493	2.019100	-0.037378
C99	C	-0.302886	1.792698	-0.303228
C100	C	0.197114	2.292698	0.196772
C101	C	-0.302893	1.909475	-0.303232
C102	C	0.197107	2.409475	0.196768
C103	C	-0.303080	1.518422	-0.139667
C104	C	0.196920	2.018422	0.360333
C105	C	-0.303011	1.518495	-0.069699
C106	C	0.196989	2.018495	0.430301
C107	C	-0.262566	1.451440	0.429718
C108	C	0.237434	1.951440	0.929718
C109	C	-0.262631	1.451358	0.363976
C110	C	0.237369	1.951358	0.863976
C111	C	-0.302629	1.518954	0.331139
C112	C	0.197371	2.018954	0.831139
C113	C	-0.342577	1.586620	0.364050
C114	C	0.157423	2.086620	0.864050
C115	C	-0.342515	1.586692	0.429792
C116	C	0.157485	2.086692	0.929792
N117	N	-0.307159	1.610857	0.227831
N118	N	0.192841	2.110857	0.727831
N119	N	-0.307213	1.610785	0.165380
N120	N	0.192787	2.110785	0.665380
C121	C	-0.302816	1.518738	0.133065
C122	C	0.197184	2.018738	0.633065
N123	N	-0.298350	1.426763	0.165561
N124	N	0.201650	1.926763	0.665561
N125	N	-0.298293	1.426837	0.228018
N126	N	0.201707	1.926837	0.728018
C127	C	-0.302700	1.518883	0.259854
C128	C	0.197300	2.018883	0.759854
C129	C	-0.262944	1.450983	0.028876
C130	C	0.237056	1.950983	0.528876
C131	C	-0.263012	1.450899	-0.036867
C132	C	0.236988	1.950899	0.463133
C133	C	-0.342955	1.586170	-0.036791
C134	C	0.157045	2.086170	0.463209
C135	C	-0.342889	1.586245	0.028951
C136	C	0.157111	2.086245	0.528951
C137	C	-0.302880	1.518652	0.061781
C138	C	0.197120	2.018652	0.561781
H139	H	-0.375924	0.919470	-0.230054
H140	H	0.124076	1.419470	0.269946
C141	C	-0.387406	1.134190	-0.218524
C142	C	0.112594	1.634190	0.281476
H143	H	-0.411395	1.085743	-0.194510
H144	H	0.088605	1.585743	0.305490
H145	H	-0.363324	1.176952	-0.191139
H146	H	0.136676	1.676952	0.308861
H147	H	-0.414828	1.177025	-0.242560
H148	H	0.085172	1.677025	0.257440
H149	H	-0.230104	1.396262	0.337181
H150	H	0.269896	1.896262	0.837181
H151	H	-0.542582	1.640422	-0.230211
H152	H	-0.042582	2.140422	0.269789
C153	C	-0.386571	1.660978	0.327933
C154	C	0.113429	2.160978	0.827933
H155	H	-0.380882	1.651253	0.284067
H156	H	0.119118	2.151253	0.784067
H157	H	-0.428921	1.646083	0.338839
H158	H	0.071079	2.146083	0.838839
H159	H	-0.377042	1.731480	0.338605
H160	H	0.122958	2.231480	0.838605
H161	H	-0.230366	1.395944	0.055608
H162	H	0.269634	1.895944	0.555608
C163	C	-0.671256	1.659689	-0.218740
C164	C	-0.171256	2.159689	0.281260
H165	H	-0.642293	1.699666	-0.194773
H166	H	-0.142293	2.199666	0.305227
H167	H	-0.696833	1.705496	-0.242843
H168	H	-0.196833	2.205496	0.257157
H169	H	-0.696975	1.619481	-0.191297
H170	H	-0.196975	2.119481	0.308703
C171	C	-0.222338	1.249823	-0.383890
C172	C	0.277662	1.749823	0.116110
H173	H	-0.192593	1.274717	-0.413686
H174	H	0.307407	1.774717	0.086314
H175	H	-0.262958	1.274646	-0.394694
H176	H	0.237042	1.774646	0.105306
H177	H	-0.211441	1.274564	-0.343285
H178	H	0.288559	1.774564	0.156715
H179	H	-1.062685	1.640767	-0.230313
H180	H	-0.562685	2.140767	0.269687
H181	H	-0.149319	1.119142	-0.457070
H182	H	0.350681	1.619142	0.042930
H183	H	-0.230490	1.395794	-0.063656
H184	H	0.269510	1.895794	0.436344
C185	C	-0.218565	1.377084	0.465831
C186	C	0.281435	1.877084	0.965831
H187	H	-0.224245	1.386820	0.509697
H188	H	0.275755	1.886820	1.009697
H189	H	-0.228088	1.306585	0.455158
H190	H	0.271912	1.806585	0.955158
H191	H	-0.176213	1.391990	0.454923
H192	H	0.323787	1.891990	0.954923
H193	H	-0.661686	1.396785	-0.376191
H194	H	-0.161686	1.896785	0.123809
C195	C	-0.386448	1.661128	0.465987
C196	C	0.113552	2.161128	0.965987
H197	H	-0.410277	1.701380	0.437017
H198	H	0.089723	2.201380	0.937017
H199	H	-0.414020	1.621273	0.491756
H200	H	0.085980	2.121273	0.991756
H201	H	-0.362143	1.706672	0.491511
H202	H	0.137857	2.206672	0.991511
C203	C	-0.533004	1.377514	-0.387666
C204	C	-0.033004	1.877514	0.112334
H205	H	-0.489150	1.387112	-0.381900
H206	H	0.010850	1.887112	0.118100
H207	H	-0.543835	1.306925	-0.378422
H208	H	-0.043835	1.806925	0.121578
H209	H	-0.543682	1.392929	-0.429974
H210	H	-0.043682	1.892929	0.070026
C211	C	-0.222393	0.788989	-0.383908
C212	C	0.277607	1.288989	0.116092
H213	H	-0.192658	0.764250	-0.413711
H214	H	0.307342	1.264250	0.086289
H215	H	-0.211512	0.764082	-0.343309
H216	H	0.288488	1.264082	0.156691
H217	H	-0.263022	0.764176	-0.394725
H218	H	0.236978	1.264176	0.105275
C219	C	-0.386819	1.660677	0.065149
C220	C	0.113181	2.160677	0.565149
H221	H	-0.381058	1.651033	0.109005
H222	H	0.118942	2.151033	0.609005
H223	H	-0.377317	1.731153	0.054272
H224	H	0.122683	2.231153	0.554272
H225	H	-0.429190	1.645747	0.054509
H226	H	0.070810	2.145747	0.554509
C227	C	-0.934039	1.659869	-0.218793
C228	C	-0.434039	2.159869	0.281207
H229	H	-0.963059	1.699900	-0.194848
H230	H	-0.463059	2.199900	0.305152
H231	H	-0.908471	1.619653	-0.191338
H232	H	-0.408471	2.119653	0.308662
H233	H	-0.908321	1.705643	-0.242898
H234	H	-0.408321	2.205643	0.257102
C235	C	-1.071898	1.377847	-0.387761
C236	C	-0.571898	1.877847	0.112239
H237	H	-1.115766	1.387489	-0.382007
H238	H	-0.615766	1.887489	0.117993
H239	H	-1.061028	1.393239	-0.430061
H240	H	-0.561028	1.893239	0.069939
H241	H	-1.061182	1.307240	-0.378507
H242	H	-0.561182	1.807240	0.121493
H243	H	-0.375521	1.641211	-0.063526
H244	H	0.124479	2.141211	0.436474
C245	C	-0.137842	0.904428	-0.468608
C246	C	0.362158	1.404428	0.031392
H247	H	-0.113867	0.952880	-0.492631
H248	H	0.386133	1.452880	0.007369
H249	H	-0.110417	0.861587	-0.444585
H250	H	0.389583	1.361587	0.055415
H251	H	-0.161935	0.861673	-0.495994
H252	H	0.338065	1.361673	0.004006
C253	C	-0.933848	1.377752	-0.387728
C254	C	-0.433848	1.877752	0.112272
H255	H	-0.962813	1.337758	-0.411683
H256	H	-0.462813	1.837758	0.088317
H257	H	-0.908123	1.417934	-0.415172
H258	H	-0.408123	1.917934	0.084828
H259	H	-0.908278	1.331945	-0.363612
H260	H	-0.408278	1.831945	0.136388
