data_functionalizedCrystal
_audit_creation_method	'MofGen! by Chris Wilmer'
_symmetry_space_group_name_H-M	'P1'
_symmetry_Int_Tables_number	1
_symmetry_cell_setting	triclinic
loop_
_symmetry_equiv_pos_as_xyz
  x,y,z
_cell_length_a	18.215407
_cell_length_b	18.215405
_cell_length_c	18.215399
_cell_angle_alpha	89.969449
_cell_angle_beta	89.980167
_cell_angle_gamma	90.025333
loop_
_atom_site_label
_atom_site_type_symbol
_atom_site_fract_x
_atom_site_fract_y
_atom_site_fract_z
Zn1	Zn	1.125072	-0.292983	-0.416103
Zn2	Zn	1.458405	0.040350	-0.082769
Zn3	Zn	1.791739	0.373684	0.250564
Zn4	Zn	1.124980	-0.416054	-0.293031
Zn5	Zn	1.458314	-0.082721	0.040303
Zn6	Zn	1.791647	0.250612	0.373636
Zn7	Zn	1.002005	-0.293007	-0.293050
Zn8	Zn	1.335338	0.040326	0.040283
Zn9	Zn	1.668671	0.373660	0.373617
Zn10	Zn	1.001970	-0.416013	-0.416056
Zn11	Zn	1.335304	-0.082680	-0.082722
Zn12	Zn	1.668637	0.250653	0.250611
O13	O	1.063507	-0.354514	-0.354560
O14	O	1.396840	-0.021181	-0.021226
O15	O	1.730173	0.312152	0.312107
O16	O	1.228044	-0.309316	-0.399788
O17	O	1.561377	0.024018	-0.066455
O18	O	1.894711	0.357351	0.266878
O19	O	1.108643	-0.399759	-0.190049
O20	O	1.441977	-0.066426	0.143284
O21	O	1.775310	0.266908	0.476618
O22	O	1.018382	-0.190020	-0.309401
O23	O	1.351716	0.143314	0.023933
O24	O	1.685049	0.476647	0.357266
O25	O	1.227977	-0.399736	-0.309368
O26	O	1.561310	-0.066402	0.023965
O27	O	1.894643	0.266931	0.357299
O28	O	1.108799	-0.190002	-0.399807
O29	O	1.442133	0.143331	-0.066474
O30	O	1.775466	0.476665	0.266860
O31	O	1.018293	-0.309357	-0.190063
O32	O	1.351627	0.023977	0.143270
O33	O	1.684960	0.357310	0.476604
O34	O	0.899016	-0.309317	-0.309355
O35	O	1.232349	0.024016	0.023978
O36	O	1.565682	0.357350	0.357311
O37	O	1.018324	-0.399666	-0.519046
O38	O	1.351657	-0.066333	-0.185713
O39	O	1.684991	0.267001	0.147621
O40	O	0.898991	-0.399689	-0.399727
O41	O	1.232324	-0.066356	-0.066394
O42	O	1.565657	0.266977	0.266940
O43	O	1.108766	-0.309276	-0.519081
O44	O	1.442100	0.024057	-0.185747
O45	O	1.775433	0.357391	0.147586
O46	O	1.108610	-0.519033	-0.309322
O47	O	1.441944	-0.185700	0.024011
O48	O	1.775277	0.147634	0.357344
O49	O	1.018235	-0.519003	-0.399708
O50	O	1.351569	-0.185670	-0.066375
O51	O	1.684902	0.147664	0.266958
C52	C	0.872301	-0.354502	-0.354539
C53	C	1.205634	-0.021169	-0.021205
C54	C	1.538967	0.312165	0.312128
C55	C	0.790502	-0.354514	-0.354547
C56	C	1.123835	-0.021181	-0.021214
C57	C	1.457168	0.312152	0.312120
C58	C	0.602314	-0.401645	-0.401544
C59	C	0.935647	-0.068312	-0.068211
C60	C	1.268981	0.265022	0.265122
C61	C	0.525455	-0.401647	-0.401554
C62	C	0.858789	-0.068314	-0.068220
C63	C	1.192122	0.265019	0.265113
C64	C	0.525452	-0.307397	-0.307591
C65	C	0.858785	0.025936	0.025742
C66	C	1.192118	0.359269	0.359076
C67	C	0.602309	-0.307392	-0.307586
C68	C	0.935642	0.025942	0.025747
C69	C	1.268976	0.359275	0.359081
C70	C	0.640738	-0.354520	-0.354562
C71	C	0.974071	-0.021186	-0.021228
C72	C	1.307405	0.312147	0.312105
C73	C	0.487022	-0.354528	-0.354576
C74	C	0.820355	-0.021194	-0.021242
C75	C	1.153689	0.312139	0.312091
C76	C	0.403688	-0.354530	-0.354585
C77	C	0.737022	-0.021196	-0.021252
C78	C	1.070355	0.312137	0.312081
C79	C	0.724077	-0.354517	-0.354553
C80	C	1.057410	-0.021184	-0.021220
C81	C	1.390744	0.312150	0.312113
C82	C	1.063429	-0.545721	-0.354524
C83	C	1.396762	-0.212387	-0.021191
C84	C	1.730096	0.120946	0.312142
C85	C	1.063463	-0.627520	-0.354534
C86	C	1.396797	-0.294186	-0.021200
C87	C	1.730130	0.039147	0.312133
C88	C	1.110632	-0.815705	-0.307556
C89	C	1.443965	-0.482371	0.025777
C90	C	1.777299	-0.149038	0.359110
C91	C	1.110665	-0.892563	-0.307574
C92	C	1.443998	-0.559230	0.025759
C93	C	1.777331	-0.225897	0.359092
C94	C	1.016476	-0.892572	-0.401616
C95	C	1.349809	-0.559239	-0.068283
C96	C	1.683143	-0.225905	0.265051
C97	C	1.016447	-0.815715	-0.401601
C98	C	1.349781	-0.482381	-0.068268
C99	C	1.683114	-0.149048	0.265065
C100	C	1.063524	-0.777283	-0.354567
C101	C	1.396857	-0.443950	-0.021234
C102	C	1.730191	-0.110616	0.312099
C103	C	1.063586	-0.930999	-0.354600
C104	C	1.396919	-0.597666	-0.021266
C105	C	1.730252	-0.264332	0.312067
C106	C	1.063621	-1.014333	-0.354619
C107	C	1.396954	-0.680999	-0.021286
C108	C	1.730288	-0.347666	0.312047
C109	C	1.063490	-0.693944	-0.354548
C110	C	1.396823	-0.360611	-0.021215
C111	C	1.730157	-0.027277	0.312118
C112	C	1.255460	-0.354528	-0.354581
C113	C	1.588793	-0.021194	-0.021248
C114	C	1.922126	0.312139	0.312085
C115	C	1.337259	-0.354533	-0.354591
C116	C	1.670592	-0.021200	-0.021257
C117	C	2.003925	0.312133	0.312076
C118	C	1.063552	-0.354464	-0.546513
C119	C	1.396885	-0.021130	-0.213179
C120	C	1.730218	0.312203	0.120154
C121	C	1.063571	-0.354442	-0.628312
C122	C	1.396904	-0.021109	-0.294978
C123	C	1.730237	0.312225	0.038355
C124	C	1.063605	-0.162561	-0.354611
C125	C	1.396938	0.170772	-0.021278
C126	C	1.730272	0.504105	0.312055
C127	C	1.063647	-0.080763	-0.354633
C128	C	1.396980	0.252571	-0.021300
C129	C	1.730313	0.585904	0.312033
C130	C	1.110681	-0.307332	-0.816525
C131	C	1.444014	0.026001	-0.483191
C132	C	1.777348	0.359335	-0.149858
C133	C	1.110690	-0.307311	-0.893384
C134	C	1.444023	0.026023	-0.560050
C135	C	1.777356	0.359356	-0.226717
C136	C	1.016513	-0.401438	-0.893336
C137	C	1.349846	-0.068105	-0.560003
C138	C	1.683179	0.265228	-0.226670
C139	C	1.016501	-0.401455	-0.816479
C140	C	1.349834	-0.068122	-0.483146
C141	C	1.683167	0.265211	-0.149812
C142	C	1.063589	-0.354403	-0.778075
C143	C	1.396922	-0.021070	-0.444742
C144	C	1.730256	0.312263	-0.111409
C145	C	1.063610	-0.354365	-0.931791
C146	C	1.396943	-0.021031	-0.598458
C147	C	1.730276	0.312302	-0.265125
C148	C	1.063619	-0.354342	-1.015125
C149	C	1.396952	-0.021009	-0.681792
C150	C	1.730286	0.312325	-0.348458
C151	C	1.063579	-0.354425	-0.694736
C152	C	1.396912	-0.021092	-0.361403
C153	C	1.730246	0.312241	-0.028070
C154	C	1.063504	-0.354512	-0.163353
C155	C	1.396838	-0.021179	0.169980
C156	C	1.730171	0.312155	0.503313
C157	C	1.063628	-0.354326	-0.081555
C158	C	1.396961	-0.020993	0.251778
C159	C	1.730295	0.312340	0.585112
H160	H	0.633595	-0.269012	-0.269327
H161	H	0.966928	0.064321	0.064006
H162	H	1.300262	0.397654	0.397340
O163	O	0.970883	-0.447224	-0.930677
O164	O	1.304216	-0.113891	-0.597344
O165	O	1.637550	0.219442	-0.264010
C166	C	1.012767	-0.494736	-0.975141
C167	C	1.346100	-0.161403	-0.641807
C168	C	1.679433	0.171931	-0.308474
H169	H	1.070722	-0.499289	-0.951987
H170	H	1.404056	-0.165956	-0.618654
H171	H	1.737389	0.167378	-0.285320
H172	H	0.986123	-0.551371	-0.975991
H173	H	1.319456	-0.218037	-0.642657
H174	H	1.652790	0.115296	-0.309324
H175	H	1.015323	-0.471969	-1.033397
H176	H	1.348656	-0.138635	-0.700063
H177	H	1.681990	0.194698	-0.366730
H178	H	1.148966	-0.784415	-0.269260
H179	H	1.482299	-0.451082	0.064074
H180	H	1.815632	-0.117749	0.397407
O181	O	0.970731	-0.447254	-0.779238
O182	O	1.304064	-0.113921	-0.445905
O183	O	1.637397	0.219412	-0.112571
C184	C	0.929164	-0.488772	-0.829613
C185	C	1.262497	-0.155439	-0.496280
C186	C	1.595830	0.177895	-0.162946
H187	H	0.959312	-0.491312	-0.884406
H188	H	1.292646	-0.157978	-0.551072
H189	H	1.625979	0.175355	-0.217739
H190	H	0.921283	-0.546759	-0.807384
H191	H	1.254616	-0.213426	-0.474050
H192	H	1.587950	0.119908	-0.140717
H193	H	0.873285	-0.461819	-0.837784
H194	H	1.206618	-0.128486	-0.504451
H195	H	1.539951	0.204848	-0.171117
O196	O	0.970719	-0.778468	-0.447372
O197	O	1.304053	-0.445135	-0.114039
O198	O	1.637386	-0.111801	0.219294
C199	C	0.986777	-0.797168	-0.520740
C200	C	1.320110	-0.463834	-0.187407
C201	C	1.653444	-0.130501	0.145926
H202	H	1.015084	-0.852949	-0.522305
H203	H	1.348417	-0.519615	-0.188971
H204	H	1.681750	-0.186282	0.144362
H205	H	0.933645	-0.799812	-0.553690
H206	H	1.266978	-0.466479	-0.220357
H207	H	1.600312	-0.133146	0.112977
H208	H	1.024585	-0.753864	-0.545554
H209	H	1.357918	-0.420531	-0.212221
H210	H	1.691251	-0.087197	0.121113
O211	O	0.639612	-0.447339	-0.447286
O212	O	0.972945	-0.114006	-0.113952
O213	O	1.306279	0.219328	0.219381
C214	C	0.620852	-0.431356	-0.520661
C215	C	0.954185	-0.098023	-0.187328
C216	C	1.287519	0.235311	0.146006
H217	H	0.599748	-0.372570	-0.524479
H218	H	0.933081	-0.039236	-0.191146
H219	H	1.266415	0.294097	0.142188
H220	H	0.671408	-0.437736	-0.557006
H221	H	1.004742	-0.104402	-0.223673
H222	H	1.338075	0.228931	0.109661
H223	H	0.576232	-0.470838	-0.539832
H224	H	0.909565	-0.137504	-0.206498
H225	H	1.242899	0.195829	0.126835
H226	H	0.494174	-0.440020	-0.439813
H227	H	0.827507	-0.106687	-0.106480
H228	H	1.160840	0.226646	0.226854
H229	H	0.494153	-0.269028	-0.269344
H230	H	0.827487	0.064305	0.063989
H231	H	1.160820	0.397638	0.397323
O232	O	1.156447	-0.929772	-0.261837
O233	O	1.489780	-0.596439	0.071497
O234	O	1.823114	-0.263106	0.404830
C235	C	1.198003	-0.879367	-0.220338
C236	C	1.531336	-0.546034	0.112996
C237	C	1.864670	-0.212701	0.446329
H238	H	1.167838	-0.824608	-0.217750
H239	H	1.501171	-0.491275	0.115583
H240	H	1.834504	-0.157942	0.448916
H241	H	1.205897	-0.901610	-0.162366
H242	H	1.539230	-0.568276	0.170967
H243	H	1.872563	-0.234943	0.504301
H244	H	1.253876	-0.871125	-0.247338
H245	H	1.587210	-0.537792	0.085996
H246	H	1.920543	-0.204458	0.419329
O247	O	0.970766	-0.930020	-0.447228
O248	O	1.304100	-0.596687	-0.113894
O249	O	1.637433	-0.263353	0.219439
C250	C	0.980903	-1.006096	-0.437172
C251	C	1.314236	-0.672762	-0.103839
C252	C	1.647570	-0.339429	0.229494
H253	H	1.005046	-1.016614	-0.380404
H254	H	1.338379	-0.683280	-0.047071
H255	H	1.671713	-0.349947	0.286263
H256	H	0.925785	-1.035345	-0.442114
H257	H	1.259119	-0.702012	-0.108781
H258	H	1.592452	-0.368679	0.224553
H259	H	1.020072	-1.027845	-0.480867
H260	H	1.353406	-0.694511	-0.147534
H261	H	1.686739	-0.361178	0.185799
O262	O	1.156439	-0.261554	-0.779333
O263	O	1.489772	0.071780	-0.445999
O264	O	1.823106	0.405113	-0.112666
C265	C	1.198017	-0.220015	-0.829754
C266	C	1.531350	0.113318	-0.496421
C267	C	1.864684	0.446651	-0.163088
H268	H	1.167882	-0.217456	-0.884536
H269	H	1.501215	0.115877	-0.551202
H270	H	1.834549	0.449211	-0.217869
H271	H	1.205889	-0.162036	-0.807568
H272	H	1.539223	0.171297	-0.474235
H273	H	1.872556	0.504630	-0.140902
H274	H	1.253899	-0.246963	-0.837931
H275	H	1.587232	0.086371	-0.504598
H276	H	1.920566	0.419704	-0.171265
O277	O	1.156330	-0.261505	-0.930764
O278	O	1.489663	0.071828	-0.597431
O279	O	1.822996	0.405161	-0.264097
C280	C	1.114460	-0.213970	-0.975237
C281	C	1.447793	0.119363	-0.641903
C282	C	1.781126	0.452697	-0.308570
H283	H	1.056496	-0.209431	-0.952065
H284	H	1.389830	0.123902	-0.618731
H285	H	1.723163	0.457235	-0.285398
H286	H	1.141102	-0.157334	-0.976125
H287	H	1.474436	0.175999	-0.642792
H288	H	1.807769	0.509333	-0.309458
H289	H	1.111923	-0.236705	-1.033480
H290	H	1.445257	0.096629	-0.700147
H291	H	1.778590	0.429962	-0.366814
