data_functionalizedCrystal
_audit_creation_method	'MofGen! by Chris Wilmer'
_symmetry_space_group_name_H-M	'P1'
_symmetry_Int_Tables_number	1
_symmetry_cell_setting	triclinic
loop_
_symmetry_equiv_pos_as_xyz
  x,y,z
_cell_length_a	13.033293
_cell_length_b	13.032721
_cell_length_c	17.077396
_cell_angle_alpha	97.153695
_cell_angle_beta	82.791103
_cell_angle_gamma	105.184121
loop_
_atom_site_label
_atom_site_type_symbol
_atom_site_fract_x
_atom_site_fract_y
_atom_site_fract_z
Zn1	Zn	1.570203	-0.216826	-0.614575
Zn2	Zn	2.070203	0.283174	-0.114575
Zn3	Zn	1.547521	-0.394470	-0.498085
Zn4	Zn	2.047521	0.105530	0.001915
Zn5	Zn	1.392568	-0.239399	-0.468501
Zn6	Zn	1.892568	0.260601	0.031499
Zn7	Zn	1.369981	-0.416932	-0.614485
Zn8	Zn	1.869981	0.083068	-0.114485
O9	O	1.470068	-0.316907	-0.548912
O10	O	1.970068	0.183093	-0.048912
O11	O	1.715836	-0.221543	-0.611542
O12	O	2.215836	0.278457	-0.111542
O13	O	1.526927	-0.373945	-0.384314
O14	O	2.026927	0.126055	0.115686
O15	O	1.435076	-0.087762	-0.475535
O16	O	1.935076	0.412238	0.024465
O17	O	1.699172	-0.352057	-0.525957
O18	O	2.199172	0.147943	-0.025957
O19	O	1.565584	-0.071178	-0.582855
O20	O	2.065584	0.428822	-0.082855
O21	O	1.413083	-0.260016	-0.362579
O22	O	1.913083	0.239984	0.137421
O23	O	1.240930	-0.281796	-0.475447
O24	O	1.740930	0.218204	0.024553
O25	O	1.396581	-0.390341	-0.724343
O26	O	1.896581	0.109659	-0.224343
O27	O	1.224336	-0.412229	-0.582701
O28	O	1.724336	0.087771	-0.082701
O29	O	1.543683	-0.243324	-0.724410
O30	O	2.043683	0.256676	-0.224410
O31	O	1.505026	-0.546092	-0.525869
O32	O	2.005026	-0.046092	-0.025869
O33	O	1.374588	-0.562595	-0.611387
O34	O	1.874588	-0.062595	-0.111387
C35	C	1.194091	-0.351900	-0.525855
C36	C	1.694091	0.148100	-0.025855
C37	C	1.076024	-0.366897	-0.516011
C38	C	1.576024	0.133103	-0.016011
C39	C	1.031618	-0.309107	-0.554051
C40	C	1.531618	0.190893	-0.054051
C41	C	0.909589	-0.324604	-0.543879
C42	C	1.409589	0.175396	-0.043879
C43	C	1.434923	-0.592881	-0.571848
C44	C	1.934923	-0.092881	-0.071848
C45	C	1.419986	-0.710932	-0.581695
C46	C	1.919986	-0.210932	-0.081695
C47	C	1.477921	-0.755355	-0.543813
C48	C	1.977921	-0.255355	-0.043813
C49	C	1.462483	-0.877366	-0.553989
C50	C	1.962483	-0.377366	-0.053989
C51	C	1.747123	-0.281777	-0.572059
C52	C	2.247123	0.218223	-0.072059
C53	C	1.865187	-0.266807	-0.581923
C54	C	2.365187	0.233193	-0.081923
C55	C	1.470143	-0.316820	-0.753655
C56	C	1.970143	0.183180	-0.253655
C57	C	1.470174	-0.316783	-0.840904
C58	C	1.970174	0.183217	-0.340904
C59	C	1.505379	-0.039851	-0.525905
C60	C	2.005379	0.460149	-0.025905
C61	C	1.520427	0.078214	-0.516101
C62	C	2.020427	0.578214	-0.016101
C63	C	1.546773	-0.240226	-0.881930
C64	C	2.046773	0.259774	-0.381930
C65	C	1.546790	-0.240189	-0.963909
C66	C	2.046790	0.259811	-0.463909
C67	C	1.470212	-0.316715	-1.004861
C68	C	1.970212	0.183285	-0.504861
C69	C	1.393606	-0.393277	-0.963829
C70	C	1.893606	0.106723	-0.463829
C71	C	1.393585	-0.393308	-0.881851
C72	C	1.893585	0.106692	-0.381851
C73	C	1.393656	-0.393207	-1.134697
C74	C	1.893656	0.106793	-0.634697
C75	C	1.393678	-0.393177	-1.216681
C76	C	1.893678	0.106823	-0.716681
C77	C	1.546862	-0.240088	-1.216755
C78	C	2.046862	0.259912	-0.716755
C79	C	1.546841	-0.240119	-1.134777
C80	C	2.046841	0.259881	-0.634777
C81	C	1.470235	-0.316683	-1.093751
C82	C	1.970235	0.183317	-0.593751
C83	C	1.470065	-0.316908	-0.344964
C84	C	1.970065	0.183092	0.155036
C85	C	1.470277	-0.316620	-0.257707
C86	C	1.970277	0.183380	0.242293
H87	H	0.917506	-0.205847	-0.622020
H88	H	1.417506	0.294153	-0.122020
H89	H	1.358960	-0.763227	-0.621665
H90	H	1.858960	-0.263227	-0.121665
Br91	Br	1.622164	-0.834639	-0.449488
Br92	Br	2.122164	-0.334639	0.050512
Br93	Br	1.650713	-0.136370	-0.826361
Br94	Br	2.150713	0.363630	-0.326361
H95	H	1.401454	-0.929658	-0.593961
H96	H	1.901454	-0.429658	-0.093961
Br97	Br	0.988826	-0.468478	-0.449169
Br98	Br	1.488826	0.031522	0.050831
Br99	Br	1.289671	-0.497130	-1.019405
Br100	Br	1.789671	0.002870	-0.519405
Br101	Br	1.579655	-0.668201	-0.477205
Br102	Br	2.079655	-0.168201	0.022795
Br103	Br	1.289619	-0.497206	-0.826171
Br104	Br	1.789619	0.002794	-0.326171
H105	H	1.331320	-0.455490	-1.250022
H106	H	1.831320	0.044510	-0.750022
Br107	Br	1.650794	-0.136328	-1.019592
Br108	Br	2.150794	0.363672	-0.519592
H109	H	1.083942	-0.248153	-0.594146
H110	H	1.583942	0.251847	-0.094146
H111	H	0.857269	-0.385556	-0.503776
H112	H	1.357269	0.114444	-0.003776
H113	H	1.609203	-0.177810	-1.101437
H114	H	2.109203	0.322190	-0.601437
H115	H	1.609236	-0.177746	-1.250162
H116	H	2.109236	0.322254	-0.750162
H117	H	1.331261	-0.455539	-1.101294
H118	H	1.831261	0.044461	-0.601294
