data_functionalizedCrystal
_audit_creation_method	'MofGen! by Chris Wilmer'
_symmetry_space_group_name_H-M	'P1'
_symmetry_Int_Tables_number	1
_symmetry_cell_setting	triclinic
loop_
_symmetry_equiv_pos_as_xyz
  x,y,z
_cell_length_a	12.645035
_cell_length_b	12.645331
_cell_length_c	10.685880
_cell_angle_alpha	85.603135
_cell_angle_beta	85.502714
_cell_angle_gamma	89.849968
loop_
_atom_site_label
_atom_site_type_symbol
_atom_site_fract_x
_atom_site_fract_y
_atom_site_fract_z
Zn1	Zn	0.468015	1.665717	-0.714947
Zn2	Zn	0.631771	1.651659	-0.504455
Zn3	Zn	0.454483	1.474866	-0.503919
Zn4	Zn	0.645273	1.488036	-0.715434
O5	O	0.549886	1.570069	-0.609689
O6	O	0.489749	1.812200	-0.687046
O7	O	0.596940	1.616812	-0.327773
O8	O	0.307899	1.500554	-0.531485
O9	O	0.610061	1.801872	-0.532398
O10	O	0.317841	1.640772	-0.686526
O11	O	0.466687	1.486923	-0.327379
O12	O	0.479780	1.328264	-0.531957
O13	O	0.633073	1.523000	-0.891980
O14	O	0.619953	1.337940	-0.687355
O15	O	0.502842	1.653542	-0.891623
O16	O	0.781941	1.629582	-0.532869
O17	O	0.791861	1.509369	-0.687875
C18	C	0.549864	1.294637	-0.609651
C19	C	0.549882	1.176808	-0.609665
C20	C	0.461582	1.125814	-0.512063
C21	C	0.461301	1.003276	-0.512395
C22	C	0.528651	1.017606	-0.742804
C23	C	0.527999	1.140166	-0.742194
C24	C	0.659739	1.129131	-0.575388
C25	C	0.658968	1.006339	-0.572498
C26	C	0.273321	1.570762	-0.608892
C27	C	0.155466	1.571057	-0.608552
C28	C	-0.005678	1.657572	-0.708286
C29	C	0.116756	1.658931	-0.706643
C30	C	0.100820	1.592429	-0.476071
C31	C	-0.021643	1.592002	-0.477996
C32	C	-0.007778	1.459625	-0.644334
C33	C	0.114937	1.461462	-0.645913
C34	C	0.825376	1.569410	-0.610510
C35	C	0.943235	1.569228	-0.610904
C36	C	0.570973	1.591308	-0.938876
C37	C	0.579960	1.600359	-1.079155
C38	C	0.549908	1.846577	-0.609727
C39	C	0.549918	1.964408	-0.609743
C40	C	0.528803	1.548974	-0.281783
C41	C	0.519518	1.540129	-0.141503
H42	H	0.725417	1.162600	-0.646482
H43	H	0.727561	0.979829	-0.638392
C44	C	0.150680	1.369477	-0.556147
N45	N	0.177594	1.300196	-0.488520
C46	C	0.613391	0.984598	-0.843762
N47	N	0.677217	0.959732	-0.919803
C48	C	0.659249	1.679293	-1.152024
N49	N	0.719004	1.738715	-1.206918
H50	H	-0.053312	1.671903	-0.449554
C51	C	0.477846	0.953925	-0.379108
N52	N	0.490298	0.916759	-0.278708
C53	C	0.477742	1.157000	-0.378350
N54	N	0.489892	1.180529	-0.277642
C55	C	0.351985	1.169650	-0.542383
N56	N	0.269437	1.202665	-0.565229
C57	C	-0.068323	1.508276	-0.376530
N58	N	-0.103479	1.445230	-0.300089
C59	C	0.152776	1.769598	-0.675854
N60	N	0.179905	1.852955	-0.652655
C61	C	0.167517	1.642213	-0.839398
N62	N	0.205744	1.629619	-0.939394
C63	C	-0.035301	1.640502	-0.842358
N64	N	-0.057620	1.627643	-0.943344
H65	H	-0.041315	1.393945	-0.573367
H66	H	-0.039077	1.738519	-0.686445
C67	C	0.440313	1.461103	-1.068628
N68	N	0.380654	1.401583	-1.013738
H69	H	0.379735	0.975620	-0.535133
C70	C	0.419874	1.181605	-0.781381
N71	N	0.338430	1.212811	-0.810893
C72	C	0.421810	0.978965	-0.782723
N73	N	0.341338	0.949857	-0.812786
C74	C	0.133598	1.508393	-0.374445
N75	N	0.158289	1.445096	-0.297902
H76	H	0.128374	1.671910	-0.446466
C77	C	0.688234	1.162449	-0.446504
N78	N	0.709684	1.187543	-0.349423
C79	C	-0.039552	1.430283	-0.773540
N80	N	-0.063483	1.408195	-0.870865
H81	H	0.590005	1.174584	-0.817415
H82	H	0.675167	0.970854	-0.474573
H83	H	0.151499	1.445152	-0.743447
