data_functionalizedCrystal
_audit_creation_method	'MofGen! by Chris Wilmer'
_symmetry_space_group_name_H-M	'P1'
_symmetry_Int_Tables_number	1
_symmetry_cell_setting	triclinic
loop_
_symmetry_equiv_pos_as_xyz
  x,y,z
_cell_length_a	8.497374
_cell_length_b	8.497374
_cell_length_c	11.169417
_cell_angle_alpha	90.000212
_cell_angle_beta	89.998029
_cell_angle_gamma	90.005237
loop_
_atom_site_label
_atom_site_type_symbol
_atom_site_fract_x
_atom_site_fract_y
_atom_site_fract_z
Zn1	Zn	0.628293	0.892043	1.834807
Zn2	Zn	1.128293	1.392043	2.334807
Zn3	Zn	0.892038	0.628308	1.834798
Zn4	Zn	1.392038	1.128308	2.334798
Zn5	Zn	0.628270	0.628277	1.634162
Zn6	Zn	1.128270	1.128277	2.134162
Zn7	Zn	0.892028	0.892047	1.634133
Zn8	Zn	1.392028	1.392047	2.134133
O9	O	0.760157	0.760169	1.734475
O10	O	1.260157	1.260169	2.234475
O11	O	0.663292	0.857069	2.002756
O12	O	1.163292	1.357069	2.502756
O13	O	0.857043	0.407542	1.808191
O14	O	1.357043	0.907542	2.308191
O15	O	0.407511	0.663251	1.660794
O16	O	0.907511	1.163251	2.160794
O17	O	0.857065	0.663305	2.002749
O18	O	1.357065	1.163305	2.502749
O19	O	0.407527	0.857039	1.808207
O20	O	0.907527	1.357039	2.308207
O21	O	0.663254	0.407519	1.660785
O22	O	1.163254	0.907519	2.160785
O23	O	0.663245	0.663255	1.466208
O24	O	1.163245	1.163255	1.966208
O25	O	0.857049	1.112808	1.660745
O26	O	1.357049	1.612808	2.160745
O27	O	0.857027	0.857046	1.466187
O28	O	1.357027	1.357046	1.966187
O29	O	0.663283	1.112805	1.808179
O30	O	1.163283	1.612805	2.308179
O31	O	1.112799	0.663309	1.808163
O32	O	1.612799	1.163309	2.308163
O33	O	1.112792	0.857076	1.660735
O34	O	1.612792	1.357076	2.160735
C35	C	0.760133	0.760148	1.422650
C36	C	1.260133	1.260148	1.922650
C37	C	0.760161	0.760177	1.289250
C38	C	1.260161	1.260177	1.789250
C39	C	1.170037	0.760191	1.734460
C40	C	1.670037	1.260191	2.234460
C41	C	1.348681	0.760166	1.734492
C42	C	1.848681	1.260166	2.234492
C43	C	0.760160	1.171649	1.734466
C44	C	1.260160	1.671649	2.234466
C45	C	0.760176	1.350293	1.734469
C46	C	1.260176	1.850293	2.234469
C47	C	0.760182	0.760190	2.047517
C48	C	1.260182	1.260190	2.547517
C49	C	0.760193	0.760199	2.180917
C50	C	1.260193	1.260199	2.680917
