data_functionalizedCrystal
_audit_creation_method	'MofGen! by Chris Wilmer'
_symmetry_space_group_name_H-M	'P1'
_symmetry_Int_Tables_number	1
_symmetry_cell_setting	triclinic
loop_
_symmetry_equiv_pos_as_xyz
  x,y,z
_cell_length_a	10.654550
_cell_length_b	17.038272
_cell_length_c	9.730223
_cell_angle_alpha	89.995299
_cell_angle_beta	89.999957
_cell_angle_gamma	87.798243
loop_
_atom_site_label
_atom_site_type_symbol
_atom_site_fract_x
_atom_site_fract_y
_atom_site_fract_z
O1	O	1.678042	0.109878	-0.114188
O2	O	2.178042	0.609878	0.385812
O3	O	1.313535	0.120346	-0.114214
O4	O	1.813535	0.620346	0.385786
O5	O	1.493622	0.001285	-0.114190
O6	O	1.993622	0.501285	0.385810
O7	O	1.497955	0.228940	-0.114212
O8	O	1.997955	0.728940	0.385788
O9	O	1.493609	0.001281	0.114390
O10	O	1.993609	0.501281	0.614390
O11	O	1.313523	0.120343	0.114366
O12	O	1.813523	0.620343	0.614366
O13	O	1.678029	0.109875	0.114392
O14	O	2.178029	0.609875	0.614392
Zn15	Zn	1.495774	0.115108	0.150671
Zn16	Zn	1.995774	0.615108	0.650671
Zn17	Zn	1.495791	0.115113	-0.150493
Zn18	Zn	1.995791	0.615113	0.349507
O19	O	1.497942	0.228936	0.114368
O20	O	1.997942	0.728936	0.614368
C21	C	1.266660	0.119576	0.000073
C22	C	1.766660	0.619576	0.500073
C23	C	1.127003	0.117276	0.000064
C24	C	1.627003	0.617276	0.500064
C25	C	1.489675	-0.027867	0.000099
C26	C	1.989675	0.472133	0.500099
C27	C	1.477918	-0.114726	0.000098
C28	C	1.977918	0.385274	0.500098
C29	C	1.054026	0.187378	0.000061
C30	C	1.554026	0.687378	0.500061
C31	C	0.922805	0.185213	0.000085
C32	C	1.422805	0.685213	0.500085
C33	C	0.937548	0.042838	0.000109
C34	C	1.437548	0.542838	0.500109
C35	C	1.068767	0.045004	0.000095
C36	C	1.568767	0.545004	0.500095
C37	C	1.585862	-0.164237	0.000107
C38	C	2.085862	0.335763	0.500107
C39	C	1.574808	-0.245849	0.000093
C40	C	2.074808	0.254151	0.500093
C41	C	1.455808	-0.277949	0.000080
C42	C	1.955808	0.222051	0.500080
C43	C	1.347855	-0.228431	0.000067
C44	C	1.847855	0.271569	0.500067
C45	C	1.358911	-0.146820	0.000071
C46	C	1.858911	0.353180	0.500071
C47	C	1.416750	-0.523925	0.000059
C48	C	1.916750	-0.023925	0.500059
C49	C	1.405702	-0.605542	0.000059
C50	C	1.905702	-0.105542	0.500059
C51	C	1.632655	-0.622955	0.000082
C52	C	2.132655	-0.122955	0.500082
C53	C	1.643701	-0.541341	0.000094
C54	C	2.143701	-0.041341	0.500094
C55	C	1.535748	-0.491831	0.000074
C56	C	2.035748	0.008169	0.500074
C57	C	1.444505	-0.361369	0.000070
C58	C	1.944505	0.138631	0.500070
C59	C	1.547052	-0.408412	0.000074
C60	C	2.047052	0.091588	0.500074
C61	C	1.724905	0.110645	0.000102
C62	C	2.224905	0.610645	0.500102
C63	C	1.864561	0.112945	0.000102
C64	C	2.364561	0.612945	0.500102
C65	C	1.501889	0.258088	0.000076
C66	C	2.001889	0.758088	0.500076
C67	C	1.513646	0.344947	0.000068
C68	C	2.013646	0.844947	0.500068
N69	N	1.495771	0.115105	0.356207
N70	N	1.995771	0.615105	0.856207
N71	N	1.495802	0.115110	-0.356029
N72	N	1.995802	0.615110	0.143971
C73	C	1.575545	0.062407	0.428144
C74	C	2.075545	0.562407	0.928144
C75	C	1.575558	0.062407	0.572027
C76	C	2.075558	0.562407	1.072027
C77	C	1.416020	0.167810	0.572024
C78	C	1.916020	0.667810	1.072024
C79	C	1.416002	0.167806	0.428144
C80	C	1.916002	0.667806	0.928144
H81	H	1.101438	0.246227	0.000046
H82	H	1.601438	0.746227	0.500046
H83	H	1.662708	-0.286159	0.000103
H84	H	2.162708	0.213841	0.500103
H85	H	1.271011	-0.106509	0.000064
H86	H	1.771011	0.393491	0.500064
H87	H	0.863392	0.242297	0.000086
H88	H	1.363392	0.742297	0.500086
O89	O	1.675403	-0.373798	0.000082
O90	O	2.175403	0.126202	0.500082
H91	H	1.685858	-0.337042	0.093254
H92	H	2.185858	0.162958	0.593254
O93	O	0.874738	-0.035112	0.000132
O94	O	1.374738	0.464888	0.500132
H95	H	0.771232	-0.024843	0.000129
H96	H	1.271232	0.475157	0.500129
O97	O	1.714219	-0.129624	0.000113
O98	O	2.214219	0.370376	0.500113
H99	H	1.724693	-0.092870	0.093285
H100	H	2.224693	0.407130	0.593285
H101	H	1.328847	-0.483623	0.000043
H102	H	1.828847	0.016377	0.500043
O103	O	1.661541	0.005549	0.350543
O104	O	2.161541	0.505549	0.850543
H105	H	1.726130	0.038818	0.284966
H106	H	2.226130	0.538818	0.784966
H107	H	1.640515	0.019495	0.630593
H108	H	2.140515	0.519495	1.130593
O109	O	1.329999	0.224660	0.649611
O110	O	1.829999	0.724660	1.149611
H111	H	1.343423	0.215818	0.761746
H112	H	1.843423	0.715818	1.261746
O113	O	1.147493	-0.030609	0.000101
O114	O	1.647493	0.469391	0.500101
H115	H	1.084955	-0.081228	0.000106
H116	H	1.584955	0.418772	0.500106
O117	O	1.772050	-0.506719	0.000075
O118	O	2.272050	-0.006719	0.500075
H119	H	1.845256	-0.554859	0.000058
H120	H	2.345256	-0.054859	0.500058
O121	O	1.749087	-0.676352	0.000095
O122	O	2.249087	-0.176352	0.500095
H123	H	1.721413	-0.738495	0.000081
H124	H	2.221413	-0.238495	0.500081
H125	H	1.351034	0.210719	0.369569
H126	H	1.851034	0.710719	0.869569
O127	O	1.316162	-0.396000	0.000075
O128	O	1.816162	0.104000	0.500075
H129	H	1.263868	-0.376166	-0.093094
H130	H	1.763868	0.123834	0.406906
O131	O	1.277347	-0.640168	0.000029
O132	O	1.777347	-0.140168	0.500029
H133	H	1.204137	-0.592031	0.000000
H134	H	1.704137	-0.092031	0.500000
H135	H	1.250963	-0.254573	0.000048
H136	H	1.750963	0.245427	0.500048
