data_functionalizedCrystal
_audit_creation_method	'MofGen! by Chris Wilmer'
_symmetry_space_group_name_H-M	'P1'
_symmetry_Int_Tables_number	1
_symmetry_cell_setting	triclinic
loop_
_symmetry_equiv_pos_as_xyz
  x,y,z
_cell_length_a	14.044220
_cell_length_b	19.288865
_cell_length_c	18.366186
_cell_angle_alpha	90.011479
_cell_angle_beta	90.003974
_cell_angle_gamma	88.162563
loop_
_atom_site_label
_atom_site_type_symbol
_atom_site_fract_x
_atom_site_fract_y
_atom_site_fract_z
O1	O	-1.256998	-0.167413	-0.060488
O2	O	-0.981055	-0.161372	-0.060506
O3	O	-1.127000	-0.063774	-0.060482
O4	O	-1.111053	-0.265010	-0.060512
O5	O	-1.126975	-0.063768	0.060617
O6	O	-0.981030	-0.161365	0.060593
O7	O	-1.256973	-0.167406	0.060611
Zn8	Zn	-1.118998	-0.164384	0.079829
Zn9	Zn	-1.119030	-0.164393	-0.079724
O10	O	-1.111028	-0.265004	0.060587
C11	C	-1.126474	-0.037862	0.000069
C12	C	-1.124934	0.039341	0.000076
C13	C	-0.945739	-0.158724	0.000041
C14	C	-0.840547	-0.150836	0.000035
C15	C	-1.292289	-0.170054	0.000062
C16	C	-1.397481	-0.177942	0.000063
C17	C	-0.647947	-0.136416	0.000052
C18	C	-0.590075	-0.192359	0.000047
C19	C	-0.482906	-0.184335	0.000056
C20	C	-0.755126	-0.144438	0.000043
C21	C	-1.111554	-0.290916	0.000034
C22	C	-1.113094	-0.368119	0.000023
N23	N	-1.118982	-0.164378	0.188720
C24	C	-1.210568	0.078535	0.000085
C25	C	-1.209121	0.151075	0.000073
C26	C	-1.122035	0.184418	0.000067
C27	C	-1.036390	0.145215	0.000054
C28	C	-1.037839	0.072676	0.000058
C29	C	-1.053566	0.297107	0.042481
C30	C	-1.052121	0.369644	0.042481
C31	C	-1.117560	0.408151	0.000051
C32	C	-1.184462	0.374113	-0.042371
C33	C	-1.185912	0.301574	-0.042367
C34	C	-1.120453	0.263074	0.000062
C35	C	-1.201631	0.526002	0.000046
C36	C	-1.200181	0.598543	0.000030
C37	C	-1.027447	0.592681	0.000018
C38	C	-1.028900	0.520142	0.000027
C39	C	-1.115995	0.486806	0.000044
N40	N	-1.119053	-0.164395	-0.188616
C41	C	-1.183628	-0.121187	0.226831
C42	C	-1.183634	-0.121184	0.303059
C43	C	-1.119003	-0.164385	0.341173
C44	C	-1.054346	-0.207580	0.303053
C45	C	-1.054335	-0.207576	0.226827
C46	C	-1.106318	-0.226858	0.461924
C47	C	-1.106335	-0.226863	0.538148
C48	C	-1.119030	-0.164396	0.576281
C49	C	-1.131729	-0.101922	0.538178
C50	C	-1.131718	-0.101919	0.461952
C51	C	-1.119007	-0.164394	0.423828
C52	C	-1.183686	-0.121198	0.697046
C53	C	-1.183685	-0.121194	0.773276
C54	C	-1.054402	-0.207596	0.773268
C55	C	-1.054398	-0.207593	0.697040
C56	C	-1.119045	-0.164395	0.658934
H57	H	-0.621016	-0.246280	0.000035
N58	N	-0.988326	-0.251718	0.341970
N59	N	-0.930610	-0.290281	0.307929
H60	H	-0.883977	-0.321453	0.335413
N61	N	-1.251297	0.413440	-0.085729
N62	N	-1.252843	0.405367	-0.153244
H63	H	-1.300043	0.433145	-0.183864
H64	H	-0.617008	-0.082499	0.000064
H65	H	-1.281487	0.051398	0.000097
N66	N	-0.941426	0.480101	0.000042
N67	N	-0.922957	0.438985	0.051093
H68	H	-0.861175	0.410706	0.051103
H69	H	-1.278856	0.182993	0.000078
N70	N	-1.287668	0.638571	0.000029
N71	N	-1.365418	0.608795	0.000042
H72	H	-1.427208	0.637065	0.000041
N73	N	-0.947443	0.179283	0.000057
N74	N	-0.927358	0.219118	0.051102
H75	H	-0.864537	0.243180	0.051103
H76	H	-1.142066	-0.051055	0.569224
H77	H	-1.272549	0.498859	0.000057
H78	H	-1.236323	-0.086021	0.666019
N79	N	-1.254251	0.266815	-0.085700
N80	N	-1.312680	0.301197	-0.123581
H81	H	-1.360945	0.276649	-0.154187
H82	H	-1.236325	-0.086018	0.804306
H83	H	-0.956540	0.619828	0.000009
N84	N	-0.983811	0.404400	0.085845
N85	N	-0.925397	0.370014	0.123734
H86	H	-0.877160	0.394558	0.154370
N87	N	-0.986700	0.257786	0.085822
N88	N	-0.926976	0.288183	0.123695
H89	H	-0.879750	0.260415	0.154301
N90	N	-0.950353	0.032647	0.000045
N91	N	-0.872601	0.062422	0.000032
H92	H	-0.810812	0.034150	0.000023
H93	H	-1.236265	-0.086011	0.195807
H94	H	-1.001692	-0.242749	0.195796
H95	H	-1.236278	-0.086011	0.334095
N96	N	-1.144688	-0.038103	0.423043
N97	N	-1.156025	0.017669	0.457089
H98	H	-1.165182	0.062741	0.429610
H99	H	-1.001775	-0.242768	0.804300
N100	N	-1.093348	-0.290667	0.577076
N101	N	-1.093354	-0.290662	0.645135
H102	H	-1.084178	-0.335725	0.672628
N103	N	-0.988357	-0.251718	0.658118
N104	N	-0.930651	-0.290286	0.692153
H105	H	-0.884003	-0.321449	0.664665
H106	H	-1.095963	-0.277729	0.430883
