data_functionalizedCrystal
_audit_creation_method	'MofGen! by Chris Wilmer'
_symmetry_space_group_name_H-M	'P1'
_symmetry_Int_Tables_number	1
_symmetry_cell_setting	triclinic
loop_
_symmetry_equiv_pos_as_xyz
  x,y,z
_cell_length_a	19.077236
_cell_length_b	16.959454
_cell_length_c	19.076919
_cell_angle_alpha	87.724511
_cell_angle_beta	90.112677
_cell_angle_gamma	92.313014
loop_
_atom_site_label
_atom_site_type_symbol
_atom_site_fract_x
_atom_site_fract_y
_atom_site_fract_z
Zn1	Zn	1.058310	-0.286928	0.440559
Zn2	Zn	1.062959	-0.413600	0.323060
Zn3	Zn	0.945526	-0.286514	0.318339
Zn4	Zn	0.940779	-0.424146	0.435799
O5	O	1.001893	-0.352797	0.379439
O6	O	1.157260	-0.299492	0.428941
O7	O	1.051313	-0.392155	0.224103
O8	O	0.960528	-0.175957	0.334568
O9	O	1.160675	-0.392557	0.342615
O10	O	1.043390	-0.176261	0.424363
O11	O	0.965036	-0.298785	0.220634
O12	O	0.846563	-0.309011	0.329953
O13	O	0.952437	-0.410530	0.534762
O14	O	0.843075	-0.410128	0.416250
O15	O	1.038787	-0.309717	0.538259
O16	O	1.046710	-0.525611	0.337999
O17	O	0.956945	-0.533359	0.420828
C18	C	0.819322	-0.360669	0.372073
C19	C	0.741216	-0.364057	0.368938
C20	C	0.702742	-0.317278	0.412479
C21	C	0.629354	-0.320457	0.409528
C22	C	0.594441	-0.370420	0.363038
C23	C	0.632921	-0.417201	0.319492
C24	C	0.706308	-0.414017	0.322441
C25	C	0.375149	-0.385124	0.349389
C26	C	0.301757	-0.388306	0.346446
C27	C	0.298195	-0.291561	0.436481
C28	C	0.371583	-0.288385	0.439428
C29	C	0.410056	-0.335163	0.395880
N30	N	0.519427	-0.373672	0.360021
N31	N	0.485070	-0.331906	0.398893
C32	C	1.001835	-0.558165	0.379425
C33	C	1.001873	-0.646021	0.379445
C34	C	0.955218	-1.021556	0.422566
C35	C	1.048761	-1.013429	0.336392
C36	C	1.048737	-0.930884	0.336385
C37	C	1.001952	-0.893671	0.379468
C38	C	0.955191	-0.939004	0.422558
C39	C	1.095492	-0.885546	0.293290
C40	C	1.095470	-0.802995	0.293280
C41	C	1.048687	-0.765781	0.336367
C42	C	1.001925	-0.811119	0.379460
C43	C	0.955139	-0.773906	0.422543
C44	C	0.908380	-0.819242	0.465641
C45	C	0.908408	-0.901790	0.465646
C46	C	1.048659	-0.683234	0.336362
C47	C	0.955112	-0.691353	0.422536
C48	C	1.185177	-0.344894	0.386835
C49	C	1.263282	-0.341527	0.389987
C50	C	0.994564	-0.361346	0.562719
C51	C	0.991441	-0.364989	0.640822
C52	C	1.001970	-0.146627	0.379470
C53	C	1.002003	-0.058769	0.379483
C54	C	1.009234	-0.344222	0.196874
C55	C	1.012494	-0.340351	0.118777
C56	C	1.034929	-0.314215	0.679337
C57	C	1.031986	-0.317636	0.752723
C58	C	0.985558	-0.371834	0.787592
C59	C	0.942065	-0.422611	0.749072
C60	C	0.945005	-0.419186	0.675688
C61	C	0.971941	-0.387702	1.006873
C62	C	0.969005	-0.391125	1.080262
C63	C	1.058926	-0.286148	1.083908
C64	C	1.061865	-0.282732	1.010522
C65	C	1.018369	-0.333505	0.972008
N66	N	0.982550	-0.375334	0.862604
N67	N	1.021374	-0.330001	0.896997
H68	H	0.406465	-0.423215	0.313930
H69	H	0.931196	-0.435262	1.108651
O70	O	0.904785	-1.070445	0.469050
H71	H	0.850125	-1.056460	0.454728
H72	H	0.909585	-0.460524	0.644329
H73	H	0.870339	-0.938710	0.500732
O74	O	0.740398	-0.263384	0.462618
H75	H	0.701312	-0.231383	0.492392
O76	O	1.111945	-0.224274	0.972919
H77	H	1.081854	-0.183855	0.938214
O78	O	0.857911	-0.779104	0.512101
H79	H	0.867710	-0.796973	0.567748
O80	O	1.145958	-0.925665	0.246820
H81	H	1.200605	-0.907936	0.261141
O82	O	0.587854	-0.270002	0.456489
H83	H	0.624460	-0.234732	0.489317
H84	H	1.133544	-0.766087	0.258189
O85	O	0.925033	-0.442448	0.965320
H86	H	0.890642	-0.407027	0.930459
O87	O	0.747808	-0.464468	0.275474
H88	H	0.779995	-0.504748	0.308202
O89	O	1.099240	-1.053560	0.289945
H90	H	1.091412	-1.118577	0.297199
O91	O	0.891982	-0.481066	0.786676
H92	H	0.897247	-0.474922	0.844176
O93	O	1.105832	-0.231387	1.125451
H94	H	1.138613	-0.193128	1.088875
H95	H	0.917016	-0.661060	0.457622
H96	H	1.086726	-0.646325	0.301269
O97	O	1.085012	-0.255762	0.641731
H98	H	1.054919	-0.215346	0.607025
H99	H	0.266862	-0.253476	0.471935
O100	O	0.409232	-0.234482	0.489563
H101	H	0.392945	-0.251308	0.544127
O102	O	0.264096	-0.442191	0.296297
H103	H	0.303178	-0.474178	0.266504
H104	H	0.604489	-0.457877	0.281636
O105	O	1.078895	-0.262878	0.794267
H106	H	1.111680	-0.224623	0.757691
