data_functionalizedCrystal
_audit_creation_method	'MofGen! by Chris Wilmer'
_symmetry_space_group_name_H-M	'P1'
_symmetry_Int_Tables_number	1
_symmetry_cell_setting	triclinic
loop_
_symmetry_equiv_pos_as_xyz
  x,y,z
_cell_length_a	13.032831
_cell_length_b	21.395362
_cell_length_c	21.395355
_cell_angle_alpha	90.020549
_cell_angle_beta	97.194272
_cell_angle_gamma	82.833782
loop_
_atom_site_label
_atom_site_type_symbol
_atom_site_fract_x
_atom_site_fract_y
_atom_site_fract_z
Zn1	Zn	1.597625	-0.371368	0.475674
Zn2	Zn	1.597465	-0.476116	0.370881
Zn3	Zn	1.422854	-0.358038	0.357628
Zn4	Zn	1.422805	-0.462778	0.462346
O5	O	1.510187	-0.417075	0.416632
O6	O	1.743842	-0.396424	0.472897
O7	O	1.574256	-0.460456	0.281441
O8	O	1.446125	-0.272135	0.373318
O9	O	1.743725	-0.473382	0.395906
O10	O	1.574529	-0.281929	0.460046
O11	O	1.445970	-0.373704	0.271704
O12	O	1.276609	-0.360771	0.360395
O13	O	1.446042	-0.450649	0.551796
O14	O	1.276573	-0.437723	0.437331
O15	O	1.574481	-0.383491	0.561587
O16	O	1.574209	-0.562018	0.382982
O17	O	1.445887	-0.552218	0.450182
C18	C	1.238673	-0.396354	0.395979
C19	C	1.122518	-0.387504	0.387159
C20	C	1.510054	-0.579852	0.416590
C21	C	1.510092	-0.649497	0.416600
C22	C	1.576914	-0.687250	0.461785
C23	C	1.576950	-0.752688	0.461803
C24	C	1.510177	-0.780371	0.416626
C25	C	1.443342	-0.742610	0.371437
C26	C	1.443300	-0.677172	0.371424
C27	C	1.502042	-0.883451	0.359569
C28	C	1.502092	-0.948888	0.359581
C29	C	1.510301	-0.982202	0.416666
C30	C	1.518482	-0.950072	0.473741
C31	C	1.518440	-0.884635	0.473728
C32	C	1.510214	-0.851327	0.416635
C33	C	1.577166	-1.090910	0.461874
C34	C	1.577195	-1.156349	0.461892
C35	C	1.443592	-1.146270	0.371521
C36	C	1.443557	-1.080832	0.371508
C37	C	1.510350	-1.053157	0.416684
C38	C	1.070742	-0.421694	0.421236
C39	C	0.950690	-0.412548	0.412120
C40	C	1.782762	-0.437878	0.437366
C41	C	1.898917	-0.446743	0.446202
C42	C	1.510274	-0.417069	0.580062
C43	C	1.510311	-0.417066	0.649706
C44	C	1.510350	-0.253664	0.416691
C45	C	1.510419	-0.184028	0.416715
C46	C	1.510161	-0.417040	0.253843
C47	C	1.510327	-0.416882	0.184214
C48	C	1.577187	-0.382095	0.687519
C49	C	1.577185	-0.382068	0.752954
C50	C	1.510319	-0.417024	0.780575
C51	C	1.443431	-0.451997	0.742754
C52	C	1.443427	-0.452018	0.677319
C53	C	1.502021	-0.472807	0.883608
C54	C	1.502033	-0.472787	0.949042
C55	C	1.510326	-0.416959	0.982397
C56	C	1.518629	-0.361149	0.950311
C57	C	1.518625	-0.361170	0.884876
C58	C	1.510316	-0.417005	0.851527
C59	C	1.577203	-0.381955	1.091162
C60	C	1.577195	-0.381926	1.156598
C61	C	1.443445	-0.451861	1.146397
C62	C	1.443449	-0.451884	1.080962
C63	C	1.510333	-0.416932	1.053348
H64	H	1.631297	-0.664718	0.498571
Br65	Br	1.144986	-0.481771	0.481111
Br66	Br	0.876450	-0.352465	0.352246
H67	H	1.525099	-0.858476	0.520200
Br68	Br	0.973154	-0.506809	0.506094
H69	H	1.077967	-0.351459	0.351238
H70	H	1.631648	-0.353634	0.665040
H71	H	1.631641	-0.353587	0.783747
H72	H	1.525383	-0.315728	0.858755
Br73	Br	1.529893	-0.285377	0.995570
H74	H	1.631659	-0.353491	1.068678
Br75	Br	1.352863	-1.029592	0.310183
H76	H	1.389217	-1.168809	0.334741
Br77	Br	1.352658	-0.499482	0.625999
H78	H	1.495436	-0.975043	0.313108
Br79	Br	1.352603	-0.625932	0.310099
Br80	Br	1.491048	-0.838258	0.282094
H81	H	1.388985	-0.480457	0.765247
Br82	Br	1.667979	-0.334472	1.207918
H83	H	1.388991	-0.480316	1.168884
Br84	Br	1.352685	-0.499349	1.029641
H85	H	1.495278	-0.518231	0.975162
H86	H	1.631356	-0.783431	0.498605
Br87	Br	1.529633	-0.995275	0.551218
Br88	Br	1.490797	-0.548585	0.838350
H89	H	1.631549	-1.068376	0.498660
H90	H	1.631609	-1.187087	0.498690
Br91	Br	1.352710	-0.780177	0.310130
