data_functionalizedCrystal
_audit_creation_method	'MofGen! by Chris Wilmer'
_symmetry_space_group_name_H-M	'P1'
_symmetry_Int_Tables_number	1
_symmetry_cell_setting	triclinic
loop_
_symmetry_equiv_pos_as_xyz
  x,y,z
_cell_length_a	14.519731
_cell_length_b	14.519731
_cell_length_c	16.776229
_cell_angle_alpha	89.992369
_cell_angle_beta	89.992771
_cell_angle_gamma	83.688853
loop_
_atom_site_label
_atom_site_type_symbol
_atom_site_fract_x
_atom_site_fract_y
_atom_site_fract_z
O1	O	1.223868	0.120986	-0.066292
O2	O	0.955395	0.135202	-0.066293
O3	O	1.096739	-0.006143	-0.066285
O4	O	1.082523	0.262330	-0.066300
O5	O	1.096720	-0.006152	0.066291
O6	O	0.955376	0.135193	0.066283
O7	O	1.223849	0.120977	0.066285
Zn8	Zn	1.089610	0.128084	0.087333
Zn9	Zn	1.089634	0.128095	-0.087342
O10	O	1.082505	0.262322	0.066277
C11	C	0.921026	0.134531	-0.000005
C12	C	0.818645	0.132535	-0.000005
C13	C	0.735501	0.130913	-0.000008
C14	C	0.631192	0.128887	-0.000009
C15	C	0.548053	0.127278	-0.000009
C16	C	0.443738	0.125252	-0.000010
C17	C	1.096064	-0.040507	0.000003
C18	C	1.094068	-0.142887	0.000004
C19	C	1.092446	-0.226031	0.000002
C20	C	1.090419	-0.330340	-0.000004
C21	C	1.088811	-0.413479	-0.000009
C22	C	1.086785	-0.517795	-0.000014
C23	C	1.258218	0.121648	-0.000005
C24	C	1.360598	0.123644	-0.000010
C25	C	1.083180	0.296685	-0.000013
C26	C	1.085176	0.399066	-0.000019
N27	N	1.089599	0.128075	0.206545
N28	N	1.089652	0.128096	-0.206553
C29	C	1.152206	0.065514	0.248265
C30	C	1.152211	0.065513	0.331717
C31	C	1.089613	0.128079	0.373448
C32	C	1.027000	0.190643	0.331721
C33	C	1.026991	0.190639	0.248270
C34	C	1.027033	0.190662	0.668268
C35	C	1.027049	0.190663	0.751725
C36	C	1.152253	0.065535	0.751715
C37	C	1.152244	0.065531	0.668265
C38	C	1.089628	0.128092	0.626545
C39	C	1.089622	0.128091	0.536057
C40	C	1.089623	0.128085	0.463934
H41	H	1.203189	0.014570	0.365686
H42	H	1.203220	0.014587	0.634291
O43	O	1.213031	0.004626	0.792157
C44	C	1.266762	-0.155610	0.817737
C45	C	1.197897	-0.086736	0.771875
H46	H	1.254537	-0.229491	0.801369
H47	H	1.340662	-0.143500	0.801301
H48	H	1.256026	-0.144818	0.884545
H49	H	1.208548	-0.097487	0.705057
H50	H	1.124021	-0.098864	0.788377
H51	H	0.976071	0.241613	0.785700
O52	O	0.966181	0.251524	0.627873
C53	C	0.841958	0.375604	0.636696
C54	C	0.910841	0.306737	0.682547
H55	H	0.797184	0.420248	0.680881
H56	H	0.881793	0.421831	0.597632
H57	H	0.795857	0.335662	0.597623
H58	H	0.956959	0.346604	0.721664
H59	H	0.870948	0.260511	0.721562
H60	H	0.976010	0.241582	0.214302
H61	H	0.976027	0.241583	0.365702
H62	H	1.203184	0.014569	0.214294
