data_functionalizedCrystal
_audit_creation_method	'MofGen! by Chris Wilmer'
_symmetry_space_group_name_H-M	'P1'
_symmetry_Int_Tables_number	1
_symmetry_cell_setting	triclinic
loop_
_symmetry_equiv_pos_as_xyz
  x,y,z
_cell_length_a	12.837943
_cell_length_b	10.489741
_cell_length_c	11.892095
_cell_angle_alpha	93.929268
_cell_angle_beta	85.689438
_cell_angle_gamma	89.684057
loop_
_atom_site_label
_atom_site_type_symbol
_atom_site_fract_x
_atom_site_fract_y
_atom_site_fract_z
O1	O	1.384503	0.324530	-0.093982
O2	O	1.884503	0.824530	0.406018
O3	O	1.082575	0.308135	-0.093989
O4	O	1.582575	0.808135	0.406011
O5	O	1.240409	0.131493	-0.093979
O6	O	1.740409	0.631493	0.406021
O7	O	1.226669	0.501172	-0.093992
O8	O	1.726669	1.001172	0.406008
O9	O	1.227249	0.146196	0.094028
O10	O	1.727249	0.646196	0.594028
O11	O	1.069415	0.322838	0.094018
O12	O	1.569415	0.822838	0.594018
O13	O	1.371343	0.339233	0.094024
O14	O	1.871343	0.839233	0.594024
Zn15	Zn	1.218290	0.333370	0.123871
Zn16	Zn	1.718290	0.833370	0.623871
Zn17	Zn	1.235629	0.313998	-0.123836
Zn18	Zn	1.735629	0.813998	0.376164
O19	O	1.213509	0.515875	0.094014
O20	O	1.713509	1.015875	0.594014
C21	C	1.037334	0.309948	0.000014
C22	C	1.537334	0.809948	0.500014
C23	C	0.922133	0.293430	0.000011
C24	C	1.422133	0.793430	0.500011
C25	C	0.682657	0.492006	0.000020
C26	C	1.182657	0.992006	0.500020
C27	C	0.574415	0.476492	0.000019
C28	C	1.074415	0.976492	0.500019
C29	C	0.597406	0.246889	0.000015
C30	C	1.097406	0.746889	0.500015
C31	C	0.705648	0.262403	0.000016
C32	C	1.205648	0.762403	0.500016
C33	C	0.748269	0.384966	0.000017
C34	C	1.248269	0.884966	0.500017
C35	C	0.856513	0.400478	0.000011
C36	C	1.356513	0.900478	0.500011
C37	C	0.879501	0.170877	0.000015
C38	C	1.379501	0.670877	0.500015
C39	C	0.771260	0.155363	0.000014
C40	C	1.271260	0.655363	0.500014
C41	C	1.232791	0.091198	0.000024
C42	C	1.732791	0.591198	0.500024
C43	C	1.229687	-0.050774	0.000022
C44	C	1.729687	0.449226	0.500022
C45	C	1.129262	-0.129987	0.000011
C46	C	1.629262	0.370013	0.500011
C47	C	1.170213	-0.209630	0.092709
C48	C	1.670213	0.290370	0.592709
C49	C	1.183212	-0.224098	-0.092650
C50	C	1.683212	0.275902	0.407350
C51	C	1.270674	-0.128541	0.092796
C52	C	1.770674	0.371459	0.592796
C53	C	1.283664	-0.143007	-0.092647
C54	C	1.783664	0.356993	0.407353
C55	C	1.324687	-0.222613	0.000074
C56	C	1.824687	0.277387	0.500074
C57	C	1.416585	0.337420	0.000019
C58	C	1.916585	0.837420	0.500019
C59	C	1.531786	0.353937	0.000014
C60	C	2.031786	0.853937	0.500014
C61	C	1.221127	0.556170	0.000009
C62	C	1.721127	1.056170	0.500009
C63	C	1.224233	0.698141	0.000004
C64	C	1.724233	1.198141	0.500004
N65	N	1.206464	0.346591	0.292925
N66	N	1.706464	0.846591	0.792925
N67	N	1.247463	0.300768	-0.292889
N68	N	1.747463	0.800768	0.207111
C69	C	1.329751	0.208698	0.529580
C70	C	1.829751	0.708698	1.029580
C71	C	1.321493	0.217950	0.647922
C72	C	1.821493	0.717950	1.147922
C73	C	1.181684	0.374338	0.647951
C74	C	1.681684	0.874338	1.147951
C75	C	1.189943	0.365086	0.529609
C76	C	1.689943	0.865086	1.029609
C77	C	1.263980	0.282265	0.470428
C78	C	1.763980	0.782265	0.970428
C79	C	1.272243	0.273021	0.352085
C80	C	1.772243	0.773021	0.852085
C81	C	1.132429	0.429402	0.352116
C82	C	1.632429	0.929402	0.852116
C83	C	1.124171	0.438653	0.470457
C84	C	1.624171	0.938653	0.970457
H85	H	0.562678	0.147112	0.000108
H86	H	1.062678	0.647112	0.500108
H87	H	0.736541	0.055577	0.000026
H88	H	1.236541	0.555577	0.500026
H89	H	0.520997	0.563656	0.000024
H90	H	1.020997	1.063656	0.500024
H91	H	0.932936	0.083716	0.000005
H92	H	1.432936	0.583716	0.500005
H93	H	1.046687	-0.089432	0.000103
H94	H	1.546687	0.410568	0.500103
H95	H	1.146193	-0.265877	-0.171027
H96	H	1.646193	0.234123	0.328973
H97	H	1.122235	-0.239197	0.171077
H98	H	1.622235	0.260803	0.671077
H99	H	1.307637	-0.086892	0.171253
H100	H	1.807637	0.413108	0.671253
H101	H	1.332530	0.205588	0.303901
H102	H	1.832530	0.705588	0.803901
H103	H	1.407327	-0.262921	0.000127
H104	H	1.907327	0.237079	0.500127
H105	H	1.390042	0.141271	0.481394
H106	H	1.890042	0.641271	0.981394
H107	H	1.331606	-0.113411	-0.171018
H108	H	1.831606	0.386589	0.328982
H109	H	1.375049	0.158043	0.696080
H110	H	1.875049	0.658043	1.196080
H111	H	1.121398	0.441759	0.696151
H112	H	1.621398	0.941759	1.196151
H113	H	1.063888	0.506081	0.518656
H114	H	1.563888	1.006081	1.018656
H115	H	0.891213	0.500275	0.000013
H116	H	1.391213	1.000275	0.500013
H117	H	0.717359	0.591801	0.000019
H118	H	1.217359	1.091801	0.500019
H119	H	1.078877	0.489309	0.303941
H120	H	1.578877	0.989309	0.803941
