data_functionalizedCrystal
_audit_creation_method	'MofGen! by Chris Wilmer'
_symmetry_space_group_name_H-M	'P1'
_symmetry_Int_Tables_number	1
_symmetry_cell_setting	triclinic
loop_
_symmetry_equiv_pos_as_xyz
  x,y,z
_cell_length_a	16.109301
_cell_length_b	8.559649
_cell_length_c	14.586319
_cell_angle_alpha	89.997976
_cell_angle_beta	89.999213
_cell_angle_gamma	76.620073
loop_
_atom_site_label
_atom_site_type_symbol
_atom_site_fract_x
_atom_site_fract_y
_atom_site_fract_z
O1	O	1.090046	0.205389	-0.076179
O2	O	0.846355	0.230950	-0.076193
O3	O	0.989670	-0.014444	-0.076183
O4	O	0.946731	0.450783	-0.076188
O5	O	0.989661	-0.014447	0.076297
O6	O	0.846347	0.230946	0.076288
O7	O	1.090037	0.205386	0.076302
Cu8	Cu	0.968191	0.218165	0.090218
Cu9	Cu	0.968201	0.218170	-0.090108
O10	O	0.946722	0.450779	0.076293
C11	C	0.815442	0.229912	0.000046
C12	C	0.723344	0.226808	0.000040
C13	C	0.992919	-0.073977	0.000055
C14	C	1.002605	-0.251362	0.000051
C15	C	0.492255	0.365202	0.000050
C16	C	0.405721	0.362273	0.000056
C17	C	0.444145	0.071122	0.000054
C18	C	0.530677	0.074053	0.000055
C19	C	0.554729	0.221098	0.000048
C20	C	0.381663	0.215238	0.000053
C21	C	0.287840	0.212061	0.000060
C22	C	0.648558	0.224275	0.000043
C23	C	1.120950	0.206423	0.000062
C24	C	1.213048	0.209527	0.000061
C25	C	0.943473	0.510312	0.000052
C26	C	0.933787	0.687697	0.000051
N27	N	0.968190	0.218161	0.217050
N28	N	0.968210	0.218161	-0.216940
C29	C	1.031666	0.109538	0.452060
C30	C	1.031669	0.109534	0.548041
C31	C	0.904727	0.326790	0.548043
C32	C	0.904722	0.326785	0.452063
C33	C	0.968196	0.218161	0.404074
C34	C	0.968204	0.218162	0.596035
C35	C	0.968206	0.218158	0.700102
C36	C	0.968193	0.218162	0.300001
H37	H	0.354857	0.479618	0.000059
H38	H	0.581547	-0.043302	0.000056
H39	H	0.853033	0.415240	0.412990
H40	H	0.511835	0.484935	0.000051
H41	H	0.867458	-0.228771	0.000050
N42	N	0.836274	0.443942	0.599810
H43	H	0.863527	0.514713	0.639624
H44	H	0.796083	0.512645	0.554789
N45	N	1.090474	-0.362003	0.000071
H46	H	1.085175	-0.477290	0.000078
H47	H	1.122520	-0.341298	-0.056455
H48	H	1.083351	0.021081	0.587109
N49	N	0.418202	-0.087470	0.000067
H50	H	0.353904	-0.067463	0.000066
H51	H	0.441717	-0.150530	-0.056457
N52	N	1.100122	-0.007617	0.400299
H53	H	1.140329	-0.076431	0.445265
H54	H	1.072805	-0.078278	0.360481
