data_functionalizedCrystal
_audit_creation_method	'MofGen! by Chris Wilmer'
_symmetry_space_group_name_H-M	'P1'
_symmetry_Int_Tables_number	1
_symmetry_cell_setting	triclinic
loop_
_symmetry_equiv_pos_as_xyz
  x,y,z
_cell_length_a	14.971486
_cell_length_b	18.266242
_cell_length_c	14.971494
_cell_angle_alpha	90.003404
_cell_angle_beta	83.615843
_cell_angle_gamma	90.003985
loop_
_atom_site_label
_atom_site_type_symbol
_atom_site_fract_x
_atom_site_fract_y
_atom_site_fract_z
O1	O	1.186954	0.060794	0.116562
O2	O	0.926554	0.060814	0.130521
O3	O	1.063730	0.060802	-0.006658
O4	O	1.049779	0.060806	0.253741
O5	O	1.063706	-0.060960	-0.006662
O6	O	0.926531	-0.060948	0.130517
O7	O	1.186931	-0.060968	0.116558
Zn8	Zn	1.056727	-0.080291	0.123537
Zn9	Zn	1.056758	0.080136	0.123542
O10	O	1.049755	-0.060956	0.253737
C11	C	0.893218	-0.000065	0.129895
C12	C	0.793921	-0.000057	0.128024
N13	N	1.056712	-0.189778	0.123533
C14	C	0.736698	-0.000057	0.208613
C15	C	0.643398	-0.000068	0.206850
C16	C	0.607323	-0.000074	0.124497
C17	C	0.664554	-0.000077	0.043902
C18	C	0.757851	-0.000071	0.045666
C19	C	0.470091	-0.000087	0.040231
C20	C	0.376787	-0.000091	0.038466
C21	C	0.355638	-0.000084	0.201415
C22	C	0.448936	-0.000078	0.203179
C23	C	0.506159	-0.000079	0.122583
C24	C	1.111011	-0.228084	0.177876
C25	C	1.111026	-0.304729	0.177874
C26	C	1.056725	-0.343064	0.123538
C27	C	1.002423	-0.304749	0.069184
C28	C	1.002417	-0.228106	0.069181
N29	N	0.978380	-0.463411	0.121012
N30	N	0.978388	-0.536219	0.121019
C31	C	1.056743	-0.573987	0.123542
N32	N	1.135090	-0.536196	0.126073
N33	N	1.135080	-0.463381	0.126070
C34	C	1.056727	-0.426171	0.123535
C35	C	1.111063	-0.695400	0.177885
C36	C	1.111080	-0.772046	0.177876
C37	C	1.002468	-0.772065	0.069191
C38	C	1.002460	-0.695421	0.069195
C39	C	1.056756	-0.657093	0.123547
C40	C	1.220267	-0.000088	0.117184
C41	C	1.319564	-0.000091	0.119055
C42	C	1.063093	-0.000078	-0.039985
C43	C	1.061219	-0.000075	-0.139281
N44	N	1.056779	0.189623	0.123539
C45	C	1.060353	0.066299	-0.185924
C46	C	1.058587	0.066300	-0.279223
C47	C	1.057693	-0.000073	-0.325879
C48	C	1.058556	-0.066452	-0.279229
C49	C	1.060315	-0.066452	-0.185931
C50	C	1.054890	-0.066447	-0.473692
C51	C	1.053131	-0.066447	-0.566997
C52	C	1.053161	0.066305	-0.566984
C53	C	1.054921	0.066305	-0.473686
C54	C	1.055786	-0.000074	-0.427043
C55	C	1.050392	-0.000075	0.287064
C56	C	1.052266	-0.000073	0.386360
H57	H	0.766062	-0.000052	0.275674
Br58	Br	0.497894	-0.000059	0.314944
Br59	Br	0.928734	-0.356774	-0.004564
Br60	Br	1.057411	0.156382	-0.342520
Br61	Br	0.835513	-0.000078	-0.063709
H62	H	1.155243	-0.335924	0.222129
Br63	Br	1.184785	-0.824035	0.251628
Br64	Br	0.547752	-0.000092	-0.069150
H65	H	1.061087	0.120347	-0.147944
Br66	Br	0.928715	-0.176115	-0.004573
H67	H	1.061008	-0.120500	-0.147954
Br68	Br	1.184677	-0.176070	0.251660
H69	H	1.155274	-0.664192	0.222141
H70	H	0.309041	-0.000086	0.267038
H71	H	0.347418	-0.000097	-0.028593
Br72	Br	0.615596	-0.000092	-0.067865
H73	H	0.958256	-0.803278	0.024949
H74	H	0.596810	-0.000067	0.272473
H75	H	0.958240	-0.664231	0.024946
Br76	Br	1.056147	0.156384	-0.410369
Br77	Br	1.056064	-0.156533	-0.410392
H78	H	1.052456	0.120353	-0.604965
Br79	Br	1.051922	-0.156525	-0.630316
H80	H	1.057822	-0.120494	-0.317223
