data_functionalizedCrystal
_audit_creation_method	'MofGen! by Chris Wilmer'
_symmetry_space_group_name_H-M	'P1'
_symmetry_Int_Tables_number	1
_symmetry_cell_setting	triclinic
loop_
_symmetry_equiv_pos_as_xyz
  x,y,z
_cell_length_a	16.994737
_cell_length_b	21.395362
_cell_length_c	21.395361
_cell_angle_alpha	90.046585
_cell_angle_beta	90.035263
_cell_angle_gamma	90.031548
loop_
_atom_site_label
_atom_site_type_symbol
_atom_site_fract_x
_atom_site_fract_y
_atom_site_fract_z
Zn1	Zn	-0.446386	-0.957783	0.249161
Zn2	Zn	-0.314470	-0.957708	0.353946
Zn3	Zn	-0.314450	-0.853020	0.249215
Zn4	Zn	-0.446287	-0.852967	0.353933
O5	O	-0.380398	-0.905370	0.301564
O6	O	-0.428936	-1.045451	0.263043
O7	O	-0.204086	-0.943812	0.340081
O8	O	-0.331985	-0.866971	0.161530
O9	O	-0.332019	-1.045396	0.340028
O10	O	-0.428917	-0.943940	0.161490
O11	O	-0.204072	-0.866899	0.263135
O12	O	-0.331889	-0.765335	0.263124
O13	O	-0.556681	-0.866880	0.340007
O14	O	-0.428749	-0.765296	0.340060
O15	O	-0.556754	-0.943888	0.263031
O16	O	-0.331923	-0.943760	0.441622
O17	O	-0.428768	-0.866807	0.441613
C18	C	-0.380307	-0.742582	0.301597
C19	C	-0.380286	-0.672941	0.301626
C20	C	-0.675459	-0.905407	0.301497
C21	C	-0.586137	-0.905390	0.301517
Zn22	Zn	-0.946334	-0.957942	0.353664
Zn23	Zn	-0.946340	-0.853056	0.249132
Zn24	Zn	-0.814444	-0.853143	0.353932
Zn25	Zn	-0.814477	-0.957760	0.248961
O26	O	-0.880399	-0.905475	0.301422
O27	O	-1.056716	-0.944068	0.339756
O28	O	-0.928833	-0.765389	0.263217
O29	O	-0.831923	-0.867157	0.441574
O30	O	-1.056720	-0.867008	0.262957
O31	O	-0.928822	-0.944152	0.441377
O32	O	-0.831929	-0.765453	0.340214
O33	O	-0.704067	-0.866981	0.340048
O34	O	-0.831979	-1.045462	0.262666
O35	O	-0.704091	-0.943843	0.262927
O36	O	-0.928854	-1.045595	0.339591
O37	O	-0.928864	-0.866832	0.161431
O38	O	-0.831985	-0.943758	0.161306
C39	C	-0.175458	-0.905388	0.301565
C40	C	-0.086137	-0.905504	0.301408
C41	C	-0.380354	-0.905287	0.464351
C42	C	-0.380362	-0.905309	0.533992
C43	C	-0.380491	-1.068793	0.301531
C44	C	-0.380530	-1.138434	0.301517
C45	C	-0.430646	-0.640223	0.341740
C46	C	-0.430681	-0.574788	0.341724
C47	C	-0.380343	-0.542072	0.301602
C48	C	-0.329980	-0.574797	0.261480
C49	C	-0.329951	-0.640232	0.261492
C50	C	-0.309332	-0.438360	0.296568
C51	C	-0.309359	-0.372927	0.296560
C52	C	-0.380430	-0.340252	0.301561
C53	C	-0.451476	-0.373017	0.306582
C54	C	-0.451448	-0.438452	0.306595
C55	C	-0.380368	-0.471120	0.301584
C56	C	-0.430831	-0.236582	0.341660
C57	C	-0.430868	-0.171145	0.341640
C58	C	-0.330160	-0.171156	0.261400
C59	C	-0.330130	-0.236591	0.261416
C60	C	-0.380465	-0.269300	0.301550
C61	C	-0.380460	-0.905470	0.138140
C62	C	-0.380486	-0.905512	0.068499
C63	C	-0.329986	-0.945414	0.566689
C64	C	-0.330004	-0.945443	0.632125
C65	C	-0.380389	-0.905356	0.664861
C66	C	-0.430775	-0.865248	0.632156
C67	C	-0.430761	-0.865225	0.566722
C68	C	-0.386546	-0.848940	0.768590
C69	C	-0.386554	-0.848963	0.834023
C70	C	-0.380435	-0.905429	0.866681
C71	C	-0.374292	-0.961874	0.833899
C72	C	-0.374278	-0.961851	0.768464
C73	C	-0.380410	-0.905377	0.735813
C74	C	-0.330076	-0.945569	0.970331
C75	C	-0.330099	-0.945599	1.035767
C76	C	-0.430866	-0.865399	1.035797
C77	C	-0.430847	-0.865374	0.970362
C78	C	-0.380448	-0.905458	0.937633
C79	C	-0.880430	-0.905264	0.138635
C80	C	-0.880463	-0.905153	0.068994
C81	C	-0.880419	-1.068898	0.301080
C82	C	-0.880428	-1.138539	0.300934
C83	C	-0.880321	-0.905722	0.464845
C84	C	-0.880169	-0.905922	0.534486
C85	C	-0.880422	-0.742688	0.301807
C86	C	-0.880561	-0.673047	0.302126
C87	C	-0.930967	-0.865082	0.036373
C88	C	-0.931014	-0.864978	-0.029062
C89	C	-0.880554	-0.904942	-0.061876
C90	C	-0.830049	-0.945017	-0.029250
C91	C	-0.830006	-0.945124	0.036184
C92	C	-0.930870	-1.171317	0.340920
C93	C	-0.930879	-1.236752	0.340796
C94	C	-0.880449	-1.269409	0.300680
C95	C	-0.830001	-1.236627	0.260692
C96	C	-0.829989	-1.171193	0.260820
C97	C	-0.829641	-0.865929	0.567296
C98	C	-0.829481	-0.866117	0.632731
C99	C	-0.879854	-0.906296	0.665354
C100	C	-0.930384	-0.946294	0.632540
C101	C	-0.930539	-0.946108	0.567106
C102	C	-0.829809	-0.640403	0.342076
C103	C	-0.829940	-0.574968	0.342388
C104	C	-0.880819	-0.542179	0.302746
C105	C	-0.931577	-0.574827	0.262794
C106	C	-0.931449	-0.640261	0.262485
H107	H	-0.471634	-0.666851	0.374419
H108	H	-0.251454	-0.464959	0.292493
H109	H	-0.289040	-0.978210	0.943682
H110	H	-0.369278	-1.007810	0.741774
Cl111	Cl	-0.394240	-0.777947	0.727541
H112	H	-0.972141	-0.832343	-0.055617
Cl113	Cl	-0.494120	-0.814856	0.673309
H114	H	-0.391549	-0.803001	0.860710
Cl115	Cl	-0.494095	-0.814802	0.525615
Cl116	Cl	-0.994072	-0.996387	0.525867
H117	H	-0.788334	-0.833544	0.659439
H118	H	-0.972064	-0.832541	0.063081
H119	H	-0.788943	-1.263226	0.228032
Cl120	Cl	-0.766303	-0.815415	0.526298
Cl121	Cl	-0.366591	-1.032865	0.874947
H122	H	-0.289079	-0.978261	1.062388
H123	H	-0.880597	-0.904849	-0.115156
H124	H	-0.788966	-0.977556	-0.055975
H125	H	-0.880467	-1.322690	0.300582
Cl126	Cl	-0.880969	-0.459918	0.303141
Cl127	Cl	-0.993710	-0.996798	0.673562
Cl128	Cl	-0.995535	-0.533597	0.212961
Cl129	Cl	-0.766505	-0.995500	0.077185
Cl130	Cl	-0.494213	-0.815008	1.076945
Cl131	Cl	-0.766576	-1.129995	0.210541
Cl132	Cl	-0.765844	-0.681610	0.391923
H133	H	-0.971940	-1.144736	0.373587
H134	H	-0.509349	-0.346415	0.310653
H135	H	-0.879720	-0.906441	0.718635
Cl136	Cl	-0.766119	-0.533938	0.392613
Cl137	Cl	-0.266668	-0.995863	0.673238
Cl138	Cl	-0.994306	-1.277950	0.391068
H139	H	-0.972776	-0.666835	0.229949
H140	H	-0.471693	-0.548145	0.374390
Cl141	Cl	-0.266701	-0.533670	0.211037
Cl142	Cl	-0.220045	-0.331742	0.290247
Cl143	Cl	-0.494176	-0.814951	0.929255
H144	H	-0.509296	-0.465127	0.310681
H145	H	-0.471821	-0.263215	0.374336
H146	H	-0.288943	-0.666870	0.228825
H147	H	-0.471881	-0.144508	0.374305
H148	H	-0.289177	-0.144519	0.228728
H149	H	-0.288950	-0.978054	0.540043
Cl150	Cl	-0.266815	-0.277724	0.210986
