data_functionalizedCrystal
_audit_creation_method	'MofGen! by Chris Wilmer'
_symmetry_space_group_name_H-M	'P1'
_symmetry_Int_Tables_number	1
_symmetry_cell_setting	triclinic
loop_
_symmetry_equiv_pos_as_xyz
  x,y,z
_cell_length_a	19.805407
_cell_length_b	12.827892
_cell_length_c	19.805399
_cell_angle_alpha	89.977471
_cell_angle_beta	90.019197
_cell_angle_gamma	89.988458
loop_
_atom_site_label
_atom_site_type_symbol
_atom_site_fract_x
_atom_site_fract_y
_atom_site_fract_z
Zn1	Zn	-1.034787	-0.416165	-0.382737
Zn2	Zn	-0.534787	0.083835	0.117263
Zn3	Zn	-1.034724	-0.590920	-0.269558
Zn4	Zn	-0.534724	-0.090920	0.230442
Zn5	Zn	-0.921602	-0.416182	-0.269562
Zn6	Zn	-0.421602	0.083818	0.230438
Zn7	Zn	-0.921587	-0.590853	-0.382706
Zn8	Zn	-0.421587	-0.090853	0.117294
O9	O	-0.978175	-0.503530	-0.326141
O10	O	-0.478175	-0.003530	0.173859
O11	O	-1.129496	-0.439367	-0.367735
O12	O	-0.629496	0.060633	0.132265
O13	O	-1.019698	-0.567776	-0.174842
O14	O	-0.519698	-0.067776	0.325158
O15	O	-0.936649	-0.269943	-0.284589
O16	O	-0.436649	0.230057	0.215411
O17	O	-1.129449	-0.567759	-0.284583
O18	O	-0.629449	-0.067759	0.215417
O19	O	-1.019806	-0.269931	-0.367738
O20	O	-0.519806	0.230069	0.132262
O21	O	-0.936588	-0.439396	-0.174845
O22	O	-0.436588	0.060604	0.325155
O23	O	-0.826884	-0.439331	-0.284559
O24	O	-0.326884	0.060669	0.215441
O25	O	-0.936624	-0.567645	-0.477427
O26	O	-0.436624	-0.067645	0.022573
O27	O	-0.826873	-0.567661	-0.367686
O28	O	-0.326873	-0.067661	0.132314
O29	O	-1.019792	-0.439302	-0.477449
O30	O	-0.519792	0.060698	0.022551
O31	O	-1.019684	-0.737147	-0.284553
O32	O	-0.519684	-0.237147	0.215447
O33	O	-0.936563	-0.737098	-0.367682
O34	O	-0.436563	-0.237098	0.132318
C35	C	-0.802319	-0.503491	-0.326120
C36	C	-0.302319	-0.003491	0.173880
C37	C	-0.727087	-0.503500	-0.326127
C38	C	-0.227087	-0.003500	0.173873
C39	C	-0.691768	-0.436764	-0.369489
C40	C	-0.191768	0.063236	0.130511
C41	C	-0.621080	-0.436767	-0.369490
C42	C	-0.121080	0.063233	0.130510
C43	C	-0.585712	-0.503513	-0.326132
C44	C	-0.085712	-0.003513	0.173868
C45	C	-0.621036	-0.570252	-0.282765
C46	C	-0.121036	-0.070252	0.217235
C47	C	-0.691723	-0.570243	-0.282761
C48	C	-0.191723	-0.070243	0.217239
C49	C	-0.335963	-0.570290	-0.282779
C50	C	0.164037	-0.070290	0.217221
C51	C	-0.265271	-0.570297	-0.282787
C52	C	0.234729	-0.070297	0.217213
C53	C	-0.265319	-0.436814	-0.369508
C54	C	0.234681	0.063186	0.130492
C55	C	-0.336006	-0.436805	-0.369504
C56	C	0.163994	0.063195	0.130496
C57	C	-0.371324	-0.503540	-0.326135
C58	C	0.128676	-0.003540	0.173865
C59	C	-0.447973	-0.503534	-0.326134
C60	C	0.052027	-0.003534	0.173866
C61	C	-0.509065	-0.503525	-0.326136
C62	C	-0.009065	-0.003525	0.173864
C63	C	-0.978133	-0.775040	-0.326129
C64	C	-0.478133	-0.275040	0.173871
C65	C	-0.978177	-0.891193	-0.326146
C66	C	-0.478177	-0.391193	0.173854
C67	C	-0.978213	-0.503464	-0.502683
C68	C	-0.478213	-0.003464	-0.002683
C69	C	-0.978229	-0.503436	-0.577915
C70	C	-0.478229	-0.003436	-0.077915
C71	C	-0.154718	-0.503561	-0.326156
C72	C	0.345282	-0.003561	0.173844
C73	C	-0.229950	-0.503554	-0.326147
C74	C	0.270050	-0.003554	0.173853
C75	C	-0.937082	-1.063032	-0.367268
C76	C	-0.437082	-0.563032	0.132732
C77	C	-0.937036	-0.942981	-0.367251
C78	C	-0.437036	-0.442981	0.132749
C79	C	-0.978236	-0.230960	-0.326167
C80	C	-0.478236	0.269040	0.173833
C81	C	-0.978262	-0.114806	-0.326179
C82	C	-0.478262	0.385194	0.173821
C83	C	-1.021536	-0.436605	-0.613273
C84	C	-0.521536	0.063395	-0.113273
C85	C	-1.021543	-0.436574	-0.683961
C86	C	-0.521543	0.063426	-0.183961
C87	C	-0.978246	-0.503381	-0.719291
C88	C	-0.478246	-0.003381	-0.219291
C89	C	-0.934935	-0.570215	-0.683929
C90	C	-0.434935	-0.070215	-0.183929
C91	C	-0.934925	-0.570240	-0.613242
C92	C	-0.434925	-0.070240	-0.113242
C93	C	-0.934973	-0.570118	-0.969003
C94	C	-0.434973	-0.070118	-0.469003
C95	C	-0.934988	-0.570091	-1.039695
C96	C	-0.434988	-0.070091	-0.539695
C97	C	-1.021591	-0.436453	-1.039722
C98	C	-0.521591	0.063547	-0.539722
C99	C	-1.021581	-0.436477	-0.969034
C100	C	-0.521581	0.063523	-0.469034
C101	C	-0.978268	-0.503307	-0.933679
C102	C	-0.478268	-0.003307	-0.433679
C103	C	-0.978260	-0.503337	-0.857030
C104	C	-0.478260	-0.003337	-0.357030
C105	C	-0.978257	-0.503357	-0.795938
C106	C	-0.478257	-0.003357	-0.295938
C107	C	-0.978176	-0.503520	-0.150285
C108	C	-0.478176	-0.003520	0.349715
C109	C	-0.978291	-0.503253	-0.075053
C110	C	-0.478291	-0.003253	0.424947
H111	H	-0.592326	-0.382425	-0.404801
H112	H	-0.092326	0.117575	0.095199
H113	H	-0.364710	-0.624631	-0.247466
H114	H	0.135290	-0.124631	0.252534
H115	H	-0.901864	-1.107582	-0.402461
H116	H	-0.401864	-0.607582	0.097539
H117	H	-1.013486	-1.070257	-0.290991
H118	H	-0.513486	-0.570257	0.209009
H119	H	-0.899680	-0.624607	-0.712701
H120	H	-0.399680	-0.124607	-0.212701
H121	H	-0.236476	-0.624652	-0.247477
H122	H	0.263524	-0.124652	0.252523
O123	O	-0.582894	-0.642243	-0.235996
O124	O	-0.082894	-0.142243	0.264004
H125	H	-0.527807	-0.631045	-0.243287
H126	H	-0.027807	-0.131045	0.256713
O127	O	-1.024879	-0.950159	-0.279543
O128	O	-0.524879	-0.450159	0.220457
H129	H	-1.055004	-0.893954	-0.249427
H130	H	-0.555004	-0.393954	0.250573
H131	H	-0.901778	-0.898458	-0.402427
H132	H	-0.401778	-0.398458	0.097573
H133	H	-0.899654	-0.624650	-0.584455
H134	H	-0.399654	-0.124650	-0.084455
H135	H	-1.056795	-0.382206	-0.584512
H136	H	-0.556795	0.117794	-0.084512
O137	O	-0.374155	-0.364806	-0.416262
O138	O	0.125845	0.135194	0.083738
H139	H	-0.337719	-0.318389	-0.446409
H140	H	0.162281	0.181611	0.053591
O141	O	-1.068255	-0.364499	-0.722099
O142	O	-0.568255	0.135501	-0.222099
H143	H	-1.098367	-0.318060	-0.685656
H144	H	-0.598367	0.181940	-0.185656
H145	H	-0.720560	-0.382414	-0.404798
H146	H	-0.220560	0.117586	0.095202
H147	H	-1.056856	-0.382033	-1.068517
H148	H	-0.556856	0.117967	-0.568517
H149	H	-1.056840	-0.382079	-0.940272
H150	H	-0.556840	0.117921	-0.440272
H151	H	-0.899728	-0.624495	-1.068459
H152	H	-0.399728	-0.124495	-0.568459
H153	H	-0.720479	-0.624586	-0.247451
H154	H	-0.220479	-0.124586	0.252549
H155	H	-0.236555	-0.382472	-0.404818
H156	H	0.263445	0.117528	0.095182
O157	O	-0.888225	-0.642141	-0.930872
O158	O	-0.388225	-0.142141	-0.430872
H159	H	-0.858113	-0.688577	-0.967317
H160	H	-0.358113	-0.188577	-0.467317
