data_functionalizedCrystal
_audit_creation_method	'MofGen! by Chris Wilmer'
_symmetry_space_group_name_H-M	'P1'
_symmetry_Int_Tables_number	1
_symmetry_cell_setting	triclinic
loop_
_symmetry_equiv_pos_as_xyz
  x,y,z
_cell_length_a	21.295418
_cell_length_b	18.050589
_cell_length_c	18.050583
_cell_angle_alpha	90.031709
_cell_angle_beta	89.964798
_cell_angle_gamma	89.949487
loop_
_atom_site_label
_atom_site_type_symbol
_atom_site_fract_x
_atom_site_fract_y
_atom_site_fract_z
Zn1	Zn	0.962285	0.295293	-0.420316
Zn2	Zn	1.462285	0.795293	0.079684
Zn3	Zn	0.962195	0.419506	-0.296136
Zn4	Zn	1.462195	0.919506	0.203864
Zn5	Zn	0.857023	0.295368	-0.296099
Zn6	Zn	1.357023	0.795368	0.203901
Zn7	Zn	0.856969	0.419480	-0.420243
Zn8	Zn	1.356969	0.919480	0.079757
O9	O	0.909618	0.357412	-0.358199
O10	O	1.409618	0.857412	0.141801
O11	O	1.050362	0.311749	-0.403890
O12	O	1.550362	0.811749	0.096110
O13	O	0.948229	0.403081	-0.192207
O14	O	1.448229	0.903081	0.307793
O15	O	0.871047	0.191434	-0.312592
O16	O	1.371047	0.691434	0.187408
O17	O	1.050296	0.403008	-0.312655
O18	O	1.550296	0.903008	0.187345
O19	O	0.948381	0.191378	-0.403854
O20	O	1.448381	0.691378	0.096146
O21	O	0.870960	0.311878	-0.192179
O22	O	1.370960	0.811878	0.307821
O23	O	0.768927	0.311853	-0.312521
O24	O	1.268927	0.811853	0.187479
O25	O	0.870955	0.402963	-0.524178
O26	O	1.370955	0.902963	-0.024178
O27	O	0.768887	0.403037	-0.403729
O28	O	1.268887	0.903037	0.096271
O29	O	0.948329	0.311724	-0.524231
O30	O	1.448329	0.811724	-0.024231
O31	O	0.948176	0.523427	-0.312584
O32	O	1.448176	1.023427	0.187416
O33	O	0.870868	0.523408	-0.403765
O34	O	1.370868	1.023408	0.096235
C35	C	0.746066	0.357451	-0.358113
C36	C	1.246066	0.857451	0.141887
C37	C	0.676098	0.357485	-0.358094
C38	C	1.176098	0.857485	0.141906
C39	C	0.909524	0.550364	-0.358187
C40	C	1.409524	1.050364	0.141813
C41	C	0.909541	0.632910	-0.358207
C42	C	1.409541	1.132910	0.141793
C43	C	0.909646	0.357332	-0.551904
C44	C	1.409646	0.857332	-0.051904
C45	C	0.909658	0.357298	-0.634450
C46	C	1.409658	0.857298	-0.134450
C47	C	0.643227	0.405028	-0.405515
C48	C	1.143227	0.905028	0.094485
C49	C	0.577485	0.405009	-0.405549
C50	C	1.077485	0.905009	0.094451
C51	C	0.544616	0.357456	-0.358148
C52	C	1.044616	0.857456	0.141852
C53	C	0.577495	0.309905	-0.310723
C54	C	1.077495	0.809905	0.189277
C55	C	0.643236	0.309919	-0.310696
C56	C	1.143236	0.809919	0.189304
N57	N	0.441348	0.351665	-0.293192
N58	N	0.941348	0.851665	0.206808
N59	N	0.378897	0.351656	-0.293219
N60	N	0.878897	0.851656	0.206781
C61	C	0.346541	0.357409	-0.358226
C62	C	0.846541	0.857409	0.141774
N63	N	0.378996	0.363187	-0.423206
N64	N	0.878996	0.863187	0.076794
N65	N	0.441453	0.363200	-0.423178
N66	N	0.941453	0.863200	0.076822
C67	C	0.473330	0.357435	-0.358172
C68	C	0.973330	0.857435	0.141828
C69	C	0.242385	0.404934	-0.405688
C70	C	0.742385	0.904934	0.094312
C71	C	0.176641	0.404911	-0.405722
C72	C	0.676641	0.904911	0.094278
C73	C	0.176652	0.309810	-0.310890
C74	C	0.676652	0.809810	0.189110
C75	C	0.242394	0.309830	-0.310862
C76	C	0.742394	0.809830	0.189138
C77	C	0.275257	0.357396	-0.358260
C78	C	0.775257	0.857396	0.141740
C79	C	1.073808	0.357373	-0.358285
C80	C	1.573808	0.857373	0.141715
C81	C	1.143776	0.357356	-0.358322
C82	C	1.643776	0.857356	0.141678
C83	C	0.867522	0.832377	-0.407774
C84	C	1.367522	1.332377	0.092226
C85	C	0.852176	0.881832	-0.340001
C86	C	1.352176	1.381832	0.159999
C87	C	0.909588	0.784040	-0.358217
C88	C	1.409588	1.284040	0.141783
C89	C	0.924951	0.881666	-0.425999
C90	C	1.424951	1.381666	0.074001
C91	C	0.909633	0.930025	-0.358233
C92	C	1.409633	1.430025	0.141767
C93	C	0.894212	0.832408	-0.290408
C94	C	1.394212	1.332408	0.209592
C95	C	0.967013	0.832238	-0.376451
C96	C	1.467013	1.332238	0.123549
C97	C	0.951689	0.881671	-0.308631
C98	C	1.451689	1.381671	0.191369
C99	C	0.909561	0.699942	-0.358209
C100	C	1.409561	1.199942	0.141791
C101	C	0.909660	1.014121	-0.358233
C102	C	1.409660	1.514121	0.141767
C103	C	0.909706	1.163706	-0.358228
C104	C	1.409706	1.663706	0.141772
C105	C	0.909682	1.081160	-0.358242
C106	C	1.409682	1.581160	0.141758
C107	C	0.951776	0.307658	-0.833930
C108	C	1.451776	0.807658	-0.333930
C109	C	0.894365	0.289501	-0.883301
C110	C	1.394365	0.789501	-0.383301
C111	C	0.909683	0.357286	-0.785581
C112	C	1.409683	0.857286	-0.285581
C113	C	0.967117	0.375396	-0.883292
C114	C	1.467117	0.875396	-0.383292
C115	C	0.909712	0.357272	-0.931566
C116	C	1.409712	0.857272	-0.431566
C117	C	0.852241	0.339093	-0.833864
C118	C	1.352241	0.839093	-0.333864
C119	C	0.925032	0.425020	-0.833851
C120	C	1.425032	0.925020	-0.333851
C121	C	0.867582	0.406888	-0.883199
C122	C	1.367582	0.906888	-0.383199
C123	C	0.909667	0.357292	-0.701482
C124	C	1.409667	0.857292	-0.201482
C125	C	0.909722	0.357266	-1.015662
C126	C	1.409722	0.857266	-0.515662
C127	C	0.909627	0.357437	-0.165247
C128	C	1.409627	0.857437	0.334753
C129	C	0.909737	0.357261	-0.082701
C130	C	1.409737	0.857261	0.417299
H131	H	0.550716	0.443724	-0.444168
H132	H	1.050716	0.943724	0.055832
C133	C	0.141064	0.258222	-0.259295
C134	C	0.641064	0.758222	0.240705
C135	C	0.157004	0.274310	-0.185789
C136	C	0.657004	0.774310	0.314211
C137	C	0.124241	0.226792	-0.138236
C138	C	0.624241	0.726792	0.361764
H139	H	0.097191	0.264965	-0.265991
H140	H	0.597191	0.764965	0.234009
H141	H	0.151911	0.208326	-0.270197
H142	H	0.651911	0.708326	0.229803
H143	H	0.146153	0.324193	-0.174890
H144	H	0.646153	0.824193	0.325110
H145	H	0.200871	0.267562	-0.179069
H146	H	0.700871	0.767562	0.320931
H147	H	0.135087	0.176897	-0.149138
H148	H	0.635087	0.676897	0.350862
H149	H	0.080369	0.233540	-0.144939
H150	H	0.580369	0.733540	0.355061
H151	H	0.135055	0.237697	-0.088357
H152	H	0.635055	0.737697	0.411643
H153	H	0.269158	0.271119	-0.272243
H154	H	0.769158	0.771119	0.227757
H155	H	0.831903	0.810731	-0.449624
H156	H	1.331903	1.310731	0.050376
H157	H	0.881391	0.232214	-0.905023
H158	H	1.381391	0.732214	-0.405023
H159	H	0.550728	0.271185	-0.272130
H160	H	1.050728	0.771185	0.227870
C161	C	0.820035	0.462729	-0.911976
C162	C	1.320035	0.962729	-0.411976
C163	C	0.775409	0.426196	-0.955630
C164	C	1.275409	0.926196	-0.455630
C165	C	0.731602	0.477608	-0.982161
C166	C	1.231602	0.977608	-0.482161
H167	H	0.799661	0.486091	-0.871368
H168	H	1.299661	0.986091	-0.371368
H169	H	0.840965	0.499022	-0.940984
H170	H	1.340965	0.999022	-0.440984
H171	H	0.754481	0.389916	-0.926623
H172	H	1.254481	0.889916	-0.426623
H173	H	0.795764	0.402837	-0.996249
H174	H	1.295764	0.902837	-0.496249
H175	H	0.752533	0.513901	-1.011169
H176	H	1.252533	1.013901	-0.511169
H177	H	0.711234	0.500967	-0.941549
H178	H	1.211234	1.000967	-0.441549
H179	H	0.701322	0.452829	-1.011789
H180	H	1.201322	0.952829	-0.511789
H181	H	0.987282	0.903179	-0.266681
H182	H	1.487282	1.403179	0.233319
C183	C	0.278151	0.456447	-0.457195
C184	C	0.778151	0.956447	0.042805
C185	C	0.315985	0.414460	-0.504834
C186	C	0.815985	0.914460	-0.004834
C187	C	0.348947	0.461888	-0.552285
C188	C	0.848947	0.961888	-0.052285
H189	H	0.249229	0.484774	-0.485519
H190	H	0.749229	0.984774	0.014481
H191	H	0.303779	0.488769	-0.428740
H192	H	0.803779	0.988769	0.071260
H193	H	0.290360	0.382152	-0.533286
H194	H	0.790360	0.882152	-0.033286
H195	H	0.344919	0.386135	-0.476530
H196	H	0.844919	0.886135	0.023470
H197	H	0.374574	0.494209	-0.523830
H198	H	0.874574	0.994209	-0.023830
H199	H	0.320021	0.490213	-0.580604
H200	H	0.820021	0.990213	-0.080604
H201	H	0.374626	0.433407	-0.584609
H202	H	0.874626	0.933407	-0.084609
C203	C	0.678941	0.456751	-0.456859
C204	C	1.178941	0.956751	0.043141
C205	C	0.716598	0.504324	-0.414717
C206	C	1.216598	1.004324	0.085283
C207	C	0.749502	0.551984	-0.461990
C208	C	1.249502	1.051984	0.038010
H209	H	0.704688	0.428467	-0.489269
H210	H	1.204688	0.928467	0.010731
H211	H	0.649966	0.485106	-0.485096
H212	H	1.149966	0.985106	0.014904
H213	H	0.745569	0.475971	-0.386492
H214	H	1.245569	0.975971	0.113508
H215	H	0.690867	0.532624	-0.382309
H216	H	1.190867	1.032624	0.117691
H217	H	0.720527	0.580339	-0.490228
H218	H	1.220527	1.080339	0.009772
H219	H	0.775245	0.523694	-0.494398
H220	H	1.275245	1.023694	0.005602
H221	H	0.775051	0.584272	-0.433404
H222	H	1.275051	1.084272	0.066596
H223	H	0.803635	0.903632	-0.324593
H224	H	1.303635	1.403632	0.175407
H225	H	0.669999	0.271202	-0.272080
H226	H	1.169999	0.771202	0.227920
C227	C	0.876811	0.803538	-0.214023
C228	C	1.376811	1.303538	0.285977
C229	C	0.876949	0.725976	-0.214919
C230	C	1.376949	1.225976	0.285081
C231	C	0.860912	0.699354	-0.144572
C232	C	1.360912	1.199354	0.355428
H233	H	0.906495	0.820731	-0.178734
H234	H	1.406495	1.320731	0.321266
H235	H	0.836145	0.820891	-0.200990
H236	H	1.336145	1.320891	0.299010
H237	H	0.917609	0.708630	-0.227943
H238	H	1.417609	1.208630	0.272057
H239	H	0.847264	0.708763	-0.250193
H240	H	1.347264	1.208763	0.249807
H241	H	0.820246	0.716707	-0.131539
H242	H	1.320246	1.216707	0.368461
H243	H	0.890598	0.716552	-0.109288
H244	H	1.390598	1.216552	0.390712
H245	H	0.860998	0.646726	-0.145172
H246	H	1.360998	1.146726	0.354828
C247	C	1.031700	0.803206	-0.397189
C248	C	1.531700	1.303206	0.102811
C249	C	1.047520	0.828103	-0.468233
C250	C	1.547520	1.328103	0.031767
C251	C	1.107101	0.801363	-0.487374
C252	C	1.607101	1.301363	0.012626
H253	H	1.061767	0.820800	-0.362555
H254	H	1.561767	1.320800	0.137445
H255	H	1.031314	0.750578	-0.396628
H256	H	1.531314	1.250578	0.103372
H257	H	1.047911	0.880719	-0.468788
H258	H	1.547911	1.380719	0.031212
H259	H	1.017469	0.810510	-0.502883
H260	H	1.517469	1.310510	-0.002883
H261	H	1.106715	0.748736	-0.486813
H262	H	1.606715	1.248736	0.013187
H263	H	1.137163	0.818959	-0.452736
H264	H	1.637163	1.318959	0.047264
H265	H	1.117840	0.818246	-0.535581
H266	H	1.617840	1.318246	-0.035581
C267	C	0.942217	0.910665	-0.502378
C268	C	1.442217	1.410665	-0.002378
C269	C	0.942550	0.988222	-0.501210
C270	C	1.442550	1.488222	-0.001210
C271	C	0.958439	1.014958	-0.571561
C272	C	1.458439	1.514958	-0.071561
H273	H	0.982714	0.893034	-0.515735
H274	H	1.482714	1.393034	-0.015735
H275	H	0.912263	0.893829	-0.537536
H276	H	1.412263	1.393829	-0.037536
H277	H	0.972503	1.005050	-0.466064
H278	H	1.472503	1.505050	0.033936
H279	H	0.902060	1.005872	-0.487866
H280	H	1.402060	1.505872	0.012134
H281	H	0.928485	0.998122	-0.606718
H282	H	1.428485	1.498122	-0.106718
H283	H	0.998935	0.997322	-0.584912
H284	H	1.498935	1.497322	-0.084912
H285	H	0.958661	1.067582	-0.570780
H286	H	1.458661	1.567582	-0.070780
C287	C	0.787469	0.318446	-0.805146
C288	C	1.287469	0.818446	-0.305146
C289	C	0.771464	0.247738	-0.830827
C290	C	1.271464	0.747738	-0.330827
C291	C	0.711799	0.228695	-0.804394
C292	C	1.211799	0.728695	-0.304394
H293	H	0.787785	0.318494	-0.752524
H294	H	1.287785	0.818494	-0.252524
H295	H	0.757531	0.353443	-0.822432
H296	H	1.257531	0.853443	-0.322432
H297	H	0.801393	0.212750	-0.813537
H298	H	1.301393	0.712750	-0.313537
H299	H	0.771133	0.247672	-0.883446
H300	H	1.271133	0.747672	-0.383446
H301	H	0.681862	0.263692	-0.821679
H302	H	1.181862	0.763692	-0.321679
H303	H	0.712122	0.228747	-0.751772
H304	H	1.212122	0.728747	-0.251772
H305	H	0.700930	0.180721	-0.821819
H306	H	1.200930	0.680721	-0.321819
C307	C	0.999081	0.251550	-0.805115
C308	C	1.499081	0.751550	-0.305115
C309	C	0.982727	0.180725	-0.830158
C310	C	1.482727	0.680725	-0.330158
C311	C	1.026281	0.129018	-0.803618
C312	C	1.526281	0.629018	-0.303618
H313	H	1.039793	0.263848	-0.822747
H314	H	1.539793	0.763848	-0.322747
H315	H	0.998998	0.252212	-0.752485
H316	H	1.498998	0.752212	-0.252485
H317	H	0.982817	0.180065	-0.882776
H318	H	1.482817	0.680065	-0.382776
H319	H	0.942023	0.168405	-0.812528
H320	H	1.442023	0.668405	-0.312528
H321	H	1.026198	0.129680	-0.750989
H322	H	1.526198	0.629680	-0.250989
H323	H	1.066990	0.141323	-0.821252
H324	H	1.566990	0.641323	-0.321252
H325	H	1.015188	0.080957	-0.820600
H326	H	1.515188	0.580957	-0.320600
C327	C	0.942396	0.501424	-0.805004
C328	C	1.442396	1.001424	-0.305004
C329	C	0.953785	0.548822	-0.864889
C330	C	1.453785	1.048822	-0.364889
C331	C	0.969798	0.619209	-0.838343
C332	C	1.469798	1.119209	-0.338343
H333	H	0.908825	0.520537	-0.776044
H334	H	1.408825	1.020537	-0.276044
H335	H	0.979115	0.497905	-0.775342
H336	H	1.479115	0.997905	-0.275342
H337	H	0.917070	0.552343	-0.894539
H338	H	1.417070	1.052343	-0.394539
H339	H	0.987358	0.529733	-0.893855
H340	H	1.487358	1.029733	-0.393855
H341	H	1.006517	0.615690	-0.808681
H342	H	1.506517	1.115690	-0.308681
H343	H	0.936224	0.638314	-0.809383
H344	H	1.436224	1.138314	-0.309383
H345	H	0.977532	0.651375	-0.878970
H346	H	1.477532	1.151375	-0.378970
C347	C	0.141063	0.456615	-0.457238
C348	C	0.641063	0.956615	0.042762
C349	C	0.183917	0.498286	-0.498723
C350	C	0.683917	0.998286	0.001277
C351	C	0.151166	0.545932	-0.546179
C352	C	0.651166	1.045932	-0.046179
H353	H	0.115468	0.428324	-0.489726
H354	H	0.615468	0.928324	0.010274
H355	H	0.115378	0.488970	-0.428797
H356	H	0.615378	0.988970	0.071203
H357	H	0.209592	0.465935	-0.527162
H358	H	0.709592	0.965935	-0.027162
H359	H	0.209514	0.526591	-0.466255
H360	H	0.709514	1.026591	0.033745
H361	H	0.125480	0.578287	-0.517737
H362	H	0.625480	1.078287	-0.017737
H363	H	0.125572	0.517636	-0.578661
H364	H	0.625572	1.017636	-0.078661
H365	H	0.180237	0.574216	-0.574327
H366	H	0.680237	1.074216	-0.074327
C367	C	1.031920	0.395732	-0.912139
C368	C	1.531920	0.895732	-0.412139
C369	C	1.075778	0.343607	-0.887161
C370	C	1.575778	0.843607	-0.387161
C371	C	1.135482	0.362315	-0.913710
C372	C	1.635482	0.862315	-0.413710
H373	H	1.031457	0.396011	-0.964759
H374	H	1.531457	0.896011	-0.464759
H375	H	1.043137	0.443503	-0.894459
H376	H	1.543137	0.943503	-0.394459
H377	H	1.064564	0.295848	-0.904845
H378	H	1.564564	0.795848	-0.404845
H379	H	1.076261	0.343320	-0.834544
H380	H	1.576261	0.843320	-0.334544
H381	H	1.146699	0.410086	-0.896030
H382	H	1.646699	0.910086	-0.396030
H383	H	1.135012	0.362593	-0.966329
H384	H	1.635012	0.862593	-0.466329
H385	H	1.165248	0.326955	-0.896760
H386	H	1.665248	0.826955	-0.396760
