data_functionalizedCrystal
_audit_creation_method	'MofGen! by Chris Wilmer'
_symmetry_space_group_name_H-M	'P1'
_symmetry_Int_Tables_number	1
_symmetry_cell_setting	triclinic
loop_
_symmetry_equiv_pos_as_xyz
  x,y,z
_cell_length_a	12.759401
_cell_length_b	13.031981
_cell_length_c	12.759393
_cell_angle_alpha	82.783445
_cell_angle_beta	89.980324
_cell_angle_gamma	97.192388
loop_
_atom_site_label
_atom_site_type_symbol
_atom_site_fract_x
_atom_site_fract_y
_atom_site_fract_z
Zn1	Zn	1.553155	-0.416054	-0.540808
Zn2	Zn	2.053155	0.083946	-0.040808
Zn3	Zn	1.530731	-0.590867	-0.342785
Zn4	Zn	2.030731	-0.090867	0.157215
Zn5	Zn	1.377447	-0.416107	-0.365140
Zn6	Zn	1.877447	0.083893	0.134860
Zn7	Zn	1.355140	-0.590791	-0.518436
Zn8	Zn	1.855140	-0.090791	-0.018436
O9	O	1.454118	-0.503455	-0.441792
O10	O	1.954118	-0.003455	0.058208
O11	O	1.697200	-0.439254	-0.514547
O12	O	2.197200	0.060746	-0.014547
O13	O	1.510348	-0.567738	-0.198722
O14	O	2.010348	-0.067738	0.301278
O15	O	1.419476	-0.269834	-0.407162
O16	O	1.919476	0.230166	0.092838
O17	O	1.680725	-0.567688	-0.369060
O18	O	2.180725	-0.067688	0.130940
O19	O	1.548567	-0.269796	-0.536224
O20	O	2.048567	0.230204	-0.036224
O21	O	1.397731	-0.439343	-0.215147
O22	O	1.897731	0.060657	0.284853
O23	O	1.227468	-0.439269	-0.385468
O24	O	1.727468	0.060731	0.114532
O25	O	1.381456	-0.567558	-0.668431
O26	O	1.881456	-0.067558	-0.168431
O27	O	1.211079	-0.567608	-0.498094
O28	O	1.711079	-0.067608	0.001906
O29	O	1.526937	-0.439180	-0.684868
O30	O	2.026937	0.060820	-0.184868
O31	O	1.488718	-0.737122	-0.347366
O32	O	1.988718	-0.237122	0.152634
O33	O	1.359712	-0.737066	-0.476416
O34	O	1.859712	-0.237066	0.023584
C35	C	1.181153	-0.503437	-0.441780
C36	C	1.681153	-0.003437	0.058220
C37	C	1.064374	-0.503454	-0.441796
C38	C	1.564374	-0.003454	0.058204
C39	C	1.018076	-0.436699	-0.517639
C40	C	1.518076	0.063301	-0.017639
C41	C	0.908351	-0.436710	-0.517645
C42	C	1.408351	0.063290	-0.017645
C43	C	0.891230	-0.570239	-0.365960
C44	C	1.391230	-0.070239	0.134040
C45	C	1.000954	-0.570222	-0.365951
C46	C	1.500954	-0.070222	0.134049
C47	C	1.419389	-0.775019	-0.407061
C48	C	1.919389	-0.275019	0.092939
C49	C	1.404628	-0.891196	-0.392238
C50	C	1.904628	-0.391196	0.107762
C51	C	1.461878	-0.942888	-0.449549
C52	C	1.961878	-0.442888	0.050451
C53	C	1.446623	-1.062963	-0.434230
C54	C	1.946623	-0.562963	0.065770
C55	C	1.728149	-0.503473	-0.441805
C56	C	2.228149	-0.003473	0.058195
C57	C	1.844925	-0.503481	-0.441811
C58	C	2.344925	-0.003481	0.058189
C59	C	1.454210	-0.503354	-0.715838
C60	C	1.954210	-0.003354	-0.215838
C61	C	1.454249	-0.503312	-0.832621
C62	C	1.954249	-0.003312	-0.332621
C63	C	1.489011	-0.230830	-0.476682
C64	C	1.989011	0.269170	0.023318
C65	C	1.503881	-0.114653	-0.491550
C66	C	2.003881	0.385347	0.008450
C67	C	1.530007	-0.436454	-0.896044
C68	C	2.030007	0.063546	-0.396044
C69	C	1.530030	-0.436409	-1.005774
C70	C	2.030030	0.063591	-0.505774
C71	C	1.378533	-0.570087	-0.988646
C72	C	1.878533	-0.070087	-0.488646
C73	C	1.378506	-0.570126	-0.878919
C74	C	1.878506	-0.070126	-0.378919
C75	C	1.454097	-0.503479	-0.168822
C76	C	1.954097	-0.003479	0.331178
C77	C	1.454299	-0.503227	-0.052078
C78	C	1.954299	-0.003227	0.447922
H79	H	1.038650	-0.624583	-0.304184
H80	H	1.538650	-0.124583	0.195816
O81	O	1.583794	-1.055548	-0.571557
O82	O	2.083794	-0.555548	-0.071557
H83	H	1.563116	-1.076385	-0.651364
H84	H	2.063116	-0.576385	-0.151364
H85	H	1.344316	-0.935834	-0.331835
H86	H	1.844316	-0.435834	0.168165
H87	H	1.591679	-0.382047	-0.858352
H88	H	2.091679	0.117953	-0.358352
H89	H	1.316868	-0.624488	-1.026355
H90	H	1.816868	-0.124488	-0.526355
O91	O	1.541771	-0.883775	-0.529566
O92	O	2.041771	-0.383775	-0.029566
H93	H	1.541223	-0.798740	-0.529034
H94	H	2.041223	-0.298740	-0.029034
O95	O	1.366741	-1.122072	-0.354194
O96	O	1.866741	-0.622072	0.145806
H97	H	1.367304	-1.207107	-0.354711
H98	H	1.867304	-0.707107	0.145289
O99	O	1.611745	-0.364306	-1.074184
O100	O	2.111745	0.135694	-0.574184
H101	H	1.664411	-0.317861	-1.023551
H102	H	2.164411	0.182139	-0.523551
H103	H	1.069710	-0.382329	-0.579394
H104	H	1.569710	0.117671	-0.079394
O105	O	1.296765	-0.642209	-0.810503
O106	O	1.796765	-0.142209	-0.310503
H107	H	1.244101	-0.688663	-0.861129
H108	H	1.744101	-0.188663	-0.361129
H109	H	0.839580	-0.624601	-0.304210
H110	H	1.339580	-0.124601	0.195790
O111	O	0.858410	-0.364713	-0.599448
O112	O	1.358410	0.135287	-0.099448
H113	H	0.920947	-0.318290	-0.652186
H114	H	1.420947	0.181710	-0.152186
