data_functionalizedCrystal
_audit_creation_method	'MofGen! by Chris Wilmer'
_symmetry_space_group_name_H-M	'P1'
_symmetry_Int_Tables_number	1
_symmetry_cell_setting	triclinic
loop_
_symmetry_equiv_pos_as_xyz
  x,y,z
_cell_length_a	16.625548
_cell_length_b	14.908520
_cell_length_c	14.908694
_cell_angle_alpha	83.255478
_cell_angle_beta	86.683146
_cell_angle_gamma	86.678216
loop_
_atom_site_label
_atom_site_type_symbol
_atom_site_fract_x
_atom_site_fract_y
_atom_site_fract_z
Zn1	Zn	1.240024	0.389847	-0.532578
Zn2	Zn	1.225219	0.532494	-0.389947
Zn3	Zn	1.097834	0.381153	-0.381234
Zn4	Zn	1.097800	0.541168	-0.541257
O5	O	1.165219	0.461166	-0.461254
O6	O	1.350893	0.408778	-0.513672
O7	O	1.202140	0.505149	-0.262129
O8	O	1.122906	0.255642	-0.394032
O9	O	1.340016	0.513579	-0.408882
O10	O	1.227373	0.262029	-0.505224
O11	O	1.108550	0.393960	-0.255728
O12	O	0.984997	0.402372	-0.402447
O13	O	1.122847	0.528364	-0.666768
O14	O	0.984971	0.519934	-0.520016
O15	O	1.227339	0.417189	-0.660392
O16	O	1.202106	0.660309	-0.417297
O17	O	1.108492	0.666682	-0.528464
C18	C	1.153712	0.696340	-0.474788
C19	C	1.148864	0.796950	-0.480608
C20	C	0.955728	0.461151	-0.461228
C21	C	0.866106	0.461168	-0.461240
C22	C	1.176741	0.474714	-0.697340
C23	C	1.181651	0.480488	-0.797946
C24	C	0.537932	0.461176	-0.461279
C25	C	0.629240	0.461171	-0.461265
C26	C	0.702016	0.461173	-0.461259
C27	C	0.793330	0.461167	-0.461246
C28	C	1.375529	0.461181	-0.461281
C29	C	1.465150	0.461187	-0.461292
C30	C	1.176795	0.225075	-0.447688
C31	C	1.181727	0.124467	-0.441906
C32	C	1.237346	0.979315	-0.375879
C33	C	1.232794	1.073847	-0.381345
C34	C	1.135212	1.080548	-0.497008
C35	C	1.139764	0.986016	-0.491543
C36	C	1.190832	0.935402	-0.430975
C37	C	1.195380	0.840868	-0.425506
C38	C	1.097802	0.847571	-0.541173
C39	C	1.093250	0.942103	-0.546639
C40	C	1.093404	0.375558	-0.980331
C41	C	1.098014	0.380980	-1.074859
C42	C	1.195478	0.496757	-1.081532
C43	C	1.190867	0.491335	-0.987004
C44	C	1.139829	0.430733	-0.936407
C45	C	1.135223	0.425307	-0.841877
C46	C	1.232683	0.541088	-0.848552
C47	C	1.237293	0.546510	-0.943080
C48	C	1.153792	0.447605	-0.226083
C49	C	1.149051	0.441576	-0.125463
H50	H	1.236959	0.799660	-0.376187
H51	H	1.059925	0.811807	-0.586034
H52	H	1.051674	0.983326	-0.595953
H53	H	1.278844	0.595854	-0.984289
O54	O	1.277663	0.594785	-0.805850
C55	C	1.277332	0.710830	-0.706110
C56	C	1.226294	0.650093	-0.754431
H57	H	1.235823	0.755548	-0.664511
H58	H	1.314581	0.755135	-0.758479
H59	H	1.319391	0.666716	-0.659514
H60	H	1.184190	0.694137	-0.801024
H61	H	1.189100	0.605782	-0.702013
H62	H	1.051854	0.326205	-0.939133
O63	O	1.085709	1.129692	-0.555970
C64	C	1.052554	1.167407	-0.711562
C65	C	1.108682	1.111714	-0.644888
H66	H	1.071096	1.152877	-0.783464
H67	H	1.057307	1.242527	-0.706080
H68	H	0.987660	1.147997	-0.694485
H69	H	1.173599	1.131046	-0.661920
H70	H	1.103859	1.036607	-0.650381
H71	H	1.093669	0.375958	-0.800681
H72	H	1.270672	1.109597	-0.336482
H73	H	1.060210	0.336051	-1.110618
H74	H	1.237019	0.546109	-1.122745
H75	H	1.278922	0.938104	-0.326557
