data_functionalizedCrystal
_audit_creation_method	'MofGen! by Chris Wilmer'
_symmetry_space_group_name_H-M	'P1'
_symmetry_Int_Tables_number	1
_symmetry_cell_setting	triclinic
loop_
_symmetry_equiv_pos_as_xyz
  x,y,z
_cell_length_a	17.019372
_cell_length_b	27.732048
_cell_length_c	15.500227
_cell_angle_alpha	87.200457
_cell_angle_beta	88.970414
_cell_angle_gamma	83.018477
loop_
_atom_site_label
_atom_site_type_symbol
_atom_site_fract_x
_atom_site_fract_y
_atom_site_fract_z
O1	O	1.045614	0.061748	-0.005878
O2	O	0.816731	0.069072	0.011162
O3	O	0.938280	-0.004942	0.002096
O4	O	0.924065	0.135762	0.003187
O5	O	0.930905	-0.000468	-0.141242
O6	O	0.809356	0.073546	-0.132177
O7	O	1.038238	0.066221	-0.149217
Cu8	Cu	0.923123	0.070292	-0.153785
Cu9	Cu	0.931846	0.065001	0.015730
O10	O	0.916689	0.140236	-0.140151
C11	C	0.783770	0.070944	-0.058328
C12	C	0.696546	0.069849	-0.051835
C13	C	0.203429	0.063520	-0.011135
C14	C	0.285385	0.064548	-0.017247
C15	C	0.322334	0.067505	-0.098438
C16	C	0.277323	0.069428	-0.173521
C17	C	0.195369	0.068396	-0.167408
C18	C	0.569581	0.070740	-0.120805
C19	C	0.651541	0.071774	-0.126913
C20	C	0.659597	0.066893	0.029362
C21	C	0.577641	0.065864	0.035468
C22	C	0.532638	0.067785	-0.039615
C23	C	0.406106	0.068558	-0.104688
C24	C	0.448868	0.066728	-0.033364
C25	C	0.934294	-0.020714	-0.069553
C26	C	0.933395	-0.074374	-0.069494
C27	C	0.999568	-0.412780	-0.074376
C28	C	0.996234	-0.614461	-0.074115
O29	O	1.056744	-0.645342	-0.078582
N30	N	0.924160	-0.634032	-0.068750
C31	C	0.852915	-0.603180	-0.063444
O32	O	0.791535	-0.624454	-0.058866
C33	C	0.856249	-0.401500	-0.063698
C34	C	0.928328	-0.381931	-0.069073
C35	C	1.071640	-0.393211	-0.079748
C36	C	1.072472	-0.342793	-0.079818
C37	C	1.001232	-0.311945	-0.074515
C38	C	0.929160	-0.331514	-0.069142
C39	C	0.785005	-0.370649	-0.058386
C40	C	0.785845	-0.320226	-0.058448
C41	C	0.857924	-0.300658	-0.063822
C42	C	0.858752	-0.250248	-0.063909
N43	N	0.930826	-0.230677	-0.069274
C44	C	1.002066	-0.261526	-0.074577
C45	C	0.851169	-0.709065	-0.063313
C46	C	0.850335	-0.759484	-0.063251
C47	C	0.993655	-0.770762	-0.073920
C48	C	0.994487	-0.720341	-0.073989
C49	C	0.923243	-0.689493	-0.068678
C50	C	1.003809	-0.155645	-0.074724
C51	C	1.004635	-0.105223	-0.074797
C52	C	0.861316	-0.093950	-0.064123
C53	C	0.860489	-0.144367	-0.064054
C54	C	0.931742	-0.175214	-0.069352
O55	O	0.798275	-0.219339	-0.059435
O56	O	1.063438	-0.240242	-0.079135
C57	C	0.998735	-0.463197	-0.074306
C58	C	0.926663	-0.482766	-0.068933
C59	C	0.855423	-0.451918	-0.063630
C60	C	0.925829	-0.533186	-0.068871
C61	C	0.997069	-0.564034	-0.074174
C62	C	1.069143	-0.544463	-0.079539
C63	C	1.069975	-0.494046	-0.079609
C64	C	0.783349	-0.471489	-0.058265
C65	C	0.782522	-0.521907	-0.058197
C66	C	0.853762	-0.552755	-0.063500
C67	C	1.071199	0.064350	-0.079725
C68	C	1.158424	0.065444	-0.086212
C69	C	0.920676	0.156007	-0.068500
C70	C	0.921575	0.209668	-0.068554
N71	N	0.916994	0.074013	-0.273013
C72	C	0.968516	0.042662	-0.322132
C73	C	0.963888	0.045481	-0.412360
C74	C	0.907741	0.079653	-0.453466
C75	C	0.856213	0.111005	-0.404340
C76	C	0.860838	0.108184	-0.314114
C77	C	0.891079	0.089808	-0.725691
C78	C	0.886459	0.092628	-0.815924
C79	C	0.994134	0.027102	-0.823937
C80	C	0.998757	0.024286	-0.733708
C81	C	0.947227	0.055637	-0.684590
C82	C	0.903010	0.082536	-0.545694
C83	C	0.951954	0.052751	-0.592364
N84	N	0.937981	0.061277	0.134957
H85	H	0.418781	0.064319	0.032741
H86	H	0.173351	0.061116	0.054980
H87	H	0.547563	0.063456	0.101582
O88	O	0.708997	-0.286957	-0.052729
H89	H	0.708947	-0.265535	0.005920
H90	H	0.849122	0.115335	-0.685705
O91	O	1.082383	-0.084119	-0.080579
H92	H	1.113585	-0.094689	-0.141541
O93	O	1.012508	0.015895	-0.548027
H94	H	1.047560	-0.005436	-0.597338
H95	H	1.005841	0.019952	-0.452352
O96	O	0.708143	0.064809	0.110337
H97	H	0.738279	0.098070	0.111857
O98	O	0.842458	0.119394	-0.590037
H99	H	0.807403	0.140723	-0.540726
H100	H	0.681621	0.074185	-0.193031
H101	H	0.726312	-0.386573	-0.054005
H102	H	0.810493	0.138827	-0.437814
H103	H	0.532951	0.072297	-0.181944
H104	H	0.307414	0.071832	-0.239629
H105	H	0.803314	-0.068824	-0.059808
O106	O	1.150218	-0.321694	-0.085606
H107	H	1.138842	-0.281451	-0.084768
H108	H	0.818882	0.133712	-0.274121
H109	H	0.322026	0.062978	0.043889
O110	O	0.445959	0.071756	-0.192256
H111	H	0.490516	0.039433	-0.199341
H112	H	0.158726	0.069968	-0.228544
H113	H	0.791641	-0.775412	-0.058890
H114	H	1.061830	-0.180755	-0.079035
O115	O	1.148483	-0.426480	-0.085481
H116	H	1.198731	-0.404393	-0.089235
H117	H	1.053180	-0.704412	-0.078364
H118	H	1.044477	-0.003539	-0.700241
O119	O	1.070496	-0.804038	-0.079634
H120	H	1.057800	-0.842384	-0.078680
H121	H	0.840735	0.120457	-0.849388
H122	H	0.793149	-0.683952	-0.058988
O123	O	0.782751	-0.165479	-0.058261
H124	H	0.733354	-0.135555	-0.054581
H125	H	1.128669	-0.478118	-0.083985
O126	O	1.049705	-0.006714	-0.876911
H127	H	1.037054	0.000983	-0.946557
O128	O	1.145984	-0.577739	-0.085259
H129	H	1.133287	-0.616085	-0.084303
O130	O	0.704776	-0.543011	-0.052402
H131	H	0.655383	-0.513085	-0.048718
H132	H	0.725335	-0.446377	-0.053945
H133	H	1.014240	0.014838	-0.288669
