data_functionalizedCrystal
_audit_creation_method	'MofGen! by Chris Wilmer'
_symmetry_space_group_name_H-M	'P1'
_symmetry_Int_Tables_number	1
_symmetry_cell_setting	triclinic
loop_
_symmetry_equiv_pos_as_xyz
  x,y,z
_cell_length_a	12.837943
_cell_length_b	11.892095
_cell_length_c	12.837932
_cell_angle_alpha	85.694680
_cell_angle_beta	94.829322
_cell_angle_gamma	94.310562
loop_
_atom_site_label
_atom_site_type_symbol
_atom_site_fract_x
_atom_site_fract_y
_atom_site_fract_z
O1	O	1.408368	0.093968	0.266112
O2	O	1.105234	0.093976	0.252668
O3	O	1.250078	0.093973	0.107823
O4	O	1.263524	0.093971	0.410957
O5	O	1.238000	-0.094034	0.119879
O6	O	1.093156	-0.094032	0.264724
O7	O	1.396289	-0.094039	0.278168
Zn8	Zn	1.242804	-0.123885	0.273360
Zn9	Zn	1.258719	0.123822	0.257476
O10	O	1.251445	-0.094036	0.423013
C11	C	1.060126	-0.000027	0.254155
C12	C	0.943711	-0.000024	0.240610
C13	C	0.718837	-0.000041	0.403441
C14	C	0.609454	-0.000039	0.390719
C15	C	0.615561	-0.000026	0.202447
C16	C	0.724944	-0.000028	0.215168
C17	C	0.776578	-0.000034	0.315668
C18	C	0.885963	-0.000028	0.328388
C19	C	0.892067	-0.000022	0.140118
C20	C	0.782684	-0.000020	0.127396
N21	N	1.231951	-0.292939	0.284201
C22	C	1.345098	-0.529589	0.171131
C23	C	1.337520	-0.647931	0.178717
C24	C	1.209211	-0.647967	0.306954
C25	C	1.216789	-0.529625	0.299367
C26	C	1.284736	-0.470440	0.231455
C27	C	1.292319	-0.352097	0.223875
C28	C	1.164006	-0.352134	0.352106
C29	C	1.156428	-0.470476	0.359692
C30	C	1.441397	-0.000034	0.276681
C31	C	1.557813	-0.000030	0.290225
N32	N	1.269580	0.292876	0.246627
C33	C	1.239498	-0.000028	0.074782
C34	C	1.225953	-0.000020	-0.041634
C35	C	1.112740	-0.000019	-0.202660
C36	C	1.125460	-0.000017	-0.093278
C37	C	1.313732	-0.000021	-0.099381
C38	C	1.301011	-0.000022	-0.208764
C39	C	1.200512	-0.000023	-0.260399
C40	C	1.187792	-0.000033	-0.369783
C41	C	1.376063	-0.000028	-0.375886
C42	C	1.388783	-0.000027	-0.266503
C43	C	1.262026	-0.000033	0.456054
C44	C	1.275571	-0.000034	0.572469
H45	H	0.573496	-0.000114	0.120630
C46	C	1.471473	0.000143	-0.438452
C47	C	1.537587	0.096853	-0.419872
C48	C	1.625492	0.097036	-0.477477
H49	H	1.449659	0.000197	-0.511017
H50	H	1.508083	-0.065386	-0.417549
H51	H	1.500984	0.162365	-0.440781
H52	H	1.559429	0.096820	-0.347318
H53	H	1.662102	0.031507	-0.456574
H54	H	1.603669	0.097087	-0.550039
H55	H	1.670366	0.162647	-0.464871
H56	H	1.400431	-0.481400	0.115841
H57	H	1.386671	-0.696087	0.129593
C58	C	0.726431	0.000046	0.018369
C59	C	0.618281	0.000072	0.026010
C60	C	0.566432	0.000151	-0.074407
H61	H	0.741279	-0.065493	-0.014120
H62	H	0.749764	0.065640	-0.022439
H63	H	0.594956	-0.065516	0.066802
H64	H	0.603402	0.065606	0.058481
H65	H	0.589765	0.065746	-0.115214
H66	H	0.581288	-0.065389	-0.106888
H67	H	0.493048	0.000180	-0.069237
C68	C	0.941899	0.000140	0.437549
C69	C	0.919637	0.096844	0.485062
C70	C	0.971132	0.097025	0.585629
H71	H	1.015329	0.000200	0.432706
H72	H	0.918483	-0.065394	0.478391
H73	H	0.943059	0.162360	0.444231
H74	H	0.846217	0.096804	0.489933
H75	H	0.947715	0.031492	0.626471
H76	H	1.044559	0.097082	0.580775
H77	H	0.956027	0.162632	0.617883
C78	C	1.098286	-0.288055	0.417548
C79	C	0.991893	-0.316875	0.392226
C80	C	0.931329	-0.257877	0.452502
H81	H	1.112396	-0.209081	0.403365
H82	H	1.115255	-0.307476	0.489802
H83	H	0.974931	-0.297445	0.319989
H84	H	0.977751	-0.395838	0.406413
H85	H	0.948298	-0.277299	0.524756
H86	H	0.945447	-0.178906	0.438314
H87	H	0.859135	-0.277431	0.435337
C88	C	1.003550	0.000035	-0.258540
C89	C	0.929404	0.000062	-0.184563
C90	C	0.828807	0.000128	-0.235999
H91	H	0.990319	-0.065508	-0.296880
H92	H	0.998833	0.065625	-0.305265
H93	H	0.934117	-0.065521	-0.137856
H94	H	0.942600	0.065601	-0.146219
H95	H	0.824091	0.065717	-0.282724
H96	H	0.815587	-0.065417	-0.274338
H97	H	0.778488	0.000156	-0.185815
H98	H	0.760878	-0.000044	0.485271
C99	C	1.366107	-0.288040	0.150042
C100	C	1.417323	-0.365176	0.098815
C101	C	1.485292	-0.306212	0.030778
H102	H	1.416452	-0.241862	0.188951
H103	H	1.327117	-0.241906	0.099714
H104	H	1.456311	-0.411290	0.149136
H105	H	1.367005	-0.411356	0.059886
H106	H	1.446302	-0.260079	-0.019550
H107	H	1.535631	-0.260036	0.069695
H108	H	1.520043	-0.358540	-0.003995
H109	H	1.105960	-0.000044	-0.411822
H110	H	1.153883	-0.696170	0.362239
H111	H	0.562446	-0.000048	0.462193
H112	H	1.470607	-0.000031	-0.224446
C113	C	1.082762	-0.534943	0.433403
C114	C	1.089061	-0.651243	0.427155
C115	C	1.021228	-0.710662	0.495057
H116	H	1.012965	-0.515699	0.413933
H117	H	1.102289	-0.515614	0.503182
H118	H	1.069529	-0.670564	0.357391
H119	H	1.158843	-0.670520	0.446634
H120	H	1.040754	-0.691333	0.564836
H121	H	0.951435	-0.691409	0.475581
H122	H	1.025500	-0.789577	0.490834
H123	H	0.939092	-0.000009	0.068646
H124	H	1.053987	-0.000012	-0.046270
H125	H	1.395549	-0.000091	-0.057316
