data_functionalizedCrystal
_audit_creation_method	'MofGen! by Chris Wilmer'
_symmetry_space_group_name_H-M	'P1'
_symmetry_Int_Tables_number	1
_symmetry_cell_setting	triclinic
loop_
_symmetry_equiv_pos_as_xyz
  x,y,z
_cell_length_a	17.699083
_cell_length_b	15.995350
_cell_length_c	16.176319
_cell_angle_alpha	89.995430
_cell_angle_beta	89.998611
_cell_angle_gamma	83.387695
loop_
_atom_site_label
_atom_site_type_symbol
_atom_site_fract_x
_atom_site_fract_y
_atom_site_fract_z
O1	O	1.004255	0.105885	-0.068627
O2	O	0.783899	0.119661	-0.068653
O3	O	0.900101	-0.009127	-0.068638
O4	O	0.888054	0.234673	-0.068641
O5	O	0.900085	-0.009135	0.068855
O6	O	0.783883	0.119653	0.068840
O7	O	1.004239	0.105877	0.068867
Cu8	Cu	0.894060	0.112764	0.081408
Cu9	Cu	0.894079	0.112774	-0.081194
O10	O	0.888038	0.234665	0.068852
C11	C	0.755694	0.119163	0.000090
C12	C	0.671673	0.117683	0.000080
C13	C	0.623178	0.193278	0.000079
C14	C	0.544232	0.191882	0.000090
C15	C	0.513783	0.114889	0.000095
C16	C	0.562285	0.039287	0.000098
C17	C	0.641229	0.040685	0.000094
C18	C	0.243912	0.033651	0.000119
C19	C	0.164962	0.032259	0.000121
C20	C	0.146916	0.184848	0.000115
C21	C	0.225860	0.186245	0.000110
C22	C	0.274354	0.110644	0.000118
C23	C	0.359956	0.112159	0.000108
C24	C	0.428183	0.113373	0.000099
C25	C	0.899595	-0.040324	0.000107
C26	C	0.898101	-0.133272	0.000102
C27	C	0.892739	-0.471008	0.000104
C28	C	0.809983	-0.423406	-0.000214
C29	C	0.811476	-0.326719	0.000096
C30	C	0.895399	-0.303453	0.000102
C31	C	0.936208	-0.344618	0.078621
C32	C	0.934129	-0.441250	0.078687
C33	C	0.935857	-0.441602	-0.077669
C34	C	0.935838	-0.344657	-0.078706
C35	C	0.896907	-0.208759	0.000104
C36	C	0.891234	-0.565703	0.000108
C37	C	1.032445	0.106375	0.000122
C38	C	1.116465	0.107856	0.000126
C39	C	0.888544	0.265863	0.000105
C40	C	0.890037	0.358810	0.000104
N41	N	0.894052	0.112757	0.195773
N42	N	0.894092	0.112775	-0.195559
C43	C	0.945521	0.055753	0.239043
C44	C	0.945525	0.055752	0.325591
C45	C	0.894063	0.112760	0.368865
C46	C	0.842588	0.169767	0.325589
C47	C	0.842581	0.169763	0.239043
C48	C	0.842614	0.169782	0.674617
C49	C	0.842626	0.169783	0.761168
C50	C	0.945558	0.055772	0.761164
C51	C	0.945551	0.055768	0.674619
C52	C	0.894074	0.112771	0.631350
C53	C	0.894069	0.112770	0.537505
C54	C	0.894070	0.112765	0.462708
H55	H	0.283388	-0.027909	0.000126
O56	O	0.099837	0.258312	-0.000030
C57	C	0.060287	0.388330	-0.071245
C58	C	0.113631	0.305159	-0.071189
H59	H	0.071432	0.426237	-0.128761
H60	H	-0.001382	0.374160	-0.071290
H61	H	0.071359	0.426193	-0.013682
H62	H	0.102628	0.267255	-0.128741
H63	H	0.175282	0.319387	-0.071100
H64	H	0.800716	0.216208	0.796401
H65	H	0.800700	0.216198	0.639394
O66	O	0.995451	0.000412	0.367752
C67	C	1.041114	-0.050084	0.501078
C68	C	0.984519	0.012624	0.453435
H69	H	1.032305	-0.040221	0.570362
H70	H	1.031258	-0.117155	0.484130
H71	H	1.101721	-0.039261	0.484005
H72	H	0.923890	0.001878	0.470483
H73	H	0.994441	0.079673	0.470387
H74	H	0.987459	0.009350	0.639387
O75	O	0.902378	-0.310847	0.148386
C76	C	0.835932	-0.336475	0.274239
C77	C	0.874242	-0.374831	0.195277
H78	H	0.813159	-0.388186	0.312164
H79	H	0.879292	-0.305710	0.312423
H80	H	0.786933	-0.287114	0.256551
H81	H	0.923236	-0.424225	0.212890
H82	H	0.830834	-0.405542	0.157113
O83	O	0.995524	0.000274	0.803108
C84	C	1.039848	-0.145383	0.829634
C85	C	0.983233	-0.082628	0.782069
H86	H	1.029919	-0.212422	0.812654
H87	H	1.100480	-0.134627	0.812596
H88	H	1.031021	-0.135550	0.898919
H89	H	0.991990	-0.092423	0.712773
H90	H	0.922621	-0.093399	0.799175
H91	H	0.800682	0.216181	0.360828
O92	O	0.792557	0.225220	0.197135
C93	C	0.690429	0.338275	0.206267
C94	C	0.747056	0.275530	0.253829
H95	H	0.653615	0.378955	0.252084
H96	H	0.723058	0.380115	0.165761
H97	H	0.652654	0.302156	0.165737
H98	H	0.784844	0.311580	0.294404
H99	H	0.714379	0.233690	0.294284
H100	H	0.647962	0.255975	0.000074
H101	H	0.908807	-0.462083	-0.137181
H102	H	0.504750	0.253440	0.000088
O103	O	0.532798	-0.035556	-0.000008
C104	C	0.524033	-0.166377	-0.071264
C105	C	0.557490	-0.081654	-0.071233
H106	H	0.543970	-0.203664	-0.128852
H107	H	0.544027	-0.203789	-0.013762
H108	H	0.459281	-0.154370	-0.071224
H109	H	0.622243	-0.093585	-0.071302
H110	H	0.537437	-0.044269	-0.128729
O111	O	0.688417	-0.032694	-0.000019
C112	C	0.787993	-0.119694	-0.071275
C113	C	0.734609	-0.036552	-0.071245
H114	H	0.825341	-0.122848	-0.128864
H115	H	0.825457	-0.122867	-0.013775
H116	H	0.752656	-0.174950	-0.071232
H117	H	0.769885	0.018752	-0.071318
H118	H	0.697142	-0.033452	-0.128741
H119	H	0.779397	-0.298228	-0.056190
H120	H	0.777046	-0.442936	0.055772
H121	H	0.250646	0.248941	0.000102
O122	O	0.135509	-0.042610	0.000168
C123	C	0.161735	-0.193816	0.000136
C124	C	0.195193	-0.109094	0.000104
H125	H	0.209973	-0.247591	0.000066
H126	H	0.125253	-0.198337	0.057691
H127	H	0.125201	-0.198238	-0.057390
H128	H	0.231761	-0.104615	0.057591
H129	H	0.231632	-0.104609	-0.057489
O130	O	0.770426	-0.445305	-0.067362
C131	C	0.651811	-0.426577	-0.141908
C132	C	0.696527	-0.401682	-0.065835
H133	H	0.592050	-0.391333	-0.140691
H134	H	0.682217	-0.409645	-0.200660
H135	H	0.648051	-0.497239	-0.140663
H136	H	0.700300	-0.331025	-0.067001
H137	H	0.666103	-0.418675	-0.007117
O138	O	0.772838	-0.293484	0.067324
C139	C	0.653242	-0.274268	0.139980
C140	C	0.696911	-0.311964	0.063808
H141	H	0.591842	-0.289180	0.137153
H142	H	0.681351	-0.302529	0.198615
H143	H	0.654195	-0.203128	0.140533
H144	H	0.695971	-0.383103	0.063175
H145	H	0.668787	-0.283638	0.005207
H146	H	0.904358	-0.459494	0.137376
H147	H	0.987431	0.009334	0.203815
H148	H	0.906001	-0.317344	-0.136792
O149	O	1.006654	-0.479741	0.082992
C150	C	1.139855	-0.462072	0.090619
C151	C	1.057761	-0.418379	0.085759
H152	H	1.181199	-0.412481	0.092840
H153	H	1.146786	-0.502551	0.148735
H154	H	1.152358	-0.503543	0.033814
H155	H	1.045204	-0.376865	0.142522
H156	H	1.050872	-0.377952	0.027607
O157	O	1.008885	-0.326613	-0.084432
C158	C	1.141432	-0.381438	-0.089879
C159	C	1.058743	-0.402002	-0.083393
H160	H	1.181766	-0.442376	-0.089024
H161	H	1.149132	-0.346280	-0.150047
H162	H	1.154615	-0.340420	-0.035304
H163	H	1.045504	-0.443045	-0.137924
H164	H	1.051086	-0.437119	-0.023192
H165	H	0.997864	-0.330618	0.081546
H166	H	0.996873	-0.473487	-0.078191
