data_functionalizedCrystal
_audit_creation_method	'MofGen! by Chris Wilmer'
_symmetry_space_group_name_H-M	'P1'
_symmetry_Int_Tables_number	1
_symmetry_cell_setting	triclinic
loop_
_symmetry_equiv_pos_as_xyz
  x,y,z
_cell_length_a	10.489711
_cell_length_b	23.532407
_cell_length_c	9.565339
_cell_angle_alpha	89.995586
_cell_angle_beta	89.994873
_cell_angle_gamma	83.687843
loop_
_atom_site_label
_atom_site_type_symbol
_atom_site_fract_x
_atom_site_fract_y
_atom_site_fract_z
O1	O	1.691407	0.080259	-0.116326
O2	O	1.319955	0.087819	-0.116320
O3	O	1.516882	0.001181	-0.116298
O4	O	1.494480	0.166897	-0.116349
O5	O	1.516866	0.001186	0.116222
O6	O	1.319939	0.087824	0.116200
O7	O	1.691391	0.080265	0.116194
Zn8	Zn	1.505663	0.084045	0.153115
Zn9	Zn	1.505683	0.084038	-0.153241
O10	O	1.494464	0.166902	0.116172
C11	C	1.272434	0.087254	-0.000058
C12	C	1.130859	0.085557	-0.000055
C13	C	0.946740	0.137658	-0.000087
C14	C	1.039759	0.111630	-0.114721
C15	C	1.039717	0.111621	0.114525
C16	C	0.971641	0.056476	-0.114813
C17	C	0.971589	0.056475	0.114537
C18	C	1.064582	0.030407	-0.000126
C19	C	1.516304	-0.020036	-0.000034
C20	C	1.514589	-0.083264	-0.000023
C21	C	1.620368	-0.481671	-0.000102
C22	C	1.618775	-0.541082	-0.000112
O23	O	1.716833	-0.577182	-0.000166
N24	N	1.501702	-0.564479	-0.000109
C25	C	1.386214	-0.528461	-0.000110
O26	O	1.286488	-0.553817	-0.000109
C27	C	1.387809	-0.469051	-0.000109
C28	C	1.504890	-0.445658	-0.000098
C29	C	1.737439	-0.458278	-0.000092
C30	C	1.739032	-0.398871	-0.000079
C31	C	1.623554	-0.362858	-0.000075
C32	C	1.506482	-0.386252	-0.000085
C33	C	1.272323	-0.433035	-0.000120
C34	C	1.273928	-0.373622	-0.000120
C35	C	1.391009	-0.350229	-0.000109
C36	C	1.392597	-0.290832	-0.000068
N37	N	1.509670	-0.267435	-0.000071
C38	C	1.625148	-0.303449	-0.000075
C39	C	1.382874	-0.653225	-0.000113
C40	C	1.381278	-0.712634	-0.000104
C41	C	1.613839	-0.725251	-0.000109
C42	C	1.615434	-0.665841	-0.000109
C43	C	1.499947	-0.629829	-0.000117
C44	C	1.628484	-0.178690	-0.000046
C45	C	1.630067	-0.119277	-0.000027
C46	C	1.397507	-0.106665	-0.000029
C47	C	1.395923	-0.166073	-0.000041
C48	C	1.511423	-0.202084	-0.000054
O49	O	1.294590	-0.254698	-0.000020
O50	O	1.724858	-0.278085	-0.000094
C51	C	1.738912	0.080830	-0.000071
C52	C	1.880487	0.082527	-0.000084
N53	N	1.505658	0.084050	0.362194
C54	C	1.495042	0.188120	-0.000095
C55	C	1.496757	0.251348	-0.000115
N56	N	1.505698	0.084029	-0.362320
C57	C	1.414559	0.124103	0.453387
C58	C	1.529674	0.135621	0.546560
C59	C	1.390592	0.072537	0.546577
C60	C	1.620831	0.095593	0.453315
C61	C	1.481674	0.032487	0.453324
C62	C	1.596873	0.043983	0.546454
H63	H	1.725412	-0.100235	-0.000014
H64	H	1.337588	0.158007	0.412523
N65	N	1.268517	0.060320	0.597993
N66	N	1.249306	0.057939	0.726725
H67	H	1.163089	0.049313	0.763039
N68	N	1.555169	0.190303	0.597977
N69	N	1.651448	0.194478	0.672699
H70	H	1.669447	0.233099	0.709013
H71	H	1.069984	0.134957	-0.211646
H72	H	1.834371	-0.379831	-0.000076
H73	H	1.674014	0.010100	0.587061
N74	N	0.882522	0.194504	-0.000254
N75	N	0.899646	0.227691	-0.098856
H76	H	0.854293	0.267839	-0.098982
H77	H	1.831481	-0.487595	-0.000101
N78	N	0.933965	0.027231	-0.236519
N79	N	0.818419	0.021202	-0.256196
H80	H	0.791806	0.000549	-0.342150
H81	H	1.718178	0.105374	0.412521
H82	H	1.461324	-0.011096	0.412338
N83	N	1.746474	-0.215461	-0.000064
N84	N	1.850985	-0.194556	-0.000054
H85	H	1.934316	-0.220525	-0.000059
N86	N	1.735027	-0.641948	-0.000078
N87	N	1.812691	-0.652813	0.097942
H88	H	1.897159	-0.635941	0.097965
N89	N	1.128520	-0.026490	-0.000195
N90	N	1.111198	-0.059682	-0.098710
H91	H	1.156355	-0.099866	-0.098766
N92	N	0.933644	0.027241	0.236148
N93	N	0.955055	0.046028	0.355098
H94	H	0.928254	0.025386	0.440998
H95	H	1.300587	-0.185120	-0.000011
H96	H	1.303487	-0.077333	-0.000021
N97	N	1.077546	0.140901	0.236111
N98	N	0.994926	0.160845	0.322358
H99	H	1.021636	0.181527	0.408224
N100	N	1.731790	-0.762052	-0.000105
N101	N	1.730336	-0.815094	-0.000107
H102	H	1.813632	-0.841087	-0.000101
H103	H	1.285940	-0.731675	-0.000089
H104	H	1.288825	-0.623907	-0.000108
H105	H	1.176984	-0.452070	-0.000137
N106	N	1.155945	-0.336845	-0.000145
N107	N	1.051428	-0.357744	-0.000163
H108	H	0.968102	-0.331772	-0.000181
