data_functionalizedCrystal
_audit_creation_method	'MofGen! by Chris Wilmer'
_symmetry_space_group_name_H-M	'P1'
_symmetry_Int_Tables_number	1
_symmetry_cell_setting	triclinic
loop_
_symmetry_equiv_pos_as_xyz
  x,y,z
_cell_length_a	10.654562
_cell_length_b	19.188924
_cell_length_c	9.130313
_cell_angle_alpha	89.996698
_cell_angle_beta	89.996930
_cell_angle_gamma	83.816034
loop_
_atom_site_label
_atom_site_type_symbol
_atom_site_fract_x
_atom_site_fract_y
_atom_site_fract_z
O1	O	1.665745	0.098101	-0.121903
O2	O	1.300070	0.107435	-0.121886
O3	O	1.493464	0.001181	-0.121878
O4	O	1.472350	0.204355	-0.121911
O5	O	1.493462	0.001184	0.121721
O6	O	1.300068	0.107438	0.121713
O7	O	1.665742	0.098104	0.121696
Cu8	Cu	1.482905	0.102771	0.143947
Cu9	Cu	1.482908	0.102768	-0.144137
O10	O	1.472348	0.204357	0.121688
C11	C	1.253286	0.106749	-0.000084
C12	C	1.113887	0.104693	-0.000076
C13	C	1.492781	-0.024833	-0.000077
C14	C	1.490733	-0.102351	-0.000073
C15	C	1.048375	0.103736	0.132698
C16	C	0.917394	0.101809	0.132674
C17	C	0.917447	0.101801	-0.132911
C18	C	1.048427	0.103722	-0.132885
C19	C	1.048343	0.103744	0.286032
C20	C	0.917362	0.101817	0.286007
C21	C	1.489778	-0.138758	-0.132859
C22	C	1.487836	-0.211593	-0.132870
C23	C	1.486873	-0.248021	-0.000087
C24	C	1.487821	-0.211605	0.132716
C25	C	1.489751	-0.138770	0.132724
N26	N	1.555305	-0.367234	0.098736
N27	N	1.553474	-0.436424	0.098720
C28	C	1.481057	-0.467468	-0.000101
N29	N	1.410554	-0.426709	-0.098928
N30	N	1.412391	-0.357513	-0.098917
C31	C	1.484780	-0.326998	-0.000080
C32	C	1.477994	-0.582851	-0.132908
C33	C	1.476044	-0.655688	-0.132914
C34	C	1.476042	-0.655699	0.132676
C35	C	1.477979	-0.582863	0.132678
C36	C	1.478961	-0.546444	-0.000118
C37	C	1.712527	0.098790	-0.000109
C38	C	1.851925	0.100846	-0.000126
C39	C	1.473031	0.230372	-0.000116
C40	C	1.475080	0.307890	-0.000130
N41	N	1.482912	0.102773	0.346570
N42	N	1.482910	0.102760	-0.346759
C43	C	1.568568	0.055740	0.423225
C44	C	1.568565	0.055732	0.576562
C45	C	1.397245	0.149795	0.576574
C46	C	1.397243	0.149800	0.423240
C47	C	1.667483	0.001435	0.423219
C48	C	1.667480	0.001427	0.576556
H49	H	1.101764	0.104491	-0.241003
H50	H	1.327495	0.188083	0.639016
H51	H	0.888853	0.050900	0.333595
C52	C	1.640043	-0.071054	0.366996
H53	H	1.628746	-0.100868	0.447927
H54	H	1.708958	-0.090892	0.309190
H55	H	1.565472	-0.066121	0.309202
H56	H	0.864133	0.101011	-0.241039
C57	C	1.790176	0.024402	0.358950
H58	H	1.844817	0.034623	0.436435
H59	H	1.770802	0.065057	0.300387
H60	H	1.830614	-0.012315	0.300394
H61	H	1.076837	0.154663	0.333600
H62	H	0.870052	0.150069	0.344864
H63	H	1.478787	-0.553197	-0.241039
H64	H	1.095625	0.055494	0.344923
H65	H	1.490574	-0.109110	-0.240992
H66	H	1.638042	-0.049286	0.624113
C67	C	1.303014	0.201531	0.338924
H68	H	1.252004	0.229541	0.406550
H69	H	1.250890	0.176143	0.279110
H70	H	1.348021	0.230838	0.279108
C71	C	1.797505	0.017592	0.632779
H72	H	1.850978	0.024253	0.551848
H73	H	1.834052	-0.020476	0.690573
H74	H	1.787698	0.058984	0.690584
C75	C	1.486836	-0.251653	-0.278940
H76	H	1.487717	-0.219532	-0.358025
H77	H	1.412886	-0.275109	-0.284500
H78	H	1.559323	-0.285024	-0.284417
H79	H	1.487034	-0.241269	0.240829
H80	H	1.475260	-0.685328	-0.241049
C81	C	1.474973	-0.695760	0.278735
H82	H	1.473691	-0.744353	0.259715
H83	H	1.402074	-0.678853	0.333295
H84	H	1.548511	-0.688798	0.333297
C85	C	1.479038	-0.542811	0.278740
H86	H	1.480314	-0.494216	0.259728
H87	H	1.551931	-0.559718	0.333305
H88	H	1.405495	-0.549781	0.333294
H89	H	1.490523	-0.109128	0.240857
