data_functionalizedCrystal
_audit_creation_method	'MofGen! by Chris Wilmer'
_symmetry_space_group_name_H-M	'P1'
_symmetry_Int_Tables_number	1
_symmetry_cell_setting	triclinic
loop_
_symmetry_equiv_pos_as_xyz
  x,y,z
_cell_length_a	6.394989
_cell_length_b	10.654550
_cell_length_c	9.130313
_cell_angle_alpha	90.000276
_cell_angle_beta	90.001550
_cell_angle_gamma	85.491321
loop_
_atom_site_label
_atom_site_type_symbol
_atom_site_fract_x
_atom_site_fract_y
_atom_site_fract_z
O1	O	-0.293442	-1.670947	-0.121679
O2	O	-0.321399	-1.305765	-0.121705
O3	O	-0.003431	-1.493540	-0.121693
O4	O	-0.611409	-1.483173	-0.121692
O5	O	-0.003422	-1.493526	0.121906
O6	O	-0.321389	-1.305752	0.121893
O7	O	-0.293432	-1.670934	0.121919
Cu8	Cu	-0.307410	-1.488342	0.144149
Cu9	Cu	-0.307421	-1.488357	-0.143935
O10	O	-0.611400	-1.483159	0.121907
C11	C	-0.319341	-1.258939	0.000091
C12	C	-0.313200	-1.119430	0.000080
C13	C	-0.295490	-1.717760	0.000120
C14	C	-0.301631	-1.857269	0.000121
N15	N	-0.307401	-1.488340	0.346772
C16	C	0.074425	-1.491483	0.000101
C17	C	0.310750	-1.485219	0.000099
N18	N	-0.307414	-1.488369	-0.346558
C19	C	-0.500414	-1.041927	0.000085
C20	C	-0.494631	-0.910845	0.000110
C21	C	-0.114403	-0.934782	0.000121
C22	C	-0.120188	-1.065861	0.000106
C23	C	-0.166665	-1.571516	0.423429
C24	C	-0.166665	-1.571528	0.576766
C25	C	-0.448157	-1.405184	0.576774
C26	C	-0.448145	-1.405167	0.423440
H27	H	-0.647080	-0.847747	0.000117
O28	O	0.061741	-1.141103	-0.000161
C29	C	0.178839	-1.116327	-0.126298
H30	H	0.069199	-1.073282	-0.214479
H31	H	0.300743	-1.047709	-0.097765
C32	C	0.424845	-1.292971	-0.075207
C33	C	0.290181	-1.240112	-0.183516
H34	H	0.493535	-1.369324	-0.110500
H35	H	0.345960	-1.309660	0.009777
H36	H	0.526413	-1.235777	-0.051439
H37	H	0.188601	-1.297299	-0.207270
H38	H	0.369052	-1.223434	-0.268506
O39	O	-0.029739	-1.652343	0.349178
C40	C	0.094444	-1.725778	0.449727
H41	H	0.097588	-1.674253	0.559037
H42	H	0.025162	-1.820160	0.466016
C43	C	0.315574	-1.811383	0.255642
C44	C	0.319450	-1.748095	0.389895
H45	H	0.454366	-1.825156	0.218734
H46	H	0.231906	-1.761913	0.187899
H47	H	0.257829	-1.890028	0.269235
H48	H	0.377169	-1.669446	0.376297
H49	H	0.403134	-1.797553	0.457634
H50	H	0.042741	-0.891149	0.000150
H51	H	-0.052063	-1.639256	0.639176
H52	H	-0.562750	-1.337468	0.639213
O53	O	-0.585160	-1.324494	0.349034
C54	C	-0.792302	-1.348158	0.386508
H55	H	-0.794889	-1.448742	0.428644
H56	H	-0.852598	-1.279515	0.475517
C57	C	-0.930448	-1.207322	0.198535
C58	C	-0.933629	-1.330865	0.250276
H59	H	-1.017630	-1.196649	0.114504
H60	H	-0.790894	-1.191375	0.173291
H61	H	-0.980690	-1.150133	0.272722
H62	H	-0.883363	-1.388050	0.176096
H63	H	-1.073179	-1.346821	0.275504
H64	H	-0.657577	-1.085539	0.000075
