data_functionalizedCrystal
_audit_creation_method	'MofGen! by Chris Wilmer'
_symmetry_space_group_name_H-M	'P1'
_symmetry_Int_Tables_number	1
_symmetry_cell_setting	triclinic
loop_
_symmetry_equiv_pos_as_xyz
  x,y,z
_cell_length_a	14.519709
_cell_length_b	14.519731
_cell_length_c	13.596369
_cell_angle_alpha	90.011346
_cell_angle_beta	89.999709
_cell_angle_gamma	83.684500
loop_
_atom_site_label
_atom_site_type_symbol
_atom_site_fract_x
_atom_site_fract_y
_atom_site_fract_z
O1	O	-1.223878	-0.120892	-0.081675
O2	O	-0.723878	0.379108	0.418325
O3	O	-0.955402	-0.135128	-0.081707
O4	O	-0.455402	0.364872	0.418293
O5	O	-1.096748	0.006227	-0.081670
O6	O	-0.596748	0.506227	0.418330
O7	O	-1.082532	-0.262247	-0.081712
O8	O	-0.582532	0.237753	0.418288
O9	O	-1.096734	0.006235	0.081912
O10	O	-0.596734	0.506235	0.581912
O11	O	-0.955388	-0.135120	0.081876
O12	O	-0.455388	0.364880	0.581876
O13	O	-1.223864	-0.120884	0.081908
O14	O	-0.723864	0.379116	0.581908
Zn15	Zn	-1.089623	-0.128001	0.107864
Zn16	Zn	-0.589623	0.371999	0.607864
Zn17	Zn	-1.089642	-0.128011	-0.107663
Zn18	Zn	-0.589642	0.371989	0.392337
O19	O	-1.082518	-0.262239	0.081871
O20	O	-0.582518	0.237761	0.581871
C21	C	-0.921035	-0.134461	0.000081
C22	C	-0.421035	0.365539	0.500081
C23	C	-0.818654	-0.132473	0.000070
C24	C	-0.318654	0.367527	0.500070
C25	C	-1.096075	0.040591	0.000124
C26	C	-0.596075	0.540591	0.500124
C27	C	-1.094079	0.142971	0.000133
C28	C	-0.594079	0.642971	0.500133
C29	C	-1.258230	-0.121551	0.000118
C30	C	-0.758230	0.378449	0.500118
C31	C	-1.360612	-0.123539	0.000122
C32	C	-0.860612	0.376461	0.500122
C33	C	-0.443757	-0.125153	0.000116
C34	C	0.056243	0.374847	0.500116
C35	C	-0.548065	-0.127186	0.000102
C36	C	-0.048065	0.372814	0.500102
C37	C	-0.631202	-0.128813	0.000092
C38	C	-0.131202	0.371187	0.500092
C39	C	-0.735517	-0.130846	0.000080
C40	C	-0.235517	0.369154	0.500080
C41	C	-1.092457	0.226115	0.000137
C42	C	-0.592457	0.726115	0.500137
C43	C	-1.090430	0.330424	0.000138
C44	C	-0.590430	0.830424	0.500138
C45	C	-1.088822	0.413563	0.000138
C46	C	-0.588822	0.913563	0.500138
C47	C	-1.086795	0.517878	0.000141
C48	C	-0.586795	1.017878	0.500141
N49	N	-1.089617	-0.127994	0.254956
N50	N	-0.589617	0.372006	0.754956
C51	C	-1.083191	0.703397	0.000095
C52	C	-0.583191	1.203397	0.500095
C53	C	-1.085187	0.601017	0.000141
C54	C	-0.585187	1.101017	0.500141
N55	N	-1.089655	-0.128011	-0.254755
N56	N	-0.589655	0.371989	0.245245
C57	C	-1.089641	-0.128012	0.656247
C58	C	-0.589641	0.371988	1.156247
C59	C	-1.089632	-0.128010	0.544595
C60	C	-0.589632	0.371990	1.044595
C61	C	-1.089630	-0.128004	0.455605
C62	C	-0.589630	0.371996	0.955605
C63	C	-1.089619	-0.128000	0.343946
C64	C	-0.589619	0.372000	0.843946
