data_functionalizedCrystal
_audit_creation_method	'MofGen! by Chris Wilmer'
_symmetry_space_group_name_H-M	'P1'
_symmetry_Int_Tables_number	1
_symmetry_cell_setting	triclinic
loop_
_symmetry_equiv_pos_as_xyz
  x,y,z
_cell_length_a	27.732048
_cell_length_b	14.044220
_cell_length_c	13.101039
_cell_angle_alpha	93.667477
_cell_angle_beta	86.675896
_cell_angle_gamma	87.915766
loop_
_atom_site_label
_atom_site_type_symbol
_atom_site_fract_x
_atom_site_fract_y
_atom_site_fract_z
O1	O	-0.648645	-0.107455	0.085084
O2	O	-0.508657	-0.124591	0.085115
O3	O	-0.576549	0.021930	0.085090
O4	O	-0.580752	-0.253976	0.085109
O5	O	-0.571679	0.011400	-0.085338
O6	O	-0.503786	-0.135121	-0.085313
O7	O	-0.643774	-0.117985	-0.085344
Zn8	Zn	-0.573007	-0.128225	-0.112388
Zn9	Zn	-0.579424	-0.114351	0.112159
O10	O	-0.575882	-0.264506	-0.085319
C11	C	-0.488198	-0.129496	-0.000095
C12	C	-0.434492	-0.128412	-0.000083
C13	C	-0.572274	0.051953	-0.000124
C14	C	-0.566787	0.157098	-0.000124
C15	C	-0.664233	-0.113080	-0.000132
C16	C	-0.717939	-0.114163	-0.000137
C17	C	-0.099419	-0.208180	-0.000122
C18	C	0.102429	-0.204161	-0.000132
O19	O	0.130263	-0.277104	-0.000171
N20	N	0.125630	-0.117280	-0.000136
C21	C	0.098366	-0.031397	-0.000144
O22	O	0.122732	0.042593	-0.000159
C23	C	-0.103481	-0.035417	-0.000142
C24	C	-0.126680	-0.122304	-0.000128
C25	C	-0.122618	-0.295060	-0.000109
C26	C	-0.173077	-0.296063	-0.000101
C27	C	-0.200338	-0.210187	-0.000106
C28	C	-0.177139	-0.123307	-0.000120
C29	C	-0.130744	0.050464	-0.000158
C30	C	-0.181209	0.049452	-0.000160
C31	C	-0.204407	-0.037435	-0.000146
C32	C	-0.254859	-0.038434	-0.000117
N33	N	-0.278060	-0.125316	-0.000113
C34	C	-0.250799	-0.211192	-0.000108
C35	C	0.204339	-0.029292	-0.000143
C36	C	0.254801	-0.028287	-0.000142
C37	C	0.258860	-0.201052	-0.000131
C38	C	0.208397	-0.202056	-0.000125
C39	C	0.181138	-0.116174	-0.000139
C40	C	-0.356768	-0.213293	-0.000090
C41	C	-0.407232	-0.214288	-0.000078
C42	C	-0.411287	-0.041524	-0.000094
C43	C	-0.360827	-0.040528	-0.000101
C44	C	-0.333569	-0.126420	-0.000102
O45	O	-0.282722	0.034469	-0.000090
O46	O	-0.275174	-0.285173	-0.000116
C47	C	-0.048960	-0.207177	-0.000130
C48	C	-0.025761	-0.120297	-0.000144
C49	C	-0.053022	-0.034420	-0.000149
C50	C	0.024700	-0.119291	-0.000142
C51	C	0.051961	-0.205168	-0.000137
C52	C	0.028760	-0.292050	-0.000132
C53	C	-0.021700	-0.293053	-0.000124
C54	C	-0.029821	0.052461	-0.000153
C55	C	0.020639	0.053458	-0.000160
C56	C	0.047899	-0.032419	-0.000155
C57	C	-0.580157	-0.294528	-0.000103
C58	C	-0.585644	-0.399673	-0.000096
N59	N	-0.568631	-0.137693	-0.265634
C60	C	-0.556756	0.349614	-0.000107
C61	C	-0.595673	0.407817	-0.000113
C62	C	-0.590091	0.514939	-0.000103
C63	C	-0.562337	0.242481	-0.000117
C64	C	-0.562678	-0.150583	-0.474675
C65	C	-0.589755	-0.091989	-0.525561
C66	C	-0.586443	-0.099161	-0.641878
C67	C	-0.565990	-0.143412	-0.358347
N68	N	-0.583803	-0.104876	0.265406
H69	H	-0.426118	-0.285045	-0.000065
C70	C	-0.681214	0.441079	-0.000145
C71	C	-0.646311	0.366486	-0.000138
H72	H	-0.712474	0.415559	-0.000158
H73	H	-0.675722	0.475465	-0.059567
H74	H	-0.679123	0.482795	0.059297
H75	H	-0.648400	0.324775	-0.059585
H76	H	-0.651805	0.332085	0.059290
H77	H	-0.519250	0.380234	-0.000096
H78	H	-0.615425	-0.036439	-0.481768
C79	C	0.315473	-0.294735	0.087476
C80	C	0.288832	-0.295450	-0.000131
H81	H	0.333980	-0.353008	0.087466
H82	H	0.294008	-0.287883	0.146898
H83	H	0.336506	-0.242837	0.087467
H84	H	0.267796	-0.347344	-0.000118
H85	H	0.310299	-0.302312	-0.059568
H86	H	0.273684	0.042466	-0.000138
H87	H	-0.537010	-0.206130	-0.518462
C88	C	0.142741	0.075231	0.087463
C89	C	0.174378	0.065119	-0.000147
H90	H	0.124245	0.133515	0.087460
H91	H	0.160816	0.075695	0.146883
H92	H	0.121699	0.023347	0.087451
H93	H	0.195423	0.117000	-0.000131
H94	H	0.156301	0.064663	-0.059582
C95	C	-0.357838	-0.384164	-0.000058
C96	C	-0.326811	-0.307705	-0.000079
H97	H	-0.339343	-0.442448	-0.000039
H98	H	-0.375907	-0.384635	-0.059487
H99	H	-0.379301	-0.377269	0.059377
H100	H	-0.305350	-0.314597	-0.059518
H101	H	-0.308733	-0.307236	0.059356
C102	C	-0.139846	0.221124	-0.000208
C103	C	-0.105253	0.145974	-0.000189
H104	H	-0.124108	0.280090	-0.000237
H105	H	-0.161134	0.220815	0.059226
H106	H	-0.157751	0.213440	-0.059639
H107	H	-0.087350	0.153655	0.059245
H108	H	-0.083956	0.146285	-0.059630
C109	C	0.011545	0.224130	-0.000189
C110	C	0.046135	0.148973	-0.000179
H111	H	0.027286	0.283093	-0.000214
H112	H	-0.009742	0.223820	0.059246
H113	H	-0.006361	0.216453	-0.059618
H114	H	0.064039	0.156646	0.059254
H115	H	0.067431	0.149284	-0.059621
H116	H	-0.191961	-0.366815	-0.000088
H117	H	-0.100428	-0.364995	-0.000108
H118	H	0.189513	-0.272807	-0.000119
H119	H	-0.203401	0.119389	-0.000173
H120	H	-0.341938	0.030223	-0.000098
H121	H	-0.040583	-0.363805	-0.000114
C122	C	-0.490447	0.033627	-0.000110
C123	C	-0.441258	0.052868	-0.000109
H124	H	-0.508950	0.091901	-0.000131
H125	H	-0.499574	0.001656	0.059327
H126	H	-0.496179	-0.005714	-0.059538
H127	H	-0.435526	0.092203	0.059323
H128	H	-0.432128	0.084854	-0.059552
C129	C	0.085375	-0.385723	0.087476
C130	C	0.058732	-0.386446	-0.000128
H131	H	0.103883	-0.443994	0.087469
H132	H	0.063911	-0.378867	0.146900
H133	H	0.106408	-0.333824	0.087460
H134	H	0.037697	-0.438342	-0.000109
H135	H	0.080198	-0.393312	-0.059567
H136	H	-0.052011	0.122394	-0.000160
