data_functionalizedCrystal
_audit_creation_method	'MofGen! by Chris Wilmer'
_symmetry_space_group_name_H-M	'P1'
_symmetry_Int_Tables_number	1
_symmetry_cell_setting	triclinic
loop_
_symmetry_equiv_pos_as_xyz
  x,y,z
_cell_length_a	17.699083
_cell_length_b	17.699083
_cell_length_c	16.176319
_cell_angle_alpha	90.001389
_cell_angle_beta	90.007696
_cell_angle_gamma	83.283015
loop_
_atom_site_label
_atom_site_type_symbol
_atom_site_fract_x
_atom_site_fract_y
_atom_site_fract_z
O1	O	-0.095713	-1.004079	-0.068632
O2	O	0.404287	-0.504079	0.431368
O3	O	-0.108166	-0.783700	-0.068660
O4	O	0.391834	-0.283700	0.431340
O5	O	0.008250	-0.900116	-0.068638
O6	O	0.508250	-0.400116	0.431362
O7	O	-0.212129	-0.887663	-0.068654
O8	O	0.287871	-0.387663	0.431346
O9	O	0.008257	-0.900100	0.068855
O10	O	0.508257	-0.400100	0.568855
O11	O	-0.108158	-0.783684	0.068834
O12	O	0.391842	-0.283684	0.568834
O13	O	-0.095706	-1.004063	0.068861
O14	O	0.404294	-0.504063	0.568861
Cu15	Cu	-0.101931	-0.893872	0.081401
Cu16	Cu	0.398069	-0.393872	0.581401
Cu17	Cu	-0.101940	-0.893891	-0.081200
Cu18	Cu	0.398060	-0.393891	0.418800
O19	O	-0.212121	-0.887647	0.068839
O20	O	0.287879	-0.387647	0.568839
C21	C	-0.107716	-0.755495	0.000084
C22	C	0.392284	-0.255495	0.500084
C23	C	-0.106377	-0.671477	0.000073
C24	C	0.393623	-0.171477	0.500073
C25	C	0.036451	-0.899662	0.000109
C26	C	0.536451	-0.399662	0.500109
C27	C	0.120469	-0.898323	0.000109
C28	C	0.620469	-0.398323	0.500109
C29	C	-0.096156	-1.032268	0.000116
C30	C	0.403844	-0.532268	0.500116
C31	C	-0.097494	-1.116286	0.000121
C32	C	0.402506	-0.616286	0.500121
C33	C	-0.240322	-0.888102	0.000091
C34	C	0.259678	-0.388102	0.500091
C35	C	-0.324340	-0.889440	0.000085
C36	C	0.175660	-0.389440	0.500085
C37	C	0.169090	-0.966656	0.000119
C38	C	0.669090	-0.466656	0.500119
C39	C	0.248033	-0.965394	0.000111
C40	C	0.748033	-0.465394	0.500111
C41	C	0.278354	-0.895798	0.000100
C42	C	0.778354	-0.395798	0.500100
C43	C	0.229727	-0.827459	0.000088
C44	C	0.729727	-0.327459	0.500088
C45	C	0.150785	-0.828722	0.000089
C46	C	0.650785	-0.328722	0.500089
C47	C	0.548090	-0.822364	0.000080
C48	C	1.048090	-0.322364	0.500080
C49	C	0.627038	-0.821106	0.000081
C50	C	1.127038	-0.321106	0.500081
C51	C	0.645338	-0.959036	0.000102
C52	C	1.145338	-0.459036	0.500102
C53	C	0.566396	-0.960299	0.000104
C54	C	1.066396	-0.460299	0.500104
C55	C	0.517776	-0.891961	0.000087
C56	C	1.017776	-0.391961	0.500087
C57	C	0.432177	-0.893330	0.000094
C58	C	0.932177	-0.393330	0.500094
C59	C	0.363951	-0.894427	0.000099
C60	C	0.863951	-0.394427	0.500099
N61	N	-0.101925	-0.893864	0.195767
N62	N	0.398075	-0.393864	0.695767
C63	C	-0.174710	-0.622856	0.000069
C64	C	0.325290	-0.122856	0.500069
C65	C	-0.173448	-0.543913	0.000079
C66	C	0.326552	-0.043913	0.500079
C67	C	-0.103852	-0.513592	0.000089
C68	C	0.396148	-0.013592	0.500089
C69	C	-0.035513	-0.562219	0.000096
C70	C	0.464487	-0.062219	0.500096
C71	C	-0.036776	-0.641161	0.000091
C72	C	0.463224	-0.141161	0.500091
C73	C	-0.030418	-0.243856	0.000117
C74	C	0.469582	0.256144	0.500117
C75	C	-0.029160	-0.164908	0.000120
C76	C	0.470840	0.335092	0.500120
C77	C	-0.167090	-0.146608	0.000105
C78	C	0.332910	0.353392	0.500105
C79	C	-0.168353	-0.225550	0.000100
C80	C	0.331647	0.274450	0.500100
C81	C	-0.100015	-0.274170	0.000112
C82	C	0.399985	0.225830	0.500112
C83	C	-0.101384	-0.359769	0.000102
C84	C	0.398616	0.140231	0.500102
C85	C	-0.102481	-0.427995	0.000093
C86	C	0.397519	0.072005	0.500093
N87	N	-0.101941	-0.893905	-0.195565
N88	N	0.398059	-0.393905	0.304435
C89	C	-0.050397	-0.945429	0.239040
C90	C	0.449603	-0.445429	0.739040
C91	C	-0.050396	-0.945432	0.325588
C92	C	0.449604	-0.445432	0.825588
C93	C	-0.101927	-0.893875	0.368859
C94	C	0.398073	-0.393875	0.868859
C95	C	-0.153457	-0.842305	0.325579
C96	C	0.346543	-0.342305	0.825579
C97	C	-0.153454	-0.842299	0.239034
C98	C	0.346546	-0.342299	0.739034
C99	C	-0.153472	-0.842331	0.674608
C100	C	0.346528	-0.342331	1.174608
C101	C	-0.153473	-0.842344	0.761159
C102	C	0.346527	-0.342344	1.261159
C103	C	-0.050414	-0.945465	0.761161
C104	C	0.449586	-0.445465	1.261161
C105	C	-0.050410	-0.945458	0.674616
C106	C	0.449590	-0.445458	1.174616
C107	C	-0.101937	-0.893886	0.631344
C108	C	0.398063	-0.393886	1.131344
C109	C	-0.101937	-0.893882	0.537499
C110	C	0.398063	-0.393882	1.037499
C111	C	-0.101932	-0.893883	0.462702
C112	C	0.398068	-0.393883	0.962702
H113	H	0.144409	-1.023330	0.000133
H114	H	0.644409	-0.523330	0.500133
H115	H	0.684934	-1.014680	0.000111
H116	H	1.184934	-0.514680	0.500111
H117	H	0.651721	-0.764429	0.000074
H118	H	1.151721	-0.264429	0.500074
Br119	Br	0.482115	-0.729619	0.000053
Br120	Br	0.982115	-0.229619	0.500053
Br121	Br	0.019519	-1.015457	0.819892
Br122	Br	0.519519	-0.515457	1.319892
H123	H	-0.229092	-0.504328	0.000075
H124	H	0.270908	-0.004328	0.500075
Br125	Br	-0.223413	-0.772369	0.819886
Br126	Br	0.276587	-0.272369	1.319886
H127	H	0.287618	-1.021038	0.000121
H128	H	0.787618	-0.521038	0.500121
Br129	Br	0.019537	-1.015409	0.180324
Br130	Br	0.519537	-0.515409	0.680324
Br131	Br	0.525250	-1.054754	0.000118
Br132	Br	1.025250	-0.554754	0.500118
H133	H	0.254420	-0.770792	0.000073
H134	H	0.754420	-0.270792	0.500073
H135	H	0.025228	-0.283434	0.000127
H136	H	0.525228	0.216566	0.500127
H137	H	0.111198	-0.773078	0.000081
H138	H	0.611198	-0.273078	0.500081
H139	H	-0.195428	-0.800341	0.639382
H140	H	0.304572	-0.300341	1.139382
H141	H	-0.195413	-0.800323	0.360816
H142	H	0.304587	-0.300323	0.860816
H143	H	-0.008438	-0.987419	0.360821
H144	H	0.491562	-0.487419	0.860821
Br145	Br	0.019522	-1.015435	0.615892
Br146	Br	0.519522	-0.515435	1.115892
Br147	Br	-0.223383	-0.772310	0.180305
Br148	Br	0.276617	-0.272310	0.680305
H149	H	0.027517	-0.140225	0.000128
H150	H	0.527517	0.359775	0.500128
H151	H	-0.225025	-0.250232	0.000089
H152	H	0.274975	0.249768	0.500089
H153	H	-0.231384	-0.647537	0.000060
H154	H	0.268616	-0.147537	0.500060
Br155	Br	-0.259837	-0.080619	0.000090
Br156	Br	0.240163	0.419381	0.500090
H157	H	0.018868	-0.680748	0.000095
H158	H	0.518868	-0.180748	0.500095
Br159	Br	0.058941	-0.521071	0.000118
Br160	Br	0.558941	-0.021071	0.500118
