data_functionalizedCrystal
_audit_creation_method	'MofGen! by Chris Wilmer'
_symmetry_space_group_name_H-M	'P1'
_symmetry_Int_Tables_number	1
_symmetry_cell_setting	triclinic
loop_
_symmetry_equiv_pos_as_xyz
  x,y,z
_cell_length_a	16.992694
_cell_length_b	15.944551
_cell_length_c	15.455313
_cell_angle_alpha	92.664316
_cell_angle_beta	87.142206
_cell_angle_gamma	87.083481
loop_
_atom_site_label
_atom_site_type_symbol
_atom_site_fract_x
_atom_site_fract_y
_atom_site_fract_z
O1	O	1.043832	0.174669	-0.072025
O2	O	1.543832	0.674669	0.427975
O3	O	0.815548	0.172714	-0.072051
O4	O	1.315548	0.672714	0.427949
O5	O	0.935924	0.051836	-0.072029
O6	O	1.435924	0.551836	0.427971
O7	O	0.923457	0.295548	-0.072046
O8	O	1.423457	0.795548	0.427954
O9	O	0.929040	0.058718	0.072232
O10	O	1.429040	0.558718	0.572232
O11	O	0.808664	0.179596	0.072210
O12	O	1.308664	0.679596	0.572210
O13	O	1.036949	0.181551	0.072236
O14	O	1.536949	0.681551	0.572236
Cu15	Cu	0.922178	0.181202	0.085395
Cu16	Cu	1.422178	0.681202	0.585395
Cu17	Cu	0.930319	0.173063	-0.085210
Cu18	Cu	1.430319	0.673063	0.414790
O19	O	0.916573	0.302430	0.072215
O20	O	1.416573	0.802430	0.572215
C21	C	0.782894	0.173641	0.000077
C22	C	1.282894	0.673641	0.500077
C23	C	0.695850	0.166141	0.000067
C24	C	1.195850	0.666141	0.500067
C25	C	0.645613	0.238506	0.000063
C26	C	1.145613	0.738506	0.500063
C27	C	0.563826	0.231454	0.000075
C28	C	1.063826	0.731454	0.500075
C29	C	0.532276	0.152037	0.000086
C30	C	1.032276	0.652037	0.500086
C31	C	0.582519	0.079667	0.000093
C32	C	1.082519	0.579667	0.500093
C33	C	0.664305	0.086719	0.000087
C34	C	1.164305	0.586719	0.500087
C35	C	0.288676	0.122807	0.000111
C36	C	0.788676	0.622807	0.500111
C37	C	0.206884	0.115760	0.000115
C38	C	0.706884	0.615760	0.500115
C39	C	0.188196	0.267548	0.000099
C40	C	0.688196	0.767548	0.500099
C41	C	0.269984	0.274593	0.000087
C42	C	0.769984	0.774593	0.500087
C43	C	0.320220	0.202223	0.000099
C44	C	0.820220	0.702223	0.500099
N45	N	0.448677	0.144827	0.000096
N46	N	0.948677	0.644827	0.500096
N47	N	0.403817	0.209434	0.000095
N48	N	0.903817	0.709434	0.500095
C49	C	0.931964	0.023948	0.000101
C50	C	1.431964	0.523948	0.500101
C51	C	0.930413	-0.069402	0.000102
C52	C	1.430413	0.430598	0.500102
C53	C	0.852089	-0.289513	0.000081
C54	C	1.352089	0.210487	0.500081
C55	C	0.885066	-0.344697	0.071214
C56	C	1.385066	0.155303	0.571214
C57	C	0.927606	-0.240317	0.000095
C58	C	1.427606	0.259683	0.500095
C59	C	0.891871	-0.351465	-0.071016
C60	C	1.391871	0.148535	0.428984
C61	C	0.924889	-0.405412	0.000084
C62	C	1.424889	0.094588	0.500084
C63	C	0.960600	-0.294269	0.071287
C64	C	1.460600	0.205731	0.571287
C65	C	0.967397	-0.301034	-0.071007
C66	C	1.467397	0.198966	0.428993
C67	C	1.000428	-0.356196	0.000144
C68	C	1.500428	0.143804	0.500144
C69	C	0.929168	-0.145209	0.000101
C70	C	1.429168	0.354791	0.500101
C71	C	0.923332	-0.500518	0.000084
C72	C	1.423332	-0.000518	0.500084
C73	C	1.069603	0.180624	0.000107
C74	C	1.569603	0.680624	0.500107
C75	C	1.156647	0.188124	0.000110
C76	C	1.656647	0.688124	0.500110
C77	C	0.920532	0.330318	0.000082
C78	C	1.420532	0.830318	0.500082
C79	C	0.922084	0.423668	0.000076
C80	C	1.422084	0.923668	0.500076
N81	N	0.916458	0.186926	0.205390
N82	N	1.416458	0.686926	0.705390
N83	N	0.936045	0.167333	-0.205204
N84	N	1.436045	0.667333	0.294796
C85	C	0.967616	0.135594	0.250793
C86	C	1.467616	0.635594	0.750793
C87	C	0.963297	0.139932	0.341600
C88	C	1.463297	0.639932	0.841600
C89	C	0.907824	0.195606	0.387002
C90	C	1.407824	0.695606	0.887002
C91	C	0.856661	0.246940	0.341593
C92	C	1.356661	0.746940	0.841593
C93	C	0.860976	0.242598	0.250787
C94	C	1.360976	0.742598	0.750787
C95	C	0.889197	0.214325	0.658581
C96	C	1.389197	0.714325	1.158581
C97	C	0.884887	0.218665	0.749392
C98	C	1.384887	0.718665	1.249392
C99	C	0.991523	0.111655	0.749393
C100	C	1.491523	0.611655	1.249393
C101	C	0.995836	0.107321	0.658586
C102	C	1.495836	0.607321	1.158586
C103	C	0.944671	0.158653	0.613185
C104	C	1.444671	0.658653	1.113185
N105	N	0.903410	0.200042	0.479822
N106	N	1.403410	0.700042	0.979822
N107	N	0.949081	0.154211	0.520367
N108	N	1.449081	0.654211	1.020367
H109	H	0.147286	0.326467	0.000091
H110	H	0.647286	0.826467	0.500091
H111	H	0.862790	-0.376554	-0.131158
H112	H	1.362790	0.123446	0.368842
O113	O	0.718495	0.008671	0.000094
O114	O	1.218495	0.508671	0.500094
H115	H	0.710087	-0.031881	-0.058702
H116	H	1.210087	0.468119	0.441298
O117	O	0.838960	-0.370368	0.150867
O118	O	1.338960	0.129632	0.650867
H119	H	0.838715	-0.439985	0.150454
H120	H	1.338715	0.060015	0.650454
O121	O	1.083523	-0.394557	0.000201
O122	O	1.583523	0.105443	0.500201
H123	H	1.111851	-0.371495	0.059304
H124	H	1.611851	0.128505	0.559304
O125	O	0.999069	-0.261151	0.151033
O126	O	1.499069	0.238849	0.651033
H127	H	1.060438	-0.288515	0.151218
H128	H	1.560438	0.211485	0.651218
H129	H	1.002180	-0.281632	-0.131141
H130	H	1.502180	0.218368	0.368859
O131	O	1.027444	0.075542	0.201824
O132	O	1.527444	0.575542	0.701824
H133	H	1.062285	0.040570	0.248655
H134	H	1.562285	0.540570	0.748655
H135	H	0.789404	-0.260406	0.000145
H136	H	1.289404	0.239594	0.500145
H137	H	1.004953	0.098132	0.378567
H138	H	1.504953	0.598132	0.878567
O139	O	0.679635	0.324166	0.000061
O140	O	1.179635	0.824166	0.500061
H141	H	0.662247	0.356406	-0.058732
H142	H	1.162247	0.856406	0.441268
H143	H	1.041007	0.061987	0.621621
H144	H	1.541007	0.561987	1.121621
O145	O	0.304002	0.360256	0.000096
O146	O	0.804002	0.860256	0.500096
H147	H	0.286614	0.392498	-0.058697
H148	H	0.786614	0.892498	0.441303
O149	O	1.046701	0.056285	0.798359
O150	O	1.546701	0.556285	1.298359
H151	H	1.034379	0.068649	0.869130
H152	H	1.534379	0.568649	1.369130
O153	O	0.805804	0.297967	0.201810
O154	O	1.305804	0.797967	0.701810
H155	H	0.766510	0.337417	0.248634
H156	H	1.266510	0.837417	0.748634
H157	H	0.522926	0.290381	0.000071
H158	H	1.022926	0.790381	0.500071
O159	O	0.172851	0.030099	0.000134
O160	O	0.672851	0.530099	0.500134
H161	H	0.221521	-0.019040	0.000151
H162	H	0.721521	0.480960	0.500151
O163	O	0.342854	0.044755	0.000123
O164	O	0.842854	0.544755	0.500123
H165	H	0.307173	-0.011651	0.000124
H166	H	0.807173	0.488349	0.500124
O167	O	0.548497	-0.005993	0.000108
O168	O	1.048497	0.494007	0.500108
H169	H	0.483187	0.001258	0.000103
H170	H	0.983187	0.501258	0.500103
O171	O	0.825044	0.278706	0.798368
O172	O	1.325044	0.778706	1.298368
H173	H	0.790182	0.313662	0.751543
H174	H	1.290182	0.813662	1.251543
H175	H	0.847537	0.256123	0.621622
H176	H	1.347537	0.756123	1.121622
H177	H	0.811490	0.292268	0.378565
H178	H	1.311490	0.792268	0.878565
