data_functionalizedCrystal
_audit_creation_method	'MofGen! by Chris Wilmer'
_symmetry_space_group_name_H-M	'P1'
_symmetry_Int_Tables_number	1
_symmetry_cell_setting	triclinic
loop_
_symmetry_equiv_pos_as_xyz
  x,y,z
_cell_length_a	21.606444
_cell_length_b	23.196402
_cell_length_c	23.196401
_cell_angle_alpha	60.007332
_cell_angle_beta	90.012419
_cell_angle_gamma	60.005326
loop_
_atom_site_label
_atom_site_type_symbol
_atom_site_fract_x
_atom_site_fract_y
_atom_site_fract_z
Zr1	Zr	0.596270	0.631001	-0.075651
O2	O	0.497437	0.751260	-0.167695
O3	O	0.626559	0.510741	-0.047438
O4	O	0.626541	0.631004	-0.167704
O5	O	0.497479	0.630996	0.047443
O6	O	0.728391	0.631008	-0.167707
O7	O	0.497455	0.630997	-0.047429
O8	O	0.728423	0.415880	0.047427
O9	O	0.497447	0.846124	-0.167691
O10	O	0.715497	0.560210	-0.035404
O11	O	0.639506	0.560205	0.035400
O12	O	0.639485	0.701800	-0.106198
O13	O	0.563493	0.701795	-0.035393
Zr14	Zr	0.758748	0.631006	0.075652
Zr15	Zr	0.758709	0.631008	-0.075656
Zr16	Zr	0.596309	0.630999	0.075658
Zr17	Zr	0.596286	0.782299	-0.075645
Zr18	Zr	0.758731	0.479708	0.075647
O19	O	0.728459	0.751266	0.047439
O20	O	0.728404	0.751269	-0.167703
O21	O	0.497492	0.751257	0.047447
O22	O	0.857581	0.510747	0.167696
O23	O	0.857525	0.510750	-0.047446
O24	O	0.626614	0.510738	0.167704
O25	O	0.857538	0.631011	-0.047441
O26	O	0.728477	0.631003	0.167705
O27	O	0.626627	0.630999	0.167709
O28	O	0.857563	0.631010	0.047430
O29	O	0.626564	0.846129	-0.167696
O30	O	0.728453	0.415878	0.167697
O31	O	0.857570	0.415883	0.167693
O32	O	0.857540	0.415885	0.047422
O33	O	0.497478	0.846122	-0.047421
O34	O	0.626595	0.846127	-0.047425
O35	O	0.715533	0.560207	0.106199
O36	O	0.791524	0.560211	0.035395
O37	O	0.715512	0.701802	-0.035399
O38	O	0.639521	0.701797	0.035405
C39	C	0.677488	0.441754	-0.000006
C40	C	0.677481	0.377524	-0.000009
C41	C	0.733605	0.295097	0.052250
C42	C	0.733610	0.234736	0.052257
C43	C	0.677497	0.256808	-0.000007
C44	C	0.621364	0.339249	-0.052270
C45	C	0.621356	0.399607	-0.052271
C46	C	0.660010	0.201221	-0.063798
C47	C	0.660023	0.140862	-0.063797
C48	C	0.677518	0.070646	-0.000004
C49	C	0.695015	0.060787	0.063794
C50	C	0.695007	0.121145	0.063793
C51	C	0.677499	0.191366	-0.000011
C52	C	0.733650	-0.077234	0.052266
C53	C	0.733651	-0.137593	0.052273
C54	C	0.621407	-0.033078	-0.052259
C55	C	0.621404	0.027279	-0.052260
C56	C	0.677529	0.005196	0.000002
C57	C	0.474323	0.630995	0.000008
C58	C	0.405364	0.630993	0.000010
C59	C	0.412642	0.557085	0.036961
C60	C	0.347844	0.557087	0.036962
C61	C	0.275770	0.630998	0.000007
C62	C	0.268493	0.704912	-0.036945
C63	C	0.333289	0.704909	-0.036942
C64	C	0.007175	0.704926	-0.036961
C65	C	-0.057623	0.704923	-0.036964
C66	C	0.021730	0.557104	0.036942
C67	C	0.086526	0.557101	0.036946
C68	C	0.079244	0.631014	-0.000003
C69	C	0.149505	0.631011	-0.000002
C70	C	0.205509	0.631002	0.000001
C71	C	0.880695	0.631012	-0.000006
C72	C	0.949654	0.631014	-0.000008
C73	C	0.677460	0.631006	-0.189264
C74	C	0.677444	0.631007	-0.253498
C75	C	0.677529	0.820253	0.000008
C76	C	0.677536	0.884483	0.000010
C77	C	0.637770	0.704914	-0.320625
C78	C	0.637789	0.704915	-0.380980
C79	C	0.677472	0.631005	-0.374205
C80	C	0.717154	0.557089	-0.307066
C81	C	0.717140	0.557090	-0.246713
C82	C	0.671830	0.574379	-0.441524
C83	C	0.671838	0.574381	-0.501877
C84	C	0.677520	0.630999	-0.560352
C85	C	0.683177	0.687629	-0.558473
C86	C	0.683163	0.687630	-0.498120
C87	C	0.677492	0.630996	-0.439643
C88	C	0.637865	0.704912	-0.692925
C89	C	0.637890	0.704910	-0.753280
C90	C	0.717250	0.557082	-0.679364
C91	C	0.717230	0.557086	-0.619011
C92	C	0.677534	0.631003	-0.625797
C93	C	0.677557	0.631001	0.189265
C94	C	0.677574	0.631000	0.253500
C95	C	0.880674	0.441762	-0.000013
C96	C	0.949627	0.377535	-0.000018
C97	C	0.677537	0.441751	0.189258
C98	C	0.677546	0.377520	0.253490
C99	C	0.880723	0.441759	0.189251
C100	C	0.949692	0.377531	0.253481
C101	C	0.474295	0.820248	-0.189250
C102	C	0.405326	0.884476	-0.253480
C103	C	0.474343	0.820245	0.000015
C104	C	0.405391	0.884472	0.000019
C105	C	0.677481	0.820256	-0.189257
C106	C	0.677471	0.884487	-0.253489
C107	C	0.942322	0.347372	-0.036983
C108	C	1.007104	0.287033	-0.037001
C109	C	1.079190	0.256853	-0.000051
C110	C	1.086493	0.287021	0.036915
C111	C	1.021712	0.347364	0.036929
C112	C	0.717236	0.347358	0.320617
C113	C	0.717243	0.287015	0.380976
C114	C	0.677563	0.256831	0.374206
C115	C	0.637868	0.286999	0.307072
C116	C	0.637858	0.347345	0.246715
C117	C	1.021754	0.347371	0.246685
C118	C	1.086564	0.287031	0.307030
C119	C	1.079310	0.256847	0.374170
C120	C	1.007240	0.287013	0.380965
C121	C	0.942432	0.347356	0.320621
C122	C	0.333264	0.914643	-0.246684
C123	C	0.268454	0.975003	-0.307029
C124	C	0.275708	1.005189	-0.374169
C125	C	0.347777	0.975020	-0.380963
C126	C	0.412586	0.914665	-0.320619
C127	C	0.412696	0.914641	0.036978
C128	C	0.347914	0.974997	0.036980
C129	C	0.275828	1.005179	0.000027
C130	C	0.268525	0.975008	-0.036936
C131	C	0.333306	0.914657	-0.036942
C132	C	0.717159	0.914651	-0.246697
C133	C	0.717165	0.974995	-0.307044
C134	C	0.677478	1.005177	-0.374182
C135	C	0.637789	0.975006	-0.380973
C136	C	0.637788	0.914660	-0.320627
H137	H	0.779314	0.167612	0.094814
Br138	Br	-0.002716	0.805237	-0.087107
Br139	Br	0.677486	1.087078	-0.456075
H140	H	0.471386	0.890071	0.067074
H141	H	0.209823	0.999592	-0.067022
Br142	Br	0.809818	-0.249467	0.123209
Br143	Br	0.184341	0.456790	0.087096
Br144	Br	0.690886	0.764475	-0.637828
Br145	Br	0.583925	1.015983	-0.472096
H146	H	0.749570	0.262459	0.435633
Br147	Br	0.997409	0.246041	0.472090
H148	H	0.353875	0.999553	0.067082
H149	H	0.749483	0.999553	-0.301501
Br150	Br	0.545204	0.369206	-0.123194
Br151	Br	0.323411	0.805216	-0.087086
H152	H	0.223085	1.054321	0.000037
Br153	Br	0.323378	0.873717	-0.087101
Br154	Br	0.170677	0.805221	-0.087092
Br155	Br	1.167101	0.174958	-0.000077
Br156	Br	0.323398	0.873687	-0.155572
H157	H	0.749477	0.890087	-0.192034
H158	H	0.883758	0.371905	0.326164
H159	H	0.209778	0.999557	-0.301483
Br160	Br	0.771098	0.388304	0.329824
Br161	Br	0.997174	0.246101	-0.087171
Br162	Br	0.583990	0.388269	0.155617
H163	H	1.132087	0.207711	0.423301
Br164	Br	0.844499	0.388320	-0.087139
H165	H	0.605466	0.890107	-0.326167
Br166	Br	1.184362	0.246102	0.297792
Br167	Br	0.718784	-0.034514	0.150379
H168	H	0.677577	0.207693	0.423359
Br169	Br	0.584011	0.805225	-0.702129
H170	H	0.605585	0.765096	-0.807939
H171	H	0.749561	0.496904	-0.673846
H172	H	1.027670	0.371915	0.067035
H173	H	0.471260	0.890104	-0.326161
H174	H	0.222931	1.054333	-0.423299
H175	H	0.353674	0.999605	-0.435636
H176	H	0.779306	0.277109	0.094807
H177	H	0.709252	0.113115	0.115738
Br178	Br	0.809818	-0.107198	0.123192
H179	H	0.575718	-0.015105	-0.094812
Br180	Br	0.771061	0.456779	-0.527905
Br181	Br	0.584020	0.246026	0.297897
H182	H	0.605449	0.765103	-0.326156
Br183	Br	1.031619	0.388326	0.155574
H184	H	0.605480	0.765100	-0.435645
H185	H	0.575705	0.094397	-0.094818
Br186	Br	0.664150	0.497536	-0.504426
Br187	Br	0.636279	0.154246	-0.150377
Br188	Br	0.636263	0.296514	-0.150383
H189	H	0.027653	0.496920	0.067029
H190	H	0.471325	0.496897	0.067057
Br191	Br	0.357727	0.456779	0.087122
Br192	Br	-0.155443	0.805238	-0.087121
Br193	Br	0.545180	0.511481	-0.123198
Br194	Br	0.690840	0.764480	-0.495569
H195	H	0.667198	0.528274	-0.393915
H196	H	0.749465	0.496912	-0.301553
H197	H	0.749448	0.496905	-0.192053
H198	H	1.145194	0.262440	0.066999
