data_functionalizedCrystal
_audit_creation_method	'MofGen! by Chris Wilmer'
_symmetry_space_group_name_H-M	'P1'
_symmetry_Int_Tables_number	1
_symmetry_cell_setting	triclinic
loop_
_symmetry_equiv_pos_as_xyz
  x,y,z
_cell_length_a	25.639239
_cell_length_b	12.759401
_cell_length_c	12.759393
_cell_angle_alpha	89.979434
_cell_angle_beta	90.035978
_cell_angle_gamma	89.963105
loop_
_atom_site_label
_atom_site_type_symbol
_atom_site_fract_x
_atom_site_fract_y
_atom_site_fract_z
Zn1	Zn	-0.208150	-1.606091	0.593970
Zn2	Zn	-0.295596	-1.605909	0.418273
Zn3	Zn	-0.208173	-1.430390	0.418306
Zn4	Zn	-0.295554	-1.430308	0.593911
O5	O	-0.251868	-1.518175	0.506115
O6	O	-0.219758	-1.753088	0.570674
O7	O	-0.284026	-1.582584	0.271256
O8	O	-0.135005	-1.453808	0.441646
O9	O	-0.284004	-1.752954	0.441590
O10	O	-0.134988	-1.582895	0.570706
O11	O	-0.219797	-1.453631	0.271280
O12	O	-0.219757	-1.283358	0.441590
O13	O	-0.283933	-1.453668	0.740940
O14	O	-0.283955	-1.283298	0.570606
O15	O	-0.219718	-1.582815	0.740983
O16	O	-0.368755	-1.582504	0.441533
O17	O	-0.368725	-1.453492	0.570574
C18	C	-0.251854	-1.245207	0.506096
C19	C	-0.251861	-1.128431	0.506113
C20	C	-0.218467	-1.073639	0.573429
C21	C	-0.218471	-0.963915	0.573434
C22	C	-0.285265	-0.963784	0.438804
C23	C	-0.285259	-1.073506	0.438794
C24	C	-0.387711	-1.517998	0.506067
C25	C	-0.445825	-1.518018	0.506081
C26	C	-0.806191	-1.585527	0.439038
C27	C	-0.860796	-1.585568	0.439052
O28	O	-0.889035	-1.642782	0.381996
N29	N	-0.888107	-1.518359	0.506184
C30	C	-0.860812	-1.451113	0.573315
O31	O	-0.889057	-1.393952	0.630418
C32	C	-0.806209	-1.451079	0.573305
C33	C	-0.778900	-1.518284	0.506161
C34	C	-0.778882	-1.652727	0.371900
C35	C	-0.724282	-1.652685	0.371884
C36	C	-0.696990	-1.585442	0.439008
C37	C	-0.724299	-1.518242	0.506146
C38	C	-0.778914	-1.383839	0.640440
C39	C	-0.724307	-1.383810	0.640426
C40	C	-0.696998	-1.451016	0.573281
C41	C	-0.642407	-1.450956	0.573254
N42	N	-0.615095	-1.518165	0.506121
C43	C	-0.642387	-1.585408	0.438998
C44	C	-0.975483	-1.451192	0.573331
C45	C	-1.030085	-1.451221	0.573336
C46	C	-1.030065	-1.585677	0.439074
C47	C	-0.975461	-1.585642	0.439065
C48	C	-0.948171	-1.518401	0.506199
C49	C	-0.527722	-1.585313	0.438971
C50	C	-0.473117	-1.585261	0.438958
C51	C	-0.473141	-1.450810	0.573224
C52	C	-0.527742	-1.450857	0.573232
C53	C	-0.555031	-1.518117	0.506102
O54	O	-0.614133	-1.393773	0.630283
O55	O	-0.614136	-1.642569	0.381914
C56	C	-0.115495	-1.518381	0.506186
C57	C	-0.057381	-1.518468	0.506217
C58	C	-0.251818	-1.518253	0.780148
C59	C	-0.251797	-1.518287	0.896925
C60	C	-0.251878	-0.792208	0.506131
C61	C	-0.251870	-0.908984	0.506128
C62	C	-0.251881	-1.518157	0.233147
C63	C	-0.251755	-1.518327	0.116371
C64	C	-0.218355	-1.585539	0.951811
C65	C	-0.218332	-1.585556	1.061535
C66	C	-0.285198	-1.451068	1.061478
C67	C	-0.285218	-1.451045	0.951756
H68	H	-0.191278	-0.919308	0.628249
O69	O	-0.186072	-1.127156	0.638779
C70	C	-0.193216	-1.235750	0.624321
H71	H	-0.233545	-1.250680	0.589766
H72	H	-0.189713	-1.277488	0.703027
H73	H	-0.162169	-1.266895	0.568482
O74	O	-0.948879	-1.650981	0.373992
C75	C	-0.917252	-1.718813	0.433858
H76	H	-0.909056	-1.681715	0.513442
H77	H	-0.878865	-1.732900	0.391064
H78	H	-0.938259	-1.796674	0.445475
H79	H	-0.191099	-1.640318	1.106219
O80	O	-0.317651	-1.126900	0.373435
C81	C	-0.310491	-1.235520	0.387880
H82	H	-0.270161	-1.250559	0.422436
H83	H	-0.313987	-1.277185	0.309169
H84	H	-0.341534	-1.266650	0.443713
O85	O	-0.446599	-1.385649	0.638538
C86	C	-0.414952	-1.445427	0.706408
H87	H	-0.431371	-1.528177	0.712966
H88	H	-0.414313	-1.407398	0.787233
H89	H	-0.373581	-1.449044	0.673907
O90	O	-0.805463	-1.717939	0.306698
C91	C	-0.837112	-1.658235	0.238766
H92	H	-0.845309	-1.578574	0.275698
H93	H	-0.875496	-1.701077	0.224808
H94	H	-0.816124	-1.646777	0.160860
H95	H	-0.312410	-1.396324	1.106134
H96	H	-0.549934	-1.640085	0.384309
H97	H	-0.191140	-1.640288	0.907171
H98	H	-0.312450	-1.396273	0.907066
H99	H	-0.450883	-1.639988	0.384277
O100	O	-0.317765	-0.910379	0.373571
C101	C	-0.351565	-0.846885	0.433270
H102	H	-0.354841	-0.879988	0.516001
H103	H	-0.391779	-0.845580	0.395125
H104	H	-0.335406	-0.763748	0.436958
O105	O	-0.697839	-1.718079	0.306637
C106	C	-0.733645	-1.777415	0.247390
H107	H	-0.772549	-1.781037	0.290441
H108	H	-0.717840	-1.860195	0.236261
H109	H	-0.739500	-1.738996	0.167560
O110	O	-0.948917	-1.385807	0.638393
C111	C	-0.917398	-1.317938	0.578514
H112	H	-0.909222	-1.355031	0.498929
H113	H	-0.878995	-1.303798	0.621295
H114	H	-0.938488	-1.240105	0.566897
H115	H	-1.052295	-1.640434	0.384422
H116	H	-0.801140	-1.329108	0.695112
O117	O	-1.056529	-1.385896	0.638651
C118	C	-1.020725	-1.326522	0.697867
H119	H	-0.981780	-1.369530	0.701525
H120	H	-1.036471	-1.315279	0.780641
H121	H	-1.014971	-1.246746	0.659319
O122	O	-0.697879	-1.318393	0.705678
C123	C	-0.733696	-1.259114	0.764958
H124	H	-0.772636	-1.255523	0.721926
H125	H	-0.717958	-1.176319	0.776102
H126	H	-0.739457	-1.297561	0.844781
H127	H	-0.549978	-1.396136	0.627910
