data_functionalizedCrystal
_audit_creation_method	'MofGen! by Chris Wilmer'
_symmetry_space_group_name_H-M	'P1'
_symmetry_Int_Tables_number	1
_symmetry_cell_setting	triclinic
loop_
_symmetry_equiv_pos_as_xyz
  x,y,z
_cell_length_a	14.971482
_cell_length_b	10.723024
_cell_length_c	13.448316
_cell_angle_alpha	90.001504
_cell_angle_beta	90.004360
_cell_angle_gamma	84.040239
loop_
_atom_site_label
_atom_site_type_symbol
_atom_site_fract_x
_atom_site_fract_y
_atom_site_fract_z
O1	O	1.187821	0.162588	0.082676
O2	O	1.521154	0.495921	0.416010
O3	O	1.854487	0.829254	0.749343
O4	O	0.927525	0.182066	0.082681
O5	O	1.260858	0.515400	0.416014
O6	O	1.594191	0.848733	0.749348
O7	O	1.063677	-0.009312	0.082675
O8	O	1.397010	0.324021	0.416008
O9	O	1.730343	0.657355	0.749342
O10	O	1.051668	0.353966	0.082682
O11	O	1.385002	0.687299	0.416016
O12	O	1.718335	1.020633	0.749349
O13	O	1.063663	-0.009310	-0.082709
O14	O	1.396996	0.324023	0.250624
O15	O	1.730330	0.657356	0.583958
O16	O	0.927511	0.182068	-0.082703
O17	O	1.260844	0.515401	0.250630
O18	O	1.594178	0.848735	0.583964
O19	O	1.187807	0.162590	-0.082707
O20	O	1.521140	0.495923	0.250626
O21	O	1.854474	0.829256	0.583959
Cu22	Cu	1.057658	0.172329	-0.097806
Cu23	Cu	1.390991	0.505662	0.235527
Cu24	Cu	1.724324	0.838996	0.568861
Cu25	Cu	1.057674	0.172327	0.097780
Cu26	Cu	1.391007	0.505660	0.431113
Cu27	Cu	1.724340	0.838993	0.764446
O28	O	1.051655	0.353968	-0.082701
O29	O	1.384988	0.687301	0.250632
O30	O	1.718322	1.020634	0.583965
C31	C	0.894188	0.181197	-0.000010
C32	C	1.227522	0.514530	0.333323
C33	C	1.560855	0.847864	0.666656
C34	C	0.794877	0.178589	-0.000009
C35	C	1.128210	0.511922	0.333325
C36	C	1.461544	0.845256	0.666658
C37	C	0.748218	0.177362	-0.090160
C38	C	1.081552	0.510695	0.243173
C39	C	1.414885	0.844028	0.576506
C40	C	0.654907	0.174891	-0.090162
C41	C	0.988240	0.508224	0.243172
C42	C	1.321573	0.841558	0.576505
C43	C	0.608255	0.173657	-0.000010
C44	C	0.941588	0.506990	0.333323
C45	C	1.274921	0.840324	0.666657
C46	C	0.654920	0.174881	0.090149
C47	C	0.988253	0.508214	0.423482
C48	C	1.321587	0.841547	0.756816
C49	C	0.748231	0.177342	0.090149
C50	C	1.081564	0.510675	0.423482
C51	C	1.414898	0.844009	0.756816
C52	C	0.460431	0.169753	0.090142
C53	C	0.793764	0.503087	0.423476
C54	C	1.127097	0.836420	0.756809
C55	C	0.367113	0.167294	0.090143
C56	C	0.700446	0.500628	0.423476
C57	C	1.033780	0.833961	0.756809
C58	C	0.367106	0.167302	-0.090168
C59	C	0.700440	0.500636	0.243165
C60	C	1.033773	0.833969	0.576498
C61	C	0.460417	0.169764	-0.090168
C62	C	0.793751	0.503097	0.243165
C63	C	1.127084	0.836430	0.576499
C64	C	0.507076	0.170990	-0.000009
C65	C	0.840409	0.504323	0.333324
C66	C	1.173743	0.837656	0.666658
C67	C	1.062796	-0.055802	-0.000016
C68	C	1.396129	0.277532	0.333317
C69	C	1.729463	0.610865	0.666651
C70	C	1.060182	-0.194329	-0.000012
C71	C	1.393515	0.139005	0.333321
C72	C	1.726848	0.472338	0.666654
C73	C	1.136365	-0.270109	-0.000012
C74	C	1.469698	0.063225	0.333321
C75	C	1.803032	0.396558	0.666654
C76	C	1.133665	-0.413284	-0.000009
C77	C	1.466998	-0.079951	0.333325
C78	C	1.800331	0.253383	0.666658
C79	C	1.221143	0.163459	-0.000014
C80	C	1.554477	0.496792	0.333319
C81	C	1.887810	0.830126	0.666653
C82	C	1.320455	0.166067	-0.000009
C83	C	1.653788	0.499400	0.333324
C84	C	1.987121	0.832734	0.666658
C85	C	1.052536	0.400457	-0.000008
C86	C	1.385869	0.733791	0.333325
C87	C	1.719202	1.067124	0.666658
C88	C	1.055150	0.538984	-0.000005
C89	C	1.388483	0.872318	0.333328
C90	C	1.721817	1.205651	0.666661
N91	N	1.057653	0.172330	-0.235370
N92	N	1.390986	0.505663	0.097963
N93	N	1.724320	0.838996	0.431296
C94	C	1.002976	0.096508	-0.712619
C95	C	1.336310	0.429842	-0.379285
C96	C	1.669643	0.763175	-0.045952
C97	C	1.002973	0.096504	-0.608515
C98	C	1.336307	0.429838	-0.275182
C99	C	1.669640	0.763171	0.058151
C100	C	1.057675	0.172316	-0.556452
C101	C	1.391009	0.505649	-0.223118
C102	C	1.724342	0.838983	0.110215
C103	C	1.112391	0.248127	-0.608497
C104	C	1.445724	0.581460	-0.275163
C105	C	1.779058	0.914794	0.058170
C106	C	1.112398	0.248123	-0.712598
C107	C	1.445731	0.581457	-0.379265
C108	C	1.779065	0.914790	-0.045931
C109	C	1.112371	0.248132	-0.391516
C110	C	1.445704	0.581465	-0.058183
C111	C	1.779037	0.914799	0.275150
C112	C	1.112362	0.248138	-0.287408
C113	C	1.445696	0.581471	0.045925
C114	C	1.779029	0.914804	0.379259
C115	C	1.002946	0.096513	-0.287434
C116	C	1.336279	0.429846	0.045899
C117	C	1.669612	0.763179	0.379233
C118	C	1.002953	0.096509	-0.391535
C119	C	1.336286	0.429842	-0.058202
C120	C	1.669619	0.763176	0.275131
C121	C	1.057667	0.172322	-0.443573
C122	C	1.391001	0.505656	-0.110240
C123	C	1.724334	0.838989	0.223094
N124	N	1.057686	0.172316	0.235344
N125	N	1.391019	0.505650	0.568677
N126	N	1.724352	0.838983	0.902010
H127	H	0.498398	0.170776	-0.163578
H128	H	0.831732	0.504110	0.169756
H129	H	1.165065	0.837443	0.503089
Br130	Br	0.811522	0.179049	-0.212516
Br131	Br	1.144855	0.512382	0.120817
Br132	Br	1.478189	0.845716	0.454150
H133	H	0.958426	0.034770	-0.566151
H134	H	1.291759	0.368104	-0.232818
H135	H	1.625093	0.701437	0.100516
H136	H	0.616923	0.173871	-0.163572
H137	H	0.950257	0.507204	0.169761
H138	H	1.283590	0.840538	0.503094
H139	H	0.329131	0.166290	0.163552
H140	H	0.662465	0.499624	0.496886
H141	H	0.995798	0.832957	0.830219
H142	H	0.992959	-0.235447	-0.000005
H143	H	1.326292	0.097886	0.333329
H144	H	1.659625	0.431220	0.666662
Br145	Br	0.946436	-0.352501	-0.000018
Br146	Br	1.279770	-0.019168	0.333316
Br147	Br	1.613103	0.314166	0.666649
Br148	Br	1.242375	-0.521806	-0.000020
Br149	Br	1.575708	-0.188473	0.333313
Br150	Br	1.909041	0.144861	0.666646
H151	H	0.329112	0.166304	-0.163579
H152	H	0.662446	0.499638	0.169754
H153	H	0.995779	0.832971	0.503088
H154	H	0.958426	0.034780	-0.755001
H155	H	1.291760	0.368113	-0.421668
H156	H	1.625093	0.701447	-0.088335
Br157	Br	0.523754	0.171410	0.212502
Br158	Br	0.857087	0.504744	0.545836
Br159	Br	1.190420	0.838077	0.879169
Br160	Br	0.928703	-0.006365	-0.462193
Br161	Br	1.262036	0.326968	-0.128860
Br162	Br	1.595370	0.660302	0.204473
Br163	Br	1.248414	-0.201590	-0.000004
Br164	Br	1.581748	0.131743	0.333329
Br165	Br	1.915081	0.465077	0.666663
H166	H	0.958393	0.034786	-0.245060
H167	H	1.291727	0.368119	0.088274
H168	H	1.625060	0.701452	0.421607
Br169	Br	1.186638	0.350975	-0.216750
Br170	Br	1.519971	0.684309	0.116584
Br171	Br	1.853304	1.017642	0.449917
Br172	Br	0.591612	0.173151	0.212500
Br173	Br	0.924946	0.506484	0.545833
Br174	Br	1.258279	0.839818	0.879166
H175	H	1.156935	0.309848	-0.566098
H176	H	1.490268	0.643182	-0.232765
H177	H	1.823601	0.976515	0.100569
H178	H	0.786219	0.178344	0.163560
H179	H	1.119552	0.511677	0.496893
H180	H	1.452886	0.845011	0.830227
Br181	Br	1.186633	0.351014	-0.462139
Br182	Br	1.519966	0.684347	-0.128805
Br183	Br	1.853299	1.017680	0.204528
Br184	Br	1.186657	0.351000	-0.783222
Br185	Br	1.519990	0.684333	-0.449889
Br186	Br	1.853323	1.017666	-0.116555
