data_functionalizedCrystal
_audit_creation_method	'MofGen! by Chris Wilmer'
_symmetry_space_group_name_H-M	'P1'
_symmetry_Int_Tables_number	1
_symmetry_cell_setting	triclinic
loop_
_symmetry_equiv_pos_as_xyz
  x,y,z
_cell_length_a	19.805407
_cell_length_b	21.295416
_cell_length_c	19.805399
_cell_angle_alpha	89.971630
_cell_angle_beta	90.019573
_cell_angle_gamma	89.969669
loop_
_atom_site_label
_atom_site_type_symbol
_atom_site_fract_x
_atom_site_fract_y
_atom_site_fract_z
Zn1	Zn	1.034717	0.250624	0.382716
Zn2	Zn	1.534717	0.750624	0.882716
Zn3	Zn	1.034624	0.355893	0.269526
Zn4	Zn	1.534624	0.855893	0.769526
Zn5	Zn	0.921532	0.250641	0.269541
Zn6	Zn	1.421532	0.750641	0.769541
Zn7	Zn	0.921488	0.355859	0.382673
Zn8	Zn	1.421488	0.855859	0.882673
O9	O	0.978090	0.303254	0.326114
O10	O	1.478090	0.803254	0.826114
O11	O	1.129421	0.264595	0.367713
O12	O	1.629421	0.764595	0.867713
O13	O	1.019602	0.341952	0.174811
O14	O	1.519602	0.841952	0.674811
O15	O	0.936604	0.162549	0.284578
O16	O	1.436604	0.662549	0.784578
O17	O	1.129353	0.341935	0.284553
O18	O	1.629353	0.841935	0.784553
O19	O	1.019760	0.162537	0.367727
O20	O	1.519760	0.662537	0.867727
O21	O	0.936513	0.264624	0.174822
O22	O	1.436513	0.764624	0.674822
O23	O	0.826809	0.264592	0.284536
O24	O	1.326809	0.764592	0.784536
O25	O	0.936528	0.341878	0.477395
O26	O	1.436528	0.841878	0.977395
O27	O	0.826777	0.341895	0.367654
O28	O	1.326777	0.841895	0.867654
O29	O	1.019717	0.264562	0.477427
O30	O	1.519717	0.764562	0.977427
O31	O	1.019559	0.443977	0.284511
O32	O	1.519559	0.943977	0.784511
O33	O	0.936438	0.443953	0.367640
O34	O	1.436438	0.943953	0.867640
C35	C	0.802234	0.303242	0.326092
C36	C	1.302234	0.803242	0.826092
C37	C	0.727002	0.303252	0.326099
C38	C	1.227002	0.803252	0.826099
C39	C	0.978002	0.466806	0.326084
C40	C	1.478002	0.966806	0.826084
C41	C	0.978026	0.536774	0.326094
C42	C	1.478026	1.036774	0.826094
C43	C	0.691659	0.343564	0.369308
C44	C	1.191659	0.843564	0.869308
C45	C	0.620970	0.343566	0.369318
C46	C	1.120970	0.843566	0.869318
C47	C	0.585627	0.303257	0.326114
C48	C	1.085627	0.803257	0.826114
C49	C	0.620975	0.262940	0.282903
C50	C	1.120975	0.762940	0.782903
C51	C	0.691662	0.262936	0.282897
C52	C	1.191662	0.762936	0.782897
C53	C	0.335902	0.262954	0.282925
C54	C	0.835902	0.762954	0.782925
C55	C	0.265210	0.262962	0.282932
C56	C	0.765210	0.762962	0.782932
C57	C	0.265210	0.343583	0.369346
C58	C	0.765210	0.843583	0.869346
C59	C	0.335897	0.343579	0.369340
C60	C	0.835897	0.843579	0.869340
C61	C	0.371239	0.303261	0.326132
C62	C	0.871239	0.803261	0.826132
C63	C	0.447888	0.303259	0.326123
C64	C	0.947888	0.803259	0.826123
C65	C	0.508980	0.303261	0.326119
C66	C	1.008980	0.803261	0.826119
C67	C	1.021346	0.569632	0.282855
C68	C	1.521346	1.069632	0.782855
C69	C	1.021378	0.635375	0.282873
C70	C	1.521378	1.135375	0.782873
C71	C	0.978078	0.668256	0.326123
C72	C	1.478078	1.168256	0.826123
C73	C	0.934755	0.635390	0.369371
C74	C	1.434755	1.135390	0.869371
C75	C	0.934729	0.569649	0.369356
C76	C	1.434729	1.069649	0.869356
N77	N	0.918868	0.771522	0.331281
N78	N	1.418868	1.271522	0.831281
N79	N	0.918895	0.833974	0.331291
N80	N	1.418895	1.333974	0.831291
C81	C	0.978155	0.866331	0.326171
C82	C	1.478155	1.366331	0.826171
N83	N	1.037388	0.833878	0.321028
N84	N	1.537388	1.333878	0.821028
N85	N	1.037361	0.771421	0.321015
N86	N	1.537361	1.271421	0.821015
C87	C	0.978102	0.739542	0.326144
C88	C	1.478102	1.239542	0.826144
C89	C	1.021513	0.970475	0.282950
C90	C	1.521513	1.470475	0.782950
C91	C	1.021546	1.036219	0.282973
C92	C	1.521546	1.536219	0.782973
C93	C	0.934917	1.036233	0.369467
C94	C	1.434917	1.536233	0.869467
C95	C	0.934890	0.970490	0.369447
C96	C	1.434890	1.470490	0.869447
C97	C	0.978187	0.937615	0.326185
C98	C	1.478187	1.437615	0.826185
C99	C	1.154633	0.303267	0.326136
C100	C	1.654633	0.803267	0.826136
C101	C	1.229865	0.303272	0.326146
C102	C	1.729865	0.803272	0.826146
C103	C	0.978128	0.303214	0.502657
C104	C	1.478128	0.803214	1.002657
C105	C	0.978144	0.303198	0.577889
C106	C	1.478144	0.803198	1.077889
C107	C	0.978198	1.139064	0.326170
C108	C	1.478198	1.639064	0.826170
C109	C	0.978246	1.069096	0.326224
C110	C	1.478246	1.569096	0.826224
C111	C	0.978091	0.303248	0.150258
C112	C	1.478091	0.803248	0.650258
C113	C	0.978206	0.303088	0.075026
C114	C	1.478206	0.803088	0.575026
C115	C	1.021462	0.262937	0.613250
C116	C	1.521462	0.762937	1.113250
C117	C	1.021469	0.262919	0.683939
C118	C	1.521469	0.762919	1.183939
C119	C	0.978161	0.303165	0.719264
C120	C	1.478161	0.803165	1.219264
C121	C	0.934839	0.343427	0.683898
C122	C	1.434839	0.843427	1.183898
C123	C	0.934829	0.343442	0.613210
C124	C	1.434829	0.843442	1.113210
C125	C	0.934877	0.343368	0.968971
C126	C	1.434877	0.843368	1.468971
C127	C	0.934892	0.343352	1.039663
C128	C	1.434892	0.843352	1.539663
C129	C	1.021517	0.262846	1.039700
C130	C	1.521517	0.762846	1.539700
C131	C	1.021507	0.262860	0.969012
C132	C	1.521507	0.762860	1.469012
C133	C	0.978183	0.303120	0.933652
C134	C	1.478183	0.803120	1.433652
C135	C	0.978175	0.303138	0.857003
C136	C	1.478175	0.803138	1.357003
C137	C	0.978172	0.303150	0.795912
C138	C	1.478172	0.803150	1.295912
H139	H	0.720431	0.376391	0.404487
H140	H	1.220431	0.876391	0.904487
H141	H	0.592197	0.376393	0.404502
H142	H	1.092197	0.876393	0.904502
H143	H	1.056730	0.230166	0.584493
H144	H	1.556730	0.730166	1.084493
Br145	Br	1.080115	0.525019	0.224151
Br146	Br	1.580115	1.025019	0.724151
Br147	Br	1.080291	0.208307	0.731928
Br148	Br	1.580291	0.708307	1.231928
Br149	Br	1.080269	0.925855	0.224236
Br150	Br	1.580269	1.425855	0.724236
Br151	Br	0.217242	0.398304	0.427986
Br152	Br	0.717242	0.898304	0.927986
Br153	Br	0.383857	0.208232	0.224289
Br154	Br	0.883857	0.708232	0.724289
Br155	Br	0.217243	0.208255	0.224294
Br156	Br	0.717243	0.708255	0.724294
H157	H	1.056775	0.230090	0.940254
H158	H	1.556775	0.730090	1.440254
Br159	Br	0.876094	0.925893	0.428131
Br160	Br	1.376094	1.425893	0.928131
H161	H	0.899622	0.376126	1.068423
H162	H	1.399622	0.876126	1.568423
H163	H	1.056792	0.230062	1.068499
H164	H	1.556792	0.730062	1.568499
H165	H	0.899548	0.376219	0.584420
H166	H	1.399548	0.876219	1.084420
H167	H	1.056826	1.062971	0.247764
H168	H	1.556826	1.562971	0.747764
H169	H	0.592192	0.230118	0.247728
H170	H	1.092192	0.730118	0.747728
Br171	Br	0.739629	0.208221	0.224257
Br172	Br	1.239629	0.708221	0.724257
Br173	Br	0.876059	0.398043	0.731839
Br174	Br	1.376059	0.898043	1.231839
Br175	Br	0.383860	0.398290	0.427972
Br176	Br	0.883860	0.898290	0.927972
Br177	Br	0.875996	0.680013	0.428073
Br178	Br	1.375996	1.180013	0.928073
Br179	Br	1.080173	0.679979	0.224187
Br180	Br	1.580173	1.179979	0.724187
H181	H	0.899609	0.376159	0.940189
H182	H	1.399609	0.876159	1.440189
H183	H	0.899453	0.542895	0.404567
H184	H	1.399453	1.042895	0.904567
Br185	Br	0.876159	1.080850	0.428172
Br186	Br	1.376159	1.580850	0.928172
