data_functionalizedCrystal
_audit_creation_method	'MofGen! by Chris Wilmer'
_symmetry_space_group_name_H-M	'P1'
_symmetry_Int_Tables_number	1
_symmetry_cell_setting	triclinic
loop_
_symmetry_equiv_pos_as_xyz
  x,y,z
_cell_length_a	11.792241
_cell_length_b	12.503572
_cell_length_c	11.792254
_cell_angle_alpha	86.452607
_cell_angle_beta	84.196007
_cell_angle_gamma	93.538276
loop_
_atom_site_label
_atom_site_type_symbol
_atom_site_fract_x
_atom_site_fract_y
_atom_site_fract_z
O1	O	1.513413	0.089216	0.149049
O2	O	1.183074	0.089241	0.165080
O3	O	1.356252	0.089221	-0.008105
O4	O	1.340235	0.089237	0.322233
O5	O	1.343228	-0.089420	0.004941
O6	O	1.170050	-0.089399	0.178126
O7	O	1.500389	-0.089424	0.162095
Cu8	Cu	1.334030	-0.105723	0.171302
Cu9	Cu	1.349433	0.105540	0.155873
O10	O	1.327211	-0.089403	0.335279
C11	C	1.134271	-0.000076	0.170595
C12	C	1.008258	-0.000066	0.167580
N13	N	1.323206	-0.254314	0.182153
C14	C	0.777544	-0.000097	0.162040
C15	C	0.905930	-0.000080	0.165118
C16	C	1.307282	-0.473427	0.198124
C17	C	1.376186	-0.526762	0.129045
C18	C	1.367326	-0.648685	0.137932
C19	C	1.316141	-0.351494	0.189239
C20	C	1.549192	-0.000105	0.156579
C21	C	1.675205	-0.000107	0.159594
C22	C	1.348731	-0.000099	-0.043872
C23	C	1.345711	-0.000098	-0.169886
N24	N	1.360266	0.254131	0.145013
C25	C	1.343257	-0.000094	-0.272222
C26	C	1.340189	-0.000084	-0.400610
C27	C	1.334732	-0.000081	0.371047
C28	C	1.337753	-0.000075	0.497059
H29	H	1.441832	-0.480857	0.063230
C30	C	1.218602	-0.535440	0.287031
N31	N	1.151809	-0.582160	0.353995
