data_functionalizedCrystal
_audit_creation_method	'MofGen! by Chris Wilmer'
_symmetry_space_group_name_H-M	'P1'
_symmetry_Int_Tables_number	1
_symmetry_cell_setting	triclinic
loop_
_symmetry_equiv_pos_as_xyz
  x,y,z
_cell_length_a	11.026607
_cell_length_b	23.532357
_cell_length_c	9.482900
_cell_angle_alpha	99.268091
_cell_angle_beta	78.636152
_cell_angle_gamma	95.707154
loop_
_atom_site_label
_atom_site_type_symbol
_atom_site_fract_x
_atom_site_fract_y
_atom_site_fract_z
O1	O	1.626212	0.231208	-0.120961
O2	O	1.273242	0.204087	-0.120956
O3	O	1.460398	0.135838	-0.120929
O4	O	1.439057	0.299457	-0.120988
O5	O	1.422381	0.149772	0.120858
O6	O	1.235226	0.218021	0.120831
O7	O	1.588196	0.245142	0.120826
Cu8	Cu	1.408240	0.232854	0.142906
Cu9	Cu	1.453198	0.216375	-0.143036
O10	O	1.401040	0.313391	0.120799
C11	C	1.209085	0.206050	-0.000061
C12	C	1.074556	0.191135	-0.000057
C13	C	1.000241	0.232318	-0.000073
C14	C	0.861198	0.216904	-0.000070
C15	C	1.440855	0.121533	-0.000031
C16	C	1.439247	0.058146	-0.000017
C17	C	1.449902	-0.342525	-0.131894
C18	C	1.448377	-0.402086	-0.131902
O19	O	1.465171	-0.439349	-0.243991
N20	N	1.426898	-0.424281	-0.000105
C21	C	1.406930	-0.386913	0.131708
O22	O	1.388519	-0.411261	0.243810
C23	C	1.408446	-0.327354	0.131714
C24	C	1.429939	-0.305162	-0.000091
C25	C	1.471392	-0.320332	-0.263688
C26	C	1.472919	-0.260776	-0.263679
C27	C	1.452956	-0.223412	-0.131876
C28	C	1.431466	-0.245605	-0.000082
C29	C	1.388470	-0.289988	0.263526
C30	C	1.389987	-0.230425	0.263522
C31	C	1.411480	-0.208233	0.131717
C32	C	1.413031	-0.148685	0.131730
N33	N	1.434510	-0.126490	-0.000066
C34	C	1.454473	-0.163853	-0.131869
C35	C	1.403744	-0.511992	0.131683
C36	C	1.402236	-0.571549	0.131678
C37	C	1.443682	-0.586718	-0.131932
C38	C	1.445198	-0.527159	-0.131925
C39	C	1.425224	-0.489796	-0.000113
C40	C	1.457680	-0.038780	-0.131841
C41	C	1.459210	0.020783	-0.131820
C42	C	1.417758	0.035946	0.131789
C43	C	1.416234	-0.023611	0.131769
C44	C	1.436193	-0.060974	-0.000057
O45	O	1.396242	-0.111388	0.243762
O46	O	1.472865	-0.139498	-0.243953
C47	C	1.652353	0.243178	-0.000072
C48	C	1.786884	0.258093	-0.000085
C49	C	1.420584	0.327696	-0.000103
C50	C	1.422193	0.391082	-0.000126
N51	N	1.376627	0.244444	0.344021
N52	N	1.484821	0.204781	-0.344151
C53	C	1.443866	0.219790	0.416230
C54	C	1.417572	0.229439	0.583644
H55	H	1.035248	0.144463	-0.000078
H56	H	1.561853	0.176526	0.593735
H57	H	1.473926	-0.069194	-0.239186
O58	O	1.396235	0.076252	0.273942
H59	H	1.303391	0.065069	0.337146
O60	O	1.052299	0.294142	-0.000081
H61	H	1.036356	0.309935	-0.098629
O62	O	1.482390	0.044719	-0.273987
H63	H	1.401465	0.068106	-0.280283
H64	H	1.490416	-0.242713	-0.371008
O65	O	1.492895	-0.360629	-0.405858
H66	H	1.508086	-0.335181	-0.497486
O67	O	1.368448	-0.190130	0.405700
H68	H	1.373109	-0.144985	0.383575
O69	O	1.274611	0.281880	0.426297
H70	H	1.229359	0.298474	0.347936
O71	O	0.838939	0.319919	-0.000087
H72	H	0.763346	0.347742	-0.000082
O73	O	0.809148	0.155077	-0.000047
H74	H	0.708108	0.152671	-0.000056
O75	O	1.315547	0.266877	0.665898
H76	H	1.225626	0.248376	0.636811
H77	H	1.459932	-0.617150	-0.239253
O78	O	1.468358	-0.503224	-0.274083
H79	H	1.481974	-0.539217	-0.365727
O80	O	1.379066	-0.595483	0.273837
H81	H	1.365434	-0.559491	0.365481
H82	H	1.387482	-0.481573	0.239027
O83	O	1.365276	-0.313916	0.405688
H84	H	1.351634	-0.277921	0.497325
H85	H	1.398744	-0.041681	0.239096
O86	O	1.545873	0.182347	0.333966
H87	H	1.550504	0.180637	0.215382
