data_functionalizedCrystal
_audit_creation_method	'MofGen! by Chris Wilmer'
_symmetry_space_group_name_H-M	'P1'
_symmetry_Int_Tables_number	1
_symmetry_cell_setting	triclinic
loop_
_symmetry_equiv_pos_as_xyz
  x,y,z
_cell_length_a	18.215407
_cell_length_b	12.645330
_cell_length_c	18.215398
_cell_angle_alpha	90.020504
_cell_angle_beta	90.019464
_cell_angle_gamma	90.018140
loop_
_atom_site_label
_atom_site_type_symbol
_atom_site_fract_x
_atom_site_fract_y
_atom_site_fract_z
Zn1	Zn	1.125106	-0.422064	0.416141
Zn2	Zn	1.125031	-0.599338	0.293085
Zn3	Zn	1.002039	-0.422091	0.293088
Zn4	Zn	1.002020	-0.599287	0.416110
O5	O	1.063549	-0.510695	0.354606
O6	O	1.228080	-0.445590	0.399829
O7	O	1.108692	-0.575859	0.190101
O8	O	1.018404	-0.273740	0.309426
O9	O	1.228025	-0.575833	0.309421
O10	O	1.108821	-0.273720	0.399832
O11	O	1.018331	-0.445636	0.190104
O12	O	0.899053	-0.445586	0.309396
O13	O	1.018371	-0.575746	0.519099
O14	O	0.899038	-0.575772	0.399780
O15	O	1.108802	-0.445540	0.519121
O16	O	1.108673	-0.747679	0.309391
O17	O	1.018298	-0.747641	0.399777
C18	C	0.872343	-0.510677	0.354585
C19	C	0.790544	-0.510695	0.354594
C20	C	0.602362	-0.578589	0.401597
C21	C	0.525503	-0.578592	0.401606
C22	C	0.525488	-0.442821	0.307631
C23	C	0.602346	-0.442813	0.307626
C24	C	0.640780	-0.510703	0.354608
C25	C	0.487064	-0.510714	0.354622
C26	C	0.403731	-0.510717	0.354632
C27	C	0.724119	-0.510699	0.354600
C28	C	1.063495	-0.786125	0.354596
C29	C	1.063540	-0.903955	0.354616
C30	C	1.006919	-1.071539	0.411653
C31	C	1.006629	-0.948980	0.411470
C32	C	1.042547	-0.948541	0.277058
C33	C	1.042202	-1.071139	0.277404
C34	C	1.141499	-1.071046	0.374509
C35	C	1.141021	-0.948439	0.376205
C36	C	1.255502	-0.510714	0.354628
C37	C	1.337301	-0.510722	0.354637
C38	C	1.063593	-0.510634	0.546559
C39	C	1.063611	-0.510608	0.628358
C40	C	1.063623	-0.234190	0.354633
C41	C	1.063655	-0.116360	0.354644
C42	C	1.063548	-0.510679	0.163400
C43	C	1.063672	-0.510407	0.081602
C44	C	1.110696	-0.578284	0.893419
C45	C	1.110685	-0.578321	0.816560
C46	C	1.016582	-0.442727	0.816546
C47	C	1.016590	-0.442697	0.893403
C48	C	1.063651	-0.510474	0.931838
C49	C	1.063632	-0.510541	0.778122
C50	C	1.063619	-0.510581	0.694788
C51	C	1.063663	-0.510436	1.015177
H52	H	0.494226	-0.633870	0.439871
Cl53	Cl	1.169856	-0.663493	0.941734
Cl54	Cl	1.169828	-0.663575	0.768266
H55	H	0.978268	-0.387544	0.785243
H56	H	0.633627	-0.387525	0.269362
Cl57	Cl	0.650677	-0.663932	0.460663
H58	H	0.978277	-0.387476	0.924685
H59	H	0.494185	-0.387548	0.269379
H60	H	1.185518	-0.917784	0.337706
H61	H	1.019932	-1.100957	0.469351
Cl62	Cl	1.026903	-0.902429	0.500260
Cl63	Cl	0.955604	-0.901287	0.250606
Cl64	Cl	0.918377	-1.119268	0.391610
H65	H	1.156852	-0.919294	0.433284
H66	H	0.985297	-1.099829	0.260576
Cl67	Cl	0.917528	-0.903835	0.391154
Cl68	Cl	1.103224	-1.116925	0.209582
Cl69	Cl	1.104323	-0.903518	0.209682
Cl70	Cl	1.171066	-1.118672	0.460343
Cl71	Cl	1.206764	-1.115814	0.310414
