data_functionalizedCrystal
_audit_creation_method	'MofGen! by Chris Wilmer'
_symmetry_space_group_name_H-M	'P1'
_symmetry_Int_Tables_number	1
_symmetry_cell_setting	triclinic
loop_
_symmetry_equiv_pos_as_xyz
  x,y,z
_cell_length_a	17.077402
_cell_length_b	18.050590
_cell_length_c	17.077396
_cell_angle_alpha	89.998337
_cell_angle_beta	89.972992
_cell_angle_gamma	90.013561
loop_
_atom_site_label
_atom_site_type_symbol
_atom_site_fract_x
_atom_site_fract_y
_atom_site_fract_z
Zn1	Zn	-0.312729	1.135330	-0.443529
Zn2	Zn	0.020605	1.468663	-0.110196
Zn3	Zn	0.353938	1.801997	0.223138
Zn4	Zn	-0.444005	1.135244	-0.312268
Zn5	Zn	-0.110672	1.468577	0.021065
Zn6	Zn	0.222661	1.801910	0.354399
Zn7	Zn	-0.312733	1.011144	-0.312313
Zn8	Zn	0.020600	1.344477	0.021021
Zn9	Zn	0.353934	1.677811	0.354354
Zn10	Zn	-0.443932	1.011105	-0.443527
Zn11	Zn	-0.110598	1.344439	-0.110194
Zn12	Zn	0.222735	1.677772	0.223139
O13	O	-0.378350	1.073206	-0.377909
O14	O	-0.045016	1.406539	-0.044576
O15	O	0.288317	1.739872	0.288757
O16	O	-0.330172	1.239243	-0.426099
O17	O	0.003161	1.572576	-0.092766
O18	O	0.336495	1.905910	0.240568
O19	O	-0.426625	1.118762	-0.202427
O20	O	-0.093291	1.452095	0.130906
O21	O	0.240042	1.785428	0.464240
O22	O	-0.202885	1.027670	-0.329738
O23	O	0.130448	1.361003	0.003596
O24	O	0.463781	1.694336	0.336929
O25	O	-0.426621	1.239180	-0.329662
O26	O	-0.093287	1.572513	0.003671
O27	O	0.240046	1.905846	0.337004
O28	O	-0.202882	1.118909	-0.426142
O29	O	0.130451	1.452242	-0.092809
O30	O	0.463784	1.785575	0.240525
O31	O	-0.330179	1.027586	-0.202460
O32	O	0.003154	1.360919	0.130874
O33	O	0.336488	1.694253	0.464207
O34	O	-0.330107	0.907214	-0.329736
O35	O	0.003226	1.240548	0.003597
O36	O	0.336559	1.573881	0.336930
O37	O	-0.426495	1.027604	-0.553375
O38	O	-0.093161	1.360937	-0.220041
O39	O	0.240172	1.694271	0.113292
O40	O	-0.426499	0.907186	-0.426139
O41	O	-0.093165	1.240519	-0.092806
O42	O	0.240168	1.573853	0.240527
O43	O	-0.330100	1.118871	-0.553376
O44	O	0.003233	1.452205	-0.220042
O45	O	0.336566	1.785538	0.113291
O46	O	-0.553843	1.118724	-0.329661
O47	O	-0.220509	1.452058	0.003673
O48	O	0.112824	1.785391	0.337006
O49	O	-0.553788	1.027520	-0.426096
O50	O	-0.220455	1.360854	-0.092763
O51	O	0.112878	1.694187	0.240570
C52	C	-0.378296	0.880254	-0.377943
C53	C	-0.044963	1.213587	-0.044610
C54	C	0.288371	1.546920	0.288724
C55	C	-0.378292	0.797708	-0.377976
C56	C	-0.044959	1.131041	-0.044643
C57	C	0.288375	1.464375	0.288691
C58	C	-0.582298	1.073129	-0.377891
C59	C	-0.248964	1.406462	-0.044557
C60	C	0.084369	1.739796	0.288776
C61	C	-0.669547	1.073164	-0.377909
C62	C	-0.336214	1.406497	-0.044576
C63	C	-0.002881	1.739831	0.288758
C64	C	-0.430860	0.598263	-0.430276
C65	C	-0.097526	0.931597	-0.096942
C66	C	0.235807	1.264930	0.236391
C67	C	-0.359283	0.548867	-0.449589
C68	C	-0.025950	0.882200	-0.116255
C69	C	0.307383	1.215533	0.217078
C70	C	-0.378336	0.646578	-0.377938
C71	C	-0.045003	0.979911	-0.044604
C72	C	0.288331	1.313244	0.288729
C73	C	-0.449953	0.548893	-0.358624
C74	C	-0.116620	0.882226	-0.025291
C75	C	0.216713	1.215559	0.308043
C76	C	-0.378385	0.500592	-0.377902
C77	C	-0.045051	0.833926	-0.044569
C78	C	0.288282	1.167259	0.288764
C79	C	-0.306722	0.598268	-0.397288
C80	C	0.026612	0.931601	-0.063955
C81	C	0.359945	1.264935	0.269378
C82	C	-0.397440	0.598298	-0.306290
C83	C	-0.064106	0.931632	0.027043
C84	C	0.269227	1.264965	0.360376
C85	C	-0.325814	0.548924	-0.325576
C86	C	0.007519	0.882257	0.007757
C87	C	0.340853	1.215590	0.341091
C88	C	-0.378309	0.730676	-0.377960
C89	C	-0.044976	1.064009	-0.044627
C90	C	0.288358	1.397342	0.288706
C91	C	-0.378403	0.416496	-0.377880
C92	C	-0.045070	0.749829	-0.044546
C93	C	0.288263	1.083163	0.288787
C94	C	-1.045364	1.120849	-0.327786
C95	C	-0.712031	1.454182	0.005547
C96	C	-0.378697	1.787515	0.338880
C97	C	-0.963383	1.120811	-0.327772
C98	C	-0.630050	1.454144	0.005561
C99	C	-0.296717	1.787477	0.338894
C100	C	-0.922396	1.073272	-0.377937
C101	C	-0.589063	1.406605	-0.044603
C102	C	-0.255730	1.739938	0.288730
C103	C	-0.963394	1.025762	-0.428113
C104	C	-0.630060	1.359095	-0.094780
C105	C	-0.296727	1.692429	0.238554
C106	C	-1.045373	1.025797	-0.428122
C107	C	-0.712039	1.359130	-0.094789
C108	C	-0.378706	1.692464	0.238544
C109	C	-0.792524	1.025694	-0.428091
C110	C	-0.459190	1.359027	-0.094758
C111	C	-0.125857	1.692361	0.238576
C112	C	-0.710539	1.025660	-0.428083
C113	C	-0.377206	1.358993	-0.094750
C114	C	-0.043872	1.692327	0.238584
C115	C	-0.710534	1.120708	-0.327741
C116	C	-0.377201	1.454041	0.005592
C117	C	-0.043868	1.787374	0.338925
C118	C	-0.792513	1.120743	-0.327751
C119	C	-0.459180	1.454076	0.005583
C120	C	-0.125847	1.787409	0.338916
C121	C	-0.833505	1.073234	-0.377928
C122	C	-0.500172	1.406567	-0.044595
C123	C	-0.166839	1.739901	0.288739
C124	C	-0.173605	1.073303	-0.377945
C125	C	0.159728	1.406636	-0.044612
C126	C	0.493061	1.739970	0.288722
C127	C	-0.086356	1.073345	-0.377960
C128	C	0.246978	1.406678	-0.044627
C129	C	0.580311	1.740011	0.288707
C130	C	-0.378289	1.073243	-0.582654
C131	C	-0.044956	1.406576	-0.249320
C132	C	0.288378	1.739910	0.084013
C133	C	-0.378263	1.073259	-0.669903
C134	C	-0.044930	1.406592	-0.336570
C135	C	0.288404	1.739926	-0.003237
C136	C	-0.378404	1.266911	-0.377876
C137	C	-0.045071	1.600245	-0.044542
C138	C	0.288263	1.933578	0.288791
C139	C	-0.378427	1.349457	-0.377861
C140	C	-0.045094	1.682790	-0.044528
C141	C	0.288239	2.016124	0.288805
C142	C	-0.328038	1.025798	-0.710910
C143	C	0.005295	1.359132	-0.377577
C144	C	0.338629	1.692465	-0.044243
C145	C	-0.328020	1.025810	-0.792890
C146	C	0.005313	1.359144	-0.459557
C147	C	0.338647	1.692477	-0.126224
C148	C	-0.378224	1.073288	-0.833863
C149	C	-0.044891	1.406621	-0.500530
C150	C	0.288443	1.739954	-0.167196
C151	C	-0.428455	1.120750	-0.792851
C152	C	-0.095121	1.454084	-0.459517
C153	C	0.238212	1.787417	-0.126184
C154	C	-0.428476	1.120734	-0.710872
C155	C	-0.095143	1.454067	-0.377538
C156	C	0.238191	1.787401	-0.044205
C157	C	-0.428406	1.120782	-0.963721
C158	C	-0.095072	1.454116	-0.630387
C159	C	0.238261	1.787449	-0.297054
C160	C	-0.428384	1.120800	-1.045705
C161	C	-0.095050	1.454133	-0.712372
C162	C	0.238283	1.787467	-0.379039
C163	C	-0.327950	1.025859	-1.045740
C164	C	0.005384	1.359192	-0.712406
C165	C	0.338717	1.692526	-0.379073
C166	C	-0.327971	1.025843	-0.963761
C167	C	0.005362	1.359176	-0.630427
C168	C	0.338696	1.692509	-0.297094
C169	C	-0.378201	1.073307	-0.922754
C170	C	-0.044867	1.406640	-0.589421
C171	C	0.288466	1.739973	-0.256087
C172	C	-0.378354	1.073211	-0.173961
C173	C	-0.045020	1.406545	0.159372
C174	C	0.288313	1.739878	0.492705
C175	C	-0.378158	1.073339	-0.086712
C176	C	-0.044825	1.406673	0.246621
C177	C	0.288508	1.740006	0.579955
H178	H	-0.475199	0.619930	-0.474586
H179	H	-0.141866	0.953263	-0.141252
H180	H	0.191467	1.286597	0.192081
H181	H	-0.287087	0.987186	-0.930403
H182	H	0.046246	1.320519	-0.597070
H183	H	0.379580	1.653853	-0.263736
H184	H	-0.343141	0.527154	-0.510164
H185	H	-0.009808	0.860487	-0.176831
H186	H	0.323526	1.193820	0.156502
H187	H	-0.930008	1.159492	-0.286917
H188	H	-0.596675	1.492825	0.046417
H189	H	-0.263342	1.826158	0.379750
H190	H	-0.469301	1.159439	-0.930336
H191	H	-0.135968	1.492772	-0.597002
H192	H	0.197365	1.826106	-0.263669
F193	F	-0.529090	0.520543	-0.337290
F194	F	-0.195756	0.853876	-0.003957
F195	F	0.137577	1.187209	0.329376
F196	F	-0.227561	0.626495	-0.418711
F197	F	0.105773	0.959828	-0.085378
F198	F	0.439106	1.293161	0.247955
F199	F	-0.836134	1.171344	-0.274366
F200	F	-0.502800	1.504677	0.058968
F201	F	-0.169467	1.838011	0.392301
H202	H	-0.281366	0.527396	-0.281301
H203	H	0.051968	0.860730	0.052033
H204	H	0.385301	1.194063	0.385366
F205	F	-0.666919	0.975061	-0.481471
F206	F	-0.333586	1.308394	-0.148137
F207	F	-0.000252	1.641728	0.185196
F208	F	-0.666907	1.171270	-0.274338
F209	F	-0.333574	1.504604	0.058995
F210	F	-0.000241	1.837937	0.392328
F211	F	-1.088978	1.171451	-0.274397
F212	F	-0.755645	1.504784	0.058936
F213	F	-0.422312	1.838118	0.392269
H214	H	-1.078747	0.987118	-0.468983
H215	H	-0.745414	1.320451	-0.135650
H216	H	-0.412080	1.653785	0.197684
H217	H	-0.287125	0.987160	-0.826274
H218	H	0.046209	1.320494	-0.492941
H219	H	0.379542	1.653827	-0.159608
H220	H	-0.413603	0.620028	-0.245732
H221	H	-0.080270	0.953361	0.087601
H222	H	0.253063	1.286694	0.420935
F223	F	-0.836148	0.975124	-0.481490
F224	F	-0.502815	1.308458	-0.148157
F225	F	-0.169482	1.641791	0.185176
F226	F	-0.919770	0.975166	-0.481501
F227	F	-0.586437	1.308500	-0.148168
F228	F	-0.253103	1.641833	0.185166
H229	H	-0.287050	0.987213	-1.079131
H230	H	0.046284	1.320546	-0.745798
H231	H	0.379617	1.653880	-0.412464
F232	F	-0.274599	0.975270	-0.667311
F233	F	0.058734	1.308603	-0.333978
F234	F	0.392068	1.641936	-0.000645
F235	F	-0.481812	1.171334	-1.089310
F236	F	-0.148479	1.504668	-0.755977
F237	F	0.184855	1.838001	-0.422643
F238	F	-0.481890	1.171275	-0.836459
F239	F	-0.148557	1.504608	-0.503125
F240	F	0.184776	1.837941	-0.169792
F241	F	-0.481935	1.171245	-0.667230
F242	F	-0.148602	1.504579	-0.333897
F243	F	0.184732	1.837912	-0.000563
