data_functionalizedCrystal
_audit_creation_method	'MofGen! by Chris Wilmer'
_symmetry_space_group_name_H-M	'P1'
_symmetry_Int_Tables_number	1
_symmetry_cell_setting	triclinic
loop_
_symmetry_equiv_pos_as_xyz
  x,y,z
_cell_length_a	16.959455
_cell_length_b	29.839131
_cell_length_c	16.959447
_cell_angle_alpha	89.966004
_cell_angle_beta	89.983056
_cell_angle_gamma	90.038367
loop_
_atom_site_label
_atom_site_type_symbol
_atom_site_fract_x
_atom_site_fract_y
_atom_site_fract_z
Zn1	Zn	1.208287	-0.178881	-0.446889
Zn2	Zn	1.208154	-0.254014	-0.314702
Zn3	Zn	1.076109	-0.178895	-0.314726
Zn4	Zn	1.076031	-0.253980	-0.446841
O5	O	1.142145	-0.216443	-0.380790
O6	O	1.318880	-0.188855	-0.429364
O7	O	1.190615	-0.244069	-0.204094
O8	O	1.093731	-0.116026	-0.332288
O9	O	1.318783	-0.244056	-0.332247
O10	O	1.190842	-0.116015	-0.429388
O11	O	1.093603	-0.188880	-0.204112
O12	O	0.965488	-0.188847	-0.332242
O13	O	1.093598	-0.243998	-0.557458
O14	O	0.965430	-0.244012	-0.429305
O15	O	1.190766	-0.188823	-0.557493
O16	O	1.190539	-0.316877	-0.332200
O17	O	1.093469	-0.316852	-0.429282
C18	C	0.936779	-0.216428	-0.380771
C19	C	0.848922	-0.216432	-0.380782
C20	C	1.142003	-0.333165	-0.380750
C21	C	1.142014	-0.383100	-0.380760
C22	C	0.477453	-0.187695	-0.330354
C23	C	0.477441	-0.245227	-0.431270
C24	C	0.559987	-0.245221	-0.431265
C25	C	0.601270	-0.216451	-0.380803
C26	C	0.560006	-0.187688	-0.330346
C27	C	0.601257	-0.273987	-0.481716
C28	C	0.683808	-0.273982	-0.481713
C29	C	0.725092	-0.245210	-0.431254
C30	C	0.683823	-0.216445	-0.380795
C31	C	0.725105	-0.187675	-0.330333
C32	C	0.683838	-0.158908	-0.279878
C33	C	0.601290	-0.158916	-0.279887
C34	C	0.807640	-0.245202	-0.431245
C35	C	0.807659	-0.187669	-0.330325
C36	C	1.192782	-0.692743	-0.330313
C37	C	1.192879	-0.880416	-0.330344
O38	O	1.235931	-0.904681	-0.287422
N39	N	1.142309	-0.903885	-0.380849
C40	C	1.091715	-0.880432	-0.431354
O41	O	1.048710	-0.904699	-0.474319
C42	C	1.091622	-0.692760	-0.431327
C43	C	1.142190	-0.669294	-0.380812
C44	C	1.243346	-0.669277	-0.279803
C45	C	1.243318	-0.622362	-0.279793
C46	C	1.192726	-0.598912	-0.330293
C47	C	1.142162	-0.622378	-0.380802
C48	C	1.041032	-0.669308	-0.481835
C49	C	1.041015	-0.622387	-0.481826
C50	C	1.091582	-0.598921	-0.431311
C51	C	1.091541	-0.552013	-0.431292
N52	N	1.142112	-0.528545	-0.380786
C53	C	1.192704	-0.551994	-0.330287
C54	C	1.091766	-0.978962	-0.431364
C55	C	1.091788	-1.025880	-0.431370
C56	C	1.192954	-1.025861	-0.330360
C57	C	1.192927	-0.978943	-0.330351
C58	C	1.142336	-0.955494	-0.380858
C59	C	1.192641	-0.453469	-0.330268
C60	C	1.192606	-0.406549	-0.330260
C61	C	1.091444	-0.406572	-0.431273
C62	C	1.091475	-0.453487	-0.431278
C63	C	1.142080	-0.476935	-0.380773
O64	O	1.048519	-0.527719	-0.474197
O65	O	1.235715	-0.527719	-0.287341
C66	C	1.192810	-0.739659	-0.330323
C67	C	1.142245	-0.763125	-0.380833
C68	C	1.091653	-0.739675	-0.431332
C69	C	1.142268	-0.810042	-0.380839
C70	C	1.192860	-0.833492	-0.330339
C71	C	1.243430	-0.810023	-0.279834
C72	C	1.243402	-0.763108	-0.279824
C73	C	1.041083	-0.763144	-0.481838
C74	C	1.041114	-0.810059	-0.481843
C75	C	1.091707	-0.833508	-0.431344
C76	C	1.348313	-0.216458	-0.380808
C77	C	1.436170	-0.216464	-0.380816
C78	C	1.142188	-0.216405	-0.586958
C79	C	1.142206	-0.216389	-0.674814
C80	C	1.142310	-0.099264	-0.380846
C81	C	1.142380	-0.049330	-0.380870
C82	C	1.091765	-0.187607	-1.046306
C83	C	1.192785	-0.245077	-1.046275
C84	C	1.192772	-0.245087	-0.963729
C85	C	1.142253	-0.216358	-0.922468
C86	C	1.091748	-0.187618	-0.963752
C87	C	1.243270	-0.273830	-0.922438
C88	C	1.243258	-0.273842	-0.839887
C89	C	1.192743	-0.245110	-0.798624
C90	C	1.142236	-0.216368	-0.839914
C91	C	1.091718	-0.187639	-0.798653
C92	C	1.041215	-0.158895	-0.839941
C93	C	1.041233	-0.158886	-0.922490
C94	C	1.192724	-0.245119	-0.716076
C95	C	1.091701	-0.187649	-0.716099
C96	C	1.142149	-0.216447	-0.175423
C97	C	1.142284	-0.216337	-0.087567
H98	H	0.841265	-0.164238	-0.289237
C99	C	0.729251	-0.127262	-0.224373
H100	H	0.692856	-0.110131	-0.194322
H101	H	0.761487	-0.107710	-0.254673
H102	H	0.761420	-0.144424	-0.189871
C103	C	1.035800	-0.380772	-0.486821
H104	H	1.043037	-0.349469	-0.479583
H105	H	0.982699	-0.388491	-0.475217
H106	H	1.047352	-0.388432	-0.539944
C107	C	0.985648	-0.127294	-0.794548
H108	H	0.992877	-0.131418	-0.739473
H109	H	0.932532	-0.133860	-0.808067
H110	H	0.997269	-0.097106	-0.808090
C111	C	0.985685	-0.127272	-0.967907
H112	H	0.992926	-0.131384	-1.022979
H113	H	0.997293	-0.097089	-0.954403
H114	H	0.932561	-0.133846	-0.954370
H115	H	1.050649	-0.164203	-1.079926
C116	C	0.555896	-0.127282	-0.224382
H117	H	0.500820	-0.131412	-0.231607
H118	H	0.569449	-0.097102	-0.236037
H119	H	0.569401	-0.133825	-0.171251
C120	C	0.853034	-0.276841	-0.486735
H121	H	0.908110	-0.272719	-0.479501
H122	H	0.839531	-0.270309	-0.539867
H123	H	0.839474	-0.307020	-0.475060
C124	C	0.432064	-0.156054	-0.274855
H125	H	0.376988	-0.160178	-0.282081
H126	H	0.445629	-0.125877	-0.286516
H127	H	0.445565	-0.162595	-0.221722
C128	C	1.248609	-1.051659	-0.274813
H129	H	1.278725	-1.030967	-0.244727
H130	H	1.283032	-1.069932	-0.305091
H131	H	1.218398	-1.069991	-0.240345
H132	H	1.233909	-0.268470	-1.079875
H133	H	1.284390	-0.297225	-0.956039
H134	H	1.284379	-0.297248	-0.806277
H135	H	0.443824	-0.268653	-0.472350
H136	H	1.284579	-0.744005	-0.238690
H137	H	0.717400	-0.297406	-0.522797
H138	H	0.567639	-0.297413	-0.522794
C139	C	1.248236	-0.380739	-0.274696
H140	H	1.278376	-0.401427	-0.244630
H141	H	1.218015	-0.362467	-0.240223
H142	H	1.282651	-0.362406	-0.304965
H143	H	1.050603	-1.044982	-0.472496
C144	C	1.299081	-0.835822	-0.224284
H145	H	1.329194	-0.815130	-0.194194
H146	H	1.333508	-0.854094	-0.254560
H147	H	1.268868	-0.854155	-0.189820
H148	H	1.233848	-0.268519	-0.682462
C149	C	1.248299	-0.479254	-0.274709
H150	H	1.278400	-0.458553	-0.244624
H151	H	1.282737	-0.497526	-0.304970
H152	H	1.218087	-0.497585	-0.240240
H153	H	1.284549	-0.688365	-0.238680
C154	C	1.298953	-0.596555	-0.224236
H155	H	1.329090	-0.617246	-0.194173
H156	H	1.268739	-0.578280	-0.189760
H157	H	1.333370	-0.578225	-0.254508
H158	H	1.050567	-0.959874	-0.472494
C159	C	1.248557	-0.953134	-0.274792
H160	H	1.278692	-0.973824	-0.244723
H161	H	1.218339	-0.934859	-0.240320
H162	H	1.282977	-0.934804	-0.305062
H163	H	1.050566	-0.164252	-0.682510
H164	H	0.999850	-0.688406	-0.522966
H165	H	0.999818	-0.603297	-0.522958
H166	H	0.999929	-0.829161	-0.522978
C167	C	1.035851	-0.479301	-0.486841
H168	H	1.005720	-0.458614	-0.516918
H169	H	1.001440	-0.497640	-0.456585
H170	H	1.066088	-0.497568	-0.521317
H171	H	0.999886	-0.744055	-0.522962
