data_functionalizedCrystal
_audit_creation_method	'MofGen! by Chris Wilmer'
_symmetry_space_group_name_H-M	'P1'
_symmetry_Int_Tables_number	1
_symmetry_cell_setting	triclinic
loop_
_symmetry_equiv_pos_as_xyz
  x,y,z
_cell_length_a	19.805407
_cell_length_b	19.805398
_cell_length_c	19.805405
_cell_angle_alpha	90.027637
_cell_angle_beta	90.025395
_cell_angle_gamma	90.017356
loop_
_atom_site_label
_atom_site_type_symbol
_atom_site_fract_x
_atom_site_fract_y
_atom_site_fract_z
Zn1	Zn	-1.034711	-0.382738	0.269508
Zn2	Zn	-0.701378	-0.049405	0.602842
Zn3	Zn	-0.368044	0.283928	0.936175
Zn4	Zn	-1.034633	-0.269547	0.382693
Zn5	Zn	-0.701300	0.063787	0.716027
Zn6	Zn	-0.367966	0.397120	1.049360
Zn7	Zn	-0.921533	-0.269560	0.269522
Zn8	Zn	-0.588200	0.063773	0.602855
Zn9	Zn	-0.254866	0.397107	0.936188
Zn10	Zn	-0.921489	-0.382691	0.382659
Zn11	Zn	-0.588156	-0.049357	0.715992
Zn12	Zn	-0.254822	0.283976	1.049325
O13	O	-0.978091	-0.326134	0.326096
O14	O	-0.644758	0.007199	0.659429
O15	O	-0.311425	0.340533	0.992762
O16	O	-1.129417	-0.367738	0.284531
O17	O	-0.796084	-0.034404	0.617865
O18	O	-0.462750	0.298929	0.951198
O19	O	-1.019616	-0.174832	0.367701
O20	O	-0.686283	0.158501	0.701034
O21	O	-0.352949	0.491835	1.034368
O22	O	-0.936597	-0.284599	0.174803
O23	O	-0.603264	0.048734	0.508137
O24	O	-0.269930	0.382068	0.841470
O25	O	-1.129360	-0.284576	0.367688
O26	O	-0.796027	0.048757	0.701021
O27	O	-0.462693	0.382090	1.034355
O28	O	-1.019748	-0.367751	0.174793
O29	O	-0.686415	-0.034417	0.508127
O30	O	-0.353082	0.298916	0.841460
O31	O	-0.936522	-0.174842	0.284554
O32	O	-0.603188	0.158492	0.617888
O33	O	-0.269855	0.491825	0.951221
O34	O	-0.826810	-0.284553	0.284521
O35	O	-0.493477	0.048781	0.617854
O36	O	-0.160144	0.382114	0.951187
O37	O	-0.936522	-0.477414	0.367629
O38	O	-0.603189	-0.144080	0.700962
O39	O	-0.269856	0.189253	1.034296
O40	O	-0.826778	-0.367669	0.367642
O41	O	-0.493445	-0.034336	0.700975
O42	O	-0.160112	0.298998	1.034309
O43	O	-1.019706	-0.477449	0.284498
O44	O	-0.686373	-0.144115	0.617831
O45	O	-0.353039	0.189218	0.951165
O46	O	-1.019573	-0.284530	0.477405
O47	O	-0.686240	0.048803	0.810739
O48	O	-0.352907	0.382137	1.144072
O49	O	-0.936447	-0.367656	0.477380
O50	O	-0.603114	-0.034323	0.810713
O51	O	-0.269780	0.299010	1.144047
C52	C	-0.802235	-0.326108	0.326079
C53	C	-0.468902	0.007226	0.659413
C54	C	-0.135569	0.340559	0.992746
C55	C	-0.727003	-0.326112	0.326089
C56	C	-0.393670	0.007221	0.659422
C57	C	-0.060337	0.340554	0.992756
C58	C	-0.691660	-0.369320	0.369435
C59	C	-0.358327	-0.035987	0.702768
C60	C	-0.024994	0.297347	1.036101
C61	C	-0.620972	-0.369328	0.369435
C62	C	-0.287638	-0.035994	0.702768
C63	C	0.045695	0.297339	1.036101
C64	C	-0.585628	-0.326124	0.326092
C65	C	-0.252295	0.007210	0.659425
C66	C	0.081039	0.340543	0.992758
C67	C	-0.620976	-0.282914	0.282741
C68	C	-0.287643	0.050419	0.616074
C69	C	0.045691	0.383753	0.949408
C70	C	-0.691663	-0.282910	0.282738
C71	C	-0.358330	0.050423	0.616072
C72	C	-0.024997	0.383756	0.949405
C73	C	-0.335903	-0.282929	0.282751
C74	C	-0.002569	0.050404	0.616084
C75	C	0.330764	0.383738	0.949418
C76	C	-0.265211	-0.282935	0.282759
C77	C	0.068123	0.050399	0.616092
C78	C	0.401456	0.383732	0.949425
C79	C	-0.265211	-0.369346	0.369447
C80	C	0.068122	-0.036013	0.702781
C81	C	0.401455	0.297320	1.036114
C82	C	-0.335899	-0.369343	0.369445
C83	C	-0.002565	-0.036009	0.702778
C84	C	0.330768	0.297324	1.036111
C85	C	-0.371241	-0.326136	0.326092
C86	C	-0.037907	0.007197	0.659425
C87	C	0.295426	0.340531	0.992758
C88	C	-0.447889	-0.326129	0.326091
C89	C	-0.114556	0.007204	0.659425
C90	C	0.218778	0.340538	0.992758
C91	C	-0.508981	-0.326127	0.326095
C92	C	-0.175647	0.007207	0.659428
C93	C	0.157686	0.340540	0.992762
C94	C	-0.978118	-0.502677	0.326058
C95	C	-0.644785	-0.169343	0.659391
C96	C	-0.311451	0.163990	0.992725
C97	C	-0.978129	-0.577909	0.326042
C98	C	-0.644796	-0.244575	0.659375
C99	C	-0.311463	0.088758	0.992709
C100	C	-0.978015	-0.326101	0.501952
C101	C	-0.644682	0.007232	0.835285
C102	C	-0.311349	0.340565	1.168618
C103	C	-0.978045	-0.326110	0.577184
C104	C	-0.644711	0.007223	0.910517
C105	C	-0.311378	0.340557	1.243850
C106	C	-0.154634	-0.326154	0.326108
C107	C	0.178699	0.007179	0.659441
C108	C	0.512033	0.340512	0.992774
C109	C	-0.229866	-0.326146	0.326102
C110	C	0.103467	0.007187	0.659435
C111	C	0.436801	0.340520	0.992768
C112	C	-1.021525	-1.039719	0.282636
C113	C	-0.688191	-0.706386	0.615969
C114	C	-0.354858	-0.373053	0.949303
C115	C	-1.021514	-0.969031	0.282657
C116	C	-0.688181	-0.635698	0.615990
C117	C	-0.354847	-0.302364	0.949323
C118	C	-0.978199	-0.933671	0.325948
C119	C	-0.644865	-0.600337	0.659281
C120	C	-0.311532	-0.267004	0.992615
C121	C	-0.934896	-0.969003	0.369226
C122	C	-0.601563	-0.635669	0.702560
C123	C	-0.268229	-0.302336	1.035893
C124	C	-0.934911	-1.039690	0.369208
C125	C	-0.601577	-0.706357	0.702542
C126	C	-0.268244	-0.373023	1.035875
C127	C	-0.934837	-0.683929	0.369300
C128	C	-0.601504	-0.350596	0.702633
C129	C	-0.268171	-0.017263	1.035966
C130	C	-0.934825	-0.613237	0.369313
C131	C	-0.601491	-0.279904	0.702646
C132	C	-0.268158	0.053430	1.035979
C133	C	-1.021441	-0.613270	0.282748
C134	C	-0.688107	-0.279937	0.616081
C135	C	-0.354774	0.053396	0.949414
C136	C	-1.021455	-0.683958	0.282730
C137	C	-0.688122	-0.350624	0.616063
C138	C	-0.354788	-0.017291	0.949397
C139	C	-0.978155	-0.719283	0.326010
C140	C	-0.644822	-0.385950	0.659344
C141	C	-0.311489	-0.052617	0.992677
C142	C	-0.978168	-0.795932	0.325988
C143	C	-0.644835	-0.462598	0.659322
C144	C	-0.311502	-0.129265	0.992655
C145	C	-0.978182	-0.857024	0.325967
C146	C	-0.644849	-0.523690	0.659300
C147	C	-0.311515	-0.190357	0.992634
C148	C	-0.978104	-0.150278	0.326084
C149	C	-0.644771	0.183055	0.659417
C150	C	-0.311437	0.516389	0.992751
C151	C	-0.978224	-0.075046	0.325909
C152	C	-0.644891	0.258287	0.659243
C153	C	-0.311557	0.591620	0.992576
C154	C	-0.978186	-0.326182	0.149553
C155	C	-0.644853	0.007152	0.482886
C156	C	-0.311520	0.340485	0.816219
C157	C	-0.978227	-0.326202	0.074321
C158	C	-0.644893	0.007131	0.407654
C159	C	-0.311560	0.340465	0.740987
C160	C	-1.021371	-0.282871	0.612518
C161	C	-0.688037	0.050462	0.945852
C162	C	-0.354704	0.383795	1.279185
C163	C	-1.021399	-0.282886	0.683207
C164	C	-0.688066	0.050447	1.016540
C165	C	-0.354733	0.383780	1.349874
C166	C	-0.978098	-0.326137	0.718559
C167	C	-0.644765	0.007196	1.051892
C168	C	-0.311432	0.340530	1.385226
C169	C	-0.934770	-0.369380	0.683219
C170	C	-0.601437	-0.036047	1.016553
C171	C	-0.268104	0.297286	1.349886
C172	C	-0.934746	-0.369368	0.612532
C173	C	-0.601412	-0.036035	0.945865
C174	C	-0.268079	0.297299	1.279199
C175	C	-0.934870	-0.369430	0.968292
C176	C	-0.601537	-0.036097	1.301626
C177	C	-0.268204	0.297236	1.634959
C178	C	-0.934897	-0.369438	1.038985
C179	C	-0.601564	-0.036104	1.372318
C180	C	-0.268230	0.297229	1.705651
C181	C	-1.021524	-0.282949	1.038967
C182	C	-0.688191	0.050385	1.372301
C183	C	-0.354857	0.383718	1.705634
C184	C	-1.021499	-0.282936	0.968280
C185	C	-0.688166	0.050397	1.301613
C186	C	-0.354833	0.383730	1.634947
C187	C	-0.978174	-0.326182	0.932946
C188	C	-0.644841	0.007151	1.266280
C189	C	-0.311507	0.340485	1.599613
C190	C	-0.978144	-0.326166	0.856298
C191	C	-0.644811	0.007167	1.189631
C192	C	-0.311478	0.340501	1.522965
C193	C	-0.978124	-0.326150	0.795206
C194	C	-0.644791	0.007184	1.128540
C195	C	-0.311457	0.340517	1.461873
H196	H	-0.236436	-0.247753	0.247459
H197	H	0.096898	0.085581	0.580793
H198	H	0.430231	0.418914	0.914126
H199	H	-0.899579	-0.712683	0.404540
H200	H	-0.566246	-0.379350	0.737874
H201	H	-0.232912	-0.046016	1.071207
H202	H	-0.899517	-0.404598	0.712009
H203	H	-0.566183	-0.071265	1.045342
H204	H	-0.232850	0.262068	1.378675
O205	O	-1.068176	-0.722098	0.236041
O206	O	-0.734843	-0.388765	0.569374
O207	O	-0.401509	-0.055431	0.902707
H208	H	-1.098290	-0.685657	0.205958
H209	H	-0.764957	-0.352323	0.539291
H210	H	-0.431623	-0.018990	0.872624
O211	O	-0.888008	-0.415996	0.574415
O212	O	-0.554675	-0.082662	0.907749
O213	O	-0.221342	0.250671	1.241082
H214	H	-0.857895	-0.446066	0.610872
H215	H	-0.524562	-0.112733	0.944205
H216	H	-0.191229	0.220600	1.277539
H217	H	-0.720432	-0.404500	0.404732
H218	H	-0.387099	-0.071166	0.738065
H219	H	-0.053766	0.262167	1.071399
H220	H	-0.364670	-0.247742	0.247456
H221	H	-0.031336	0.085591	0.580789
H222	H	0.301997	0.418924	0.914122
H223	H	-0.592193	-0.247740	0.247448
H224	H	-0.258860	0.085594	0.580781
H225	H	0.074473	0.418927	0.914114
H226	H	-0.899548	-0.584449	0.404565
H227	H	-0.566214	-0.251115	0.737899
H228	H	-0.232881	0.082218	1.071232
O229	O	-0.729789	-0.236300	0.235995
O230	O	-0.396456	0.097033	0.569329
O231	O	-0.063122	0.430366	0.902662
H232	H	-0.693338	-0.206251	0.205863
H233	H	-0.360005	0.127082	0.539196
H234	H	-0.026671	0.460415	0.872529
O235	O	-0.888201	-1.077797	0.415875
O236	O	-0.554868	-0.744463	0.749209
O237	O	-0.221534	-0.411130	1.082542
H238	H	-0.899772	-1.064215	0.469002
H239	H	-0.566439	-0.730882	0.802336
H240	H	-0.233106	-0.397549	1.135669
O241	O	-1.068077	-0.236225	0.574389
O242	O	-0.734744	0.097108	0.907722
O243	O	-0.401410	0.430442	1.241056
H244	H	-1.098214	-0.206167	0.610839
H245	H	-0.764881	0.127166	0.944172
H246	H	-0.431548	0.460500	1.277505
O247	O	-1.068246	-1.077858	0.235945
O248	O	-0.734912	-0.744524	0.569278
O249	O	-0.401579	-0.411191	0.902612
H250	H	-1.098358	-1.041414	0.205863
H251	H	-0.765025	-0.708080	0.539197
H252	H	-0.431692	-0.374747	0.872530
H253	H	-1.056776	-0.940271	0.247421
H254	H	-0.723442	-0.606938	0.580754
H255	H	-0.390109	-0.273604	0.914087
H256	H	-1.056804	-0.247739	1.067745
H257	H	-0.723471	0.085595	1.401078
H258	H	-0.390137	0.418928	1.734411
O259	O	-1.068155	-0.575171	0.236073
O260	O	-0.734822	-0.241837	0.569407
O261	O	-0.401489	0.091496	0.902740
H262	H	-1.060878	-0.520077	0.243363
H263	H	-0.727545	-0.186743	0.576696
H264	H	-0.394212	0.146590	0.910029
H265	H	-0.592199	-0.404511	0.404732
H266	H	-0.258865	-0.071178	0.738065
H267	H	0.074468	0.262155	1.071398
H268	H	-0.899631	-0.940207	0.404478
H269	H	-0.566298	-0.606873	0.737811
H270	H	-0.232964	-0.273540	1.071144
O271	O	-1.068125	-0.236247	0.721321
O272	O	-0.734792	0.097086	1.054654
O273	O	-0.401458	0.430420	1.387988
H274	H	-1.098223	-0.206163	0.684863
H275	H	-0.764890	0.127170	1.018196
H276	H	-0.431557	0.460503	1.351530
H277	H	-1.056757	-0.247716	0.939499
H278	H	-0.723423	0.085618	1.272832
H279	H	-0.390090	0.418951	1.606165
O280	O	-0.888197	-0.416093	1.077119
O281	O	-0.554864	-0.082760	1.410452
O282	O	-0.221530	0.250573	1.743786
H283	H	-0.858071	-0.446169	1.040674
H284	H	-0.524738	-0.112835	1.374008
H285	H	-0.191404	0.220498	1.707341
O286	O	-0.227119	-0.415955	0.416226
O287	O	0.106215	-0.082622	0.749559
O288	O	0.439548	0.250712	1.082892
H289	H	-0.194939	-0.450473	0.386006
H290	H	0.138394	-0.117140	0.719340
H291	H	0.471727	0.216193	1.052673
H292	H	-0.899592	-0.404641	0.939529
H293	H	-0.566259	-0.071308	1.272863
H294	H	-0.232926	0.262026	1.606196
H295	H	-0.364672	-0.404522	0.404741
H296	H	-0.031339	-0.071188	0.738074
H297	H	0.301995	0.262145	1.071408
