data_functionalizedCrystal
_audit_creation_method	'MofGen! by Chris Wilmer'
_symmetry_space_group_name_H-M	'P1'
_symmetry_Int_Tables_number	1
_symmetry_cell_setting	triclinic
loop_
_symmetry_equiv_pos_as_xyz
  x,y,z
_cell_length_a	15.995350
_cell_length_b	14.472310
_cell_length_c	15.995280
_cell_angle_alpha	90.001331
_cell_angle_beta	96.522015
_cell_angle_gamma	90.009379
loop_
_atom_site_label
_atom_site_type_symbol
_atom_site_fract_x
_atom_site_fract_y
_atom_site_fract_z
O1	O	1.110969	0.076758	-0.107924
O2	O	1.610969	0.576758	0.392076
O3	O	0.867191	0.076776	-0.121252
O4	O	1.367191	0.576776	0.378748
O5	O	0.995774	0.076766	0.007303
O6	O	1.495774	0.576766	0.507303
O7	O	0.982385	0.076768	-0.236480
O8	O	1.482385	0.576768	0.263520
O9	O	0.995741	-0.076916	0.007296
O10	O	1.495741	0.423084	0.507296
O11	O	0.867158	-0.076906	-0.121260
O12	O	1.367158	0.423094	0.378740
O13	O	1.110936	-0.076924	-0.107932
O14	O	1.610936	0.423076	0.392068
Cu15	Cu	0.989044	-0.090948	-0.114597
Cu16	Cu	1.489044	0.409052	0.385403
Cu17	Cu	0.989083	0.090799	-0.114588
Cu18	Cu	1.489083	0.590799	0.385412
O19	O	0.982352	-0.076914	-0.236488
O20	O	1.482352	0.423086	0.263512
C21	C	0.835979	-0.000062	-0.120705
C22	C	1.335979	0.499938	0.379295
C23	C	0.743029	-0.000055	-0.119053
C24	C	1.243029	0.499945	0.380947
N25	N	0.989022	-0.218778	-0.114602
N26	N	1.489022	0.281222	0.385398
C27	C	0.405283	-0.000075	-0.113121
C28	C	0.905283	0.499925	0.386879
C29	C	0.452741	-0.000418	-0.021566
C30	C	0.952741	0.499582	0.478434
C31	C	0.549430	-0.000065	-0.023218
C32	C	1.049430	0.499935	0.476782
C33	C	0.572843	-0.000066	-0.116063
C34	C	1.072843	0.499934	0.383937
C35	C	0.531764	0.087691	-0.161217
C36	C	1.031764	0.587691	0.338783
C37	C	0.435128	0.087758	-0.158917
C38	C	0.935128	0.587758	0.341083
C39	C	0.434751	-0.087007	-0.160817
C40	C	0.934751	0.412993	0.339183
C41	C	0.531697	-0.088160	-0.160796
C42	C	1.031697	0.411840	0.339204
C43	C	0.667540	-0.000057	-0.117731
C44	C	1.167540	0.499943	0.382269
C45	C	0.310586	-0.000077	-0.111456
C46	C	0.810586	0.499923	0.388544
C47	C	0.989082	-0.592870	-0.114584
C48	C	1.489082	-0.092870	0.385416
C49	C	0.920049	-0.553698	-0.183141
C50	C	1.420049	-0.053698	0.316859
C51	C	0.920208	-0.446610	-0.183391
C52	C	1.420208	0.053390	0.316609
C53	C	0.989052	-0.407279	-0.114593
C54	C	1.489052	0.092721	0.385407
C55	C	1.076411	-0.446122	-0.133676
C56	C	1.576411	0.053878	0.366324
C57	C	1.076023	-0.553244	-0.134163
C58	C	1.576023	-0.053244	0.365837
C59	C	0.971535	-0.553398	-0.026742
C60	C	1.471535	-0.053398	0.473258
C61	C	0.969531	-0.446270	-0.027328
C62	C	1.469531	0.053730	0.472672
C63	C	0.989040	-0.302390	-0.114597
C64	C	1.489040	0.197610	0.385403
C65	C	0.989099	-0.697758	-0.114583
C66	C	1.489099	-0.197758	0.385417
C67	C	1.142147	-0.000084	-0.108479
C68	C	1.642147	0.499916	0.391521
C69	C	1.235097	-0.000085	-0.110131
C70	C	1.735097	0.499915	0.389869
C71	C	0.995215	-0.000073	0.038495
C72	C	1.495215	0.499927	0.538495
C73	C	0.993587	-0.000068	0.131449
C74	C	1.493587	0.499932	0.631449
N75	N	0.989111	0.218630	-0.114575
N76	N	1.489111	0.718630	0.385425
C77	C	0.987600	-0.000081	0.469189
C78	C	1.487600	0.499919	0.969189
C79	C	1.080403	-0.000431	0.445877
C80	C	1.580403	0.499569	0.945877
C81	C	1.082163	-0.000080	0.349201
C82	C	1.582163	0.499920	0.849201
C83	C	0.990571	-0.000075	0.301632
C84	C	1.490571	0.499925	0.801632
C85	C	0.944193	0.087685	0.330738
C86	C	1.444193	0.587685	0.830738
C87	C	0.943080	0.087754	0.427529
C88	C	1.443080	0.587754	0.927529
C89	C	0.941147	-0.087011	0.427377
C90	C	1.441147	0.412989	0.927377
C91	C	0.944582	-0.088166	0.330884
C92	C	1.444582	0.411834	0.830884
C93	C	0.992245	-0.000068	0.206936
C94	C	1.492245	0.499932	0.706936
C95	C	0.985924	-0.000081	0.563885
C96	C	1.485924	0.499919	1.063885
C97	C	0.982923	-0.000077	0.732322
C98	C	1.482923	0.499923	1.232322
C99	C	0.984584	-0.000088	0.639373
C100	C	1.484584	0.499912	1.139373
H101	H	0.577855	-0.062973	0.012275
H102	H	1.077855	0.437027	0.512275
H103	H	1.129008	-0.420643	-0.085071
H104	H	1.629008	0.079357	0.414929
H105	H	1.115991	0.062148	0.474898
H106	H	1.615991	0.562148	0.974898
H107	H	0.433170	0.062168	0.014865
H108	H	0.933170	0.562168	0.514865
H109	H	0.978352	-0.153090	0.312316
H110	H	1.478352	0.346910	0.812316
H111	H	0.414209	-0.153525	-0.130889
H112	H	0.914209	0.346475	0.369111
O113	O	0.850667	-0.087803	0.445921
O114	O	1.350667	0.412197	0.945921
H115	H	0.818683	-0.024167	0.420159
H116	H	1.318683	0.475833	0.920159
O117	O	0.935047	-0.412641	-0.269735
O118	O	1.435047	0.087359	0.230265
H119	H	0.996674	-0.438586	-0.285423
H120	H	1.496674	0.061414	0.214577
H121	H	1.092248	-0.419286	-0.197008
H122	H	1.592248	0.080714	0.302992
O123	O	1.130593	0.083390	0.324813
O124	O	1.630593	0.583390	0.824813
H125	H	1.088985	0.127264	0.280974
H126	H	1.588985	0.627264	0.780974
O127	O	0.888976	-0.589217	-0.002439
O128	O	1.388976	-0.089217	0.497561
H129	H	0.846360	-0.530173	0.005680
H130	H	1.346360	-0.030173	0.505680
O131	O	0.856033	-0.095209	0.287197
O132	O	1.356033	0.404791	0.787197
H133	H	0.843358	-0.035761	0.243767
H134	H	1.343358	0.464239	0.743767
O135	O	0.979637	-0.175126	0.464798
O136	O	1.479637	0.324874	0.964798
H137	H	1.003694	-0.216943	0.414500
H138	H	1.503694	0.283057	0.914500
H139	H	0.975229	0.153353	0.454348
H140	H	1.475229	0.653353	0.954348
O141	O	0.934680	-0.589340	-0.269004
O142	O	1.434680	-0.089340	0.230996
H143	H	0.885609	-0.561279	-0.316925
H144	H	1.385609	-0.061279	0.183075
O145	O	1.096509	-0.586332	-0.219021
O146	O	1.596509	-0.086332	0.280979
H147	H	1.096440	-0.663015	-0.220209
H148	H	1.596440	-0.163015	0.279791
O149	O	0.586369	0.083408	0.024119
O150	O	1.086369	0.583408	0.524119
H151	H	0.619139	0.127284	-0.018845
H152	H	1.119139	0.627284	0.481155
H153	H	0.875037	0.091733	0.442079
H154	H	1.375037	0.591733	0.942079
H155	H	0.876794	0.090952	0.298870
H156	H	1.376794	0.590952	0.798870
H157	H	0.905268	-0.420883	-0.012846
H158	H	1.405268	0.079117	0.487154
H159	H	0.434214	-0.063352	0.015028
H160	H	0.934214	0.436648	0.515028
H161	H	0.560160	0.153001	-0.129849
H162	H	1.060160	0.653001	0.370151
H163	H	0.416843	0.153359	-0.125983
H164	H	0.916843	0.653359	0.374017
O165	O	0.567859	-0.174160	-0.117126
O166	O	1.067859	0.325840	0.382874
H167	H	0.538456	-0.236112	-0.149110
H168	H	1.038456	0.263888	0.350890
O169	O	0.392380	0.093053	-0.247949
O170	O	0.892380	0.593053	0.252051
H171	H	0.440756	0.095561	-0.292454
H172	H	0.940756	0.595561	0.207546
O173	O	0.550453	0.092031	-0.251569
O174	O	1.050453	0.592031	0.248431
H175	H	0.589315	0.031543	-0.265281
H176	H	1.089315	0.531543	0.234719
O177	O	1.031823	-0.410827	0.043414
O178	O	1.531823	0.089173	0.543414
H179	H	1.028657	-0.334258	0.045452
H180	H	1.528657	0.165742	0.545452
O181	O	0.552029	-0.095191	-0.250479
O182	O	1.052029	0.404809	0.249521
H183	H	0.527687	-0.033165	-0.286113
H184	H	1.027687	0.466835	0.213887
O185	O	0.392647	-0.087805	-0.250228
O186	O	0.892647	0.412195	0.249772
H187	H	0.409939	-0.024170	-0.282982
H188	H	0.909939	0.475830	0.217018
O189	O	0.834190	-0.411812	-0.168349
O190	O	1.334190	0.088188	0.331651
H191	H	0.792102	-0.471497	-0.160833
H192	H	1.292102	0.028503	0.339167
H193	H	0.854901	-0.579481	-0.171959
H194	H	1.354901	-0.079481	0.328041
O195	O	1.146113	-0.587577	-0.070547
O196	O	1.646113	-0.087577	0.429453
H197	H	1.180138	-0.527667	-0.039575
H198	H	1.680138	-0.027667	0.460425
O199	O	1.038208	-0.586956	0.040845
O200	O	1.538208	-0.086956	0.540845
H201	H	1.083629	-0.631531	0.012068
H202	H	1.583629	-0.131531	0.512068
O203	O	0.987044	0.174103	0.304192
O204	O	1.487044	0.674103	0.804192
H205	H	0.941682	0.215649	0.262021
H206	H	1.441682	0.715649	0.762021
O207	O	1.130293	-0.083394	0.323986
O208	O	1.630293	0.416606	0.823986
H209	H	1.152521	-0.124298	0.380894
H210	H	1.652521	0.375702	0.880894
O211	O	1.127773	-0.083812	0.482931
O212	O	1.627773	0.416188	0.982931
H213	H	1.085685	-0.125892	0.518369
H214	H	1.585685	0.374108	1.018369
