data_functionalizedCrystal
_audit_creation_method	'MofGen! by Chris Wilmer'
_symmetry_space_group_name_H-M	'P1'
_symmetry_Int_Tables_number	1
_symmetry_cell_setting	triclinic
loop_
_symmetry_equiv_pos_as_xyz
  x,y,z
_cell_length_a	10.654550
_cell_length_b	16.109301
_cell_length_c	15.186229
_cell_angle_alpha	90.005167
_cell_angle_beta	89.997242
_cell_angle_gamma	96.026794
loop_
_atom_site_label
_atom_site_type_symbol
_atom_site_fract_x
_atom_site_fract_y
_atom_site_fract_z
O1	O	1.666255	-0.116773	-0.073220
O2	O	1.300626	-0.127898	-0.073225
O3	O	1.493485	-0.001364	-0.073213
O4	O	1.473396	-0.243307	-0.073231
O5	O	1.493472	-0.001363	0.073244
O6	O	1.300613	-0.127897	0.073233
O7	O	1.666242	-0.116771	0.073237
Zn8	Zn	1.483425	-0.122334	0.096488
Zn9	Zn	1.483442	-0.122336	-0.096475
O10	O	1.473383	-0.243305	0.073226
C11	C	1.253832	-0.127081	0.000004
C12	C	1.114422	-0.124637	0.000002
C13	C	1.492664	0.029616	0.000016
C14	C	1.490225	0.121926	0.000017
C15	C	1.713036	-0.117589	0.000007
C16	C	1.852446	-0.120033	0.000003
C17	C	1.932942	-0.045532	0.000005
C18	C	2.063932	-0.047833	0.000008
C19	C	2.033916	-0.199144	0.000002
C20	C	1.902929	-0.196841	0.000006
C21	C	2.260973	0.039912	0.051320
C22	C	2.341474	0.114417	0.051307
C23	C	2.312213	0.181958	-0.000009
C24	C	2.202452	0.174996	-0.051335
C25	C	2.121957	0.100490	-0.051330
C26	C	2.151217	0.032952	0.000007
C27	C	1.705886	-0.284581	-0.051313
C28	C	1.625389	-0.359088	-0.051315
C29	C	1.654646	-0.426636	-0.000003
C30	C	1.764409	-0.419683	0.051308
C31	C	1.844907	-0.345175	0.051310
C32	C	1.815640	-0.277627	0.000000
C33	C	1.474203	-0.274286	-0.000005
C34	C	1.476643	-0.366596	-0.000012
N35	N	1.483423	-0.122331	0.228181
C36	C	1.598991	0.343552	0.000005
C37	C	1.596689	0.430286	-0.000003
C38	C	1.367868	0.411772	-0.000002
C39	C	1.370172	0.325039	-0.000001
C40	C	1.485737	0.290932	0.000007
C41	C	1.481131	0.464398	-0.000002
C42	C	1.478634	0.558439	-0.000009
C43	C	1.488234	0.196885	0.000013
N44	N	1.483455	-0.122332	-0.228168
C45	C	1.568850	-0.066321	0.453909
C46	C	1.568854	-0.066319	0.546099
C47	C	1.398019	-0.178344	0.546097
C48	C	1.398010	-0.178342	0.453910
C49	C	1.483432	-0.122331	0.407818
C50	C	1.483445	-0.122332	0.592195
C51	C	1.483449	-0.122330	0.692151
C52	C	1.483428	-0.122332	0.307855
H53	H	1.891844	0.017010	0.000005
H54	H	1.328471	-0.223948	0.583635
F55	F	1.717230	0.486284	-0.000007
F56	F	1.307087	-0.237954	0.404852
F57	F	2.292122	-0.031969	0.105943
H58	H	2.032594	0.094821	-0.093119
H59	H	1.638407	-0.020710	0.583624
H60	H	2.377767	0.242621	-0.000019
F61	F	1.508571	-0.366488	-0.105931
F62	F	1.249624	0.269034	-0.000005
F63	F	2.171330	0.246880	-0.105964
H64	H	1.273779	0.439553	-0.000007
H65	H	2.430841	0.120079	0.093101
F66	F	2.087655	-0.280884	-0.000001
H67	H	1.934286	-0.339520	0.093090
H68	H	1.693091	0.315784	0.000009
H69	H	1.788233	-0.474686	0.093089
F70	F	1.568975	-0.505937	-0.000015
F71	F	1.659762	-0.006708	0.404858
H72	H	1.681974	-0.229546	-0.093015
