data_functionalizedCrystal
_audit_creation_method	'MofGen! by Chris Wilmer'
_symmetry_space_group_name_H-M	'P1'
_symmetry_Int_Tables_number	1
_symmetry_cell_setting	triclinic
loop_
_symmetry_equiv_pos_as_xyz
  x,y,z
_cell_length_a	19.188930
_cell_length_b	19.188928
_cell_length_c	15.072220
_cell_angle_alpha	90.008546
_cell_angle_beta	89.973638
_cell_angle_gamma	96.855705
loop_
_atom_site_label
_atom_site_type_symbol
_atom_site_fract_x
_atom_site_fract_y
_atom_site_fract_z
O1	O	0.926153	-0.087163	-0.074082
O2	O	1.176153	0.162837	0.175918
O3	O	1.426153	0.412837	0.425918
O4	O	1.676153	0.662837	0.675918
O5	O	0.722841	-0.098897	-0.074023
O6	O	0.972841	0.151103	0.175977
O7	O	1.222841	0.401103	0.425977
O8	O	1.472841	0.651103	0.675977
O9	O	0.830365	0.008626	-0.074032
O10	O	1.080365	0.258626	0.175968
O11	O	1.330365	0.508626	0.425968
O12	O	1.580365	0.758626	0.675968
O13	O	0.818629	-0.194686	-0.074073
O14	O	1.068629	0.055314	0.175927
O15	O	1.318629	0.305314	0.425927
O16	O	1.568629	0.555314	0.675927
O17	O	0.830339	0.008620	0.073533
O18	O	1.080339	0.258620	0.323533
O19	O	1.330339	0.508620	0.573533
O20	O	1.580339	0.758620	0.823533
O21	O	0.722815	-0.098903	0.073542
O22	O	0.972815	0.151097	0.323542
O23	O	1.222815	0.401097	0.573542
O24	O	1.472815	0.651097	0.823542
O25	O	0.926126	-0.087169	0.073483
O26	O	1.176126	0.162831	0.323483
O27	O	1.426126	0.412831	0.573483
O28	O	1.676126	0.662831	0.823483
Zn29	Zn	0.824466	-0.093037	0.096942
Zn30	Zn	1.074466	0.156963	0.346942
Zn31	Zn	1.324466	0.406963	0.596942
Zn32	Zn	1.574466	0.656963	0.846942
Zn33	Zn	0.824501	-0.093029	-0.097482
Zn34	Zn	1.074501	0.156971	0.152518
Zn35	Zn	1.324501	0.406971	0.402518
Zn36	Zn	1.574501	0.656971	0.652518
O37	O	0.818603	-0.194692	0.073492
O38	O	1.068603	0.055308	0.323492
O39	O	1.318603	0.305308	0.573492
O40	O	1.568603	0.555308	0.823492
C41	C	0.696817	-0.098520	-0.000233
C42	C	0.946817	0.151480	0.249767
C43	C	1.196817	0.401480	0.499767
C44	C	1.446817	0.651480	0.749767
C45	C	0.619313	-0.097380	-0.000209
C46	C	0.869313	0.152620	0.249791
C47	C	1.119313	0.402620	0.499791
C48	C	1.369313	0.652620	0.749791
C49	C	0.574388	-0.160471	-0.000236
C50	C	0.824388	0.089529	0.249764
C51	C	1.074388	0.339529	0.499764
C52	C	1.324388	0.589529	0.749764
C53	C	0.501564	-0.159399	-0.000245
C54	C	0.751564	0.090601	0.249755
C55	C	1.001564	0.340601	0.499755
C56	C	1.251564	0.590601	0.749755
C57	C	0.473668	-0.095233	-0.000246
C58	C	0.723668	0.154767	0.249754
C59	C	0.973668	0.404767	0.499754
C60	C	1.223668	0.654767	0.749754
C61	C	0.518603	-0.032133	-0.000214
C62	C	0.768603	0.217867	0.249786
C63	C	1.018603	0.467867	0.499786
C64	C	1.268603	0.717867	0.749786
C65	C	0.591425	-0.033207	-0.000196
C66	C	0.841425	0.216793	0.249804
C67	C	1.091425	0.466793	0.499804
C68	C	1.341425	0.716793	0.749804
N69	N	0.365698	-0.046184	-0.050495
N70	N	0.615698	0.203816	0.199505
N71	N	0.865698	0.453816	0.449505
N72	N	1.115698	0.703816	0.699505
N73	N	0.296519	-0.045168	-0.050514
N74	N	0.546519	0.204832	0.199486
N75	N	0.796519	0.454832	0.449486
N76	N	1.046519	0.704832	0.699486
C77	C	0.254260	-0.091995	-0.000300
C78	C	0.504260	0.158005	0.249700
C79	C	0.754260	0.408005	0.499700
C80	C	1.004260	0.658005	0.749700
N81	N	0.283791	-0.139885	0.049924
N82	N	0.533791	0.110115	0.299924
N83	N	0.783791	0.360115	0.549924
N84	N	1.033791	0.610115	0.799924
N85	N	0.352976	-0.140903	0.049939
N86	N	0.602976	0.109097	0.299939
N87	N	0.852976	0.359097	0.549939
N88	N	1.102976	0.609097	0.799939
C89	C	0.394706	-0.094062	-0.000265
C90	C	0.644706	0.155938	0.249735
C91	C	0.894706	0.405938	0.499735
C92	C	1.144706	0.655938	0.749735
C93	C	0.130371	-0.153928	-0.000336
C94	C	0.380371	0.096072	0.249664
C95	C	0.630371	0.346072	0.499664
C96	C	0.880371	0.596072	0.749664
C97	C	0.057546	-0.152853	-0.000340
C98	C	0.307546	0.097147	0.249660
C99	C	0.557546	0.347147	0.499660
C100	C	0.807546	0.597147	0.749660
C101	C	0.074586	-0.025586	-0.000317
C102	C	0.324586	0.224414	0.249683
C103	C	0.574586	0.474414	0.499683
C104	C	0.824586	0.724414	0.749683
C105	C	0.147409	-0.026662	-0.000304
C106	C	0.397409	0.223338	0.249696
C107	C	0.647409	0.473338	0.499696
C108	C	0.897409	0.723338	0.749696
C109	C	0.175297	-0.090835	-0.000318
C110	C	0.425297	0.159165	0.249682
C111	C	0.675297	0.409165	0.499682
C112	C	0.925297	0.659165	0.749682
C113	C	0.829972	0.034634	-0.000245
C114	C	1.079972	0.284634	0.249755
C115	C	1.329972	0.534634	0.499755
C116	C	1.579972	0.784634	0.749755
C117	C	0.828832	0.112138	-0.000233
C118	C	1.078832	0.362138	0.249767
C119	C	1.328832	0.612138	0.499767
C120	C	1.578832	0.862138	0.749767
C121	C	0.891923	0.157062	-0.000245
C122	C	1.141923	0.407062	0.249755
C123	C	1.391923	0.657062	0.499755
C124	C	1.641923	0.907062	0.749755
C125	C	0.890852	0.229886	-0.000256
C126	C	1.140852	0.479886	0.249744
C127	C	1.390852	0.729886	0.499744
C128	C	1.640852	0.979886	0.749744
C129	C	0.826686	0.257783	-0.000236
C130	C	1.076686	0.507783	0.249764
C131	C	1.326686	0.757783	0.499764
C132	C	1.576686	1.007783	0.749764
C133	C	0.763587	0.212849	-0.000229
C134	C	1.013587	0.462849	0.249771
C135	C	1.263587	0.712849	0.499771
C136	C	1.513587	0.962849	0.749771
C137	C	0.764660	0.140027	-0.000228
C138	C	1.014660	0.390027	0.249772
C139	C	1.264660	0.640027	0.499772
C140	C	1.514660	0.890027	0.749772
N141	N	0.777631	0.365786	0.050003
N142	N	1.027631	0.615786	0.300003
N143	N	1.277631	0.865786	0.550003
N144	N	1.527631	1.115786	0.800003
N145	N	0.776616	0.434964	0.050004
N146	N	1.026616	0.684964	0.300004
N147	N	1.276616	0.934964	0.550004
N148	N	1.526616	1.184964	0.800004
C149	C	0.823450	0.477192	-0.000242
C150	C	1.073450	0.727192	0.249758
C151	C	1.323450	0.977192	0.499758
C152	C	1.573450	1.227192	0.749758
N153	N	0.871348	0.447628	-0.050477
N154	N	1.121348	0.697628	0.199523
N155	N	1.371348	0.947628	0.449523
N156	N	1.621348	1.197628	0.699523
N157	N	0.872365	0.378443	-0.050474
N158	N	1.122365	0.628443	0.199526
N159	N	1.372365	0.878443	0.449526
N160	N	1.622365	1.128443	0.699526
C161	C	0.825516	0.336745	-0.000238
C162	C	1.075516	0.586745	0.249762
C163	C	1.325516	0.836745	0.499762
C164	C	1.575516	1.086745	0.749762
C165	C	0.885384	0.601080	-0.000266
C166	C	1.135384	0.851080	0.249734
C167	C	1.385384	1.101080	0.499734
C168	C	1.635384	1.351080	0.749734
C169	C	0.884311	0.673905	-0.000282
C170	C	1.134311	0.923905	0.249718
C171	C	1.384311	1.173905	0.499718
C172	C	1.634311	1.423905	0.749718
C173	C	0.757043	0.656866	-0.000247
C174	C	1.007043	0.906866	0.249753
C175	C	1.257043	1.156866	0.499753
C176	C	1.507043	1.406866	0.749753
C177	C	0.758119	0.584043	-0.000240
C178	C	1.008119	0.834043	0.249760
C179	C	1.258119	1.084043	0.499760
C180	C	1.508119	1.334043	0.749760
C181	C	0.822291	0.556155	-0.000245
C182	C	1.072291	0.806155	0.249755
C183	C	1.322291	1.056155	0.499755
C184	C	1.572291	1.306155	0.749755
C185	C	0.952151	-0.087546	-0.000309
C186	C	1.202151	0.162454	0.249691
C187	C	1.452151	0.412454	0.499691
C188	C	1.702151	0.662454	0.749691
C189	C	1.029655	-0.088687	-0.000339
C190	C	1.279655	0.161313	0.249661
C191	C	1.529655	0.411313	0.499661
C192	C	1.779655	0.661313	0.749661
N193	N	0.824448	-0.093042	0.229631
N194	N	1.074448	0.156958	0.479631
N195	N	1.324448	0.406958	0.729631
N196	N	1.574448	0.656958	0.979631
C197	C	0.818998	0.779300	-0.000284
C198	C	1.068998	1.029300	0.249716
C199	C	1.318998	1.279300	0.499716
C200	C	1.568998	1.529300	0.749716
C201	C	0.820144	0.701797	-0.000264
C202	C	1.070144	0.951797	0.249736
C203	C	1.320144	1.201797	0.499736
C204	C	1.570144	1.451797	0.749736
N205	N	0.824526	-0.093019	-0.230171
N206	N	1.074526	0.156981	0.019829
N207	N	1.324526	0.406981	0.269829
N208	N	1.574526	0.656981	0.519829
C209	C	0.824500	-0.093026	0.588832
C210	C	1.074500	0.156974	0.838832
C211	C	1.324500	0.406974	1.088832
C212	C	1.574500	0.656974	1.338832
C213	C	0.766774	-0.150368	0.551230
C214	C	1.016774	0.099632	0.801230
C215	C	1.266774	0.349632	1.051230
C216	C	1.516774	0.599632	1.301230
C217	C	0.766905	-0.150576	0.448404
C218	C	1.016905	0.099424	0.698404
C219	C	1.266905	0.349424	0.948404
C220	C	1.516905	0.599424	1.198404
C221	C	0.824473	-0.093034	0.410628
C222	C	1.074473	0.156966	0.660628
C223	C	1.324473	0.406966	0.910628
C224	C	1.574473	0.656966	1.160628
C225	C	0.897276	-0.108724	0.447894
C226	C	1.147276	0.141276	0.697894
C227	C	1.397276	0.391276	0.947894
C228	C	1.647276	0.641276	1.197894
C229	C	0.896952	-0.109131	0.550752
C230	C	1.146952	0.140869	0.800752
C231	C	1.396952	0.390869	1.050752
C232	C	1.646952	0.640869	1.300752
C233	C	0.810073	-0.019824	0.550953
C234	C	1.060073	0.230176	0.800953
C235	C	1.310073	0.480176	1.050953
C236	C	1.560073	0.730176	1.300953
C237	C	0.808400	-0.020318	0.448090
C238	C	1.058400	0.229682	0.698090
C239	C	1.308400	0.479682	0.948090
C240	C	1.558400	0.729682	1.198090
C241	C	0.824463	-0.093037	0.309915
C242	C	1.074463	0.156963	0.559915
C243	C	1.324463	0.406963	0.809915
C244	C	1.574463	0.656963	1.059915
C245	C	0.824515	-0.093025	0.689545
C246	C	1.074515	0.156975	0.939545
C247	C	1.324515	0.406975	1.189545
C248	C	1.574515	0.656975	1.439545
H249	H	0.464980	-0.210777	-0.000265
H250	H	0.714980	0.039223	0.249735
H251	H	0.964980	0.289223	0.499735
H252	H	1.214980	0.539223	0.749735
Br253	Br	0.672490	0.523070	-0.000223
Br254	Br	0.922490	0.773070	0.249777
Br255	Br	1.172490	1.023070	0.499777
Br256	Br	1.422490	1.273070	0.749777
Br257	Br	0.873961	0.054110	0.405252
Br258	Br	1.123961	0.304110	0.655252
Br259	Br	1.373961	0.554110	0.905252
Br260	Br	1.623961	0.804110	1.155252
Br261	Br	0.480746	0.054950	-0.000206
Br262	Br	0.730746	0.304950	0.249794
Br263	Br	0.980746	0.554950	0.499794
Br264	Br	1.230746	0.804950	0.749794
H265	H	0.758151	-0.004683	0.576962
H266	H	1.008151	0.245317	0.826962
H267	H	1.258151	0.495317	1.076962
H268	H	1.508151	0.745317	1.326962
Br269	Br	-0.003426	-0.238485	-0.000368
Br270	Br	0.246574	0.011515	0.249632
Br271	Br	0.496574	0.261515	0.499632
Br272	Br	0.746574	0.511515	0.749632
Br273	Br	0.719140	-0.000461	0.407503
Br274	Br	0.969140	0.249539	0.657503
Br275	Br	1.219140	0.499539	0.907503
Br276	Br	1.469140	0.749539	1.157503
H277	H	0.937637	0.578372	-0.000275
H278	H	1.187637	0.828372	0.249725
H279	H	1.437637	1.078372	0.499725
H280	H	1.687637	1.328372	0.749725
Br281	Br	0.676266	-0.135093	0.592504
Br282	Br	0.926266	0.114907	0.842504
Br283	Br	1.176266	0.364907	1.092504
Br284	Br	1.426266	0.614907	1.342504
Br285	Br	0.919043	-0.196675	0.404920
Br286	Br	1.169043	0.053325	0.654920
Br287	Br	1.419043	0.303325	0.904920
Br288	Br	1.669043	0.553325	1.154920
H289	H	0.183988	0.024713	-0.000287
H290	H	0.433988	0.274713	0.249713
H291	H	0.683988	0.524713	0.499713
H292	H	0.933988	0.774713	0.749713
Br293	Br	0.976482	0.290866	-0.000276
Br294	Br	1.226482	0.540866	0.249724
Br295	Br	1.476482	0.790866	0.499724
Br296	Br	1.726482	1.040866	0.749724
H297	H	0.852173	0.022845	0.575268
H298	H	1.102173	0.272845	0.825268
H299	H	1.352173	0.522845	1.075268
H300	H	1.602173	0.772845	1.325268
H301	H	0.712783	-0.141262	0.423211
H302	H	0.962783	0.108738	0.673211
H303	H	1.212783	0.358738	0.923211
H304	H	1.462783	0.608738	1.173211
H305	H	0.935689	0.710482	-0.000297
H306	H	1.185689	0.960482	0.249703
H307	H	1.435689	1.210482	0.499703
H308	H	1.685689	1.460482	0.749703
H309	H	0.597089	-0.212725	-0.000249
H310	H	0.847089	0.037275	0.249751
H311	H	1.097089	0.287275	0.499751
H312	H	1.347089	0.537275	0.749751
Br313	Br	0.679029	0.079054	-0.000214
Br314	Br	0.929029	0.329054	0.249786
Br315	Br	1.179029	0.579054	0.499786
Br316	Br	1.429029	0.829054	0.749786
Br317	Br	0.168223	-0.241017	-0.000347
Br318	Br	0.418223	0.008983	0.249653
Br319	Br	0.668223	0.258983	0.499653
Br320	Br	0.918223	0.508983	0.749653
Br321	Br	0.669959	0.694718	-0.000229
Br322	Br	0.919959	0.944718	0.249771
Br323	Br	1.169959	1.194718	0.499771
Br324	Br	1.419959	1.444718	0.749771
H325	H	0.628003	0.018171	-0.000174
H326	H	0.878003	0.268171	0.249826
H327	H	1.128003	0.518171	0.499826
H328	H	1.378003	0.768171	0.749826
H329	H	0.051874	0.026659	-0.000373
H330	H	0.301874	0.276659	0.249627
H331	H	0.551874	0.526659	0.499627
H332	H	0.801874	0.776659	0.749627
H333	H	0.775835	-0.204389	0.577053
H334	H	1.025835	0.045611	0.827053
H335	H	1.275835	0.295611	1.077053
H336	H	1.525835	0.545611	1.327053
H337	H	0.944177	0.134361	-0.000253
H338	H	1.194177	0.384361	0.249747
H339	H	1.444177	0.634361	0.499747
H340	H	1.694177	0.884361	0.749747
Br341	Br	0.676504	0.250706	-0.000214
Br342	Br	0.926504	0.500706	0.249786
Br343	Br	1.176504	0.750706	0.499786
Br344	Br	1.426504	1.000706	0.749786
H345	H	0.941248	-0.068061	0.423420
H346	H	1.191248	0.181939	0.673420
H347	H	1.441248	0.431939	0.923420
H348	H	1.691248	0.681939	1.173420
Br349	Br	0.782188	-0.241134	0.407346
Br350	Br	1.032188	0.008866	0.657346
Br351	Br	1.282188	0.258866	0.907346
Br352	Br	1.532188	0.508866	1.157346
H353	H	0.941237	-0.069001	0.575622
H354	H	1.191237	0.180999	0.825622
H355	H	1.441237	0.430999	1.075622
H356	H	1.691237	0.680999	1.325622
Br357	Br	0.918198	-0.198098	0.590702
Br358	Br	1.168198	0.051902	0.840702
Br359	Br	1.418198	0.301902	1.090702
Br360	Br	1.668198	0.551902	1.340702
