data_functionalizedCrystal
_audit_creation_method	'MofGen! by Chris Wilmer'
_symmetry_space_group_name_H-M	'P1'
_symmetry_Int_Tables_number	1
_symmetry_cell_setting	triclinic
loop_
_symmetry_equiv_pos_as_xyz
  x,y,z
_cell_length_a	10.686220
_cell_length_b	25.639239
_cell_length_c	10.686551
_cell_angle_alpha	85.590528
_cell_angle_beta	90.308082
_cell_angle_gamma	94.420676
loop_
_atom_site_label
_atom_site_type_symbol
_atom_site_fract_x
_atom_site_fract_y
_atom_site_fract_z
Zn1	Zn	1.972159	-0.127472	-0.562366
Zn2	Zn	1.955834	-0.222109	-0.352592
Zn3	Zn	1.746264	-0.140848	-0.368681
Zn4	Zn	1.762265	-0.221050	-0.578370
O5	O	1.859130	-0.177870	-0.465502
O6	O	2.145540	-0.134872	-0.521108
O7	O	1.914505	-0.217371	-0.179180
O8	O	1.776365	-0.065903	-0.394409
O9	O	2.133546	-0.204401	-0.366988
O10	O	1.942329	-0.056076	-0.536709
O11	O	1.760535	-0.157668	-0.191000
O12	O	1.572839	-0.156641	-0.409928
O13	O	1.803636	-0.202595	-0.751793
O14	O	1.584595	-0.215565	-0.563985
O15	O	1.957844	-0.133844	-0.740035
O16	O	1.930021	-0.295139	-0.382506
O17	O	1.787807	-0.294361	-0.548384
C18	C	1.533200	-0.187440	-0.490440
C19	C	1.393768	-0.191545	-0.501138
C20	C	1.858915	-0.313720	-0.465461
C21	C	1.858941	-0.371833	-0.465476
C22	C	1.933401	-0.732571	-0.379250
C23	C	1.933451	-0.787174	-0.379263
O24	O	1.996536	-0.815738	-0.305904
N25	N	1.859357	-0.814099	-0.465568
C26	C	1.785218	-0.786419	-0.551874
O27	O	1.722201	-0.814336	-0.625286
C28	C	1.785176	-0.731818	-0.551866
C29	C	1.859265	-0.704895	-0.465547
C30	C	2.007485	-0.705649	-0.292939
C31	C	2.007433	-0.651050	-0.292925
C32	C	1.933297	-0.623374	-0.379222
C33	C	1.859213	-0.650297	-0.465533
C34	C	1.711045	-0.704138	-0.638177
C35	C	1.711010	-0.649533	-0.638162
C36	C	1.785099	-0.622611	-0.551843
C37	C	1.785025	-0.568023	-0.551816
N38	N	1.859119	-0.541097	-0.465510
C39	C	1.933255	-0.568773	-0.379213
C40	C	1.785314	-0.901087	-0.551887
C41	C	1.785349	-0.955688	-0.551890
C42	C	1.933583	-0.956438	-0.379280
C43	C	1.933541	-0.901836	-0.379272
C44	C	1.859408	-0.874161	-0.465581
C45	C	1.933139	-0.454112	-0.379189
C46	C	1.933077	-0.399509	-0.379179
C47	C	1.784847	-0.398763	-0.551793
C48	C	1.784904	-0.453362	-0.551799
C49	C	1.859060	-0.481035	-0.465493
O50	O	1.721976	-0.539424	-0.625140
O51	O	1.996274	-0.540849	-0.305825
C52	C	2.186333	-0.168263	-0.440468
C53	C	2.325768	-0.164169	-0.429800
C54	C	1.884346	-0.166610	-0.792704
C55	C	1.895092	-0.161811	-0.932138
C56	C	1.859383	-0.041486	-0.465568
C57	C	1.859490	0.016632	-0.465597
C58	C	1.834084	-0.189046	-0.139567
C59	C	1.823582	-0.193690	-0.000116
H60	H	1.993408	-0.377591	-0.308884
C61	C	2.015129	-0.986889	-0.284350
H62	H	2.004543	-1.023262	-0.296730
H63	H	1.990332	-0.981401	-0.201447
H64	H	2.100822	-0.974794	-0.296329
C65	C	1.328316	-0.227455	-0.594707
H66	H	1.240044	-0.225596	-0.589871
H67	H	1.348258	-0.262587	-0.574581
H68	H	1.356253	-0.216326	-0.677406
C69	C	1.729783	-0.235527	-0.934646
H70	H	1.686372	-0.254888	-0.995986
H71	H	1.671262	-0.218877	-0.887709
H72	H	1.773861	-0.258638	-0.879857
C73	C	2.014698	-0.484545	-0.284246
H74	H	2.058797	-0.460685	-0.232839
H75	H	2.073047	-0.502557	-0.328087
H76	H	1.962548	-0.509164	-0.233214
C77	C	1.988917	-0.119980	-0.997611
H78	H	2.032344	-0.100627	-0.936268
H79	H	1.944871	-0.096868	-1.052415
H80	H	2.047439	-0.136643	-1.044529
C81	C	2.088948	-0.621441	-0.197987
H82	H	2.133112	-0.645750	-0.146610
H83	H	2.036789	-0.603459	-0.146943
H84	H	2.147260	-0.596855	-0.241847
H85	H	1.374220	-0.137590	-0.360538
C86	C	2.089034	-0.736084	-0.197997
H87	H	2.133135	-0.712223	-0.146595
H88	H	2.147381	-0.754099	-0.241832
H89	H	2.036881	-0.760701	-0.146962
H90	H	1.650643	-0.627002	-0.708450
H91	H	1.725005	-0.977604	-0.622169
C92	C	1.703746	-0.870649	-0.646820
H93	H	1.659622	-0.894509	-0.698207
H94	H	1.755877	-0.846029	-0.697853
H95	H	1.645399	-0.852640	-0.602957
C96	C	2.015049	-0.872226	-0.284331
H97	H	2.059209	-0.896533	-0.232946
H98	H	1.962883	-0.854242	-0.233295
H99	H	2.073364	-0.847640	-0.328188
H100	H	1.724579	-0.475283	-0.622091
C101	C	1.629555	-0.733741	-0.733138
H102	H	1.585417	-0.709430	-0.784535
H103	H	1.571241	-0.758332	-0.689312
H104	H	1.681745	-0.751716	-0.784178
C105	C	1.703311	-0.368313	-0.646718
H106	H	1.713909	-0.331938	-0.634349
H107	H	1.617622	-0.380406	-0.634756
H108	H	1.728124	-0.373799	-0.729624
