data_functionalizedCrystal
_audit_creation_method	'MofGen! by Chris Wilmer'
_symmetry_space_group_name_H-M	'P1'
_symmetry_Int_Tables_number	1
_symmetry_cell_setting	triclinic
loop_
_symmetry_equiv_pos_as_xyz
  x,y,z
_cell_length_a	16.109301
_cell_length_b	16.109301
_cell_length_c	15.186229
_cell_angle_alpha	89.994833
_cell_angle_beta	89.999362
_cell_angle_gamma	83.461481
loop_
_atom_site_label
_atom_site_type_symbol
_atom_site_fract_x
_atom_site_fract_y
_atom_site_fract_z
O1	O	1.103131	0.106866	-0.073176
O2	O	0.861069	0.120165	-0.073190
O3	O	0.988749	-0.007515	-0.073174
O4	O	0.975450	0.234547	-0.073192
O5	O	0.988741	-0.007517	0.073284
O6	O	0.861060	0.120164	0.073267
O7	O	1.103122	0.106864	0.073282
Zn8	Zn	0.982090	0.113514	0.096528
Zn9	Zn	0.982101	0.113516	-0.096436
O10	O	0.975441	0.234545	0.073265
C11	C	0.830090	0.119626	0.000037
C12	C	0.737794	0.118011	0.000032
C13	C	0.988206	-0.038491	0.000056
C14	C	0.986591	-0.130786	0.000057
C15	C	0.515522	0.190018	0.000036
C16	C	0.428801	0.188494	0.000042
C17	C	0.448676	0.037006	0.000050
C18	C	0.535394	0.038530	0.000051
C19	C	0.568815	0.115039	0.000039
C20	C	0.395376	0.111990	0.000045
C21	C	0.301350	0.110337	0.000051
C22	C	0.662847	0.116693	0.000035
C23	C	1.058599	-0.353059	0.000047
C24	C	1.057075	-0.439779	0.000040
C25	C	0.905586	-0.419905	0.000034
C26	C	0.907111	-0.333186	0.000035
C27	C	0.983620	-0.299766	0.000046
C28	C	0.980571	-0.473205	0.000038
C29	C	0.978918	-0.567231	0.000030
C30	C	0.985273	-0.205734	0.000052
C31	C	1.134101	0.107404	0.000053
C32	C	1.226397	0.109019	0.000052
C33	C	0.975984	0.265521	0.000034
C34	C	0.977600	0.357816	0.000027
N35	N	0.982088	0.113511	0.228220
N36	N	0.982109	0.113512	-0.228129
C37	C	1.038644	0.056994	0.453950
C38	C	1.038647	0.056992	0.546140
C39	C	0.925547	0.170032	0.546135
C40	C	0.925541	0.170030	0.453947
C41	C	0.982094	0.113511	0.407857
C42	C	0.982103	0.113512	0.592235
C43	C	0.982105	0.113510	0.692191
C44	C	0.982091	0.113512	0.307894
H45	H	0.542730	0.252317	0.000034
H46	H	0.385413	0.249550	0.000041
H47	H	0.421454	-0.025285	0.000065
O48	O	0.831322	-0.452471	-0.000086
C49	C	0.741663	-0.538801	-0.075986
C50	C	0.825806	-0.501993	-0.075953
H51	H	0.737169	-0.578833	-0.137327
H52	H	0.737149	-0.578962	-0.014734
H53	H	0.688348	-0.485800	-0.075945
H54	H	0.879169	-0.554941	-0.076025
H55	H	0.830247	-0.461810	-0.137199
H56	H	0.846050	-0.289792	0.000032
H57	H	0.879503	0.216049	0.583670
O58	O	1.093490	0.001958	0.409237
C59	C	1.142252	-0.142615	0.381154
C60	C	1.080081	-0.080365	0.431813
H61	H	1.131444	-0.209186	0.399401
H62	H	1.132556	-0.133007	0.307330
H63	H	1.208830	-0.131728	0.399272
H64	H	1.013478	-0.091214	0.413769
H65	H	1.089850	-0.089987	0.505625
O66	O	0.587051	-0.034386	0.000013
C67	C	0.597620	-0.184803	0.000075
C68	C	0.539025	-0.102294	0.000092
H69	H	0.558814	-0.239728	0.000158
H70	H	0.638703	-0.187930	-0.061230
H71	H	0.638731	-0.187829	0.061355
H72	H	0.497861	-0.099213	-0.061145
H73	H	0.497998	-0.099201	0.061438
O74	O	1.132989	-0.320731	0.000008
C75	C	1.283083	-0.349601	0.000051
C76	C	1.198894	-0.386319	0.000081
H77	H	1.336390	-0.402610	0.000129
H78	H	1.287639	-0.309524	-0.061256
H79	H	1.287543	-0.309475	0.061328
H80	H	1.194377	-0.426483	-0.061155
H81	H	1.194374	-0.426348	0.061428
O82	O	1.129888	-0.491581	-0.000114
C83	C	1.216069	-0.601043	-0.075966
C84	C	1.133583	-0.542413	-0.075909
H85	H	1.219075	-0.642168	-0.137230
H86	H	1.271041	-0.562297	-0.076016
H87	H	1.219131	-0.642110	-0.014649
H88	H	1.130439	-0.501334	-0.137216
H89	H	1.078649	-0.581209	-0.075813
H90	H	1.084694	0.010969	0.583667
O91	O	0.870574	0.225015	0.409302
C92	C	0.758360	0.337102	0.419017
C93	C	0.820576	0.274897	0.469687
H94	H	0.717909	0.377436	0.467816
H95	H	0.794196	0.378702	0.375871
H96	H	0.716876	0.301174	0.375843
H97	H	0.862076	0.310757	0.512909
H98	H	0.784689	0.233298	0.512777
