data_functionalizedCrystal
_audit_creation_method	'MofGen! by Chris Wilmer'
_symmetry_space_group_name_H-M	'P1'
_symmetry_Int_Tables_number	1
_symmetry_cell_setting	triclinic
loop_
_symmetry_equiv_pos_as_xyz
  x,y,z
_cell_length_a	25.639242
_cell_length_b	25.639240
_cell_length_c	12.759393
_cell_angle_alpha	90.030960
_cell_angle_beta	90.031512
_cell_angle_gamma	90.027587
loop_
_atom_site_label
_atom_site_type_symbol
_atom_site_fract_x
_atom_site_fract_y
_atom_site_fract_z
Zn1	Zn	0.799297	-0.208188	0.594313
Zn2	Zn	1.299297	0.291812	1.094313
Zn3	Zn	0.799217	-0.295633	0.418632
Zn4	Zn	1.299217	0.204367	0.918632
Zn5	Zn	0.711859	-0.208206	0.418616
Zn6	Zn	1.211859	0.291794	0.918616
Zn7	Zn	0.711829	-0.295587	0.594236
Zn8	Zn	1.211829	0.204413	1.094236
O9	O	0.755551	-0.251904	0.506449
O10	O	1.255551	0.248096	1.006449
O11	O	0.872452	-0.219799	0.571047
O12	O	1.372452	0.280201	1.071047
O13	O	0.787608	-0.284062	0.271608
O14	O	1.287608	0.215938	0.771608
O15	O	0.723505	-0.135039	0.441948
O16	O	1.223505	0.364961	0.941948
O17	O	0.872393	-0.284044	0.441975
O18	O	1.372393	0.215956	0.941975
O19	O	0.787745	-0.135025	0.571032
O20	O	1.287745	0.364975	1.071032
O21	O	0.723427	-0.219831	0.271597
O22	O	1.223427	0.280169	0.771597
O23	O	0.638690	-0.219786	0.441874
O24	O	1.138690	0.280214	0.941874
O25	O	0.723453	-0.283967	0.741268
O26	O	1.223453	0.216033	1.241268
O27	O	0.638668	-0.283985	0.570901
O28	O	1.138668	0.216015	1.070901
O29	O	0.787716	-0.219755	0.741324
O30	O	1.287716	0.280245	1.241324
O31	O	0.787578	-0.368792	0.441901
O32	O	1.287578	0.131208	0.941901
O33	O	0.723375	-0.368758	0.570917
O34	O	1.223375	0.131242	1.070917
C35	C	0.755478	-0.387746	0.506425
C36	C	1.255478	0.112254	1.006425
C37	C	0.755495	-0.445860	0.506450
C38	C	1.255495	0.054140	1.006450
C39	C	0.619708	-0.251883	0.506378
C40	C	1.119708	0.248117	1.006378
C41	C	0.561594	-0.251887	0.506372
C42	C	1.061594	0.248113	1.006372
C43	C	0.788998	-0.696995	0.573732
C44	C	1.288998	-0.196995	1.073732
C45	C	0.788982	-0.642391	0.573724
C46	C	1.288982	-0.142391	1.073724
O47	O	0.817407	-0.614105	0.630895
O48	O	1.317407	-0.114105	1.130895
N49	N	0.755553	-0.615134	0.506463
N50	N	1.255553	-0.115134	1.006463
C51	C	0.722141	-0.642484	0.439198
C52	C	1.222141	-0.142484	0.939198
O53	O	0.693705	-0.614286	0.381986
O54	O	1.193705	-0.114286	0.881986
C55	C	0.722159	-0.697088	0.439201
C56	C	1.222159	-0.197088	0.939201
C57	C	0.755587	-0.724342	0.506474
C58	C	1.255587	-0.224342	1.006474
C59	C	0.822423	-0.724249	0.640999
C60	C	1.322423	-0.224249	1.140999
C61	C	0.822438	-0.778850	0.641008
C62	C	1.322438	-0.278850	1.141008
C63	C	0.789027	-0.806196	0.573750
C64	C	1.289027	-0.306196	1.073750
C65	C	0.755602	-0.778942	0.506483
C66	C	1.255602	-0.278942	1.006483
C67	C	0.688750	-0.724437	0.371932
C68	C	1.188750	-0.224437	0.871932
C69	C	0.688772	-0.779044	0.371941
C70	C	1.188772	-0.279044	0.871941
C71	C	0.722200	-0.806298	0.439214
C72	C	1.222200	-0.306298	0.939214
C73	C	0.722206	-0.860889	0.439235
C74	C	1.222206	-0.360889	0.939235
N75	N	0.755636	-0.888146	0.506496
N76	N	1.255636	-0.388146	1.006496
C77	C	0.789046	-0.860800	0.573754
C78	C	1.289046	-0.360800	1.073754
C79	C	0.722104	-0.527814	0.439195
C80	C	1.222104	-0.027814	0.939195
C81	C	0.722083	-0.473211	0.439196
C82	C	1.222083	0.026789	0.939196
C83	C	0.788925	-0.473122	0.573721
C84	C	1.288925	0.026878	1.073721
C85	C	0.788944	-0.527725	0.573724
C86	C	1.288944	-0.027725	1.073724
C87	C	0.755534	-0.555071	0.506456
C88	C	1.255534	-0.055071	1.006456
C89	C	0.789075	-0.975465	0.573768
C90	C	1.289075	-0.475465	1.073768
C91	C	0.789085	-1.030070	0.573774
C92	C	1.289085	-0.530070	1.073774
C93	C	0.722245	-1.030155	0.439246
C94	C	1.222245	-0.530155	0.939246
C95	C	0.722232	-0.975554	0.439243
C96	C	1.222232	-0.475554	0.939243
C97	C	0.755651	-0.948211	0.506508
C98	C	1.255651	-0.448211	1.006508
O99	O	0.693798	-0.889210	0.382090
O100	O	1.193798	-0.389210	0.882090
O101	O	0.817481	-0.889004	0.630946
O102	O	1.317481	-0.389004	1.130946
C103	C	0.201228	-0.285387	0.573570
C104	C	0.701228	0.214613	1.073570
C105	C	0.146624	-0.285391	0.573587
C106	C	0.646624	0.214609	1.073587
O107	O	0.118385	-0.313849	0.630661
O108	O	0.618385	0.186151	1.130661
N109	N	0.119312	-0.251918	0.506518
N110	N	0.619312	0.248082	1.006518
C111	C	0.146606	-0.218436	0.439435
C112	C	0.646606	0.281564	0.939435
O113	O	0.118361	-0.189965	0.382390
O114	O	0.618361	0.310035	0.882390
C115	C	0.201210	-0.218431	0.439425
C116	C	0.701210	0.281569	0.939425
C117	C	0.228519	-0.251909	0.506491
C118	C	0.728519	0.248091	1.006491
C119	C	0.228538	-0.318863	0.640632
C120	C	0.728538	0.181137	1.140632
C121	C	0.283138	-0.318860	0.640613
C122	C	0.783138	0.181140	1.140613
C123	C	0.310429	-0.285382	0.573534
C124	C	0.810429	0.214618	1.073534
C125	C	0.283120	-0.251907	0.506472
C126	C	0.783120	0.248093	1.006472
C127	C	0.228504	-0.184947	0.372348
C128	C	0.728504	0.315053	0.872348
C129	C	0.283111	-0.184944	0.372344
C130	C	0.783111	0.315056	0.872344
C131	C	0.310420	-0.218422	0.439410
C132	C	0.810420	0.281578	0.939410
C133	C	0.365011	-0.218426	0.439375
C134	C	0.865011	0.281574	0.939375
N135	N	0.392324	-0.251899	0.506444
N136	N	0.892324	0.248101	1.006444
C137	C	0.365033	-0.285377	0.573523
C138	C	0.865033	0.214623	1.073523
C139	C	0.031936	-0.218449	0.439464
C140	C	0.531936	0.281551	0.939464
C141	C	-0.022667	-0.218457	0.439468
C142	C	0.477333	0.281543	0.939468
C143	C	-0.022645	-0.285411	0.573621
C144	C	0.477355	0.214589	1.073621
C145	C	0.031958	-0.285406	0.573611
C146	C	0.531958	0.214594	1.073611
C147	C	0.059248	-0.251922	0.506533
C148	C	0.559248	0.248078	1.006533
C149	C	0.479698	-0.285369	0.573479
C150	C	0.979698	0.214631	1.073479
C151	C	0.534303	-0.285365	0.573452
C152	C	1.034303	0.214635	1.073452
C153	C	0.534277	-0.218409	0.439303
C154	C	1.034277	0.281591	0.939303
C155	C	0.479676	-0.218415	0.439326
C156	C	0.979676	0.281585	0.939326
C157	C	0.452388	-0.251897	0.506423
C158	C	0.952388	0.248103	1.006423
O159	O	0.393285	-0.189981	0.382333
O160	O	0.893285	0.310019	0.882333
O161	O	0.393284	-0.313838	0.630569
O162	O	0.893284	0.186162	1.130569
C163	C	0.891924	-0.251925	0.506521
C164	C	1.391924	0.248075	1.006521
C165	C	0.950038	-0.251934	0.506552
C166	C	1.450038	0.248066	1.006552
C167	C	0.755590	-0.251853	0.780483
C168	C	1.255590	0.248147	1.280483
C169	C	0.755606	-0.251832	0.897259
C170	C	1.255606	0.248168	1.397259
C171	C	0.755637	-0.115531	0.506497
C172	C	1.255637	0.384469	1.006497
C173	C	0.755674	-0.057416	0.506517
C174	C	1.255674	0.442584	1.006517
C175	C	0.755542	-0.251916	0.233482
C176	C	1.255542	0.248084	0.733482
C177	C	0.755626	-0.251790	0.116706
C178	C	1.255626	0.248210	0.616706
C179	C	0.789071	-0.218391	0.952152
C180	C	1.289071	0.281609	1.452152
C181	C	0.789079	-0.218369	1.061877
C182	C	1.289079	0.281631	1.561877
C183	C	0.722159	-0.285232	1.061805
C184	C	1.222159	0.214768	1.561805
C185	C	0.722148	-0.285251	0.952083
C186	C	1.222148	0.214749	1.452083
C187	C	0.807816	-0.156684	1.211863
C188	C	1.307816	0.343316	1.711863
C189	C	0.841288	-0.123248	1.266759
C190	C	1.341288	0.376752	1.766759
C191	C	0.892306	-0.115236	1.231187
C192	C	1.392306	0.384764	1.731187
C193	C	0.909862	-0.140667	1.140720
C194	C	1.409862	0.359333	1.640720
C195	C	0.876393	-0.174107	1.085829
C196	C	1.376393	0.325893	1.585829
C197	C	0.825367	-0.182109	1.121399
C198	C	1.325367	0.317891	1.621399
C199	C	0.703417	-0.346937	0.802095
C200	C	1.203417	0.153063	1.302095
C201	C	0.669949	-0.380380	0.747202
C202	C	1.169949	0.119620	1.247202
C203	C	0.618930	-0.388398	0.782772
C204	C	1.118930	0.111602	1.282772
C205	C	0.601376	-0.362975	0.873243
C206	C	1.101376	0.137025	1.373243
C207	C	0.634843	-0.329533	0.928136
C208	C	1.134843	0.170467	1.428136
C209	C	0.685862	-0.321514	0.892558
C210	C	1.185862	0.178486	1.392558
H211	H	0.816305	-1.052258	0.628562
H212	H	1.316305	-0.552258	1.128562
F213	F	0.060975	-0.182813	0.368058
F214	F	0.560975	0.317187	0.868058
F215	F	0.753514	-0.165202	1.249720
F216	F	1.253514	0.334798	1.749720
H217	H	0.206323	-0.346125	0.695262
H218	H	0.706323	0.153875	1.195262
F219	F	0.895074	-0.201173	0.989554
F220	F	1.395074	0.298827	1.489554
F221	F	0.199450	-0.149311	0.300971
F222	F	0.699450	0.350689	0.800971
F223	F	0.757712	-0.338393	0.764212
F224	F	1.257712	0.161607	1.264212
F225	F	-0.051700	-0.321038	0.645022
F226	F	0.448300	0.178962	1.145022
H227	H	0.305369	-0.346121	0.695228
H228	H	0.805369	0.153879	1.195228
H229	H	0.054190	-0.312666	0.628224
H230	H	0.554190	0.187334	1.128224
F231	F	0.563332	-0.182781	0.367915
F232	F	1.063332	0.317219	0.867915
F233	F	0.653168	-0.695443	0.300336
F234	F	1.153168	-0.195443	0.800336
H235	H	0.694919	-0.312442	1.106456
H236	H	1.194919	0.187558	1.606456
F237	F	0.312151	-0.149304	0.300950
F238	F	0.812151	0.350696	0.800950
H239	H	0.661566	-0.801306	0.317160
H240	H	1.161566	-0.301306	0.817160
H241	H	0.695007	-0.953364	0.384474
H242	H	1.195007	-0.453364	0.884474
H243	H	0.695042	-1.052430	0.384489
H244	H	1.195042	-0.552430	0.884489
F245	F	-0.051725	-0.182831	0.368075
F246	F	0.448275	0.317169	0.868075
F247	F	0.824522	-0.556726	0.645322
F248	F	1.324522	-0.056726	1.145322
F249	F	0.450611	-0.182791	0.367932
F250	F	0.950611	0.317209	0.867932
F251	F	0.858016	-0.807849	0.712611
F252	F	1.358016	-0.307849	1.212611
F253	F	0.563365	-0.321000	0.644834
F254	F	1.063365	0.179000	1.144834
F255	F	0.616159	-0.302475	1.024424
F256	F	1.116159	0.197525	1.524424
H257	H	0.816314	-0.191178	0.907518
H258	H	1.316314	0.308822	1.407518
H259	H	0.919559	-0.088011	1.275892
H260	H	1.419559	0.411989	1.775892
F261	F	0.686539	-0.556912	0.367601
F262	F	1.186539	-0.056912	0.867601
F263	F	0.450663	-0.321004	0.644891
F264	F	0.950663	0.178996	1.144891
F265	F	0.964166	-0.132144	1.102876
F266	F	1.464166	0.367856	1.602876
H267	H	0.826989	-0.102542	1.340418
H268	H	1.326989	0.397458	1.840418
F269	F	0.547076	-0.371509	0.911105
F270	F	1.047076	0.128491	1.411105
F271	F	0.583316	-0.424000	0.724358
F272	F	1.083316	0.076000	1.224358
H273	H	0.694857	-0.451025	0.384427
H274	H	1.194857	0.048975	0.884427
F275	F	0.824643	-0.946371	0.645358
F276	F	1.324643	-0.446371	1.145358
F277	F	0.824486	-0.444008	0.645298
F278	F	1.324486	0.055992	1.145298
F279	F	0.857987	-0.695153	0.712589
F280	F	1.357987	-0.195153	1.212589
F281	F	0.688636	-0.407441	0.650920
F282	F	1.188636	0.092559	1.150920
