data_functionalizedCrystal
_audit_creation_method	'MofGen! by Chris Wilmer'
_symmetry_space_group_name_H-M	'P1'
_symmetry_Int_Tables_number	1
_symmetry_cell_setting	triclinic
loop_
_symmetry_equiv_pos_as_xyz
  x,y,z
_cell_length_a	21.395362
_cell_length_b	13.897447
_cell_length_c	21.395355
_cell_angle_alpha	90.014356
_cell_angle_beta	90.043940
_cell_angle_gamma	90.035409
loop_
_atom_site_label
_atom_site_type_symbol
_atom_site_fract_x
_atom_site_fract_y
_atom_site_fract_z
Zn1	Zn	0.957908	-0.383718	0.354604
Zn2	Zn	0.957831	-0.544997	0.249834
Zn3	Zn	0.853123	-0.383763	0.249805
Zn4	Zn	0.853113	-0.545017	0.354539
O5	O	0.905494	-0.464374	0.302195
O6	O	1.045576	-0.405085	0.340745
O7	O	0.943913	-0.523620	0.162152
O8	O	0.867060	-0.248775	0.263722
O9	O	1.045519	-0.523576	0.263771
O10	O	0.944045	-0.248742	0.340717
O11	O	0.866985	-0.405161	0.162131
O12	O	0.765444	-0.405181	0.263659
O13	O	0.867042	-0.523610	0.442225
O14	O	0.765436	-0.523654	0.340606
O15	O	0.944035	-0.405104	0.442273
O16	O	0.943903	-0.679982	0.263708
O17	O	0.866967	-0.679996	0.340634
C18	C	0.742706	-0.464425	0.302123
C19	C	0.673065	-0.464470	0.302106
C20	C	0.640364	-0.526240	0.342113
C21	C	0.574929	-0.526217	0.342141
C22	C	0.542197	-0.464433	0.302151
C23	C	0.574905	-0.402650	0.262142
C24	C	0.640339	-0.402669	0.262119
C25	C	0.438471	-0.456662	0.245745
C26	C	0.373038	-0.456650	0.245767
C27	C	0.340376	-0.464370	0.302220
C28	C	0.373155	-0.472121	0.358654
C29	C	0.438589	-0.472140	0.358632
C30	C	0.471244	-0.464405	0.302171
C31	C	0.236723	-0.526118	0.342260
C32	C	0.171286	-0.526088	0.342289
C33	C	0.171264	-0.402526	0.262285
C34	C	0.236699	-0.402551	0.262261
C35	C	0.269425	-0.464352	0.302248
C36	C	0.905443	-0.714988	0.302181
C37	C	0.905478	-0.822202	0.302196
C38	C	0.905509	-0.909272	0.302210
C39	C	0.905553	-1.018504	0.302226
C40	C	1.068917	-0.464323	0.302269
C41	C	1.138558	-0.464302	0.302300
C42	C	0.905546	-0.464354	0.465619
C43	C	0.905568	-0.464346	0.535260
C44	C	0.905562	-0.212781	0.302224
C45	C	0.905591	-0.105567	0.302236
C46	C	0.905478	-0.464324	0.139408
C47	C	0.905577	-0.464060	0.069767
C48	C	0.945656	-0.402637	0.567999
C49	C	0.945655	-0.402596	0.633434
C50	C	0.905573	-0.464280	0.666128
C51	C	0.865477	-0.525993	0.633381
C52	C	0.865474	-0.526026	0.567947
C53	C	0.900608	-0.551135	0.769796
C54	C	0.900615	-0.551103	0.835229
C55	C	0.905577	-0.464178	0.867949
C56	C	0.910545	-0.377282	0.835228
C57	C	0.910543	-0.377315	0.769794
C58	C	0.905571	-0.464251	0.737081
C59	C	0.945666	-0.402419	0.971641
C60	C	0.945661	-0.402376	1.037077
C61	C	0.865485	-0.525782	1.037023
C62	C	0.865487	-0.525817	0.971588
C63	C	0.905581	-0.464137	0.938901
H64	H	0.548299	-0.576517	0.374721
H65	H	0.666964	-0.352365	0.229541
H66	H	0.978299	-0.352340	0.660096
H67	H	0.465275	-0.478449	0.404582
Br68	Br	0.281082	-0.318715	0.207963
H69	H	0.832839	-0.576214	0.660005
Br70	Br	0.684775	-0.610110	0.396382
Br71	Br	0.328837	-0.482596	0.435276
Br72	Br	0.893881	-0.669033	0.879630
Br73	Br	0.126849	-0.318665	0.208018
H74	H	0.548250	-0.352343	0.229583
Br75	Br	1.000066	-0.318925	0.523640
Br76	Br	0.917285	-0.259303	0.879625
H77	H	0.144662	-0.576387	0.374871
Br78	Br	0.281140	-0.609985	0.396529
H79	H	0.832843	-0.575997	1.063642
H80	H	0.346354	-0.450344	0.199815
Br81	Br	0.811080	-0.609571	0.927153
H82	H	0.978310	-0.352190	0.945025
Br83	Br	0.893892	-0.669118	0.725397
H84	H	0.465059	-0.450372	0.199771
H85	H	0.914586	-0.306560	0.743155
Br86	Br	1.000081	-0.318636	1.081511
H87	H	0.832826	-0.576275	0.541291
