data_functionalizedCrystal
_audit_creation_method	'MofGen! by Chris Wilmer'
_symmetry_space_group_name_H-M	'P1'
_symmetry_Int_Tables_number	1
_symmetry_cell_setting	triclinic
loop_
_symmetry_equiv_pos_as_xyz
  x,y,z
_cell_length_a	12.784890
_cell_length_b	19.188924
_cell_length_c	11.892095
_cell_angle_alpha	93.873774
_cell_angle_beta	86.513306
_cell_angle_gamma	78.124261
loop_
_atom_site_label
_atom_site_type_symbol
_atom_site_fract_x
_atom_site_fract_y
_atom_site_fract_z
O1	O	1.417114	-0.000507	-0.093968
O2	O	1.107519	0.029404	-0.093980
O3	O	1.271254	-0.087732	-0.093961
O4	O	1.253380	0.116629	-0.093988
O5	O	1.257602	-0.077979	0.094045
O6	O	1.093867	0.039156	0.094026
O7	O	1.403462	0.009246	0.094037
Zn8	Zn	1.246497	0.025750	0.123882
Zn9	Zn	1.264484	0.012900	-0.123824
O10	O	1.239728	0.126381	0.094018
C11	C	1.061085	0.036225	0.000022
C12	C	0.943064	0.042013	0.000018
C13	C	0.763748	0.114556	0.000006
C14	C	0.874639	0.109122	0.000007
C15	C	0.900592	-0.019666	0.000024
C16	C	0.789702	-0.014232	0.000023
C17	C	0.721283	0.052881	0.000016
C18	C	0.610390	0.058315	0.000023
C19	C	0.636346	-0.070473	0.000032
C20	C	0.747237	-0.075907	0.000033
C21	C	1.263850	-0.108832	0.000043
C22	C	1.262116	-0.186235	0.000046
C23	C	1.268748	-0.227903	-0.102436
C24	C	1.267104	-0.300629	-0.102445
C25	C	1.258849	-0.331688	0.000035
C26	C	1.252210	-0.290010	0.102531
C27	C	1.253843	-0.217284	0.102536
N28	N	1.311249	-0.450796	0.076310
N29	N	1.309700	-0.519884	0.076298
C30	C	1.253925	-0.550809	0.000024
N31	N	1.199773	-0.510039	-0.076254
N32	N	1.201327	-0.440945	-0.076245
C33	C	1.257077	-0.410548	0.000040
C34	C	1.258774	-0.671335	-0.102475
C35	C	1.257123	-0.744062	-0.102479
C36	C	1.242240	-0.733443	0.102499
C37	C	1.243880	-0.660716	0.102500
C38	C	1.252152	-0.629668	0.000010
C39	C	1.449897	0.002424	0.000033
C40	C	1.567919	-0.003364	0.000030
C41	C	1.247132	0.147482	0.000012
C42	C	1.248867	0.224884	0.000001
N43	N	1.234230	0.034518	0.292934
N44	N	1.276761	0.004125	-0.292877
C45	C	1.362126	-0.056931	0.529597
C46	C	1.353558	-0.050797	0.647938
C47	C	1.208523	0.052916	0.647959
C48	C	1.217091	0.046782	0.529618
C49	C	1.293895	-0.008142	0.470441
C50	C	1.302467	-0.014273	0.352098
C51	C	1.157428	0.089437	0.352121
C52	C	1.148860	0.095571	0.470462
H53	H	0.956318	-0.074307	0.000021
N54	N	0.821040	-0.148286	0.000049
H55	H	0.802354	-0.171873	0.069750
H56	H	0.812444	-0.179056	-0.069684
N57	N	0.590546	-0.136998	0.000052
H58	H	0.509915	-0.123374	0.000054
H59	H	0.620652	-0.169685	-0.069639
N60	N	1.277666	-0.194414	-0.212974
H61	H	1.281617	-0.231850	-0.277898
H62	H	1.212773	-0.154809	-0.217442
N63	N	0.689954	0.186941	0.000017
H64	H	0.708635	0.210538	-0.069675
H65	H	0.613288	0.180971	0.000063
N66	N	0.920444	0.175641	-0.000014
H67	H	0.860271	0.218978	-0.000021
H68	H	0.960830	0.179810	0.069680
N69	N	1.233338	-0.766939	0.213027
H70	H	1.296261	-0.761625	0.257837
H71	H	1.164440	-0.742283	0.257741
N72	N	1.083821	0.142056	0.288315
H73	H	1.033867	0.177778	0.343764
H74	H	1.127929	0.167932	0.239203
H75	H	1.272499	-0.334561	-0.185901
H76	H	1.245486	-0.315303	0.185970
H77	H	0.554684	0.112963	0.000024
H78	H	1.265504	-0.646053	-0.185928
H79	H	1.262519	-0.777987	-0.185936
H80	H	1.238488	-0.626791	0.185953
H81	H	1.248438	-0.183357	0.185992
N82	N	1.385306	-0.073507	0.288267
H83	H	1.427226	-0.103484	0.343704
H84	H	1.348302	-0.104469	0.239177
H85	H	1.424670	-0.101649	0.481415
H86	H	1.409117	-0.090526	0.696100
N87	N	1.125700	0.112150	0.711812
H88	H	1.139206	0.159913	0.691220
H89	H	1.051803	0.107538	0.691219
N90	N	1.066020	0.154805	0.534291
H91	H	1.070942	0.151288	0.618236
H92	H	1.079569	0.202537	0.513601
