data_functionalizedCrystal
_audit_creation_method	'MofGen! by Chris Wilmer'
_symmetry_space_group_name_H-M	'P1'
_symmetry_Int_Tables_number	1
_symmetry_cell_setting	triclinic
loop_
_symmetry_equiv_pos_as_xyz
  x,y,z
_cell_length_a	15.995300
_cell_length_b	15.995350
_cell_length_c	15.186229
_cell_angle_alpha	89.998487
_cell_angle_beta	89.995056
_cell_angle_gamma	83.482091
loop_
_atom_site_label
_atom_site_type_symbol
_atom_site_fract_x
_atom_site_fract_y
_atom_site_fract_z
O1	O	1.111011	0.107725	-0.073256
O2	O	0.867230	0.121096	-0.073251
O3	O	0.995784	-0.007478	-0.073253
O4	O	0.982456	0.236299	-0.073254
O5	O	0.995775	-0.007480	0.073204
O6	O	0.867221	0.121095	0.073207
O7	O	1.111002	0.107723	0.073201
Zn8	Zn	0.989110	0.114408	0.096457
Zn9	Zn	0.989121	0.114411	-0.096507
O10	O	0.982448	0.236298	0.073203
C11	C	0.836030	0.120550	-0.000021
C12	C	0.743077	0.118915	-0.000019
C13	C	0.995229	-0.038674	-0.000026
C14	C	0.993577	-0.131624	-0.000031
C15	C	0.572894	0.115896	-0.000026
C16	C	0.525428	0.207443	-0.000024
C17	C	0.428740	0.205773	-0.000359
C18	C	0.405337	0.112924	-0.000032
C19	C	0.446475	0.067505	-0.083501
C20	C	0.543108	0.069821	-0.083568
C21	C	0.543378	0.068464	0.082987
C22	C	0.446433	0.068472	0.084081
C23	C	0.310642	0.111239	-0.000038
C24	C	0.667590	0.117577	-0.000026
C25	C	0.987644	-0.469370	-0.000028
C26	C	0.896090	-0.421920	-0.000354
C27	C	0.897743	-0.325230	-0.000024
C28	C	0.990587	-0.301810	-0.000030
C29	C	1.035740	-0.342897	0.083602
C30	C	1.033440	-0.439532	0.083672
C31	C	1.035341	-0.439889	-0.082877
C32	C	1.035319	-0.342943	-0.083983
C33	C	0.992255	-0.207113	-0.000028
C34	C	0.985979	-0.564068	-0.000024
C35	C	1.142202	0.108269	-0.000030
C36	C	1.235154	0.109904	-0.000038
C37	C	0.983003	0.267493	-0.000026
C38	C	0.984655	0.360443	-0.000027
N39	N	0.989108	0.114406	0.228150
N40	N	0.989130	0.114406	-0.228199
C41	C	1.046052	0.057493	0.453872
C42	C	1.046054	0.057491	0.546061
C43	C	0.932180	0.171323	0.546072
C44	C	0.932174	0.171320	0.453884
C45	C	0.989115	0.114406	0.407786
C46	C	0.989123	0.114407	0.592164
C47	C	0.989126	0.114405	0.692120
C48	C	0.989111	0.114406	0.307824
H49	H	0.400274	0.241462	0.059461
Cl50	Cl	0.555702	0.263403	-0.092300
Cl51	Cl	0.839681	-0.452519	0.091455
H52	H	1.000507	-0.457829	0.146192
H53	H	0.862003	-0.297359	0.060030
H54	H	0.575159	0.000967	0.083790
H55	H	1.100657	-0.471793	0.087462
Cl56	Cl	1.117631	-0.014060	0.395924
Cl57	Cl	1.141052	-0.321109	0.088403
H58	H	0.418093	0.098644	-0.145853
Cl59	Cl	0.989123	-0.471577	-0.180745
H60	H	0.859501	-0.440444	-0.060328
H61	H	0.432376	-0.000719	-0.086370
H62	H	0.862249	-0.296801	-0.059974
H63	H	1.092417	0.011146	0.583581
Cl64	Cl	0.860587	0.242870	0.395943
H65	H	1.002307	-0.315688	-0.145851
Cl66	Cl	0.860604	0.242872	0.604028
H67	H	0.543916	0.244233	0.059822
H68	H	0.400896	0.241310	-0.060542
H69	H	0.563874	0.098603	0.146272
H70	H	1.004372	-0.314511	0.145842
H71	H	1.103026	-0.327594	-0.089037
H72	H	0.419090	0.101640	0.145833
Cl73	Cl	0.422749	-0.036043	0.092252
Cl74	Cl	0.592940	-0.033965	-0.089070
Cl75	Cl	0.571401	0.120361	-0.180266
Cl76	Cl	1.139558	-0.488945	-0.083755
