data_functionalizedCrystal
_audit_creation_method	'MofGen! by Chris Wilmer'
_symmetry_space_group_name_H-M	'P1'
_symmetry_Int_Tables_number	1
_symmetry_cell_setting	triclinic
loop_
_symmetry_equiv_pos_as_xyz
  x,y,z
_cell_length_a	16.994747
_cell_length_b	19.077105
_cell_length_c	19.076919
_cell_angle_alpha	89.923776
_cell_angle_beta	92.295001
_cell_angle_gamma	92.291653
loop_
_atom_site_label
_atom_site_type_symbol
_atom_site_fract_x
_atom_site_fract_y
_atom_site_fract_z
Zn1	Zn	0.381612	1.058344	0.440556
Zn2	Zn	0.508442	1.063009	0.323095
Zn3	Zn	0.371045	0.945560	0.318345
Zn4	Zn	0.507966	0.940831	0.435847
O5	O	0.442266	1.001936	0.379461
O6	O	0.403058	1.157296	0.428932
O7	O	0.485993	1.051361	0.224132
O8	O	0.262066	0.960549	0.334540
O9	O	0.496239	1.160723	0.342634
O10	O	0.269830	1.043411	0.424327
O11	O	0.385048	0.965072	0.220642
O12	O	0.384587	0.846600	0.329974
O13	O	0.495428	0.952488	0.534805
O14	O	0.485182	0.843125	0.416302
O15	O	0.402596	1.038824	0.538264
O16	O	0.618759	1.046775	0.338069
O17	O	0.618410	0.957011	0.420907
C18	C	0.433687	0.819366	0.372112
C19	C	0.430036	0.741261	0.368985
C20	C	0.480768	0.702780	0.412392
C21	C	0.477328	0.629392	0.409457
C22	C	0.423158	0.594487	0.363111
C23	C	0.372420	0.632974	0.319703
C24	C	0.375857	0.706360	0.322642
C25	C	0.407250	0.375196	0.349513
C26	C	0.403818	0.301805	0.346576
C27	C	0.508725	0.298228	0.436331
C28	C	0.512161	0.371616	0.439263
C29	C	0.461420	0.410096	0.395857
N30	N	0.419642	0.519473	0.360109
N31	N	0.464934	0.485109	0.398864
C32	C	0.647206	1.001894	0.379491
C33	C	0.736528	1.001899	0.379489
C34	C	0.236527	1.001982	0.379427
C35	C	0.147205	1.002004	0.379413
Zn36	Zn	1.002132	0.945581	0.318326
Zn37	Zn	1.012677	1.058377	0.440526
Zn38	Zn	0.875359	0.940855	0.435836
Zn39	Zn	0.875697	1.063023	0.323072
O40	O	0.941466	1.001959	0.379440
O41	O	1.113912	0.960577	0.334513
O42	O	0.998734	1.038865	0.538237
O43	O	0.887621	0.843149	0.416300
O44	O	1.121660	1.043448	0.424292
O45	O	0.980760	0.846621	0.329965
O46	O	0.897847	0.952522	0.534792
O47	O	0.765022	0.957027	0.420902
O48	O	0.888196	1.051366	0.224110
O49	O	0.765270	1.046783	0.338054
O50	O	0.981088	0.965082	0.220623
O51	O	0.999061	1.157326	0.428894
O52	O	0.898422	1.160739	0.342602
C53	C	0.450138	0.994608	0.562744
C54	C	0.453492	0.991485	0.640848
C55	C	0.450880	1.185219	0.386838
C56	C	0.454551	1.263323	0.389982
C57	C	0.434370	1.009276	0.196892
C58	C	0.430800	1.012535	0.118794
C59	C	0.406738	1.034967	0.679344
C60	C	0.409886	1.032024	0.752731
C61	C	0.459794	0.985603	0.787621
C62	C	0.506550	0.942117	0.749120
C63	C	0.503397	0.945056	0.675734
C64	C	0.474403	0.971988	1.006907
C65	C	0.477554	0.969053	1.080298
C66	C	0.380889	1.058960	1.083904
C67	C	0.377744	1.061899	1.010517
C68	C	0.424497	1.018410	0.972022
N69	N	0.463015	0.982596	0.862634
N70	N	0.421271	1.021414	0.897010
C71	C	0.949925	1.184529	0.386774
C72	C	0.953567	1.262633	0.389932
C73	C	0.933503	1.009269	0.196157
C74	C	0.930110	1.012385	0.118052
C75	C	0.932977	0.818675	0.372080
C76	C	0.929359	0.740571	0.368943
C77	C	0.949440	0.994627	0.562009
C78	C	0.952975	0.991315	0.640105
C79	C	1.007720	1.297515	0.436305
C80	C	1.011157	1.370902	0.439273
C81	C	0.960438	1.409405	0.395869
C82	C	0.906283	1.374518	0.349490
C83	C	0.902850	1.301133	0.346520
C84	C	0.976880	0.968919	0.079554
C85	C	0.973691	0.971832	0.006166
C86	C	0.923736	1.018215	-0.028723
C87	C	0.876961	1.061683	0.009781
C88	C	0.880146	1.058765	0.083167
C89	C	0.879161	0.702081	0.412420
C90	C	0.875747	0.628693	0.409473
C91	C	0.922535	0.593797	0.363053
C92	C	0.972735	0.632293	0.319571
C93	C	0.976145	0.705679	0.322515
C94	C	0.901757	0.945130	0.674969
C95	C	0.905077	0.942005	0.748348
C96	C	0.959612	0.985070	0.786863
C97	C	1.010836	1.031258	0.751994
C98	C	1.007519	1.034378	0.678616
H99	H	0.524882	0.731194	0.450129
Br100	Br	0.807616	0.576464	0.468491
Br101	Br	0.829345	1.253802	0.283582
Br102	Br	0.298896	0.585604	0.256811
H103	H	0.366100	1.072771	0.650942
Br104	Br	0.545288	0.906046	1.127649
Br105	Br	1.036229	0.584923	0.256576
H106	H	1.017561	0.931148	0.107950
H107	H	1.055256	1.399296	0.477042
Br108	Br	0.585684	0.418982	0.502159
H109	H	0.842062	1.094164	0.114507
Br110	Br	1.076561	1.245277	0.495219
Br111	Br	0.965109	1.509000	0.399909
H112	H	0.962303	0.982522	0.846611
Br113	Br	0.917897	0.494200	0.359066
Br114	Br	1.044275	0.757907	0.263502
H115	H	0.864990	1.405878	0.314153
H116	H	1.049225	1.071993	0.650236
Br117	Br	1.037178	0.912837	-0.046073
H118	H	0.921151	1.020584	-0.088479
H119	H	0.836289	1.099447	-0.018637
Br120	Br	0.815655	0.749422	0.475426
Br121	Br	0.827736	0.886677	0.622716
H122	H	0.359698	0.273387	0.308840
Br123	Br	0.835558	0.879313	0.795654
H124	H	0.550035	0.266889	0.471671
H125	H	0.365939	0.406519	0.314163
Br126	Br	1.084844	1.089699	0.804274
H127	H	0.518640	0.598063	0.444803
H128	H	0.371816	1.067433	0.784071
Br129	Br	0.310012	1.124904	0.963171
Br130	Br	0.306999	0.758587	0.263734
Br131	Br	0.317440	1.117976	1.136150
H132	H	0.547183	0.904317	0.777533
Br133	Br	0.566847	0.886039	0.623488
Br134	Br	0.537853	0.912966	0.954673
