data_functionalizedCrystal
_audit_creation_method	'MofGen! by Chris Wilmer'
_symmetry_space_group_name_H-M	'P1'
_symmetry_Int_Tables_number	1
_symmetry_cell_setting	triclinic
loop_
_symmetry_equiv_pos_as_xyz
  x,y,z
_cell_length_a	17.699077
_cell_length_b	10.654550
_cell_length_c	16.776229
_cell_angle_alpha	89.992724
_cell_angle_beta	90.003019
_cell_angle_gamma	83.882740
loop_
_atom_site_label
_atom_site_type_symbol
_atom_site_fract_x
_atom_site_fract_y
_atom_site_fract_z
O1	O	1.005088	0.158750	0.066276
O2	O	0.784841	0.179419	0.066279
O3	O	0.900028	-0.013743	0.066274
O4	O	0.889901	0.351913	0.066280
O5	O	0.900018	-0.013710	-0.066302
O6	O	0.784830	0.179453	-0.066297
O7	O	1.005078	0.158784	-0.066301
Zn8	Zn	0.894952	0.169124	-0.087348
Zn9	Zn	0.894966	0.169079	0.087327
O10	O	0.889890	0.351947	-0.066296
C11	C	0.756634	0.178697	-0.000008
C12	C	0.672601	0.176479	-0.000007
C13	C	0.633121	0.175452	-0.072275
C14	C	0.554165	0.173348	-0.072276
C15	C	0.514690	0.172280	-0.000008
C16	C	0.554176	0.173303	0.072266
C17	C	0.633131	0.175398	0.072266
C18	C	0.235759	0.164852	0.072267
C19	C	0.156798	0.162760	0.072262
C20	C	0.156793	0.162802	-0.072275
C21	C	0.235748	0.164897	-0.072275
C22	C	0.275228	0.165913	-0.000002
C23	C	0.360841	0.168192	-0.000001
C24	C	0.429078	0.170009	-0.000007
C25	C	0.899279	-0.060511	-0.000013
C26	C	0.897055	-0.199916	-0.000010
C27	C	0.964875	-0.280591	-0.000014
C28	C	0.962780	-0.411575	-0.000008
C29	C	0.825038	-0.381196	0.000001
C30	C	0.827134	-0.250214	0.000001
C31	C	1.034796	-0.230292	-0.000025
C32	C	1.102623	-0.310969	-0.000030
C33	C	1.100527	-0.441953	-0.000024
C34	C	1.030606	-0.492261	-0.000014
C35	C	1.033285	0.159506	-0.000011
C36	C	1.117317	0.161724	-0.000008
C37	C	0.890639	0.398715	-0.000007
C38	C	0.892864	0.538119	-0.000005
N39	N	0.894948	0.169153	-0.206560
C40	C	0.848675	0.092982	-0.751732
C41	C	0.848673	0.092992	-0.668280
C42	C	0.894969	0.169069	-0.626559
C43	C	0.941276	0.245130	-0.668295
C44	C	0.941281	0.245112	-0.751745
C45	C	0.941257	0.245204	-0.331748
C46	C	0.941246	0.245219	-0.248291
C47	C	0.848648	0.093085	-0.248282
C48	C	0.848654	0.093066	-0.331733
C49	C	0.894963	0.169122	-0.373461
C50	C	0.894965	0.169108	-0.463949
C51	C	0.894963	0.169091	-0.536072
N52	N	0.894976	0.169040	0.206538
H53	H	0.267885	0.165773	-0.131123
O54	O	0.761304	-0.171713	-0.000104
C55	C	0.758379	-0.095044	-0.068776
H56	H	0.818486	-0.088606	-0.091671
H57	H	0.723578	-0.138014	-0.116854
C58	C	0.647175	0.030149	-0.019794
C59	C	0.721000	0.038064	-0.047910
H60	H	0.624116	0.112255	-0.006925
H61	H	0.649144	-0.021507	0.026470
H62	H	0.618184	-0.005664	-0.059864
H63	H	0.749992	0.073862	-0.007837
H64	H	0.719036	0.089730	-0.094167
H65	H	1.036510	-0.123640	-0.000032
H66	H	0.810972	0.031055	-0.634307
H67	H	0.978975	0.307067	-0.634319
O68	O	1.170605	-0.262315	0.000001
C69	C	1.230016	-0.361613	-0.000017
H70	H	1.208334	-0.450532	0.025085
H71	H	1.250965	-0.380204	-0.063620
C72	C	1.322536	-0.215641	0.021143
C73	C	1.295907	-0.324850	0.051980
H74	H	1.363182	-0.192964	0.053213
H75	H	1.282510	-0.148741	0.021152
H76	H	1.339988	-0.231148	-0.031859
H77	H	1.278447	-0.309337	0.104977
H78	H	1.335931	-0.391748	0.051981
O79	O	0.803662	0.019049	-0.372138
C80	C	0.762779	-0.048062	-0.317413
H81	H	0.794063	-0.055446	-0.257919
H82	H	0.703641	0.003797	-0.308555
C83	C	0.717321	-0.172382	-0.423035
C84	C	0.755749	-0.181460	-0.349966
H85	H	0.712981	-0.254666	-0.443116
H86	H	0.744863	-0.127165	-0.459905
H87	H	0.668044	-0.129161	-0.415644
H88	H	0.805028	-0.224666	-0.357360
H89	H	0.728215	-0.226687	-0.313098
O90	O	0.274048	0.166067	0.142493
C91	C	0.246736	0.274246	0.186469
H92	H	0.219442	0.349674	0.144182
H93	H	0.202712	0.248440	0.231522
C94	C	0.346767	0.232741	0.282703
C95	C	0.313249	0.325387	0.230765
H96	H	0.387793	0.264285	0.310031
H97	H	0.365166	0.159856	0.253078
H98	H	0.310072	0.211244	0.320241
H99	H	0.349940	0.346870	0.193223
H100	H	0.294857	0.398277	0.260385
O101	O	0.986279	0.319112	-0.792161
C102	C	1.027155	0.386240	-0.737445
H103	H	0.995858	0.393655	-0.677964
H104	H	1.086288	0.334376	-0.728552
C105	C	1.072642	0.510506	-0.843093
C106	C	1.034199	0.519622	-0.770039
H107	H	1.076991	0.592779	-0.863200
H108	H	1.045106	0.465277	-0.879957
H109	H	1.121916	0.467280	-0.835673
H110	H	0.984923	0.562832	-0.777463
H111	H	1.061728	0.564860	-0.733177
H112	H	0.810971	0.031038	-0.785695
H113	H	0.810943	0.031153	-0.214297
O114	O	0.757186	-0.430270	-0.000030
C115	C	0.769880	-0.563178	-0.000013
H116	H	0.828780	-0.594112	-0.025114
H117	H	0.766026	-0.599644	0.063591
C118	C	0.637045	-0.579318	-0.021175
C119	C	0.709385	-0.617312	-0.052011
H120	H	0.599727	-0.612712	-0.053246
H121	H	0.628492	-0.489775	-0.021184
H122	H	0.633845	-0.609709	0.031827
H123	H	0.712587	-0.586907	-0.105008
H124	H	0.717937	-0.706851	-0.052012
O125	O	0.118380	0.161544	0.142417
C126	C	0.080728	0.051600	0.146738
H127	H	0.071567	0.015066	0.083987
H128	H	0.116761	-0.023739	0.182399
C129	C	0.014548	0.127494	0.265125
C130	C	0.003291	0.082629	0.188052
H131	H	-0.033217	0.146632	0.290612
H132	H	0.039917	0.201564	0.262216
H133	H	0.044578	0.064705	0.294832
H134	H	-0.026730	0.145424	0.158344
H135	H	-0.022085	0.008571	0.190958
O136	O	0.986296	0.319151	-0.207886
C137	C	1.027158	0.386299	-0.262610
H138	H	1.031310	0.334291	-0.322088
H139	H	0.996502	0.484942	-0.271505
C140	C	1.102502	0.460524	-0.156973
C141	C	1.107606	0.396642	-0.230024
H142	H	1.152124	0.466911	-0.136872
H143	H	1.074970	0.415290	-0.120103
H144	H	1.076951	0.542721	-0.164396
H145	H	1.133147	0.314443	-0.222598
H146	H	1.135144	0.441863	-0.266891
O147	O	0.515883	0.172048	0.142490
C148	C	0.543196	0.063849	0.186466
H149	H	0.570489	-0.011560	0.144181
H150	H	0.587222	0.089632	0.231525
C151	C	0.443168	0.105311	0.282690
C152	C	0.476684	0.012689	0.230754
H153	H	0.402142	0.073756	0.310012
H154	H	0.424768	0.178210	0.253065
H155	H	0.479864	0.126790	0.320232
H156	H	0.439991	-0.008776	0.193207
H157	H	0.495076	-0.060215	0.260374
O158	O	0.986325	0.318899	-0.372308
C159	C	1.037562	0.242210	-0.420571
H160	H	1.045161	0.142266	-0.395409
H161	H	1.014178	0.240133	-0.483823
C162	C	1.105524	0.419007	-0.452742
C163	C	1.114861	0.296256	-0.421834
H164	H	1.153205	0.452346	-0.453525
H165	H	1.071003	0.470675	-0.420229
H166	H	1.086035	0.417259	-0.505450
H167	H	1.134341	0.298007	-0.369125
H168	H	1.149388	0.244588	-0.454339
H169	H	0.522026	0.172491	-0.131124
H170	H	1.155755	-0.507637	-0.000019
H171	H	1.028906	-0.598918	-0.000001
O172	O	0.671435	0.176626	0.142487
C173	C	0.644127	0.284806	0.186464
H174	H	0.616822	0.360229	0.144180
H175	H	0.600111	0.258999	0.231527
C176	C	0.744175	0.243317	0.282680
C177	C	0.710645	0.335957	0.230745
H178	H	0.785205	0.274867	0.309998
H179	H	0.762572	0.170431	0.253055
H180	H	0.707488	0.221820	0.320226
H181	H	0.747329	0.357441	0.193195
H182	H	0.692256	0.408848	0.260366
H183	H	0.665256	0.176332	-0.131125
H184	H	0.124640	0.161968	-0.131124
