data_functionalizedCrystal
_audit_creation_method	'MofGen! by Chris Wilmer'
_symmetry_space_group_name_H-M	'P1'
_symmetry_Int_Tables_number	1
_symmetry_cell_setting	triclinic
loop_
_symmetry_equiv_pos_as_xyz
  x,y,z
_cell_length_a	16.625548
_cell_length_b	12.759399
_cell_length_c	12.759393
_cell_angle_alpha	90.027929
_cell_angle_beta	89.978375
_cell_angle_gamma	89.984682
loop_
_atom_site_label
_atom_site_type_symbol
_atom_site_fract_x
_atom_site_fract_y
_atom_site_fract_z
Zn1	Zn	1.232735	0.418174	-0.594097
Zn2	Zn	1.232655	0.593893	-0.418429
Zn3	Zn	1.097894	0.418232	-0.418427
Zn4	Zn	1.097887	0.593815	-0.594060
O5	O	1.165293	0.506028	-0.506253
O6	O	1.345557	0.441492	-0.570811
O7	O	1.214748	0.570648	-0.271407
O8	O	1.115818	0.271203	-0.441745
O9	O	1.345498	0.570592	-0.441748
O10	O	1.214885	0.271160	-0.570809
O11	O	1.115740	0.441591	-0.271406
O12	O	0.985061	0.441515	-0.441709
O13	O	1.115805	0.570458	-0.741086
O14	O	0.985055	0.570515	-0.570746
O15	O	1.214877	0.441416	-0.741113
O16	O	1.214741	0.740904	-0.441712
O17	O	1.115727	0.740846	-0.570748
C18	C	0.955802	0.506013	-0.506224
C19	C	0.866181	0.506032	-0.506236
C20	C	1.165246	0.778996	-0.506249
C21	C	1.165300	0.895772	-0.506282
C22	C	1.165349	0.505922	-0.780287
C23	C	1.165373	0.505877	-0.897063
C24	C	0.538005	0.506039	-0.506281
C25	C	0.629314	0.506034	-0.506265
C26	C	0.702090	0.506036	-0.506258
C27	C	0.793404	0.506030	-0.506244
C28	C	1.375602	0.506044	-0.506283
C29	C	1.465223	0.506051	-0.506296
C30	C	1.216916	0.950629	-0.439173
C31	C	1.216969	1.060353	-0.439217
C32	C	1.113784	1.060354	-0.573480
C33	C	1.113735	0.950632	-0.573441
C34	C	1.312143	1.210230	-0.401844
C35	C	1.363752	1.265091	-0.334719
C36	C	1.376157	1.229553	-0.232206
C37	C	1.336942	1.139155	-0.196798
C38	C	1.285327	1.084300	-0.263918
C39	C	1.272937	1.119837	-0.366445
C40	C	1.018561	0.800752	-0.610803
C41	C	0.966941	0.745895	-0.677918
C42	C	0.954527	0.781432	-0.780432
C43	C	0.993729	0.871833	-0.815837
C44	C	1.045348	0.926690	-0.748722
C45	C	1.057763	0.891146	-0.646209
C46	C	1.165364	1.231995	-0.506299
C47	C	1.165402	1.115218	-0.506364
C48	C	1.113838	0.438664	-0.951924
C49	C	1.113857	0.438632	-1.061648
C50	C	1.216952	0.573027	-1.061641
C51	C	1.216929	0.573064	-0.951919
C52	C	1.018807	0.401034	-1.211592
C53	C	0.967279	0.333805	-1.266457
C54	C	0.954919	0.231302	-1.230860
C55	C	0.994098	0.196006	-1.140400
C56	C	1.045632	0.263229	-1.085541
C57	C	1.057977	0.365747	-1.121136
C58	C	1.311980	0.610651	-0.801973
C59	C	1.363519	0.677870	-0.747112
C60	C	1.375887	0.780376	-0.782707
C61	C	1.336721	0.815667	-0.873170
C62	C	1.285183	0.748449	-0.928031
C63	C	1.272813	0.645944	-0.892429
C64	C	1.165283	0.506058	-0.233286
C65	C	1.165415	0.505808	-0.116510
H66	H	1.258905	0.905965	-0.384490
H67	H	1.253400	1.010699	-0.235090
C68	C	1.432580	0.854314	-0.722361
H69	H	1.454137	0.818620	-0.663385
H70	H	1.475170	0.875851	-0.767077
H71	H	1.403398	0.914085	-0.699375
H72	H	0.935026	0.672282	-0.649086
C73	C	0.980540	0.083228	-1.101285
H74	H	0.944243	0.048245	-1.146917
H75	H	1.030394	0.046853	-1.100270
H76	H	0.958611	0.085008	-1.032542
C77	C	1.432929	1.289894	-0.158374
H78	H	1.454509	1.348815	-0.194143
H79	H	1.403807	1.312945	-0.098582
H80	H	1.475509	1.245149	-0.136865
C81	C	1.032201	0.761672	-0.498029
H82	H	1.001447	0.699990	-0.486549
H83	H	1.087626	0.746555	-0.488104
H84	H	1.015922	0.814365	-0.449853
C85	C	1.406585	0.639059	-0.647589
H86	H	1.391825	0.568389	-0.634231
H87	H	1.463133	0.643288	-0.657388
H88	H	1.391344	0.681555	-0.589735
C89	C	1.298506	1.249314	-0.514614
H90	H	1.262160	1.203691	-0.549524
H91	H	1.276621	1.318071	-0.512815
H92	H	1.348328	1.250276	-0.551081
C93	C	0.924178	0.372631	-1.365950
H94	H	0.938905	0.443316	-1.379285
H95	H	0.939402	0.330163	-1.423823
H96	H	0.867630	0.368379	-1.356112
C97	C	1.088474	1.026128	-0.787661
H98	H	1.120989	1.053711	-0.733005
H99	H	1.121368	1.009121	-0.846139
H100	H	1.049665	1.076908	-0.807844
C101	C	1.273667	0.646918	-1.121986
H102	H	1.266307	0.637262	-1.195190
H103	H	1.261848	0.717514	-1.103995
H104	H	1.327844	0.631543	-1.104010
C105	C	1.057058	1.120702	-0.647338
H106	H	1.064472	1.193906	-0.637743
H107	H	1.068818	1.102652	-0.717938
H108	H	1.002880	1.102789	-0.631881
C109	C	1.406893	1.364515	-0.373669
H110	H	1.392127	1.377815	-0.444344
H111	H	1.391735	1.422433	-0.331221
H112	H	1.463437	1.354624	-0.369482
H113	H	0.983622	0.900767	-0.899312
C114	C	1.350584	1.100072	-0.084029
H115	H	1.386945	1.145683	-0.049130
H116	H	1.300770	1.099106	-0.047554
H117	H	1.372473	1.031311	-0.085837
C118	C	0.897745	0.721090	-0.854257
H119	H	0.876173	0.662160	-0.818494
H120	H	0.855170	0.765832	-0.875769
H121	H	0.926872	0.698035	-0.914049
H122	H	1.301892	0.527194	-0.772962
H123	H	1.071858	0.383956	-0.907264
H124	H	1.077535	0.234490	-1.011894
H125	H	0.912963	0.176563	-1.275539
C126	C	1.242095	0.787265	-1.027537
H127	H	1.209636	0.732548	-1.055115
H128	H	1.209151	0.845712	-1.010602
H129	H	1.280924	0.807462	-1.078294
C130	C	1.350324	0.928422	-0.912330
H131	H	1.386621	0.963403	-0.866697
H132	H	1.372257	0.926594	-0.981064
H133	H	1.300484	0.964840	-0.913370
C134	C	1.032394	0.513792	-1.250747
H135	H	1.001689	0.525173	-1.312484
H136	H	1.016053	0.561997	-1.198121
H137	H	1.087829	0.523762	-1.265816
