data_functionalizedCrystal
_audit_creation_method	'MofGen! by Chris Wilmer'
_symmetry_space_group_name_H-M	'P1'
_symmetry_Int_Tables_number	1
_symmetry_cell_setting	triclinic
loop_
_symmetry_equiv_pos_as_xyz
  x,y,z
_cell_length_a	19.121275
_cell_length_b	19.120786
_cell_length_c	18.101389
_cell_angle_alpha	87.539356
_cell_angle_beta	92.422663
_cell_angle_gamma	90.130801
loop_
_atom_site_label
_atom_site_type_symbol
_atom_site_fract_x
_atom_site_fract_y
_atom_site_fract_z
Zn1	Zn	1.059818	-0.324891	-0.356395
Zn2	Zn	1.054731	-0.442115	-0.227504
Zn3	Zn	0.942587	-0.319895	-0.238070
Zn4	Zn	0.937552	-0.437099	-0.356805
O5	O	0.998672	-0.381000	-0.294694
O6	O	1.157245	-0.344631	-0.334704
O7	O	1.039832	-0.425911	-0.125274
O8	O	0.962374	-0.222449	-0.258016
O9	O	1.153507	-0.430756	-0.240009
O10	O	1.048504	-0.226119	-0.344949
O11	O	0.957441	-0.336116	-0.133036
O12	O	0.843817	-0.331252	-0.258414
O13	O	0.953793	-0.422205	-0.460383
O14	O	0.840118	-0.417361	-0.345648
O15	O	1.043622	-0.339767	-0.460082
O16	O	1.034951	-0.539559	-0.240406
O17	O	0.948860	-0.535873	-0.335403
C18	C	0.816531	-0.373220	-0.303223
C19	C	0.738609	-0.369909	-0.306888
C20	C	0.700056	-0.413121	-0.259240
C21	C	0.626840	-0.410010	-0.262694
C22	C	0.592180	-0.363683	-0.313793
C23	C	0.630738	-0.320469	-0.361446
C24	C	0.703952	-0.323584	-0.357995
C25	C	0.371218	-0.352041	-0.326686
C26	C	0.297999	-0.348927	-0.330132
C27	C	0.294105	-0.438469	-0.231380
C28	C	0.367321	-0.441577	-0.227931
C29	C	0.405873	-0.398366	-0.275586
C30	C	0.517342	-0.360500	-0.317323
C31	C	0.480710	-0.401553	-0.272059
C32	C	0.990826	-0.563155	-0.286818
C33	C	0.987533	-0.641085	-0.283471
C34	C	1.030796	-0.679546	-0.327199
C35	C	1.027700	-0.752769	-0.324055
C36	C	0.981343	-0.787530	-0.277178
C37	C	0.938076	-0.749064	-0.233448
C38	C	0.941169	-0.675842	-0.236596
C39	C	0.969758	-1.008520	-0.265409
C40	C	0.966670	-1.081747	-0.262263
C41	C	1.056293	-1.085447	-0.352872
C42	C	1.059385	-1.012223	-0.356012
C43	C	1.016115	-0.973764	-0.312285
C44	C	0.978179	-0.862375	-0.273962
C45	C	1.019277	-0.898919	-0.315506
C46	C	1.181524	-0.388810	-0.286132
C47	C	1.259445	-0.392139	-0.282483
C48	C	0.998713	-0.380984	-0.487855
C49	C	0.998731	-0.380977	-0.570168
C50	C	1.006568	-0.198134	-0.302616
C51	C	1.009933	-0.120207	-0.305991
C52	C	0.998777	-0.380847	-0.869263
C53	C	0.942080	-0.432535	-0.838144
C54	C	0.942216	-0.432792	-0.752508
C55	C	0.998754	-0.380912	-0.720879
C56	C	1.071761	-0.404116	-0.747646
C57	C	1.071443	-0.404458	-0.833290
C58	C	0.983114	-0.305862	-0.841771
C59	C	0.981452	-0.306221	-0.756179
C60	C	0.998745	-0.380947	-0.637018
C61	C	0.998791	-0.380814	-0.953124
C62	C	0.998673	-0.380967	-0.102285
C63	C	0.998800	-0.380782	-0.019974
H64	H	0.735342	-0.288396	-0.396795
H65	H	0.402598	-0.316856	-0.365491
Cl66	Cl	1.077547	-0.855218	-0.374439
Cl67	Cl	0.473762	-0.302263	-0.381561
H68	H	0.940437	-0.890686	-0.235792
H69	H	0.395536	-0.479300	-0.186320
Cl70	Cl	0.587165	-0.262235	-0.425691
Cl71	Cl	1.089080	-0.635854	-0.386129
Cl72	Cl	0.858479	-0.409807	-0.724844
H73	H	0.262708	-0.473650	-0.192583
Cl74	Cl	0.902603	-0.274168	-0.880153
H75	H	0.952056	-0.487711	-0.856735
Cl76	Cl	1.082081	-0.801116	-0.379042
Cl77	Cl	0.743621	-0.471362	-0.194997
Cl78	Cl	0.886778	-0.627491	-0.181622
Cl79	Cl	0.858075	-0.409739	-0.874736
Cl80	Cl	0.254427	-0.290679	-0.394371
Cl81	Cl	0.524284	-0.459792	-0.207825
Cl82	Cl	1.040953	-0.243215	-0.723329
Cl83	Cl	0.879792	-0.792763	-0.174524
Cl84	Cl	1.110683	-1.133800	-0.407843
Cl85	Cl	1.117663	-0.968529	-0.414947
Cl86	Cl	0.908391	-1.125445	-0.203324
H87	H	0.595453	-0.445197	-0.223894
Cl88	Cl	0.915355	-0.960179	-0.210444
Cl89	Cl	1.093298	-0.488020	-0.709794
Cl90	Cl	1.046929	-0.246345	-0.872875
H91	H	0.952302	-0.488308	-0.729070
Cl92	Cl	1.092511	-0.489233	-0.859378
H93	H	1.114949	-0.368616	-0.853681
H94	H	0.927741	-0.288779	-0.739055
Cl95	Cl	1.138525	-0.348034	-0.715750
