data_functionalizedCrystal
_audit_creation_method	'MofGen! by Chris Wilmer'
_symmetry_space_group_name_H-M	'P1'
_symmetry_Int_Tables_number	1
_symmetry_cell_setting	triclinic
loop_
_symmetry_equiv_pos_as_xyz
  x,y,z
_cell_length_a	18.101395
_cell_length_b	18.215407
_cell_length_c	18.215399
_cell_angle_alpha	90.020595
_cell_angle_beta	89.973573
_cell_angle_gamma	89.968975
loop_
_atom_site_label
_atom_site_type_symbol
_atom_site_fract_x
_atom_site_fract_y
_atom_site_fract_z
Zn1	Zn	-0.294839	-1.125040	-0.416139
Zn2	Zn	0.205161	-0.625040	0.083861
Zn3	Zn	-0.418685	-1.124935	-0.293076
Zn4	Zn	0.081315	-0.624935	0.206924
Zn5	Zn	-0.294862	-1.001973	-0.293084
Zn6	Zn	0.205138	-0.501973	0.206916
Zn7	Zn	-0.418643	-1.001925	-0.416099
Zn8	Zn	0.081357	-0.501925	0.083901
O9	O	-0.356757	-1.063468	-0.354599
O10	O	0.143243	-0.563468	0.145401
O11	O	-0.311275	-1.228010	-0.399827
O12	O	0.188725	-0.728010	0.100173
O13	O	-0.402287	-1.108600	-0.190092
O14	O	0.097713	-0.608600	0.309908
O15	O	-0.191226	-1.018362	-0.309428
O16	O	0.308774	-0.518362	0.190572
O17	O	-0.402265	-1.227933	-0.309413
O18	O	0.097735	-0.727933	0.190587
O19	O	-0.191209	-1.108779	-0.399835
O20	O	0.308791	-0.608779	0.100165
O21	O	-0.311315	-1.018260	-0.190099
O22	O	0.188685	-0.518260	0.309901
O23	O	-0.311274	-0.898982	-0.309390
O24	O	0.188726	-0.398982	0.190610
O25	O	-0.402193	-1.018281	-0.519088
O26	O	0.097807	-0.518281	-0.019088
O27	O	-0.402215	-0.898947	-0.399768
O28	O	0.097785	-0.398947	0.100232
O29	O	-0.311234	-1.108733	-0.519118
O30	O	0.188766	-0.608733	-0.019118
O31	O	-0.522312	-1.108554	-0.309375
O32	O	-0.022312	-0.608554	0.190625
O33	O	-0.522281	-1.018179	-0.399759
O34	O	-0.022281	-0.518179	0.100241
C35	C	-0.356743	-0.872262	-0.354576
C36	C	0.143257	-0.372262	0.145424
C37	C	-0.356754	-0.790463	-0.354583
C38	C	0.143246	-0.290463	0.145417
C39	C	-0.404180	-0.602270	-0.401581
C40	C	0.095820	-0.102270	0.098419
C41	C	-0.404182	-0.525412	-0.401590
C42	C	0.095818	-0.025412	0.098410
C43	C	-0.309338	-0.525418	-0.307620
C44	C	0.190662	-0.025418	0.192380
C45	C	-0.309333	-0.602276	-0.307616
C46	C	0.190667	-0.102276	0.192384
C47	C	-0.356759	-0.640700	-0.354596
C48	C	0.143241	-0.140700	0.145404
C49	C	-0.356765	-0.486984	-0.354608
C50	C	0.143235	0.013016	0.145392
C51	C	-0.356766	-0.403650	-0.354616
C52	C	0.143234	0.096350	0.145384
C53	C	-0.356756	-0.724039	-0.354588
C54	C	0.143244	-0.224039	0.145412
C55	C	-0.549168	-1.063370	-0.354578
C56	C	-0.049168	-0.563370	0.145422
C57	C	-0.631482	-1.063395	-0.354593
C58	C	-0.131482	-0.563395	0.145407
C59	C	-0.930573	-1.063557	-0.354633
C60	C	-0.430573	-0.563557	0.145367
C61	C	-0.899259	-1.006827	-0.411641
C62	C	-0.399259	-0.506827	0.088359
C63	C	-0.813641	-1.006557	-0.411463
C64	C	-0.313641	-0.506557	0.088537
C65	C	-0.782190	-1.063476	-0.354614
C66	C	-0.282190	-0.563476	0.145386
C67	C	-0.813340	-1.042479	-0.277052
C68	C	-0.313340	-0.542479	0.222948
C69	C	-0.898986	-1.042113	-0.277393
C70	C	-0.398986	-0.542113	0.222607
C71	C	-0.898917	-1.141408	-0.374503
C72	C	-0.398917	-0.641408	0.125497
C73	C	-0.813266	-1.140950	-0.376204
C74	C	-0.313266	-0.640950	0.123796
C75	C	-0.698331	-1.063432	-0.354598
C76	C	-0.198331	-0.563432	0.145402
C77	C	-1.014432	-1.063599	-0.354643
C78	C	-0.514432	-0.563599	0.145357
C79	C	-0.163595	-1.063587	-0.354637
C80	C	0.336405	-0.563587	0.145363
C81	C	-0.081281	-1.063638	-0.354653
C82	C	0.418719	-0.563638	0.145347
C83	C	-0.356706	-1.063513	-0.546552
C84	C	0.143294	-0.563513	-0.046552
C85	C	-0.356684	-1.063532	-0.628351
C86	C	0.143316	-0.563532	-0.128351
C87	C	-0.356770	-0.255421	-0.354620
C88	C	0.143230	0.244579	0.145380
C89	C	-0.356769	-0.337220	-0.354621
C90	C	0.143231	0.162780	0.145379
C91	C	-0.309278	-1.110648	-0.816562
C92	C	0.190722	-0.610648	-0.316562
C93	C	-0.309256	-1.110656	-0.893420
C94	C	0.190744	-0.610656	-0.393420
C95	C	-0.403976	-1.016469	-0.893379
C96	C	0.096024	-0.516469	-0.393379
C97	C	-0.403993	-1.016457	-0.816521
C98	C	0.096007	-0.516457	-0.316521
C99	C	-0.356645	-1.063551	-0.778115
C100	C	0.143355	-0.563551	-0.278115
C101	C	-0.356607	-1.063571	-0.931831
C102	C	0.143393	-0.563571	-0.431831
C103	C	-0.356584	-1.063580	-1.015165
C104	C	0.143416	-0.563580	-0.515165
C105	C	-0.356667	-1.063541	-0.694776
C106	C	0.143333	-0.563541	-0.194776
C107	C	-0.356755	-1.063466	-0.163393
C108	C	0.143245	-0.563466	0.336607
C109	C	-0.356568	-1.063590	-0.081595
C110	C	0.143432	-0.563590	0.418405
H111	H	-0.442795	-0.633553	-0.439837
H112	H	0.057205	-0.133553	0.060163
H113	H	-0.270722	-1.148992	-0.785293
H114	H	0.229278	-0.648992	-0.285293
H115	H	-0.442796	-0.494126	-0.439851
H116	H	0.057204	0.005874	0.060149
N117	N	-0.786510	-0.971847	-0.255548
N118	N	-0.286510	-0.471847	0.244452
N119	N	-0.718596	-0.961089	-0.249439
N120	N	-0.218596	-0.461089	0.250561
H121	H	-0.699647	-0.911204	-0.234254
H122	H	-0.199647	-0.411204	0.265746
H123	H	-0.442527	-0.978129	-0.924659
H124	H	0.057473	-0.478129	-0.424659
H125	H	-0.270684	-1.149006	-0.924721
H126	H	0.229316	-0.649006	-0.424721
H127	H	-0.442565	-0.978100	-0.785217
H128	H	0.057435	-0.478100	-0.285217
N129	N	-0.788025	-0.934164	-0.394954
N130	N	-0.288025	-0.434164	0.105046
N131	N	-0.833400	-0.883682	-0.383522
N132	N	-0.333400	-0.383682	0.116478
H133	H	-0.815311	-0.832550	-0.371861
H134	H	-0.315311	-0.332550	0.128139
N135	N	-0.260902	-0.486156	-0.259639
N136	N	0.239098	0.013844	0.240361
N137	N	-0.260912	-0.417534	-0.259648
N138	N	0.239088	0.082466	0.240352
H139	H	-0.226703	-0.389805	-0.225759
H140	H	0.273297	0.110195	0.274241
H141	H	-0.792578	-1.019695	-0.468974
H142	H	-0.292578	-0.519695	0.031026
N143	N	-0.260880	-0.641524	-0.259619
N144	N	0.239120	-0.141524	0.240381
N145	N	-0.218543	-0.607210	-0.217675
N146	N	0.281457	-0.107210	0.282325
H147	H	-0.184322	-0.634929	-0.183781
H148	H	0.315678	-0.134929	0.316219
H149	H	-0.920845	-0.949472	-0.398645
H150	H	-0.420845	-0.449472	0.101355
N151	N	-0.924988	-1.023187	-0.484030
N152	N	-0.424988	-0.523187	0.015970
N153	N	-0.966710	-1.076843	-0.494452
N154	N	-0.466710	-0.576843	0.005548
H155	H	-0.984868	-1.088413	-0.545582
H156	H	-0.484868	-0.588413	-0.045582
N157	N	-0.924123	-0.970721	-0.256273
N158	N	-0.424123	-0.470721	0.243727
N159	N	-0.878413	-0.921512	-0.241385
N160	N	-0.378413	-0.421512	0.258615
H161	H	-0.896162	-0.871089	-0.226468
H162	H	-0.396162	-0.371089	0.273532
H163	H	-0.919702	-1.081640	-0.233469
H164	H	-0.419702	-0.581640	0.266531
H165	H	-0.792969	-1.082498	-0.233418
H166	H	-0.292969	-0.582498	0.266582
H167	H	-0.920466	-1.160552	-0.430096
H168	H	-0.420466	-0.660552	0.069904
N169	N	-0.787719	-1.160809	-0.447811
N170	N	-0.287719	-0.660809	0.052189
N171	N	-0.746775	-1.118103	-0.482855
N172	N	-0.246775	-0.618103	0.017145
H173	H	-0.728730	-1.132125	-0.533430
H174	H	-0.228730	-0.632125	-0.033430
H175	H	-0.919166	-1.183674	-0.332981
H176	H	-0.419166	-0.683674	0.167019
N177	N	-0.786403	-1.196773	-0.327905
N178	N	-0.286403	-0.696773	0.172095
N179	N	-0.743731	-1.180293	-0.276554
N180	N	-0.243731	-0.680293	0.223446
H181	H	-0.724761	-1.219715	-0.242435
H182	H	-0.224761	-0.719715	0.257565
