data_functionalizedCrystal
_audit_creation_method	'MofGen! by Chris Wilmer'
_symmetry_space_group_name_H-M	'P1'
_symmetry_Int_Tables_number	1
_symmetry_cell_setting	triclinic
loop_
_symmetry_equiv_pos_as_xyz
  x,y,z
_cell_length_a	11.169417
_cell_length_b	12.827892
_cell_length_c	11.169409
_cell_angle_alpha	90.033086
_cell_angle_beta	90.019824
_cell_angle_gamma	90.016270
loop_
_atom_site_label
_atom_site_type_symbol
_atom_site_fract_x
_atom_site_fract_y
_atom_site_fract_z
Zn1	Zn	1.834920	-0.415924	0.678536
Zn2	Zn	2.084920	-0.165924	0.928536
Zn3	Zn	2.334920	0.084076	1.178536
Zn4	Zn	2.584920	0.334076	1.428536
Zn5	Zn	1.834792	-0.590711	0.477851
Zn6	Zn	2.084792	-0.340711	0.727851
Zn7	Zn	2.334792	-0.090711	0.977851
Zn8	Zn	2.584792	0.159289	1.227851
Zn9	Zn	1.634206	-0.415988	0.477871
Zn10	Zn	1.884206	-0.165988	0.727871
Zn11	Zn	2.134206	0.084012	0.977871
Zn12	Zn	2.384206	0.334012	1.227871
Zn13	Zn	1.634196	-0.590626	0.678496
Zn14	Zn	1.884196	-0.340626	0.928496
Zn15	Zn	2.134196	-0.090626	1.178496
Zn16	Zn	2.384196	0.159374	1.428496
O17	O	1.734528	-0.503312	0.578188
O18	O	1.984528	-0.253312	0.828188
O19	O	2.234528	-0.003312	1.078188
O20	O	2.484528	0.246688	1.328188
O21	O	2.002853	-0.439119	0.651924
O22	O	2.252853	-0.189119	0.901924
O23	O	2.502853	0.060881	1.151924
O24	O	2.752853	0.310881	1.401924
O25	O	1.808134	-0.567596	0.309904
O26	O	2.058134	-0.317596	0.559904
O27	O	2.308134	-0.067596	0.809904
O28	O	2.558134	0.182404	1.059904
O29	O	1.660889	-0.269743	0.504515
O30	O	1.910889	-0.019743	0.754515
O31	O	2.160889	0.230257	1.004515
O32	O	2.410889	0.480257	1.254515
O33	O	2.002759	-0.567534	0.504481
O34	O	2.252759	-0.317534	0.754481
O35	O	2.502759	-0.067534	1.004481
O36	O	2.752759	0.182466	1.254481
O37	O	1.808353	-0.269696	0.651943
O38	O	2.058353	-0.019696	0.901943
O39	O	2.308353	0.230304	1.151943
O40	O	2.558353	0.480304	1.401943
O41	O	1.660765	-0.439227	0.309918
O42	O	1.910765	-0.189227	0.559918
O43	O	2.160765	0.060773	0.809918
O44	O	2.410765	0.310773	1.059918
O45	O	1.466255	-0.439145	0.504475
O46	O	1.716255	-0.189145	0.754475
O47	O	1.966255	0.060855	1.004475
O48	O	2.216255	0.310855	1.254475
O49	O	1.660872	-0.567389	0.846451
O50	O	1.910872	-0.317389	1.096451
O51	O	2.160872	-0.067389	1.346451
O52	O	2.410872	0.182611	1.596451
O53	O	1.466248	-0.567451	0.651874
O54	O	1.716248	-0.317451	0.901874
O55	O	1.966248	-0.067451	1.151874
O56	O	2.216248	0.182549	1.401874
O57	O	1.808343	-0.439036	0.846481
O58	O	2.058343	-0.189036	1.096481
O59	O	2.308343	0.060964	1.346481
O60	O	2.558343	0.310964	1.596481
O61	O	1.808124	-0.736936	0.504441
O62	O	2.058124	-0.486936	0.754441
O63	O	2.308124	-0.236936	1.004441
O64	O	2.558124	0.013064	1.254441
O65	O	1.660747	-0.736874	0.651854
O66	O	1.910747	-0.486874	0.901854
O67	O	2.160747	-0.236874	1.151854
O68	O	2.410747	0.013126	1.401854
C69	C	1.422704	-0.503296	0.578173
C70	C	1.672704	-0.253296	0.828173
C71	C	1.922704	-0.003296	1.078173
C72	C	2.172704	0.246704	1.328173
C73	C	1.289304	-0.503315	0.578195
C74	C	1.539304	-0.253315	0.828195
C75	C	1.789304	-0.003315	1.078195
C76	C	2.039304	0.246685	1.328195
C77	C	1.734453	-0.774822	0.578167
C78	C	1.984453	-0.524822	0.828167
C79	C	2.234453	-0.274822	1.078167
C80	C	2.484453	-0.024822	1.328167
C81	C	1.734531	-0.890975	0.578198
C82	C	1.984531	-0.640975	0.828198
C83	C	2.234531	-0.390975	1.078198
C84	C	2.484531	-0.140975	1.328198
C85	C	1.807545	-0.942756	0.505335
C86	C	2.057545	-0.692756	0.755335
C87	C	2.307545	-0.442756	1.005335
C88	C	2.557545	-0.192756	1.255335
C89	C	1.807626	-1.062807	0.505365
C90	C	2.057626	-0.812807	0.755365
C91	C	2.307626	-0.562807	1.005365
C92	C	2.557626	-0.312807	1.255365
C93	C	2.047571	-0.503329	0.578205
C94	C	2.297571	-0.253329	0.828205
C95	C	2.547571	-0.003329	1.078205
C96	C	2.797571	0.246671	1.328205
C97	C	2.180971	-0.503336	0.578212
C98	C	2.430971	-0.253336	0.828212
C99	C	2.680971	-0.003336	1.078212
C100	C	2.930971	0.246664	1.328212
C101	C	1.734621	-0.503196	0.891231
C102	C	1.984621	-0.253196	1.141231
C103	C	2.234621	-0.003196	1.391231
C104	C	2.484621	0.246804	1.641231
C105	C	1.734660	-0.503147	1.024631
C106	C	1.984660	-0.253147	1.274631
C107	C	2.234660	-0.003147	1.524631
C108	C	2.484660	0.246853	1.774631
C109	C	1.734637	-0.230742	0.578236
C110	C	1.984637	0.019258	0.828236
C111	C	2.234637	0.269258	1.078236
C112	C	2.484637	0.519258	1.328236
C113	C	1.734683	-0.114589	0.578256
C114	C	1.984683	0.135411	0.828256
C115	C	2.234683	0.385411	1.078256
C116	C	2.484683	0.635411	1.328256
C117	C	1.734506	-0.503352	0.266364
C118	C	1.984506	-0.253352	0.516364
C119	C	2.234506	-0.003352	0.766364
C120	C	2.484506	0.246648	1.016364
C121	C	1.734699	-0.503108	0.132964
C122	C	1.984699	-0.253108	0.382964
C123	C	2.234699	-0.003108	0.632964
C124	C	2.484699	0.246892	0.882964
H125	H	1.869999	-0.898214	0.442935
H126	H	2.119999	-0.648214	0.692935
H127	H	2.369999	-0.398214	0.942935
H128	H	2.619999	-0.148214	1.192935
H129	H	1.870133	-1.107337	0.442981
H130	H	2.120133	-0.857337	0.692981
H131	H	2.370133	-0.607337	0.942981
H132	H	2.620133	-0.357337	1.192981
H133	H	1.672165	-1.070066	0.640637
H134	H	1.922165	-0.820066	0.890637
H135	H	2.172165	-0.570066	1.140637
H136	H	2.422165	-0.320066	1.390637
C137	C	1.717988	-1.013754	0.739523
C138	C	1.967988	-0.763754	0.989523
C139	C	2.217988	-0.513754	1.239523
C140	C	2.467988	-0.263754	1.489523
C141	C	1.650224	-0.951100	0.662447
C142	C	1.900224	-0.701100	0.912447
C143	C	2.150224	-0.451100	1.162447
C144	C	2.400224	-0.201100	1.412447
H145	H	1.665936	-1.050874	0.791530
H146	H	1.915936	-0.800874	1.041530
H147	H	2.165936	-0.550874	1.291530
H148	H	2.415936	-0.300874	1.541530
H149	H	1.770168	-0.971099	0.785507
H150	H	2.020168	-0.721099	1.035507
H151	H	2.270168	-0.471099	1.285507
H152	H	2.520168	-0.221099	1.535507
H153	H	1.763803	-1.061791	0.693800
H154	H	2.013803	-0.811791	0.943800
H155	H	2.263803	-0.561791	1.193800
H156	H	2.513803	-0.311791	1.443800
H157	H	1.604415	-0.903057	0.708170
H158	H	1.854415	-0.653057	0.958170
H159	H	2.104415	-0.403057	1.208170
H160	H	2.354415	-0.153057	1.458170
H161	H	1.598023	-0.993759	0.616458
H162	H	1.848023	-0.743759	0.866458
H163	H	2.098023	-0.493759	1.116458
H164	H	2.348023	-0.243759	1.366458
