data_functionalizedCrystal
_audit_creation_method	'MofGen! by Chris Wilmer'
_symmetry_space_group_name_H-M	'P1'
_symmetry_Int_Tables_number	1
_symmetry_cell_setting	triclinic
loop_
_symmetry_equiv_pos_as_xyz
  x,y,z
_cell_length_a	10.654543
_cell_length_b	10.654550
_cell_length_c	9.130313
_cell_angle_alpha	89.997082
_cell_angle_beta	90.001014
_cell_angle_gamma	95.516448
loop_
_atom_site_label
_atom_site_type_symbol
_atom_site_fract_x
_atom_site_fract_y
_atom_site_fract_z
O1	O	-0.176399	1.667835	-0.121767
O2	O	-0.193205	1.302356	-0.121773
O3	O	-0.002063	1.493503	-0.121773
O4	O	-0.367542	1.476688	-0.121767
O5	O	-0.002057	1.493490	0.121825
O6	O	-0.193200	1.302343	0.121825
O7	O	-0.176394	1.667822	0.121832
Cu8	Cu	-0.184796	1.485081	0.144071
Cu9	Cu	-0.184803	1.485097	-0.144013
O10	O	-0.367537	1.476675	0.121832
C11	C	0.044738	1.492264	0.000022
C12	C	0.184182	1.488575	0.000010
C13	C	-0.177630	1.714627	0.000030
C14	C	-0.181322	1.854070	0.000023
C15	C	-0.191969	1.255552	0.000025
C16	C	-0.188277	1.116109	0.000022
C17	C	0.263668	1.601119	0.000006
C18	C	0.394689	1.597645	-0.000021
C19	C	0.366726	1.369075	-0.000034
C20	C	0.235707	1.372550	-0.000017
C21	C	0.585663	1.477921	0.000016
C22	C	0.446222	1.481627	-0.000033
N23	N	-0.184791	1.485080	0.346694
C24	C	-0.068781	1.933558	0.000016
C25	C	-0.072257	2.064579	0.000021
C26	C	-0.300827	2.036610	0.000034
C27	C	-0.297349	1.905592	0.000040
N28	N	-0.184798	1.485109	-0.346635
C29	C	-0.100189	1.569748	0.423345
C30	C	-0.100189	1.569760	0.576682
C31	C	-0.269405	1.400431	0.576702
C32	C	-0.269397	1.400414	0.423368
H33	H	0.221721	1.695594	0.000026
H34	H	-0.389000	1.840869	0.000051
F35	F	0.047526	2.149171	0.000018
H36	H	-0.338291	1.331460	0.360954
F37	F	-0.010140	1.659854	0.341749
H38	H	-0.031297	1.638704	0.639088
F39	F	0.479279	1.717430	-0.000028
H40	H	-0.338291	1.331500	0.639146
H41	H	0.408694	1.274611	-0.000053
H42	H	0.170986	1.280898	-0.000019
H43	H	0.025696	1.891613	0.000005
F44	F	-0.424305	2.091455	0.000040
