data_functionalizedCrystal
_audit_creation_method	'MofGen! by Chris Wilmer'
_symmetry_space_group_name_H-M	'P1'
_symmetry_Int_Tables_number	1
_symmetry_cell_setting	triclinic
loop_
_symmetry_equiv_pos_as_xyz
  x,y,z
_cell_length_a	18.627243
_cell_length_b	18.627245
_cell_length_c	18.627297
_cell_angle_alpha	90.002039
_cell_angle_beta	59.997824
_cell_angle_gamma	119.999685
loop_
_atom_site_label
_atom_site_type_symbol
_atom_site_fract_x
_atom_site_fract_y
_atom_site_fract_z
O1	O	0.633240	-0.492484	-0.021356
O2	O	0.486232	-0.388088	0.021256
O3	O	0.633235	-0.388087	-0.125751
O4	O	0.486237	-0.492485	0.125650
O5	O	0.513833	-0.507489	-0.125750
O6	O	0.366830	-0.507489	0.021256
O7	O	0.513838	-0.611886	-0.021356
Cu8	Cu	0.429432	-0.570590	-0.000050
Cu9	Cu	0.570639	-0.429384	-0.000050
O10	O	0.366835	-0.611886	0.125650
C11	C	0.356044	-0.256979	0.030935
C12	C	0.406443	-0.162282	0.024836
C13	C	0.269040	-0.300580	0.031539
C14	C	0.356039	-0.386983	0.030943
C15	C	0.406432	-0.431286	0.024852
C16	C	0.269035	-0.430386	0.031548
C17	C	0.226044	-0.386979	0.030935
C18	C	0.137446	-0.431279	0.024835
C19	C	0.398838	-0.300583	0.031548
O20	O	-0.104350	-0.611881	-0.021369
O21	O	0.104442	-0.507482	0.021239
O22	O	0.104453	-0.507489	-0.125766
O23	O	-0.104360	-0.611875	0.125635
O24	O	0.104457	-0.388084	-0.125773
O25	O	0.104446	-0.388078	0.021231
O26	O	-0.104345	-0.492477	-0.021377
Cu27	Cu	0.000051	-0.429375	-0.000073
Cu28	Cu	0.000046	-0.570584	-0.000065
O29	O	-0.104356	-0.492470	0.125628
C30	C	0.644032	-0.386986	-0.387050
C31	C	0.593636	-0.431285	-0.431350
C32	C	0.731038	-0.300587	-0.430453
C33	C	0.644032	-0.386986	-0.257049
C34	C	0.593635	-0.431287	-0.162352
C35	C	0.731037	-0.300588	-0.300650
C36	C	0.774032	-0.256986	-0.387049
C37	C	0.862632	-0.162290	-0.431348
C38	C	0.601235	-0.430390	-0.300651
C39	C	0.774046	-0.612982	-0.031065
C40	C	0.862649	-0.568681	-0.024971
C41	C	0.731054	-0.699380	-0.031674
C42	C	0.644041	-0.612985	-0.031058
C43	C	0.593641	-0.568686	-0.024957
C44	C	0.601246	-0.699383	-0.031667
C45	C	0.644046	-0.742983	-0.031064
C46	C	0.593651	-0.837679	-0.024969
C47	C	0.731049	-0.569580	-0.031668
O48	O	0.513853	0.125721	-0.021375
O49	O	0.366846	-0.125678	0.021232
O50	O	0.513856	0.021315	-0.125772
O51	O	0.366843	-0.021272	0.125629
O52	O	0.633253	0.021311	-0.125765
O53	O	0.486243	-0.125682	0.021240
O54	O	0.633250	0.125717	-0.021368
Cu55	Cu	0.570648	0.000017	-0.000063
Cu56	Cu	0.429448	0.000022	-0.000072
O57	O	0.486240	-0.021275	0.125637
O58	O	1.104430	0.125707	-0.492538
O59	O	0.895633	-0.125690	-0.388147
O60	O	0.895628	0.021307	-0.388137
O61	O	1.104435	-0.021290	-0.492548
O62	O	0.895631	0.021311	-0.507540
O63	O	0.895636	-0.125686	-0.507550
O64	O	1.104433	0.125711	-0.611941
Cu65	Cu	1.000035	0.000013	-0.570648
Cu66	Cu	1.000031	0.000008	-0.429440
O67	O	1.104438	-0.021286	-0.611951
O68	O	0.486231	-0.492490	-0.611948
O69	O	0.633235	-0.388087	-0.507553
O70	O	0.486230	-0.388090	-0.507544
O71	O	0.633237	-0.492487	-0.611956
O72	O	0.366830	-0.507490	-0.388142
O73	O	0.513836	-0.507487	-0.388151
O74	O	0.366832	-0.611890	-0.492545
Cu75	Cu	0.429431	-0.570591	-0.429446
Cu76	Cu	0.570636	-0.429386	-0.570653
O77	O	0.513837	-0.611887	-0.492554
C78	C	0.226037	-0.742989	0.386948
C79	C	0.137437	-0.837686	0.431246
C80	C	0.269030	-0.699389	0.430353
C81	C	0.356038	-0.612988	0.256949
C82	C	0.406435	-0.568687	0.162252
C83	C	0.398834	-0.569585	0.300552
C84	C	0.356036	-0.612990	0.386950
C85	C	0.406432	-0.568691	0.431252
C86	C	0.269032	-0.699387	0.300549
C87	C	0.356073	-0.256995	-0.387073
C88	C	0.406473	-0.162299	-0.431376
C89	C	0.398871	-0.300599	-0.430474
C90	C	0.226065	-0.386990	-0.257069
C91	C	0.137460	-0.431286	-0.162372
C92	C	0.269060	-0.430398	-0.300668
C93	C	0.356070	-0.386997	-0.387067
C94	C	0.406468	-0.431300	-0.431364
C95	C	0.269063	-0.300593	-0.300674
C96	C	-0.355975	-0.612964	0.386929
C97	C	-0.406373	-0.568662	0.431227
C98	C	-0.398774	-0.699362	0.430336
C99	C	-0.225968	-0.612970	0.256931
C100	C	-0.137363	-0.568673	0.162234
C101	C	-0.268966	-0.699367	0.300535
C102	C	-0.355976	-0.742966	0.386934
C103	C	-0.406376	-0.837662	0.431237
C104	C	-0.268964	-0.569563	0.300530
C105	C	0.774043	0.030962	-0.387056
C106	C	0.862639	0.024856	-0.431349
C107	C	0.731051	0.031564	-0.430463
C108	C	0.644049	0.030986	-0.257064
C109	C	0.593654	0.024905	-0.162369
C110	C	0.601253	0.031588	-0.300669
C111	C	0.644048	0.030966	-0.387064
C112	C	0.593653	0.024863	-0.431366
C113	C	0.731051	0.031584	-0.300660
O114	O	0.633303	0.125701	-0.611972
O115	O	0.486281	-0.125700	-0.507577
O116	O	0.633272	0.021288	-0.507558
O117	O	0.486311	-0.021287	-0.611991
O118	O	0.513861	0.021292	-0.388162
O119	O	0.366869	-0.125696	-0.388181
O120	O	0.513891	0.125706	-0.492576
Cu121	Cu	0.429477	0.000005	-0.429476
Cu122	Cu	0.570695	0.000001	-0.570676
O123	O	0.366900	-0.021282	-0.492594
C124	C	0.356047	-0.030927	0.386929
C125	C	0.406443	-0.024826	0.431231
C126	C	0.269046	-0.031525	0.430327
C127	C	0.356047	-0.030947	0.256928
C128	C	0.406442	-0.024866	0.162234
C129	C	0.269045	-0.031545	0.300525
C130	C	0.226053	-0.030923	0.386920
C131	C	0.137458	-0.024816	0.431213
C132	C	0.398842	-0.031549	0.300533
H133	H	0.233059	-0.265571	0.032519
C134	C	0.220429	-0.032870	0.253240
C135	C	0.110171	-0.109459	0.291179
C136	C	0.061554	-0.110784	0.243900
C137	C	0.123194	-0.035518	0.158682
C138	C	0.233459	0.041078	0.120738
C139	C	0.282076	0.042402	0.168017
H140	H	0.064536	-0.165181	0.354266
H141	H	-0.020072	-0.167485	0.271989
H142	H	0.087205	-0.036498	0.123683
H143	H	0.279094	0.096799	0.057651
H144	H	0.363701	0.099104	0.139928
C145	C	0.493423	-0.032872	0.253248
C146	C	0.592262	0.042388	0.168021
C147	C	0.686841	0.041070	0.120737
C148	C	0.682582	-0.035508	0.158679
C149	C	0.583740	-0.110774	0.243911
C150	C	0.489160	-0.109456	0.291195
H151	H	0.595418	0.099081	0.139929
H152	H	0.760011	0.096787	0.057642
H153	H	0.752596	-0.036484	0.123677
H154	H	0.580583	-0.167467	0.272003
H155	H	0.415990	-0.165173	0.354290
C156	C	-0.493365	-0.746661	0.526234
C157	C	-0.489107	-0.780325	0.598564
C158	C	-0.583697	-0.827628	0.694456
C159	C	-0.682543	-0.841268	0.718018
C160	C	-0.686805	-0.807604	0.645687
C161	C	-0.592215	-0.760300	0.549794
H162	H	-0.415931	-0.770228	0.581123
H163	H	-0.580541	-0.852549	0.748001
H164	H	-0.752564	-0.876285	0.789004
H165	H	-0.759980	-0.817700	0.663127
H166	H	-0.595370	-0.735380	0.496250
H167	H	0.468895	-0.265589	-0.501459
H168	H	0.233055	-0.501375	0.032526
C169	C	0.220429	-0.746672	0.526252
C170	C	0.210501	-0.831879	0.549819
C171	C	0.161908	-0.879157	0.645714
C172	C	0.123243	-0.841228	0.718041
C173	C	0.133170	-0.756016	0.694475
C174	C	0.181763	-0.708738	0.598581
H175	H	0.239125	-0.859961	0.496277
H176	H	0.154560	-0.942237	0.663158
H177	H	0.087271	-0.876225	0.789028
H178	H	0.104546	-0.727934	0.748018
H179	H	0.189112	-0.645658	0.581137
C180	C	0.506672	0.032910	-0.253381
C181	C	0.407834	-0.042362	-0.239761
C182	C	0.313253	-0.041045	-0.192473
C183	C	0.317512	0.035544	-0.158806
C184	C	0.416354	0.110821	-0.172426
C185	C	0.510935	0.109504	-0.219714
H186	H	0.404678	-0.099063	-0.264683
H187	H	0.240084	-0.096770	-0.182391
H188	H	0.247498	0.036519	-0.123801
H189	H	0.419510	0.167522	-0.147503
H190	H	0.584104	0.165230	-0.229796
H191	H	0.468846	-0.498597	0.265543
C192	C	0.220436	-0.253319	-0.253360
C193	C	0.210476	-0.239730	-0.168129
C194	C	0.161845	-0.192468	-0.120803
C195	C	0.123172	-0.158795	-0.158708
C196	C	0.133131	-0.172383	-0.243944
C197	C	0.181763	-0.219645	-0.291269
H198	H	0.239105	-0.264658	-0.140065
H199	H	0.154473	-0.182409	-0.057707
H200	H	0.087172	-0.123808	-0.123675
H201	H	0.104503	-0.147455	-0.272007
H202	H	0.189135	-0.229704	-0.354366
H203	H	0.767008	-0.265581	-0.265636
H204	H	-0.233028	-0.498597	0.265502
H205	H	0.767042	0.032539	-0.501453
C206	C	0.779643	0.032906	-0.253352
C207	C	0.717966	-0.042352	-0.168116
C208	C	0.766547	-0.041033	-0.120802
C209	C	0.876804	0.035544	-0.158724
C210	C	0.938487	0.110809	-0.243965
C211	C	0.889906	0.109490	-0.291279
H212	H	0.636341	-0.099045	-0.140039
H213	H	0.720884	-0.096749	-0.057701
H214	H	0.912767	0.036521	-0.123699
H215	H	1.020112	0.167501	-0.272041
H216	H	0.935569	0.165206	-0.354380
H217	H	0.531206	-0.501370	-0.265641
C218	C	0.779652	-0.473678	-0.032992
C219	C	0.889908	-0.401354	-0.109584
C220	C	0.938507	-0.305455	-0.110911
C221	C	0.876851	-0.281882	-0.035647
C222	C	0.766589	-0.354208	0.040951
C223	C	0.717990	-0.450106	0.042278
H224	H	0.935555	-0.418803	-0.165304
H225	H	1.020131	-0.251915	-0.167614
H226	H	0.912827	-0.210892	-0.036629
H227	H	0.720942	-0.336759	0.096671
H228	H	0.636367	-0.503646	0.098981
C229	C	0.779676	-0.253290	-0.526360
C230	C	0.818343	-0.291224	-0.598681
C231	C	0.866992	-0.243925	-0.694586
C232	C	0.876973	-0.158693	-0.718170
C233	C	0.838304	-0.120754	-0.645847
C234	C	0.789656	-0.168053	-0.549942
H235	H	0.810956	-0.354323	-0.581224
H236	H	0.895617	-0.272010	-0.748125
H237	H	0.912985	-0.123679	-0.789165
H238	H	0.845692	-0.057656	-0.663304
H239	H	0.761030	-0.139968	-0.496404
H240	H	0.233062	-0.501390	-0.265660
H241	H	0.531229	-0.734388	-0.032637
C242	C	0.493408	-0.253308	0.032882
C243	C	0.592246	-0.239707	-0.042373
C244	C	0.686810	-0.192440	-0.041035
C245	C	0.682535	-0.158775	0.035558
C246	C	0.583694	-0.172375	0.110819
C247	C	0.489130	-0.219642	0.109480
H248	H	0.595414	-0.264629	-0.099077
H249	H	0.759979	-0.182373	-0.096748
H250	H	0.752537	-0.123785	0.036549
H251	H	0.580526	-0.147453	0.167523
H252	H	0.415961	-0.229710	0.165194
C253	C	0.220440	-0.032790	0.526212
C254	C	0.282103	0.042520	0.549740
C255	C	0.233500	0.041274	0.645614
C256	C	0.123235	-0.035283	0.717961
C257	C	0.061566	-0.110600	0.694435
C258	C	0.110169	-0.109353	0.598561
H259	H	0.363733	0.099197	0.496183
H260	H	0.279153	0.097028	0.663029
H261	H	0.087257	-0.036206	0.788933
H262	H	-0.020064	-0.167277	0.747992
H263	H	0.064516	-0.165108	0.581146
H264	H	0.233044	-0.734394	0.265547
C265	C	0.779642	-0.746689	-0.032981
C266	C	0.818300	-0.780363	-0.109566
C267	C	0.866873	-0.827680	-0.110863
C268	C	0.876787	-0.841322	-0.035576
C269	C	0.838128	-0.807647	0.041015
C270	C	0.789555	-0.760330	0.042312
H271	H	0.810961	-0.770265	-0.165303
H272	H	0.895491	-0.852608	-0.167561
H273	H	0.912744	-0.876348	-0.036537
H274	H	0.845467	-0.817745	0.096752
H275	H	0.760937	-0.735402	0.099010
H276	H	-0.232978	-0.734371	0.265528
