data_functionalizedCrystal
_audit_creation_method	'MofGen! by Chris Wilmer'
_symmetry_space_group_name_H-M	'P1'
_symmetry_Int_Tables_number	1
_symmetry_cell_setting	triclinic
loop_
_symmetry_equiv_pos_as_xyz
  x,y,z
_cell_length_a	19.121102
_cell_length_b	21.295417
_cell_length_c	19.121595
_cell_angle_alpha	87.530324
_cell_angle_beta	85.004847
_cell_angle_gamma	87.584620
loop_
_atom_site_label
_atom_site_type_symbol
_atom_site_fract_x
_atom_site_fract_y
_atom_site_fract_z
Zn1	Zn	1.092604	-0.275507	-0.443657
Zn2	Zn	1.592604	0.224493	0.056343
Zn3	Zn	1.087490	-0.385079	-0.325979
Zn4	Zn	1.587490	0.114921	0.174021
Zn5	Zn	0.969926	-0.275515	-0.320992
Zn6	Zn	1.469926	0.224485	0.179008
Zn7	Zn	0.974894	-0.376428	-0.438594
Zn8	Zn	1.474894	0.123572	0.061406
O9	O	1.031228	-0.328132	-0.382306
O10	O	1.531228	0.171868	0.117694
O11	O	1.190389	-0.293659	-0.432253
O12	O	1.690389	0.206341	0.067747
O13	O	1.067675	-0.374169	-0.226852
O14	O	1.567675	0.125831	0.273148
O15	O	0.986260	-0.187426	-0.337296
O16	O	1.486260	0.312574	0.162704
O17	O	1.186631	-0.374160	-0.345795
O18	O	1.686631	0.125840	0.154205
O19	O	1.076392	-0.187420	-0.427417
O20	O	1.576392	0.312580	0.072583
O21	O	0.981301	-0.293673	-0.223189
O22	O	1.481301	0.206327	0.276811
O23	O	0.872121	-0.285285	-0.332387
O24	O	1.372121	0.214715	0.167613
O25	O	0.994728	-0.359416	-0.537731
O26	O	1.494728	0.140584	-0.037731
O27	O	0.875771	-0.359425	-0.418788
O28	O	1.375771	0.140575	0.081212
O29	O	1.081209	-0.285270	-0.541451
O30	O	1.581209	0.214730	-0.041451
O31	O	1.072492	-0.472019	-0.340886
O32	O	1.572492	0.027981	0.159114
O33	O	0.989768	-0.465664	-0.423624
O34	O	1.489768	0.034336	0.076376
C35	C	0.848416	-0.321417	-0.374497
C36	C	1.348416	0.178583	0.125503
C37	C	0.770209	-0.318559	-0.371174
C38	C	1.270209	0.181441	0.128826
C39	C	0.735382	-0.355881	-0.414526
C40	C	1.235382	0.144119	0.085474
C41	C	0.661899	-0.353187	-0.411406
C42	C	1.161899	0.146813	0.088594
C43	C	0.623242	-0.313174	-0.364930
C44	C	1.123242	0.186826	0.135070
C45	C	0.658073	-0.275849	-0.321576
C46	C	1.158073	0.224151	0.178424
C47	C	0.731556	-0.278540	-0.324700
C48	C	1.231556	0.221460	0.175300
C49	C	0.401276	-0.303112	-0.353255
C50	C	0.901276	0.196888	0.146745
C51	C	0.327789	-0.300425	-0.350133
C52	C	0.827789	0.199575	0.149867
C53	C	0.331619	-0.377762	-0.439965
C54	C	0.831619	0.122238	0.060035
C55	C	0.405103	-0.380452	-0.443081
C56	C	0.905103	0.119548	0.056919
C57	C	0.439928	-0.343125	-0.399730
C58	C	0.939928	0.156875	0.100270
C59	C	0.548130	-0.310421	-0.361739
C60	C	1.048130	0.189579	0.138261
C61	C	0.515039	-0.345875	-0.402925
C62	C	1.015039	0.154125	0.097075
C63	C	1.031134	-0.491682	-0.382263
C64	C	1.531134	0.008318	0.117737
C65	C	1.031160	-0.561651	-0.382271
C66	C	1.531160	-0.061651	0.117729
C67	C	1.074276	-0.597806	-0.339237
C68	C	1.574276	-0.097806	0.160763
C69	C	1.074309	-0.663549	-0.339254
C70	C	1.574309	-0.163549	0.160746
C71	C	1.031214	-0.693134	-0.382297
C72	C	1.531214	-0.193134	0.117703
C73	C	0.988095	-0.656971	-0.425340
C74	C	1.488095	-0.156971	0.074660
C75	C	0.988068	-0.591229	-0.425326
C76	C	1.488068	-0.091229	0.074674
N77	N	0.969890	-0.793947	-0.385032
N78	N	1.469890	-0.293947	0.114968
N79	N	0.969918	-0.856399	-0.385041
N80	N	1.469918	-0.356399	0.114959
C81	C	1.031294	-0.891210	-0.382341
C82	C	1.531294	-0.391210	0.117659
N83	N	1.092643	-0.861211	-0.379618
N84	N	1.592643	-0.361211	0.120382
N85	N	1.092615	-0.798753	-0.379606
N86	N	1.592615	-0.298753	0.120394
C87	C	1.031239	-0.764420	-0.382317
C88	C	1.531239	-0.264420	0.117683
C89	C	1.074451	-0.998652	-0.339324
C90	C	1.574451	-0.498652	0.160676
C91	C	1.074486	-1.064396	-0.339346
C92	C	1.574486	-0.564396	0.160654
C93	C	0.988265	-1.057817	-0.425427
C94	C	1.488265	-0.557817	0.074573
C95	C	0.988236	-0.992074	-0.425409
C96	C	1.488236	-0.492074	0.074591
C97	C	1.031328	-0.962495	-0.382353
C98	C	1.531328	-0.462495	0.117647
C99	C	1.214754	-0.334874	-0.390145
C100	C	1.714754	0.165126	0.109855
C101	C	1.292962	-0.337746	-0.393485
C102	C	1.792962	0.162254	0.106515
C103	C	1.039093	-0.321377	-0.565836
C104	C	1.539093	0.178623	-0.065836
C105	C	1.042444	-0.318499	-0.644045
C106	C	1.542444	0.181501	-0.144045
C107	C	1.031342	-0.163944	-0.382365
C108	C	1.531342	0.336056	0.117635
C109	C	1.031391	-0.093977	-0.382390
C110	C	1.531391	0.406023	0.117610
C111	C	0.998994	-0.355747	-0.678853
C112	C	1.498994	0.144253	-0.178853
C113	C	1.002148	-0.353043	-0.752339
C114	C	1.502148	0.146957	-0.252339
C115	C	1.048751	-0.313086	-0.791017
C116	C	1.548751	0.186914	-0.291017
C117	C	1.092207	-0.275836	-0.756204
C118	C	1.592207	0.224164	-0.256204
C119	C	1.089055	-0.278544	-0.682719
C120	C	1.589055	0.221456	-0.182719
C121	C	1.060523	-0.302981	-1.012991
C122	C	1.560523	0.197019	-0.512991
C123	C	1.063670	-0.300274	-1.086480
C124	C	1.563670	0.199726	-0.586480
C125	C	0.973613	-0.377482	-1.082611
C126	C	1.473613	0.122518	-0.582611
C127	C	0.970462	-0.380184	-1.009124
C128	C	1.470462	0.119816	-0.509124
C129	C	1.013920	-0.342937	-0.974318
C130	C	1.513920	0.157063	-0.474318
C131	C	1.051975	-0.310319	-0.866131
C132	C	1.551975	0.189681	-0.366131
C133	C	1.010699	-0.345707	-0.899205
C134	C	1.510699	0.154293	-0.399205
C135	C	1.023435	-0.334817	-0.199491
C136	C	1.523435	0.165183	0.300509
C137	C	1.020220	-0.337523	-0.121288
C138	C	1.520220	0.162477	0.378712
H139	H	0.296316	-0.267835	-0.312291
H140	H	0.796316	0.232165	0.187709
C141	C	1.121733	-0.703331	-0.291909
C142	C	1.621733	-0.203331	0.208091
C143	C	1.112609	-0.697068	-0.211669
C144	C	1.612609	-0.197068	0.288331
C145	C	1.160030	-0.736849	-0.164323
C146	C	1.660030	-0.236849	0.335677
C147	C	1.216573	-0.782894	-0.197215
C148	C	1.716573	-0.282894	0.302785
C149	C	1.225699	-0.789160	-0.277459
C150	C	1.725699	-0.289160	0.222541
C151	C	1.178279	-0.749379	-0.324806
C152	C	1.678279	-0.249379	0.175194
H153	H	1.070750	-0.662980	-0.187317
H154	H	1.570750	-0.162980	0.312683
H155	H	1.153274	-0.732210	-0.104921
H156	H	1.653274	-0.232210	0.395079
H157	H	1.251677	-0.812343	-0.162166
H158	H	1.751677	-0.312343	0.337834
H159	H	1.267559	-0.823247	-0.301812
H160	H	1.767559	-0.323247	0.198188
H161	H	1.185035	-0.754017	-0.384208
H162	H	1.685035	-0.254017	0.115792
H163	H	0.429622	-0.272722	-0.317950
H164	H	0.929622	0.227278	0.182050
C165	C	0.954349	-0.394003	-0.790642
C166	C	1.454349	0.105997	-0.290642
C167	C	0.901309	-0.362815	-0.838815
C168	C	1.401309	0.137185	-0.338815
C169	C	0.853508	-0.403772	-0.877124
C170	C	1.353508	0.096228	-0.377124
C171	C	0.858746	-0.475918	-0.867259
C172	C	1.358746	0.024082	-0.367259
C173	C	0.911788	-0.507110	-0.819083
C174	C	1.411788	-0.007110	-0.319083
C175	C	0.959590	-0.466153	-0.780775
C176	C	1.459590	0.033847	-0.280775
H177	H	0.897430	-0.309405	-0.846120
H178	H	1.397430	0.190595	-0.346120
H179	H	0.814243	-0.380681	-0.912787
H180	H	1.314243	0.119319	-0.412787
H181	H	0.823361	-0.506237	-0.895618
H182	H	1.323361	-0.006237	-0.395618
H183	H	0.915668	-0.560520	-0.811779
H184	H	1.415668	-0.060520	-0.311779
H185	H	0.998855	-0.489244	-0.745112
H186	H	1.498855	0.010756	-0.245112
H187	H	0.953179	-1.081904	-0.460477
H188	H	1.453179	-0.581904	0.039523
H189	H	0.938232	-0.407807	-1.110958
H190	H	1.438232	0.092193	-0.610958
H191	H	1.101617	-0.267731	-1.117970
H192	H	1.601617	0.232269	-0.617970
C193	C	0.777902	-0.399895	-0.465651
C194	C	1.277902	0.100105	0.034349
C195	C	0.767505	-0.471294	-0.459333
C196	C	1.267505	0.028706	0.040667
C197	C	0.810022	-0.515308	-0.510461
C198	C	1.310022	-0.015308	-0.010461
C199	C	0.862936	-0.487923	-0.567908
C200	C	1.362936	0.012077	-0.067908
C201	C	0.873335	-0.416521	-0.574228
C202	C	1.373335	0.083479	-0.074228
C203	C	0.830818	-0.372507	-0.523100
C204	C	1.330818	0.127493	-0.023100
H205	H	0.728332	-0.491569	-0.416805
H206	H	1.228332	0.008431	0.083195
H207	H	0.802323	-0.568165	-0.505782
H208	H	1.302323	-0.068165	-0.005782
H209	H	0.894410	-0.520505	-0.605756
H210	H	1.394410	-0.020505	-0.105756
H211	H	0.912508	-0.396246	-0.616756
H212	H	1.412508	0.103754	-0.116756
H213	H	0.838517	-0.319650	-0.527779
H214	H	1.338517	0.180350	-0.027779
H215	H	0.953008	-0.681063	-0.460387
H216	H	1.453008	-0.181063	0.039613
H217	H	1.109601	-1.093833	-0.304304
H218	H	1.609601	-0.593833	0.195696
C219	C	1.121856	-0.966110	-0.291971
C220	C	1.621856	-0.466110	0.208029
C221	C	1.169294	-1.005883	-0.244641
C222	C	1.669294	-0.505883	0.255359
C223	C	1.216700	-0.973344	-0.197288
C224	C	1.716700	-0.473344	0.302712
C225	C	1.216667	-0.901031	-0.197266
C226	C	1.716667	-0.401031	0.302734
C227	C	1.169227	-0.861253	-0.244599
C228	C	1.669227	-0.361253	0.255401
C229	C	1.121822	-0.893792	-0.291951
C230	C	1.621822	-0.393792	0.208049
H231	H	1.169320	-1.059418	-0.244656
H232	H	1.669320	-0.559418	0.255344
H233	H	1.251818	-1.002790	-0.162250
H234	H	1.751818	-0.502790	0.337750
H235	H	1.251759	-0.876943	-0.162213
H236	H	1.751759	-0.376943	0.337787
H237	H	1.169202	-0.807719	-0.244584
H238	H	1.669202	-0.307719	0.255416
H239	H	1.086704	-0.864346	-0.326989
H240	H	1.586704	-0.364346	0.173011
C241	C	0.940803	-0.952299	-0.472743
C242	C	1.440803	-0.452299	0.027257
C243	C	0.893400	-0.984837	-0.520094
C244	C	1.393400	-0.484837	-0.020094
C245	C	0.845967	-0.945062	-0.567434
C246	C	1.345967	-0.445062	-0.067434
C247	C	0.845937	-0.872749	-0.567423
C248	C	1.345937	-0.372749	-0.067423
C249	C	0.893342	-0.840206	-0.520071
C250	C	1.393342	-0.340206	-0.020071
C251	C	0.940775	-0.879981	-0.472731
C252	C	1.440775	-0.379981	0.027269
H253	H	0.893420	-1.038371	-0.520103
H254	H	1.393420	-0.538371	-0.020103
H255	H	0.810875	-0.969153	-0.602487
H256	H	1.310875	-0.469153	-0.102487
H257	H	0.810825	-0.843305	-0.602467
H258	H	1.310825	-0.343305	-0.102467
H259	H	0.893322	-0.786672	-0.520062
H260	H	1.393322	-0.286672	-0.020062
H261	H	0.975867	-0.855891	-0.437678
H262	H	1.475867	-0.355891	0.062322
H263	H	1.095910	-0.272652	-0.984661
H264	H	1.595910	0.227348	-0.484661
C265	C	0.505600	-0.266413	-0.310614
C266	C	1.005600	0.233587	0.189386
C267	C	0.456424	-0.214064	-0.339068
C268	C	0.956424	0.285936	0.160932
C269	C	0.413890	-0.170055	-0.287947
C270	C	0.913890	0.329945	0.212053
C271	C	0.420532	-0.178394	-0.208372
C272	C	0.920532	0.321606	0.291628
C273	C	0.469711	-0.230744	-0.179914
C274	C	0.969711	0.269256	0.320086
C275	C	0.512245	-0.274754	-0.231035
C276	C	1.012245	0.225246	0.268965
H277	H	0.451505	-0.207889	-0.397978
H278	H	0.951505	0.292111	0.102022
H279	H	0.377485	-0.131302	-0.309013
H280	H	0.877485	0.368698	0.190987
H281	H	0.389046	-0.145815	-0.170529
H282	H	0.889046	0.354185	0.329471
H283	H	0.474629	-0.236919	-0.121005
H284	H	0.974629	0.263081	0.378995
H285	H	0.548650	-0.313507	-0.209969
H286	H	1.048650	0.186493	0.290031
H287	H	0.546516	-0.378450	-0.440769
H288	H	1.046516	0.121550	0.059231
C289	C	0.447627	-0.424465	-0.494205
C290	C	0.947627	0.075535	0.005795
C291	C	0.500545	-0.397082	-0.551648
C292	C	1.000545	0.102918	-0.051648
C293	C	0.543071	-0.441098	-0.602768
C294	C	1.043071	0.058902	-0.102768
C295	C	0.532679	-0.512497	-0.596444
C296	C	1.032679	-0.012497	-0.096444
C297	C	0.479758	-0.539884	-0.538999
C298	C	0.979758	-0.039884	-0.038999
C299	C	0.437232	-0.495868	-0.487879
C300	C	0.937232	0.004132	0.012121
H301	H	0.508240	-0.344225	-0.556331
H302	H	1.008240	0.155775	-0.056331
H303	H	0.582247	-0.420824	-0.645293
H304	H	1.082247	0.079176	-0.145293
H305	H	0.564159	-0.545080	-0.634286
H306	H	1.064159	-0.045080	-0.134286
H307	H	0.472063	-0.592741	-0.534316
H308	H	0.972063	-0.092741	-0.034316
H309	H	0.398056	-0.516142	-0.445354
H310	H	0.898056	-0.016142	0.054646
H311	H	1.130155	-0.243306	-0.787701
H312	H	1.630155	0.256694	-0.287701
H313	H	0.961036	-0.388277	-0.647366
H314	H	1.461036	0.111723	-0.147366
H315	H	0.952957	-0.561791	-0.460370
H316	H	1.452957	-0.061791	0.039630
C317	C	0.293311	-0.418815	-0.487655
C318	C	0.793311	0.081185	0.012345
C319	C	0.212483	-0.415857	-0.484227
C320	C	0.712483	0.084143	0.015773
C321	C	0.174176	-0.456909	-0.531923
C322	C	0.674176	0.043091	-0.031923
C323	C	0.216696	-0.500920	-0.583047
C324	C	0.716696	-0.000920	-0.083047
C325	C	0.297528	-0.503880	-0.586477
C326	C	0.797528	-0.003880	-0.086477
C327	C	0.335836	-0.462827	-0.538782
C328	C	0.835836	0.037173	-0.038782
H329	H	0.181003	-0.383276	-0.446380
H330	H	0.681003	0.116724	0.053620
H331	H	0.114338	-0.454718	-0.529383
H332	H	0.614338	0.045282	-0.029383
H333	H	0.188338	-0.531309	-0.618354
H334	H	0.688338	-0.031309	-0.118354
H335	H	0.329008	-0.536460	-0.624324
H336	H	0.829008	-0.036460	-0.124324
H337	H	0.395673	-0.465018	-0.541321
H338	H	0.895673	0.034982	-0.041321
H339	H	0.932525	-0.412731	-0.977638
H340	H	1.432525	0.087269	-0.477638
C341	C	1.136849	-0.237569	-0.644427
C342	C	1.636849	0.262431	-0.144427
C343	C	1.131592	-0.165425	-0.654303
C344	C	1.631592	0.334575	-0.154303
C345	C	1.179391	-0.124451	-0.616012
C346	C	1.679391	0.375549	-0.116012
C347	C	1.232447	-0.155622	-0.567844
C348	C	1.732447	0.344378	-0.067844
C349	C	1.237707	-0.227770	-0.557966
C350	C	1.737707	0.272230	-0.057966
C351	C	1.189908	-0.268744	-0.596258
C352	C	1.689908	0.231256	-0.096258
H353	H	1.092314	-0.142348	-0.689961
H354	H	1.592314	0.357652	-0.189961
H355	H	1.175497	-0.071043	-0.623325
H356	H	1.675497	0.428957	-0.123325
H357	H	1.267831	-0.125291	-0.539499
H358	H	1.767831	0.374709	-0.039499
H359	H	1.276984	-0.250847	-0.522308
H360	H	1.776984	0.249153	-0.022308
H361	H	1.193802	-0.322152	-0.588945
H362	H	1.693802	0.177848	-0.088945
H363	H	0.626594	-0.243267	-0.283737
H364	H	1.126594	0.256733	0.216263
C365	C	1.103232	-0.266363	-0.908681
C366	C	1.603232	0.233637	-0.408681
C367	C	1.160617	-0.293809	-0.961552
C368	C	1.660617	0.206191	-0.461552
C369	C	1.211874	-0.249855	-1.004105
C370	C	1.711874	0.250145	-0.504105
C371	C	1.205745	-0.178454	-0.993786
C372	C	1.705745	0.321546	-0.493786
C373	C	1.148357	-0.151005	-0.940913
C374	C	1.648357	0.348995	-0.440913
C375	C	1.097100	-0.194959	-0.898360
C376	C	1.597100	0.305041	-0.398360
H377	H	1.165156	-0.346667	-0.969193
H378	H	1.665156	0.153333	-0.469193
H379	H	1.254356	-0.270175	-1.043246
H380	H	1.754356	0.229825	-0.543246
H381	H	1.243688	-0.145916	-1.025287
H382	H	1.743688	0.354084	-0.525287
H383	H	1.143818	-0.098147	-0.933272
H384	H	1.643818	0.401853	-0.433272
H385	H	1.054618	-0.174639	-0.859219
H386	H	1.554618	0.325361	-0.359219
H387	H	0.972758	-0.378242	-0.867711
H388	H	1.472758	0.121758	-0.367711
C389	C	0.769869	-0.237487	-0.277011
C390	C	1.269869	0.262513	0.222989
C391	C	0.821728	-0.188834	-0.309757
C392	C	1.321728	0.311166	0.190243
C393	C	0.860041	-0.147777	-0.262070
C394	C	1.360041	0.352223	0.237930
C395	C	0.846496	-0.155375	-0.181638
C396	C	1.346496	0.344625	0.318362
C397	C	0.794635	-0.204030	-0.148888
C398	C	1.294635	0.295970	0.351112
C399	C	0.756322	-0.245087	-0.196575
C400	C	1.256322	0.254913	0.303425
H401	H	0.831757	-0.183208	-0.369301
H402	H	1.331757	0.316792	0.130699
H403	H	0.898432	-0.111759	-0.286314
H404	H	1.398432	0.388241	0.213686
H405	H	0.874858	-0.124982	-0.146337
H406	H	1.374858	0.375018	0.353663
H407	H	0.784606	-0.209656	-0.089344
H408	H	1.284606	0.290344	0.410656
H409	H	0.717931	-0.281105	-0.172331
H410	H	1.217931	0.218895	0.327669
C411	C	1.121683	-0.565273	-0.291882
C412	C	1.621683	-0.065273	0.208118
C413	C	1.112582	-0.577090	-0.211646
C414	C	1.612582	-0.077090	0.288354
C415	C	1.159991	-0.544557	-0.164292
C416	C	1.659991	-0.044557	0.335708
C417	C	1.216502	-0.500208	-0.197173
C418	C	1.716502	-0.000208	0.302827
C419	C	1.225605	-0.488389	-0.277412
C420	C	1.725605	0.011611	0.222588
C421	C	1.178196	-0.520921	-0.324767
C422	C	1.678196	-0.020921	0.175233
H423	H	1.070747	-0.609922	-0.187302
H424	H	1.570747	-0.109922	0.312698
H425	H	1.153251	-0.553306	-0.104893
H426	H	1.653251	-0.053306	0.395107
H427	H	1.251597	-0.476125	-0.162118
H428	H	1.751597	0.023875	0.337882
H429	H	1.267440	-0.455557	-0.301757
H430	H	1.767440	0.044443	0.198243
H431	H	1.184936	-0.512172	-0.384166
H432	H	1.684936	-0.012172	0.115834
H433	H	0.633546	-0.383578	-0.446708
H434	H	1.133546	0.116422	0.053292
