data_functionalizedCrystal
_audit_creation_method	'MofGen! by Chris Wilmer'
_symmetry_space_group_name_H-M	'P1'
_symmetry_Int_Tables_number	1
_symmetry_cell_setting	triclinic
loop_
_symmetry_equiv_pos_as_xyz
  x,y,z
_cell_length_a	21.395362
_cell_length_b	11.169416
_cell_length_c	21.395355
_cell_angle_alpha	89.989073
_cell_angle_beta	89.956060
_cell_angle_gamma	90.026221
loop_
_atom_site_label
_atom_site_type_symbol
_atom_site_fract_x
_atom_site_fract_y
_atom_site_fract_z
Zn1	Zn	0.957948	-0.477437	-0.354619
Zn2	Zn	0.957888	-0.678108	-0.249855
Zn3	Zn	0.853163	-0.477493	-0.249820
Zn4	Zn	0.853169	-0.678133	-0.354560
O5	O	0.905542	-0.577793	-0.302213
O6	O	1.045618	-0.504023	-0.340761
O7	O	0.943968	-0.651509	-0.162172
O8	O	0.867086	-0.309536	-0.263732
O9	O	1.045574	-0.651455	-0.263792
O10	O	0.944071	-0.309495	-0.340727
O11	O	0.867027	-0.504118	-0.162147
O12	O	0.765486	-0.504142	-0.263675
O13	O	0.867096	-0.651497	-0.442246
O14	O	0.765491	-0.651551	-0.340627
O15	O	0.944077	-0.504047	-0.442289
O16	O	0.943974	-0.846061	-0.263734
O17	O	0.867038	-0.846079	-0.340661
C18	C	0.742754	-0.577856	-0.302141
C19	C	0.673113	-0.577912	-0.302124
C20	C	0.905517	-0.889618	-0.302209
C21	C	0.905564	-1.023018	-0.302228
C22	C	0.640419	-0.654770	-0.342133
C23	C	0.574984	-0.654741	-0.342161
C24	C	0.542245	-0.577866	-0.302169
C25	C	0.574947	-0.500994	-0.262157
C26	C	0.640381	-0.501017	-0.262135
C27	C	0.438518	-0.568198	-0.245763
C28	C	0.373085	-0.568183	-0.245784
C29	C	0.340424	-0.577788	-0.302238
C30	C	0.373204	-0.587433	-0.358673
C31	C	0.438638	-0.587456	-0.358650
C32	C	0.471293	-0.577832	-0.302189
C33	C	0.236777	-0.654618	-0.342281
C34	C	0.171341	-0.654580	-0.342310
C35	C	0.171306	-0.500839	-0.262300
C36	C	0.236741	-0.500871	-0.262277
C37	C	0.269473	-0.577766	-0.302266
C38	C	1.068965	-0.577730	-0.302287
C39	C	1.138607	-0.577703	-0.302318
C40	C	0.905594	-0.577769	-0.465637
C41	C	0.905616	-0.577758	-0.535278
C42	C	0.905584	-0.264751	-0.302232
C43	C	0.905602	-0.131351	-0.302240
C44	C	0.945698	-0.500978	-0.568015
C45	C	0.945697	-0.500926	-0.633450
C46	C	0.905621	-0.577676	-0.666146
C47	C	0.865531	-0.654462	-0.633402
C48	C	0.865529	-0.654503	-0.567968
C49	C	0.900665	-0.685744	-0.769818
C50	C	0.900672	-0.685705	-0.835251
C51	C	0.905625	-0.577550	-0.867967
C52	C	0.910584	-0.469429	-0.835243
C53	C	0.910582	-0.469470	-0.769809
C54	C	0.905619	-0.577640	-0.737099
C55	C	0.945708	-0.500707	-0.971656
C56	C	0.945703	-0.500653	-1.037093
C57	C	0.865540	-0.654200	-1.037044
C58	C	0.865542	-0.654243	-0.971608
C59	C	0.905630	-0.577498	-0.938919
C60	C	0.905526	-0.577731	-0.139426
C61	C	0.905626	-0.577403	-0.069785
H62	H	0.667065	-0.717383	-0.374697
C63	C	0.135377	-0.739144	-0.386320
N64	N	0.108289	-0.802845	-0.419466
H65	H	0.978342	-0.438122	-1.063746
C66	C	0.135297	-0.416275	-0.218309
N67	N	0.108172	-0.352578	-0.185174
C68	C	0.676346	-0.416470	-0.218117
N69	N	0.703436	-0.352791	-0.184960
C70	C	0.272706	-0.416331	-0.218258
N71	N	0.299795	-0.352651	-0.185101
H72	H	0.263429	-0.717225	-0.374846
H73	H	0.346401	-0.560337	-0.199832
C74	C	0.821445	-0.738883	-0.669369
N75	N	0.788235	-0.802466	-0.696460
H76	H	0.548359	-0.717327	-0.374744
H77	H	0.978346	-0.438210	-0.945039
C78	C	0.821435	-0.738974	-0.531956
N79	N	0.788224	-0.802601	-0.504832
C80	C	0.474693	-0.598064	-0.420727
N81	N	0.501850	-0.606052	-0.467483
C82	C	0.474439	-0.557636	-0.183655
N83	N	0.501494	-0.549683	-0.136877
C84	C	0.337282	-0.597994	-0.420777
N85	N	0.310222	-0.605950	-0.467553
H86	H	0.914618	-0.381359	-0.861879
C87	C	0.538933	-0.416432	-0.218166
N88	N	0.511808	-0.352734	-0.185032
H89	H	0.914618	-0.381435	-0.743167
H90	H	0.978340	-0.438485	-0.541403
C91	C	0.895216	-0.804639	-0.871241
N92	N	0.891106	-0.894223	-0.898348
H93	H	0.978336	-0.438396	-0.660110
C94	C	0.821456	-0.738628	-1.073006
N95	N	0.788250	-0.802220	-1.100096
C96	C	0.821451	-0.738714	-0.935597
N97	N	0.788238	-0.802338	-0.908473
H98	H	0.896464	-0.773795	-0.743185
