data_functionalizedCrystal
_audit_creation_method	'MofGen! by Chris Wilmer'
_symmetry_space_group_name_H-M	'P1'
_symmetry_Int_Tables_number	1
_symmetry_cell_setting	triclinic
loop_
_symmetry_equiv_pos_as_xyz
  x,y,z
_cell_length_a	10.654550
_cell_length_b	16.109301
_cell_length_c	9.130313
_cell_angle_alpha	89.997330
_cell_angle_beta	89.996220
_cell_angle_gamma	83.973192
loop_
_atom_site_label
_atom_site_type_symbol
_atom_site_fract_x
_atom_site_fract_y
_atom_site_fract_z
O1	O	1.666250	0.116770	-0.121925
O2	O	1.300621	0.127896	-0.121902
O3	O	1.493479	0.001362	-0.121899
O4	O	1.473391	0.243304	-0.121928
O5	O	1.493477	0.001365	0.121700
O6	O	1.300618	0.127899	0.121697
O7	O	1.666248	0.116774	0.121674
Cu8	Cu	1.483433	0.122337	0.143928
Cu9	Cu	1.483435	0.122333	-0.144156
O10	O	1.473389	0.243308	0.121671
C11	C	1.253832	0.127080	-0.000099
C12	C	1.114422	0.124636	-0.000090
C13	C	1.033926	0.199138	-0.000120
C14	C	0.902936	0.196836	-0.000145
C15	C	0.932952	0.045526	-0.000116
C16	C	1.063939	0.047828	-0.000081
C17	C	1.016595	0.286496	-0.000143
C18	C	0.885606	0.284194	-0.000168
C19	C	1.492665	-0.029616	-0.000099
C20	C	1.490225	-0.121926	-0.000097
C21	C	1.598991	-0.343552	-0.000127
C22	C	1.596689	-0.430286	-0.000139
C23	C	1.367868	-0.411772	-0.000119
C24	C	1.370172	-0.325040	-0.000117
C25	C	1.485737	-0.290932	-0.000114
C26	C	1.481131	-0.464399	-0.000127
C27	C	1.478634	-0.558440	-0.000140
C28	C	1.488234	-0.196885	-0.000104
C29	C	1.713036	0.117589	-0.000132
C30	C	1.852446	0.120033	-0.000151
C31	C	1.474204	0.274286	-0.000132
C32	C	1.476643	0.366595	-0.000144
N33	N	1.483440	0.122339	0.346551
N34	N	1.483438	0.122324	-0.346779
C35	C	1.568859	0.066329	0.423204
C36	C	1.568856	0.066319	0.576541
C37	C	1.398010	0.178336	0.576558
C38	C	1.398008	0.178342	0.423223
C39	C	1.667500	0.001659	0.423195
C40	C	1.667497	0.001649	0.576532
H41	H	0.839575	0.310596	0.104997
H42	H	1.273779	-0.439553	-0.000118
H43	H	1.277941	-0.282194	-0.000111
O44	O	1.051083	0.327374	0.121324
C45	C	1.149771	0.443927	0.216855
C46	C	1.110755	0.397729	0.079177
H47	H	1.198047	0.500808	0.182828
H48	H	1.062397	0.464896	0.284818
H49	H	1.217834	0.400234	0.284857
H50	H	1.042722	0.441373	0.011061
H51	H	1.198187	0.376746	0.011324
H52	H	1.693091	-0.315785	-0.000127
H53	H	0.843427	0.317108	-0.102126
O54	O	1.706821	-0.481281	-0.000082
C55	C	1.934022	-0.490486	-0.000182
C56	C	1.809387	-0.432638	-0.000209
H57	H	2.016979	-0.451181	-0.000316
H58	H	1.938752	-0.531545	0.101783
H59	H	1.938597	-0.531566	-0.102109
H60	H	1.804728	-0.391507	0.101648
H61	H	1.804708	-0.391636	-0.102242
O62	O	1.775938	0.025717	0.366236
C63	C	1.958442	-0.011855	0.215007
C64	C	1.835675	-0.039218	0.279407
H65	H	2.006789	-0.064348	0.144817
H66	H	1.935431	0.046216	0.144651
H67	H	2.024043	0.002809	0.307978
H68	H	1.770016	-0.053928	0.186530
H69	H	1.858780	-0.097263	0.349802
O70	O	1.314855	0.232652	0.650977
C71	C	1.096477	0.280047	0.697840
C72	C	1.190511	0.218473	0.613499
H73	H	0.995924	0.268617	0.667548
H74	H	1.111037	0.270420	0.820617
H75	H	1.112866	0.346736	0.667718
H76	H	1.174179	0.151760	0.643499
H77	H	1.175928	0.228173	0.490743
H78	H	1.646924	-0.062245	0.381584
H79	H	1.637803	-0.058739	0.624088
H80	H	1.763815	0.015894	0.618141
H81	H	1.328442	0.223942	0.360814
H82	H	1.129476	-0.012838	-0.000035
H83	H	1.051874	0.314310	-0.105318
O84	O	0.883701	-0.029011	-0.000180
C85	C	0.695213	-0.099618	-0.000124
C86	C	0.750816	-0.015147	-0.000083
H87	H	0.587769	-0.088438	-0.000014
H88	H	0.728299	-0.136488	-0.102082
H89	H	0.728421	-0.136468	0.101810
H90	H	0.717634	0.021771	-0.101948
H91	H	0.717736	0.021661	0.101942
