data_functionalizedCrystal
_audit_creation_method	'MofGen! by Chris Wilmer'
_symmetry_space_group_name_H-M	'P1'
_symmetry_Int_Tables_number	1
_symmetry_cell_setting	triclinic
loop_
_symmetry_equiv_pos_as_xyz
  x,y,z
_cell_length_a	15.995350
_cell_length_b	15.995363
_cell_length_c	16.053802
_cell_angle_alpha	92.578248
_cell_angle_beta	87.430305
_cell_angle_gamma	83.494885
loop_
_atom_site_label
_atom_site_type_symbol
_atom_site_fract_x
_atom_site_fract_y
_atom_site_fract_z
O1	O	-0.104454	-1.114508	-0.069360
O2	O	0.395546	-0.614508	0.430640
O3	O	-0.117770	-0.870735	-0.069375
O4	O	0.382230	-0.370735	0.430625
O5	O	0.010776	-0.999285	-0.069370
O6	O	0.510776	-0.499285	0.430630
O7	O	-0.232999	-0.985958	-0.069365
O8	O	0.267001	-0.485958	0.430635
O9	O	0.003729	-0.992209	0.069488
O10	O	0.503729	-0.492209	0.569488
O11	O	-0.124816	-0.863659	0.069484
O12	O	0.375184	-0.363659	0.569484
O13	O	-0.111500	-1.107432	0.069498
O14	O	0.388500	-0.607432	0.569498
Zn15	Zn	-0.119277	-0.984422	0.091538
Zn16	Zn	0.380723	-0.484422	0.591538
Zn17	Zn	-0.109993	-0.993745	-0.091414
Zn18	Zn	0.390007	-0.493745	0.408586
O19	O	-0.240046	-0.978882	0.069494
O20	O	0.259954	-0.478882	0.569494
C21	C	-0.120741	-0.836002	0.000053
C22	C	0.379259	-0.336002	0.500053
C23	C	-0.119084	-0.743053	0.000047
C24	C	0.380916	-0.243053	0.500047
C25	C	-0.113138	-0.405306	0.000067
C26	C	0.386862	0.094694	0.500067
C27	C	-0.021604	-0.452724	0.000375
C28	C	0.478396	0.047276	0.500375
C29	C	-0.023244	-0.549430	0.000055
C30	C	0.476756	-0.049430	0.500055
C31	C	-0.116088	-0.572866	0.000058
C32	C	0.383912	-0.072866	0.500058
C33	C	-0.157219	-0.535820	-0.079233
C34	C	0.342781	-0.035820	0.420767
C35	C	-0.154912	-0.439188	-0.079292
C36	C	0.345088	0.060812	0.420708
C37	C	-0.164816	-0.430802	0.078616
C38	C	0.335184	0.069198	0.578616
C39	C	-0.164852	-0.527694	0.079657
C40	C	0.335148	-0.027694	0.579657
C41	C	-0.117759	-0.667564	0.000050
C42	C	0.382241	-0.167564	0.500050
C43	C	-0.111469	-0.310609	0.000070
C44	C	0.388531	0.189391	0.500070
C45	C	-0.267717	-0.982971	0.000065
C46	C	0.232283	-0.482971	0.500065
C47	C	-0.360668	-0.984622	0.000068
C48	C	0.139332	-0.484622	0.500068
C49	C	-0.698415	-0.990555	0.000055
C50	C	-0.198415	-0.490555	0.500055
C51	C	-0.650970	-1.082122	-0.000249
C52	C	-0.150970	-0.582122	0.499751
C53	C	-0.554295	-1.080454	0.000068
C54	C	-0.054295	-0.580454	0.500068
C55	C	-0.530855	-0.987612	0.000061
C56	C	-0.030855	-0.487612	0.500061
C57	C	-0.575959	-0.938416	0.079350
C58	C	-0.075959	-0.438416	0.579350
C59	C	-0.672598	-0.940712	0.079413
C60	C	-0.172598	-0.440712	0.579413
C61	C	-0.664932	-0.946867	-0.078496
C62	C	-0.164932	-0.446867	0.421504
C63	C	-0.567934	-0.946942	-0.079539
C64	C	-0.067934	-0.446942	0.420461
C65	C	-0.436157	-0.985944	0.000067
C66	C	0.063843	-0.485944	0.500067
C67	C	-0.793113	-0.992220	0.000055
C68	C	-0.293113	-0.492220	0.500055
C69	C	0.038447	-0.995197	0.000056
C70	C	0.538447	-0.495197	0.500056
C71	C	0.131398	-0.993545	0.000048
C72	C	0.631398	-0.493545	0.500048
N73	N	-0.125613	-0.978066	0.216398
N74	N	0.374387	-0.478066	0.716398
C75	C	-0.108518	-0.142166	0.000071
C76	C	0.391482	0.357834	0.500071
C77	C	-0.110142	-0.235120	0.000078
C78	C	0.389858	0.264880	0.500078
N79	N	-0.103651	-1.000108	-0.216274
N80	N	0.396349	-0.500108	0.283726
C81	C	-0.070936	-1.032784	0.260094
C82	C	0.429064	-0.532784	0.760094
C83	C	-0.075375	-1.028346	0.347500
C84	C	0.424625	-0.528346	0.847500
C85	C	-0.134497	-0.969192	0.391210
C86	C	0.365503	-0.469192	0.891210
C87	C	-0.189176	-0.914468	0.347508
C88	C	0.310824	-0.414468	0.847508
C89	C	-0.184731	-0.918903	0.260103
C90	C	0.315269	-0.418903	0.760103
C91	C	-0.153886	-0.949819	0.652619
C92	C	0.346114	-0.449819	1.152619
C93	C	-0.158328	-0.945389	0.740030
C94	C	0.341672	-0.445389	1.240030
C95	C	-0.044526	-1.059267	0.740016
C96	C	0.455474	-0.559267	1.240016
C97	C	-0.040090	-1.063700	0.652610
C98	C	0.459910	-0.563700	1.152610
C99	C	-0.094766	-1.008973	0.608915
C100	C	0.405234	-0.508973	1.108915
N101	N	-0.139038	-0.964656	0.480553
N102	N	0.360962	-0.464656	0.980553
N103	N	-0.090221	-1.013506	0.519573
N104	N	0.409779	-0.513506	1.019573
H105	H	0.012107	-0.431305	0.057237
H106	H	0.512107	0.068695	0.557237
H107	H	-0.225279	-0.550095	-0.082179
H108	H	0.274721	-0.050095	0.417821
N109	N	-0.243701	-0.396704	-0.084023
N110	N	0.256299	0.103296	0.415977
H111	H	-0.284164	-0.440774	-0.086068
H112	H	0.215836	0.059226	0.413932
H113	H	-0.247790	-0.363448	-0.135984
H114	H	0.252210	0.136552	0.364016
H115	H	-0.522987	-1.118850	-0.056767
H116	H	-0.022987	-0.618850	0.443233
N117	N	-0.107303	-0.418924	-0.157799
N118	N	0.392697	0.081076	0.342201
H119	H	-0.136681	-0.438590	-0.208236
H120	H	0.363319	0.061410	0.291764
H121	H	-0.048005	-0.448536	-0.159063
H122	H	0.451995	0.051464	0.340937
H123	H	-0.237311	-0.866300	0.383101
H124	H	0.262689	-0.366300	0.883101
H125	H	-0.137935	-0.407204	0.138717
H126	H	0.362065	0.092796	0.638717
H127	H	-0.122862	-0.567201	-0.138245
H128	H	0.377138	-0.067201	0.361755
H129	H	0.015379	-0.580190	-0.056885
H130	H	0.515379	-0.080190	0.443115
H131	H	-0.232799	-0.542815	0.084449
H132	H	0.267201	-0.042815	0.584449
N133	N	-0.125138	-0.559912	0.157363
N134	N	0.374862	-0.059912	0.657363
H135	H	-0.075765	-0.603586	0.141081
H136	H	0.424235	-0.103586	0.641081
H137	H	-0.168164	-0.586121	0.192533
H138	H	0.331836	-0.086121	0.692533
N139	N	-0.254264	-0.388701	0.079335
N140	N	0.245736	0.111299	0.579335
H141	H	-0.261316	-0.353280	0.029056
H142	H	0.238684	0.146720	0.529056
H143	H	-0.266934	-0.351582	0.131977
H144	H	0.233066	0.148418	0.631977
N145	N	-0.547259	-0.857582	-0.085870
N146	N	-0.047259	-0.357582	0.414130
H147	H	-0.571968	-0.822509	-0.034895
H148	H	-0.071968	-0.322509	0.465105
H149	H	-0.571864	-0.833176	-0.137578
H150	H	-0.071864	-0.333176	0.362422
N151	N	0.023670	-1.127509	0.605471
N152	N	0.523670	-0.627509	1.105471
H153	H	0.018183	-1.122021	0.543469
H154	H	0.518183	-0.622021	1.043469
H155	H	0.013167	-1.186123	0.620746
H156	H	0.513167	-0.686123	1.120746
H157	H	-0.000010	-1.103822	0.775600
H158	H	0.499990	-0.603822	1.275600
N159	N	-0.671673	-1.134434	-0.075575
N160	N	-0.171673	-0.634434	0.424425
H161	H	-0.712013	-1.099289	-0.110234
H162	H	-0.212013	-0.599289	0.389766
H163	H	-0.698577	-1.184948	-0.056598
H164	H	-0.198577	-0.684948	0.443402
N165	N	-0.542354	-0.975982	0.157522
N166	N	-0.042354	-0.475982	0.657522
H167	H	-0.571768	-0.943900	0.208203
H168	H	-0.071768	-0.443900	0.708203
H169	H	-0.479791	-0.972219	0.158353
H170	H	0.020209	-0.472219	0.658353
N171	N	-0.700828	-0.980322	0.157935
N172	N	-0.200828	-0.480322	0.657935
H173	H	-0.671355	-1.039490	0.159286
H174	H	-0.171355	-0.539490	0.659286
H175	H	-0.763765	-0.982150	0.158724
H176	H	-0.263765	-0.482150	0.658724
H177	H	0.017693	-0.436012	-0.056176
H178	H	0.517693	0.063988	0.443824
N179	N	-0.680726	-1.126569	0.074650
N180	N	-0.180726	-0.626569	0.574650
H181	H	-0.724806	-1.087648	0.108777
H182	H	-0.224806	-0.587648	0.608777
H183	H	-0.631415	-1.143027	0.110000
H184	H	-0.131415	-0.643027	0.610000
N185	N	-0.243704	-0.859880	0.212975
N186	N	0.256296	-0.359880	0.712975
H187	H	-0.303911	-0.868745	0.228176
H188	H	0.196089	-0.368745	0.728176
H189	H	-0.231844	-0.871691	0.150988
H190	H	0.268156	-0.371691	0.650988
H191	H	-0.682424	-0.979860	-0.138595
H192	H	-0.182424	-0.479860	0.361405
H193	H	-0.529326	-1.113284	0.057011
H194	H	-0.029326	-0.613284	0.557011
N195	N	-0.222105	-0.881593	0.787177
N196	N	0.277895	-0.381593	1.287177
H197	H	-0.256070	-0.847598	0.746234
H198	H	0.243930	-0.347598	1.246234
H199	H	-0.191875	-0.842744	0.823459
H200	H	0.308125	-0.342744	1.323459
N201	N	-0.715561	-0.851441	0.084177
N202	N	-0.215561	-0.351441	0.584177
H203	H	-0.671697	-0.810772	0.086231
H204	H	-0.171697	-0.310772	0.586231
H205	H	-0.754085	-0.842094	0.136149
H206	H	-0.254085	-0.342094	0.636149
H207	H	-0.030853	-1.072901	0.383077
H208	H	0.469147	-0.572901	0.883077
N209	N	-0.557446	-0.847867	0.083260
N210	N	-0.057446	-0.347867	0.583260
H211	H	-0.519551	-0.837842	0.033552
H212	H	-0.019551	-0.337842	0.533552
H213	H	-0.528493	-0.835871	0.136404
H214	H	-0.028493	-0.335871	0.636404
H215	H	-0.537656	-0.982904	-0.138197
H216	H	-0.037656	-0.482904	0.361803
H217	H	-0.696651	-0.879389	-0.079027
H218	H	-0.196651	-0.379389	0.420973
H219	H	-0.022796	-1.080957	0.224511
H220	H	0.477204	-0.580957	0.724511
H221	H	-0.198407	-0.905259	0.617050
H222	H	0.301593	-0.405259	1.117050
H223	H	0.009366	-0.574963	0.056894
H224	H	0.509366	-0.074963	0.556894
