data_functionalizedCrystal
_audit_creation_method	'MofGen! by Chris Wilmer'
_symmetry_space_group_name_H-M	'P1'
_symmetry_Int_Tables_number	1
_symmetry_cell_setting	triclinic
loop_
_symmetry_equiv_pos_as_xyz
  x,y,z
_cell_length_a	27.732048
_cell_length_b	27.731996
_cell_length_c	11.892095
_cell_angle_alpha	93.849943
_cell_angle_beta	86.138915
_cell_angle_gamma	82.632022
loop_
_atom_site_label
_atom_site_type_symbol
_atom_site_fract_x
_atom_site_fract_y
_atom_site_fract_z
O1	O	0.644026	0.054409	-0.093871
O2	O	0.503232	0.063154	-0.093907
O3	O	0.578014	-0.011616	-0.093863
O4	O	0.569244	0.129179	-0.093914
O5	O	0.571779	-0.005391	0.094141
O6	O	0.496997	0.069379	0.094097
O7	O	0.637791	0.060634	0.094133
Zn8	Zn	0.566404	0.065995	0.123965
Zn9	Zn	0.574619	0.057793	-0.123738
O10	O	0.563009	0.135404	0.094089
C11	C	0.482108	0.066082	0.000091
C12	C	0.428454	0.065529	0.000078
C13	C	0.574717	-0.026511	0.000143
C14	C	0.574173	-0.080167	0.000154
C15	C	0.574159	-0.416278	-0.102383
C16	C	0.572099	-0.617937	-0.102403
O17	O	0.574702	-0.646893	-0.189560
N18	N	0.568444	-0.639761	0.000076
C19	C	0.565301	-0.611167	0.102569
O20	O	0.562140	-0.634356	0.189734
C21	C	0.567358	-0.409508	0.102588
C22	C	0.571018	-0.387688	0.000101
C23	C	0.577818	-0.394457	-0.204861
C24	C	0.578336	-0.344046	-0.204855
C25	C	0.575195	-0.315455	-0.102371
C26	C	0.571536	-0.337276	0.000107
C27	C	0.564212	-0.380914	0.205079
C28	C	0.564725	-0.330497	0.205075
C29	C	0.568385	-0.308676	0.102588
C30	C	0.568912	-0.258275	0.102598
N31	N	0.572567	-0.236450	0.000118
C32	C	0.575708	-0.265041	-0.102366
C33	C	0.564223	-0.717041	0.102551
C34	C	0.563709	-0.767455	0.102547
C35	C	0.570506	-0.774222	-0.102426
C36	C	0.571023	-0.723807	-0.102420
C37	C	0.567877	-0.695217	0.000071
C38	C	0.576795	-0.159173	-0.102346
C39	C	0.577315	-0.108757	-0.102330
C40	C	0.570515	-0.101995	0.102641
C41	C	0.569999	-0.152406	0.102627
C42	C	0.573137	-0.180995	0.000124
O43	O	0.566305	-0.229288	0.189709
O44	O	0.578858	-0.241841	-0.189518
C45	C	0.573642	-0.466689	-0.102389
C46	C	0.569983	-0.488510	0.000089
C47	C	0.566841	-0.459920	0.102573
C48	C	0.569469	-0.538925	0.000084
C49	C	0.572611	-0.567515	-0.102400
C50	C	0.576265	-0.545691	-0.204880
C51	C	0.576783	-0.495280	-0.204874
C52	C	0.563187	-0.481744	0.205053
C53	C	0.562670	-0.532156	0.205039
C54	C	0.565811	-0.560746	0.102554
C55	C	0.089630	0.106235	0.000112
C56	C	-0.112030	0.104185	0.000123
O57	O	-0.143293	0.141407	0.000158
N58	N	-0.131146	0.059849	0.000137
C59	C	-0.099843	0.016023	0.000156
O60	O	-0.120730	-0.021735	0.000180
C61	C	0.101815	0.018074	0.000153
C62	C	0.120928	0.062412	0.000128
C63	C	0.108744	0.150570	0.000088
C64	C	0.159156	0.151082	0.000079
C65	C	0.190454	0.107259	0.000094
C66	C	0.171341	0.062924	0.000119
C67	C	0.133116	-0.025751	0.000180
C68	C	0.183533	-0.025234	0.000182
C69	C	0.202646	0.019104	0.000157
C70	C	0.253051	0.019614	0.000125
N71	N	0.272167	0.063949	0.000111
C72	C	0.240869	0.107772	0.000096
C73	C	-0.205717	0.014949	0.000155
C74	C	-0.256131	0.014435	0.000154
C75	C	-0.268314	0.102598	0.000123
C76	C	-0.217899	0.103110	0.000116
C77	C	-0.186601	0.059284	0.000141
C78	C	0.346738	0.108844	0.000076
C79	C	0.397155	0.109352	0.000063
C80	C	0.409334	0.021190	0.000099
C81	C	0.358921	0.020682	0.000107
C82	C	0.327624	0.064513	0.000099
O83	O	0.284343	-0.017589	0.000103
O84	O	0.261764	0.145525	0.000097
C85	C	0.039218	0.105723	0.000121
C86	C	0.020104	0.061388	0.000145
C87	C	0.051402	0.017566	0.000161
C88	C	-0.030310	0.060875	0.000144
C89	C	-0.061609	0.104698	0.000129
C90	C	-0.042493	0.149034	0.000115
C91	C	0.007919	0.149546	0.000106
C92	C	0.032287	-0.026770	0.000175
C93	C	-0.018126	-0.027279	0.000182
C94	C	-0.049424	0.016544	0.000167
C95	C	0.658916	0.057705	0.000133
C96	C	0.712570	0.058258	0.000138
C97	C	0.566307	0.150299	0.000081
C98	C	0.566851	0.203954	0.000062
N99	N	0.560801	0.071591	0.293016
N100	N	0.580226	0.052193	-0.292789
C101	C	0.619215	0.013220	0.529698
C102	C	0.615302	0.017135	0.648037
C103	C	0.549060	0.083336	0.648036
C104	C	0.552973	0.079420	0.529697
C105	C	0.588052	0.044361	0.470532
C106	C	0.591967	0.040448	0.352190
C107	C	0.525724	0.106646	0.352191
C108	C	0.521811	0.110562	0.470531
H109	H	0.580296	-0.090994	-0.185791
C110	C	0.561267	-0.299050	0.317818
H111	H	0.559017	-0.319270	0.378847
H112	H	0.533129	-0.275342	0.322075
H113	H	0.589530	-0.283145	0.322094
H114	H	0.580375	-0.417730	-0.288321
H115	H	0.567023	-0.170174	0.186080
H116	H	0.567960	-0.078708	0.186082
C117	C	0.657800	-0.025339	0.464607
H118	H	0.655669	-0.023208	0.385655
H119	H	0.652160	-0.056924	0.484010
H120	H	0.689379	-0.019665	0.483990
C121	C	-0.302749	0.150802	0.000114
H122	H	-0.335510	0.144142	0.000126
H123	H	-0.294823	0.166834	-0.065447
H124	H	-0.299163	0.171165	0.065683
C125	C	0.483229	0.149125	0.535619
H126	H	0.485364	0.146999	0.614572
H127	H	0.451650	0.143461	0.516235
H128	H	0.488880	0.180709	0.516213
H129	H	0.321261	0.144536	0.000073
C130	C	0.558642	-0.556153	0.317782
H131	H	0.556841	-0.531900	0.378813
H132	H	0.586495	-0.579581	0.322065
H133	H	0.530095	-0.571774	0.322027
C134	C	0.649582	-0.017119	0.713116
H135	H	0.671034	-0.038556	0.660927
H136	H	0.630822	-0.035593	0.759294
H137	H	0.668046	0.001661	0.759266
H138	H	0.579763	-0.477518	-0.288329
C139	C	0.579718	-0.577147	-0.317609
H140	H	0.578882	-0.610295	-0.302923
H141	H	0.609397	-0.574180	-0.359720
H142	H	0.552995	-0.566376	-0.359720
C143	C	-0.277150	-0.034337	0.000171
H144	H	-0.251286	-0.060360	0.000191
H145	H	-0.294393	-0.038544	-0.065387
H146	H	-0.298734	-0.034199	0.065743
C147	C	0.074323	0.198779	0.000061
H148	H	0.092935	0.225252	0.000038
H149	H	0.052228	0.202591	0.065616
H150	H	0.056579	0.198241	-0.065514
C151	C	0.559736	-0.450302	0.317792
H152	H	0.557490	-0.470525	0.378816
H153	H	0.531599	-0.426592	0.322064
H154	H	0.588001	-0.434399	0.322061
H155	H	0.520497	0.111876	0.696224
H156	H	-0.202341	0.139214	0.000102
H157	H	0.057765	-0.062457	0.000190
H158	H	0.500351	0.132005	0.304005
C159	C	-0.171295	-0.033263	0.000170
H160	H	-0.189904	-0.059738	0.000166
H161	H	-0.153545	-0.032732	0.065729
H162	H	-0.149205	-0.037067	-0.065401
H163	H	0.579349	-0.182444	-0.185813
C164	C	0.418180	0.158125	0.000034
H165	H	0.452688	0.152156	0.000020
H166	H	0.405244	0.178324	0.065588
H167	H	0.409582	0.173979	-0.065542
C168	C	-0.039147	-0.076053	0.000203
H169	H	-0.073655	-0.070087	0.000198
H170	H	-0.030548	-0.091909	0.065770
H171	H	-0.026210	-0.096251	-0.065361
H172	H	0.581314	-0.326284	-0.288310
C173	C	0.630553	0.001890	0.287104
H174	H	0.628426	0.004020	0.208150
H175	H	0.624912	-0.029696	0.306505
H176	H	0.662132	0.007563	0.306493
H177	H	0.574002	-0.706044	-0.185874
H178	H	0.560736	-0.785218	0.186002
C179	C	0.573957	-0.805677	-0.215156
H180	H	0.573122	-0.838825	-0.200471
H181	H	0.603634	-0.802708	-0.257273
H182	H	0.547231	-0.794907	-0.257261
C183	C	0.560769	-0.685598	0.215299
H184	H	0.558524	-0.705821	0.276323
H185	H	0.532630	-0.661891	0.219571
H186	H	0.589032	-0.669692	0.219569
H187	H	0.561232	-0.398672	0.288535
C188	C	0.112102	-0.074524	0.000224
H189	H	0.137968	-0.100544	0.000250
H190	H	0.094858	-0.078738	-0.065330
H191	H	0.090521	-0.074383	0.065801
H192	H	0.343359	-0.015423	0.000111
C193	C	0.180173	0.199855	0.000073
H194	H	0.154307	0.225878	0.000078
H195	H	0.201759	0.199726	-0.065484
H196	H	0.197412	0.204058	0.065646
H197	H	0.434826	-0.014489	0.000108
C198	C	0.217960	-0.073443	0.000207
H199	H	0.250723	-0.066791	0.000208
H200	H	0.214370	-0.093811	-0.065343
H201	H	0.210029	-0.089464	0.065788
C202	C	-0.076927	0.197238	0.000102
H203	H	-0.109689	0.190578	0.000118
H204	H	-0.069003	0.213267	-0.065464
H205	H	-0.073341	0.217603	0.065667
H206	H	0.023476	0.185651	0.000086
