data_functionalizedCrystal
_audit_creation_method	'MofGen! by Chris Wilmer'
_symmetry_space_group_name_H-M	'P1'
_symmetry_Int_Tables_number	1
_symmetry_cell_setting	triclinic
loop_
_symmetry_equiv_pos_as_xyz
  x,y,z
_cell_length_a	27.354012
_cell_length_b	27.353283
_cell_length_c	27.349551
_cell_angle_alpha	60.005606
_cell_angle_beta	60.011434
_cell_angle_gamma	59.993282
loop_
_atom_site_label
_atom_site_type_symbol
_atom_site_fract_x
_atom_site_fract_y
_atom_site_fract_z
O1	O	0.067635	-0.714267	0.597330
O2	O	0.025429	-0.556105	0.481282
O3	O	0.125575	-0.656186	0.481214
O4	O	-0.032512	-0.614186	0.597397
O5	O	0.158797	-0.622968	0.514367
O6	O	0.058650	-0.522887	0.514434
O7	O	0.100856	-0.681048	0.630482
Zn8	Zn	0.085028	-0.596693	0.577722
Zn9	Zn	0.041257	-0.640460	0.534042
O10	O	0.000709	-0.580967	0.630549
N11	N	0.114901	-0.566828	0.607534
N12	N	0.011389	-0.670331	0.504229
C13	C	0.179404	-0.338196	0.672015
C14	C	0.179501	-0.502386	0.836160
C15	C	0.179415	-0.502363	0.671996
C16	C	0.343611	-0.502373	0.671960
C17	C	0.197478	-0.392371	0.690061
C18	C	0.197534	-0.484321	0.781984
C19	C	0.289434	-0.484312	0.690032
C20	C	0.197486	-0.484308	0.690051
C21	C	0.156398	-0.269238	0.649045
C22	C	0.156418	-0.525342	0.649015
C23	C	0.220484	-0.461329	0.713032
C24	C	0.443889	-0.485097	0.619172
C25	C	0.506571	-0.505993	0.598266
C26	C	0.506589	-0.607412	0.636940
C27	C	0.443909	-0.586515	0.657848
C28	C	0.171510	-0.237888	0.587422
C29	C	0.150593	-0.175201	0.566543
C30	C	0.099458	-0.175218	0.668913
C31	C	0.120375	-0.237905	0.689792
C32	C	0.094789	-0.510201	0.664176
C33	C	0.073888	-0.531091	0.643278
C34	C	0.176239	-0.582263	0.592072
C35	C	0.197142	-0.561373	0.612963
C36	C	0.094933	-0.510244	0.936476
C37	C	0.074073	-0.531151	0.999161
C38	C	0.176453	-0.582335	0.999126
C39	C	0.197312	-0.561429	0.936439
C40	C	0.156551	-0.525382	0.905116
C41	C	0.412561	-0.525357	0.648961
C42	C	-0.098513	-0.688235	0.485867
C43	C	-0.006461	-0.688368	0.394066
C44	C	-0.006645	-0.780264	0.486040
C45	C	-0.006630	-0.688361	0.486097
C46	C	-0.029562	-0.711308	0.463018
N47	N	0.537030	-0.566846	0.607436
O48	O	0.741877	-0.576849	0.459995
O49	O	0.742050	-0.693241	0.618010
O50	O	0.741986	-0.692977	0.517791
O51	O	0.741941	-0.577114	0.560214
O52	O	0.642405	-0.659839	0.551046
O53	O	0.642469	-0.660104	0.651265
O54	O	0.642296	-0.543712	0.493251
Zn55	Zn	0.626572	-0.596646	0.577538
Zn56	Zn	0.757774	-0.640307	0.533723
O57	O	0.642360	-0.543976	0.593469
N58	N	0.847316	-0.670107	0.503818
N59	N	0.114877	-0.144758	0.607577
O60	O	-0.032498	0.060193	0.597441
O61	O	0.125523	0.060193	0.481067
O62	O	0.025289	0.060179	0.481345
O63	O	0.067736	0.060207	0.597163
O64	O	0.058511	-0.039410	0.514543
O65	O	0.158745	-0.039397	0.514265
O66	O	0.000724	-0.039396	0.630638
Zn67	Zn	0.085009	-0.055208	0.577722
Zn68	Zn	0.041238	0.076005	0.533983
O69	O	0.100958	-0.039382	0.630360
N70	N	0.011362	0.165555	0.504130
N71	N	0.115121	-0.566884	1.029592
O72	O	0.104990	-0.714248	1.234528
O73	O	-0.011371	-0.556177	1.234539
O74	O	-0.011103	-0.656395	1.234497
O75	O	0.104722	-0.614030	1.234569
O76	O	0.022090	-0.623190	1.134913
O77	O	0.021822	-0.522972	1.134954
O78	O	0.138182	-0.681044	1.134943
Zn79	Zn	0.085272	-0.596736	1.119137
Zn80	Zn	0.041539	-0.640484	1.250344
O81	O	0.137914	-0.580826	1.134984
N82	N	0.011689	-0.670343	1.339890
C83	C	0.038085	-0.519567	0.481870
C84	C	0.162104	-0.643505	0.481786
C85	C	0.088200	-0.717587	0.629893
C86	C	-0.035819	-0.593649	0.629977
C87	C	0.692280	-0.692701	0.654545
C88	C	0.692203	-0.692374	0.530435
C89	C	0.692063	-0.544251	0.456717
C90	C	0.692144	-0.544580	0.580825
C91	C	0.162000	0.010521	0.481600
C92	C	0.037914	0.010381	0.481984
C93	C	-0.035795	0.010399	0.630065
C94	C	0.088333	0.010415	0.629722
C95	C	-0.010799	-0.519660	1.184747
C96	C	-0.010461	-0.643761	1.184677
C97	C	0.137610	-0.717561	1.184734
C98	C	0.137280	-0.593452	1.184783
H99	H	0.023897	-0.518815	1.024687
O100	O	0.099061	0.010447	0.673189
C101	C	0.059934	0.010418	0.774086
C102	C	0.047700	0.010395	0.724909
H103	H	0.018422	0.010363	0.815918
H104	H	0.071300	0.052108	0.757527
H105	H	0.099161	-0.031248	0.785233
H106	H	0.008467	0.052033	0.713740
H107	H	0.036369	-0.031323	0.741494
O108	O	0.692362	-0.736238	0.708708
C109	C	0.692396	-0.764063	0.807352
C110	C	0.692317	-0.714710	0.746035
H111	H	0.692346	-0.746671	0.837552
H112	H	0.734100	-0.804891	0.801075
H113	H	0.650751	-0.777156	0.828838
H114	H	0.733933	-0.701567	0.724516
H115	H	0.650584	-0.673915	0.752352
H116	H	0.173667	-0.584388	1.184797
O117	O	-0.089891	0.010298	0.673705
C118	C	-0.143339	-0.041262	0.773583
C119	C	-0.082037	-0.041231	0.724211
H120	H	-0.137008	-0.082913	0.814434
H121	H	-0.173553	-0.041307	0.756278
H122	H	-0.164837	0.000441	0.786601
H123	H	-0.060487	-0.082927	0.711171
H124	H	-0.051865	-0.041155	0.741543
H125	H	0.692221	-0.728771	0.521355
O126	O	0.181270	-0.771677	1.184705
C127	C	0.282198	-0.833064	1.184764
C128	C	0.232812	-0.771748	1.184783
H129	H	0.323877	-0.833146	1.184839
H130	H	0.293557	-0.841845	1.143067
H131	H	0.265700	-0.869615	1.226419
H132	H	0.249269	-0.735158	1.143156
H133	H	0.221460	-0.763019	1.226507
O134	O	0.027271	-0.465394	0.438369
C135	C	-0.033426	-0.393264	0.375322
C136	C	-0.021236	-0.454632	0.424578
H137	H	-0.072652	-0.384538	0.364166
H138	H	0.008103	-0.393050	0.333505
H139	H	-0.044778	-0.356751	0.391862
H140	H	-0.009899	-0.491179	0.408095
H141	H	-0.062774	-0.454795	0.466385
O142	O	0.055311	-0.475314	0.906079
C143	C	-0.025838	-0.467279	0.886958
C144	C	0.019010	-0.506901	0.921409
H145	H	-0.055207	-0.492796	0.899349
H146	H	-0.000379	-0.454947	0.836761
H147	H	-0.055156	-0.424737	0.899290
H148	H	0.048339	-0.549468	0.909126
H149	H	-0.006486	-0.519184	0.971597
O150	O	0.216130	-0.617363	1.029460
C151	C	0.319879	-0.665901	1.022809
C152	C	0.275012	-0.626230	0.988381
H153	H	0.367495	-0.673072	0.989612
H154	H	0.312717	-0.711017	1.052130
H155	H	0.312636	-0.642944	1.052181
H156	H	0.282228	-0.649134	0.958977
H157	H	0.282185	-0.581116	0.959099
O158	O	0.257166	-0.576206	0.905951
C159	C	0.340135	-0.624402	0.835130
C160	C	0.272348	-0.607718	0.869627
H161	H	0.352429	-0.649871	0.805744
H162	H	0.365712	-0.653786	0.868261
H163	H	0.352442	-0.581856	0.805813
H164	H	0.259986	-0.650230	0.898945
H165	H	0.246808	-0.578311	0.836464
O166	O	0.692022	-0.500727	0.402539
C167	C	0.691893	-0.472871	0.303927
C168	C	0.691956	-0.522219	0.365250
H169	H	0.691827	-0.490224	0.273766
H170	H	0.733554	-0.459785	0.282364
H171	H	0.650205	-0.432048	0.310271
H172	H	0.733615	-0.563073	0.358958
H173	H	0.650267	-0.535254	0.386792
H174	H	0.209407	-0.611608	0.562721
H175	H	-0.081227	-0.584696	0.666460
H176	H	0.207509	-0.652460	0.445301
H177	H	0.692134	-0.508185	0.589902
H178	H	0.207290	0.010797	0.444973
H179	H	-0.047330	-0.474261	1.184750
O180	O	0.055204	-0.475111	0.699101
C181	C	-0.025927	-0.382863	0.707145
C182	C	0.018881	-0.422537	0.667523
H183	H	-0.055315	-0.340354	0.681635
H184	H	-0.000436	-0.370481	0.719466
H185	H	-0.055232	-0.408408	0.749690
H186	H	0.048197	-0.397029	0.624953
H187	H	-0.006648	-0.434922	0.655250
O188	O	0.014017	-0.516461	0.658106
C189	C	-0.079835	-0.521238	0.737601
C190	C	-0.012039	-0.537853	0.720891
H191	H	-0.100923	-0.538515	0.788363
H192	H	-0.087809	-0.542375	0.716515
H193	H	-0.100969	-0.470479	0.720290
H194	H	0.009140	-0.588604	0.738198
H195	H	-0.004108	-0.516674	0.741968
O196	O	0.257028	-0.576149	0.598195
C197	C	0.356343	-0.629058	0.545146
C198	C	0.288540	-0.612386	0.561842
H199	H	0.381840	-0.658348	0.515742
H200	H	0.368753	-0.654623	0.587647
H201	H	0.368630	-0.586503	0.519654
H202	H	0.276204	-0.654910	0.587319
H203	H	0.276165	-0.586798	0.519320
H204	H	0.097215	-0.763020	0.666340
H205	H	-0.046832	-0.652809	1.184615
O206	O	0.413571	-0.625703	0.686750
C207	C	0.420214	-0.728509	0.722931
C208	C	0.454645	-0.684190	0.690177
H209	H	0.453407	-0.775807	0.725723
H210	H	0.390867	-0.715971	0.697310
H211	H	0.390870	-0.726560	0.770049
H212	H	0.484021	-0.686115	0.643059
H213	H	0.483954	-0.696742	0.715844
O214	O	0.536916	-0.466801	0.569314
C215	C	0.530290	-0.364007	0.533182
C216	C	0.495849	-0.408324	0.565971
H217	H	0.497102	-0.316721	0.530479
H218	H	0.559598	-0.365881	0.486033
H219	H	0.559672	-0.376625	0.558799
H220	H	0.466434	-0.395737	0.540404
H221	H	0.466578	-0.406443	0.613122
H222	H	0.532110	-0.657210	0.644171
H223	H	0.418366	-0.435297	0.611936
O224	O	0.026994	0.010328	0.438656
C225	C	-0.044159	0.010311	0.411283
C226	C	-0.031872	0.010368	0.460406
H227	H	-0.091756	0.010356	0.428845
H228	H	-0.011042	-0.031388	0.398218
H229	H	-0.038785	0.051968	0.370398
H230	H	-0.037254	-0.031261	0.501322
H231	H	-0.064987	0.052094	0.473420
H232	H	0.162897	-0.149674	0.516363
O233	O	0.206412	-0.268296	0.547816
C234	C	0.214392	-0.287435	0.466697
C235	C	0.174798	-0.252969	0.511526
H236	H	0.188853	-0.275047	0.437337
H237	H	0.226736	-0.337632	0.492174
H238	H	0.256924	-0.275111	0.437365
H239	H	0.132241	-0.265243	0.540869
H240	H	0.162502	-0.202781	0.486012
O241	O	0.064541	-0.144846	0.708552
C242	C	0.056596	-0.125656	0.789621
C243	C	0.096198	-0.160096	0.744770
H244	H	0.082179	-0.137963	0.818906
H245	H	0.014078	-0.138001	0.819025
H246	H	0.044223	-0.075470	0.764103
H247	H	0.108616	-0.210291	0.770239
H248	H	0.138687	-0.147701	0.715366
O249	O	0.105817	-0.268406	0.749642
C250	C	0.141921	-0.339110	0.832608
C251	C	0.158483	-0.304624	0.764814
H252	H	0.184490	-0.368390	0.844898
H253	H	0.116432	-0.368515	0.845019
H254	H	0.112570	-0.305914	0.858107
H255	H	0.187852	-0.337776	0.739268
H256	H	0.183941	-0.275210	0.752449
