data_functionalizedCrystal
_audit_creation_method	'MofGen! by Chris Wilmer'
_symmetry_space_group_name_H-M	'P1'
_symmetry_Int_Tables_number	1
_symmetry_cell_setting	triclinic
loop_
_symmetry_equiv_pos_as_xyz
  x,y,z
_cell_length_a	12.645331
_cell_length_b	29.839131
_cell_length_c	12.645324
_cell_angle_alpha	89.960392
_cell_angle_beta	89.977038
_cell_angle_gamma	90.040399
loop_
_atom_site_label
_atom_site_type_symbol
_atom_site_fract_x
_atom_site_fract_y
_atom_site_fract_z
Zn1	Zn	1.620559	-0.178831	-0.599388
Zn2	Zn	1.620367	-0.253972	-0.422104
Zn3	Zn	1.443273	-0.178856	-0.422133
Zn4	Zn	1.443182	-0.253934	-0.599320
O5	O	1.531845	-0.216398	-0.510736
O6	O	1.768881	-0.188805	-0.575888
O7	O	1.596832	-0.244034	-0.273761
O8	O	1.466909	-0.115985	-0.445687
O9	O	1.768740	-0.244011	-0.445638
O10	O	1.597161	-0.115968	-0.575916
O11	O	1.466722	-0.188846	-0.273782
O12	O	1.294914	-0.188809	-0.445620
O13	O	1.466755	-0.243945	-0.747676
O14	O	1.294847	-0.243969	-0.575799
O15	O	1.597073	-0.188768	-0.747727
O16	O	1.596744	-0.316834	-0.445571
O17	O	1.466568	-0.316806	-0.575771
C18	C	1.256416	-0.216388	-0.510706
C19	C	1.138586	-0.216394	-0.510718
C20	C	0.971028	-0.181533	-0.429274
C21	C	1.093588	-0.181624	-0.428915
C22	C	1.094019	-0.263721	-0.480188
C23	C	0.971421	-0.263531	-0.479632
C24	C	0.971449	-0.204378	-0.623006
C25	C	1.094055	-0.203320	-0.622382
C26	C	1.531654	-0.333121	-0.510684
C27	C	1.531669	-0.383055	-0.510697
C28	C	1.599752	-0.692701	-0.443041
C29	C	1.599883	-0.880374	-0.443082
O30	O	1.657617	-0.904640	-0.385518
N31	N	1.532065	-0.903840	-0.510816
C32	C	1.464215	-0.880386	-0.578550
O33	O	1.406543	-0.904652	-0.636171
C34	C	1.464091	-0.692714	-0.578514
C35	C	1.531905	-0.669249	-0.510767
C36	C	1.667561	-0.669236	-0.375300
C37	C	1.667524	-0.622321	-0.375287
C38	C	1.599677	-0.598870	-0.443013
C39	C	1.531867	-0.622334	-0.510753
C40	C	1.396247	-0.669260	-0.646252
C41	C	1.396224	-0.622339	-0.646239
C42	C	1.464038	-0.598875	-0.578492
C43	C	1.463983	-0.551967	-0.578466
N44	N	1.531800	-0.528501	-0.510732
C45	C	1.599647	-0.551952	-0.443005
C46	C	1.464284	-0.978916	-0.578563
C47	C	1.464314	-1.025834	-0.578571
C48	C	1.599983	-1.025819	-0.443104
C49	C	1.599947	-0.978900	-0.443091
C50	C	1.532101	-0.955450	-0.510829
C51	C	1.599563	-0.453426	-0.442981
C52	C	1.599516	-0.406507	-0.442970
C53	C	1.463852	-0.406526	-0.578441
C54	C	1.463894	-0.453441	-0.578448
C55	C	1.531758	-0.476890	-0.510715
O56	O	1.406287	-0.527672	-0.636009
O57	O	1.657327	-0.527678	-0.385409
C58	C	1.599789	-0.739616	-0.443054
C59	C	1.531980	-0.763080	-0.510794
C60	C	1.464133	-0.739629	-0.578521
C61	C	1.532009	-0.809998	-0.510802
C62	C	1.599856	-0.833449	-0.443076
C63	C	1.667674	-0.809983	-0.375341
C64	C	1.667636	-0.763067	-0.375328
C65	C	1.396316	-0.763096	-0.646256
C66	C	1.396358	-0.810011	-0.646263
C67	C	1.464205	-0.833462	-0.578536
C68	C	1.808351	-0.216409	-0.510768
C69	C	1.926181	-0.216414	-0.510781
C70	C	1.531925	-0.216349	-0.787242
C71	C	1.531959	-0.216329	-0.905072
C72	C	1.532067	-0.099220	-0.510812
C73	C	1.532161	-0.049285	-0.510845
C74	C	1.614261	-0.181717	-1.072668
C75	C	1.613997	-0.181592	-0.950108
C76	C	1.420289	-0.203463	-0.949554
C77	C	1.420789	-0.203200	-1.072153
C78	C	1.560420	-0.263857	-1.072254
C79	C	1.562864	-0.263618	-0.949649
C80	C	1.531827	-0.216415	-0.235307
C81	C	1.531999	-0.216309	-0.117477
H82	H	0.942445	-0.229783	-0.683735
Br83	Br	1.691554	-0.374665	-0.351020
H84	H	1.722747	-0.603219	-0.320125
H85	H	1.408677	-0.472547	-0.633616
Br86	Br	1.470246	-0.308889	-0.898557
Br87	Br	1.460552	-0.306815	-1.120541
H88	H	1.655167	-0.959798	-0.387927
Br89	Br	1.142383	-0.194880	-0.290303
H90	H	1.654826	-0.472513	-0.387828
Br91	Br	1.372198	-0.947098	-0.670501
Br92	Br	1.759654	-0.701054	-0.283375
H93	H	1.655227	-1.044921	-0.387958
Br94	Br	1.699840	-0.279788	-0.901204
Br95	Br	1.143821	-0.123130	-0.460812
H96	H	1.595689	-0.146689	-1.103503
Br97	Br	1.142638	-0.145276	-0.660769
Br98	Br	0.919576	-0.194635	-0.291482
Br99	Br	0.921981	-0.122861	-0.460825
H100	H	1.640424	-0.275570	-1.103236
Br101	Br	1.145107	-0.242576	-0.729021
H102	H	1.396692	-0.168443	-1.100773
Br103	Br	0.923652	-0.280541	-0.342890
H104	H	1.409083	-1.044935	-0.633727
Br105	Br	1.582640	-0.122885	-0.901260
Br106	Br	1.379386	-0.146176	-0.898425
Br107	Br	0.920013	-0.147860	-0.669278
H108	H	0.941750	-0.290400	-0.536408
H109	H	1.341020	-0.688356	-0.701414
H110	H	1.124664	-0.274103	-0.399026
Br111	Br	1.759746	-0.841819	-0.283423
Br112	Br	1.142573	-0.308197	-0.576035
H113	H	1.340977	-0.603248	-0.701402
H114	H	1.357331	-0.227883	-0.920379
Br115	Br	1.371782	-0.374690	-0.670355
Br116	Br	1.304312	-0.841850	-0.738211
H117	H	1.722857	-0.743966	-0.320162
H118	H	1.341068	-0.744005	-0.701408
H119	H	1.696804	-0.189650	-0.920035
H120	H	1.697342	-0.189673	-1.102158
Br121	Br	1.315148	-0.243358	-1.121561
