data_functionalizedCrystal
_audit_creation_method	'MofGen! by Chris Wilmer'
_symmetry_space_group_name_H-M	'P1'
_symmetry_Int_Tables_number	1
_symmetry_cell_setting	triclinic
loop_
_symmetry_equiv_pos_as_xyz
  x,y,z
_cell_length_a	20.299480
_cell_length_b	20.298645
_cell_length_c	20.294903
_cell_angle_alpha	60.007695
_cell_angle_beta	60.015306
_cell_angle_gamma	59.991039
loop_
_atom_site_label
_atom_site_type_symbol
_atom_site_fract_x
_atom_site_fract_y
_atom_site_fract_z
O1	O	0.091305	-0.962534	0.804873
O2	O	0.034397	-0.749399	0.648508
O3	O	0.169355	-0.884263	0.648401
O4	O	-0.043654	-0.827670	0.804979
O5	O	0.214132	-0.839502	0.693072
O6	O	0.079173	-0.704639	0.693178
O7	O	0.136081	-0.917774	0.849544
Zn8	Zn	0.114736	-0.804099	0.778453
Zn9	Zn	0.055742	-0.863073	0.719598
O10	O	0.001122	-0.782910	0.849650
N11	N	0.155000	-0.763857	0.818624
N12	N	0.015485	-0.903322	0.679427
C13	C	0.179343	-0.615641	0.842971
C14	C	0.179443	-0.739552	0.966834
C15	C	0.303264	-0.739536	0.842917
C16	C	0.179356	-0.739528	0.842952
C17	C	0.210353	-0.708565	0.873918
C18	C	-0.132622	-0.927446	0.654695
C19	C	-0.008595	-0.927622	0.530981
C20	C	-0.008820	-1.051459	0.654914
C21	C	-0.008800	-0.927618	0.654995
C22	C	-0.039709	-0.958538	0.623897
N23	N	0.376268	-0.763873	0.818558
O24	O	0.652281	-0.777347	0.619856
O25	O	0.652556	-0.934198	0.832777
O26	O	0.652445	-0.933836	0.697731
O27	O	0.652392	-0.777709	0.754902
O28	O	0.518259	-0.889182	0.742556
O29	O	0.518369	-0.889544	0.877602
O30	O	0.518095	-0.732693	0.664680
Zn31	Zn	0.496927	-0.804029	0.778258
Zn32	Zn	0.673724	-0.862862	0.719200
O33	O	0.518205	-0.733055	0.799726
N34	N	0.794383	-0.903019	0.678891
N35	N	0.154981	-0.542636	0.818657
O36	O	-0.043628	-0.266455	0.805024
O37	O	0.169291	-0.266451	0.648191
O38	O	0.034217	-0.266468	0.648577
O39	O	0.091446	-0.266438	0.804638
O40	O	0.078998	-0.400670	0.693303
O41	O	0.214071	-0.400653	0.692918
O42	O	0.001152	-0.400657	0.849750
Zn43	Zn	0.114722	-0.421963	0.778435
Zn44	Zn	0.055722	-0.245145	0.719506
O45	O	0.136226	-0.400640	0.849364
N46	N	0.015453	-0.124472	0.679286
N47	N	0.155155	-0.763898	1.039838
O48	O	0.141555	-0.962488	1.315987
O49	O	-0.015254	-0.749480	1.316022
O50	O	-0.014890	-0.884527	1.315962
O51	O	0.141192	-0.827441	1.316047
O52	O	0.029815	-0.839777	1.181768
O53	O	0.029452	-0.704730	1.181828
O54	O	0.186261	-0.917739	1.181793
Zn55	Zn	0.114954	-0.804130	1.160504
Zn56	Zn	0.056053	-0.863089	1.337311
O57	O	0.185897	-0.782692	1.181853
N58	N	0.015850	-0.903330	1.457977
C59	C	0.051451	-0.700162	0.649301
C60	C	0.218580	-0.867175	0.649169
C61	C	0.119026	-0.967011	0.848750
C62	C	-0.048103	-0.799998	0.848882
C63	C	0.585495	-0.933471	0.882014
C64	C	0.585361	-0.933023	0.714775
C65	C	0.585151	-0.733419	0.615444
C66	C	0.585291	-0.733869	0.782682
C67	C	0.218449	-0.333386	0.648902
C68	C	0.051232	-0.333573	0.649435
C69	C	-0.048061	-0.333556	0.848984
C70	C	0.119212	-0.333537	0.848507
C71	C	-0.014496	-0.700269	1.248929
C72	C	-0.014037	-0.867500	1.248828
C73	C	0.185503	-0.966949	1.248886
C74	C	0.185054	-0.799709	1.248957
H75	H	0.279759	-0.879241	0.599998
O76	O	0.585555	-0.992298	0.954930
C77	C	0.585622	-1.061769	0.954885
H78	H	0.560166	-1.043886	0.907125
H79	H	0.650019	-1.105599	0.940748
C80	C	0.564357	-1.124565	1.097109
C81	C	0.533085	-1.102601	1.038454
H82	H	0.531953	-1.149756	1.148659
H83	H	0.564315	-1.077763	1.097140
H84	H	0.618020	-1.161087	1.085318
H85	H	0.479426	-1.066073	1.050241
H86	H	0.533117	-1.149399	1.038427
O87	O	0.584906	-0.674592	0.542559
C88	C	0.515381	-0.606625	0.553256
H89	H	0.466867	-0.626110	0.612356
H90	H	0.531067	-0.561064	0.555119
C91	C	0.543364	-0.543676	0.410002
C92	C	0.483776	-0.567609	0.482587
H93	H	0.523870	-0.519606	0.366409
H94	H	0.590207	-0.589465	0.402794
H95	H	0.556430	-0.505712	0.411566
H96	H	0.470718	-0.605579	0.481026
H97	H	0.436930	-0.521825	0.489792
O98	O	0.585415	-0.675378	0.797186
C99	C	0.654848	-0.653608	0.741832
H100	H	0.703434	-0.705283	0.718142
H101	H	0.639056	-0.597412	0.689333
C102	C	0.626721	-0.572465	0.813381
C103	C	0.686397	-0.635937	0.784290
H104	H	0.646181	-0.561561	0.839569
H105	H	0.579941	-0.587129	0.850673
H106	H	0.613567	-0.525643	0.769626
H107	H	0.699544	-0.682760	0.828045
H108	H	0.733181	-0.621280	0.747006
H109	H	0.234736	-1.028122	1.248866
O110	O	0.243480	-0.785000	1.248939
C111	C	0.214085	-0.705688	1.248982
H112	H	0.162283	-0.667497	1.223574
H113	H	0.191593	-0.706879	1.313369
C114	C	0.345958	-0.715936	1.227581
C115	C	0.282338	-0.669028	1.196367
H116	H	0.388060	-0.693323	1.195129
H117	H	0.365762	-0.769371	1.227555
H118	H	0.327204	-0.716924	1.281236
H119	H	0.301090	-0.668048	1.142717
H120	H	0.262538	-0.615591	1.196383
H121	H	0.279471	-0.333012	0.599542
O122	O	0.585276	-0.991566	0.700316
C123	C	0.515823	-1.013309	0.755642
H124	H	0.492688	-0.997242	0.811575
H125	H	0.467111	-0.979265	0.726429
C126	C	0.565424	-1.124484	0.711284
C127	C	0.537013	-1.104756	0.779985
H128	H	0.578493	-1.180892	0.726298
H129	H	0.612215	-1.109834	0.674008
H130	H	0.524826	-1.096107	0.686946
H131	H	0.577615	-1.133124	0.804316
H132	H	0.490229	-1.119413	0.817266
H133	H	0.038975	-0.333574	0.600406
O134	O	-0.121070	-0.333506	0.907622
C135	C	-0.171301	-0.333531	0.878596
H136	H	-0.149473	-0.308143	0.809865
H137	H	-0.169119	-0.397914	0.899124
C138	C	-0.285411	-0.312065	0.996421
C139	C	-0.258606	-0.280876	0.912005
H140	H	-0.339266	-0.279588	1.017031
H141	H	-0.251569	-0.312051	1.015978
H142	H	-0.283587	-0.365716	1.013516
H143	H	-0.260421	-0.227229	0.894911
H144	H	-0.292450	-0.280880	0.892445
O145	O	-0.072587	-0.882046	1.248873
C146	C	-0.140657	-0.873055	1.318336
H147	H	-0.121383	-0.881830	1.366971
H148	H	-0.186359	-0.810032	1.302615
C149	C	-0.202986	-0.925736	1.290019
C150	C	-0.179311	-0.936521	1.349755
H151	H	-0.226833	-0.964881	1.309398
H152	H	-0.157127	-0.931790	1.243218
H153	H	-0.241067	-0.873214	1.276923
H154	H	-0.141223	-0.989037	1.362842
H155	H	-0.225165	-0.930476	1.396558
O156	O	0.036808	-0.627092	0.590785
C157	C	-0.042478	-0.577029	0.620063
H158	H	-0.080710	-0.615961	0.671878
H159	H	-0.041260	-0.536302	0.642507
C160	C	-0.032129	-0.476952	0.488093
C161	C	-0.079088	-0.524769	0.551729
H162	H	-0.054712	-0.444712	0.445941
H163	H	0.021289	-0.510678	0.468368
H164	H	-0.031118	-0.443020	0.506807
H165	H	-0.080090	-0.558707	0.533018
H166	H	-0.132507	-0.491047	0.571450
H167	H	0.131184	-1.028235	0.897860
O168	O	-0.073208	-0.627253	1.248795
C169	C	-0.094891	-0.591537	1.179294
H170	H	-0.043073	-0.618233	1.130712
H171	H	-0.150903	-0.603859	1.194985
C172	C	-0.176555	-0.467029	1.207470
C173	C	-0.112908	-0.499812	1.147800
H174	H	-0.187672	-0.410448	1.188045
H175	H	-0.161949	-0.491092	1.254297
H176	H	-0.223224	-0.477305	1.220542
H177	H	-0.066237	-0.489545	1.134737
H178	H	-0.127506	-0.475745	1.100970
O179	O	-0.121121	-0.785467	0.907468
C180	C	-0.171269	-0.706185	0.878292
H181	H	-0.132419	-0.667872	0.826474
H182	H	-0.212023	-0.707407	0.855883
C183	C	-0.271195	-0.716741	1.010335
C184	C	-0.223478	-0.669683	0.946695
H185	H	-0.303403	-0.694225	1.052529
H186	H	-0.237411	-0.770156	1.029991
H187	H	-0.305149	-0.717755	0.991650
H188	H	-0.189518	-0.668677	0.965378
H189	H	-0.257258	-0.616266	0.927044
H190	H	0.131466	-0.333527	0.897533
