data_functionalizedCrystal
_audit_creation_method	'MofGen! by Chris Wilmer'
_symmetry_space_group_name_H-M	'P1'
_symmetry_Int_Tables_number	1
_symmetry_cell_setting	triclinic
loop_
_symmetry_equiv_pos_as_xyz
  x,y,z
_cell_length_a	19.805407
_cell_length_b	16.625546
_cell_length_c	19.805399
_cell_angle_alpha	90.027867
_cell_angle_beta	90.019573
_cell_angle_gamma	90.022468
loop_
_atom_site_label
_atom_site_type_symbol
_atom_site_fract_x
_atom_site_fract_y
_atom_site_fract_z
Zn1	Zn	1.034754	-0.321020	0.382718
Zn2	Zn	1.034677	-0.455857	0.269529
Zn3	Zn	0.921569	-0.321043	0.269543
Zn4	Zn	0.921540	-0.455815	0.382676
O5	O	0.978135	-0.388434	0.326117
O6	O	1.129461	-0.338915	0.367716
O7	O	1.019652	-0.438001	0.174815
O8	O	0.936628	-0.208207	0.284579
O9	O	1.129404	-0.437980	0.284556
O10	O	1.019784	-0.208191	0.367729
O11	O	0.936553	-0.338953	0.174825
O12	O	0.826848	-0.338912	0.284538
O13	O	0.936579	-0.437907	0.477398
O14	O	0.826827	-0.437928	0.367657
O15	O	1.019756	-0.338874	0.477429
O16	O	1.019625	-0.568684	0.284515
O17	O	0.936504	-0.568653	0.367644
C18	C	0.802279	-0.388418	0.326095
C19	C	0.727047	-0.388431	0.326102
C20	C	0.978071	-0.597925	0.326088
C21	C	0.978105	-0.687546	0.326099
C22	C	0.691710	-0.440067	0.369311
C23	C	0.621021	-0.440068	0.369321
C24	C	0.585671	-0.388437	0.326117
C25	C	0.621014	-0.336796	0.282905
C26	C	0.691701	-0.336791	0.282899
C27	C	0.335941	-0.336814	0.282927
C28	C	0.265248	-0.336825	0.282935
C29	C	0.265261	-0.440091	0.369349
C30	C	0.335948	-0.440086	0.369343
C31	C	0.371284	-0.388442	0.326134
C32	C	0.447932	-0.388440	0.326125
C33	C	0.509024	-0.388443	0.326122
C34	C	0.978224	-1.015721	0.326169
C35	C	0.978189	-0.924413	0.326152
C36	C	0.978164	-0.851636	0.326134
C37	C	0.978130	-0.760322	0.326117
C38	C	1.154678	-0.388450	0.326139
C39	C	1.229910	-0.388457	0.326149
C40	C	0.978173	-0.388383	0.502660
C41	C	0.978189	-0.388361	0.577892
C42	C	0.978218	-0.178125	0.326160
C43	C	0.978253	-0.088504	0.326178
C44	C	0.978136	-0.388426	0.150261
C45	C	0.978251	-0.388221	0.075029
C46	C	1.021501	-0.336792	0.613253
C47	C	1.021508	-0.336769	0.683941
C48	C	0.978206	-0.388319	0.719267
C49	C	0.934889	-0.439890	0.683901
C50	C	0.934880	-0.439909	0.613214
C51	C	0.934928	-0.439815	0.968974
C52	C	0.934942	-0.439794	1.039667
C53	C	1.021556	-0.336675	1.039702
C54	C	1.021546	-0.336694	0.969015
C55	C	0.978227	-0.388262	0.933655
C56	C	0.978219	-0.388285	0.857006
C57	C	0.978217	-0.388300	0.795914
H58	H	0.720486	-0.482113	0.404491
H59	H	0.364726	-0.482132	0.404522
Cl60	Cl	0.380354	-0.271888	0.228609
H61	H	0.592253	-0.482116	0.404506
H62	H	0.236481	-0.482139	0.404534
H63	H	0.592226	-0.294754	0.247730
Cl64	Cl	1.075987	-0.271888	0.924609
H65	H	0.899665	-0.481817	0.940193
Cl66	Cl	0.880450	-0.504694	0.728311
Cl67	Cl	0.736125	-0.271873	0.228578
Cl68	Cl	1.075944	-0.271986	0.568850
Cl69	Cl	1.075989	-0.271972	0.728393
H70	H	1.056826	-0.294683	1.068501
H71	H	0.899604	-0.481894	0.584423
Cl72	Cl	0.220810	-0.271911	0.228618
Cl73	Cl	0.880501	-0.504605	1.084075
