data_functionalizedCrystal
_audit_creation_method	'MofGen! by Chris Wilmer'
_symmetry_space_group_name_H-M	'P1'
_symmetry_Int_Tables_number	1
_symmetry_cell_setting	triclinic
loop_
_symmetry_equiv_pos_as_xyz
  x,y,z
_cell_length_a	15.698487
_cell_length_b	21.606444
_cell_length_c	21.606444
_cell_angle_alpha	90.001146
_cell_angle_beta	60.003238
_cell_angle_gamma	59.998136
loop_
_atom_site_label
_atom_site_type_symbol
_atom_site_fract_x
_atom_site_fract_y
_atom_site_fract_z
Zr1	Zr	0.932358	0.596246	-0.081191
O2	O	1.110068	0.497419	-0.180013
O3	O	0.754647	0.626542	-0.050899
O4	O	0.932350	0.626542	-0.180013
O5	O	0.932371	0.497419	0.050951
O6	O	0.932344	0.728396	-0.180011
O7	O	0.932365	0.497419	-0.050899
O8	O	0.614466	0.728396	0.050951
O9	O	1.250250	0.497419	-0.180011
O10	O	0.827738	0.715475	-0.037976
O11	O	0.827747	0.639462	0.038032
O12	O	1.036969	0.639462	-0.113983
O13	O	1.036978	0.563450	-0.037975
Zr14	Zr	0.932358	0.758691	0.081251
Zr15	Zr	0.932348	0.758692	-0.081188
Zr16	Zr	0.932367	0.596246	0.081247
Zr17	Zr	1.155931	0.596246	-0.081187
Zr18	Zr	0.708785	0.758692	0.081247
O19	O	1.110068	0.728396	0.050959
O20	O	1.110055	0.728396	-0.180008
O21	O	1.110082	0.497419	0.050954
O22	O	0.754647	0.857518	0.180073
O23	O	0.754633	0.857519	-0.050894
O24	O	0.754661	0.626542	0.180068
O25	O	0.932344	0.857518	-0.050891
O26	O	0.932365	0.728395	0.180073
O27	O	0.932371	0.626541	0.180071
O28	O	0.932350	0.857518	0.050959
O29	O	1.250242	0.626542	-0.180008
O30	O	0.614473	0.728396	0.180068
O31	O	0.614466	0.857518	0.180070
O32	O	0.614458	0.857519	0.050953
O33	O	1.250257	0.497419	-0.050894
O34	O	1.250250	0.626541	-0.050891
O35	O	0.827747	0.715475	0.114043
O36	O	0.827738	0.791488	0.038035
O37	O	1.036969	0.715475	-0.037972
O38	O	1.036978	0.639462	0.038035
C39	C	0.652702	0.677469	0.000025
C40	C	0.557789	0.677469	0.000024
C41	C	0.932370	0.677468	0.203216
C42	C	0.932374	0.677468	0.272175
C43	C	0.932346	0.880663	0.000034
C44	C	0.932342	0.949626	0.000036
C45	C	0.384007	0.677467	0.000037
C46	C	0.480712	0.677467	0.000032
C47	C	1.212013	0.677468	0.000035
C48	C	1.306926	0.677468	0.000036
C49	C	0.932370	0.474274	0.000026
C50	C	0.932374	0.405312	0.000024
C51	C	0.823126	1.021702	0.039712
C52	C	0.823129	1.086497	0.039708
C53	C	0.932350	1.079214	0.000031
C54	C	1.041574	1.007130	-0.039650
C55	C	1.041569	0.942336	-0.039650
C56	C	1.041595	1.268433	-0.039653
C57	C	1.041591	1.333234	-0.039649
C58	C	0.823155	1.412593	0.039705
C59	C	0.823150	1.347800	0.039705
C60	C	0.932374	1.275722	0.000021
C61	C	0.932369	1.205464	0.000025
C62	C	0.932356	1.149470	0.000031
C63	C	0.932346	0.677469	-0.203156
C64	C	0.932342	0.677469	-0.272115
C65	C	1.041590	0.637792	0.264899
C66	C	1.041586	0.637788	0.329697
C67	C	0.932366	0.677466	0.401769
C68	C	0.823142	0.717144	0.409043
C69	C	0.823146	0.717143	0.344247
C70	C	0.823121	0.717150	0.670362
C71	C	0.823125	0.717150	0.735160
C72	C	1.041561	0.637796	0.655811
C73	C	1.041565	0.637794	0.591015
C74	C	0.932342	0.677469	0.598295
C75	C	0.932347	0.677471	0.528034
C76	C	0.932360	0.677469	0.472029
C77	C	0.652690	0.880664	0.000030
C78	C	0.557773	0.949626	0.000030
C79	C	0.652714	0.677469	0.203211
C80	C	0.557806	0.677469	0.272169
C81	C	0.652702	0.880663	0.203216
C82	C	0.557789	0.949626	0.272175
C83	C	1.212013	0.474274	-0.203156
C84	C	1.306926	0.405312	-0.272115
C85	C	1.212026	0.474274	0.000030
C86	C	1.306942	0.405311	0.000030
C87	C	1.212001	0.677469	-0.203151
C88	C	1.306910	0.677469	-0.272109
C89	C	0.513200	0.942334	-0.039654
C90	C	0.424028	1.007125	-0.039669
C91	C	0.379425	1.079208	0.000004
C92	C	0.424008	1.086499	0.039689
C93	C	0.513184	1.021708	0.039699
C94	C	0.513236	0.717146	0.344236
C95	C	0.424071	0.717143	0.409036
C96	C	0.379473	0.677467	0.401766
C97	C	0.424052	0.637784	0.329692
C98	C	0.513220	0.637783	0.264894
C99	C	0.513213	1.021696	0.264884
C100	C	0.424045	1.086499	0.329672
C101	C	0.379449	1.079231	0.401751
C102	C	0.424034	1.007154	0.409041
C103	C	0.513207	0.942352	0.344253
C104	C	1.351514	0.333242	-0.264824
C105	C	1.440709	0.268438	-0.329612
C106	C	1.485310	0.275706	-0.401691
C107	C	1.440719	0.347784	-0.408981
C108	C	1.351531	0.412586	-0.344193
C109	C	1.351525	0.412604	0.039707
C110	C	1.440722	0.347812	0.039705
C111	C	1.485328	0.275729	0.000029
C112	C	1.440741	0.268439	-0.039653
C113	C	1.351552	0.333229	-0.039654
C114	C	1.351480	0.717153	-0.264816
C115	C	1.440645	0.717168	-0.329603
C116	C	1.485244	0.677493	-0.401682
C117	C	1.440665	0.637808	-0.408975
C118	C	1.351496	0.637798	-0.344188
H119	H	0.734195	1.145183	0.072005
N120	N	0.375997	0.759948	0.486766
H121	H	0.417776	0.785088	0.481533
H122	H	0.286473	0.799837	0.515381
H123	H	1.130537	1.327295	-0.071957
H124	H	1.557932	0.222934	-0.454439
N125	N	0.375955	0.999252	-0.082475
H126	H	0.417739	0.943755	-0.107598
H127	H	0.286432	1.024409	-0.046051
N128	N	0.561250	1.029584	0.082506
H129	H	0.650768	1.004475	0.046123
H130	H	0.519367	1.085096	0.107629
N131	N	0.561324	0.759945	0.352088
H132	H	0.519552	0.785075	0.407579
H133	H	0.650848	0.723512	0.326930
N134	N	0.375896	1.164247	0.082477
H135	H	0.312638	1.204179	0.076446
H136	H	0.338952	1.170256	0.137965
H137	H	0.549514	0.883646	-0.071970
H138	H	0.549497	0.605475	0.206216
H139	H	1.557852	0.677507	-0.454429
N140	N	1.488828	0.355617	-0.486725
H141	H	1.552088	0.303625	-0.526655
H142	H	1.420724	0.384261	-0.492734
N143	N	1.159393	0.595009	0.187166
H144	H	1.228579	0.569876	0.192392
H145	H	1.164168	0.555117	0.158543
N146	N	1.303426	0.490321	-0.352056
H147	H	1.371460	0.496394	-0.380678
H148	H	1.266422	0.496326	-0.380664
H149	H	1.477072	0.209740	-0.071956
N150	N	0.705347	1.355658	0.082492
H151	H	0.721917	1.303675	0.076471
H152	H	0.657648	1.384312	0.137979
N153	N	0.283296	0.677473	0.471659
H154	H	0.261832	0.708634	0.518414
H155	H	0.209352	0.700040	0.471626
H156	H	1.315214	0.471291	0.072021
H157	H	1.476991	0.605506	-0.467671
H158	H	1.315182	0.749461	-0.206130
N159	N	1.488713	0.759975	-0.321728
H160	H	1.446932	0.785099	-0.266234
H161	H	1.578237	0.723549	-0.346883
H162	H	1.130503	1.001204	-0.071960
H163	H	0.306811	1.131959	-0.000010
N164	N	0.375937	0.594997	0.321857
H165	H	0.312681	0.601028	0.373846
H166	H	0.338987	0.615839	0.293213
N167	N	0.705321	0.759967	0.678216
H168	H	0.636134	0.785113	0.733706
H169	H	0.700596	0.799852	0.653059
H170	H	0.549510	1.027628	0.206199
H171	H	0.387752	1.145182	0.323723
N172	N	1.488802	0.355694	0.082502
H173	H	1.578315	0.330596	0.046109
H174	H	1.446909	0.411207	0.107630
N175	N	0.283270	1.149128	0.471626
H176	H	0.261802	1.195885	0.456063
H177	H	0.209328	1.149097	0.502783
H178	H	1.557951	0.222979	0.000036
H179	H	0.387711	1.001247	0.467736
N180	N	0.705314	0.759949	0.812897
H181	H	0.657571	0.739132	0.818967
H182	H	0.721988	0.753919	0.852792
N183	N	1.303469	0.325359	-0.082451
H184	H	1.345266	0.269862	-0.107581
H185	H	1.213950	0.350506	-0.046022
H186	H	0.549490	0.883671	0.350200
H187	H	1.315205	0.327309	-0.206139
H188	H	1.315216	0.605479	-0.350137
N189	N	1.488790	0.190704	-0.321740
H190	H	1.446988	0.195939	-0.266246
H191	H	1.473280	0.162085	-0.346899
H192	H	0.734186	1.027642	0.072025
H193	H	0.734220	1.471289	0.072015
H194	H	1.130504	0.883649	-0.071960
H195	H	1.130531	1.209752	-0.071964
H196	H	1.130521	0.605481	0.323766
H197	H	0.734213	0.749447	0.467731
H198	H	1.130496	0.605488	0.649890
N199	N	1.159366	0.595023	0.513280
H200	H	1.228556	0.569892	0.518503
H201	H	1.164152	0.555130	0.484649
N202	N	0.705350	0.759936	0.352091
H203	H	0.636158	0.785075	0.407580
H204	H	0.700593	0.799825	0.326936
