data_functionalizedCrystal
_audit_creation_method	'MofGen! by Chris Wilmer'
_symmetry_space_group_name_H-M	'P1'
_symmetry_Int_Tables_number	1
_symmetry_cell_setting	triclinic
loop_
_symmetry_equiv_pos_as_xyz
  x,y,z
_cell_length_a	16.959447
_cell_length_b	16.959455
_cell_length_c	16.959454
_cell_angle_alpha	90.017022
_cell_angle_beta	90.026736
_cell_angle_gamma	90.014322
loop_
_atom_site_label
_atom_site_type_symbol
_atom_site_fract_x
_atom_site_fract_y
_atom_site_fract_z
Zn1	Zn	-0.446928	-1.208384	0.314730
Zn2	Zn	-0.314758	-1.208306	0.446923
Zn3	Zn	-0.314766	-1.076212	0.314755
Zn4	Zn	-0.446897	-1.076177	0.446864
O5	O	-0.380837	-1.142270	0.380818
O6	O	-0.429406	-1.318984	0.332280
O7	O	-0.204148	-1.190766	0.429426
O8	O	-0.332314	-1.093792	0.204141
O9	O	-0.332301	-1.318927	0.429402
O10	O	-0.429413	-1.190898	0.204123
O11	O	-0.204154	-1.093717	0.332323
O12	O	-0.332283	-0.965597	0.332265
O13	O	-0.557512	-1.093732	0.429301
O14	O	-0.429359	-0.965571	0.429325
O15	O	-0.557535	-1.190864	0.332223
O16	O	-0.332270	-1.190732	0.557526
O17	O	-0.429352	-1.093657	0.557482
C18	C	-0.380819	-0.936904	0.380792
C19	C	-0.380830	-0.849047	0.380800
C20	C	-0.380824	-1.142204	0.586184
C21	C	-0.380844	-1.142248	0.674041
C22	C	-0.587006	-1.142303	0.380753
C23	C	-0.674862	-1.142317	0.380725
C24	C	-1.046328	-1.091839	0.431185
C25	C	-1.046348	-1.192983	0.330097
C26	C	-0.963802	-1.192962	0.330114
C27	C	-0.922515	-1.142380	0.380668
C28	C	-0.963775	-1.091818	0.431205
C29	C	-0.922536	-1.243529	0.279584
C30	C	-0.839985	-1.243510	0.279599
C31	C	-0.798697	-1.192923	0.330149
C32	C	-0.839962	-1.142359	0.380688
C33	C	-0.798675	-1.091776	0.431242
C34	C	-0.839938	-1.041207	0.481777
C35	C	-0.922487	-1.041231	0.481756
C36	C	-0.716149	-1.192899	0.330171
C37	C	-0.716122	-1.091755	0.431262
C38	C	-0.175471	-1.142283	0.380826
C39	C	-0.087615	-1.142422	0.380631
C40	C	-0.380856	-1.348438	0.380845
C41	C	-0.380864	-1.436295	0.380856
C42	C	-0.330395	-0.477560	0.330238
C43	C	-0.431324	-0.477582	0.431463
C44	C	-0.431320	-0.560128	0.431452
C45	C	-0.380851	-0.601394	0.380834
C46	C	-0.330387	-0.560114	0.330226
C47	C	-0.481777	-0.601414	0.482064
C48	C	-0.481773	-0.683965	0.482055
C49	C	-0.431308	-0.725233	0.431432
C50	C	-0.380843	-0.683948	0.380822
C51	C	-0.330374	-0.725213	0.330204
C52	C	-0.279913	-0.683930	0.279589
C53	C	-0.279922	-0.601381	0.279603
C54	C	-0.431299	-0.807781	0.431418
C55	C	-0.330366	-0.807767	0.330193
C56	C	-0.380868	-1.142358	0.174650
C57	C	-0.380881	-1.142395	0.086793
C58	C	-0.431382	-1.091796	1.045524
C59	C	-0.330373	-1.192963	1.045509
C60	C	-0.330365	-1.192936	0.962963
C61	C	-0.380867	-1.142337	0.921694
C62	C	-0.431375	-1.091765	0.962970
C63	C	-0.279852	-1.243501	0.921680
C64	C	-0.279842	-1.243475	0.839130
C65	C	-0.330348	-1.192879	0.797859
C66	C	-0.380859	-1.142306	0.839140
C67	C	-0.431360	-1.091707	0.797871
C68	C	-0.481876	-1.041137	0.839151
C69	C	-0.481881	-1.041170	0.921699
C70	C	-0.330343	-1.192847	0.715310
C71	C	-0.431353	-1.091676	0.715317
H72	H	-0.806312	-1.000026	0.522942
N73	N	-0.536199	-0.556899	0.536656
H74	H	-0.572886	-0.522670	0.504580
H75	H	-0.568112	-0.595619	0.568712
N76	N	-0.671639	-1.247447	0.275689
H77	H	-0.637390	-1.215344	0.239059
H78	H	-0.637434	-1.284031	0.307902
H79	H	-0.472513	-1.050626	1.079138
H80	H	-0.522863	-0.717571	0.523268
N81	N	-0.275904	-1.247540	1.090009
H82	H	-0.219417	-1.235295	1.075678
H83	H	-0.283634	-1.239864	1.148554
N84	N	-0.225371	-1.298056	0.966189
H85	H	-0.233041	-1.290400	1.024747
H86	H	-0.237708	-1.354499	0.951721
N87	N	-0.275941	-0.852273	0.275587
H88	H	-0.243980	-0.813593	0.243526
H89	H	-0.239298	-0.886506	0.307707
N90	N	-1.090826	-1.037283	0.485674
H91	H	-1.149386	-1.044963	0.477987
H92	H	-1.076392	-1.049545	0.542135
H93	H	-0.238711	-1.284651	0.805524
N94	N	-1.090879	-1.247536	0.275577
H95	H	-1.076529	-1.235279	0.219102
H96	H	-1.076492	-1.303982	0.287929
H97	H	-0.956091	-1.000063	0.522901
H98	H	-0.238818	-0.717539	0.238379
N99	N	-0.275861	-1.247376	0.670786
H100	H	-0.243867	-1.279432	0.709456
H101	H	-0.308064	-1.283926	0.636495
N102	N	-0.536335	-0.986560	0.794630
H103	H	-0.572985	-1.018647	0.760333
H104	H	-0.568286	-0.954538	0.833348
H105	H	-0.682512	-1.050557	0.472422
H106	H	-0.956158	-1.284715	0.238430
N107	N	-0.795483	-1.298048	0.225097
H108	H	-0.834165	-1.330095	0.193070
H109	H	-0.761244	-1.265879	0.188520
H110	H	-0.238838	-0.567761	0.238397
H111	H	-0.289313	-0.443944	0.289026
H112	H	-0.472381	-0.841390	0.472630
N113	N	-0.485748	-0.433071	0.486058
H114	H	-0.522432	-0.398837	0.453985
H115	H	-0.517664	-0.471795	0.518107
N116	N	-0.485826	-1.037104	0.670807
H117	H	-0.517825	-1.005077	0.709485
H118	H	-0.453615	-1.000530	0.636602
H119	H	-0.523007	-0.999998	0.955317
