data_functionalizedCrystal
_audit_creation_method	'MofGen! by Chris Wilmer'
_symmetry_space_group_name_H-M	'P1'
_symmetry_Int_Tables_number	1
_symmetry_cell_setting	triclinic
loop_
_symmetry_equiv_pos_as_xyz
  x,y,z
_cell_length_a	12.759395
_cell_length_b	16.959454
_cell_length_c	12.759387
_cell_angle_alpha	90.030080
_cell_angle_beta	90.020509
_cell_angle_gamma	90.021612
loop_
_atom_site_label
_atom_site_type_symbol
_atom_site_fract_x
_atom_site_fract_y
_atom_site_fract_z
Zn1	Zn	1.606229	-0.314607	0.594010
Zn2	Zn	1.606104	-0.446808	0.418333
Zn3	Zn	1.430528	-0.314651	0.418347
Zn4	Zn	1.430504	-0.446751	0.593972
O5	O	1.518341	-0.380704	0.506166
O6	O	1.753234	-0.332150	0.570716
O7	O	1.582770	-0.429318	0.271314
O8	O	1.453898	-0.204034	0.441671
O9	O	1.753141	-0.429276	0.441647
O10	O	1.582985	-0.204002	0.570730
O11	O	1.453776	-0.332223	0.271324
O12	O	1.283503	-0.332169	0.441634
O13	O	1.453857	-0.429181	0.740998
O14	O	1.283486	-0.429222	0.570665
O15	O	1.582962	-0.332095	0.741026
O16	O	1.582747	-0.557411	0.441610
O17	O	1.453734	-0.557370	0.570651
C18	C	1.245374	-0.380695	0.506148
C19	C	1.128597	-0.380710	0.506165
C20	C	1.128617	-0.481935	0.640307
C21	C	1.073766	-0.532554	0.707381
C22	C	0.964045	-0.532564	0.707394
C23	C	0.909171	-0.481947	0.640328
C24	C	0.964022	-0.431328	0.573254
C25	C	1.073746	-0.431326	0.573246
C26	C	0.964002	-0.330100	0.439118
C27	C	1.073723	-0.330093	0.439098
C28	C	0.909128	-0.279483	0.372052
C29	C	0.963979	-0.228867	0.304971
C30	C	1.073707	-0.228860	0.304960
C31	C	1.128574	-0.279474	0.372024
C32	C	1.518253	-0.586071	0.506148
C33	C	1.518311	-0.673927	0.506175
C34	C	1.451262	-1.045411	0.573350
C35	C	1.585713	-1.045394	0.439088
C36	C	1.585676	-0.962848	0.439078
C37	C	1.518430	-0.921580	0.506205
C38	C	1.451221	-0.962858	0.573340
C39	C	1.652877	-0.921565	0.371936
C40	C	1.652842	-0.839014	0.371923
C41	C	1.585601	-0.797744	0.439055
C42	C	1.518389	-0.839026	0.506195
C43	C	1.451143	-0.797758	0.573321
C44	C	1.383936	-0.839039	0.640466
C45	C	1.383979	-0.921588	0.640473
C46	C	1.585558	-0.715195	0.439049
C47	C	1.451102	-0.715205	0.573311
C48	C	1.792374	-0.380714	0.506184
C49	C	1.909151	-0.380719	0.506192
C50	C	1.518420	-0.380627	0.780199
C51	C	1.518454	-0.380594	0.896976
C52	C	1.518458	-0.174536	0.506207
C53	C	1.518508	-0.086679	0.506224
C54	C	1.518322	-0.380724	0.233198
C55	C	1.518492	-0.380535	0.116422
C56	C	1.652900	-0.279505	0.897025
C57	C	1.720138	-0.228949	0.951910
C58	C	1.720164	-0.228920	1.061632
C59	C	1.652942	-0.279451	1.116471
C60	C	1.585704	-0.330007	1.061586
C61	C	1.585688	-0.330032	0.951861
C62	C	1.451254	-0.431091	1.061537
C63	C	1.451233	-0.431125	0.951815
C64	C	1.384033	-0.481622	1.116375
C65	C	1.316799	-0.532183	1.061490
C66	C	1.316777	-0.532211	0.951762
C67	C	1.383995	-0.481681	0.896930
H68	H	0.919385	-0.573778	0.762017
H69	H	1.118456	-0.573764	0.761987
H70	H	1.217958	-0.481938	0.640296
O71	O	1.658238	-1.089917	0.366706
H72	H	1.640262	-1.074136	0.284224
H73	H	1.262067	-0.573317	1.106149
H74	H	1.707566	-0.805408	0.317251
O75	O	1.132869	-0.174271	0.232603
H76	H	1.076275	-0.139087	0.185967
O77	O	1.383989	-0.481707	0.778587
H78	H	1.405186	-0.541334	0.749645
H79	H	1.262012	-0.573371	0.907081
O80	O	1.652903	-0.279540	0.778682
H81	H	1.674102	-0.339169	0.749754
H82	H	1.774867	-0.187806	0.907249
O83	O	1.311399	-0.794530	0.712864
H84	H	1.358374	-0.756869	0.766355
H85	H	1.217915	-0.279475	0.372019
H86	H	1.707618	-0.955171	0.317278
O87	O	0.790828	-0.481942	0.640327
H88	H	0.761871	-0.497835	0.561040
H89	H	1.384054	-0.481592	1.205717
O90	O	1.658038	-0.670668	0.366642
H91	H	1.704807	-0.713232	0.319969
H92	H	1.396346	-0.681609	0.627978
H93	H	1.774908	-0.187748	1.106320
O94	O	0.790786	-0.279491	0.372070
H95	H	0.761847	-0.235788	0.314175
O96	O	0.904800	-0.174294	0.232618
H97	H	0.819289	-0.182811	0.243888
H98	H	1.329262	-0.955206	0.695138
O99	O	1.378762	-1.089927	0.645758
H100	H	1.390077	-1.154262	0.634486
H101	H	1.652960	-0.279417	1.205812
