data_functionalizedCrystal
_audit_creation_method	'MofGen! by Chris Wilmer'
_symmetry_space_group_name_H-M	'P1'
_symmetry_Int_Tables_number	1
_symmetry_cell_setting	triclinic
loop_
_symmetry_equiv_pos_as_xyz
  x,y,z
_cell_length_a	16.959454
_cell_length_b	19.805407
_cell_length_c	19.805399
_cell_angle_alpha	89.983114
_cell_angle_beta	89.976206
_cell_angle_gamma	90.020075
loop_
_atom_site_label
_atom_site_type_symbol
_atom_site_fract_x
_atom_site_fract_y
_atom_site_fract_z
Zn1	Zn	-0.314689	1.034748	-0.382744
Zn2	Zn	0.018644	1.368081	-0.049411
Zn3	Zn	0.351978	1.701414	0.283923
Zn4	Zn	-0.446875	1.034680	-0.269566
Zn5	Zn	-0.113541	1.368014	0.063767
Zn6	Zn	0.219792	1.701347	0.397101
Zn7	Zn	-0.314714	0.921567	-0.269569
Zn8	Zn	0.018619	1.254901	0.063765
Zn9	Zn	0.351953	1.588234	0.397098
Zn10	Zn	-0.446829	0.921538	-0.382713
Zn11	Zn	-0.113496	1.254872	-0.049380
Zn12	Zn	0.219837	1.588205	0.283954
O13	O	-0.380777	0.978133	-0.326148
O14	O	-0.047443	1.311467	0.007185
O15	O	0.285890	1.644800	0.340519
O16	O	-0.332232	1.129455	-0.367743
O17	O	0.001101	1.462788	-0.034409
O18	O	0.334435	1.796122	0.298924
O19	O	-0.429373	1.019660	-0.174850
O20	O	-0.096039	1.352993	0.158484
O21	O	0.237294	1.686326	0.491817
O22	O	-0.204100	0.936621	-0.284596
O23	O	0.129234	1.269955	0.048738
O24	O	0.462567	1.603288	0.382071
O25	O	-0.429348	1.129406	-0.284591
O26	O	-0.096015	1.462739	0.048742
O27	O	0.237318	1.796072	0.382075
O28	O	-0.204081	1.019774	-0.367745
O29	O	0.129252	1.353108	-0.034412
O30	O	0.462585	1.686441	0.298921
O31	O	-0.332275	0.936556	-0.174852
O32	O	0.001059	1.269890	0.158482
O33	O	0.334392	1.603223	0.491815
O34	O	-0.332231	0.826847	-0.284565
O35	O	0.001102	1.160180	0.048768
O36	O	0.334436	1.493514	0.382101
O37	O	-0.429271	0.936572	-0.477434
O38	O	-0.095938	1.269905	-0.144100
O39	O	0.237396	1.603238	0.189233
O40	O	-0.429295	0.826826	-0.367692
O41	O	-0.095962	1.160159	-0.034359
O42	O	0.237371	1.493492	0.298975
O43	O	-0.332188	1.019746	-0.477457
O44	O	0.001145	1.353079	-0.144123
O45	O	0.334479	1.686413	0.189210
O46	O	-0.557479	1.019631	-0.284561
O47	O	-0.224146	1.352965	0.048772
O48	O	0.109187	1.686298	0.382106
O49	O	-0.557446	0.936506	-0.367690
O50	O	-0.224113	1.269840	-0.034356
O51	O	0.109221	1.603173	0.298977
C52	C	-0.380762	0.802277	-0.326126
C53	C	-0.047428	1.135611	0.007207
C54	C	0.285905	1.468944	0.340541
C55	C	-0.380774	0.727045	-0.326133
C56	C	-0.047441	1.060379	0.007201
C57	C	0.285893	1.393712	0.340534
C58	C	-0.431392	0.691708	-0.369347
C59	C	-0.098058	1.025041	-0.036013
C60	C	0.235275	1.358374	0.297320
C61	C	-0.431393	0.621019	-0.369356
C62	C	-0.098060	0.954353	-0.036023
C63	C	0.235274	1.287686	0.297310
C64	C	-0.380780	0.585670	-0.326148
C65	C	-0.047447	0.919003	0.007185
C66	C	0.285886	1.252336	0.340519
C67	C	-0.330157	0.621012	-0.282932
C68	C	0.003176	0.954346	0.050401
C69	C	0.336510	1.287679	0.383735
C70	C	-0.330152	0.691700	-0.282926
C71	C	0.003181	1.025033	0.050407
C72	C	0.336514	1.358366	0.383740
C73	C	-0.330175	0.335939	-0.282954
C74	C	0.003159	0.669272	0.050379
C75	C	0.336492	1.002606	0.383712
C76	C	-0.330185	0.265247	-0.282962
C77	C	0.003148	0.598580	0.050371
C78	C	0.336482	0.931914	0.383705
C79	C	-0.431415	0.265259	-0.369384
C80	C	-0.098082	0.598592	-0.036051
C81	C	0.235251	0.931925	0.297282
C82	C	-0.431411	0.335946	-0.369379
C83	C	-0.098077	0.669279	-0.036045
C84	C	0.235256	1.002613	0.297288
C85	C	-0.380785	0.371282	-0.326166
C86	C	-0.047451	0.704616	0.007168
C87	C	0.285882	1.037949	0.340501
C88	C	-0.380783	0.447931	-0.326157
C89	C	-0.047450	0.781264	0.007177
C90	C	0.285884	1.114597	0.340510
C91	C	-0.380786	0.509023	-0.326153
C92	C	-0.047452	0.842356	0.007180
C93	C	0.285881	1.175689	0.340514
C94	C	-0.586143	0.978077	-0.326136
C95	C	-0.252810	1.311410	0.007197
C96	C	0.080524	1.644743	0.340530
C97	C	-0.674000	0.978114	-0.326154
C98	C	-0.340666	1.311448	0.007179
C99	C	-0.007333	1.644781	0.340513
C100	C	-1.045488	0.934913	-0.369428
C101	C	-0.712154	1.268246	-0.036095
C102	C	-0.378821	1.601580	0.297238
C103	C	-1.045462	1.021542	-0.282937
C104	C	-0.712129	1.354876	0.050397
C105	C	-0.378796	1.688209	0.383730
C106	C	-0.962917	1.021519	-0.282930
C107	C	-0.629583	1.354852	0.050403
C108	C	-0.296250	1.688185	0.383736
C109	C	-0.921652	0.978191	-0.326173
C110	C	-0.588319	1.311524	0.007160
C111	C	-0.254986	1.644857	0.340494
C112	C	-0.962934	0.934887	-0.369422
C113	C	-0.629601	1.268220	-0.036089
C114	C	-0.296268	1.601553	0.297245
C115	C	-0.921629	1.064817	-0.239677
C116	C	-0.588295	1.398150	0.093656
C117	C	-0.254962	1.731484	0.426989
C118	C	-0.839078	1.064795	-0.239669
C119	C	-0.505744	1.398128	0.093665
C120	C	-0.172411	1.731461	0.426998
C121	C	-0.797812	1.021470	-0.282915
C122	C	-0.464479	1.354803	0.050418
C123	C	-0.131145	1.688136	0.383751
C124	C	-0.839099	0.978164	-0.326167
C125	C	-0.505766	1.311498	0.007167
C126	C	-0.172432	1.644831	0.340500
C127	C	-0.797835	0.934837	-0.369409
C128	C	-0.464501	1.268170	-0.036076
C129	C	-0.131168	1.601503	0.297257
C130	C	-0.839120	0.891534	-0.412665
C131	C	-0.505787	1.224867	-0.079331
C132	C	-0.172453	1.558201	0.254002
C133	C	-0.921669	0.891562	-0.412669
C134	C	-0.588335	1.224895	-0.079335
C135	C	-0.255002	1.558228	0.253998
C136	C	-0.715264	1.021442	-0.282911
C137	C	-0.381930	1.354775	0.050422
C138	C	-0.048597	1.688109	0.383755
C139	C	-0.715281	0.934810	-0.369403
C140	C	-0.381948	1.268143	-0.036070
C141	C	-0.048615	1.601477	0.297264
C142	C	-0.174608	0.978209	-0.326174
C143	C	0.158725	1.311542	0.007159
C144	C	0.492058	1.644875	0.340492
C145	C	-0.086752	0.978241	-0.326186
C146	C	0.246582	1.311574	0.007148
C147	C	0.579915	1.644908	0.340481
C148	C	-0.380722	0.978163	-0.502691
C149	C	-0.047388	1.311496	-0.169357
C150	C	0.285945	1.644830	0.163976
C151	C	-0.380698	0.978176	-0.577923
C152	C	-0.047365	1.311509	-0.244589
C153	C	0.285968	1.644842	0.088744
C154	C	-0.380792	1.154676	-0.326170
C155	C	-0.047459	1.488009	0.007163
C156	C	0.285874	1.821343	0.340496
C157	C	-0.380799	1.229908	-0.326180
C158	C	-0.047466	1.563241	0.007154
C159	C	0.285868	1.896575	0.340487
C160	C	-0.330135	0.934916	-0.613267
C161	C	0.003198	1.268249	-0.279934
C162	C	0.336532	1.601583	0.053399
C163	C	-0.330119	0.934925	-0.683956
C164	C	0.003214	1.268259	-0.350623
C165	C	0.336547	1.601592	-0.017289
C166	C	-0.380664	0.978198	-0.719298
C167	C	-0.047331	1.311532	-0.385965
C168	C	0.286002	1.644865	-0.052632
C169	C	-0.431233	1.021460	-0.683949
C170	C	-0.097900	1.354793	-0.350615
C171	C	0.235433	1.688126	-0.017282
C172	C	-0.431252	1.021447	-0.613262
C173	C	-0.097919	1.354780	-0.279928
C174	C	0.235414	1.688113	0.053405
C175	C	-0.431160	1.021513	-0.969022
C176	C	-0.097826	1.354847	-0.635689
C177	C	0.235507	1.688180	-0.302356
C178	C	-0.431135	1.021525	-1.039714
C179	C	-0.097802	1.354858	-0.706381
C180	C	0.235532	1.688191	-0.373048
C181	C	-0.330027	0.934992	-1.039716
C182	C	0.003307	1.268326	-0.706383
C183	C	0.336640	1.601659	-0.373050
C184	C	-0.330046	0.934979	-0.969029
C185	C	0.003288	1.268312	-0.635696
C186	C	0.336621	1.601646	-0.302363
C187	C	-0.380617	0.978238	-0.933686
C188	C	-0.047284	1.311571	-0.600353
C189	C	0.286049	1.644904	-0.267019
C190	C	-0.380634	0.978226	-0.857037
C191	C	-0.047301	1.311560	-0.523704
C192	C	0.286032	1.644893	-0.190371
C193	C	-0.380644	0.978214	-0.795946
C194	C	-0.047310	1.311547	-0.462612
C195	C	0.286023	1.644880	-0.129279
C196	C	-0.380774	0.978143	-0.150292
C197	C	-0.047441	1.311476	0.183041
C198	C	0.285892	1.644809	0.516375
C199	C	-0.380575	0.978261	-0.075060
C200	C	-0.047242	1.311595	0.258273
C201	C	0.286092	1.644928	0.591606
H202	H	-0.288930	0.720471	-0.247741
H203	H	0.044403	1.053804	0.085593
H204	H	0.377737	1.387137	0.418926
H205	H	-0.472392	1.056690	-0.712730
H206	H	-0.139059	1.390023	-0.379397
H207	H	0.194275	1.723356	-0.046064
H208	H	-0.288944	0.592225	-0.247754
H209	H	0.044390	0.925558	0.085579
H210	H	0.377723	1.258892	0.418913
H211	H	-0.472634	0.236479	-0.404573
H212	H	-0.139301	0.569813	-0.071240
H213	H	0.194032	0.903146	0.262094
Br214	Br	-0.977632	1.123619	-0.180998
Br215	Br	-0.644299	1.456952	0.152336
Br216	Br	-0.310966	1.790285	0.485669
Br217	Br	-0.261393	0.876282	-1.087686
Br218	Br	0.071940	1.209615	-0.754353
Br219	Br	0.405273	1.542948	-0.421019
H220	H	-0.681689	0.899530	-0.404619
H221	H	-0.348356	1.232863	-0.071286
H222	H	-0.015022	1.566196	0.262047
Br223	Br	-0.783109	0.832729	-0.471344
Br224	Br	-0.449776	1.166063	-0.138010
Br225	Br	-0.116442	1.499396	0.195323
H226	H	-0.955290	0.856306	-0.447884
H227	H	-0.621957	1.189640	-0.114550
H228	H	-0.288624	1.522973	0.218783
Br229	Br	-0.499788	1.080226	-0.921065
Br230	Br	-0.166455	1.413559	-0.587732
Br231	Br	0.166879	1.746892	-0.254398
Br232	Br	-1.101514	0.876153	-0.428134
Br233	Br	-0.768180	1.209486	-0.094801
Br234	Br	-0.434847	1.542820	0.238533
H235	H	-0.472420	1.056678	-0.584485
H236	H	-0.139087	1.390011	-0.251152
H237	H	0.194246	1.723345	0.082182
H238	H	-0.472627	0.364724	-0.404561
H239	H	-0.139294	0.698057	-0.071228
H240	H	0.194039	1.031391	0.262106
Br241	Br	-1.101464	1.080340	-0.224252
Br242	Br	-0.768130	1.413674	0.109081
Br243	Br	-0.434797	1.747007	0.442415
Br244	Br	-0.261528	0.876190	-0.565309
Br245	Br	0.071805	1.209524	-0.231976
Br246	Br	0.405138	1.542857	0.101357
H247	H	-0.472609	0.720484	-0.404530
H248	H	-0.139276	1.053818	-0.071196
H249	H	0.194057	1.387151	0.262137
H250	H	-0.805468	1.100054	-0.204449
H251	H	-0.472135	1.433388	0.128884
H252	H	-0.138802	1.766721	0.462218
Br253	Br	-0.261442	0.876254	-0.921068
Br254	Br	0.071891	1.209587	-0.587734
Br255	Br	0.405225	1.542920	-0.254401
H256	H	-0.288948	0.899696	-0.712730
H257	H	0.044385	1.233030	-0.379397
H258	H	0.377718	1.566363	-0.046064
H259	H	-0.681653	1.056695	-0.247691
H260	H	-0.348320	1.390029	0.085643
H261	H	-0.014986	1.723362	0.418976
H262	H	-0.472298	1.056764	-1.068488
H263	H	-0.138965	1.390098	-0.735155
H264	H	0.194369	1.723431	-0.401822
H265	H	-0.288965	0.236467	-0.247776
H266	H	0.044368	0.569801	0.085557
H267	H	0.377702	0.903134	0.418890
H268	H	-0.288958	0.364701	-0.247763
H269	H	0.044375	0.698035	0.085571
H270	H	0.377709	1.031368	0.418904
Br271	Br	-0.500090	0.573063	-0.428008
Br272	Br	-0.166756	0.906397	-0.094675
Br273	Br	0.166577	1.239730	0.238659
