data_functionalizedCrystal
_audit_creation_method	'MofGen! by Chris Wilmer'
_symmetry_space_group_name_H-M	'P1'
_symmetry_Int_Tables_number	1
_symmetry_cell_setting	triclinic
loop_
_symmetry_equiv_pos_as_xyz
  x,y,z
_cell_length_a	17.699083
_cell_length_b	17.699083
_cell_length_c	16.776229
_cell_angle_alpha	89.992455
_cell_angle_beta	89.998886
_cell_angle_gamma	83.283015
loop_
_atom_site_label
_atom_site_type_symbol
_atom_site_fract_x
_atom_site_fract_y
_atom_site_fract_z
O1	O	1.004078	0.095713	-0.066178
O2	O	1.504078	0.595713	0.433822
O3	O	0.783700	0.108165	-0.066204
O4	O	1.283700	0.608165	0.433796
O5	O	0.900116	-0.008250	-0.066183
O6	O	1.400116	0.491750	0.433817
O7	O	0.887663	0.212128	-0.066199
O8	O	1.387663	0.712128	0.433801
O9	O	0.900100	-0.008257	0.066393
O10	O	1.400100	0.491743	0.566393
O11	O	0.783685	0.108158	0.066372
O12	O	1.283685	0.608158	0.566372
O13	O	1.004063	0.095706	0.066398
O14	O	1.504063	0.595706	0.566398
Zn15	Zn	0.893871	0.101931	0.087435
Zn16	Zn	1.393871	0.601931	0.587435
Zn17	Zn	0.893892	0.101940	-0.087241
Zn18	Zn	1.393892	0.601940	0.412759
O19	O	0.887648	0.212121	0.066378
O20	O	1.387648	0.712121	0.566378
C21	C	0.755495	0.107716	0.000081
C22	C	1.255495	0.607716	0.500081
C23	C	0.671477	0.106377	0.000071
C24	C	1.171477	0.606377	0.500071
C25	C	0.622856	0.174710	0.000066
C26	C	1.122856	0.674710	0.500066
C27	C	0.543913	0.173448	0.000077
C28	C	1.043913	0.673448	0.500077
C29	C	0.513592	0.103852	0.000086
C30	C	1.013592	0.603852	0.500086
C31	C	0.562219	0.035513	0.000093
C32	C	1.062219	0.535513	0.500093
C33	C	0.641161	0.036776	0.000088
C34	C	1.141161	0.536776	0.500088
C35	C	0.243856	0.030418	0.000113
C36	C	0.743856	0.530418	0.500113
C37	C	0.164908	0.029160	0.000115
C38	C	0.664908	0.529160	0.500115
C39	C	0.146608	0.167090	0.000101
C40	C	0.646608	0.667090	0.500101
C41	C	0.225550	0.168353	0.000097
C42	C	0.725550	0.668353	0.500097
C43	C	0.274170	0.100015	0.000108
C44	C	0.774170	0.600015	0.500108
C45	C	0.359769	0.101384	0.000098
C46	C	0.859769	0.601384	0.500098
C47	C	0.427995	0.102481	0.000090
C48	C	0.927995	0.602481	0.500090
C49	C	0.899662	-0.036451	0.000105
C50	C	1.399662	0.463549	0.500105
C51	C	0.898323	-0.120469	0.000105
C52	C	1.398323	0.379531	0.500105
C53	C	0.966656	-0.169090	0.000114
C54	C	1.466656	0.330910	0.500114
C55	C	0.965394	-0.248033	0.000107
C56	C	1.465394	0.251967	0.500107
C57	C	0.895798	-0.278354	0.000096
C58	C	1.395798	0.221646	0.500096
C59	C	0.827459	-0.229727	0.000085
C60	C	1.327459	0.270273	0.500085
C61	C	0.828722	-0.150785	0.000086
C62	C	1.328722	0.349215	0.500086
C63	C	0.822364	-0.548090	0.000078
C64	C	1.322364	-0.048090	0.500078
C65	C	0.821106	-0.627038	0.000078
C66	C	1.321106	-0.127038	0.500078
C67	C	0.959036	-0.645338	0.000099
C68	C	1.459036	-0.145338	0.500099
C69	C	0.960299	-0.566396	0.000100
C70	C	1.460299	-0.066396	0.500100
C71	C	0.891961	-0.517776	0.000084
C72	C	1.391961	-0.017776	0.500084
C73	C	0.893330	-0.432177	0.000090
C74	C	1.393330	0.067823	0.500090
C75	C	0.894427	-0.363951	0.000096
C76	C	1.394427	0.136049	0.500096
C77	C	1.032268	0.096156	0.000112
C78	C	1.532268	0.596156	0.500112
C79	C	1.116286	0.097494	0.000116
C80	C	1.616286	0.597494	0.500116
C81	C	0.888102	0.240322	0.000087
C82	C	1.388102	0.740322	0.500087
C83	C	0.889440	0.324340	0.000082
C84	C	1.389440	0.824340	0.500082
N85	N	0.893863	0.101924	0.206646
N86	N	1.393863	0.601924	0.706646
N87	N	0.893906	0.101941	-0.206452
N88	N	1.393906	0.601941	0.293548
C89	C	0.945428	0.050396	0.248372
C90	C	1.445428	0.550396	0.748372
C91	C	0.945432	0.050396	0.331824
C92	C	1.445432	0.550396	0.831824
C93	C	0.893875	0.101927	0.373549
C94	C	1.393875	0.601927	0.873549
C95	C	0.842305	0.153457	0.331817
C96	C	1.342305	0.653457	0.831817
C97	C	0.842297	0.153454	0.248366
C98	C	1.342297	0.653454	0.748366
C99	C	0.842332	0.153472	0.668364
C100	C	1.342332	0.653472	1.168364
C101	C	0.842345	0.153473	0.751820
C102	C	1.342345	0.653473	1.251820
C103	C	0.945466	0.050414	0.751822
C104	C	1.445466	0.550414	1.251822
C105	C	0.945459	0.050411	0.668372
C106	C	1.445459	0.550411	1.168372
C107	C	0.893887	0.101938	0.626647
C108	C	1.393887	0.601938	1.126647
C109	C	0.893882	0.101937	0.536158
C110	C	1.393882	0.601937	1.036158
C111	C	0.893882	0.101932	0.464036
C112	C	1.393882	0.601932	0.964036
H113	H	0.680748	-0.018868	0.000091
H114	H	1.180748	0.481132	0.500091
H115	H	1.023330	-0.144409	0.000128
H116	H	1.523330	0.355591	0.500128
O117	O	0.099485	0.233546	0.000063
O118	O	0.599485	0.733546	0.500063
C119	C	0.089668	0.370492	0.000091
C120	C	0.589668	0.870492	0.500091
C121	C	0.143118	0.295290	0.000119
C122	C	0.643118	0.795290	0.500119
H123	H	0.124923	0.420431	0.000153
H124	H	0.624923	0.920431	0.500153
H125	H	0.052262	0.373403	-0.055403
H126	H	0.552262	0.873403	0.444597
H127	H	0.052239	0.373309	0.055563
H128	H	0.552239	0.873309	0.555563
H129	H	0.180593	0.292422	-0.055316
H130	H	0.680593	0.792422	0.444684
H131	H	0.180471	0.292410	0.055649
H132	H	0.680471	0.792410	0.555649
O133	O	0.762273	-0.103660	0.000113
O134	O	1.262273	0.396340	0.500113
C135	C	0.625327	-0.093834	0.000038
C136	C	1.125327	0.406166	0.500038
C137	C	0.700526	-0.147288	0.000033
C138	C	1.200526	0.352712	0.500033
H139	H	0.575385	-0.129086	-0.000044
H140	H	1.075385	0.370914	0.499956
H141	H	0.622407	-0.056435	0.055532
H142	H	1.122407	0.443565	0.555532
H143	H	0.622523	-0.056399	-0.055434
H144	H	1.122523	0.443601	0.444566
H145	H	0.703380	-0.184771	0.055467
H146	H	1.203380	0.315229	0.555467
H147	H	0.703414	-0.184635	-0.055498
H148	H	1.203414	0.315365	0.444502
H149	H	0.537526	-0.021154	0.000112
H150	H	1.037526	0.478846	0.500112
H151	H	0.140225	-0.027517	0.000124
H152	H	0.640225	0.472483	0.500124
H153	H	0.800322	0.195412	0.365793
H154	H	1.300322	0.695412	0.865793
H155	H	0.647537	0.231384	0.000058
H156	H	1.147537	0.731384	0.500058
H157	H	0.987444	0.008452	0.634402
H158	H	1.487444	0.508452	1.134402
O159	O	1.031703	-0.295371	0.000079
O160	O	1.531703	0.204629	0.500079
C161	C	1.090893	-0.425097	0.000118
C162	C	1.590893	0.074903	0.500118
C163	C	1.015739	-0.371574	0.000137
C164	C	1.515739	0.128426	0.500137
H165	H	1.078012	-0.486718	0.000182
H166	H	1.578012	0.013282	0.500182
H167	H	1.125165	-0.414133	-0.055373
H168	H	1.625165	0.085867	0.444627
H169	H	1.125145	-0.414055	0.055593
H170	H	1.625145	0.085945	0.555593
H171	H	0.981425	-0.382584	-0.055301
H172	H	1.481425	0.117416	0.444699
H173	H	0.981524	-0.382548	0.055664
H174	H	1.481524	0.117452	0.555664
H175	H	0.250232	0.225025	0.000085
H176	H	0.750232	0.725025	0.500085
H177	H	0.800308	0.195412	0.214393
H178	H	1.300308	0.695412	0.714393
O179	O	0.792150	0.203454	0.792318
O180	O	1.292150	0.703454	1.292318
C181	C	0.660470	0.247982	0.817835
C182	C	1.160470	0.747982	1.317835
C183	C	0.717226	0.191330	0.771937
C184	C	1.217226	0.691330	1.271937
H185	H	0.599882	0.238210	0.801362
H186	H	1.099882	0.738210	1.301362
H187	H	0.669272	0.239133	0.884656
H188	H	1.169272	0.739133	1.384656
H189	H	0.670245	0.308587	0.801425
H190	H	1.170245	0.808587	1.301425
H191	H	0.707485	0.130702	0.788280
H192	H	1.207485	0.630702	1.288280
H193	H	0.708410	0.200245	0.705127
H194	H	1.208410	0.700245	1.205127
H195	H	0.766718	-0.508512	0.000065
H196	H	1.266718	-0.008512	0.500065
H197	H	0.283434	-0.025228	0.000123
H198	H	0.783434	0.474772	0.500123
H199	H	1.016971	-0.541714	0.000113
H200	H	1.516971	-0.041714	0.500113
O201	O	0.753430	-0.656366	0.000026
O202	O	1.253430	-0.156366	0.500026
C203	C	0.616749	-0.629888	0.000039
C204	C	1.116749	-0.129888	0.500039
C205	C	0.693333	-0.596572	0.000079
C206	C	1.193333	-0.096572	0.500079
H207	H	0.568141	-0.581561	0.000099
H208	H	1.068141	-0.081561	0.500099
H209	H	0.612674	-0.666358	-0.055458
H210	H	1.112674	-0.166358	0.444542
H211	H	0.612741	-0.666421	0.055508
H212	H	1.112741	-0.166421	0.555508
H213	H	0.697392	-0.560005	-0.055353
H214	H	1.197392	-0.060005	0.444647
H215	H	0.697375	-0.560146	0.055612
H216	H	1.197375	-0.060146	0.555612
H217	H	0.504328	0.229092	0.000072
H218	H	1.004328	0.729092	0.500072
H219	H	0.770792	-0.254420	0.000071
H220	H	1.270792	0.245580	0.500071
H221	H	0.987414	0.008437	0.214406
H222	H	1.487414	0.508437	0.714406
H223	H	0.987419	0.008438	0.365798
H224	H	1.487419	0.508438	0.865798
O225	O	0.995525	0.000248	0.792269
O226	O	1.495525	0.500248	1.292269
C227	C	1.040091	-0.131415	0.817854
C228	C	1.540091	0.368585	1.317854
C229	C	0.983371	-0.074689	0.771986
C230	C	1.483371	0.425311	1.271986
H231	H	1.030274	-0.192014	0.801485
H232	H	1.530274	0.307986	1.301485
H233	H	1.100705	-0.121693	0.801425
H234	H	1.600705	0.378307	1.301425
H235	H	1.031248	-0.122527	0.884661
H236	H	1.531248	0.377473	1.384661
H237	H	0.992144	-0.083544	0.705169
H238	H	1.492144	0.416456	1.205169
H239	H	0.922777	-0.084426	0.788482
H240	H	1.422777	0.415574	1.288482
H241	H	0.800342	0.195428	0.634398
H242	H	1.300342	0.695428	1.134398
H243	H	1.014680	-0.684934	0.000107
H244	H	1.514680	-0.184934	0.500107
