data_functionalizedCrystal
_audit_creation_method	'MofGen! by Chris Wilmer'
_symmetry_space_group_name_H-M	'P1'
_symmetry_Int_Tables_number	1
_symmetry_cell_setting	triclinic
loop_
_symmetry_equiv_pos_as_xyz
  x,y,z
_cell_length_a	21.295420
_cell_length_b	21.295416
_cell_length_c	21.295420
_cell_angle_alpha	89.995528
_cell_angle_beta	90.017013
_cell_angle_gamma	89.973887
loop_
_atom_site_label
_atom_site_type_symbol
_atom_site_fract_x
_atom_site_fract_y
_atom_site_fract_z
Zn1	Zn	0.962309	0.250843	0.355923
Zn2	Zn	1.295642	0.584176	0.689256
Zn3	Zn	1.628976	0.917510	1.022589
Zn4	Zn	0.962226	0.356068	0.250653
Zn5	Zn	1.295559	0.689401	0.583986
Zn6	Zn	1.628892	1.022735	0.917319
Zn7	Zn	0.857046	0.250809	0.250668
Zn8	Zn	1.190379	0.584142	0.584001
Zn9	Zn	1.523713	0.917475	0.917334
Zn10	Zn	0.857002	0.356071	0.355884
Zn11	Zn	1.190335	0.689404	0.689217
Zn12	Zn	1.523669	1.022737	1.022551
O13	O	0.909646	0.303448	0.303282
O14	O	1.242979	0.636781	0.636615
O15	O	1.576312	0.970114	0.969948
O16	O	1.050387	0.264815	0.341968
O17	O	1.383721	0.598148	0.675301
O18	O	1.717054	0.931481	1.008635
O19	O	0.948257	0.342090	0.162565
O20	O	1.281590	0.675423	0.495899
O21	O	1.614924	1.008756	0.829232
O22	O	0.871063	0.162724	0.264652
O23	O	1.204396	0.496057	0.597986
O24	O	1.537729	0.829391	0.931319
O25	O	1.050326	0.342123	0.264627
O26	O	1.383659	0.675456	0.597960
O27	O	1.716993	1.008790	0.931293
O28	O	0.948399	0.162749	0.341983
O29	O	1.281732	0.496083	0.675316
O30	O	1.615066	0.829416	1.008649
O31	O	0.870982	0.264756	0.162576
O32	O	1.204315	0.598090	0.495910
O33	O	1.537649	0.931423	0.829243
O34	O	0.768951	0.264759	0.264615
O35	O	1.102284	0.598092	0.597948
O36	O	1.435618	0.931425	0.931282
O37	O	0.870987	0.342127	0.443979
O38	O	1.204321	0.675461	0.777312
O39	O	1.537654	1.008794	1.110645
O40	O	0.768918	0.342094	0.341917
O41	O	1.102252	0.675428	0.675251
O42	O	1.435585	1.008761	1.008584
O43	O	0.948356	0.264817	0.444007
O44	O	1.281689	0.598151	0.777340
O45	O	1.615023	0.931484	1.110673
O46	O	0.948214	0.444158	0.264589
O47	O	1.281547	0.777491	0.597923
O48	O	1.614881	1.110824	0.931256
O49	O	0.870907	0.444160	0.341903
O50	O	1.204240	0.777493	0.675236
O51	O	1.537573	1.110826	1.008569
C52	C	0.746094	0.303424	0.303264
C53	C	1.079427	0.636757	0.636597
C54	C	1.412761	0.970090	0.969931
C55	C	0.676126	0.303428	0.303271
C56	C	1.009459	0.636762	0.636605
C57	C	1.342793	0.970095	0.969938
C58	C	0.176699	0.263288	0.343628
C59	C	0.510033	0.596622	0.676962
C60	C	0.843366	0.929955	1.010295
C61	C	0.242442	0.263283	0.343628
C62	C	0.575775	0.596617	0.676962
C63	C	0.909108	0.929950	1.010295
C64	C	0.275286	0.303467	0.303296
C65	C	0.608620	0.636800	0.636630
C66	C	0.941953	0.970133	0.969963
C67	C	0.242383	0.343669	0.262973
C68	C	0.575717	0.677003	0.596306
C69	C	0.909050	1.010336	0.929640
C70	C	0.176642	0.343677	0.262979
C71	C	0.509975	0.677011	0.596312
C72	C	0.843309	1.010344	0.929645
N73	N	0.378484	0.308188	0.248177
N74	N	0.711817	0.641522	0.581510
N75	N	1.045150	0.974855	0.914844
N76	N	0.440935	0.308177	0.248173
N77	N	0.774268	0.641510	0.581507
N78	N	1.107602	0.974844	0.914840
C79	C	0.473361	0.303446	0.303278
C80	C	0.806695	0.636779	0.636611
C81	C	1.140028	0.970113	0.969945
N82	N	0.440977	0.298714	0.358387
N83	N	0.774310	0.632048	0.691721
N84	N	1.107643	0.965381	1.025054
N85	N	0.378519	0.298723	0.358390
N86	N	0.711853	0.632056	0.691724
N87	N	1.045186	0.965389	1.025057
C88	C	0.346572	0.303463	0.303286
C89	C	0.679905	0.636796	0.636619
C90	C	1.013239	0.970130	0.969953
C91	C	0.577542	0.263244	0.343602
C92	C	0.910875	0.596578	0.676935
C93	C	1.244209	0.929911	1.010268
C94	C	0.643286	0.263244	0.343603
C95	C	0.976619	0.596577	0.676936
C96	C	1.309952	0.929911	1.010269
C97	C	0.643226	0.343626	0.262942
C98	C	0.976559	0.676960	0.596275
C99	C	1.309893	1.010293	0.929609
C100	C	0.577484	0.343630	0.262947
C101	C	0.910817	0.676963	0.596280
C102	C	1.244150	1.010297	0.929613
C103	C	0.544646	0.303436	0.303276
C104	C	0.877979	0.636769	0.636609
C105	C	1.211312	0.970102	0.969942
C106	C	0.909564	0.466999	0.303254
C107	C	1.242897	0.800333	0.636587
C108	C	1.576230	1.133666	0.969921
C109	C	0.909586	0.536967	0.303263
C110	C	1.242919	0.870301	0.636596
C111	C	1.576253	1.203634	0.969930
C112	C	0.949876	0.569812	0.263049
C113	C	1.283209	0.903145	0.596382
C114	C	1.616543	1.236479	0.929715
C115	C	0.949906	0.635555	0.263066
C116	C	1.283239	0.968888	0.596399
C117	C	1.616572	1.302221	0.929732
C118	C	0.909634	0.668450	0.303290
C119	C	1.242968	1.001783	0.636624
C120	C	1.576301	1.335117	0.969957
C121	C	0.869342	0.635597	0.343513
C122	C	1.202675	0.968931	0.676846
C123	C	1.536008	1.302264	1.010179
C124	C	0.869318	0.569856	0.343499
C125	C	1.202651	0.903189	0.676832
C126	C	1.535984	1.236523	1.010166
N127	N	0.854567	0.771714	0.308088
N128	N	1.187900	1.105047	0.641421
N129	N	1.521234	1.438380	0.974755
N130	N	0.854592	0.834165	0.308097
N131	N	1.187925	1.167498	0.641430
N132	N	1.521258	1.500832	0.974764
C133	C	0.909705	0.866525	0.303335
C134	C	1.243039	1.199858	0.636668
C135	C	1.576372	1.533191	0.970002
N136	N	0.964795	0.834073	0.298551
N137	N	1.298128	1.167407	0.631884
N138	N	1.631461	1.500740	0.965218
N139	N	0.964769	0.771616	0.298538
N140	N	1.298103	1.104949	0.631872
N141	N	1.631436	1.438283	0.965205
C142	C	0.909656	0.739735	0.303310
C143	C	1.242990	1.073069	0.636643
C144	C	1.576323	1.406402	0.969977
C145	C	0.950031	0.970655	0.263137
C146	C	1.283364	1.303988	0.596470
C147	C	1.616698	1.637321	0.929804
C148	C	0.950062	1.036399	0.263158
C149	C	1.283395	1.369732	0.596492
C150	C	1.616728	1.703065	0.929825
C151	C	0.869492	1.036440	0.343602
C152	C	1.202825	1.369773	0.676935
C153	C	1.536159	1.703107	1.010269
C154	C	0.869467	0.970697	0.343584
C155	C	1.202800	1.304031	0.676917
C156	C	1.536134	1.637364	1.010251
C157	C	0.909735	0.937809	0.303348
C158	C	1.243069	1.271142	0.636681
C159	C	1.576402	1.604475	0.970015
C160	C	1.073836	0.303472	0.303300
C161	C	1.407169	0.636806	0.636633
C162	C	1.740503	0.970139	0.969967
C163	C	1.143804	0.303483	0.303308
C164	C	1.477137	0.636816	0.636641
C165	C	1.810471	0.970149	0.969974
C166	C	0.909676	0.303476	0.467472
C167	C	1.243009	0.636810	0.800805
C168	C	1.576343	0.970143	1.134139
C169	C	0.909689	0.303489	0.537440
C170	C	1.243022	0.636822	0.870773
C171	C	1.576356	0.970155	1.204107
C172	C	0.909746	1.139257	0.303334
C173	C	1.243079	1.472591	0.636668
C174	C	1.576413	1.805924	0.970001
C175	C	0.909791	1.069289	0.303384
C176	C	1.243124	1.402623	0.636718
C177	C	1.576457	1.735956	0.970051
C178	C	0.949969	0.263240	0.570322
C179	C	1.283302	0.596573	0.903656
C180	C	1.616636	0.929907	1.236989
C181	C	0.949959	0.263230	0.636065
C182	C	1.283293	0.596563	0.969398
C183	C	1.616626	0.929896	1.302732
C184	C	0.909677	0.303479	0.668923
C185	C	1.243010	0.636812	1.002256
C186	C	1.576343	0.970146	1.335589
C187	C	0.869389	0.343731	0.636032
C188	C	1.202722	0.677064	0.969366
C189	C	1.536056	1.010397	1.302699
C190	C	0.869395	0.343736	0.570291
C191	C	1.202729	0.677069	0.903624
C192	C	1.536062	1.010402	1.236958
N193	N	0.904806	0.358573	0.772140
N194	N	1.238140	0.691906	1.105474
N195	N	1.571473	1.025240	1.438807
N196	N	0.904804	0.358567	0.834592
N197	N	1.238138	0.691900	1.167925
N198	N	1.571471	1.025233	1.501258
C199	C	0.909654	0.303466	0.866997
C200	C	1.242988	0.636799	1.200331
C201	C	1.576321	0.970133	1.533664
N202	N	0.914519	0.248371	0.834592
N203	N	1.247853	0.581704	1.167925
N204	N	1.581186	0.915038	1.501259
N205	N	0.914525	0.248378	0.772135
N206	N	1.247858	0.581711	1.105468
N207	N	1.581191	0.915045	1.438802
C208	C	0.909665	0.303478	0.740208
C209	C	1.242998	0.636811	1.073541
C210	C	1.576332	0.970145	1.406875
C211	C	0.949926	0.263203	0.971165
C212	C	1.283259	0.596536	1.304499
C213	C	1.616593	0.929869	1.637832
C214	C	0.949912	0.263191	1.036909
C215	C	1.283245	0.596525	1.370242
C216	C	1.616579	0.929858	1.703576
C217	C	0.869345	0.343698	1.036875
C218	C	1.202678	0.677031	1.370208
C219	C	1.536012	1.010365	1.703542
C220	C	0.869356	0.343704	0.971133
C221	C	1.202689	0.677037	1.304466
C222	C	1.536022	1.010371	1.637799
C223	C	0.909649	0.303457	0.938282
C224	C	1.242983	0.636790	1.271615
C225	C	1.576316	0.970124	1.604948
C226	C	0.909618	0.303438	1.139730
C227	C	1.242952	0.636771	1.473063
C228	C	1.576285	0.970105	1.806397
C229	C	0.909628	0.303440	1.069762
C230	C	1.242961	0.636774	1.403095
C231	C	1.576295	0.970107	1.736429
H232	H	0.550700	0.376358	0.230110
H233	H	0.884033	0.709691	0.563444
H234	H	1.217367	1.043025	0.896777
C235	C	0.825082	0.388007	0.672173
C236	C	1.158416	0.721340	1.005506
C237	C	1.491749	1.054674	1.338839
H238	H	0.830852	0.382245	0.716036
H239	H	1.164186	0.715578	1.049369
H240	H	1.497519	1.048912	1.382703
H241	H	0.782793	0.378791	0.661385
H242	H	1.116126	0.712124	0.994718
H243	H	1.449460	1.045458	1.328052
H244	H	0.834276	0.430306	0.661400
H245	H	1.167609	0.763639	0.994733
H246	H	1.500942	1.096973	1.328066
H247	H	0.982717	0.662302	0.230319
H248	H	1.316050	0.995635	0.563652
H249	H	1.649383	1.328969	0.896985
H250	H	0.836540	0.376464	1.063627
H251	H	1.169873	0.709797	1.396960
H252	H	1.503206	1.043130	1.730294
C253	C	0.824996	0.533722	0.387733
C254	C	1.158329	0.867056	0.721067
C255	C	1.491663	1.200389	1.054400
H256	H	0.830752	0.489859	0.381965
H257	H	1.164085	0.823192	0.715299
H258	H	1.497418	1.156525	1.048632
H259	H	0.782710	0.544535	0.378487
H260	H	1.116044	0.877868	0.711821
H261	H	1.449377	1.211201	1.045154
H262	H	0.834192	0.544474	0.430042
H263	H	1.167526	0.877808	0.763375
H264	H	1.500859	1.211141	1.096708
H265	H	0.982874	1.063140	0.230412
H266	H	1.316208	1.396473	0.563746
H267	H	1.649541	1.729806	0.897079
C268	C	0.541415	0.219039	0.387964
C269	C	0.874748	0.552373	0.721298
C270	C	1.208081	0.885706	1.054631
H271	H	0.497550	0.224794	0.382187
H272	H	0.830883	0.558127	0.715520
H273	H	1.164216	0.891461	1.048853
H274	H	0.552199	0.228321	0.430243
H275	H	0.885532	0.561655	0.763576
H276	H	1.218865	0.894988	1.096909
H277	H	0.552202	0.176725	0.378822
H278	H	0.885535	0.510059	0.712155
H279	H	1.218869	0.843392	1.045488
H280	H	0.836656	0.943953	0.376328
H281	H	1.169990	1.277287	0.709661
H282	H	1.503323	1.610620	1.042994
H283	H	0.982822	0.943876	0.230376
H284	H	1.316155	1.277209	0.563710
H285	H	1.649489	1.610543	0.897043
H286	H	0.669968	0.376349	0.230108
H287	H	1.003301	0.709683	0.563441
H288	H	1.336634	1.043016	0.896775
H289	H	0.670068	0.230515	0.376441
H290	H	1.003401	0.563848	0.709774
H291	H	1.336735	0.897181	1.043108
C292	C	0.994285	0.218965	0.534190
C293	C	1.327619	0.552299	0.867523
C294	C	1.660952	0.885632	1.200856
H295	H	1.018270	0.194989	0.563193
H296	H	1.351603	0.528323	0.896526
H297	H	1.684936	0.861656	1.229860
H298	H	1.021700	0.243050	0.508553
H299	H	1.355033	0.576383	0.841886
H300	H	1.688367	0.909717	1.175220
H301	H	0.970221	0.191532	0.508537
H302	H	1.303554	0.524865	0.841871
H303	H	1.636887	0.858198	1.175204
H304	H	0.982759	0.230451	0.662843
H305	H	1.316092	0.563784	0.996176
H306	H	1.649425	0.897117	1.329510
C307	C	0.994177	0.533638	0.218798
C308	C	1.327510	0.866971	0.552132
C309	C	1.660843	1.200305	0.885465
H310	H	1.018180	0.562619	0.194855
H311	H	1.351514	0.895952	0.528188
H312	H	1.684847	1.229286	0.861521
H313	H	0.970108	0.508017	0.191343
H314	H	1.303441	0.841350	0.524676
H315	H	1.636774	1.174684	0.858010
H316	H	1.021583	0.507967	0.242904
H317	H	1.354917	0.841300	0.576237
H318	H	1.688250	1.174633	0.909571
C319	C	0.825043	0.671779	0.387757
C320	C	1.158376	1.005112	0.721091
C321	C	1.491710	1.338446	1.054424
H322	H	0.830823	0.715637	0.382002
H323	H	1.164156	1.048970	0.715335
H324	H	1.497490	1.382303	1.048668
H325	H	0.834225	0.660987	0.430059
H326	H	1.167558	0.994320	0.763392
H327	H	1.500891	1.327654	1.096726
H328	H	0.782748	0.661041	0.378500
H329	H	1.116081	0.994374	0.711833
H330	H	1.449414	1.327708	1.045166
C331	C	0.278634	0.219065	0.387980
C332	C	0.611967	0.552399	0.721313
C333	C	0.945301	0.885732	1.054647
H334	H	0.249661	0.195126	0.411996
H335	H	0.582994	0.528460	0.745330
H336	H	0.916328	0.861793	1.078663
H337	H	0.304285	0.243185	0.415364
H338	H	0.637618	0.576518	0.748697
H339	H	0.970951	0.909851	1.082030
H340	H	0.304277	0.191595	0.363937
H341	H	0.637611	0.524928	0.697270
H342	H	0.970944	0.858261	1.030603
H343	H	0.269130	0.376388	0.230136
H344	H	0.602463	0.709722	0.563469
H345	H	0.935796	1.043055	0.896803
H346	H	0.836705	1.063223	0.376357
H347	H	1.170038	1.396556	0.709690
H348	H	1.503372	1.729889	1.043023
H349	H	0.982732	0.230428	0.944416
H350	H	1.316065	0.563761	1.277750
H351	H	1.649399	0.897094	1.611083
C352	C	0.140581	0.219082	0.387994
C353	C	0.473914	0.552415	0.721327
C354	C	0.807247	0.885748	1.054660
H355	H	0.169592	0.195146	0.412011
H356	H	0.502925	0.528479	0.745345
H357	H	0.836258	0.861813	1.078678
H358	H	0.114933	0.191617	0.363966
H359	H	0.448266	0.524951	0.697300
H360	H	0.781600	0.858284	1.030633
H361	H	0.114940	0.243215	0.415385
H362	H	0.448274	0.576548	0.748719
H363	H	0.781607	0.909882	1.082052
C364	C	0.825095	0.388020	0.534119
C365	C	1.158428	0.721353	0.867452
C366	C	1.491761	1.054687	1.200786
H367	H	0.801105	0.411994	0.563101
H368	H	1.134438	0.745328	0.896434
H369	H	1.467771	1.078661	1.229768
H370	H	0.797684	0.363944	0.508457
H371	H	1.131018	0.697277	0.841790
H372	H	1.464351	1.030611	1.175123
H373	H	0.849171	0.415455	0.508489
H374	H	1.182505	0.748788	0.841822
H375	H	1.515838	1.082122	1.175156
C376	C	0.994223	0.218916	1.073080
C377	C	1.327556	0.552249	1.406413
C378	C	1.660889	0.885582	1.739746
H379	H	1.018223	0.194953	1.044097
H380	H	1.351557	0.528286	1.377430
H381	H	1.684890	0.861620	1.710763
H382	H	0.970160	0.191479	1.098715
H383	H	1.303494	0.524812	1.432049
H384	H	1.636827	0.858146	1.765382
H385	H	1.021632	0.243005	1.098736
H386	H	1.354965	0.576338	1.432070
H387	H	1.688299	0.909671	1.765403
C388	C	0.140456	0.387889	0.218620
C389	C	0.473789	0.721222	0.551953
C390	C	0.807123	1.054555	0.885287
H391	H	0.169430	0.411819	0.194596
H392	H	0.502764	0.745152	0.527930
H393	H	0.836097	1.078486	0.861263
H394	H	0.114807	0.415358	0.242652
H395	H	0.448140	0.748692	0.575985
H396	H	0.781473	1.082025	0.909318
H397	H	0.114812	0.363759	0.191234
H398	H	0.448145	0.697093	0.524567
H399	H	0.781478	1.030426	0.857900
H400	H	0.836559	0.376483	0.944359
H401	H	1.169893	0.709816	1.277693
H402	H	1.503226	1.043149	1.611026
