data_functionalizedCrystal
_audit_creation_method	'MofGen! by Chris Wilmer'
_symmetry_space_group_name_H-M	'P1'
_symmetry_Int_Tables_number	1
_symmetry_cell_setting	triclinic
loop_
_symmetry_equiv_pos_as_xyz
  x,y,z
_cell_length_a	26.809956
_cell_length_b	14.971486
_cell_length_c	14.971486
_cell_angle_alpha	83.614129
_cell_angle_beta	89.995252
_cell_angle_gamma	89.988893
loop_
_atom_site_label
_atom_site_type_symbol
_atom_site_fract_x
_atom_site_fract_y
_atom_site_fract_z
O1	O	0.041422	-1.186960	-0.116561
O2	O	0.041436	-0.926560	-0.130520
O3	O	0.041425	-1.063739	0.006660
O4	O	0.041433	-1.049780	-0.253740
O5	O	-0.041534	-1.063697	0.006660
O6	O	-0.041523	-0.926517	-0.130519
O7	O	-0.041537	-1.186918	-0.116560
Zn8	Zn	-0.054702	-1.056711	-0.123540
Zn9	Zn	0.054601	-1.056767	-0.123540
O10	O	-0.041526	-1.049738	-0.253740
C11	C	-0.000042	-0.893214	-0.129895
C12	C	-0.000037	-0.793917	-0.128024
C13	C	-0.000054	-1.063094	0.039985
C14	C	-0.000054	-1.061223	0.139282
N15	N	-0.129298	-1.056679	-0.123539
C16	C	-0.473925	-1.111059	-0.177869
C17	C	-0.682803	-1.111088	-0.177869
O18	O	-0.709808	-1.157299	-0.224052
N19	N	-0.708925	-1.056788	-0.123531
C20	C	-0.682824	-1.002482	-0.069185
O21	O	-0.709835	-0.956304	-0.022961
C22	C	-0.473947	-1.002458	-0.069182
C23	C	-0.447828	-1.056754	-0.123530
C24	C	-0.447806	-1.165351	-0.232212
C25	C	-0.395589	-1.165340	-0.232215
C26	C	-0.369492	-1.111036	-0.177876
C27	C	-0.395612	-1.056743	-0.123533
C28	C	-0.447848	-0.948157	-0.014832
C29	C	-0.395625	-0.948158	-0.014834
C30	C	-0.369506	-1.002454	-0.069182
C31	C	-0.317298	-1.002427	-0.069197
N32	N	-0.291176	-1.056727	-0.123534
C33	C	-0.317273	-1.111031	-0.177874
C34	C	-0.792487	-1.002496	-0.069192
C35	C	-0.844706	-1.002501	-0.069194
C36	C	-0.844681	-1.111108	-0.177877
C37	C	-0.792461	-1.111098	-0.177879
C38	C	-0.766365	-1.056796	-0.123530
C39	C	-0.207615	-1.111003	-0.177877
C40	C	-0.155394	-1.110983	-0.177878
C41	C	-0.155424	-1.002380	-0.069193
C42	C	-0.207640	-1.002395	-0.069195
C43	C	-0.233735	-1.056713	-0.123540
O44	O	-0.290261	-0.956248	-0.023030
O45	O	-0.290253	-1.157217	-0.224077
C46	C	-0.526141	-1.111070	-0.177866
C47	C	-0.552261	-1.056777	-0.123523
C48	C	-0.526164	-1.002473	-0.069184
C49	C	-0.604479	-1.056782	-0.123525
C50	C	-0.630576	-1.111086	-0.177865
C51	C	-0.604454	-1.165386	-0.232202
C52	C	-0.552238	-1.165374	-0.232206
C53	C	-0.552286	-0.948174	-0.014846
C54	C	-0.604502	-0.948189	-0.014848
C55	C	-0.630599	-1.002493	-0.069188
N56	N	0.129197	-1.056805	-0.123534
C57	C	-0.000058	-1.220263	-0.117185
C58	C	-0.000060	-1.319561	-0.119056
C59	C	-0.000035	-0.736691	-0.208614
C60	C	-0.000042	-0.643392	-0.206850
C61	C	-0.000048	-0.607320	-0.124497
C62	C	-0.000051	-0.664552	-0.043902
C63	C	-0.000047	-0.757850	-0.045666
C64	C	-0.000058	-0.470090	-0.040231
C65	C	-0.000061	-0.376786	-0.038466
C66	C	-0.000053	-0.355632	-0.201415
C67	C	-0.000049	-0.448930	-0.203179
C68	C	-0.000052	-0.506156	-0.122584
C69	C	-0.000046	-1.050383	-0.287065
C70	C	-0.000043	-1.052254	-0.386362
C71	C	-0.000058	-1.141812	0.196507
C72	C	-0.000053	-1.140049	0.289807
C73	C	-0.000047	-1.057696	0.325879
C74	C	-0.000041	-0.977101	0.268646
C75	C	-0.000042	-0.978865	0.175349
C76	C	-0.000039	-0.973430	0.463109
C77	C	-0.000038	-0.971665	0.556413
C78	C	-0.000049	-1.134614	0.577567
C79	C	-0.000051	-1.136378	0.484269
C80	C	-0.000046	-1.055782	0.427043
H81	H	-0.134130	-1.155198	-0.222139
Cl82	Cl	-0.000071	-1.245348	0.151169
H83	H	-0.000040	-0.478296	-0.270239
H84	H	-0.000058	-1.205673	0.336396
Cl85	Cl	-0.000062	-0.619204	0.059629
H86	H	-0.771198	-1.155311	-0.222134
H87	H	-0.134166	-0.958164	-0.024954
H88	H	-0.000054	-0.309033	-0.267039
H89	H	-0.000049	-0.804443	0.019958
Cl90	Cl	-0.240412	-1.179288	-0.246198
Cl91	Cl	-0.000085	-0.331439	0.065065
H92	H	-0.625712	-1.209598	-0.276452
Cl93	Cl	-0.000025	-0.782030	-0.312150
H94	H	-0.000041	-0.904606	0.585780
H95	H	-0.228908	-0.958171	-0.024952
Cl96	Cl	-0.000032	-0.872107	0.391168
H97	H	-0.000061	-0.516682	0.025399
Cl98	Cl	-0.362761	-1.233588	-0.300556
Cl99	Cl	-0.000056	-1.239909	0.438922
Cl100	Cl	-0.000053	-1.235935	0.649508
Cl101	Cl	-0.000027	-0.873570	0.313995
Cl102	Cl	-0.759688	-0.934205	-0.000879
Cl103	Cl	-0.480604	-1.233628	-0.300535
Cl104	Cl	-0.877498	-1.179379	-0.246186
H105	H	-0.531043	-0.903953	0.029406
Cl106	Cl	-0.877535	-0.934226	-0.000882
Cl107	Cl	-0.480670	-0.879894	0.053496
Cl108	Cl	-0.000035	-0.877548	0.103407
H109	H	-0.374380	-0.903938	0.029425
H110	H	-0.530976	-1.209588	-0.276461
H111	H	-0.625764	-0.903965	0.029406
H112	H	-0.000041	-0.596802	-0.272474
