data_functionalizedCrystal
_audit_creation_method	'MofGen! by Chris Wilmer'
_symmetry_space_group_name_H-M	'P1'
_symmetry_Int_Tables_number	1
_symmetry_cell_setting	triclinic
loop_
_symmetry_equiv_pos_as_xyz
  x,y,z
_cell_length_a	14.519731
_cell_length_b	13.596369
_cell_length_c	10.654550
_cell_angle_alpha	90.000797
_cell_angle_beta	95.913122
_cell_angle_gamma	90.006024
loop_
_atom_site_label
_atom_site_type_symbol
_atom_site_fract_x
_atom_site_fract_y
_atom_site_fract_z
O1	O	1.224712	0.081791	-0.164742
O2	O	0.956338	0.081792	-0.184101
O3	O	1.096696	0.081788	0.008376
O4	O	1.084355	0.081795	-0.357219
O5	O	1.096678	-0.081795	0.008366
O6	O	0.956321	-0.081791	-0.184111
O7	O	1.224695	-0.081792	-0.164753
Zn8	Zn	1.090505	-0.107764	-0.174434
Zn9	Zn	1.090528	0.107764	-0.174420
O10	O	1.084337	-0.081788	-0.357230
C11	C	0.921965	0.000001	-0.183199
C12	C	0.819571	0.000001	-0.180481
C13	C	0.736415	0.000005	-0.178272
C14	C	0.632092	0.000006	-0.175513
C15	C	0.548942	0.000005	-0.173322
C16	C	0.444612	0.000008	-0.170563
N17	N	1.090496	-0.254855	-0.174443
C18	C	1.090501	-0.343853	-0.174446
C19	C	1.090510	-0.455505	-0.174437
C20	C	1.090522	-0.544495	-0.174423
C21	C	1.090532	-0.656154	-0.174415
C22	C	1.259068	0.000002	-0.165655
C23	C	1.361462	0.000007	-0.168373
C24	C	1.095781	-0.000002	0.055160
C25	C	1.093070	0.000001	0.194578
N26	N	1.090544	0.254856	-0.174401
C27	C	1.085252	0.000005	-0.404014
C28	C	1.087963	0.000008	-0.543432
C29	C	1.175710	-0.000002	0.274850
C30	C	1.173157	0.000005	0.405846
C31	C	1.005317	0.000014	0.376286
C32	C	1.007871	0.000014	0.245292
C33	C	1.260909	-0.000015	0.224135
C34	C	1.343556	-0.000020	0.304408
C35	C	1.341003	-0.000013	0.435405
C36	C	1.255804	-0.000002	0.486128
H37	H	1.412923	-0.000005	0.263100
N38	N	1.253047	0.000019	0.627417
H39	H	1.318328	0.000021	0.670576
H40	H	1.219436	-0.060620	0.653067
H41	H	1.262997	-0.000024	0.117473
H42	H	1.408299	-0.000007	0.500760
H43	H	0.940578	0.000016	0.179933
H44	H	0.935951	0.000022	0.417597
