data_functionalizedCrystal
_audit_creation_method	'MofGen! by Chris Wilmer'
_symmetry_space_group_name_H-M	'P1'
_symmetry_Int_Tables_number	1
_symmetry_cell_setting	triclinic
loop_
_symmetry_equiv_pos_as_xyz
  x,y,z
_cell_length_a	16.625548
_cell_length_b	16.625546
_cell_length_c	16.625548
_cell_angle_alpha	89.986596
_cell_angle_beta	89.991764
_cell_angle_gamma	90.023536
loop_
_atom_site_label
_atom_site_type_symbol
_atom_site_fract_x
_atom_site_fract_y
_atom_site_fract_z
Zn1	Zn	-1.232582	0.321112	0.455897
Zn2	Zn	-0.899249	0.654446	0.789231
Zn3	Zn	-0.565916	0.987779	1.122564
Zn4	Zn	-1.232515	0.455916	0.321060
Zn5	Zn	-0.899181	0.789249	0.654393
Zn6	Zn	-0.565848	1.122582	0.987726
Zn7	Zn	-1.097773	0.321103	0.321078
Zn8	Zn	-0.764440	0.654436	0.654411
Zn9	Zn	-0.431106	0.987770	0.987745
Zn10	Zn	-1.097715	0.455909	0.455849
Zn11	Zn	-0.764381	0.789243	0.789183
Zn12	Zn	-0.431048	1.122576	1.122516
O13	O	-1.165146	0.388510	0.388471
O14	O	-0.831813	0.721843	0.721804
O15	O	-0.498479	1.055177	1.055138
O16	O	-1.345406	0.339001	0.438023
O17	O	-1.012072	0.672334	0.771357
O18	O	-0.678739	1.005668	1.104690
O19	O	-1.214637	0.438031	0.208230
O20	O	-0.881304	0.771365	0.541563
O21	O	-0.547970	1.104698	0.874896
O22	O	-1.115709	0.208272	0.338990
O23	O	-0.782375	0.541605	0.672323
O24	O	-0.449042	0.874939	1.005656
O25	O	-1.345356	0.438040	0.338959
O26	O	-1.012023	0.771374	0.672292
O27	O	-0.678689	1.104707	1.005625
O28	O	-1.214752	0.208279	0.438041
O29	O	-0.881419	0.541612	0.771374
O30	O	-0.548086	0.874945	1.104708
O31	O	-1.115643	0.338985	0.208243
O32	O	-0.782310	0.672318	0.541576
O33	O	-0.448976	1.005652	0.874910
O34	O	-0.984933	0.338979	0.338943
O35	O	-0.651600	0.672312	0.672277
O36	O	-0.318266	1.005646	1.005610
O37	O	-1.115609	0.438029	0.568688
O38	O	-0.782276	0.771363	0.902022
O39	O	-0.448942	1.104696	1.235355
O40	O	-0.984890	0.438020	0.437959
O41	O	-0.651557	0.771354	0.771293
O42	O	-0.318223	1.104687	1.104626
O43	O	-1.214696	0.338995	0.568723
O44	O	-0.881362	0.672328	0.902057
O45	O	-0.548029	1.005661	1.235390
O46	O	-1.214580	0.568747	0.338912
O47	O	-0.881247	0.902080	0.672246
O48	O	-0.547913	1.235414	1.005579
O49	O	-1.115543	0.568743	0.437942
O50	O	-0.782210	0.902076	0.771275
O51	O	-0.448876	1.235409	1.104608
C52	C	-0.955655	0.388499	0.388449
C53	C	-0.622322	0.721832	0.721782
C54	C	-0.288989	1.055165	1.055115
C55	C	-0.866034	0.388513	0.388458
C56	C	-0.532701	0.721846	0.721791
C57	C	-0.199367	1.055180	1.055125
C58	C	-1.165070	0.598001	0.388437
C59	C	-0.831736	0.931334	0.721771
C60	C	-0.498403	1.264668	1.055104
C61	C	-1.165111	0.687622	0.388450
C62	C	-0.831778	1.020955	0.721783
C63	C	-0.498444	1.354289	1.055117
C64	C	-1.165153	0.388512	0.598780
C65	C	-0.831820	0.721846	0.932113
C66	C	-0.498487	1.055179	1.265447
C67	C	-1.165156	0.388513	0.688401
C68	C	-0.831823	0.721847	1.021734
C69	C	-0.498490	1.055180	1.355068
C70	C	-1.375455	0.388522	0.388494
C71	C	-1.042122	0.721856	0.721828
C72	C	-0.708788	1.055189	1.055161
C73	C	-1.465076	0.388527	0.388504
C74	C	-1.131743	0.721861	0.721837
C75	C	-0.798409	1.055194	1.055171
C76	C	-0.537859	0.388518	0.388493
C77	C	-0.204525	0.721852	0.721826
C78	C	0.128808	1.055185	1.055159
C79	C	-0.629167	0.388515	0.388480
C80	C	-0.295834	0.721848	0.721814
C81	C	0.037500	1.055181	1.055147
C82	C	-0.701943	0.388516	0.388475
C83	C	-0.368610	0.721849	0.721808
C84	C	-0.035277	1.055183	1.055141
C85	C	-0.793258	0.388512	0.388464
C86	C	-0.459924	0.721845	0.721797
C87	C	-0.126591	1.055178	1.055130
C88	C	-1.165245	0.178201	0.388523
C89	C	-0.831911	0.511535	0.721856
C90	C	-0.498578	0.844868	1.055189
C91	C	-1.165287	0.088580	0.388545
C92	C	-0.831953	0.421913	0.721878
C93	C	-0.498620	0.755247	1.055211
C94	C	-1.165252	1.015798	0.388534
C95	C	-0.831918	1.349131	0.721867
C96	C	-0.498585	1.682464	1.055201
C97	C	-1.165210	0.924489	0.388513
C98	C	-0.831877	1.257823	0.721846
C99	C	-0.498543	1.591156	1.055179
C100	C	-1.165181	0.851713	0.388491
C101	C	-0.831847	1.185046	0.721825
C102	C	-0.498514	1.518379	1.055158
C103	C	-1.165140	0.760399	0.388471
C104	C	-0.831807	1.093732	0.721804
C105	C	-0.498474	1.427065	1.055138
C106	C	-1.165123	0.388520	1.016577
C107	C	-0.831789	0.721854	1.349910
C108	C	-0.498456	1.055187	1.683243
C109	C	-1.165130	0.388521	0.925268
C110	C	-0.831797	0.721854	1.258602
C111	C	-0.498463	1.055188	1.591935
C112	C	-1.165140	0.388518	0.852492
C113	C	-0.831807	0.721851	1.185825
C114	C	-0.498473	1.055184	1.519158
C115	C	-1.165146	0.388517	0.761178
C116	C	-0.831813	0.721850	1.094511
C117	C	-0.498480	1.055184	1.427844
C118	C	-1.165131	0.388524	1.178980
C119	C	-0.831798	0.721857	1.512314
C120	C	-0.498465	1.055191	1.845647
C121	C	-1.165123	0.388518	1.089359
C122	C	-0.831790	0.721851	1.422693
C123	C	-0.498457	1.055185	1.756026
