data_functionalizedCrystal
_audit_creation_method	'MofGen! by Chris Wilmer'
_symmetry_space_group_name_H-M	'P1'
_symmetry_Int_Tables_number	1
_symmetry_cell_setting	triclinic
loop_
_symmetry_equiv_pos_as_xyz
  x,y,z
_cell_length_a	16.109301
_cell_length_b	23.532357
_cell_length_c	14.586319
_cell_angle_alpha	89.990687
_cell_angle_beta	89.998857
_cell_angle_gamma	83.144938
loop_
_atom_site_label
_atom_site_type_symbol
_atom_site_fract_x
_atom_site_fract_y
_atom_site_fract_z
O1	O	1.102536	0.073204	-0.076201
O2	O	1.602536	0.573204	0.423799
O3	O	0.860400	0.082314	-0.076216
O4	O	1.360400	0.582314	0.423784
O5	O	0.988791	-0.005147	-0.076189
O6	O	1.488791	0.494853	0.423811
O7	O	0.974145	0.160666	-0.076228
O8	O	1.474145	0.660666	0.423772
O9	O	0.988782	-0.005149	0.076292
O10	O	1.488782	0.494851	0.576292
O11	O	0.860391	0.082313	0.076265
O12	O	1.360391	0.582313	0.576265
O13	O	1.102527	0.073203	0.076279
O14	O	1.602527	0.573203	0.576279
Cu15	Cu	0.981458	0.077758	0.090195
Cu16	Cu	1.481458	0.577758	0.590195
Cu17	Cu	0.981469	0.077759	-0.090131
Cu18	Cu	1.481469	0.577759	0.409869
O19	O	0.974136	0.160665	0.076253
O20	O	1.474136	0.660665	0.576253
C21	C	0.829424	0.081945	0.000023
C22	C	1.329424	0.581945	0.500023
C23	C	0.737137	0.080838	0.000019
C24	C	1.237137	0.580838	0.500019
C25	C	0.427747	0.129119	0.000023
C26	C	0.927747	0.629119	0.500023
C27	C	0.514459	0.130164	0.000018
C28	C	1.014459	0.630164	0.500018
C29	C	0.535175	0.026394	0.000030
C30	C	1.035175	0.526394	0.500030
C31	C	0.448465	0.025350	0.000029
C32	C	0.948465	0.525350	0.500029
C33	C	0.394752	0.076714	0.000030
C34	C	0.894752	0.576714	0.500030
C35	C	0.568175	0.078803	0.000026
C36	C	1.068175	0.578803	0.500026
C37	C	0.662191	0.079936	0.000020
C38	C	1.162191	0.579936	0.500020
C39	C	0.300730	0.075582	0.000034
C40	C	0.800730	0.575582	0.500034
C41	C	0.988420	-0.026366	0.000054
C42	C	1.488420	0.473634	0.500054
C43	C	0.987319	-0.089589	0.000063
C44	C	1.487319	0.410411	0.500063
C45	C	0.980409	-0.481625	-0.083105
C46	C	1.480409	0.018375	0.416895
C47	C	0.979362	-0.541028	-0.083110
C48	C	1.479362	-0.041028	0.416890
O49	O	0.978796	-0.571746	-0.153798
O50	O	1.478796	-0.071746	0.346202
N51	N	0.978838	-0.570742	0.000006
N52	N	1.478838	-0.070742	0.500006
C53	C	0.979352	-0.541048	0.083133
C54	C	1.479352	-0.041048	0.583133
O55	O	0.978810	-0.571777	0.153829
O56	O	1.478810	-0.071777	0.653829
C57	C	0.980393	-0.481646	0.083137
C58	C	1.480393	0.018354	0.583137
C59	C	0.980926	-0.451936	0.000016
C60	C	1.480926	0.048064	0.500016
C61	C	0.980940	-0.451915	-0.166219
C62	C	1.480940	0.048085	0.333781
C63	C	0.981989	-0.392515	-0.166214
C64	C	1.481989	0.107485	0.333786
C65	C	0.982506	-0.362827	-0.083093
C66	C	1.482506	0.137173	0.416907
C67	C	0.981974	-0.392537	0.000021
C68	C	1.481974	0.107463	0.500021
C69	C	0.980902	-0.451953	0.166263
C70	C	1.480902	0.048047	0.666263
C71	C	0.981943	-0.392546	0.166260
C72	C	1.481943	0.107454	0.666260
C73	C	0.982475	-0.362836	0.083139
C74	C	1.482475	0.137164	0.583139
C75	C	0.983540	-0.303449	0.083148
C76	C	1.483540	0.196551	0.583148
N77	N	0.984064	-0.273735	0.000031
N78	N	1.484064	0.226265	0.500031
C79	C	0.983547	-0.303424	-0.083089
C80	C	1.483547	0.196576	0.416911
C81	C	0.977165	-0.665798	0.083118
C82	C	1.477165	-0.165798	0.583118
C83	C	0.976130	-0.725200	0.083114
C84	C	1.476130	-0.225200	0.583114
C85	C	0.976138	-0.725176	-0.083129
C86	C	1.476138	-0.225176	0.416871
C87	C	0.977179	-0.665773	-0.083125
C88	C	1.477179	-0.165773	0.416875
C89	C	0.977689	-0.636084	0.000001
C90	C	1.477689	-0.136084	0.500001
C91	C	0.985750	-0.178682	-0.083071
C92	C	1.485750	0.321318	0.416929
C93	C	0.986802	-0.119278	-0.083058
C94	C	1.486802	0.380722	0.416942
C95	C	0.986789	-0.119307	0.083185
C96	C	1.486789	0.380693	0.583185
C97	C	0.985742	-0.178706	0.083172
C98	C	1.485742	0.321294	0.583172
C99	C	0.985219	-0.208392	0.000037
C100	C	1.485219	0.291608	0.500037
O101	O	0.984103	-0.272693	0.153799
O102	O	1.484103	0.227307	0.653799
O103	O	0.984079	-0.272687	-0.153773
O104	O	1.484079	0.227313	0.346227
C105	C	1.133503	0.073573	0.000039
C106	C	1.633503	0.573573	0.500039
C107	C	1.225790	0.074679	0.000037
C108	C	1.725790	0.574679	0.500037
C109	C	0.974507	0.181883	0.000008
C110	C	1.474507	0.681883	0.500008
C111	C	0.975608	0.245106	-0.000007
C112	C	1.475608	0.745106	0.499993
N113	N	0.981457	0.077757	0.217027
N114	N	1.481457	0.577757	0.717027
N115	N	0.981477	0.077756	-0.216963
N116	N	1.481477	0.577756	0.283037
C117	C	1.038327	0.039041	0.452045
C118	C	1.538327	0.539041	0.952045
C119	C	1.038330	0.039040	0.548026
C120	C	1.538330	0.539040	1.048026
C121	C	0.924600	0.116473	0.548012
C122	C	1.424600	0.616473	1.048012
C123	C	0.924595	0.116471	0.452033
C124	C	1.424595	0.616471	0.952033
C125	C	0.981463	0.077756	0.404052
C126	C	1.481463	0.577756	0.904052
C127	C	0.981471	0.077757	0.596012
C128	C	1.481471	0.577757	1.096012
C129	C	0.981473	0.077755	0.700079
C130	C	1.481473	0.577755	1.200079
C131	C	0.981460	0.077757	0.299978
C132	C	1.481460	0.577757	0.799978
H133	H	0.421601	-0.017328	0.000031
H134	H	0.921601	0.482672	0.500031
H135	H	0.987237	-0.095090	-0.150748
H136	H	1.487237	0.404910	0.349252
Cl137	Cl	0.360226	0.193692	0.000021
Cl138	Cl	0.860226	0.693692	0.500021
Cl139	Cl	1.109815	-0.009631	0.391730
Cl140	Cl	1.609815	0.490369	0.891730
Cl141	Cl	0.982585	-0.355227	0.270769
Cl142	Cl	1.482585	0.144773	0.770769
H143	H	0.985320	-0.202844	-0.150768
H144	H	1.485320	0.297156	0.349232
Cl145	Cl	0.977845	-0.628429	-0.187624
Cl146	Cl	1.477845	-0.128429	0.312376
H147	H	0.985316	-0.202898	0.150857
H148	H	1.485316	0.297102	0.650857
Cl149	Cl	0.982650	-0.355174	-0.270715
Cl150	Cl	1.482650	0.144826	0.229285
H151	H	0.578918	-0.015425	0.000031
H152	H	1.078918	0.484575	0.500031
Cl153	Cl	0.980292	-0.489227	-0.270728
Cl154	Cl	1.480292	0.010773	0.229272
Cl155	Cl	0.853099	0.165143	0.391692
Cl156	Cl	1.353099	0.665143	0.891692
Cl157	Cl	0.975480	-0.762509	-0.187624
Cl158	Cl	1.475480	-0.262509	0.312376
Cl159	Cl	0.975476	-0.762544	0.187614
Cl160	Cl	1.475476	-0.262544	0.687614
Cl161	Cl	1.109817	-0.009633	0.608358
Cl162	Cl	1.609817	0.490367	1.108358
H163	H	0.977583	-0.641630	0.150813
H164	H	1.477583	-0.141630	0.650813
Cl165	Cl	0.980227	-0.489288	0.270766
Cl166	Cl	1.480227	0.010712	0.770766
Cl167	Cl	0.987439	-0.081973	0.187673
Cl168	Cl	1.487439	0.418027	0.687673
Cl169	Cl	0.853115	0.165144	0.608336
Cl170	Cl	1.353115	0.665144	1.108336
H171	H	0.541318	0.172838	0.000012
H172	H	1.041318	0.672838	0.500012
