data_functionalizedCrystal
_audit_creation_method	'MofGen! by Chris Wilmer'
_symmetry_space_group_name_H-M	'P1'
_symmetry_Int_Tables_number	1
_symmetry_cell_setting	triclinic
loop_
_symmetry_equiv_pos_as_xyz
  x,y,z
_cell_length_a	10.654562
_cell_length_b	10.654559
_cell_length_c	9.130313
_cell_angle_alpha	90.002760
_cell_angle_beta	90.006510
_cell_angle_gamma	84.489393
loop_
_atom_site_label
_atom_site_type_symbol
_atom_site_fract_x
_atom_site_fract_y
_atom_site_fract_z
O1	O	-1.667841	-0.176470	-0.121815
O2	O	-1.302365	-0.193259	-0.121814
O3	O	-1.493500	-0.002126	-0.121805
O4	O	-1.476706	-0.367603	-0.121824
O5	O	-1.493477	-0.002128	0.121794
O6	O	-1.302342	-0.193261	0.121785
O7	O	-1.667818	-0.176471	0.121784
Cu8	Cu	-1.485078	-0.184866	0.144027
Cu9	Cu	-1.485105	-0.184864	-0.144057
O10	O	-1.476683	-0.367604	0.121775
C11	C	-1.255556	-0.192024	-0.000015
C12	C	-1.116113	-0.188326	-0.000014
C13	C	-1.064570	-0.072313	-0.000004
C14	C	-0.933548	-0.068846	-0.000015
C15	C	-0.905623	-0.297414	-0.000039
C16	C	-1.036643	-0.300880	-0.000039
C17	C	-1.144040	0.040241	0.000020
C18	C	-1.092497	0.156263	0.000032
C19	C	-0.961475	0.159730	0.000022
C20	C	-0.881996	0.047176	-0.000000
C21	C	-0.714628	-0.177703	-0.000018
C22	C	-0.854071	-0.181393	-0.000024
C23	C	-1.492253	0.044671	-0.000007
C24	C	-1.488556	0.184114	-0.000009
C25	C	-1.486804	0.249627	0.132776
C26	C	-1.483342	0.380649	0.132772
C27	C	-1.483378	0.380634	-0.132813
C28	C	-1.486850	0.249615	-0.132807
C29	C	-1.488511	0.184125	0.265575
C30	C	-1.486758	0.249638	0.398370
C31	C	-1.483295	0.380661	0.398366
C32	C	-1.481586	0.446171	0.265567
N33	N	-1.485068	-0.184866	0.346649
C34	C	-1.477929	0.585599	-0.000023
C35	C	-1.481622	0.446156	-0.000018
N36	N	-1.485125	-0.184854	-0.346680
C37	C	-1.561942	-0.261738	0.576626
C38	C	-1.561911	-0.261748	0.423290
C39	C	-1.408242	-0.107979	0.423354
C40	C	-1.408268	-0.107977	0.576688
C41	C	-1.638800	-0.338616	0.653259
C42	C	-1.715624	-0.415505	0.576565
C43	C	-1.715592	-0.415515	0.423228
C44	C	-1.638736	-0.338636	0.346585
H45	H	-0.919514	0.254200	0.000017
H46	H	-1.778188	-0.478106	0.638977
O47	O	-1.169826	0.265507	-0.000149
C48	C	-1.246446	0.270358	-0.126324
H49	H	-1.253957	0.170616	-0.168391
H50	H	-1.344484	0.316287	-0.097939
H51	H	-1.202855	0.328092	-0.214667
O52	O	-1.333525	-0.033475	0.348748
C53	C	-1.248462	-0.109259	0.260105
H54	H	-1.288351	-0.202813	0.237115
H55	H	-1.234018	-0.058642	0.152288
H56	H	-1.154237	-0.127603	0.319231
O57	O	-0.754748	0.050767	0.000043
C58	C	-0.726292	0.177300	0.000005
H59	H	-0.809693	0.240018	0.046137
H60	H	-0.639472	0.186561	0.070716
H61	H	-0.706700	0.207638	-0.116864
H62	H	-1.488160	0.196293	0.506490
H63	H	-1.481880	0.433999	0.506495
H64	H	-1.638705	-0.338662	0.221728
O65	O	-1.790327	-0.490240	0.348952
C66	C	-1.858138	-0.558113	0.449477
H67	H	-1.865032	-0.506183	0.558776
H68	H	-1.956952	-0.566824	0.405137
H69	H	-1.807266	-0.656215	0.465803
O70	O	-1.333617	-0.033172	0.650969
C71	C	-1.265762	0.034665	0.550453
H72	H	-1.317666	0.041513	0.441132
H73	H	-1.257119	0.133497	0.594770
H74	H	-1.167633	-0.016156	0.534179
O75	O	-1.478066	0.573428	0.265371
C76	C	-1.368325	0.603938	0.192561
H77	H	-1.334123	0.524007	0.115029
H78	H	-1.390441	0.694568	0.127272
H79	H	-1.291675	0.617911	0.276500
O80	O	-1.481475	0.444304	-0.261759
C81	C	-1.370899	0.506839	-0.269666
H82	H	-1.296057	0.458068	-0.194311
H83	H	-1.334417	0.503880	-0.387108
H84	H	-1.392809	0.609134	-0.233975
O85	O	-1.638940	-0.338802	0.802208
C86	C	-1.723271	-0.423114	0.853404
H87	H	-1.737366	-0.496041	0.765037
H88	H	-1.682877	-0.472840	0.956004
H89	H	-1.817758	-0.368641	0.880572
H90	H	-1.250726	0.037431	0.000032
H91	H	-0.840901	-0.389050	-0.000053
O92	O	-1.086513	-0.413680	0.000020
C93	C	-0.988279	-0.512280	-0.000026
H94	H	-0.898969	-0.476315	0.046099
H95	H	-1.016369	-0.593211	0.070687
H96	H	-0.970063	-0.547045	-0.116896
H97	H	-1.488276	0.196273	-0.240932
H98	H	-1.491325	0.077440	0.265593
