data_functionalizedCrystal
_audit_creation_method	'MofGen! by Chris Wilmer'
_symmetry_space_group_name_H-M	'P1'
_symmetry_Int_Tables_number	1
_symmetry_cell_setting	triclinic
loop_
_symmetry_equiv_pos_as_xyz
  x,y,z
_cell_length_a	29.839134
_cell_length_b	29.839131
_cell_length_c	16.625539
_cell_angle_alpha	90.032094
_cell_angle_beta	90.032649
_cell_angle_gamma	90.034165
loop_
_atom_site_label
_atom_site_type_symbol
_atom_site_fract_x
_atom_site_fract_y
_atom_site_fract_z
Zn1	Zn	0.686757	-0.178939	0.456148
Zn2	Zn	0.686678	-0.254070	0.321306
Zn3	Zn	0.611628	-0.178946	0.321300
Zn4	Zn	0.611587	-0.254034	0.456068
O5	O	0.649163	-0.216497	0.388705
O6	O	0.749613	-0.188918	0.438297
O7	O	0.676707	-0.244123	0.208473
O8	O	0.621645	-0.116078	0.339219
O9	O	0.749555	-0.244117	0.339229
O10	O	0.676841	-0.116073	0.438291
O11	O	0.621568	-0.188929	0.208468
O12	O	0.548756	-0.188893	0.339141
O13	O	0.621574	-0.244054	0.568911
O14	O	0.548726	-0.244060	0.438154
O15	O	0.676801	-0.188883	0.568970
O16	O	0.676667	-0.316933	0.339152
O17	O	0.621498	-0.316906	0.438160
C18	C	0.532440	-0.216474	0.388639
C19	C	0.482506	-0.216475	0.388629
C20	C	0.125922	-0.187729	0.337255
C21	C	0.313595	-0.187717	0.337206
O22	O	0.337862	-0.163238	0.293450
N23	N	0.337060	-0.216482	0.388670
C24	C	0.313605	-0.245250	0.440154
O25	O	0.337870	-0.269713	0.483932
C26	C	0.125933	-0.245260	0.440206
C27	C	0.102469	-0.216497	0.388733
C28	C	0.102458	-0.158967	0.285786
C29	C	0.055543	-0.158973	0.285796
C30	C	0.032091	-0.187740	0.337274
C31	C	0.055554	-0.216502	0.388742
C32	C	0.102478	-0.274026	0.491694
C33	C	0.055557	-0.274025	0.491704
C34	C	0.032094	-0.245261	0.440230
C35	C	-0.014814	-0.245274	0.440230
N36	N	-0.038279	-0.216509	0.388766
C37	C	-0.014827	-0.187742	0.337288
C38	C	0.412135	-0.245244	0.440122
C39	C	0.459053	-0.245242	0.440108
C40	C	0.459040	-0.187707	0.337160
C41	C	0.412121	-0.187712	0.337171
C42	C	0.388670	-0.216478	0.388657
C43	C	-0.113353	-0.187755	0.337311
C44	C	-0.160273	-0.187764	0.337323
C45	C	-0.160255	-0.245297	0.440273
C46	C	-0.113340	-0.245289	0.440259
C47	C	-0.089890	-0.216515	0.388775
O48	O	-0.039110	-0.269736	0.483970
O49	O	-0.039100	-0.163275	0.293529
C50	C	0.172837	-0.187724	0.337245
C51	C	0.196300	-0.216486	0.388713
C52	C	0.172848	-0.245253	0.440192
C53	C	0.243218	-0.216484	0.388700
C54	C	0.266670	-0.187717	0.337221
C55	C	0.243205	-0.158952	0.285757
C56	C	0.196289	-0.158957	0.285767
C57	C	0.196314	-0.274019	0.491656
C58	C	0.243229	-0.274011	0.491642
C59	C	0.266682	-0.245244	0.440163
C60	C	0.649081	-0.333220	0.388665
C61	C	0.649088	-0.383154	0.388675
C62	C	0.677941	-0.692799	0.337227
C63	C	0.677997	-0.880472	0.337258
O64	O	0.702464	-0.904738	0.293484
N65	N	0.649256	-0.903939	0.388766
C66	C	0.620501	-0.880485	0.440274
O67	O	0.596060	-0.904752	0.484091
C68	C	0.620448	-0.692813	0.440246
C69	C	0.649188	-0.669348	0.388729
C70	C	0.706679	-0.669334	0.285715
C71	C	0.706663	-0.622419	0.285704
C72	C	0.677909	-0.598968	0.337206
C73	C	0.649172	-0.622433	0.388718
C74	C	0.591696	-0.669360	0.491757
C75	C	0.591686	-0.622439	0.491747
C76	C	0.620426	-0.598974	0.440230
C77	C	0.620402	-0.552067	0.440210
N78	N	0.649143	-0.528600	0.388702
C79	C	0.677897	-0.552050	0.337200
C80	C	0.620530	-0.979016	0.440284
C81	C	0.620543	-1.025934	0.440290
C82	C	0.678039	-1.025917	0.337275
C83	C	0.678024	-0.978999	0.337266
C84	C	0.649271	-0.955549	0.388776
C85	C	0.677861	-0.453524	0.337182
C86	C	0.677841	-0.406605	0.337173
C87	C	0.620347	-0.406626	0.440191
C88	C	0.620365	-0.453541	0.440196
C89	C	0.649125	-0.476989	0.388689
O90	O	0.595951	-0.527772	0.483967
O91	O	0.702342	-0.527776	0.293402
C92	C	0.677957	-0.739714	0.337237
C93	C	0.649219	-0.763179	0.388750
C94	C	0.620466	-0.739729	0.440252
C95	C	0.649232	-0.810097	0.388756
C96	C	0.677985	-0.833548	0.337254
C97	C	0.706726	-0.810081	0.285746
C98	C	0.706711	-0.763165	0.285736
C99	C	0.591725	-0.763196	0.491759
C100	C	0.591743	-0.810111	0.491765
C101	C	0.620496	-0.833562	0.440263
C102	C	0.766341	-0.216521	0.388773
C103	C	0.816275	-0.216531	0.388802
C104	C	0.649192	-0.216464	0.599014
C105	C	0.649204	-0.216450	0.688636
C106	C	0.649256	-0.099319	0.388763
C107	C	0.649296	-0.049384	0.388788
C108	C	0.649159	-0.216498	0.179215
C109	C	0.649234	-0.216386	0.089594
C110	C	0.649225	-0.216399	1.016811
C111	C	0.649218	-0.216415	0.925503
C112	C	0.649215	-0.216425	0.852726
C113	C	0.649207	-0.216439	0.761412
H114	H	0.393046	-0.268671	0.482050
F115	F	-0.088367	-0.275908	0.495034
H116	H	0.262329	-0.297439	0.533556
H117	H	0.177190	-0.135534	0.243852
H118	H	0.568336	-0.829212	0.533716
H119	H	0.596935	-0.387525	0.482121
F120	F	0.737301	-0.738198	0.230906
H121	H	0.568272	-0.603349	0.533695
F122	F	0.030577	-0.128354	0.231017
F123	F	0.561111	-0.694323	0.546597
F124	F	0.268173	-0.128337	0.230967
H125	H	0.121548	-0.135539	0.243866
F126	F	0.387154	-0.157097	0.282387
F127	F	0.589949	-1.050902	0.495112
H128	H	0.596964	-0.472647	0.482148
H129	H	-0.179358	-0.268720	0.482183
F130	F	0.737257	-0.597452	0.230881
H131	H	0.177224	-0.297444	0.533577
H132	H	0.701244	-0.387501	0.295219
H133	H	0.701282	-0.472611	0.295241
H134	H	0.036465	-0.297450	0.533634
H135	H	0.730137	-0.829182	0.243809
H136	H	0.730096	-0.688423	0.243775
H137	H	0.568311	-0.744106	0.533700
H138	H	0.478153	-0.268669	0.482014
F139	F	-0.185241	-0.157149	0.282535
F140	F	0.127439	-0.304641	0.546480
H141	H	-0.094266	-0.164322	0.295392
F142	F	0.708612	-0.954030	0.282435
H143	H	0.701451	-1.045019	0.295340
H144	H	0.478143	-0.164285	0.295244
F145	F	0.589925	-0.954065	0.495111
