data_functionalizedCrystal
_audit_creation_method	'MofGen! by Chris Wilmer'
_symmetry_space_group_name_H-M	'P1'
_symmetry_Int_Tables_number	1
_symmetry_cell_setting	triclinic
loop_
_symmetry_equiv_pos_as_xyz
  x,y,z
_cell_length_a	18.050591
_cell_length_b	19.121111
_cell_length_c	18.050582
_cell_angle_alpha	92.417072
_cell_angle_beta	90.020922
_cell_angle_gamma	87.533405
loop_
_atom_site_label
_atom_site_type_symbol
_atom_site_fract_x
_atom_site_fract_y
_atom_site_fract_z
Zn1	Zn	1.122669	0.279734	0.432640
Zn2	Zn	1.117280	0.397178	0.313744
Zn3	Zn	0.998488	0.279737	0.308452
Zn4	Zn	0.993138	0.397141	0.437878
O5	O	1.057894	0.338447	0.373178
O6	O	1.225878	0.295327	0.416891
O7	O	1.101506	0.381616	0.209118
O8	O	1.019456	0.181452	0.320519
O9	O	1.221919	0.381613	0.329539
O10	O	1.110691	0.181449	0.411760
O11	O	1.014230	0.295332	0.205230
O12	O	0.893855	0.295296	0.325597
O13	O	1.010337	0.381550	0.541107
O14	O	0.889924	0.381552	0.420686
O15	O	1.105503	0.295291	0.537259
O16	O	1.096318	0.495458	0.334618
O17	O	1.005112	0.495430	0.425818
C18	C	0.864943	0.338421	0.373136
C19	C	0.782397	0.338427	0.373137
C20	C	0.585065	0.291466	0.321539
C21	C	0.532754	0.355526	0.306150
C22	C	0.631266	0.338448	0.373171
C23	C	0.536494	0.274410	0.388559
C24	C	0.485280	0.338463	0.373203
C25	C	0.580041	0.402542	0.357749
C26	C	0.583787	0.321383	0.440187
C27	C	0.531496	0.385487	0.424826
C28	C	0.715365	0.338439	0.373151
C29	C	0.401183	0.338480	0.373223
C30	C	1.049570	0.520928	0.381377
C31	C	1.046077	0.598994	0.384909
C32	C	1.091959	0.635661	0.339124
C33	C	1.088678	0.709012	0.342450
C34	C	1.039511	0.745696	0.391558
C35	C	0.993627	0.709024	0.437348
C36	C	0.996912	0.635674	0.434025
C37	C	1.027217	0.967166	0.403968
C38	C	1.023934	1.040521	0.407287
C39	C	1.118987	1.040504	0.312390
C40	C	1.122264	0.967153	0.309068
C41	C	1.076383	0.930487	0.354860
C42	C	1.036154	0.820673	0.394958
C43	C	1.079744	0.855512	0.351464
C44	C	1.251598	0.338474	0.373221
C45	C	1.334144	0.338485	0.373240
C46	C	1.057925	0.338416	0.566883
C47	C	1.057938	0.338403	0.649428
C48	C	1.066265	1.155254	0.364974
C49	C	1.069816	1.077188	0.361502
C50	C	1.057909	0.338428	0.180225
C51	C	1.058049	0.338243	0.097672
C52	C	1.006227	0.385246	0.850968
C53	C	1.073208	0.402419	0.901141
C54	C	1.057977	0.338349	0.800556
C55	C	0.991034	0.321157	0.897464
C56	C	1.058008	0.338299	0.946539
C57	C	1.124991	0.355556	0.849643
C58	C	1.042773	0.274264	0.845961
C59	C	1.109802	0.291412	0.896110
C60	C	1.057957	0.338380	0.716459
C61	C	1.058035	0.338268	1.030634
H62	H	0.608514	0.251778	0.277832
O63	O	1.138160	0.748563	0.293065
H64	H	1.172893	0.710731	0.258351
H65	H	0.606195	0.306918	0.496828
H66	H	1.181630	0.370137	0.828704
O67	O	0.511029	0.202669	0.405793
H68	H	0.532549	0.163766	0.362844
O69	O	1.167845	0.238849	0.922284
H70	H	1.223339	0.253265	0.903053
H71	H	0.962502	0.424957	0.831081
O72	O	1.090266	0.474173	0.933135
H73	H	1.098218	0.510076	0.887328
H74	H	0.989858	0.937319	0.441253
H75	H	1.029875	0.220105	0.821802
H76	H	1.131993	0.605798	0.299132
O77	O	0.916031	0.301911	0.925321
H78	H	0.873165	0.340936	0.907296
H79	H	1.162300	0.937286	0.269081
H80	H	1.156342	1.070365	0.275110
H81	H	0.510365	0.369971	0.249490
O82	O	0.970903	1.080097	0.460253
H83	H	0.984239	1.065991	0.517916
H84	H	0.599175	0.456720	0.344684
H85	H	0.959551	0.605821	0.471308
O86	O	0.500591	0.438179	0.482679
H87	H	0.518055	0.491267	0.469738
H88	H	0.953597	0.738898	0.477335
O89	O	1.132783	0.815946	0.298511
H90	H	1.101065	0.782571	0.259181
H91	H	0.996120	0.850549	0.434940
