data_functionalizedCrystal
_audit_creation_method	'MofGen! by Chris Wilmer'
_symmetry_space_group_name_H-M	'P1'
_symmetry_Int_Tables_number	1
_symmetry_cell_setting	triclinic
loop_
_symmetry_equiv_pos_as_xyz
  x,y,z
_cell_length_a	10.540535
_cell_length_b	15.944551
_cell_length_c	9.616153
_cell_angle_alpha	89.996788
_cell_angle_beta	89.995499
_cell_angle_gamma	84.011190
loop_
_atom_site_label
_atom_site_type_symbol
_atom_site_fract_x
_atom_site_fract_y
_atom_site_fract_z
O1	O	1.684284	0.118352	-0.115573
O2	O	1.314718	0.129509	-0.115593
O3	O	1.509593	0.001715	-0.115570
O4	O	1.489409	0.246145	-0.115596
O5	O	1.509567	0.001718	0.115722
O6	O	1.314692	0.129511	0.115699
O7	O	1.684257	0.118354	0.115718
Zn8	Zn	1.499470	0.123933	0.152431
Zn9	Zn	1.499505	0.123930	-0.152305
O10	O	1.489382	0.246147	0.115696
C11	C	1.267413	0.128674	0.000051
C12	C	1.126499	0.126173	0.000043
C13	C	1.091099	0.032868	0.000059
C14	C	0.944534	0.030237	0.000598
C15	C	0.916568	0.168767	0.131877
C16	C	1.063306	0.170752	0.131974
C17	C	1.063202	0.172106	-0.131057
C18	C	0.916915	0.167791	-0.132775
C19	C	1.508742	-0.029582	0.000076
C20	C	1.506230	-0.122843	0.000077
C21	C	1.379433	-0.338455	0.000051
C22	C	1.438300	-0.399120	0.114095
C23	C	1.501685	-0.293596	0.000066
C24	C	1.438355	-0.399106	-0.113941
C25	C	1.497286	-0.458535	0.000049
C26	C	1.560586	-0.353033	0.114204
C27	C	1.560624	-0.353013	-0.113934
C28	C	1.619580	-0.413660	0.000138
C29	C	1.504216	-0.198579	0.000077
C30	C	1.494765	-0.553551	0.000048
C31	C	1.731562	0.119189	0.000072
C32	C	1.872477	0.121690	0.000070
C33	C	1.490234	0.277445	0.000047
C34	C	1.492746	0.370706	0.000037
N35	N	1.499456	0.123935	0.360406
N36	N	1.499530	0.123921	-0.360280
C37	C	1.394898	0.192066	0.580763
C38	C	1.395123	0.192322	0.419596
C39	C	1.631908	0.143872	0.418860
C40	C	1.631337	0.144354	0.580078
C41	C	1.472886	0.035643	0.580325
C42	C	1.469831	0.036215	0.419098
H43	H	1.103899	0.138961	0.230887
H44	H	1.612299	-0.332576	-0.210348
H45	H	1.135025	-0.002360	0.094449
H46	H	0.888790	0.133532	-0.230288
H47	H	0.866958	0.234536	-0.141152
N48	N	1.754102	-0.456797	0.000233
H49	H	1.768201	-0.492811	-0.085901
H50	H	1.816529	-0.412860	0.001146
H51	H	1.711620	0.095593	0.380516
H52	H	1.711628	0.096720	0.619075
H53	H	1.277958	-0.305751	0.000159
H54	H	1.386581	-0.419535	0.210504
N55	N	0.852612	0.257955	0.137891
H56	H	0.882351	0.287020	0.223436
H57	H	0.875609	0.289632	0.052094
N58	N	1.091347	0.263039	-0.132769
H59	H	1.144828	0.274462	-0.049082
H60	H	1.139406	0.274343	-0.220514
H61	H	1.612239	-0.332734	0.210725
H62	H	1.372398	0.021104	0.380894
N63	N	0.876227	0.125985	0.262328
H64	H	0.829400	0.076121	0.236348
H65	H	0.954218	0.105996	0.319025
N66	N	0.907475	-0.018286	0.126501
H67	H	0.986395	-0.038043	0.181872
H68	H	0.846964	0.019446	0.186361
H69	H	1.085405	0.239152	0.137599
H70	H	0.915709	-0.006580	-0.093867
H71	H	1.296134	0.180255	0.619571
H72	H	1.106069	0.142990	-0.230998
N73	N	1.369857	-0.426132	-0.241645
H74	H	1.279160	-0.398507	-0.241541
H75	H	1.415221	-0.408550	-0.327708
N76	N	1.264713	0.176436	0.367234
H77	H	1.206562	0.169205	0.448882
H78	H	1.228235	0.225914	0.309044
H79	H	1.133567	-0.002962	-0.094449
N80	N	1.417115	0.278341	0.634354
H81	H	1.431466	0.316566	0.553362
H82	H	1.340071	0.302701	0.688942
N83	N	1.417405	0.279152	0.368630
H84	H	1.502347	0.294170	0.404101
H85	H	1.417518	0.279729	0.263607
N86	N	1.662435	0.229662	0.629875
H87	H	1.676383	0.266601	0.547099
H88	H	1.589290	0.256831	0.687557
N89	N	1.663740	0.228223	0.365371
H90	H	1.749133	0.240488	0.403565
H91	H	1.667514	0.226848	0.260441
H92	H	1.378407	0.016668	0.621059
H93	H	1.541082	-0.016931	0.378812
N94	N	1.573950	-0.031547	0.630818
H95	H	1.636700	-0.004981	0.691868
H96	H	1.532403	-0.075168	0.685946
