data_functionalizedCrystal
_audit_creation_method	'MofGen! by Chris Wilmer'
_symmetry_space_group_name_H-M	'P1'
_symmetry_Int_Tables_number	1
_symmetry_cell_setting	triclinic
loop_
_symmetry_equiv_pos_as_xyz
  x,y,z
_cell_length_a	18.101398
_cell_length_b	19.120786
_cell_length_c	18.101390
_cell_angle_alpha	87.524897
_cell_angle_beta	89.991806
_cell_angle_gamma	92.461076
loop_
_atom_site_label
_atom_site_type_symbol
_atom_site_fract_x
_atom_site_fract_y
_atom_site_fract_z
Zn1	Zn	1.119559	-0.279688	-0.405959
Zn2	Zn	1.619559	0.220312	0.094041
Zn3	Zn	1.114186	-0.397159	-0.276829
Zn4	Zn	1.614186	0.102841	0.223171
Zn5	Zn	0.995720	-0.279710	-0.282151
Zn6	Zn	1.495720	0.220290	0.217849
Zn7	Zn	0.990400	-0.397100	-0.400652
Zn8	Zn	1.490400	0.102900	0.099348
O9	O	1.054966	-0.338414	-0.341398
O10	O	1.554966	0.161586	0.158602
O11	O	1.222478	-0.295286	-0.388824
O12	O	1.722478	0.204714	0.111176
O13	O	1.098450	-0.381614	-0.173901
O14	O	1.598450	0.118386	0.326099
O15	O	1.016622	-0.181417	-0.303023
O16	O	1.516622	0.318583	0.196977
O17	O	1.218531	-0.381591	-0.293952
O18	O	1.718531	0.118409	0.206048
O19	O	1.107606	-0.181400	-0.393984
O20	O	1.607606	0.318600	0.106016
O21	O	1.011413	-0.295324	-0.177810
O22	O	1.511413	0.204676	0.322190
O23	O	0.891382	-0.295267	-0.297876
O24	O	1.391382	0.204733	0.202124
O25	O	1.007554	-0.381491	-0.504990
O26	O	1.507554	0.118509	-0.004990
O27	O	0.887473	-0.381513	-0.384938
O28	O	1.387473	0.118487	0.115062
O29	O	1.102447	-0.295228	-0.508890
O30	O	1.602447	0.204772	-0.008890
O31	O	1.093291	-0.495442	-0.288806
O32	O	1.593291	0.004558	0.211194
O33	O	1.002345	-0.495398	-0.379778
O34	O	1.502345	0.004602	0.120222
C35	C	0.862557	-0.338387	-0.341409
C36	C	1.362557	0.161613	0.158591
C37	C	0.780243	-0.338392	-0.341431
C38	C	1.280243	0.161608	0.158569
C39	C	0.481150	-0.338433	-0.341398
C40	C	0.981150	0.161567	0.158602
C41	C	0.510028	-0.392959	-0.395881
C42	C	1.010028	0.107041	0.104119
C43	C	0.595655	-0.392788	-0.396123
C44	C	1.095655	0.107212	0.103877
C45	C	0.629533	-0.338413	-0.341415
C46	C	1.129533	0.161587	0.158585
C47	C	0.601798	-0.264431	-0.366073
C48	C	1.101798	0.235569	0.133927
C49	C	0.516138	-0.264758	-0.366463
C50	C	1.016138	0.235242	0.133537
C51	C	0.511855	-0.357238	-0.262149
C52	C	1.011855	0.142762	0.237851
C53	C	0.597433	-0.358861	-0.262495
C54	C	1.097433	0.141139	0.237505
C55	C	0.713393	-0.338397	-0.341423
C56	C	1.213393	0.161603	0.158577
C57	C	0.397290	-0.338444	-0.341392
C58	C	0.897290	0.161556	0.158608
C59	C	1.046678	-0.520906	-0.333155
C60	C	1.546678	-0.020906	0.166845
C61	C	1.043200	-0.598976	-0.329653
C62	C	1.543200	-0.098976	0.170347
C63	C	1.088901	-0.635585	-0.375406
C64	C	1.588901	-0.135585	0.124594
C65	C	1.085630	-0.708940	-0.372117
C66	C	1.585630	-0.208940	0.127883
C67	C	1.036661	-0.745686	-0.323072
C68	C	1.536661	-0.245686	0.176928
C69	C	0.990955	-0.709072	-0.277318
C70	C	1.490955	-0.209072	0.222682
C71	C	0.994223	-0.635718	-0.280611
C72	C	1.494223	-0.135718	0.219389
C73	C	1.024423	-0.967172	-0.310761
C74	C	1.524423	-0.467172	0.189239
C75	C	1.021160	-1.040531	-0.307470
C76	C	1.521160	-0.540531	0.192530
C77	C	1.115835	-1.040394	-0.402271
C78	C	1.615835	-0.540394	0.097729
C79	C	1.119101	-0.967039	-0.405556
C80	C	1.619101	-0.467039	0.094444
C81	C	1.073392	-0.930431	-0.359805
C82	C	1.573392	-0.430431	0.140195
C83	C	1.033318	-0.820667	-0.319707
C84	C	1.533318	-0.320667	0.180293
C85	C	1.076732	-0.855451	-0.363174
C86	C	1.576732	-0.355451	0.136826
C87	C	1.248127	-0.338443	-0.341387
C88	C	1.748127	0.161557	0.158613
C89	C	1.330440	-0.338455	-0.341382
C90	C	1.830440	0.161545	0.158618
C91	C	1.055007	-0.338350	-0.534563
C92	C	1.555007	0.161650	-0.034563
C93	C	1.055024	-0.338323	-0.616878
C94	C	1.555024	0.161677	-0.116878
C95	C	1.063307	-0.155210	-0.349689
C96	C	1.563307	0.344790	0.150311
C97	C	1.066861	-0.077140	-0.353222
C98	C	1.566861	0.422860	0.146778
C99	C	1.055051	-0.338301	-0.767587
C100	C	1.555051	0.161699	-0.267587
C101	C	1.114758	-0.284022	-0.801395
C102	C	1.614758	0.215978	-0.301395
C103	C	1.114990	-0.284169	-0.887006
C104	C	1.614990	0.215831	-0.387006
C105	C	1.055078	-0.338278	-0.915971
C106	C	1.555078	0.161722	-0.415971
C107	C	1.072630	-0.412365	-0.881522
C108	C	1.572630	0.087635	-0.381522
C109	C	1.073044	-0.412064	-0.795891
C110	C	1.573044	0.087936	-0.295891
C111	C	0.977626	-0.319137	-0.800020
C112	C	1.477626	0.180863	-0.300020
C113	C	0.978135	-0.317491	-0.885746
C114	C	1.478135	0.182509	-0.385746
C115	C	1.055092	-0.338270	-0.999831
C116	C	1.555092	0.161730	-0.499831
C117	C	1.055039	-0.338315	-0.683727
C118	C	1.555039	0.161685	-0.183727
C119	C	1.054971	-0.338427	-0.148987
C120	C	1.554971	0.161573	0.351013
C121	C	1.055106	-0.338257	-0.066681
C122	C	1.555106	0.161743	0.433319
H123	H	0.614188	-0.447650	-0.380286
H124	H	1.114188	0.052350	0.119714
H125	H	0.957007	-0.605912	-0.243355
H126	H	1.457007	-0.105912	0.256645
H127	H	0.931569	-0.354116	-0.905470
H128	H	1.431569	0.145884	-0.405470
N129	N	0.491973	-0.244770	-0.439264
N130	N	0.991973	0.255230	0.060736
N131	N	0.424460	-0.241403	-0.452717
N132	N	0.924460	0.258597	0.047283
H133	H	0.407395	-0.227290	-0.504135
H134	H	0.907395	0.272710	-0.004135
H135	H	1.129533	-0.428273	-0.775181
H136	H	1.629533	0.071727	-0.275181
H137	H	0.486944	-0.448000	-0.380186
H138	H	0.986944	0.052000	0.119814
H139	H	0.497306	-0.222676	-0.328788
H140	H	0.997306	0.277324	0.171212
H141	H	1.172436	-0.296868	-0.906922
H142	H	1.672436	0.203132	-0.406922
N143	N	1.169139	-0.929478	-0.455617
N144	N	1.669139	-0.429478	0.044383
N145	N	1.144921	-0.888498	-0.504616
N146	N	1.644921	-0.388498	-0.004616
H147	H	1.180274	-0.861960	-0.539951
H148	H	1.680274	-0.361960	-0.039951
H149	H	0.493380	-0.317521	-0.221513
H150	H	0.993380	0.182479	0.278487
H151	H	0.987207	-0.937372	-0.273507
H152	H	1.487207	-0.437372	0.226493
H153	H	1.031236	-0.453883	-0.773257
H154	H	1.531236	0.046117	-0.273257
H155	H	1.122850	-0.738744	-0.409368
H156	H	1.622850	-0.238744	0.090632
N157	N	0.940950	-0.746594	-0.227195
N158	N	1.440950	-0.246594	0.272805
N159	N	0.900160	-0.713896	-0.186337
N160	N	1.400160	-0.213896	0.313663
H161	H	0.864849	-0.740394	-0.150929
H162	H	1.364849	-0.240394	0.349071
H163	H	1.104413	-0.229244	-0.910518
H164	H	1.604413	0.270756	-0.410518
H165	H	0.964834	-0.262969	-0.908539
H166	H	1.464834	0.237031	-0.408539
N167	N	1.138914	-0.598052	-0.425512
N168	N	1.638914	-0.098052	0.074488
N169	N	1.114654	-0.557107	-0.474522
N170	N	1.614654	-0.057107	0.025478
H171	H	1.149976	-0.530600	-0.509912
H172	H	1.649976	-0.030600	-0.009912
H173	H	1.116600	-0.825531	-0.403109
H174	H	1.616600	-0.325531	0.096891
N175	N	0.956687	-0.252519	-0.775968
N176	N	1.456687	0.247481	-0.275968
N177	N	0.896501	-0.228465	-0.796301
N178	N	1.396501	0.271535	-0.296301
H179	H	0.881719	-0.181413	-0.779315
H180	H	1.381719	0.318587	-0.279315
H181	H	1.153047	-1.070208	-0.439520
H182	H	1.653047	-0.570208	0.060480
H183	H	0.981280	-1.070448	-0.267531
H184	H	1.481280	-0.570448	0.232469
H185	H	1.104344	-0.228928	-0.783305
H186	H	1.604344	0.271072	-0.283305
N187	N	0.983321	-0.858225	-0.269603
N188	N	1.483321	-0.358225	0.230397
N189	N	1.007605	-0.899173	-0.220610
N190	N	1.507605	-0.399173	0.279390
H191	H	0.972298	-0.925704	-0.185224
H192	H	1.472298	-0.425704	0.314776
N193	N	0.921862	-0.368711	-0.772339
N194	N	1.421862	0.131289	-0.272339
N195	N	0.856029	-0.362778	-0.791570
N196	N	1.356029	0.137222	-0.291570
H197	H	0.816649	-0.397791	-0.772017
H198	H	1.316649	0.102209	-0.272017
H199	H	0.623990	-0.248194	-0.423497
H200	H	1.123990	0.251806	0.076503
N201	N	0.483733	-0.377543	-0.469027
N202	N	0.983733	0.122457	0.030973
N203	N	0.443817	-0.326573	-0.481205
N204	N	0.943817	0.173427	0.018795
H205	H	0.425244	-0.315682	-0.532864
H206	H	0.925244	0.184318	-0.032864
H207	H	1.171873	-0.296573	-0.779306
H208	H	1.671873	0.203427	-0.279306
N209	N	0.622068	-0.377180	-0.469703
N210	N	1.122068	0.122820	0.030297
N211	N	0.577245	-0.366374	-0.521036
N212	N	1.077245	0.133626	-0.021036
H213	H	0.595898	-0.355349	-0.573006
H214	H	1.095898	0.144651	-0.073006
H215	H	0.624036	-0.222703	-0.327775
H216	H	1.124036	0.277297	0.172225
N217	N	1.019570	-0.464473	-0.904687
N218	N	1.519570	0.035527	-0.404687
N219	N	0.968106	-0.447547	-0.946947
N220	N	1.468106	0.052453	-0.446947
H221	H	0.930630	-0.484347	-0.963309
H222	H	1.430630	0.015653	-0.463309
N223	N	1.142709	-0.433040	-0.907474
N224	N	1.642709	0.066960	-0.407474
N225	N	1.193423	-0.445271	-0.862497
N226	N	1.693423	0.054729	-0.362497
H227	H	1.242919	-0.459869	-0.880824
H228	H	1.742919	0.040131	-0.380824
N229	N	0.619847	-0.427156	-0.239253
N230	N	1.119847	0.072844	0.260747
N231	N	0.687036	-0.438886	-0.233312
N232	N	1.187036	0.061114	0.266688
H233	H	0.702874	-0.487119	-0.216901
H234	H	1.202874	0.012881	0.283099
H235	H	0.487863	-0.410263	-0.240380
H236	H	0.987863	0.089737	0.259620
H237	H	0.620487	-0.322031	-0.219452
H238	H	1.120487	0.177969	0.280548
