data_functionalizedCrystal
_audit_creation_method	'MofGen! by Chris Wilmer'
_symmetry_space_group_name_H-M	'P1'
_symmetry_Int_Tables_number	1
_symmetry_cell_setting	triclinic
loop_
_symmetry_equiv_pos_as_xyz
  x,y,z
_cell_length_a	17.077402
_cell_length_b	17.077404
_cell_length_c	17.077396
_cell_angle_alpha	90.019016
_cell_angle_beta	89.969358
_cell_angle_gamma	89.975668
loop_
_atom_site_label
_atom_site_type_symbol
_atom_site_fract_x
_atom_site_fract_y
_atom_site_fract_z
Zn1	Zn	-0.312514	-1.200023	-0.443881
Zn2	Zn	0.187486	-0.700023	0.056119
Zn3	Zn	-0.443793	-1.199930	-0.312613
Zn4	Zn	0.056207	-0.699930	0.187387
Zn5	Zn	-0.312543	-1.068760	-0.312624
Zn6	Zn	0.187457	-0.568760	0.187376
Zn7	Zn	-0.443740	-1.068717	-0.443832
Zn8	Zn	0.056260	-0.568717	0.056168
O9	O	-0.378148	-1.134358	-0.378238
O10	O	0.121852	-0.634358	0.121762
O11	O	-0.329939	-1.309858	-0.426483
O12	O	0.170061	-0.809858	0.073517
O13	O	-0.426417	-1.182509	-0.202768
O14	O	0.073583	-0.682509	0.297232
O15	O	-0.202692	-1.086229	-0.330060
O16	O	0.297308	-0.586229	0.169940
O17	O	-0.426389	-1.309789	-0.330042
O18	O	0.073611	-0.809789	0.169958
O19	O	-0.202671	-1.182667	-0.426494
O20	O	0.297329	-0.682667	0.073506
O21	O	-0.329988	-1.086140	-0.202776
O22	O	0.170012	-0.586140	0.297224
O23	O	-0.329937	-0.958908	-0.330013
O24	O	0.170063	-0.458908	0.169987
O25	O	-0.426299	-1.086156	-0.553686
O26	O	0.073701	-0.586156	-0.053686
O27	O	-0.426327	-0.958876	-0.426412
O28	O	0.073673	-0.458876	0.073588
O29	O	-0.329888	-1.182626	-0.553721
O30	O	0.170112	-0.682626	-0.053721
O31	O	-0.553633	-1.182468	-0.329995
O32	O	-0.053633	-0.682468	0.170005
O33	O	-0.553594	-1.086066	-0.426401
O34	O	-0.053594	-0.586066	0.073599
C35	C	-0.378130	-0.930410	-0.378209
C36	C	0.121870	-0.430410	0.121791
C37	C	-0.378141	-0.843160	-0.378215
C38	C	0.121859	-0.343160	0.121785
C39	C	-0.428406	-0.802174	-0.428328
C40	C	0.071594	-0.302174	0.071672
C41	C	-0.428406	-0.720194	-0.428338
C42	C	0.071594	-0.220194	0.071662
C43	C	-0.378144	-0.679201	-0.378230
C44	C	0.121856	-0.179201	0.121770
C45	C	-0.327873	-0.720192	-0.328115
C46	C	0.172127	-0.220192	0.171885
C47	C	-0.327870	-0.802171	-0.328110
C48	C	0.172130	-0.302171	0.171890
C49	C	-0.327886	-0.549322	-0.328129
C50	C	0.172114	-0.049322	0.171871
C51	C	-0.327890	-0.467338	-0.328132
C52	C	0.172110	0.032662	0.171868
C53	C	-0.428421	-0.467345	-0.428356
C54	C	0.071579	0.032655	0.071644
C55	C	-0.428418	-0.549324	-0.428351
C56	C	0.071582	-0.049324	0.071649
C57	C	-0.378148	-0.590310	-0.378235
C58	C	0.121852	-0.090310	0.121765
C59	C	-0.582096	-1.134274	-0.378209
C60	C	-0.082096	-0.634274	0.121791
C61	C	-0.669345	-1.134309	-0.378223
C62	C	-0.169345	-0.634309	0.121777
C63	C	-1.045085	-1.184659	-0.428542
C64	C	-0.545085	-0.684659	0.071458
C65	C	-0.963105	-1.184624	-0.428524
C66	C	-0.463105	-0.684624	0.071476
C67	C	-0.922194	-1.134434	-0.378270
C68	C	-0.422194	-0.634434	0.121730
C69	C	-0.963268	-1.084281	-0.328025
C70	C	-0.463268	-0.584281	0.171975
C71	C	-1.045247	-1.084321	-0.328040
C72	C	-0.545247	-0.584321	0.171960
C73	C	-0.792398	-1.084200	-0.327998
C74	C	-0.292398	-0.584200	0.172002
C75	C	-0.710414	-1.084159	-0.327984
C76	C	-0.210414	-0.584159	0.172016
C77	C	-0.710256	-1.184503	-0.428482
C78	C	-0.210256	-0.684503	0.071518
C79	C	-0.792235	-1.184543	-0.428497
C80	C	-0.292235	-0.684543	0.071503
C81	C	-0.833303	-1.134389	-0.378253
C82	C	-0.333303	-0.634389	0.121747
C83	C	-0.173403	-1.134464	-0.378284
C84	C	0.326597	-0.634464	0.121716
C85	C	-0.086154	-1.134509	-0.378303
C86	C	0.413846	-0.634509	0.121697
C87	C	-0.378084	-1.134397	-0.582982
C88	C	0.121916	-0.634397	-0.082982
C89	C	-0.378057	-1.134413	-0.670232
C90	C	0.121943	-0.634413	-0.170232
C91	C	-0.378162	-0.339102	-0.378258
C92	C	0.121838	0.160898	0.121742
C93	C	-0.378155	-0.426352	-0.378245
C94	C	0.121845	0.073648	0.121755
C95	C	-0.428176	-1.184664	-1.046045
C96	C	0.071824	-0.684664	-0.546045
C97	C	-0.428199	-1.184644	-0.964064
C98	C	0.071801	-0.684644	-0.464064
C99	C	-0.378002	-1.134464	-0.923081
C100	C	0.121998	-0.634464	-0.423081
C101	C	-0.327784	-1.084294	-0.964082
C102	C	0.172216	-0.584294	-0.464082
C103	C	-0.327765	-1.084310	-1.046061
C104	C	0.172235	-0.584310	-0.546061
C105	C	-0.327824	-1.084264	-0.793212
C106	C	0.172176	-0.584264	-0.293212
C107	C	-0.327841	-1.084249	-0.711228
C108	C	0.172159	-0.584249	-0.211228
C109	C	-0.428258	-1.184599	-0.711215
C110	C	0.071742	-0.684599	-0.211215
C111	C	-0.428239	-1.184615	-0.793194
C112	C	0.071761	-0.684615	-0.293194
C113	C	-0.378020	-1.134446	-0.834190
C114	C	0.121980	-0.634446	-0.334190
C115	C	-0.378154	-1.134364	-0.174290
C116	C	0.121846	-0.634364	0.325710
C117	C	-0.377960	-1.134500	-0.087040
C118	C	0.122040	-0.634500	0.412960
H119	H	-0.286944	-0.582691	-0.287326
H120	H	0.213056	-0.082691	0.212674
H121	H	-0.286964	-1.043389	-0.677861
H122	H	0.213036	-0.543389	-0.177861
H123	H	-0.286946	-0.686810	-0.287321
H124	H	0.213054	-0.186810	0.212679
Cl125	Cl	-0.491607	-0.415820	-0.491370
Cl126	Cl	0.008393	0.084180	0.008630
H127	H	-0.286931	-1.043411	-0.826588
H128	H	0.213069	-0.543411	-0.326588
H129	H	-1.078389	-1.225522	-0.469473
H130	H	-0.578389	-0.725522	0.030527
H131	H	-0.469111	-1.225480	-0.826561
H132	H	0.030889	-0.725480	-0.326561
H133	H	-0.825834	-1.043361	-0.287083
H134	H	-0.325834	-0.543361	0.212917
H135	H	-0.469099	-1.225484	-0.930689
H136	H	0.030901	-0.725484	-0.430689
H137	H	-0.286916	-1.043432	-0.930707
H138	H	0.213084	-0.543432	-0.430707
Cl139	Cl	-0.264706	-0.415805	-0.265136
Cl140	Cl	0.235294	0.084195	0.234864
Cl141	Cl	-0.491610	-0.600857	-0.491339
Cl142	Cl	0.008390	-0.100857	0.008661
Cl143	Cl	-0.843664	-1.247631	-0.491685
Cl144	Cl	-0.343664	-0.747631	0.008315
H145	H	-0.676813	-1.225340	-0.469392
H146	H	-0.176813	-0.725340	0.030608
H147	H	-0.469337	-0.835545	-0.469129
H148	H	0.030663	-0.335545	0.030871
Cl149	Cl	-0.264630	-1.021248	-1.097599
Cl150	Cl	0.235370	-0.521248	-0.597599
H151	H	-0.469338	-0.686826	-0.469144
H152	H	0.030662	-0.186826	0.030856
Cl153	Cl	-0.264675	-0.853697	-0.265111
Cl154	Cl	0.235325	-0.353697	0.234889
Cl155	Cl	-0.911479	-1.247672	-0.491685
Cl156	Cl	-0.411479	-0.747672	0.008315
H157	H	-0.677109	-1.043290	-0.287061
H158	H	-0.177109	-0.543290	0.212939
H159	H	-0.929954	-1.043418	-0.287103
H160	H	-0.429954	-0.543418	0.212897
H161	H	-0.469049	-1.225531	-1.079407
H162	H	0.030951	-0.725531	-0.579407
Cl163	Cl	-1.096877	-1.021275	-0.264876
Cl164	Cl	-0.596877	-0.521275	0.235124
Cl165	Cl	-0.491393	-1.247665	-0.659678
Cl166	Cl	0.008607	-0.747665	-0.159678
