data_functionalizedCrystal
_audit_creation_method	'MofGen! by Chris Wilmer'
_symmetry_space_group_name_H-M	'P1'
_symmetry_Int_Tables_number	1
_symmetry_cell_setting	triclinic
loop_
_symmetry_equiv_pos_as_xyz
  x,y,z
_cell_length_a	16.992694
_cell_length_b	10.654550
_cell_length_c	15.455313
_cell_angle_alpha	92.692163
_cell_angle_beta	87.142206
_cell_angle_gamma	87.576563
loop_
_atom_site_label
_atom_site_type_symbol
_atom_site_fract_x
_atom_site_fract_y
_atom_site_fract_z
O1	O	1.045244	0.261289	-0.072018
O2	O	1.545244	0.761289	0.427982
O3	O	0.816944	0.258364	-0.072044
O4	O	1.316944	0.758364	0.427956
O5	O	0.936343	0.077541	-0.072027
O6	O	1.436343	0.577541	0.427973
O7	O	0.925845	0.442112	-0.072035
O8	O	1.425845	0.942112	0.427965
O9	O	0.929515	0.087836	0.072234
O10	O	1.429515	0.587836	0.572234
O11	O	0.810116	0.268659	0.072217
O12	O	1.310116	0.768659	0.572217
O13	O	1.038416	0.271584	0.072243
O14	O	1.538416	0.771584	0.572243
Cu15	Cu	0.923642	0.271061	0.085402
Cu16	Cu	1.423642	0.771061	0.585402
Cu17	Cu	0.931717	0.258886	-0.085203
Cu18	Cu	1.431717	0.758886	0.414797
O19	O	0.919017	0.452406	0.072226
O20	O	1.419017	0.952406	0.572226
C21	C	0.784297	0.259751	0.000083
C22	C	1.284297	0.759751	0.500083
C23	C	0.697192	0.248531	0.000074
C24	C	1.197192	0.748531	0.500074
C25	C	0.647540	0.356782	0.000072
C26	C	1.147540	0.856782	0.500072
C27	C	0.565696	0.346233	0.000084
C28	C	1.065696	0.846233	0.500084
C29	C	0.533505	0.227433	0.000092
C30	C	1.033505	0.727433	0.500092
C31	C	0.583163	0.119174	0.000096
C32	C	1.083163	0.619174	0.500096
C33	C	0.665006	0.129724	0.000090
C34	C	1.165006	0.629724	0.500090
C35	C	0.289668	0.183707	0.000116
C36	C	0.789668	0.683707	0.500116
C37	C	0.207819	0.173165	0.000119
C38	C	0.707819	0.673165	0.500119
C39	C	0.190358	0.400226	0.000109
C40	C	0.690358	0.900226	0.500109
C41	C	0.272203	0.410765	0.000098
C42	C	0.772203	0.910765	0.500098
C43	C	0.321854	0.302507	0.000107
C44	C	0.821854	0.802507	0.500107
N45	N	0.449847	0.216648	0.000102
N46	N	0.949847	0.716648	0.500102
N47	N	0.405510	0.313293	0.000103
N48	N	0.905510	0.813293	0.500103
C49	C	0.932158	0.035824	0.000102
C50	C	1.432158	0.535824	0.500102
C51	C	0.929852	-0.103819	0.000099
C52	C	1.429852	0.396181	0.500099
C53	C	1.000152	-0.177229	0.000109
C54	C	1.500152	0.322771	0.500109
C55	C	0.997980	-0.308438	0.000103
C56	C	1.497980	0.191562	0.500103
C57	C	0.855203	-0.292815	0.000079
C58	C	1.355203	0.207185	0.500079
C59	C	0.857375	-0.161609	0.000080
C60	C	1.357375	0.338391	0.500080
C61	C	1.072629	-0.119439	0.000129
C62	C	1.572629	0.380561	0.500129
C63	C	1.142934	-0.192850	0.000140
C64	C	1.642934	0.307150	0.500140
C65	C	1.140763	-0.324059	0.000134
C66	C	1.640763	0.175941	0.500134
C67	C	1.068286	-0.381857	0.000116
C68	C	1.568286	0.118143	0.500116
C69	C	1.071063	0.270196	0.000114
C70	C	1.571063	0.770196	0.500114
C71	C	1.158168	0.281416	0.000118
C72	C	1.658168	0.781416	0.500118
C73	C	0.923202	0.494124	0.000095
C74	C	1.423202	0.994124	0.500095
C75	C	0.925508	0.633766	0.000093
C76	C	1.425508	1.133766	0.500093
N77	N	0.917968	0.279624	0.205397
N78	N	1.417968	0.779624	0.705397
N79	N	0.937397	0.250314	-0.205198
N80	N	1.437397	0.750314	0.294802
C81	C	0.968711	0.202836	0.250798
C82	C	1.468711	0.702836	0.750798
C83	C	0.964428	0.209324	0.341605
C84	C	1.464428	0.709324	0.841605
C85	C	0.909405	0.292607	0.387010
C86	C	1.409405	0.792607	0.887010
C87	C	0.858656	0.369399	0.341602
C88	C	1.358656	0.869399	0.841602
C89	C	0.862937	0.362903	0.250797
C90	C	1.362937	0.862903	0.750797
C91	C	0.890929	0.320610	0.658589
C92	C	1.390929	0.820610	1.158589
C93	C	0.886654	0.327102	0.749401
C94	C	1.386654	0.827102	1.249401
C95	C	0.992425	0.167025	0.749398
C96	C	1.492425	0.667025	1.249398
C97	C	0.996704	0.160543	0.658590
C98	C	1.496704	0.660543	1.158590
C99	C	0.945953	0.237329	0.613191
C100	C	1.445953	0.737329	1.113191
N101	N	0.905027	0.299244	0.479830
N102	N	1.405027	0.799244	0.979830
N103	N	0.950328	0.230685	0.520373
N104	N	1.450328	0.730685	1.020373
H105	H	0.149924	0.488363	0.000104
H106	H	0.649924	0.988363	0.500104
O107	O	0.808195	0.445723	0.201836
O108	O	1.308195	0.945723	0.701836
H109	H	0.771727	0.385995	0.160491
H110	H	1.271727	0.885995	0.660491
H111	H	0.841845	0.394926	0.786365
H112	H	1.341845	0.894926	1.286365
O113	O	1.028042	0.112984	0.201824
O114	O	1.528042	0.612984	0.701824
H115	H	1.068415	0.166759	0.160438
H116	H	1.568415	0.666759	0.660438
H117	H	0.181613	0.076419	0.000125
H118	H	0.681613	0.576419	0.500125
O119	O	1.019171	0.126528	0.390577
O120	O	1.519171	0.626528	0.890577
H121	H	1.058162	0.067545	0.343749
H122	H	1.558162	0.567545	0.843749
O123	O	0.781550	-0.082424	0.000079
O124	O	1.281550	0.417576	0.500079
H125	H	0.781905	-0.026473	-0.058723
H126	H	1.281905	0.473527	0.441277
O127	O	1.056043	0.070705	0.609617
O128	O	1.556043	0.570705	1.109617
H129	H	1.090604	0.018388	0.656444
H130	H	1.590604	0.518388	1.156444
H131	H	0.849607	0.383135	0.621632
H132	H	1.349607	0.883135	1.121632
H133	H	1.198010	-0.383827	0.000134
H134	H	1.698010	0.116173	0.500134
H135	H	0.525272	0.434383	0.000082
H136	H	1.025272	0.934383	0.500082
O137	O	1.065941	-0.523376	0.000114
O138	O	1.565941	-0.023376	0.500114
H139	H	1.098974	-0.565540	-0.058677
H140	H	1.598974	-0.065540	0.441323
H141	H	0.796195	-0.339885	0.000066
H142	H	1.296195	0.160115	0.500066
H143	H	1.033743	0.104508	0.786370
H144	H	1.533743	0.604508	1.286370
H145	H	0.298407	0.507504	0.000082
H146	H	0.798407	1.007504	0.500082
H147	H	0.673743	0.453522	0.000065
H148	H	1.173743	0.953522	0.500065
H149	H	0.330084	0.095555	0.000124
H150	H	0.830084	0.595555	0.500124
O151	O	1.074970	0.022078	0.000143
O152	O	1.574970	0.522078	0.500143
H153	H	1.047508	0.055864	-0.058656
H154	H	1.547508	0.555864	0.441344
H155	H	0.556946	0.022445	0.000115
H156	H	1.056946	0.522445	0.500115
O157	O	0.718565	0.012970	0.000089
O158	O	1.218565	0.512970	0.500089
H159	H	0.682433	-0.071414	0.000087
H160	H	1.182433	0.428586	0.500087
H161	H	0.813851	0.437205	0.378576
H162	H	1.313851	0.937205	0.878576
H163	H	1.201944	-0.145783	0.000133
H164	H	1.701944	0.354217	0.500133
