data_functionalizedCrystal
_audit_creation_method	'MofGen! by Chris Wilmer'
_symmetry_space_group_name_H-M	'P1'
_symmetry_Int_Tables_number	1
_symmetry_cell_setting	triclinic
loop_
_symmetry_equiv_pos_as_xyz
  x,y,z
_cell_length_a	23.532357
_cell_length_b	14.519731
_cell_length_c	13.596369
_cell_angle_alpha	90.005416
_cell_angle_beta	90.011519
_cell_angle_gamma	83.258572
loop_
_atom_site_label
_atom_site_type_symbol
_atom_site_fract_x
_atom_site_fract_y
_atom_site_fract_z
O1	O	0.074713	1.222951	0.081806
O2	O	0.574713	1.722951	0.581806
O3	O	0.083492	0.954370	0.081809
O4	O	0.583492	1.454370	0.581809
O5	O	-0.003794	1.096783	0.081787
O6	O	0.496206	1.596783	0.581787
O7	O	0.161999	1.080537	0.081828
O8	O	0.661999	1.580537	0.581828
O9	O	-0.003799	1.096769	-0.081796
O10	O	0.496201	1.596769	0.418204
O11	O	0.083488	0.954356	-0.081774
O12	O	0.583488	1.454356	0.418226
O13	O	0.074709	1.222937	-0.081777
O14	O	0.574709	1.722937	0.418223
Zn15	Zn	0.079097	1.088644	-0.107748
Zn16	Zn	0.579097	1.588644	0.392252
Zn17	Zn	0.079104	1.088663	0.107780
Zn18	Zn	0.579104	1.588663	0.607780
O19	O	0.161995	1.080523	-0.081755
O20	O	0.661995	1.580523	0.418245
C21	C	0.083079	0.920009	0.000018
C22	C	0.583079	1.420009	0.500018
C23	C	0.081846	0.817643	0.000018
C24	C	0.581846	1.317643	0.500018
C25	C	0.080844	0.734511	0.000021
C26	C	0.580844	1.234511	0.500021
C27	C	0.079593	0.630218	0.000022
C28	C	0.579593	1.130218	0.500022
C29	C	0.078600	0.547091	0.000021
C30	C	0.578600	1.047091	0.500021
C31	C	0.077348	0.442790	0.000023
C32	C	0.577348	0.942790	0.500023
C33	C	-0.025015	1.096370	-0.000007
C34	C	0.474985	1.596370	0.499993
C35	C	-0.088239	1.095148	-0.000017
C36	C	0.411761	1.595148	0.499983
C37	C	-0.480282	1.087486	0.089206
C38	C	0.019718	1.587486	0.589206
C39	C	-0.539687	1.086324	0.089211
C40	C	-0.039687	1.586324	0.589211
O41	O	-0.570404	1.085699	0.165046
O42	O	-0.070404	1.585699	0.665046
N43	N	-0.569404	1.085741	0.000043
N44	N	-0.069404	1.585741	0.500043
C45	C	-0.539711	1.086309	-0.089136
C46	C	-0.039711	1.586309	0.410864
O47	O	-0.570442	1.085705	-0.164980
O48	O	-0.070442	1.585705	0.335020
C49	C	-0.480307	1.087464	-0.089140
C50	C	0.019693	1.587464	0.410860
C51	C	-0.450595	1.088057	0.000033
C52	C	0.049405	1.588057	0.500033
C53	C	-0.450570	1.088078	0.178372
C54	C	0.049430	1.588078	0.678372
C55	C	-0.391169	1.089241	0.178366
C56	C	0.108831	1.589241	0.678366
C57	C	-0.361481	1.089812	0.089194
C58	C	0.138519	1.589812	0.589194
C59	C	-0.391194	1.089220	0.000027
C60	C	0.108806	1.589220	0.500027
C61	C	-0.450616	1.088026	-0.178319
C62	C	0.049384	1.588026	0.321681
C63	C	-0.391207	1.089180	-0.178316
C64	C	0.108793	1.589180	0.321684
C65	C	-0.361495	1.089773	-0.089142
C66	C	0.138505	1.589773	0.410858
C67	C	-0.302106	1.090954	-0.089151
C68	C	0.197894	1.590954	0.410849
N69	N	-0.272389	1.091538	0.000017
N70	N	0.227611	1.591538	0.500017
C71	C	-0.302077	1.090967	0.089189
C72	C	0.197923	1.590967	0.589189
C73	C	-0.664464	1.083883	-0.089119
C74	C	-0.164464	1.583883	0.410881
C75	C	-0.723868	1.082735	-0.089116
C76	C	-0.223868	1.582735	0.410884
C77	C	-0.723839	1.082748	0.089232
C78	C	-0.223839	1.582748	0.589232
C79	C	-0.664435	1.083903	0.089227
C80	C	-0.164435	1.583903	0.589227
C81	C	-0.634748	1.084466	0.000048
C82	C	-0.134748	1.584466	0.500048
C83	C	-0.177332	1.093410	0.089170
C84	C	0.322668	1.593410	0.589170
C85	C	-0.117927	1.094577	0.089156
C86	C	0.382073	1.594577	0.589156
C87	C	-0.117960	1.094559	-0.089191
C88	C	0.382040	1.594559	0.410809
C89	C	-0.177360	1.093397	-0.089178
C90	C	0.322640	1.593397	0.410822
C91	C	-0.207045	1.092819	0.000011
C92	C	0.292955	1.592819	0.500011
O93	O	-0.271351	1.091577	-0.164947
O94	O	0.228649	1.591577	0.335053
O95	O	-0.271338	1.091559	0.165020
O96	O	0.228662	1.591559	0.665020
C97	C	0.183216	1.080937	0.000042
C98	C	0.683216	1.580937	0.500042
C99	C	0.246440	1.082158	0.000057
C100	C	0.746440	1.582158	0.500057
C101	C	0.075122	1.257298	0.000017
C102	C	0.575122	1.757298	0.500017
C103	C	0.076355	1.359663	0.000023
C104	C	0.576355	1.859663	0.500023
N105	N	0.079093	1.088638	-0.254840
N106	N	0.579093	1.588638	0.245160
C107	C	0.079104	1.088661	-0.656131
C108	C	0.579104	1.588661	-0.156131
C109	C	0.079103	1.088652	-0.544479
C110	C	0.579103	1.588652	-0.044479
C111	C	0.079099	1.088650	-0.455489
C112	C	0.579099	1.588650	0.044511
C113	C	0.079097	1.088640	-0.343830
C114	C	0.579097	1.588640	0.156170
N115	N	0.079104	1.088676	0.254872
N116	N	0.579104	1.588676	0.754872
H117	H	-0.093737	1.095062	0.161775
H118	H	0.406263	1.595062	0.661775
N119	N	-0.209346	1.092813	0.185363
N120	N	0.290654	1.592813	0.685363
H121	H	-0.181503	1.093375	0.241841
H122	H	0.318497	1.593375	0.741841
H123	H	-0.238546	1.149518	0.189232
H124	H	0.261454	1.649518	0.689232
N125	N	-0.359130	1.089894	0.274549
N126	N	0.140870	1.589894	0.774549
H127	H	-0.316992	1.090725	0.261029
H128	H	0.183008	1.590725	0.761029
H129	H	-0.374079	1.146880	0.313466
H130	H	0.125921	1.646880	0.813466
N131	N	-0.755858	1.082174	0.185425
N132	N	-0.255858	1.582174	0.685425
H133	H	-0.740962	1.025220	0.224441
H134	H	-0.240962	1.525220	0.724441
H135	H	-0.750048	1.139609	0.224290
H136	H	-0.250048	1.639609	0.724290
H137	H	-0.640247	1.084384	0.161840
H138	H	-0.140247	1.584384	0.661840
N139	N	-0.482577	1.087515	0.274571
N140	N	0.017423	1.587515	0.774571
H141	H	-0.467677	1.030564	0.313588
H142	H	0.032323	1.530564	0.813588
H143	H	-0.476756	1.144952	0.313421
H144	H	0.023244	1.644952	0.813421
N145	N	-0.359184	1.089791	-0.274500
N146	N	0.140816	1.589791	0.225500
H147	H	-0.364968	1.032409	-0.313480
H148	H	0.135032	1.532409	0.186520
H149	H	-0.374104	1.146797	-0.313408
H150	H	0.125896	1.646797	0.186592
H151	H	-0.201554	1.092922	-0.161790
H152	H	0.298446	1.592922	0.338210
N153	N	-0.085934	1.095183	-0.185367
N154	N	0.414066	1.595183	0.314633
H155	H	-0.043794	1.096007	-0.171831
H156	H	0.456206	1.596007	0.328169
H157	H	-0.091760	1.037799	-0.224304
H158	H	0.408240	1.537799	0.275696
H159	H	-0.748056	1.082266	-0.161730
H160	H	-0.248056	1.582266	0.338270
N161	N	-0.632447	1.084501	-0.185311
N162	N	-0.132447	1.584501	0.314689
H163	H	-0.660290	1.083959	-0.241791
H164	H	-0.160290	1.583959	0.258209
H165	H	-0.612360	1.142159	-0.189200
H166	H	-0.112360	1.642159	0.310800
H167	H	-0.474797	1.087545	-0.250934
H168	H	0.025203	1.587545	0.249066
