data_functionalizedCrystal
_audit_creation_method	'MofGen! by Chris Wilmer'
_symmetry_space_group_name_H-M	'P1'
_symmetry_Int_Tables_number	1
_symmetry_cell_setting	triclinic
loop_
_symmetry_equiv_pos_as_xyz
  x,y,z
_cell_length_a	18.215407
_cell_length_b	18.215405
_cell_length_c	18.215399
_cell_angle_alpha	89.969030
_cell_angle_beta	89.980650
_cell_angle_gamma	90.025333
loop_
_atom_site_label
_atom_site_type_symbol
_atom_site_fract_x
_atom_site_fract_y
_atom_site_fract_z
Zn1	Zn	1.125068	-0.292980	-0.416103
Zn2	Zn	1.124978	-0.416052	-0.293031
Zn3	Zn	1.002002	-0.293005	-0.293050
Zn4	Zn	1.001967	-0.416010	-0.416056
O5	O	1.063504	-0.354512	-0.354560
O6	O	1.228041	-0.309313	-0.399788
O7	O	1.108642	-0.399758	-0.190049
O8	O	1.018380	-0.190017	-0.309401
O9	O	1.227974	-0.399733	-0.309368
O10	O	1.108796	-0.189999	-0.399807
O11	O	1.018292	-0.309355	-0.190063
O12	O	0.899013	-0.309315	-0.309355
O13	O	1.018320	-0.399662	-0.519046
O14	O	0.898987	-0.399686	-0.399727
O15	O	1.108762	-0.309272	-0.519081
O16	O	1.108608	-0.519031	-0.309322
O17	O	1.018232	-0.519000	-0.399708
C18	C	0.872298	-0.354499	-0.354539
C19	C	0.790499	-0.354512	-0.354547
C20	C	0.602311	-0.401642	-0.401544
C21	C	0.525452	-0.401644	-0.401554
C22	C	0.525449	-0.307395	-0.307591
C23	C	0.602306	-0.307390	-0.307586
C24	C	0.640735	-0.354517	-0.354562
C25	C	0.487019	-0.354525	-0.354576
C26	C	0.403685	-0.354527	-0.354585
C27	C	0.724074	-0.354514	-0.354553
C28	C	1.063426	-0.545718	-0.354524
C29	C	1.063460	-0.627517	-0.354534
C30	C	1.110629	-0.815702	-0.307556
C31	C	1.110662	-0.892561	-0.307574
C32	C	1.016473	-0.892569	-0.401616
C33	C	1.016444	-0.815712	-0.401601
C34	C	1.063521	-0.777280	-0.354567
C35	C	1.063583	-0.930997	-0.354600
C36	C	1.063618	-1.014330	-0.354619
C37	C	1.063487	-0.693942	-0.354548
C38	C	1.255457	-0.354525	-0.354581
C39	C	1.337256	-0.354531	-0.354591
C40	C	1.063547	-0.354460	-0.546513
C41	C	1.063565	-0.354437	-0.628312
C42	C	1.063602	-0.162559	-0.354611
C43	C	1.063644	-0.080760	-0.354633
C44	C	1.110686	-0.307308	-0.893389
C45	C	1.110677	-0.307328	-0.816530
C46	C	1.016505	-0.401460	-0.816483
C47	C	1.016518	-0.401444	-0.893341
C48	C	1.063607	-0.354363	-0.931791
C49	C	1.063586	-0.354400	-0.778075
C50	C	1.063576	-0.354422	-0.694742
C51	C	1.063618	-0.354342	-1.015130
C52	C	1.063503	-0.354511	-0.163353
C53	C	1.063627	-0.354326	-0.081555
H54	H	1.148964	-0.784414	-0.269260
O55	O	0.639718	-0.261713	-0.261906
C56	C	0.684128	-0.303552	-0.214287
H57	H	0.695629	-0.359355	-0.240142
H58	H	0.654486	-0.311570	-0.159735
C59	C	0.743021	-0.194502	-0.169277
C60	C	0.757152	-0.263039	-0.201036
H61	H	0.788064	-0.169511	-0.161100
H62	H	0.713100	-0.166314	-0.201357
H63	H	0.718317	-0.201194	-0.123821
H64	H	0.781846	-0.256345	-0.246496
H65	H	0.787079	-0.291225	-0.168963
O66	O	1.156445	-0.929770	-0.261837
C67	C	1.198001	-0.879366	-0.220338
H68	H	1.167836	-0.824607	-0.217750
H69	H	1.253874	-0.871123	-0.247338
C70	C	1.245717	-0.976666	-0.145206
C71	C	1.208664	-0.909412	-0.142023
H72	H	1.252297	-0.995200	-0.096899
H73	H	1.217722	-1.010625	-0.173166
H74	H	1.292274	-0.969788	-0.167709
H75	H	1.162105	-0.916292	-0.119529
H76	H	1.236652	-0.875454	-0.114057
O77	O	0.970763	-0.930017	-0.447228
C78	C	0.980899	-1.006092	-0.437172
H79	H	1.005043	-1.016611	-0.380404
H80	H	1.020068	-1.027841	-0.480867
C81	C	0.876793	-1.032687	-0.513573
C82	C	0.906441	-1.045606	-0.443846
H83	H	0.830865	-1.057062	-0.517693
H84	H	0.869965	-0.981433	-0.520350
H85	H	0.909441	-1.050811	-0.549977
H86	H	0.873797	-1.027474	-0.407444
H87	H	0.913262	-1.096858	-0.437063
O88	O	0.970856	-0.447136	-0.930764
C89	C	0.980958	-0.437016	-1.006845
H90	H	1.037763	-0.412904	-1.017354
H91	H	0.937324	-0.397827	-1.028666
C92	C	0.904434	-0.541086	-1.033371
C93	C	0.974205	-0.511477	-1.046279
H94	H	0.900265	-0.587016	-1.057697
H95	H	0.897625	-0.547903	-0.982114
H96	H	0.868080	-0.508422	-1.051556
H97	H	1.010557	-0.544136	-1.028086
H98	H	0.981020	-0.504667	-1.097534
O99	O	0.970783	-0.447118	-0.779017
C100	C	0.980877	-0.437055	-0.702946
H101	H	1.005004	-0.380263	-0.692471
H102	H	1.020043	-0.480712	-0.681126
C103	C	0.876771	-0.513557	-0.676338
C104	C	0.906399	-0.443802	-0.663473
H105	H	0.830831	-0.517722	-0.651988
H106	H	0.869972	-0.520339	-0.727589
H107	H	0.909417	-0.549930	-0.658154
H108	H	0.873758	-0.407431	-0.681664
H109	H	0.913191	-0.437014	-0.612224
O110	O	0.970611	-0.778498	-0.447294
C111	C	0.929074	-0.828897	-0.488819
H112	H	0.926560	-0.883708	-0.458685
H113	H	0.955993	-0.837009	-0.544739
C114	C	0.853820	-0.731632	-0.536358
C115	C	0.850728	-0.798950	-0.499343
H116	H	0.805494	-0.713159	-0.542853
H117	H	0.881806	-0.697676	-0.508384
H118	H	0.876256	-0.738401	-0.582953
H119	H	0.828301	-0.792179	-0.452746
H120	H	0.822737	-0.832904	-0.527310
H121	H	1.149029	-0.268972	-0.924693
O122	O	0.639527	-0.447438	-0.447249
C123	C	0.589127	-0.489043	-0.488707
H124	H	0.534353	-0.458906	-0.491310
H125	H	0.580922	-0.544904	-0.461662
C126	C	0.686423	-0.536756	-0.563817
C127	C	0.619150	-0.499738	-0.567018
H128	H	0.704943	-0.543356	-0.612122
H129	H	0.720379	-0.508728	-0.535884
H130	H	0.679576	-0.583303	-0.541275
H131	H	0.626000	-0.453188	-0.589551
H132	H	0.585196	-0.527758	-0.594956
H133	H	0.494170	-0.440017	-0.439813
H134	H	0.494151	-0.269026	-0.269344
H135	H	1.149014	-0.269012	-0.785265
