data_functionalizedCrystal
_audit_creation_method	'MofGen! by Chris Wilmer'
_symmetry_space_group_name_H-M	'P1'
_symmetry_Int_Tables_number	1
_symmetry_cell_setting	triclinic
loop_
_symmetry_equiv_pos_as_xyz
  x,y,z
_cell_length_a	19.188905
_cell_length_b	23.532357
_cell_length_c	22.010155
_cell_angle_alpha	90.003761
_cell_angle_beta	90.021523
_cell_angle_gamma	82.981423
loop_
_atom_site_label
_atom_site_type_symbol
_atom_site_fract_x
_atom_site_fract_y
_atom_site_fract_z
O1	O	0.925925	0.071028	0.050633
O2	O	0.722578	0.080615	0.050613
O3	O	0.830401	-0.007099	0.050611
O4	O	0.818101	0.158743	0.050635
O5	O	0.830370	-0.007089	-0.050440
O6	O	0.722547	0.080625	-0.050438
O7	O	0.925893	0.071039	-0.050418
Cu8	Cu	0.824217	0.075833	-0.059654
Cu9	Cu	0.824254	0.075821	0.059849
O10	O	0.818070	0.158753	-0.050416
C11	C	0.696552	0.080312	0.000085
C12	C	0.619050	0.079387	0.000077
C13	C	0.830078	-0.028312	0.000084
C14	C	0.829153	-0.091532	0.000078
C15	C	0.582677	0.078937	0.055161
C16	C	0.509856	0.078062	0.055168
C17	C	0.473413	0.077625	0.000088
C18	C	0.509795	0.078078	-0.055003
C19	C	0.582613	0.078959	-0.055009
N20	N	0.364496	0.043836	-0.040907
N21	N	0.295322	0.042998	-0.040898
C22	C	0.254016	0.074972	0.000103
N23	N	0.284499	0.107809	0.041103
N24	N	0.353679	0.108645	0.041095
C25	C	0.394454	0.076670	0.000089
C26	C	0.138682	0.073574	0.055199
C27	C	0.065859	0.072702	0.055204
C28	C	0.065801	0.072713	-0.054969
C29	C	0.138621	0.073590	-0.054972
C30	C	0.175058	0.074018	0.000113
C31	C	0.823363	-0.483561	0.055193
C32	C	0.822484	-0.542962	0.055196
O33	O	0.822020	-0.573684	0.102042
N34	N	0.822031	-0.572669	0.000114
C35	C	0.822450	-0.542970	-0.054975
O36	O	0.821983	-0.573692	-0.101826
C37	C	0.823324	-0.483569	-0.054977
C38	C	0.823784	-0.453867	0.000108
C39	C	0.823822	-0.453858	0.110274
C40	C	0.824703	-0.394461	0.110270
C41	C	0.825124	-0.364767	0.055185
C42	C	0.824665	-0.394470	0.000104
C43	C	0.823738	-0.453871	-0.110066
C44	C	0.824612	-0.394466	-0.110064
C45	C	0.825072	-0.364764	-0.054978
C46	C	0.825967	-0.305378	-0.054984
N47	N	0.826420	-0.275672	0.000098
C48	C	0.825999	-0.305366	0.055183
C49	C	0.820613	-0.667715	-0.054965
C50	C	0.819743	-0.727115	-0.054963
C51	C	0.819776	-0.727103	0.055208
C52	C	0.820650	-0.667703	0.055206
C53	C	0.821066	-0.638009	0.000117
C54	C	0.827848	-0.180628	0.055171
C55	C	0.828732	-0.121226	0.055162
C56	C	0.828696	-0.121243	-0.055008
C57	C	0.827816	-0.180640	-0.055000
C58	C	0.827390	-0.210331	0.000094
O59	O	0.826428	-0.274618	-0.101805
O60	O	0.826456	-0.274636	0.102026
C61	C	0.951919	0.071342	0.000111
C62	C	1.029422	0.072266	0.000123
C63	C	0.818393	0.179965	0.000113
C64	C	0.819318	0.243186	0.000122
N65	N	0.824196	0.075841	-0.143707
C66	C	0.782142	0.041362	-0.436321
C67	C	0.782135	0.041365	-0.372714
O68	O	0.746352	0.012051	-0.339825
N69	N	0.824224	0.075823	-0.340891
C70	C	0.866327	0.110277	-0.372679
O71	O	0.902126	0.139586	-0.339771
C72	C	0.866336	0.110271	-0.436286
C73	C	0.824240	0.075815	-0.468105
C74	C	0.740049	0.006909	-0.468141
C75	C	0.740054	0.006907	-0.531744
C76	C	0.782152	0.041359	-0.563528
C77	C	0.824245	0.075813	-0.531708
C78	C	0.908442	0.144721	-0.468073
C79	C	0.908449	0.144712	-0.531683
C80	C	0.866352	0.110255	-0.563503
C81	C	0.866348	0.110264	-0.627095
N82	N	0.824260	0.075805	-0.658918
C83	C	0.782162	0.041353	-0.627134
C84	C	0.866305	0.110286	-0.239101
C85	C	0.866292	0.110296	-0.175496
C86	C	0.782101	0.041383	-0.175535
C87	C	0.782111	0.041377	-0.239142
C88	C	0.824216	0.075828	-0.270924
C89	C	0.782176	0.041353	-0.760706
C90	C	0.782183	0.041356	-0.824314
C91	C	0.866376	0.110266	-0.824270
C92	C	0.866366	0.110265	-0.760667
C93	C	0.824264	0.075804	-0.728886
O94	O	0.902115	0.139561	-0.660025
O95	O	0.746375	0.012043	-0.660050
N96	N	0.824281	0.075808	0.143902
H97	H	0.612339	0.079286	0.100016
Br98	Br	0.016349	0.072128	-0.129722
Br99	Br	0.823111	-0.494166	-0.184829
Br100	Br	0.631980	0.079571	-0.129772
H101	H	0.747899	0.013297	-0.850219
Br102	Br	0.821274	-0.627398	0.129967
H103	H	0.168349	0.073928	0.100053
Br104	Br	0.823250	-0.494146	0.185042
H105	H	0.168237	0.073953	-0.099828
H106	H	0.824940	-0.370292	-0.154924
Br107	Br	0.724978	-0.005387	-0.282318
H108	H	0.942738	0.172766	-0.557558
H109	H	0.829108	-0.097045	0.100022
H110	H	0.819431	-0.751291	0.100061
Br111	Br	0.923507	0.157020	-0.717482
H112	H	0.829042	-0.097056	-0.099857
H113	H	0.827498	-0.204795	0.100034
H114	H	0.825075	-0.370282	0.155126
Br115	Br	0.819136	-0.767421	-0.129724
Br116	Br	0.016493	0.072099	0.129968
H117	H	0.820953	-0.643542	-0.099827
H118	H	0.827448	-0.204826	-0.099855
Br119	Br	0.460481	0.077453	0.129931
Br120	Br	0.725040	-0.005420	-0.717585
Br121	Br	0.460338	0.077492	-0.129755
Br122	Br	0.923448	0.157050	-0.282229
H123	H	0.705777	-0.021153	-0.557646
Br124	Br	0.923501	0.157025	-0.867417
Br125	Br	0.682902	-0.039850	-0.425018
H126	H	0.747823	0.013330	-0.149645
Br127	Br	0.923408	0.157074	-0.132321
H128	H	0.942724	0.172778	-0.442176
