data_functionalizedCrystal
_audit_creation_method	'MofGen! by Chris Wilmer'
_symmetry_space_group_name_H-M	'P1'
_symmetry_Int_Tables_number	1
_symmetry_cell_setting	triclinic
loop_
_symmetry_equiv_pos_as_xyz
  x,y,z
_cell_length_a	17.077404
_cell_length_b	19.077068
_cell_length_c	17.077396
_cell_angle_alpha	87.732878
_cell_angle_beta	90.019777
_cell_angle_gamma	92.322445
loop_
_atom_site_label
_atom_site_type_symbol
_atom_site_fract_x
_atom_site_fract_y
_atom_site_fract_z
Zn1	Zn	1.187471	-0.280287	0.456386
Zn2	Zn	1.182093	-0.397990	0.330384
Zn3	Zn	1.056202	-0.280302	0.325133
Zn4	Zn	1.050888	-0.397939	0.461605
O5	O	1.119163	-0.339129	0.393377
O6	O	1.296603	-0.295916	0.439684
O7	O	1.165367	-0.382407	0.219842
O8	O	1.078089	-0.181809	0.338163
O9	O	1.292653	-0.382392	0.347112
O10	O	1.174532	-0.181798	0.434593
O11	O	1.072875	-0.295941	0.215984
O12	O	0.945651	-0.295891	0.343224
O13	O	1.069033	-0.382304	0.570758
O14	O	0.941747	-0.382318	0.443489
O15	O	1.169379	-0.295866	0.566924
O16	O	1.160214	-0.496474	0.352173
O17	O	1.063818	-0.496436	0.448580
C18	C	0.915217	-0.339101	0.393353
C19	C	0.827967	-0.339106	0.393362
C20	C	0.450135	-0.384233	0.445533
C21	C	0.532115	-0.384224	0.445521
C22	C	0.575116	-0.339148	0.393390
C23	C	0.536131	-0.294084	0.341264
C24	C	0.454152	-0.294097	0.341273
C25	C	0.707002	-0.294058	0.341250
C26	C	0.788988	-0.294044	0.341241
C27	C	0.784966	-0.384185	0.445498
C28	C	0.702987	-0.384198	0.445507
C29	C	0.664008	-0.339133	0.393381
C30	C	1.110878	-0.521993	0.401530
C31	C	1.107405	-0.600222	0.405044
C32	C	1.156000	-0.636971	0.356542
C33	C	1.152738	-0.710476	0.359852
C34	C	1.100877	-0.747231	0.411660
C35	C	1.052279	-0.710477	0.460167
C36	C	1.055545	-0.636974	0.456860
C37	C	1.085726	-0.967065	0.426930
C38	C	1.082461	-1.040573	0.430231
C39	C	1.182922	-1.040568	0.329917
C40	C	1.186180	-0.967062	0.326612
C41	C	1.137586	-0.930315	0.375121
N42	N	1.097540	-0.822365	0.415042
N43	N	1.140927	-0.855182	0.371742
C44	C	1.323906	-0.339158	0.393402
C45	C	1.411156	-0.339171	0.393412
C46	C	1.119213	-0.339078	0.598119
C47	C	1.119234	-0.339056	0.685368
C48	C	1.127503	-0.155552	0.385210
C49	C	1.131057	-0.077322	0.381729
C50	C	1.119161	-0.339130	0.189429
C51	C	1.119301	-0.338954	0.102172
C52	C	1.171487	-0.294043	0.724363
C53	C	1.171497	-0.294020	0.806342
C54	C	1.119259	-0.339013	0.849326
C55	C	1.067001	-0.384027	0.810325
C56	C	1.066987	-0.384046	0.728347
C57	C	1.067034	-0.383984	0.981194
C58	C	1.067049	-0.383966	1.063177
C59	C	1.171545	-0.293958	1.059188
C60	C	1.171531	-0.293978	0.977210
C61	C	1.119274	-0.338993	0.938216
H62	H	0.816707	-0.420877	0.487942
H63	H	0.422416	-0.257401	0.298832
H64	H	1.222486	-1.070495	0.290424
H65	H	1.198228	-0.607050	0.314351
H66	H	1.192309	-0.740394	0.320356
O67	O	0.577863	-0.250376	0.290512
C68	C	0.557094	-0.265661	0.212933
H69	H	0.532021	-0.321886	0.211377
H70	H	0.611266	-0.259549	0.173886
H71	H	0.511203	-0.227910	0.190802
O72	O	1.236635	-0.931470	0.276272
C73	C	1.278817	-0.979668	0.234160
H74	H	1.279185	-1.032043	0.268667
H75	H	1.341616	-0.958396	0.224894
H76	H	1.249762	-0.987539	0.174867
O77	O	1.032065	-1.076170	0.480635
C78	C	0.989862	-1.027974	0.522731
H79	H	1.024339	-0.975554	0.523120
H80	H	0.980520	-1.049182	0.585523
H81	H	0.930602	-1.020216	0.493590
O82	O	1.038628	-0.931346	0.474128
C83	C	1.085173	-0.888754	0.522949
H84	H	1.146015	-0.910856	0.528850
H85	H	1.056781	-0.887909	0.583293
H86	H	1.090360	-0.833058	0.496184
H87	H	1.010056	-0.740409	0.502353
H88	H	1.015975	-0.607053	0.496356
O89	O	1.222261	-0.250270	0.682730
C90	C	1.268394	-0.210549	0.734732
H91	H	1.236361	-0.208095	0.793054
H92	H	1.279282	-0.155102	0.708583
H93	H	1.326842	-0.236328	0.744609
H94	H	1.024464	-0.420658	0.845329
H95	H	1.214048	-0.257368	0.838088
H96	H	1.214072	-0.257345	0.942215
H97	H	1.214093	-0.257304	1.090941
H98	H	1.024509	-0.420602	1.098173
H99	H	1.024430	-0.420693	0.696599
H100	H	0.415129	-0.420935	0.487988
H101	H	1.024469	-0.420630	0.949447
H102	H	0.667978	-0.420899	0.487959
H103	H	0.563848	-0.420920	0.487961
H104	H	0.675269	-0.257360	0.298804
O105	O	0.830639	-0.250248	0.290514
C106	C	0.778658	-0.210472	0.244511
H107	H	0.718916	-0.239300	0.243043
H108	H	0.802658	-0.202911	0.182335
H109	H	0.772369	-0.157043	0.270955
