data_functionalizedCrystal
_audit_creation_method	'MofGen! by Chris Wilmer'
_symmetry_space_group_name_H-M	'P1'
_symmetry_Int_Tables_number	1
_symmetry_cell_setting	triclinic
loop_
_symmetry_equiv_pos_as_xyz
  x,y,z
_cell_length_a	10.654549
_cell_length_b	13.339070
_cell_length_c	9.130313
_cell_angle_alpha	89.997998
_cell_angle_beta	89.997498
_cell_angle_gamma	100.057036
loop_
_atom_site_label
_atom_site_type_symbol
_atom_site_fract_x
_atom_site_fract_y
_atom_site_fract_z
O1	O	1.715933	0.142433	-0.121759
O2	O	1.355036	0.156003	-0.121769
O3	O	1.494065	0.001664	-0.121761
O4	O	1.576904	0.296772	-0.121767
O5	O	1.494051	0.001659	0.121838
O6	O	1.355022	0.155999	0.121830
O7	O	1.715918	0.142428	0.121840
Cu8	Cu	1.535468	0.149213	0.144077
Cu9	Cu	1.535486	0.149218	-0.144007
O10	O	1.576889	0.296767	0.121831
C11	C	1.307895	0.155005	0.000029
C12	C	1.167445	0.152024	0.000025
C13	C	0.986665	0.240088	0.000029
C14	C	1.118634	0.242896	0.000020
C15	C	1.084278	0.058336	0.000024
C16	C	0.952312	0.055529	0.000022
C17	C	1.480065	-0.036126	0.000036
C18	C	1.438355	-0.148720	0.000029
C19	C	1.762669	-0.511238	0.000039
C20	C	1.801862	-0.405450	0.000054
C21	C	1.710988	-0.341263	0.000047
C22	C	1.580916	-0.382873	0.000026
C23	C	1.541719	-0.488671	0.000023
C24	C	1.490039	-0.318696	0.000031
C25	C	1.359966	-0.360306	0.000011
C26	C	1.320776	-0.466094	0.000007
C27	C	1.411650	-0.530281	0.000013
C28	C	1.529235	-0.212898	0.000035
C29	C	1.308285	-0.190331	0.000019
C30	C	1.269093	-0.296118	0.000004
C31	C	1.763060	0.143427	0.000038
C32	C	1.903510	0.146408	0.000033
C33	C	1.590889	0.334557	0.000031
C34	C	1.632599	0.447152	0.000029
N35	N	1.535465	0.149209	0.346700
N36	N	1.535496	0.149215	-0.346629
C37	C	1.597066	0.080896	0.423355
C38	C	1.597078	0.080896	0.576692
C39	C	1.473888	0.217530	0.576705
C40	C	1.473869	0.217525	0.423371
H41	H	0.946935	0.314087	0.000036
H42	H	1.423700	0.273153	0.360954
F43	F	1.408339	0.290236	0.658313
H44	H	1.647219	0.025268	0.360934
H45	H	1.186336	0.319180	0.000017
H46	H	1.124030	-0.015654	0.000019
F47	F	0.863805	-0.044184	0.000010
H48	H	1.647237	0.025269	0.639101
H49	H	1.635140	-0.179029	0.000052
H50	H	1.742907	-0.255126	0.000059
H51	H	1.907766	-0.371579	0.000072
H52	H	1.836644	-0.563508	0.000056
F53	F	1.369943	-0.642875	-0.000141
H54	H	1.214863	-0.499969	0.000001
H55	H	1.163185	-0.330013	-0.000012
H56	H	1.234288	-0.138069	0.000021
