data_functionalizedCrystal
_audit_creation_method	'MofGen! by Chris Wilmer'
_symmetry_space_group_name_H-M	'P1'
_symmetry_Int_Tables_number	1
_symmetry_cell_setting	triclinic
loop_
_symmetry_equiv_pos_as_xyz
  x,y,z
_cell_length_a	16.109301
_cell_length_b	16.109301
_cell_length_c	14.586319
_cell_angle_alpha	89.994786
_cell_angle_beta	89.999213
_cell_angle_gamma	83.461481
loop_
_atom_site_label
_atom_site_type_symbol
_atom_site_fract_x
_atom_site_fract_y
_atom_site_fract_z
O1	O	1.103131	0.106866	-0.076185
O2	O	0.861069	0.120165	-0.076200
O3	O	0.988749	-0.007515	-0.076183
O4	O	0.975450	0.234547	-0.076203
O5	O	0.988741	-0.007517	0.076298
O6	O	0.861060	0.120164	0.076281
O7	O	1.103122	0.106864	0.076295
Cu8	Cu	0.982090	0.113514	0.090211
Cu9	Cu	0.982101	0.113516	-0.090115
O10	O	0.975441	0.234545	0.076278
C11	C	0.830090	0.119626	0.000038
C12	C	0.737794	0.118011	0.000033
C13	C	0.515522	0.190018	0.000038
C14	C	0.428801	0.188494	0.000044
C15	C	0.448676	0.037006	0.000052
C16	C	0.535394	0.038530	0.000053
C17	C	0.568815	0.115039	0.000041
C18	C	0.395376	0.111990	0.000046
C19	C	0.301350	0.110337	0.000053
C20	C	0.662847	0.116693	0.000036
C21	C	0.988206	-0.038491	0.000058
C22	C	0.986591	-0.130786	0.000059
C23	C	1.058599	-0.353059	0.000049
C24	C	1.057075	-0.439779	0.000041
C25	C	0.905586	-0.419905	0.000036
C26	C	0.907111	-0.333186	0.000037
C27	C	0.983620	-0.299766	0.000048
C28	C	0.980571	-0.473205	0.000039
C29	C	0.978918	-0.567231	0.000031
C30	C	0.985273	-0.205734	0.000055
C31	C	1.134101	0.107404	0.000055
C32	C	1.226397	0.109019	0.000054
C33	C	0.975984	0.265521	0.000035
C34	C	0.977600	0.357816	0.000028
N35	N	0.982089	0.113512	0.217042
N36	N	0.982109	0.113511	-0.216947
C37	C	1.038644	0.056994	0.452057
C38	C	1.038647	0.056992	0.548038
C39	C	0.925547	0.170032	0.548032
C40	C	0.925541	0.170030	0.452052
C41	C	0.982095	0.113511	0.404067
C42	C	0.982103	0.113512	0.596028
C43	C	0.982105	0.113510	0.700095
C44	C	0.982092	0.113512	0.299993
H45	H	0.578788	-0.022530	0.000058
C46	C	0.778456	-0.289540	-0.078348
C47	C	0.824686	-0.274601	0.000036
H48	H	0.727571	-0.253375	-0.078346
H49	H	0.809829	-0.279404	-0.131510
H50	H	0.766603	-0.345971	-0.078338
H51	H	0.836544	-0.218171	0.000022
H52	H	0.793306	-0.284730	0.053212
C53	C	0.813743	0.281758	0.538385
C54	C	0.863385	0.232156	0.600780
H55	H	0.775364	0.320108	0.570950
H56	H	0.848336	0.311676	0.500946
H57	H	0.783852	0.247129	0.500954
H58	H	0.893281	0.266785	0.638206
H59	H	0.828788	0.202236	0.638234
C60	C	0.775990	-0.429664	0.078410
C61	C	0.821488	-0.456640	0.000030
H62	H	0.724068	-0.452337	0.078403
H63	H	0.806858	-0.447968	0.131575
H64	H	0.766177	-0.370389	0.078400
H65	H	0.831307	-0.515914	0.000044
H66	H	0.790614	-0.438339	-0.053149
C67	C	0.362689	-0.052588	-0.078336
C68	C	0.411937	-0.047091	0.000053
H69	H	0.340014	-0.104509	-0.078338
H70	H	0.318541	-0.008157	-0.078331
H71	H	0.396117	-0.048840	-0.131501
H72	H	0.378507	-0.050833	0.053218
H73	H	0.456091	-0.091534	0.000056
H74	H	0.879487	0.216053	0.412977
H75	H	0.385413	0.249550	0.000043
H76	H	1.084693	0.010972	0.412989
C77	C	1.208185	-0.381417	0.000037
C78	C	1.142696	-0.316322	0.000045
H79	H	1.260103	-0.358737	0.000025
H80	H	1.204443	-0.414829	0.053208
H81	H	1.204428	-0.414824	-0.053139
H82	H	1.146449	-0.282918	0.053224
H83	H	1.146440	-0.282897	-0.053132
H84	H	1.084694	0.010969	0.587108
H85	H	0.542730	0.252317	0.000035
C86	C	1.143251	-0.548812	-0.078349
C87	C	1.139496	-0.498357	0.000041
H88	H	1.194140	-0.584971	-0.078351
H89	H	1.097478	-0.581128	-0.078346
H90	H	1.140696	-0.514551	-0.131513
H91	H	1.142044	-0.532618	0.053206
H92	H	1.185281	-0.466038	0.000047
