data_functionalizedCrystal
_audit_creation_method	'MofGen! by Chris Wilmer'
_symmetry_space_group_name_H-M	'P1'
_symmetry_Int_Tables_number	1
_symmetry_cell_setting	triclinic
loop_
_symmetry_equiv_pos_as_xyz
  x,y,z
_cell_length_a	21.395364
_cell_length_b	25.639240
_cell_length_c	25.639234
_cell_angle_alpha	90.032088
_cell_angle_beta	90.020766
_cell_angle_gamma	90.031090
loop_
_atom_site_label
_atom_site_type_symbol
_atom_site_fract_x
_atom_site_fract_y
_atom_site_fract_z
Zn1	Zn	0.957826	-0.208206	0.295596
Zn2	Zn	0.957732	-0.295634	0.208150
Zn3	Zn	0.853048	-0.208212	0.208174
Zn4	Zn	0.853006	-0.295610	0.295553
O5	O	0.905403	-0.251915	0.251868
O6	O	1.045491	-0.219811	0.284005
O7	O	0.943823	-0.284050	0.134988
O8	O	0.867004	-0.135046	0.219799
O9	O	1.045422	-0.284044	0.219758
O10	O	0.943983	-0.135041	0.284028
O11	O	0.866913	-0.219821	0.135005
O12	O	0.765364	-0.219798	0.219756
O13	O	0.866932	-0.284002	0.368724
O14	O	0.765334	-0.284008	0.283953
O15	O	0.943943	-0.219787	0.368756
O16	O	0.943783	-0.368796	0.219716
O17	O	0.866841	-0.368778	0.283930
C18	C	0.742615	-0.251901	0.251853
C19	C	0.672974	-0.251908	0.251859
C20	C	0.171178	-0.285411	0.285263
C21	C	0.236614	-0.285411	0.285258
C22	C	0.269336	-0.251927	0.251885
C23	C	0.236617	-0.218449	0.218505
C24	C	0.171183	-0.218454	0.218508
C25	C	0.373027	-0.204808	0.247843
C26	C	0.438460	-0.204803	0.247844
C27	C	0.471156	-0.251913	0.251873
C28	C	0.438412	-0.299030	0.255913
C29	C	0.372978	-0.299035	0.255915
C30	C	0.340288	-0.251918	0.251878
C31	C	0.574820	-0.285391	0.285242
C32	C	0.640256	-0.285392	0.285233
C33	C	0.640258	-0.218426	0.218483
C34	C	0.574823	-0.218429	0.218490
C35	C	0.542108	-0.251911	0.251872
C36	C	0.905314	-0.387758	0.251827
C37	C	0.905334	-0.445872	0.251827
C38	C	0.945506	-0.806194	0.285373
C39	C	0.945525	-0.860799	0.285383
O40	O	0.979575	-0.889001	0.313863
N41	N	0.905490	-0.888154	0.251919
C42	C	0.865429	-0.860903	0.218445
O43	O	0.831378	-0.889185	0.189982
C44	C	0.865408	-0.806300	0.218437
C45	C	0.905450	-0.778947	0.251900
C46	C	0.985544	-0.778841	0.318833
C47	C	0.985526	-0.724241	0.318822
C48	C	0.945470	-0.696993	0.285350
C49	C	0.905432	-0.724346	0.251889
C50	C	0.825345	-0.779050	0.184967
C51	C	0.825327	-0.724443	0.184962
C52	C	0.865369	-0.697089	0.218425
C53	C	0.865358	-0.642498	0.218405
N54	N	0.905393	-0.615142	0.251870
C55	C	0.945449	-0.642390	0.285342
C56	C	0.865476	-0.975574	0.218464
C57	C	0.865500	-1.030176	0.218469
C58	C	0.945594	-1.030068	0.285408
C59	C	0.945573	-0.975464	0.285400
C60	C	0.905511	-0.948218	0.251929
C61	C	0.945409	-0.527725	0.285315
C62	C	0.945390	-0.473119	0.285299
C63	C	0.865293	-0.473233	0.218362
C64	C	0.865315	-0.527833	0.218376
C65	C	0.905375	-0.555078	0.251857
O66	O	0.831323	-0.614262	0.189942
O67	O	0.979489	-0.614101	0.313805
C68	C	1.068826	-0.251930	0.251884
C69	C	1.138467	-0.251936	0.251890
C70	C	0.905443	-0.251892	0.388241
C71	C	0.905461	-0.251881	0.446355
C72	C	0.905509	-0.115542	0.251921
C73	C	0.905554	-0.057428	0.251943
C74	C	0.905398	-0.251901	0.116026
C75	C	0.905502	-0.251764	0.057912
C76	C	0.865431	-0.218375	0.806733
C77	C	0.865434	-0.218366	0.861337
O78	O	0.831368	-0.189935	0.889587
N79	N	0.905482	-0.251799	0.888638
C80	C	0.945524	-0.285248	0.861331
O81	O	0.979587	-0.313686	0.889567
C82	C	0.945517	-0.285260	0.806728
C83	C	0.905471	-0.251821	0.779430
C84	C	0.825388	-0.184939	0.779435
C85	C	0.825386	-0.184948	0.724835
C86	C	0.865426	-0.218393	0.697532
C87	C	0.905469	-0.251829	0.724830
C88	C	0.985555	-0.318711	0.779422
C89	C	0.985544	-0.318720	0.724815
C90	C	0.945499	-0.285281	0.697518
C91	C	0.945507	-0.285284	0.642926
N92	N	0.905459	-0.251850	0.615626
C93	C	0.865419	-0.218405	0.642929
C94	C	0.945535	-0.285222	0.976002
C95	C	0.945545	-0.285208	1.030604
C96	C	0.865455	-0.218326	1.030607
C97	C	0.865448	-0.218338	0.976003
C98	C	0.905487	-0.251788	0.948701
C99	C	0.865418	-0.218426	0.528263
C100	C	0.865421	-0.218436	0.473658
C101	C	0.945508	-0.285320	0.473660
C102	C	0.945508	-0.285308	0.528261
C103	C	0.905457	-0.251859	0.555561
O104	O	0.979554	-0.313701	0.614642
O105	O	0.831356	-0.189977	0.614687
H106	H	0.666900	-0.191164	0.191308
H107	H	0.977999	-0.450850	0.312549
H108	H	0.548182	-0.312655	0.312423
H109	H	0.666889	-0.312655	0.312408
H110	H	0.978161	-0.312432	1.052826
N111	N	0.473675	-0.349843	0.260254
H112	H	0.462256	-0.373201	0.229978
H113	H	0.462286	-0.367639	0.294076
N114	N	0.988693	-0.321374	0.557712
H115	H	1.017746	-0.300129	0.580388
H116	H	1.014018	-0.342557	0.532099
H117	H	0.832714	-0.550105	0.191124
N118	N	0.135894	-0.321530	0.321260
H119	H	0.108723	-0.345731	0.299963
H120	H	0.108802	-0.300282	0.345524
H121	H	0.346411	-0.166443	0.244553
H122	H	0.263252	-0.312671	0.312436
H123	H	0.548190	-0.191168	0.191315
N124	N	0.473774	-0.153987	0.243490
H125	H	0.443134	-0.124144	0.240931
H126	H	0.500908	-0.154698	0.211273
H127	H	0.263263	-0.191187	0.191332
N128	N	0.822095	-0.443839	0.182258
H129	H	0.828162	-0.405098	0.187333
H130	H	0.777345	-0.453406	0.190364
N131	N	0.337659	-0.349849	0.260267
H132	H	0.368297	-0.379695	0.262818
H133	H	0.310494	-0.354659	0.228400
N134	N	0.135897	-0.182348	0.182511
H135	H	0.166553	-0.161136	0.161365
H136	H	0.108773	-0.158181	0.203840
H137	H	0.978026	-0.549901	0.312582
H138	H	0.832805	-0.191188	0.550485
H139	H	1.018130	-0.701973	0.346072
N140	N	1.028757	-0.808213	0.354943
H141	H	1.057823	-0.830861	0.333727
H142	H	1.003252	-0.830838	0.379157
H143	H	0.978178	-0.953197	0.312649
H144	H	0.792780	-0.157703	0.801659
N145	N	0.988695	-0.321390	0.444207
H146	H	0.982541	-0.316379	0.405475
H147	H	0.978978	-0.358724	0.453796
H148	H	1.018164	-0.345942	0.801639
N149	N	0.822319	-1.059672	0.182368
H150	H	0.777544	-1.050191	0.190452
H151	H	0.828457	-1.098389	0.187465
H152	H	0.978209	-1.052262	0.312664
H153	H	0.978147	-0.312458	0.953776
N154	N	0.822269	-0.946188	0.182356
H155	H	0.796914	-0.971807	0.161159
H156	H	0.847781	-0.923533	0.158176
H157	H	1.018154	-0.345957	0.702589
N158	N	0.782158	-0.808543	0.148873
H159	H	0.756781	-0.782988	0.127673
H160	H	0.753154	-0.831202	0.170137
N161	N	0.782114	-0.695055	0.148862
H162	H	0.756754	-0.720673	0.127667
H163	H	0.807624	-0.672401	0.124679
N164	N	0.822260	-0.182269	0.946563
H165	H	0.796900	-0.161080	0.972150
H166	H	0.793240	-0.203550	0.923894
N167	N	0.822234	-0.182363	0.444216
H168	H	0.796870	-0.161175	0.469801
H169	H	0.793218	-0.203641	0.421542
N170	N	0.782200	-0.148876	0.695396
H171	H	0.756840	-0.127689	0.720985
H172	H	0.753181	-0.170153	0.672724
N173	N	0.822265	-0.182253	1.060060
H174	H	0.828347	-0.187324	1.098792
H175	H	0.777510	-0.190390	1.050503
