data_functionalizedCrystal
_audit_creation_method	'MofGen! by Chris Wilmer'
_symmetry_space_group_name_H-M	'P1'
_symmetry_Int_Tables_number	1
_symmetry_cell_setting	triclinic
loop_
_symmetry_equiv_pos_as_xyz
  x,y,z
_cell_length_a	23.532355
_cell_length_b	22.010155
_cell_length_c	19.188930
_cell_angle_alpha	89.990358
_cell_angle_beta	97.013860
_cell_angle_gamma	90.009876
loop_
_atom_site_label
_atom_site_type_symbol
_atom_site_fract_x
_atom_site_fract_y
_atom_site_fract_z
O1	O	0.755468	0.050449	-0.084582
O2	O	1.255468	0.550449	0.415418
O3	O	0.589626	0.050470	-0.096884
O4	O	1.089626	0.550470	0.403116
O5	O	0.677333	0.050447	0.010939
O6	O	1.177333	0.550447	0.510939
O7	O	0.667761	0.050472	-0.192405
O8	O	1.167761	0.550472	0.307595
O9	O	0.677306	-0.050603	0.010939
O10	O	1.177306	0.449397	0.510939
O11	O	0.589600	-0.050581	-0.096884
O12	O	1.089600	0.449419	0.403116
O13	O	0.755441	-0.050601	-0.084582
O14	O	1.255441	0.449399	0.415418
Cu15	Cu	0.672518	-0.059818	-0.090733
Cu16	Cu	1.172518	0.440182	0.409267
Cu17	Cu	0.672549	0.059686	-0.090733
Cu18	Cu	1.172549	0.559686	0.409267
O19	O	0.667735	-0.050579	-0.192405
O20	O	1.167735	0.449421	0.307595
C21	C	0.568396	-0.000053	-0.096576
C22	C	1.068396	0.499947	0.403424
C23	C	0.505175	-0.000046	-0.095652
C24	C	1.005175	0.499954	0.404348
N25	N	0.672500	-0.143870	-0.090733
N26	N	1.172500	0.356130	0.409267
C27	C	0.113135	-0.055155	-0.089843
C28	C	0.613135	0.444845	0.410157
C29	C	0.053733	-0.055157	-0.088963
C30	C	0.553733	0.444843	0.411037
O31	O	0.023002	-0.102002	-0.088485
O32	O	0.523002	0.397998	0.411515
N33	N	0.024038	-0.000075	-0.088527
N34	N	0.524038	0.499925	0.411473
C35	C	0.053748	0.055013	-0.088964
C36	C	0.553748	0.555013	0.411036
O37	O	0.023036	0.101865	-0.088511
O38	O	0.523036	0.601865	0.411489
C39	C	0.113149	0.055015	-0.089838
C40	C	0.613149	0.555015	0.410162
C41	C	0.142840	-0.000071	-0.090281
C42	C	0.642840	0.499929	0.409719
C43	C	0.142826	-0.110236	-0.090285
C44	C	0.642826	0.389764	0.409715
C45	C	0.202223	-0.110233	-0.091166
C46	C	0.702223	0.389767	0.408834
C47	C	0.231929	-0.055149	-0.091605
C48	C	0.731929	0.444851	0.408395
C49	C	0.202237	-0.000068	-0.091162
C50	C	0.702237	0.499932	0.408838
C51	C	0.142859	0.110103	-0.090270
C52	C	0.642859	0.610103	0.409730
C53	C	0.202264	0.110100	-0.091144
C54	C	0.702264	0.610100	0.408856
C55	C	0.231955	0.055014	-0.091587
C56	C	0.731955	0.555014	0.408413
C57	C	0.291340	0.055019	-0.092481
C58	C	0.791340	0.555019	0.407519
N59	N	0.321035	-0.000063	-0.092918
N60	N	0.821035	0.499937	0.407082
C61	C	0.291330	-0.055148	-0.092479
C62	C	0.791330	0.444852	0.407521
C63	C	-0.070997	0.055005	-0.087126
C64	C	0.429003	0.555005	0.412874
C65	C	-0.130397	0.055004	-0.086256
C66	C	0.369603	0.555004	0.413744
C67	C	-0.130408	-0.055167	-0.086255
C68	C	0.369592	0.444833	0.413745
C69	C	-0.071007	-0.055165	-0.087129
C70	C	0.428993	0.444835	0.412871
C71	C	-0.041302	-0.000077	-0.087562
C72	C	0.458698	0.499923	0.412438
C73	C	0.416068	-0.055138	-0.094330
C74	C	0.916068	0.444862	0.405670
C75	C	0.475470	-0.055130	-0.095213
C76	C	0.975470	0.444870	0.404787
C77	C	0.475476	0.055040	-0.095211
C78	C	0.975476	0.555040	0.404789
C79	C	0.416078	0.055033	-0.094331
C80	C	0.916078	0.555033	0.405669
C81	C	0.386376	-0.000061	-0.093888
C82	C	0.886376	0.499939	0.406112
O83	O	0.322110	0.101840	-0.092958
O84	O	0.822110	0.601840	0.407042
O85	O	0.322050	-0.101991	-0.092922
O86	O	0.822050	0.398009	0.407078
C87	C	0.706985	-0.563649	-0.132850
C88	C	1.206985	-0.063649	0.367150
C89	C	0.706992	-0.627256	-0.132848
C90	C	1.206992	-0.127256	0.367152
O91	O	0.736292	-0.660147	-0.168653
O92	O	1.236292	-0.160147	0.331347
N93	N	0.672561	-0.659077	-0.090725
N94	N	1.172561	-0.159077	0.409275
C95	C	0.638125	-0.627287	-0.048596
C96	C	1.138125	-0.127287	0.451404
O97	O	0.608839	-0.660194	-0.012766
O98	O	1.108839	-0.160194	0.487234
C99	C	0.638121	-0.563681	-0.048594
C100	C	1.138121	-0.063681	0.451406
C101	C	0.672551	-0.531863	-0.090725
C102	C	1.172551	-0.031863	0.409275
C103	C	0.741412	-0.531831	-0.174977
C104	C	1.241412	-0.031831	0.325023
C105	C	0.741405	-0.468228	-0.174979
C106	C	1.241405	0.031772	0.325021
C107	C	0.706970	-0.436442	-0.132855
C108	C	1.206970	0.063558	0.367145
C109	C	0.672543	-0.468260	-0.090728
C110	C	1.172543	0.031740	0.409272
C111	C	0.603689	-0.531892	-0.006462
C112	C	1.103689	-0.031892	0.493538
C113	C	0.603689	-0.468282	-0.006463
C114	C	1.103689	0.031718	0.493537
C115	C	0.638118	-0.436464	-0.048594
C116	C	1.138118	0.063536	0.451406
C117	C	0.638101	-0.372871	-0.048606
C118	C	1.138101	0.127129	0.451394
N119	N	0.672532	-0.341050	-0.090729
N120	N	1.172532	0.158950	0.409271
C121	C	0.706967	-0.372836	-0.132853
C122	C	1.206967	0.127164	0.367147
C123	C	0.638135	-0.760865	-0.048601
C124	C	1.138135	-0.260865	0.451399
C125	C	0.638134	-0.824470	-0.048606
C126	C	1.138134	-0.324470	0.451394
C127	C	0.707003	-0.824435	-0.132857
C128	C	1.207003	-0.324435	0.367143
C129	C	0.707000	-0.760828	-0.132856
C130	C	1.207000	-0.260828	0.367144
C131	C	0.672566	-0.729044	-0.090724
C132	C	1.172566	-0.229044	0.409276
C133	C	0.706948	-0.239264	-0.132856
C134	C	1.206948	0.260736	0.367144
C135	C	0.706935	-0.175656	-0.132857
C136	C	1.206935	0.324344	0.367143
C137	C	0.638069	-0.175697	-0.048603
C138	C	1.138069	0.324303	0.451397
C139	C	0.638079	-0.239300	-0.048605
C140	C	1.138079	0.260700	0.451395
C141	C	0.672523	-0.271082	-0.090733
C142	C	1.172523	0.228918	0.409267
O143	O	0.608818	-0.339940	-0.012817
O144	O	1.108818	0.160060	0.487183
O145	O	0.736253	-0.339921	-0.168670
O146	O	1.236253	0.160079	0.331330
C147	C	0.776672	-0.000077	-0.084890
C148	C	1.276672	0.499923	0.415110
C149	C	0.839892	-0.000080	-0.085814
C150	C	1.339892	0.499920	0.414186
C151	C	0.677010	-0.000080	0.036949
C152	C	1.177010	0.499920	0.536949
C153	C	0.676079	-0.000085	0.114450
C154	C	1.176079	0.499915	0.614450
N155	N	0.672572	0.143739	-0.090728
N156	N	1.172572	0.643739	0.409272
C157	C	0.668058	-0.000050	-0.218415
C158	C	1.168058	0.499950	0.281585
C159	C	0.668988	-0.000041	-0.295916
C160	C	1.168988	0.499959	0.204084
C161	C	0.727543	-0.000094	0.159550
C162	C	1.227543	0.499906	0.659550
C163	C	0.726668	-0.000084	0.232371
C164	C	1.226668	0.499916	0.732371
C165	C	0.674328	-0.000078	0.260089
C166	C	1.174328	0.499922	0.760089
C167	C	0.622858	-0.000065	0.214979
C168	C	1.122858	0.499935	0.714979
C169	C	0.623733	-0.000069	0.142160
C170	C	1.123733	0.499931	0.642160
N171	N	0.634311	-0.034462	0.367957
N172	N	1.134311	0.465538	0.867957
N173	N	0.633483	-0.034460	0.437133
N174	N	1.133483	0.465540	0.937133
C175	C	0.671687	-0.000065	0.479488
C176	C	1.171687	0.499935	0.979488
N177	N	0.710759	0.034320	0.450056
N178	N	1.210759	0.534320	0.950056
N179	N	0.711589	0.034315	0.380874
N180	N	1.211589	0.534315	0.880874
C181	C	0.673373	-0.000073	0.339048
C182	C	1.173373	0.499927	0.839048
C183	C	0.722206	-0.000063	0.603549
C184	C	1.222206	0.499937	1.103549
C185	C	0.721329	-0.000049	0.676371
C186	C	1.221329	0.499951	1.176371
C187	C	0.617517	-0.000036	0.658977
C188	C	1.117517	0.499964	1.158977
C189	C	0.618395	-0.000043	0.586157
C190	C	1.118395	0.499957	1.086157
C191	C	0.670741	-0.000060	0.558448
C192	C	1.170741	0.499940	1.058448
H193	H	0.391890	-0.100000	-0.093975
H194	H	0.891890	0.400000	0.406025
H195	H	0.499641	-0.099990	-0.095577
H196	H	0.999641	0.400010	0.404423
O197	O	0.740419	-0.270038	-0.173846
O198	O	1.240419	0.229962	0.326154
C199	C	0.808746	-0.263272	-0.257386
C200	C	1.308746	0.236728	0.242614
C201	C	0.770861	-0.228347	-0.211008
C202	C	1.270861	0.271653	0.288992
H203	H	0.833377	-0.229580	-0.287432
H204	H	1.333377	0.270420	0.212568
H205	H	0.780668	-0.293037	-0.296176
H206	H	1.280668	0.206963	0.203824
H207	H	0.840270	-0.293063	-0.222839
H208	H	1.340270	0.206937	0.277161
H209	H	0.739332	-0.198523	-0.245499
H210	H	1.239332	0.301477	0.254501
H211	H	0.798974	-0.198621	-0.172213
H212	H	1.298974	0.301379	0.327787
H213	H	0.735041	-0.850326	-0.167158
H214	H	1.235041	-0.350326	0.332842
O215	O	0.231075	-0.163728	-0.091710
O216	O	0.731075	0.336272	0.408290
C217	C	0.291550	-0.227657	-0.153159
C218	C	0.791550	0.272343	0.346841
C219	C	0.258894	-0.167057	-0.152644
C220	C	0.758894	0.332943	0.347356
H221	H	0.314059	-0.230363	-0.202411
H222	H	0.814059	0.269637	0.297589
H223	H	0.260129	-0.267048	-0.152736
H224	H	0.760129	0.232952	0.347264
H225	H	0.324671	-0.230406	-0.104674
H226	H	0.824671	0.269594	0.395326
H227	H	0.225772	-0.164248	-0.201120
H228	H	0.725772	0.335752	0.298880
H229	H	0.290349	-0.127695	-0.153031
H230	H	0.790349	0.372305	0.346969
O231	O	-0.159279	-0.108663	-0.085694
O232	O	0.340721	0.391337	0.414306
C233	C	-0.219772	-0.172581	-0.024211
C234	C	0.280228	0.327419	0.475789
C235	C	-0.187090	-0.111986	-0.024752
C236	C	0.312910	0.388014	0.475248
H237	H	-0.242275	-0.175283	0.025048
H238	H	0.257725	0.324717	0.525048
H239	H	-0.188369	-0.211977	-0.024627
H240	H	0.311631	0.288023	0.475373
H241	H	-0.252900	-0.175326	-0.072689
H242	H	0.247100	0.324674	0.427311
H243	H	-0.153962	-0.109183	0.023717
H244	H	0.346038	0.390817	0.523717
H245	H	-0.218528	-0.072619	-0.024373
H246	H	0.281472	0.427381	0.475627
O247	O	0.113965	-0.163735	-0.089734
O248	O	0.613965	0.336265	0.410266
C249	C	0.053485	-0.227689	-0.028276
C250	C	0.553485	0.272311	0.471724
C251	C	0.086148	-0.167081	-0.028799
C252	C	0.586148	0.332919	0.471201
H253	H	0.030977	-0.230409	0.020978
H254	H	0.530977	0.269591	0.520978
H255	H	0.084900	-0.267073	-0.028695
H256	H	0.584900	0.232927	0.471305
H257	H	0.020362	-0.230436	-0.076759
H258	H	0.520362	0.269564	0.423241
H259	H	0.119271	-0.164275	0.019676
H260	H	0.619271	0.335725	0.519676
H261	H	0.054698	-0.127726	-0.028416
H262	H	0.554698	0.372274	0.471584
H263	H	0.226447	0.154960	-0.091496
H264	H	0.726447	0.654960	0.408504
O265	O	0.568365	0.000039	0.542414
O266	O	1.068365	0.500039	1.042414
C267	C	0.479935	0.052417	0.505229
C268	C	0.979935	0.552417	1.005229
C269	C	0.536570	0.052390	0.554818
C270	C	1.036570	0.552390	1.054818
H271	H	0.454218	0.094745	0.515229
H272	H	0.954218	0.594745	1.015229
H273	H	0.454118	0.010160	0.515276
H274	H	0.954118	0.510160	1.015276
H275	H	0.489564	0.052383	0.448428
H276	H	0.989564	0.552383	0.948428
H277	H	0.526993	0.052445	0.611636
H278	H	1.026993	0.552445	1.111636
H279	H	0.562371	0.094643	0.544710
H280	H	1.062371	0.594643	1.044710
H281	H	0.769456	-0.557704	-0.209280
H282	H	1.269456	-0.057704	0.290720
H283	H	0.610032	-0.149806	-0.014308
H284	H	1.110032	0.350194	0.485692
H285	H	-0.046837	-0.100021	-0.087491
H286	H	0.453163	0.399979	0.412509
H287	H	0.763239	-0.000053	0.713092
H288	H	1.263239	0.499947	1.213092
O289	O	0.776699	-0.000015	0.276122
O290	O	1.276699	0.499985	0.776122
C291	C	0.865159	0.052331	0.313298
C292	C	1.365159	0.552331	0.813298
C293	C	0.808529	0.052322	0.263702
C294	C	1.308529	0.552322	0.763702
H295	H	0.890904	0.094648	0.303285
H296	H	1.390904	0.594648	0.803285
H297	H	0.890952	0.010063	0.303272
H298	H	1.390952	0.510063	0.803272
H299	H	0.855525	0.052305	0.370097
H300	H	1.355525	0.552305	0.870097
H301	H	0.818111	0.052369	0.206886
H302	H	1.318111	0.552369	0.706886
H303	H	0.782753	0.094586	0.273790
H304	H	1.282753	0.594586	0.773790
H305	H	0.118694	0.154960	-0.089908
H306	H	0.618694	0.654960	0.410092
O307	O	-0.159145	0.108569	-0.085805
O308	O	0.340855	0.608569	0.414195
C309	C	-0.152853	0.217843	-0.085943
C310	C	0.347147	0.717843	0.414057
C311	C	-0.120228	0.157223	-0.086443
C312	C	0.379772	0.657223	0.413557
H313	H	-0.121404	0.257195	-0.086474
H314	H	0.378596	0.757195	0.413526
H315	H	-0.175306	0.220636	-0.036650
H316	H	0.324694	0.720636	0.463350
H317	H	-0.186016	0.220571	-0.134388
H318	H	0.313984	0.720571	0.365612
H319	H	-0.087038	0.154453	-0.038031
H320	H	0.412962	0.654453	0.461969
H321	H	-0.097814	0.154455	-0.135767
H322	H	0.402186	0.654455	0.364233
H323	H	0.581824	-0.000061	0.105438
H324	H	1.081824	0.499939	0.605438
O325	O	0.774883	-0.437255	-0.215802
O326	O	1.274883	0.062745	0.284198
C327	C	0.851791	-0.365454	-0.219343
C328	C	1.351791	0.134546	0.280657
C329	C	0.813905	-0.400478	-0.173029
C330	C	1.313905	0.099522	0.326971
H331	H	0.883357	-0.335721	-0.184778
H332	H	1.383357	0.164279	0.315222
H333	H	0.823715	-0.335637	-0.258075
H334	H	1.323715	0.164363	0.241925
H335	H	0.876375	-0.399115	-0.249465
H336	H	1.376375	0.100885	0.250535
H337	H	0.789315	-0.366860	-0.142861
H338	H	1.289315	0.133140	0.357139
H339	H	0.842011	-0.430304	-0.134340
H340	H	1.342011	0.069696	0.365660
H341	H	0.735035	-0.734927	-0.167163
H342	H	1.235035	-0.234927	0.332837
H343	H	0.770166	-0.000106	0.136994
H344	H	1.270166	0.499894	0.636994
O345	O	0.566723	-0.000053	0.686009
O346	O	1.066723	0.499947	1.186009
C347	C	0.519365	0.000005	0.790483
C348	C	1.019365	0.500005	1.290483
C349	C	0.576931	0.000006	0.759959
C350	C	1.076931	0.500006	1.259959
H351	H	0.527599	0.000065	0.850274
H352	H	1.027599	0.500065	1.350274
H353	H	0.493920	-0.042291	0.771940
H354	H	0.993920	0.457709	1.271940
H355	H	0.493956	0.042288	0.771823
H356	H	0.993956	0.542288	1.271823
H357	H	0.602387	-0.042249	0.778605
H358	H	1.102387	0.457751	1.278605
H359	H	0.602333	0.042329	0.778498
H360	H	1.102333	0.542329	1.278498
O361	O	0.572000	0.000049	0.241867
O362	O	1.072000	0.500049	0.741867
C363	C	0.483008	0.052398	0.249241
C364	C	0.983008	0.552398	0.749241
C365	C	0.540591	0.052347	0.218758
C366	C	1.040591	0.552347	0.718758
H367	H	0.457592	0.094670	0.230558
H368	H	0.957592	0.594670	0.730558
H369	H	0.491188	0.052436	0.309037
H370	H	0.991188	0.552436	0.809037
H371	H	0.457595	0.010093	0.230656
H372	H	0.957595	0.510093	0.730656
H373	H	0.566033	0.094645	0.237290
H374	H	1.066033	0.594645	0.737290
H375	H	0.532370	0.052277	0.158965
H376	H	1.032370	0.552277	0.658965
O377	O	-0.042092	0.108483	-0.087652
O378	O	0.457908	0.608483	0.412348
C379	C	0.018334	0.172454	-0.149167
C380	C	0.518334	0.672454	0.350833
C381	C	-0.014359	0.111865	-0.148651
C382	C	0.485641	0.611865	0.351349
H383	H	0.040755	0.175214	-0.198487
H384	H	0.540755	0.675214	0.301513
H385	H	0.051517	0.175220	-0.100743
H386	H	0.551517	0.675220	0.399257
H387	H	-0.013105	0.211808	-0.148672
H388	H	0.486895	0.711808	0.351328
H389	H	0.017036	0.072477	-0.149170
H390	H	0.517036	0.572477	0.350830
H391	H	-0.047550	0.109152	-0.197071
H392	H	0.452450	0.609152	0.302929
H393	H	0.764829	-0.000073	0.580987
H394	H	1.264829	0.499927	1.080987
H395	H	0.391901	0.099889	-0.093982
H396	H	0.891901	0.599889	0.406018
H397	H	0.610092	-0.850371	-0.014307
H398	H	1.110092	-0.350371	0.485693
O399	O	0.504300	0.108561	-0.095762
O400	O	1.004300	0.608561	0.404238
C401	C	0.515872	0.202747	-0.156500
C402	C	1.015872	0.702747	0.343500
C403	C	0.483190	0.142152	-0.155975
C404	C	0.983190	0.642152	0.344025
H405	H	0.498809	0.229928	-0.205169
H406	H	0.998809	0.729928	0.294831
H407	H	0.563428	0.193314	-0.157248
H408	H	1.063428	0.693314	0.342752
H409	H	0.509549	0.229879	-0.107434
H410	H	1.009549	0.729879	0.392566
H411	H	0.489466	0.114990	-0.205032
H412	H	0.989466	0.614990	0.294968
H413	H	0.435646	0.151627	-0.155191
H414	H	0.935646	0.651627	0.344809
O415	O	0.604624	-0.730086	-0.007661
O416	O	1.104624	-0.230086	0.492339
C417	C	0.536339	-0.736848	0.075931
C418	C	1.036339	-0.236848	0.575931
C419	C	0.574251	-0.771776	0.029588
C420	C	1.074251	-0.271776	0.529588
H421	H	0.511782	-0.770539	0.106070
H422	H	1.011782	-0.270539	0.606070
H423	H	0.504758	-0.707090	0.041420
H424	H	1.004758	-0.207090	0.541420
H425	H	0.564447	-0.707051	0.114650
H426	H	1.064447	-0.207051	0.614650
H427	H	0.546189	-0.801606	-0.009138
H428	H	1.046189	-0.301606	0.490862
H429	H	0.605836	-0.801496	0.064143
H430	H	1.105836	-0.301496	0.564143
H431	H	0.575649	-0.442406	0.027847
H432	H	1.075649	0.057594	0.527847
H433	H	0.734971	-0.149752	-0.167168
H434	H	1.234971	0.350248	0.332832
O435	O	0.570233	-0.562698	0.034533
O436	O	1.070233	-0.062698	0.534533
C437	C	0.501912	-0.556001	0.118082
C438	C	1.001912	-0.056001	0.618082
C439	C	0.539784	-0.521038	0.071698
C440	C	1.039784	-0.021038	0.571698
H441	H	0.477275	-0.522334	0.148131
H442	H	0.977275	-0.022334	0.648131
H443	H	0.529999	-0.585759	0.156871
H444	H	1.029999	-0.085759	0.656871
H445	H	0.470393	-0.585802	0.083540
H446	H	0.970393	-0.085802	0.583540
H447	H	0.571308	-0.491204	0.106184
H448	H	1.071308	0.008796	0.606184
H449	H	0.511661	-0.491319	0.032904
H450	H	1.011661	0.008681	0.532904
H451	H	0.610037	-0.265207	-0.014307
H452	H	1.110037	0.234793	0.485693
