data_functionalizedCrystal
_audit_creation_method	'MofGen! by Chris Wilmer'
_symmetry_space_group_name_H-M	'P1'
_symmetry_Int_Tables_number	1
_symmetry_cell_setting	triclinic
loop_
_symmetry_equiv_pos_as_xyz
  x,y,z
_cell_length_a	6.817900
_cell_length_b	11.168129
_cell_length_c	11.102193
_cell_angle_alpha	91.985940
_cell_angle_beta	108.604059
_cell_angle_gamma	108.508637
loop_
_atom_site_label
_atom_site_type_symbol
_atom_site_fract_x
_atom_site_fract_y
_atom_site_fract_z
V1	V	-4.111010	-0.174714	-0.396269
O2	O	-4.070572	0.008386	-0.388714
O3	O	-4.087291	-0.346419	-0.393569
O4	O	-4.087792	-0.172030	-0.569090
O5	O	-4.070067	-0.167210	-0.211978
V6	V	-4.588177	-0.152812	-0.374225
O7	O	-4.386211	-0.222756	-0.444624
O8	O	-4.763173	-0.104770	-0.325869
O9	O	-4.388689	0.018893	-0.376924
O10	O	-4.746011	-0.335913	-0.381779
O11	O	-4.746516	-0.160317	-0.558515
O12	O	-4.388188	-0.155496	-0.201403
C13	C	-3.937481	-0.388277	-0.387321
C14	C	-3.999542	-0.528648	-0.386266
C15	C	-3.970083	-0.574092	-0.275188
C16	C	-4.034226	-0.719172	-0.274095
C17	C	-3.938118	-0.165825	-0.611213
C18	C	-4.000582	-0.164768	-0.752496
C19	C	-4.120242	-0.396044	-0.788837
C20	C	-4.209409	-0.511180	-0.873381
C21	C	-4.268098	-0.510179	-1.006127
C22	C	-4.237621	-0.394030	-1.054330
C23	C	-4.148455	-0.278894	-0.969787
C24	C	-4.089765	-0.279907	-0.837040
C25	C	-4.028810	-0.047620	-0.933446
C26	C	-3.970105	-0.048618	-0.800699
C27	C	-3.998333	0.068529	-0.981650
C28	C	-3.909150	0.183669	-0.897106
C29	C	-3.850458	0.182663	-0.764353
C30	C	-3.880938	0.066518	-0.716156
C31	C	-4.201841	0.060744	-0.383169
C32	C	-4.119019	0.201114	-0.384232
C33	C	-4.201203	-0.161705	-0.159273
C34	C	-4.117977	-0.162756	-0.017990
H35	H	-4.144130	-0.759748	-0.479336
H36	H	-3.833142	0.065688	-0.608069
H37	H	-4.285441	-0.393226	-1.162422
O38	O	-3.883602	-0.492259	-0.162792
C39	C	-3.922973	-0.328438	-0.035021
C40	C	-4.021124	-0.421028	-0.162379
H41	H	-4.034140	-0.270842	-0.034634
H42	H	-3.751498	-0.260769	-0.024866
H43	H	-3.910686	-0.385233	0.048770
H44	H	-4.033561	-0.364337	-0.246244
H45	H	-4.192538	-0.488698	-0.172421
H46	H	-4.072256	-0.597150	-0.480555
O47	O	-4.238413	-0.623893	-0.826360
C48	C	-4.066235	-0.752903	-0.691156
C49	C	-4.033189	-0.625259	-0.744407
H50	H	-3.900347	-0.754039	-0.624865
H51	H	-4.139867	-0.835171	-0.774221
H52	H	-4.183009	-0.763961	-0.634886
H53	H	-3.916376	-0.614077	-0.800660
H54	H	-3.959663	-0.543055	-0.661286
O55	O	-4.354606	-0.622132	-1.088076
C56	C	-4.467238	-0.851643	-1.110134
C57	C	-4.369196	-0.724951	-1.017182
H58	H	-4.479109	-0.934807	-1.052855
H59	H	-4.356439	-0.852193	-1.168201
H60	H	-4.638912	-0.861719	-1.178181
H61	H	-4.197543	-0.714793	-0.949057
H62	H	-4.480152	-0.724457	-0.959207
O63	O	-3.763909	0.294390	-0.682056
C64	C	-3.620347	0.395359	-0.461448
C65	C	-3.718382	0.268732	-0.554500
H66	H	-3.583467	0.374660	-0.358299
H67	H	-3.743644	0.447742	-0.483463
H68	H	-3.461195	0.457432	-0.473702
H69	H	-3.877509	0.206560	-0.542298
H70	H	-3.594940	0.216448	-0.532461
H71	H	-4.009098	-0.758318	-0.178995
H72	H	-4.072429	-0.396870	-0.680750
H73	H	-4.046142	0.069336	-1.089741
H74	H	-3.884359	0.278228	-0.936366
