data_functionalizedCrystal
_audit_creation_method	'MofGen! by Chris Wilmer'
_symmetry_space_group_name_H-M	'P1'
_symmetry_Int_Tables_number	1
_symmetry_cell_setting	triclinic
loop_
_symmetry_equiv_pos_as_xyz
  x,y,z
_cell_length_a	17.077404
_cell_length_b	10.686285
_cell_length_c	17.077395
_cell_angle_alpha	85.609671
_cell_angle_beta	89.985498
_cell_angle_gamma	85.629649
loop_
_atom_site_label
_atom_site_type_symbol
_atom_site_fract_x
_atom_site_fract_y
_atom_site_fract_z
Zn1	Zn	1.224091	-0.502431	-0.419906
Zn2	Zn	1.724091	-0.002431	0.080094
Zn3	Zn	1.234114	-0.713447	-0.278597
Zn4	Zn	1.734114	-0.213447	0.221403
Zn5	Zn	1.092833	-0.502463	-0.288655
Zn6	Zn	1.592833	-0.002463	0.211345
Zn7	Zn	1.102894	-0.713368	-0.409827
Zn8	Zn	1.602894	-0.213368	0.090173
O9	O	1.163483	-0.607927	-0.349246
O10	O	1.663483	-0.107927	0.150754
O11	O	1.335268	-0.530443	-0.401170
O12	O	1.835268	-0.030443	0.098830
O13	O	1.215357	-0.685505	-0.170082
O14	O	1.715357	-0.185505	0.329918
O15	O	1.101839	-0.325883	-0.314493
O16	O	1.601839	0.174117	0.185507
O17	O	1.342632	-0.685475	-0.297350
O18	O	1.842632	-0.185475	0.202650
O19	O	1.198273	-0.325860	-0.410923
O20	O	1.698273	0.174140	0.089077
O21	O	1.111558	-0.530496	-0.177472
O22	O	1.611558	-0.030496	0.322528
O23	O	0.984320	-0.530420	-0.304720
O24	O	1.484320	-0.030420	0.195280
O25	O	1.118987	-0.685341	-0.521013
O26	O	1.618987	-0.185341	-0.021013
O27	O	0.991712	-0.685371	-0.393744
O28	O	1.491712	-0.185371	0.106256
O29	O	1.208030	-0.530367	-0.528418
O30	O	1.708030	-0.030367	-0.028418
O31	O	1.225113	-0.890012	-0.287577
O32	O	1.725113	-0.390012	0.212423
O33	O	1.128706	-0.889954	-0.383991
O34	O	1.628706	-0.389954	0.116009
C35	C	0.959533	-0.607891	-0.349230
C36	C	1.459533	-0.107891	0.150770
C37	C	0.872284	-0.607907	-0.349241
C38	C	1.372284	-0.107907	0.150759
C39	C	0.827467	-0.527325	-0.403369
C40	C	1.327467	-0.027325	0.096631
C41	C	0.745487	-0.527333	-0.403372
C42	C	1.245487	-0.027333	0.096628
C43	C	0.708326	-0.607930	-0.349250
C44	C	1.208326	-0.107930	0.150750
C45	C	0.753149	-0.688515	-0.295116
C46	C	1.253149	-0.188515	0.204884
C47	C	0.835127	-0.688500	-0.295110
C48	C	1.335127	-0.188500	0.204890
C49	C	0.582280	-0.688544	-0.295134
C50	C	1.082280	-0.188544	0.204866
C51	C	0.500296	-0.688562	-0.295141
C52	C	1.000296	-0.188562	0.204859
C53	C	0.492640	-0.527377	-0.403397
C54	C	0.992640	-0.027377	0.096603
C55	C	0.574618	-0.527362	-0.403390
C56	C	1.074618	-0.027362	0.096610
C57	C	0.619436	-0.607949	-0.349257
C58	C	1.119436	-0.107949	0.150743
C59	C	1.179110	-0.935767	-0.333616
C60	C	1.679110	-0.435767	0.166384
C61	C	1.185868	-1.076019	-0.326956
C62	C	1.685868	-0.576019	0.173044
C63	C	1.368229	-0.607964	-0.349262
C64	C	1.868229	-0.107964	0.150738
C65	C	1.455479	-0.607980	-0.349269
C66	C	1.955479	-0.107980	0.150731
C67	C	1.163512	-0.607842	-0.553995
C68	C	1.663512	-0.107842	-0.053995
C69	C	1.163525	-0.607805	-0.641246
C70	C	1.663525	-0.107805	-0.141246
C71	C	1.147816	-0.278807	-0.364954
C72	C	1.647816	0.221193	0.135046
C73	C	1.141139	-0.138556	-0.371648
C74	C	1.641139	0.361444	0.128352
C75	C	1.209968	-0.526939	-1.020926
C76	C	1.709968	-0.026939	-0.520926
C77	C	1.209954	-0.526983	-0.938943
C78	C	1.709954	-0.026983	-0.438943
C79	C	1.163584	-0.607686	-0.894101
C80	C	1.663584	-0.107686	-0.394101
C81	C	1.117230	-0.688359	-0.931244
C82	C	1.617230	-0.188359	-0.431244
C83	C	1.117249	-0.688320	-1.013225
C84	C	1.617249	-0.188320	-0.513225
C85	C	1.117193	-0.688432	-0.760371
C86	C	1.617193	-0.188432	-0.260371
C87	C	1.117173	-0.688469	-0.678384
C88	C	1.617173	-0.188469	-0.178384
C89	C	1.209899	-0.527095	-0.686089
C90	C	1.709899	-0.027095	-0.186089
C91	C	1.209917	-0.527056	-0.768070
C92	C	1.709917	-0.027056	-0.268070
C93	C	1.163562	-0.607727	-0.805208
C94	C	1.663562	-0.107727	-0.305208
C95	C	1.163494	-0.607922	-0.145299
C96	C	1.663494	-0.107922	0.354701
C97	C	1.163617	-0.607603	-0.058064
C98	C	1.663617	-0.107603	0.441936
H99	H	0.871616	-0.754117	-0.251032
H100	H	1.371616	-0.254117	0.248968
H101	H	0.722885	-0.754133	-0.251045
H102	H	1.222885	-0.254133	0.248955
F103	F	1.067881	-0.774252	-0.883517
F104	F	1.567881	-0.274252	-0.383517
H105	H	0.709000	-0.461718	-0.447451
H106	H	1.209000	0.038282	0.052549
H107	H	1.097677	-1.084801	-0.415008
H108	H	1.597677	-0.584801	0.084992
H109	H	1.229328	-1.129781	-0.283588
H110	H	1.729328	-0.629781	0.216412
H111	H	1.247641	-0.461406	-0.655847
H112	H	1.747641	0.038594	-0.155847
F113	F	0.614167	-0.441591	-0.460999
F114	F	1.114167	0.058409	0.039001
H115	H	1.079506	-0.754006	-1.043462
H116	H	1.579506	-0.254006	-0.543462
F117	F	1.259315	-0.441030	-1.068644
F118	F	1.759315	0.058970	-0.568644
F119	F	0.444942	-0.441607	-0.461008
F120	F	0.944942	0.058393	0.038992
H121	H	1.079449	-0.754127	-0.790606
H122	H	1.579449	-0.254127	-0.290606
H123	H	0.470042	-0.754192	-0.251070
H124	H	0.970042	-0.254192	0.248930
F125	F	1.259289	-0.441130	-0.899422
F126	F	1.759289	0.058870	-0.399422
H127	H	1.079395	-0.754155	-0.641877
H128	H	1.579395	-0.254155	-0.141877
F129	F	0.867010	-0.441546	-0.460978
F130	F	1.367010	0.058454	0.039022
F131	F	0.629977	-0.774320	-0.237522
F132	F	1.129977	-0.274320	0.262478
H133	H	1.247673	-0.461335	-0.804579
H134	H	1.747673	0.038665	-0.304579
