data_functionalizedCrystal
_audit_creation_method	'MofGen! by Chris Wilmer'
_symmetry_space_group_name_H-M	'P1'
_symmetry_Int_Tables_number	1
_symmetry_cell_setting	triclinic
loop_
_symmetry_equiv_pos_as_xyz
  x,y,z
_cell_length_a	10.654562
_cell_length_b	10.540539
_cell_length_c	9.730223
_cell_angle_alpha	90.000775
_cell_angle_beta	89.996961
_cell_angle_gamma	84.507798
loop_
_atom_site_label
_atom_site_type_symbol
_atom_site_fract_x
_atom_site_fract_y
_atom_site_fract_z
O1	O	1.667887	0.178372	-0.114373
O2	O	1.302417	0.195342	-0.114356
O3	O	1.493490	0.002148	-0.114363
O4	O	1.476814	0.371566	-0.114366
O5	O	1.493488	0.002153	0.114217
O6	O	1.302415	0.195347	0.114224
O7	O	1.667885	0.178377	0.114207
Zn8	Zn	1.485150	0.186863	0.150507
Zn9	Zn	1.485153	0.186856	-0.150656
O10	O	1.476812	0.371571	0.114214
C11	C	1.255618	0.194095	-0.000063
C12	C	1.116174	0.190357	-0.000057
C13	C	1.050641	0.188616	0.124531
C14	C	0.919618	0.185114	0.124508
C15	C	0.919670	0.185099	-0.124702
C16	C	1.050693	0.188592	-0.124678
C17	C	1.116123	0.190381	0.249152
C18	C	1.050590	0.188642	0.373750
C19	C	0.919566	0.185140	0.373728
C20	C	0.854076	0.183377	0.249106
C21	C	1.492239	-0.045152	-0.000076
C22	C	1.488497	-0.186099	-0.000083
C23	C	1.345126	-0.369481	-0.000589
C24	C	1.348919	-0.222864	-0.000075
C25	C	1.555667	-0.247775	0.130444
C26	C	1.550903	-0.394318	0.130555
C27	C	1.553744	-0.394843	-0.129384
C28	C	1.555030	-0.247861	-0.131110
C29	C	1.714685	0.179624	-0.000089
C30	C	1.854128	0.183362	-0.000104
C31	C	1.478064	0.418871	-0.000076
C32	C	1.481805	0.559818	-0.000078
N33	N	1.485157	0.186866	0.356044
N34	N	1.485155	0.186843	-0.356193
C35	C	1.569786	0.101349	0.427967
C36	C	1.569783	0.101334	0.571850
C37	C	1.400517	0.272364	0.571874
C38	C	1.400515	0.272372	0.427994
C39	C	1.654428	0.015843	0.356016
C40	C	1.739065	-0.069680	0.427939
C41	C	1.739061	-0.069695	0.571822
C42	C	1.654421	0.015813	0.643782
H43	H	0.866214	0.183713	0.475181
O44	O	1.830327	-0.161913	0.350316
H45	H	1.928379	-0.144835	0.377924
H46	H	1.658169	-0.225453	0.135293
O47	O	1.309247	0.364613	0.350404
H48	H	1.250405	0.424084	0.424605
H49	H	0.747388	0.180522	0.249098
H50	H	1.295694	-0.181089	0.093653
O51	O	1.493871	-0.191327	0.259123
H52	H	1.393086	-0.209928	0.260421
O53	O	1.830354	-0.161927	0.649392
H54	H	1.813494	-0.261043	0.621757
O55	O	1.257441	0.194153	0.249172
H56	H	1.291969	0.195078	0.356756
H57	H	1.654441	0.015851	0.238860
H58	H	1.654417	0.015784	0.760942
O59	O	1.493910	-0.436604	-0.260439
H60	H	1.412220	-0.490148	-0.234869
O61	O	1.121381	0.190451	-0.259057
H62	H	1.223492	0.193154	-0.238100
O63	O	1.121214	0.190545	0.508160
H64	H	1.223330	0.193287	0.487249
H65	H	1.289991	-0.398066	-0.094192
O66	O	1.490032	-0.193622	-0.259030
H67	H	1.410675	-0.122963	-0.229429
H68	H	0.866337	0.183667	-0.226163
H69	H	1.296067	-0.180246	-0.093641
H70	H	1.290213	-0.399669	0.092495
O71	O	1.485133	-0.431664	0.259792
H72	H	1.457017	-0.345092	0.321620
H73	H	1.656793	-0.223672	-0.138997
H74	H	1.651285	-0.442318	0.136471
O75	O	1.687284	-0.457444	-0.130576
H76	H	1.702407	-0.520550	-0.039575
O77	O	1.309243	0.364601	0.649479
H78	H	1.323473	0.350238	0.761611
