data_functionalizedCrystal
_audit_creation_method	'MofGen! by Chris Wilmer'
_symmetry_space_group_name_H-M	'P1'
_symmetry_Int_Tables_number	1
_symmetry_cell_setting	triclinic
loop_
_symmetry_equiv_pos_as_xyz
  x,y,z
_cell_length_a	10.723024
_cell_length_b	10.723024
_cell_length_c	8.140239
_cell_angle_alpha	89.997644
_cell_angle_beta	89.997577
_cell_angle_gamma	84.467869
loop_
_atom_site_label
_atom_site_type_symbol
_atom_site_fract_x
_atom_site_fract_y
_atom_site_fract_z
O1	O	1.657185	0.175025	-0.136598
O2	O	2.157185	0.675025	0.363402
O3	O	1.294033	0.191779	-0.136603
O4	O	1.794033	0.691779	0.363397
O5	O	1.483986	0.001826	-0.136595
O6	O	1.983986	0.501826	0.363405
O7	O	1.467233	0.364978	-0.136607
O8	O	1.967233	0.864978	0.363393
O9	O	1.483975	0.001824	0.136632
O10	O	1.983975	0.501824	0.636632
O11	O	1.294023	0.191776	0.136624
O12	O	1.794023	0.691776	0.636624
O13	O	1.657175	0.175023	0.136629
O14	O	2.157175	0.675023	0.636629
Zn15	Zn	1.475597	0.183399	0.180007
Zn16	Zn	1.975597	0.683399	0.680007
Zn17	Zn	1.475611	0.183402	-0.179982
Zn18	Zn	1.975611	0.683402	0.320018
O19	O	1.467222	0.364976	0.136620
O20	O	1.967222	0.864976	0.636620
C21	C	1.247528	0.190558	0.000009
C22	C	1.747528	0.690558	0.500009
C23	C	1.108974	0.186911	0.000007
C24	C	1.608974	0.686911	0.500007
C25	C	0.917217	0.073603	0.000008
C26	C	1.417217	0.573603	0.500008
C27	C	1.060420	0.077371	0.000010
C28	C	1.560420	0.577371	0.500010
C29	C	1.482762	-0.044675	0.000017
C30	C	1.982762	0.455325	0.500017
C31	C	1.479114	-0.183229	0.000011
C32	C	1.979114	0.316771	0.500011
C33	C	1.585401	-0.258212	0.000010
C34	C	2.085401	0.241788	0.500010
C35	C	1.581634	-0.401415	0.000004
C36	C	2.081634	0.098585	0.500004
C37	C	1.703680	0.176243	0.000012
C38	C	2.203680	0.676243	0.500012
C39	C	1.842234	0.179891	0.000004
C40	C	2.342234	0.679891	0.500004
C41	C	1.468447	0.411477	0.000005
C42	C	1.968447	0.911477	0.500005
C43	C	1.472094	0.550031	-0.000000
C44	C	1.972094	1.050031	0.500000
N45	N	1.475597	0.183397	0.425689
N46	N	1.975597	0.683397	0.925689
N47	N	1.475621	0.183395	-0.425664
N48	N	1.975621	0.683395	0.074336
H49	H	0.884056	0.273677	0.000010
H50	H	1.384056	0.773677	0.500010
H51	H	1.679187	-0.216390	0.000022
H52	H	2.179187	0.283610	0.500022
H53	H	1.381099	-0.385544	0.000012
H54	H	1.881099	0.114456	0.500012
H55	H	1.124853	-0.013619	0.000004
H56	H	1.624853	0.486381	0.500004
H57	H	1.672624	-0.465848	0.000011
H58	H	2.172624	0.034152	0.500011
H59	H	1.044549	0.277906	-0.000003
H60	H	1.544549	0.777906	0.499997
O61	O	1.354876	-0.238614	0.000024
O62	O	1.854876	0.261386	0.500024
H63	H	1.347962	-0.297281	-0.111333
H64	H	1.847962	0.202719	0.388667
H65	H	0.875395	-0.020182	0.000036
H66	H	1.375395	0.479818	0.500036
