data_functionalizedCrystal
_audit_creation_method	'MofGen! by Chris Wilmer'
_symmetry_space_group_name_H-M	'P1'
_symmetry_Int_Tables_number	1
_symmetry_cell_setting	triclinic
loop_
_symmetry_equiv_pos_as_xyz
  x,y,z
_cell_length_a	10.723023
_cell_length_b	9.798715
_cell_length_c	10.723023
_cell_angle_alpha	89.997861
_cell_angle_beta	95.532452
_cell_angle_gamma	90.003551
loop_
_atom_site_label
_atom_site_type_symbol
_atom_site_fract_x
_atom_site_fract_y
_atom_site_fract_z
O1	O	1.657187	0.113484	-0.175020
O2	O	2.157187	0.613484	0.324980
O3	O	1.294035	0.113487	-0.191774
O4	O	1.794035	0.613487	0.308226
O5	O	1.483988	0.113480	-0.001821
O6	O	1.983988	0.613480	0.498179
O7	O	1.467234	0.113491	-0.364973
O8	O	1.967234	0.613491	0.135027
O9	O	1.483974	-0.113502	-0.001820
O10	O	1.983974	0.386498	0.498180
O11	O	1.294021	-0.113495	-0.191774
O12	O	1.794021	0.386505	0.308226
O13	O	1.657173	-0.113498	-0.175019
O14	O	2.157173	0.386502	0.324981
Zn15	Zn	1.475595	-0.149535	-0.183396
Zn16	Zn	1.975595	0.350465	0.316604
Zn17	Zn	1.475613	0.149524	-0.183397
Zn18	Zn	1.975613	0.649524	0.316603
O19	O	1.467220	-0.113491	-0.364973
O20	O	1.967220	0.386509	0.135027
C21	C	1.247528	-0.000003	-0.190555
C22	C	1.747528	0.499997	0.309445
C23	C	1.108974	-0.000002	-0.186908
C24	C	1.608974	0.499998	0.313092
C25	C	0.903998	-0.117581	-0.181512
C26	C	1.403998	0.382419	0.318488
C27	C	1.047202	-0.117585	-0.185281
C28	C	1.547202	0.382415	0.314719
N29	N	1.475591	-0.353635	-0.183395
N30	N	1.975591	0.146365	0.316605
C31	C	1.555347	-0.421414	-0.103288
C32	C	2.055347	0.078586	0.396712
C33	C	1.555367	-0.578577	-0.103283
C34	C	2.055367	-0.078577	0.396717
C35	C	1.703680	-0.000004	-0.176239
C36	C	2.203680	0.499996	0.323761
C37	C	1.842234	0.000003	-0.179886
C38	C	2.342234	0.500003	0.320114
C39	C	1.482762	-0.000010	0.044679
C40	C	1.982762	0.499990	0.544679
C41	C	1.479115	-0.000005	0.183233
C42	C	1.979115	0.499995	0.683233
N43	N	1.475627	0.353624	-0.183388
N44	N	1.975627	0.853624	0.316612
C45	C	1.468446	0.000002	-0.411473
C46	C	1.968446	0.500002	0.088527
C47	C	1.472093	0.000006	-0.550027
C48	C	1.972093	0.500006	-0.050027
C49	C	1.477496	0.117580	0.244999
C50	C	1.977496	0.617580	0.744999
C51	C	1.473727	0.117587	0.388202
C52	C	1.973727	0.617587	0.888202
H53	H	0.895372	0.100668	-0.181292
H54	H	1.395372	0.600668	0.318708
H55	H	1.100318	-0.218253	-0.186674
H56	H	1.600318	0.281747	0.313326
H57	H	0.850859	-0.218246	-0.180120
H58	H	1.350859	0.281754	0.319880
H59	H	1.407319	-0.411956	-0.251971
H60	H	1.907319	0.088044	0.248029
H61	H	1.623611	-0.363094	-0.034702
H62	H	2.123611	0.136906	0.465298
H63	H	1.477702	-0.100669	0.236370
H64	H	1.977702	0.399331	0.736370
H65	H	1.478896	0.218244	0.191861
H66	H	1.978896	0.718244	0.691861
H67	H	1.623655	-0.636865	-0.034704
H68	H	2.123655	-0.136865	0.465296
H69	H	1.407345	-0.588097	-0.251980
H70	H	1.907345	-0.088097	0.248020
H71	H	1.472341	0.218257	0.441320
H72	H	1.972341	0.718257	0.941320
H73	H	1.055866	0.100671	-0.185506
H74	H	1.555866	0.600671	0.314494
H75	H	1.473491	-0.100668	0.396865
H76	H	1.973491	0.399332	0.896865
