data_functionalizedCrystal
_audit_creation_method	'MofGen! by Chris Wilmer'
_symmetry_space_group_name_H-M	'P1'
_symmetry_Int_Tables_number	1
_symmetry_cell_setting	triclinic
loop_
_symmetry_equiv_pos_as_xyz
  x,y,z
_cell_length_a	12.759401
_cell_length_b	12.759394
_cell_length_c	12.759393
_cell_angle_alpha	90.030600
_cell_angle_beta	90.018496
_cell_angle_gamma	90.014017
loop_
_atom_site_label
_atom_site_type_symbol
_atom_site_fract_x
_atom_site_fract_y
_atom_site_fract_z
Zn1	Zn	1.606262	-0.418200	0.593988
Zn2	Zn	1.606158	-0.593919	0.418311
Zn3	Zn	1.430564	-0.418255	0.418328
Zn4	Zn	1.430555	-0.593838	0.593953
O5	O	1.518385	-0.506053	0.506145
O6	O	1.753269	-0.441520	0.570692
O7	O	1.582826	-0.570674	0.271293
O8	O	1.453917	-0.271227	0.441651
O9	O	1.753193	-0.570620	0.441623
O10	O	1.583002	-0.271186	0.570708
O11	O	1.453817	-0.441614	0.271305
O12	O	1.283541	-0.441536	0.441617
O13	O	1.453902	-0.570482	0.740979
O14	O	1.283535	-0.570536	0.570648
O15	O	1.582993	-0.441442	0.741005
O16	O	1.582817	-0.740929	0.441589
O17	O	1.453802	-0.740870	0.570632
C18	C	1.245417	-0.506034	0.506131
C19	C	1.128641	-0.506051	0.506150
C20	C	1.073803	-0.573329	0.573225
C21	C	0.964079	-0.573342	0.573236
C22	C	0.964040	-0.438796	0.439088
C23	C	1.073762	-0.438779	0.439083
C24	C	1.073824	-0.651011	0.650671
C25	C	0.964100	-0.651024	0.650683
C26	C	1.518326	-0.779021	0.506128
C27	C	1.518397	-0.895797	0.506156
C28	C	1.652713	-0.895597	0.640643
C29	C	1.719903	-0.950358	0.707895
C30	C	1.719966	-1.060079	0.707918
C31	C	1.652828	-1.115043	0.640684
C32	C	1.585637	-1.060282	0.573432
C33	C	1.585584	-0.950558	0.573414
C34	C	1.451318	-1.060482	0.438951
C35	C	1.451260	-0.950761	0.438921
C36	C	1.384181	-1.115446	0.371717
C37	C	1.316994	-1.060685	0.304458
C38	C	1.316935	-0.950957	0.304437
C39	C	1.384069	-0.896000	0.371669
C40	C	1.792418	-0.506073	0.506160
C41	C	1.909194	-0.506082	0.506166
C42	C	1.518458	-0.505947	0.780179
C43	C	1.518489	-0.505902	0.896955
C44	C	1.518472	-0.232020	0.506186
C45	C	1.518509	-0.115243	0.506203
C46	C	1.518372	-0.506083	0.233178
C47	C	1.518544	-0.505832	0.116402
C48	C	1.585716	-0.438704	0.951833
C49	C	1.585741	-0.438666	1.061557
C50	C	1.451310	-0.573033	1.061517
C51	C	1.451280	-0.573065	0.951795
C52	C	1.663333	-0.361132	0.951857
C53	C	1.663358	-0.361094	1.061581
H54	H	0.919345	-0.384025	0.384486
C55	C	0.923842	-0.760912	0.621051
H56	H	0.981743	-0.806092	0.608845
H57	H	0.882504	-0.788019	0.676697
H58	H	0.882455	-0.756413	0.559312
H59	H	1.641563	-0.279767	0.922099
C60	C	1.134085	-0.364764	0.365314
H61	H	1.207292	-0.374379	0.374921
H62	H	1.116079	-0.380046	0.294695
H63	H	1.116112	-0.294194	0.380831
H64	H	1.396588	-0.627712	1.106180
C65	C	1.793877	-1.120318	0.781888
H66	H	1.833857	-1.071874	0.821923
H67	H	1.753693	-1.163124	0.827639
H68	H	1.839696	-1.163108	0.741728
C69	C	1.119789	-0.755368	0.611126
H70	H	1.194151	-0.751796	0.612465
H71	H	1.096811	-0.810856	0.655094
H72	H	1.096776	-0.767824	0.541405
C73	C	0.918163	-0.611790	0.755172
H74	H	0.973632	-0.594316	0.801699
H75	H	0.876260	-0.551524	0.742796
H76	H	0.876266	-0.665340	0.785490
H77	H	1.652678	-0.806256	0.640622
H78	H	1.740605	-0.390300	0.917821
H79	H	1.634243	-0.283785	1.095627
H80	H	1.744729	-0.382886	1.091360
H81	H	1.103632	-0.629311	0.732078
C82	C	1.243147	-1.121139	0.230513
H83	H	1.203119	-1.072814	0.190457
H84	H	1.283376	-1.163953	0.184780
H85	H	1.197370	-1.163939	0.270688
C86	C	1.793753	-0.889897	0.781844
H87	H	1.784103	-0.816708	0.772194
H88	H	1.778360	-0.907838	0.852427
H89	H	1.864362	-0.907837	0.766514
H90	H	1.384232	-1.204787	0.371744
C91	C	1.652894	-1.235733	0.640713
H92	H	1.702527	-1.260474	0.690393
H93	H	1.585100	-1.260595	0.658830
H94	H	1.671115	-1.260589	0.572931
H95	H	1.262216	-0.906376	0.249677
C96	C	1.384002	-0.775310	0.371656
H97	H	1.433601	-0.750423	0.421335
H98	H	1.402181	-0.750512	0.303870
H99	H	1.316177	-0.750536	0.389780
C100	C	1.377311	-0.646962	0.891433
H101	H	1.337293	-0.686957	0.939810
H102	H	1.331545	-0.606765	0.848643
H103	H	1.417463	-0.692768	0.848616
