data_functionalizedCrystal
_audit_creation_method	'MofGen! by Chris Wilmer'
_symmetry_space_group_name_H-M	'P1'
_symmetry_Int_Tables_number	1
_symmetry_cell_setting	triclinic
loop_
_symmetry_equiv_pos_as_xyz
  x,y,z
_cell_length_a	10.967926
_cell_length_b	11.026607
_cell_length_c	7.540329
_cell_angle_alpha	90.001604
_cell_angle_beta	77.872368
_cell_angle_gamma	96.380754
loop_
_atom_site_label
_atom_site_type_symbol
_atom_site_fract_x
_atom_site_fract_y
_atom_site_fract_z
O1	O	1.693968	0.170511	-0.370250
O2	O	1.334343	0.186835	-0.260335
O3	O	1.484350	0.001772	-0.306189
O4	O	1.543961	0.355574	-0.324396
O5	O	1.484343	0.001771	-0.601152
O6	O	1.334336	0.186833	-0.555298
O7	O	1.693961	0.170510	-0.665213
Cu8	Cu	1.514148	0.178672	-0.637188
Cu9	Cu	1.514156	0.178673	-0.288360
O10	O	1.543954	0.355573	-0.619359
C11	C	1.287584	0.185647	-0.393526
C12	C	1.148265	0.182093	-0.350945
C13	C	1.086148	0.180509	-0.484760
C14	C	0.942154	0.176836	-0.440753
C15	C	1.473350	-0.043531	-0.450308
C16	C	1.440567	-0.178518	-0.440282
C17	C	1.531086	-0.251570	-0.467945
C18	C	1.497205	-0.391087	-0.457583
C19	C	1.740720	0.171698	-0.532018
C20	C	1.880040	0.175251	-0.574588
C21	C	1.554955	0.400876	-0.475237
C22	C	1.587738	0.535863	-0.485251
N23	N	1.514151	0.178670	-0.882537
N24	N	1.514161	0.178665	-0.043013
H25	H	0.933456	0.176609	-0.721742
H26	H	0.888736	0.175471	-0.293600
H27	H	1.094842	0.180728	-0.203801
C28	C	1.358616	-0.446110	-0.415221
C29	C	1.271523	-0.417620	-0.541770
C30	C	1.132937	-0.472645	-0.499409
C31	C	1.081443	-0.556160	-0.330499
C32	C	1.168536	-0.584655	-0.203939
C33	C	1.307123	-0.529630	-0.246300
H34	H	1.309641	-0.355793	-0.666818
H35	H	1.068465	-0.451551	-0.593099
H36	H	0.978853	-0.596893	-0.299141
H37	H	1.130418	-0.646482	-0.078892
H38	H	1.371595	-0.550724	-0.152611
H39	H	1.633665	-0.210825	-0.499308
C40	C	1.726329	-0.409120	-0.527613
C41	C	1.777829	-0.325607	-0.696525
C42	C	1.916418	-0.270590	-0.738886
C43	C	2.003508	-0.299086	-0.612336
C44	C	1.952010	-0.382603	-0.443414
C45	C	1.813420	-0.437620	-0.401052
H46	H	1.713359	-0.304508	-0.790215
H47	H	1.954540	-0.208765	-0.863935
H48	H	2.106100	-0.258360	-0.643695
H49	H	2.016480	-0.403702	-0.349724
H50	H	1.775298	-0.499445	-0.276004
H51	H	1.139570	0.181864	-0.631903
H52	H	1.337988	-0.219263	-0.408918
