data_functionalizedCrystal
_audit_creation_method	'MofGen! by Chris Wilmer'
_symmetry_space_group_name_H-M	'P1'
_symmetry_Int_Tables_number	1
_symmetry_cell_setting	triclinic
loop_
_symmetry_equiv_pos_as_xyz
  x,y,z
_cell_length_a	16.120530
_cell_length_b	16.120297
_cell_length_c	19.077068
_cell_angle_alpha	84.954538
_cell_angle_beta	90.462149
_cell_angle_gamma	90.128140
loop_
_atom_site_label
_atom_site_type_symbol
_atom_site_fract_x
_atom_site_fract_y
_atom_site_fract_z
Zn1	Zn	1.229633	-0.550594	0.356500
Zn2	Zn	1.729633	-0.050594	0.856500
Zn3	Zn	1.230988	-0.416574	0.468520
Zn4	Zn	1.730988	0.083426	0.968520
Zn5	Zn	1.098217	-0.403978	0.344610
Zn6	Zn	1.598217	0.096022	0.844610
Zn7	Zn	1.084977	-0.548514	0.467872
Zn8	Zn	1.584977	-0.048514	0.967872
O9	O	1.160954	-0.479915	0.409375
O10	O	1.660954	0.020085	0.909375
O11	O	1.345917	-0.538958	0.376608
O12	O	1.845917	-0.038958	0.876608
O13	O	1.219484	-0.298326	0.447378
O14	O	1.719484	0.201674	0.947378
O15	O	1.120623	-0.419026	0.247720
O16	O	1.620623	0.080974	0.747720
O17	O	1.346912	-0.440494	0.458908
O18	O	1.846912	0.059506	0.958908
O19	O	1.217174	-0.526745	0.256457
O20	O	1.717174	-0.026745	0.756457
O21	O	1.121938	-0.289072	0.356341
O22	O	1.621938	0.210928	0.856341
O23	O	0.980356	-0.417009	0.355713
O24	O	1.480356	0.082991	0.855713
O25	O	1.098057	-0.665367	0.457803
O26	O	1.598057	-0.165367	0.957803
O27	O	0.970629	-0.523199	0.446273
O28	O	1.470629	-0.023199	0.946273
O29	O	1.204335	-0.666895	0.375979
O30	O	1.704335	-0.166895	0.875979
O31	O	1.206645	-0.438476	0.566900
O32	O	1.706645	0.061524	1.066900
O33	O	1.099371	-0.535412	0.566424
O34	O	1.599371	-0.035412	1.066424
C35	C	0.945388	-0.468511	0.399633
C36	C	1.445388	0.031489	0.899633
C37	C	0.853166	-0.463654	0.395483
C38	C	1.353166	0.036346	0.895483
C39	C	0.684316	-0.454791	0.387890
C40	C	1.184316	0.045209	0.887890
C41	C	0.638426	-0.505102	0.430915
C42	C	1.138426	-0.005102	0.930915
C43	C	0.544472	-0.500171	0.426690
C44	C	1.044472	-0.000171	0.926690
C45	C	0.778279	-0.459721	0.392114
C46	C	1.278279	0.040279	0.892114
C47	C	1.149568	-0.697203	0.418145
C48	C	1.649568	-0.197203	0.918145
C49	C	1.144717	-0.789799	0.421883
C50	C	1.644717	-0.289799	0.921883
C51	C	1.135829	-0.959329	0.428689
C52	C	1.635829	-0.459329	0.928689
C53	C	1.186252	-1.001351	0.389859
C54	C	1.686252	-0.501351	0.889859
C55	C	1.181307	-1.095684	0.393646
C56	C	1.681307	-0.595684	0.893646
C57	C	1.140773	-0.864988	0.424903
C58	C	1.640773	-0.364988	0.924903
C59	C	1.377361	-0.491363	0.419156
C60	C	1.877361	0.008637	0.919156
C61	C	1.469580	-0.496242	0.423324
C62	C	1.969580	0.003758	0.923324
C63	C	1.151740	-0.488105	0.592195
C64	C	1.651740	0.011895	1.092195
C65	C	1.147873	-0.491640	0.670411
C66	C	1.647873	0.008360	1.170411
C67	C	1.172345	-0.263472	0.400591
C68	C	1.672345	0.236528	0.900591
C69	C	1.177367	-0.170877	0.396663
C70	C	1.677367	0.329123	0.896663
C71	C	1.170224	-0.471712	0.225843
C72	C	1.670224	0.028288	0.725843
C73	C	1.174175	-0.468217	0.147633
C74	C	1.674175	0.031783	0.647633
C75	C	1.201947	-0.442878	0.707385
C76	C	1.701947	0.057122	1.207385
C77	C	1.198314	-0.446209	0.780877
C78	C	1.698314	0.053791	1.280877
C79	C	1.140603	-0.498297	0.817394
C80	C	1.640603	0.001703	1.317394
C81	C	1.086527	-0.547065	0.780415
C82	C	1.586527	-0.047065	1.280415
C83	C	1.090164	-0.543738	0.706924
C84	C	1.590164	-0.043738	1.206924
C85	C	1.123736	-0.513658	1.037163
C86	C	1.623736	-0.013658	1.537163
C87	C	1.120101	-0.516979	1.110659
C88	C	1.620101	-0.016979	1.610659
C89	C	1.231890	-0.416124	1.111117
C90	C	1.731890	0.083876	1.611117
C91	C	1.235519	-0.412798	1.037624
C92	C	1.735519	0.087202	1.537624
C93	C	1.181445	-0.461569	1.000652
C94	C	1.681445	0.038431	1.500652
N95	N	1.136887	-0.501701	0.892515
N96	N	1.636887	-0.001701	1.392515
N97	N	1.185166	-0.458169	0.925533
N98	N	1.685166	0.041831	1.425533
H99	H	0.669699	-0.551880	0.470922
H100	H	1.169699	-0.051880	0.970922
H101	H	0.653044	-0.408018	0.347886
H102	H	1.153044	0.091982	0.847886
H103	H	1.233134	-0.966481	0.353770
H104	H	1.733134	-0.466481	0.853770
H105	H	1.088951	-0.994197	0.464774
H106	H	1.588951	-0.494197	0.964774
H107	H	1.248938	-0.400458	0.677658
H108	H	1.748938	0.099542	1.177658
Cl109	Cl	1.266299	-0.384908	0.827356
Cl110	Cl	1.766299	0.115092	1.327356
Cl111	Cl	1.047535	-0.582455	1.156564
Cl112	Cl	1.547535	-0.082455	1.656564
Cl113	Cl	1.308084	-0.347325	0.991724
Cl114	Cl	1.808084	0.152675	1.491724
Cl115	Cl	1.022185	-0.605045	0.660443
Cl116	Cl	1.522185	-0.105045	1.160443
H117	H	1.275915	-0.376419	1.141227
H118	H	1.775915	0.123581	1.641227
Cl119	Cl	1.055756	-0.574968	0.990693
Cl120	Cl	1.555756	-0.074968	1.490693
Cl121	Cl	1.013980	-0.612553	0.826322
Cl122	Cl	1.513980	-0.112553	1.326322
