data_functionalizedCrystal
_audit_creation_method	'MofGen! by Chris Wilmer'
_symmetry_space_group_name_H-M	'P1'
_symmetry_Int_Tables_number	1
_symmetry_cell_setting	triclinic
loop_
_symmetry_equiv_pos_as_xyz
  x,y,z
_cell_length_a	19.077105
_cell_length_b	16.625545
_cell_length_c	19.076919
_cell_angle_alpha	87.725638
_cell_angle_beta	90.076224
_cell_angle_gamma	92.276577
loop_
_atom_site_label
_atom_site_type_symbol
_atom_site_fract_x
_atom_site_fract_y
_atom_site_fract_z
Zn1	Zn	1.058255	0.390077	-0.440433
Zn2	Zn	1.062890	0.519720	-0.322931
Zn3	Zn	0.945473	0.379275	-0.318226
Zn4	Zn	0.940711	0.519234	-0.435684
O5	O	1.001832	0.452076	-0.379319
O6	O	1.157201	0.411998	-0.428803
O7	O	1.051247	0.496773	-0.223976
O8	O	0.960487	0.267879	-0.334455
O9	O	1.160606	0.507246	-0.342475
O10	O	1.043347	0.275815	-0.424240
O11	O	0.964981	0.393589	-0.220519
O12	O	0.846510	0.393117	-0.329850
O13	O	0.952371	0.506418	-0.534645
O14	O	0.843011	0.495944	-0.416146
O15	O	1.038730	0.411527	-0.538135
O16	O	1.046629	0.632484	-0.337870
O17	O	0.956865	0.632127	-0.420709
C18	C	0.819264	0.443306	-0.371973
C19	C	0.741160	0.439575	-0.368847
C20	C	0.702667	0.491432	-0.412237
C21	C	0.629280	0.487916	-0.409303
C22	C	0.594388	0.432544	-0.362975
C23	C	0.632886	0.380681	-0.319583
C24	C	0.706272	0.384194	-0.322521
C25	C	0.375101	0.416284	-0.349382
C26	C	0.301710	0.412776	-0.346446
C27	C	0.298108	0.520010	-0.436168
C28	C	0.371496	0.523522	-0.439098
C29	C	0.409988	0.471655	-0.395709
N30	N	0.519374	0.428950	-0.359974
N31	N	0.485000	0.475246	-0.398714
C32	C	1.001752	0.661563	-0.379301
C33	C	1.001781	0.751186	-0.379319
C34	C	1.001806	0.823970	-0.379337
C35	C	1.001844	0.915282	-0.379357
C36	C	1.001879	0.988060	-0.379370
C37	C	1.001916	1.079377	-0.379389
C38	C	1.185113	0.460881	-0.386694
C39	C	1.263216	0.464633	-0.389836
C40	C	0.994503	0.460123	-0.562599
C41	C	0.991379	0.463552	-0.640702
C42	C	1.001926	1.241774	-0.379362
C43	C	1.001951	1.152156	-0.379402
C44	C	1.034872	0.415760	-0.679213
C45	C	1.031928	0.418978	-0.752599
C46	C	0.985495	0.469993	-0.787473
C47	C	0.941998	0.517786	-0.748957
C48	C	0.944938	0.514563	-0.675572
C49	C	0.971877	0.484926	-1.006755
C50	C	0.968941	0.488147	-1.080145
C51	C	1.058871	0.389338	-1.083782
C52	C	1.061810	0.386123	-1.010396
C53	C	1.018310	0.433913	-0.971886
N54	N	0.982487	0.473286	-0.862485
N55	N	1.021315	0.430615	-0.896875
C56	C	1.009174	0.444005	-0.196753
C57	C	1.012434	0.440356	-0.118655
H58	H	0.731070	0.536524	-0.449960
H59	H	0.597941	0.530144	-0.444636
H60	H	0.273303	0.367676	-0.308724
N61	N	0.409128	0.583248	-0.489063
H62	H	0.373606	0.615567	-0.516106
H63	H	0.438295	0.553376	-0.522851
N64	N	0.416612	0.360333	-0.302597
H65	H	0.383370	0.324722	-0.272805
H66	H	0.448353	0.393106	-0.271242
N67	N	0.256593	0.575948	-0.482964
H68	H	0.204808	0.565323	-0.474076
H69	H	0.267428	0.566306	-0.533682
H70	H	1.094285	0.350429	-1.115144
N71	N	1.111879	0.331070	-0.972800
H72	H	1.084549	0.290998	-0.941216
H73	H	1.145648	0.364098	-0.943692
N74	N	1.078847	0.367440	-0.794134
H75	H	1.069938	0.377219	-0.845915
H76	H	1.068457	0.308766	-0.780875
N77	N	0.595252	0.320973	-0.269604
H78	H	0.563670	0.283457	-0.296987
H79	H	0.566139	0.350872	-0.235789
H80	H	0.737613	0.341962	-0.287191
H81	H	0.931127	0.529691	-1.108537
N82	N	0.891919	0.572803	-0.786580
H83	H	0.903312	0.630377	-0.774242
H84	H	0.842249	0.557238	-0.771778
H85	H	1.072685	0.374221	-0.650824
N86	N	0.924938	0.536441	-0.965224
H87	H	0.895073	0.569239	-0.998454
H88	H	0.954717	0.573800	-0.935906
N89	N	0.898022	0.566101	-0.634032
H90	H	0.868160	0.598908	-0.667258
H91	H	0.927821	0.603453	-0.604726
