data_functionalizedCrystal
_audit_creation_method	'MofGen! by Chris Wilmer'
_symmetry_space_group_name_H-M	'P1'
_symmetry_Int_Tables_number	1
_symmetry_cell_setting	triclinic
loop_
_symmetry_equiv_pos_as_xyz
  x,y,z
_cell_length_a	16.625546
_cell_length_b	12.759401
_cell_length_c	12.759401
_cell_angle_alpha	89.996880
_cell_angle_beta	90.014174
_cell_angle_gamma	89.977371
loop_
_atom_site_label
_atom_site_type_symbol
_atom_site_fract_x
_atom_site_fract_y
_atom_site_fract_z
Zn1	Zn	-0.321126	-1.606039	0.593947
Zn2	Zn	-0.455931	-1.605957	0.418253
Zn3	Zn	-0.321116	-1.430388	0.418287
Zn4	Zn	-0.455921	-1.430306	0.593894
O5	O	-0.388523	-1.518173	0.506095
O6	O	-0.339016	-1.753049	0.570649
O7	O	-0.438048	-1.582667	0.271237
O8	O	-0.208285	-1.453758	0.441624
O9	O	-0.438057	-1.752989	0.441567
O10	O	-0.208292	-1.582808	0.570681
O11	O	-0.339000	-1.453678	0.271261
O12	O	-0.338990	-1.283356	0.441573
O13	O	-0.438039	-1.453617	0.740922
O14	O	-0.438030	-1.283296	0.570592
O15	O	-0.339006	-1.582728	0.740961
O16	O	-0.568762	-1.582588	0.441516
O17	O	-0.568754	-1.453538	0.570559
C18	C	-0.388509	-1.245205	0.506081
C19	C	-0.388522	-1.128429	0.506100
C20	C	-0.598014	-1.518073	0.506051
C21	C	-0.687635	-1.518127	0.506068
C22	C	-0.388523	-1.518173	0.780129
C23	C	-0.388523	-1.518173	0.896905
C24	C	-1.015811	-1.518310	0.506177
C25	C	-0.924502	-1.518256	0.506150
C26	C	-0.851726	-1.518218	0.506122
C27	C	-0.760412	-1.518165	0.506095
C28	C	-0.178214	-1.518301	0.506162
C29	C	-0.088593	-1.518356	0.506191
C30	C	-0.388539	-1.792206	0.506110
C31	C	-0.388545	-1.908982	0.506117
C32	C	-0.440174	-1.073563	0.573169
C33	C	-0.440184	-0.963839	0.573180
C34	C	-0.336887	-0.963856	0.439045
C35	C	-0.336873	-1.073578	0.439040
C36	C	-0.491822	-1.128413	0.640229
C37	C	-0.543480	-1.073547	0.707302
C38	C	-0.543490	-0.963823	0.707314
C39	C	-0.491843	-0.908965	0.640252
C40	C	-0.336967	-1.585395	0.951789
C41	C	-0.336971	-1.585390	1.061513
C42	C	-0.440091	-1.450938	1.061460
C43	C	-0.440083	-1.450938	0.951738
C44	C	-0.285407	-1.652629	0.896956
C45	C	-0.233848	-1.719858	0.951840
C46	C	-0.233851	-1.719853	1.061564
C47	C	-0.285413	-1.652620	1.116405
C48	C	-0.388540	-1.518166	1.233128
C49	C	-0.388534	-1.518168	1.116351
H50	H	-0.491821	-1.217756	0.640225
H51	H	-0.585524	-1.118219	0.761908
N52	N	-0.599201	-0.904643	0.779653
H53	H	-0.631917	-0.956043	0.822129
H54	H	-0.636465	-0.859103	0.736794
H55	H	-0.191864	-1.774586	1.106248
H56	H	-0.285400	-1.652643	0.807614
H57	H	-0.285402	-1.652610	1.205749
H58	H	-0.482052	-1.396184	0.907050
N59	N	-0.491844	-0.790619	0.640272
H60	H	-0.532400	-0.764183	0.692940
H61	H	-0.506556	-0.764254	0.568132
N62	N	-0.281200	-0.904694	0.366699
H63	H	-0.289052	-0.826860	0.376872
H64	H	-0.293671	-0.923871	0.291641
N65	N	-0.178245	-1.792380	0.892700
H66	H	-0.186070	-1.782192	0.814862
H67	H	-0.190815	-1.867399	0.911892
H68	H	-0.294807	-1.118251	0.384434
H69	H	-0.482070	-1.396200	1.106119
