data_functionalizedCrystal
_audit_creation_method	'MofGen! by Chris Wilmer'
_symmetry_space_group_name_H-M	'P1'
_symmetry_Int_Tables_number	1
_symmetry_cell_setting	triclinic
loop_
_symmetry_equiv_pos_as_xyz
  x,y,z
_cell_length_a	17.077404
_cell_length_b	16.959454
_cell_length_c	17.077383
_cell_angle_alpha	89.913786
_cell_angle_beta	89.941178
_cell_angle_gamma	90.020300
loop_
_atom_site_label
_atom_site_type_symbol
_atom_site_fract_x
_atom_site_fract_y
_atom_site_fract_z
Zn1	Zn	1.200375	-0.314197	-0.443864
Zn2	Zn	1.200198	-0.446527	-0.312606
Zn3	Zn	1.069016	-0.314367	-0.312612
Zn4	Zn	1.069081	-0.446338	-0.443830
O5	O	1.134668	-0.380357	-0.378228
O6	O	1.310198	-0.331759	-0.426464
O7	O	1.182696	-0.429145	-0.202760
O8	O	1.086488	-0.203733	-0.330039
O9	O	1.310068	-0.428981	-0.330030
O10	O	1.182997	-0.203609	-0.426470
O11	O	1.086317	-0.332048	-0.202764
O12	O	0.959178	-0.331865	-0.330006
O13	O	1.086598	-0.428659	-0.553682
O14	O	0.959225	-0.428824	-0.426412
O15	O	1.183059	-0.331576	-0.553707
O16	O	1.182758	-0.557113	-0.329997
O17	O	1.086427	-0.556974	-0.426407
C18	C	0.930720	-0.380343	-0.378207
C19	C	0.843470	-0.380356	-0.378216
C20	C	0.802525	-0.430919	-0.428334
C21	C	0.720544	-0.430920	-0.428346
C22	C	0.679511	-0.380363	-0.378236
C23	C	0.720461	-0.329794	-0.328116
C24	C	0.802440	-0.329789	-0.328108
C25	C	0.549591	-0.329810	-0.328135
C26	C	0.467607	-0.329816	-0.328142
C27	C	0.467696	-0.430941	-0.428373
C28	C	0.549674	-0.430936	-0.428365
C29	C	0.590620	-0.380368	-0.378244
C30	C	1.134602	-0.585723	-0.378215
C31	C	1.134645	-0.673580	-0.378235
C32	C	1.084581	-1.045013	-0.428423
C33	C	1.184973	-1.045098	-0.328113
C34	C	1.184946	-0.962552	-0.328106
C35	C	1.134734	-0.921233	-0.378257
C36	C	1.084550	-0.962460	-0.428416
C37	C	1.235123	-0.921319	-0.277942
C38	C	1.235097	-0.838768	-0.277933
C39	C	1.184889	-0.797447	-0.328089
C40	C	1.134704	-0.838679	-0.378250
C41	C	1.084492	-0.797360	-0.428401
C42	C	1.034310	-0.838591	-0.478567
C43	C	1.034342	-0.921139	-0.478572
C44	C	1.184857	-0.714899	-0.328084
C45	C	1.084461	-0.714807	-0.428394
C46	C	1.339412	-0.380372	-0.378250
C47	C	1.426662	-0.380378	-0.378260
C48	C	1.134856	-0.380078	-0.582973
C49	C	1.134936	-0.379959	-0.670223
C50	C	1.134755	-0.174189	-0.378259
C51	C	1.134792	-0.086332	-0.378272
C52	C	1.134525	-0.380579	-0.174280
C53	C	1.134597	-0.380475	-0.087030
C54	C	1.084776	-0.431337	-0.045814
C55	C	1.084839	-0.431233	0.036166
C56	C	1.134727	-0.380270	0.076929
C57	C	1.184551	-0.329402	0.035706
C58	C	1.184484	-0.329503	-0.046272
C59	C	1.184689	-0.329197	0.206576
C60	C	1.184757	-0.329097	0.288560
C61	C	1.085044	-0.430926	0.289015
C62	C	1.084977	-0.431027	0.207036
C63	C	1.134801	-0.380160	0.165819
H64	H	0.582926	-0.288625	-0.287328
N65	N	0.980214	-0.965605	-0.532670
H66	H	1.012127	-0.999778	-0.569078
H67	H	0.943857	-0.999882	-0.500677
N68	N	0.676202	-0.275279	-0.274057
H69	H	0.642224	-0.238657	-0.306011
H70	H	0.642194	-0.307471	-0.237647
H71	H	1.225168	-0.287904	0.068902
H72	H	1.043726	-1.078587	-0.469269
N73	N	0.846606	-0.275248	-0.274058
H74	H	0.808174	-0.243221	-0.242315
H75	H	0.880573	-0.307409	-0.237673
H76	H	0.993424	-0.804940	-0.519398
N77	N	1.289261	-0.965881	-0.223838
H78	H	1.281664	-1.024431	-0.231455
H79	H	1.345323	-0.951397	-0.236091
N80	N	1.238218	-0.274639	-0.090725
H81	H	1.294399	-0.286488	-0.076532
H82	H	1.230539	-0.282455	-0.148829
N83	N	1.239131	-1.089651	-0.274022
H84	H	1.226929	-1.075380	-0.217924
H85	H	1.231514	-1.148189	-0.281698
N86	N	0.423348	-0.275312	-0.274069
H87	H	0.365202	-0.283005	-0.281668
H88	H	0.437630	-0.287630	-0.217996
H89	H	1.275959	-0.805203	-0.237086
H90	H	0.835929	-0.472091	-0.469137
H91	H	0.687211	-0.472094	-0.469157
H92	H	1.225711	-0.681333	-0.287236
N93	N	0.423537	-0.485485	-0.482430
H94	H	0.437873	-0.473230	-0.538537
H95	H	0.437795	-0.541933	-0.470063
H96	H	1.044278	-0.472658	0.069721
N97	N	1.030972	-0.486309	-0.089776
H98	H	0.999419	-0.518513	-0.051223
H99	H	0.994399	-0.454441	-0.123809
N100	N	1.030307	-0.670243	-0.482490
H101	H	0.998525	-0.708890	-0.514268
H102	H	0.993962	-0.636074	-0.450501
N103	N	1.031174	-0.485993	0.163064
H104	H	1.043759	-0.542363	0.177459
H105	H	0.975037	-0.474040	0.177416
H106	H	1.044474	-0.472343	0.322577
H107	H	0.583082	-0.472109	-0.469165
H108	H	1.225377	-0.287594	0.321747
H109	H	1.225256	-0.287770	0.173020
