data_functionalizedCrystal
_audit_creation_method	'MofGen! by Chris Wilmer'
_symmetry_space_group_name_H-M	'P1'
_symmetry_Int_Tables_number	1
_symmetry_cell_setting	triclinic
loop_
_symmetry_equiv_pos_as_xyz
  x,y,z
_cell_length_a	17.038278
_cell_length_b	16.109301
_cell_length_c	14.586319
_cell_angle_alpha	90.005214
_cell_angle_beta	90.003614
_cell_angle_gamma	87.285991
loop_
_atom_site_label
_atom_site_type_symbol
_atom_site_fract_x
_atom_site_fract_y
_atom_site_fract_z
O1	O	-1.037364	-0.180528	-0.076252
O2	O	-0.809734	-0.177664	-0.076253
O3	O	-0.929802	-0.058509	-0.076243
O4	O	-0.917296	-0.299683	-0.076262
O5	O	-0.929794	-0.058507	0.076238
O6	O	-0.809725	-0.177661	0.076228
O7	O	-1.037356	-0.180526	0.076228
Cu8	Cu	-0.923540	-0.179093	0.090151
Cu9	Cu	-0.923550	-0.179096	-0.090175
O10	O	-0.917287	-0.299681	0.076219
C11	C	-0.929291	-0.027497	-0.000002
C12	C	-0.927773	0.064906	-0.000001
C13	C	-0.780601	-0.175056	-0.000012
C14	C	-0.693808	-0.167277	-0.000012
C15	C	-1.066488	-0.183134	-0.000014
C16	C	-1.153281	-0.190912	-0.000020
C17	C	-0.203397	-0.119492	-0.000012
C18	C	-0.284947	-0.126807	-0.000007
C19	C	-0.316380	-0.205543	-0.000017
C20	C	-0.266258	-0.276969	-0.000023
C21	C	-0.184709	-0.269653	-0.000021
C22	C	-0.562137	-0.231387	-0.000016
C23	C	-0.643693	-0.238698	-0.000021
C24	C	-0.662376	-0.088535	-0.000003
C25	C	-0.580825	-0.081226	-0.000007
C26	C	-0.530710	-0.152652	-0.000008
C27	C	-0.399738	-0.213022	-0.000015
C28	C	-0.447354	-0.145173	-0.000003
C29	C	-0.917798	-0.330693	-0.000024
C30	C	-0.919317	-0.423096	-0.000031
N31	N	-0.923539	-0.179091	0.216983
C32	C	-0.995487	0.282370	-0.000015
C33	C	-0.994054	0.369192	-0.000023
C34	C	-0.851597	0.359434	-0.000020
C35	C	-0.853031	0.272613	-0.000019
C36	C	-0.924978	0.234084	-0.000012
C37	C	-0.922111	0.407726	-0.000020
C38	C	-0.920557	0.501863	-0.000029
C39	C	-0.926533	0.139941	-0.000005
N40	N	-0.923557	-0.179092	-0.217007
C41	C	-0.976723	-0.126350	0.451993
C42	C	-0.976725	-0.126348	0.547975
C43	C	-0.870368	-0.231836	0.547976
C44	C	-0.870362	-0.231833	0.451996
C45	C	-0.923544	-0.179091	0.404007
C46	C	-0.923552	-0.179092	0.595968
C47	C	-0.923554	-0.179091	0.700035
C48	C	-0.923541	-0.179091	0.299934
H49	H	-0.325749	-0.068649	0.000004
H50	H	-0.827069	-0.274779	0.587058
N51	N	-0.812996	-0.288714	0.400232
H52	H	-0.779309	-0.322129	0.445195
H53	H	-0.842911	-0.327602	0.360395
H54	H	-0.177811	-0.055377	-0.000009
H55	H	-0.795610	0.233297	-0.000018
H56	H	-1.051470	0.408504	-0.000028
N57	N	-0.433647	-0.297940	-0.000037
H58	H	-0.415377	-0.329487	-0.056569
H59	H	-0.415361	-0.329432	0.056518
N60	N	-1.034092	-0.069471	0.599727
H61	H	-1.004238	-0.030522	0.639558
H62	H	-1.067764	-0.036122	0.554697
H63	H	-0.703188	-0.030385	-0.000001
N64	N	-0.546924	0.003696	0.000007
H65	H	-0.591048	0.047832	0.000016
H66	H	-0.513493	0.009996	0.056536
N67	N	-1.034060	-0.069452	0.400222
H68	H	-1.068668	-0.103682	0.360385
H69	H	-1.067695	-0.036043	0.445239
N70	N	-0.773999	0.400991	-0.000023
H71	H	-0.783789	0.463318	-0.000021
H72	H	-0.743146	0.383687	0.056505
N73	N	-0.677598	-0.323624	-0.000031
H74	H	-0.633476	-0.367762	-0.000029
H75	H	-0.711026	-0.329924	0.056493
H76	H	-0.521343	-0.289548	-0.000022
H77	H	-1.054072	0.251002	-0.000012
N78	N	-0.300156	-0.361892	-0.000028
H79	H	-0.359421	-0.355691	-0.000031
H80	H	-0.281822	-0.393397	-0.056559
H81	H	-0.143905	-0.327811	-0.000025
N82	N	-0.413449	-0.060256	0.000016
H83	H	-0.380031	-0.053878	-0.056507
H84	H	-0.457609	-0.016164	0.000054
