data_functionalizedCrystal
_audit_creation_method	'MofGen! by Chris Wilmer'
_symmetry_space_group_name_H-M	'P1'
_symmetry_Int_Tables_number	1
_symmetry_cell_setting	triclinic
loop_
_symmetry_equiv_pos_as_xyz
  x,y,z
_cell_length_a	12.759401
_cell_length_b	12.759399
_cell_length_c	12.759393
_cell_angle_alpha	90.029334
_cell_angle_beta	89.979434
_cell_angle_gamma	89.986046
loop_
_atom_site_label
_atom_site_type_symbol
_atom_site_fract_x
_atom_site_fract_y
_atom_site_fract_z
Zn1	Zn	-1.606259	-0.418266	0.594018
Zn2	Zn	-1.606147	-0.593981	0.418342
Zn3	Zn	-1.430557	-0.418311	0.418354
Zn4	Zn	-1.430546	-0.593898	0.593980
O5	O	-1.518377	-0.506114	0.506174
O6	O	-1.753265	-0.441591	0.570725
O7	O	-1.582812	-0.570732	0.271322
O8	O	-1.453916	-0.271284	0.441678
O9	O	-1.753182	-0.570688	0.441656
O10	O	-1.583003	-0.271251	0.570737
O11	O	-1.453808	-0.441669	0.271332
O12	O	-1.283535	-0.441587	0.441641
O13	O	-1.453897	-0.570546	0.741006
O14	O	-1.283527	-0.570590	0.570672
O15	O	-1.582992	-0.441510	0.741034
O16	O	-1.582801	-0.740991	0.441619
O17	O	-1.453788	-0.740930	0.570660
C18	C	-1.245410	-0.506085	0.506155
C19	C	-1.128633	-0.506098	0.506171
C20	C	-1.073815	-0.438997	0.573480
C21	C	-0.964091	-0.439003	0.573485
C22	C	-0.964013	-0.573222	0.438870
C23	C	-1.073735	-0.573210	0.438860
C24	C	-0.814173	-0.315160	0.611249
C25	C	-0.759351	-0.248067	0.678574
C26	C	-0.795010	-0.232056	0.781113
C27	C	-0.885489	-0.283153	0.816347
C28	C	-0.940306	-0.350253	0.749028
C29	C	-0.904649	-0.366244	0.646474
C30	C	-1.223654	-0.697054	0.401108
C31	C	-1.278473	-0.764161	0.333792
C32	C	-1.242816	-0.780183	0.231252
C33	C	-1.152334	-0.729105	0.196021
C34	C	-1.097515	-0.661998	0.263336
C35	C	-1.133179	-0.645974	0.365876
C36	C	-1.518310	-0.779081	0.506157
C37	C	-1.518377	-0.895858	0.506185
C38	C	-0.792410	-0.506134	0.506190
C39	C	-0.909187	-0.506117	0.506186
C40	C	-1.451190	-0.950726	0.573328
C41	C	-1.451256	-1.060450	0.573348
C42	C	-1.585705	-1.060428	0.439080
C43	C	-1.585633	-0.950706	0.439055
C44	C	-1.327429	-1.210484	0.610812
C45	C	-1.260251	-1.265356	0.677971
C46	C	-1.244045	-1.229684	0.780464
C47	C	-1.295033	-1.139142	0.815818
C48	C	-1.362218	-1.084276	0.748664
C49	C	-1.378404	-1.119946	0.646157
C50	C	-1.709461	-0.800670	0.401602
C51	C	-1.776653	-0.745802	0.334453
C52	C	-1.792869	-0.781472	0.231959
C53	C	-1.741901	-0.872017	0.196609
C54	C	-1.674709	-0.926885	0.263758
C55	C	-1.658490	-0.891208	0.366251
C56	C	-1.518456	-0.506013	0.780207
C57	C	-1.518489	-0.505970	0.896984
C58	C	-1.518473	-0.232081	0.506213
C59	C	-1.518515	-0.115304	0.506230
C60	C	-1.518359	-0.506139	0.233206
C61	C	-1.518529	-0.505886	0.116430
C62	C	-1.585714	-0.438770	0.951862
C63	C	-1.585732	-0.438725	1.061586
C64	C	-1.451297	-0.573088	1.061544
C65	C	-1.451275	-0.573128	0.951822
C66	C	-1.623346	-0.314771	1.211562
C67	C	-1.690588	-0.247580	1.266443
C68	C	-1.793101	-0.231475	1.230851
C69	C	-1.828393	-0.282577	1.140378
C70	C	-1.761158	-0.349775	1.085502
C71	C	-1.658630	-0.365860	1.121093
C72	C	-1.413671	-0.697083	0.801845
C73	C	-1.346440	-0.764288	0.746967
C74	C	-1.243925	-0.780403	0.782557
C75	C	-1.208636	-0.729321	0.873033
C76	C	-1.275868	-0.662116	0.927911
C77	C	-1.378381	-0.645999	0.892313
H78	H	-0.919302	-0.627863	0.384069
H79	H	-1.696245	-0.771607	0.485055
H80	H	-0.750366	-0.177427	0.835929
Cl81	Cl	-1.877631	-0.147009	1.299849
Cl82	Cl	-1.159595	-1.298670	0.864890
H83	H	-1.023839	-0.620408	0.234643
H84	H	-1.539870	-0.327869	1.240544
H85	H	-1.396576	-0.627768	1.106207
H86	H	-1.789894	-0.391385	1.011844
Cl87	Cl	-1.107495	-0.749255	0.067114
H88	H	-1.252701	-0.684006	0.484602
H89	H	-0.685683	-0.206465	0.649877
Cl90	Cl	-1.957281	-0.262342	1.095649
H91	H	-0.914509	-0.270119	0.899849
Cl92	Cl	-1.079758	-0.749581	0.917782
Cl93	Cl	-1.231502	-0.597894	1.041653
H94	H	-1.189190	-0.835136	0.737870
Cl95	Cl	-1.426314	-0.970460	0.793099
H96	H	-1.661843	-0.205973	1.340106
H97	H	-1.375185	-0.805892	0.673303
Cl98	Cl	-1.311726	-0.864559	0.146632
Cl99	Cl	-1.542540	-0.676795	0.757072
H100	H	-1.218737	-1.339075	0.649176
H101	H	-1.340606	-1.239529	0.527351
H102	H	-1.118509	-0.384347	0.628286
H103	H	-1.640463	-1.105099	0.384426
H104	H	-1.633209	-1.000613	0.234967
Cl105	Cl	-0.769349	-0.335267	0.482331
Cl106	Cl	-1.392221	-0.828379	0.378086
H107	H	-1.755110	-0.901064	0.113151
Cl108	Cl	-1.670208	-0.354340	0.882926
Cl109	Cl	-1.054044	-0.414485	0.793312
H110	H	-1.396425	-0.906071	0.627988
H111	H	-1.847586	-0.736789	0.177288
H112	H	-1.281841	-1.110113	0.899282
Cl113	Cl	-1.840736	-0.631977	0.378898
