data_functionalizedCrystal
_audit_creation_method	'MofGen! by Chris Wilmer'
_symmetry_space_group_name_H-M	'P1'
_symmetry_Int_Tables_number	1
_symmetry_cell_setting	triclinic
loop_
_symmetry_equiv_pos_as_xyz
  x,y,z
_cell_length_a	12.837943
_cell_length_b	15.944551
_cell_length_c	11.295483
_cell_angle_alpha	94.094426
_cell_angle_beta	85.461227
_cell_angle_gamma	89.163839
loop_
_atom_site_label
_atom_site_type_symbol
_atom_site_fract_x
_atom_site_fract_y
_atom_site_fract_z
O1	O	1.382450	0.213265	-0.099009
O2	O	1.080644	0.202478	-0.099016
O3	O	1.239788	0.086257	-0.099002
O4	O	1.223306	0.329487	-0.099023
O5	O	1.225810	0.096448	0.099048
O6	O	1.066666	0.212669	0.099034
O7	O	1.368472	0.223456	0.099040
Cu8	Cu	1.216293	0.218993	0.117121
Cu9	Cu	1.232823	0.206941	-0.117096
O10	O	1.209328	0.339677	0.099026
C11	C	1.035034	0.203930	0.000008
C12	C	0.919957	0.193062	0.000006
C13	C	0.679007	0.323714	0.000011
C14	C	0.570881	0.313507	0.000010
C15	C	0.595575	0.162440	0.000011
C16	C	0.703701	0.172648	0.000012
C17	C	0.745413	0.253287	0.000011
C18	C	0.853542	0.263494	0.000003
C19	C	0.878234	0.112428	0.000013
C20	C	0.770107	0.102221	0.000011
C21	C	1.232115	0.060004	0.000023
C22	C	1.230063	-0.033407	0.000024
C23	C	1.126515	-0.256548	0.000005
C24	C	1.167708	-0.308694	0.097657
C25	C	1.226352	-0.204430	0.000015
C26	C	1.181513	-0.318722	-0.097604
C27	C	1.222761	-0.369631	0.000001
C28	C	1.267567	-0.255341	0.097747
C29	C	1.281364	-0.265369	-0.097602
C30	C	1.322627	-0.317491	0.000073
C31	C	1.228418	-0.109262	0.000024
C32	C	1.220702	-0.464796	0.000000
C33	C	1.414082	0.222005	0.000014
C34	C	1.529160	0.232872	0.000008
C35	C	1.217002	0.365931	-0.000001
C36	C	1.219054	0.459340	-0.000010
N37	N	1.204674	0.227469	0.281856
N38	N	1.244451	0.198459	-0.281831
C39	C	1.328092	0.137394	0.531156
C40	C	1.319318	0.143806	0.655819
C41	C	1.178349	0.246701	0.655847
C42	C	1.187123	0.240289	0.531184
C43	C	1.261997	0.185634	0.468843
C44	C	1.270775	0.179227	0.344178
C45	C	1.129802	0.282117	0.344208
C46	C	1.121028	0.288530	0.468871
H47	H	0.932315	0.055081	0.000004
H48	H	1.060064	0.333026	0.519643
H49	H	1.303925	-0.227723	0.180394
C50	C	0.899430	0.352194	0.000005
C51	C	0.867123	0.418387	0.102852
C52	C	0.913007	0.507089	0.102858
C53	C	0.991200	0.529598	0.000017
C54	C	1.023511	0.463404	-0.102838
C55	C	0.977627	0.374701	-0.102844
H56	H	0.809236	0.401726	0.178988
H57	H	0.889087	0.556091	0.178999
H58	H	1.025166	0.595261	0.000021
H59	H	1.081398	0.480065	-0.178974
H60	H	1.001547	0.325700	-0.178985
C61	C	1.102799	-0.334691	0.209183
C62	C	1.089772	-0.428469	0.230149
C63	C	1.024858	-0.454462	0.341671
C64	C	0.972970	-0.386678	0.432228
C65	C	0.985996	-0.292895	0.411265
C66	C	1.050910	-0.266901	0.299743
H67	H	1.128184	-0.478652	0.163111
H68	H	1.015216	-0.523887	0.357189
H69	H	0.924917	-0.405920	0.514783
H70	H	0.947584	-0.242712	0.478303
H71	H	1.060552	-0.197476	0.284225
H72	H	1.043639	-0.229864	0.000101
H73	H	0.736129	0.036567	0.000026
H74	H	1.405566	-0.344011	0.000130
C75	C	0.497833	0.390977	0.000006
C76	C	0.427359	0.399446	-0.102836
C77	C	0.354311	0.476921	-0.102839
C78	C	0.351736	0.545926	0.000001
C79	C	0.422212	0.537459	0.102851
C80	C	0.495260	0.459985	0.102854
H81	H	0.429263	0.348363	-0.178972
H82	H	0.302140	0.483188	-0.178976
H83	H	0.297661	0.603277	-0.000001
H84	H	0.420308	0.588543	0.178987
H85	H	0.547431	0.453718	0.178991
C86	C	1.346233	-0.239343	-0.209130
C87	C	1.313133	-0.266695	-0.333962
C88	C	1.377994	-0.240667	-0.445501
C89	C	1.475954	-0.187287	-0.432208
C90	C	1.509058	-0.159933	-0.307370
C91	C	1.444198	-0.185961	-0.195832
H92	H	1.240613	-0.306213	-0.343807
H93	H	1.353487	-0.260917	-0.537913
H94	H	1.523967	-0.168020	-0.514775
H95	H	1.581578	-0.120415	-0.297525
H96	H	1.468705	-0.165711	-0.103419
H97	H	1.373138	0.104523	0.706551
C98	C	1.132322	-0.356164	-0.209132
C99	C	1.019052	-0.332236	-0.230558
C100	C	0.969852	-0.369674	-0.342078
C101	C	1.033923	-0.431039	-0.432173
C102	C	1.147201	-0.454969	-0.410750
C103	C	1.196400	-0.417532	-0.299229
H104	H	0.971617	-0.286808	-0.163862
H105	H	0.885997	-0.351959	-0.357936
H106	H	0.997503	-0.458752	-0.514727
H107	H	1.194636	-0.500398	-0.477446
H108	H	1.280255	-0.435247	-0.283371
C109	C	0.724903	0.412412	0.000000
C110	C	0.692601	0.478617	0.102833
C111	C	0.738497	0.567315	0.102820
C112	C	0.816694	0.589807	-0.000027
C113	C	0.849000	0.523600	-0.102868
C114	C	0.803104	0.434902	-0.102854
H115	H	0.634711	0.461969	0.178973
H116	H	0.714582	0.616326	0.178950
H117	H	0.850669	0.655467	-0.000037
H118	H	0.906890	0.540249	-0.179008
H119	H	0.827019	0.385891	-0.178984
H120	H	0.561586	0.096792	0.000111
C121	C	1.410454	0.077281	0.462575
C122	C	1.375985	0.005372	0.376884
C123	C	1.458351	-0.054742	0.308305
C124	C	1.575185	-0.042947	0.325419
C125	C	1.609659	0.028964	0.411114
C126	C	1.527294	0.089078	0.479692
H127	H	1.289493	-0.003362	0.364212
H128	H	1.432830	-0.107975	0.244868
H129	H	1.636156	-0.087447	0.274653
H130	H	1.696152	0.037698	0.423786
H131	H	1.552815	0.142312	0.543130
C132	C	1.353132	0.119107	0.275600
C133	C	1.318653	0.047202	0.189909
C134	C	1.401009	-0.012922	0.121336
C135	C	1.517845	-0.001141	0.138453
C136	C	1.552330	0.070767	0.224147
C137	C	1.469973	0.130891	0.292721
H138	H	1.232159	0.038478	0.177235
H139	H	1.375480	-0.066153	0.057899
H140	H	1.578810	-0.045649	0.087690
H141	H	1.638823	0.079490	0.236821
H142	H	1.495502	0.184122	0.356157
H143	H	1.117381	0.291194	0.706621
H144	H	1.075986	0.321401	0.293458
