data_functionalizedCrystal
_audit_creation_method	'MofGen! by Chris Wilmer'
_symmetry_space_group_name_H-M	'P1'
_symmetry_Int_Tables_number	1
_symmetry_cell_setting	triclinic
loop_
_symmetry_equiv_pos_as_xyz
  x,y,z
_cell_length_a	15.944493
_cell_length_b	22.610064
_cell_length_c	15.944493
_cell_angle_alpha	89.990056
_cell_angle_beta	83.475044
_cell_angle_gamma	90.007664
loop_
_atom_site_label
_atom_site_type_symbol
_atom_site_fract_x
_atom_site_fract_y
_atom_site_fract_z
O1	O	1.114538	0.049169	0.108092
O2	O	0.869979	0.049171	0.121499
O3	O	0.998962	0.049175	-0.007484
O4	O	0.985555	0.049165	0.237075
O5	O	0.998939	-0.049194	-0.007465
O6	O	0.869956	-0.049198	0.121518
O7	O	1.114515	-0.049200	0.108110
Zn8	Zn	0.992232	-0.064818	0.114817
Zn9	Zn	0.992262	0.064788	0.114792
O10	O	0.985532	-0.049204	0.237094
C11	C	0.838673	-0.000013	0.120961
C12	C	0.745424	-0.000012	0.119318
N13	N	0.992217	-0.153270	0.114834
C14	C	0.509649	-0.000015	0.195240
C15	C	0.459088	-0.048517	0.154307
C16	C	0.574704	-0.000013	0.116273
C17	C	0.459115	0.048467	0.154270
C18	C	0.409795	-0.000012	0.113339
C19	C	0.525371	-0.048555	0.075362
C20	C	0.525402	0.048473	0.075336
C21	C	0.474873	-0.000041	0.034346
C22	C	0.669704	-0.000015	0.117966
C23	C	0.314798	-0.000014	0.111640
C24	C	1.049378	-0.561910	0.057687
C25	C	1.049383	-0.623830	0.057681
O26	O	1.097947	-0.655847	0.009106
N27	N	0.992261	-0.654807	0.114775
C28	C	0.935126	-0.623862	0.171873
O29	O	0.886540	-0.655896	0.220434
C30	C	0.935119	-0.561943	0.171874
C31	C	0.992249	-0.530968	0.114782
C32	C	1.106504	-0.530935	0.000600
C33	C	1.106500	-0.469020	0.000607
C34	C	1.049371	-0.438078	0.057702
C35	C	0.992246	-0.469053	0.114790
C36	C	0.877980	-0.530998	0.228967
C37	C	0.877977	-0.469075	0.228963
C38	C	0.935108	-0.438101	0.171872
C39	C	0.935113	-0.376196	0.171892
N40	N	0.992235	-0.345218	0.114799
C41	C	1.049364	-0.376160	0.057703
C42	C	0.935146	-0.753895	0.171865
C43	C	0.935157	-0.815813	0.171868
C44	C	1.049412	-0.815777	0.057675
C45	C	1.049404	-0.753858	0.057676
C46	C	0.992267	-0.722918	0.114771
C47	C	1.049353	-0.246132	0.057724
C48	C	1.049346	-0.184211	0.057739
C49	C	0.935088	-0.184253	0.171928
C50	C	0.935097	-0.246169	0.171917
C51	C	0.992232	-0.277107	0.114807
O52	O	0.886572	-0.344139	0.220441
O53	O	1.097934	-0.344118	0.009143
C54	C	1.145821	-0.000015	0.108649
C55	C	1.239069	-0.000012	0.110292
C56	C	0.998403	-0.000007	-0.038769
C57	C	0.996760	0.000000	-0.132018
N58	N	0.992283	0.153241	0.114769
C59	C	1.072682	-0.000012	-0.367793
C60	C	1.031751	0.048490	-0.418362
C61	C	0.993716	-0.000007	-0.302738
C62	C	1.031710	-0.048495	-0.418320
C63	C	0.990781	-0.000017	-0.467647
C64	C	0.952806	0.048534	-0.352079
C65	C	0.952777	-0.048494	-0.352033
C66	C	0.911788	0.000019	-0.402569
C67	C	0.995408	-0.000001	-0.207739
C68	C	0.989082	-0.000018	-0.562644
C69	C	0.986091	-0.000021	0.268379
C70	C	0.987734	-0.000024	0.361627
H71	H	0.525258	-0.000063	0.263261
H72	H	0.554364	0.089482	0.042005
C73	C	0.564303	-0.104011	0.030356
C74	C	0.660308	-0.114272	0.023653
C75	C	0.699240	-0.169727	-0.021348
C76	C	0.642167	-0.214921	-0.059646
C77	C	0.546156	-0.204661	-0.052944
C78	C	0.507224	-0.149206	-0.007943
H79	H	0.702562	-0.080816	0.052005
H80	H	0.770314	-0.177322	-0.026309
H81	H	0.670988	-0.255972	-0.092958
H82	H	0.503902	-0.238117	-0.081295
H83	H	0.436150	-0.141611	-0.002982
C84	C	0.907754	-0.103889	-0.312879
C85	C	0.900430	-0.113734	-0.216755
C86	C	0.855417	-0.169135	-0.177600
C87	C	0.817727	-0.214691	-0.234568
C88	C	0.825050	-0.204848	-0.330698
C89	C	0.870063	-0.149447	-0.369853
H90	H	0.928331	-0.080009	-0.174578
H91	H	0.849996	-0.176421	-0.106438
H92	H	0.784405	-0.255702	-0.205583
H93	H	0.797149	-0.238573	-0.372874
H94	H	0.875484	-0.142160	-0.441015
H95	H	0.430179	0.089466	0.187627
C96	C	0.454068	-0.000041	-0.057638
C97	C	0.484191	-0.051360	-0.117045
C98	C	0.463421	-0.051347	-0.209039
C99	C	0.412528	-0.000014	-0.241628
C100	C	0.382402	0.051309	-0.182221
C101	C	0.403172	0.051296	-0.090226
H102	H	0.521867	-0.089363	-0.092922
H103	H	0.485722	-0.089340	-0.253016
H104	H	0.397153	-0.000005	-0.309728
H105	H	0.344725	0.089312	-0.206344
H106	H	0.380870	0.089289	-0.046249
H107	H	1.065110	0.089494	-0.447323
H108	H	0.919486	0.089582	-0.323260
C109	C	0.815130	-0.565062	0.291764
C110	C	0.750902	-0.607629	0.258905
C111	C	0.688046	-0.641692	0.321703
C112	C	0.689419	-0.633188	0.417360
C113	C	0.753649	-0.590619	0.450224
C114	C	0.816504	-0.556555	0.387426
H115	H	0.749884	-0.613926	0.188089
H116	H	0.640499	-0.673204	0.297374
H117	H	0.642889	-0.658403	0.463847
H118	H	0.754667	-0.584322	0.521040
H119	H	0.864052	-0.525043	0.411754
C120	C	1.112191	-0.150140	-0.005068
C121	C	1.110800	-0.158638	-0.100724
C122	C	1.173641	-0.124569	-0.163530
C123	C	1.237873	-0.082001	-0.130679
C124	C	1.239267	-0.073501	-0.035019
C125	C	1.176426	-0.107570	0.027787
H126	H	1.063249	-0.190151	-0.125046
H127	H	1.172608	-0.130862	-0.234344
H128	H	1.284392	-0.056781	-0.177172
H129	H	1.286818	-0.041988	-0.010697
H130	H	1.177458	-0.101277	0.098601
H131	H	0.843715	0.000046	-0.418021
C132	C	1.112244	-0.719789	-0.005130
C133	C	1.110854	-0.728297	-0.100785
C134	C	1.173695	-0.694233	-0.163596
C135	C	1.237925	-0.651660	-0.130753
C136	C	1.239317	-0.643150	-0.035093
C137	C	1.176476	-0.677214	0.027718
H138	H	1.063305	-0.759814	-0.125101
H139	H	1.172664	-0.700533	-0.234409
H140	H	1.284443	-0.626443	-0.177249
H141	H	1.286866	-0.611633	-0.010777
H142	H	1.177507	-0.670914	0.098531
C143	C	1.076763	-0.103890	-0.457395
C144	C	1.170552	-0.114530	-0.447631
C145	C	1.215611	-0.169922	-0.486704
C146	C	1.166881	-0.214673	-0.535542
C147	C	1.073087	-0.204033	-0.545308
C148	C	1.028028	-0.148642	-0.506235
H149	H	1.206629	-0.081402	-0.411477
H150	H	1.285044	-0.177798	-0.479474
H151	H	1.200237	-0.255677	-0.564466
H152	H	1.037009	-0.237162	-0.581463
H153	H	0.958595	-0.140766	-0.513465
H154	H	0.430134	-0.089524	0.187664
H155	H	1.095876	-0.271315	0.011219
H156	H	1.153019	-0.443804	-0.045884
H157	H	1.153025	-0.556122	-0.045898
H158	H	0.831446	-0.443887	0.275456
C159	C	1.112250	-0.849821	-0.005137
C160	C	1.112245	-0.917929	-0.005136
C161	C	1.175079	-0.951975	-0.067943
C162	C	1.237918	-0.917913	-0.130752
C163	C	1.237926	-0.849801	-0.130755
C164	C	1.175092	-0.815755	-0.067948
H165	H	1.065726	-0.943147	0.041361
H166	H	1.175074	-1.002396	-0.067940
H167	H	1.284432	-0.943116	-0.177245
H168	H	1.284445	-0.824582	-0.177252
H169	H	1.175098	-0.765333	-0.067951
H170	H	1.140702	0.000037	-0.352179
H171	H	0.888644	-0.841028	0.218366
H172	H	0.888584	-0.271388	0.218414
H173	H	0.888577	-0.159051	0.218417
H174	H	0.888619	-0.728707	0.218364
