data_functionalizedCrystal
_audit_creation_method	'MofGen! by Chris Wilmer'
_symmetry_space_group_name_H-M	'P1'
_symmetry_Int_Tables_number	1
_symmetry_cell_setting	triclinic
loop_
_symmetry_equiv_pos_as_xyz
  x,y,z
_cell_length_a	12.645331
_cell_length_b	12.645330
_cell_length_c	12.645323
_cell_angle_alpha	89.974347
_cell_angle_beta	89.977324
_cell_angle_gamma	90.011364
loop_
_atom_site_label
_atom_site_type_symbol
_atom_site_fract_x
_atom_site_fract_y
_atom_site_fract_z
Zn1	Zn	1.620770	-0.422060	-0.599441
Zn2	Zn	1.620668	-0.599348	-0.422178
Zn3	Zn	1.443485	-0.422096	-0.422185
Zn4	Zn	1.443483	-0.599279	-0.599394
O5	O	1.532102	-0.510695	-0.510799
O6	O	1.769104	-0.445591	-0.575943
O7	O	1.597123	-0.575879	-0.273832
O8	O	1.467046	-0.273744	-0.445721
O9	O	1.769029	-0.575844	-0.445709
O10	O	1.597296	-0.273717	-0.575950
O11	O	1.466947	-0.445652	-0.273837
O12	O	1.295137	-0.445585	-0.445675
O13	O	1.467043	-0.575726	-0.747747
O14	O	1.295136	-0.575761	-0.575870
O15	O	1.597295	-0.445524	-0.747782
O16	O	1.597121	-0.747686	-0.445664
O17	O	1.466944	-0.747635	-0.575863
C18	C	1.256672	-0.510670	-0.510769
C19	C	1.138842	-0.510685	-0.510781
C20	C	0.971243	-0.428415	-0.429327
C21	C	1.093803	-0.428628	-0.428968
C22	C	1.094332	-0.622359	-0.480264
C23	C	0.971733	-0.621910	-0.479709
C24	C	0.971690	-0.482344	-0.623065
C25	C	1.094295	-0.479849	-0.622441
C26	C	1.532050	-0.786125	-0.510781
C27	C	1.532125	-0.903955	-0.510808
C28	C	1.614113	-0.948825	-0.428970
C29	C	1.613925	-1.071385	-0.428678
C30	C	1.420408	-1.071960	-0.480788
C31	C	1.420829	-0.949362	-0.480164
C32	C	1.560988	-0.949036	-0.622934
C33	C	1.563506	-1.071641	-0.622365
C34	C	1.808607	-0.510721	-0.510831
C35	C	1.926437	-0.510733	-0.510844
C36	C	1.532180	-0.510613	-0.787305
C37	C	1.532213	-0.510579	-0.905135
C38	C	1.532183	-0.234190	-0.510841
C39	C	1.532217	-0.116360	-0.510859
C40	C	1.450019	-0.592102	-1.072677
C41	C	1.450234	-0.592506	-0.950117
C42	C	1.643916	-0.540899	-0.949654
C43	C	1.643465	-0.541410	-1.072253
C44	C	1.503761	-0.398278	-1.072334
C45	C	1.501269	-0.398951	-0.949728
C46	C	1.532085	-0.510701	-0.235370
C47	C	1.532257	-0.510437	-0.117540
H48	H	0.943090	-0.645984	-0.397669
H49	H	1.595221	-0.918087	-0.346364
H50	H	1.124990	-0.646847	-0.399106
C51	C	1.133602	-0.368836	-0.653535
H52	H	1.176985	-0.341387	-0.598707
H53	H	1.074689	-0.323420	-0.663965
H54	H	1.173407	-0.373219	-0.717112
C55	C	1.133371	-0.453982	-0.316632
H56	H	1.208497	-0.454190	-0.316026
H57	H	1.107948	-0.521530	-0.295739
H58	H	1.108089	-0.401853	-0.268824
C59	C	1.488782	-1.112974	-0.709142
H60	H	1.437289	-1.158241	-0.678365
H61	H	1.528439	-1.151199	-0.760216
H62	H	1.454492	-1.054971	-0.742368
H63	H	1.697245	-0.919281	-0.447531
H64	H	1.357647	-0.919683	-0.537195
C65	C	1.133750	-0.707435	-0.557942
H66	H	1.177812	-0.675528	-0.609795
H67	H	1.074909	-0.739826	-0.591557
H68	H	1.172870	-0.759430	-0.520393
H69	H	1.501280	-0.920012	-0.683907
C70	C	1.674657	-1.110831	-0.653017
H71	H	1.693135	-1.083509	-0.720540
H72	H	1.674936	-1.185912	-0.655418
H73	H	1.724480	-1.087232	-0.602005
C74	C	0.929948	-0.374256	-0.660558
H75	H	0.884528	-0.345428	-0.608114
H76	H	0.891802	-0.382991	-0.724663
H77	H	0.987771	-0.327654	-0.672001
C78	C	1.588110	-1.111118	-0.316470
H79	H	1.577687	-1.052331	-0.270889
H80	H	1.645129	-1.152816	-0.290932
H81	H	1.525567	-1.152707	-0.318360
H82	H	1.419066	-0.376085	-0.920629
C83	C	0.931683	-0.707574	-0.556403
H84	H	0.856554	-0.707876	-0.556587
H85	H	0.956922	-0.774781	-0.534275
H86	H	0.956855	-0.692902	-0.625667
H87	H	1.367403	-0.573532	-0.920016
C88	C	1.135696	-0.554947	-0.708880
H89	H	1.180887	-0.606323	-0.677862
H90	H	1.174016	-0.515516	-0.760104
H91	H	1.077713	-0.589360	-0.741987
C92	C	1.134467	-0.316761	-0.454800
H93	H	1.209597	-0.316743	-0.454619
H94	H	1.109275	-0.268436	-0.403113
H95	H	1.109626	-0.296095	-0.522620
C96	C	1.475637	-0.704831	-0.910507
H97	H	1.485883	-0.750390	-0.969344
H98	H	1.418518	-0.730219	-0.868800
H99	H	1.538187	-0.703189	-0.868952
C100	C	1.387851	-0.910834	-0.369453
H101	H	1.374328	-0.970108	-0.325280
H102	H	1.325690	-0.869028	-0.374965
H103	H	1.443206	-0.869613	-0.339803
H104	H	1.357682	-1.101094	-0.538577
H105	H	1.366942	-0.573311	-1.102151
H106	H	0.942717	-0.542301	-0.683802
H107	H	1.696823	-1.101401	-0.447462
H108	H	1.395590	-1.102745	-0.399749
C109	C	1.669222	-0.907178	-0.659949
H110	H	1.697823	-0.861813	-0.607360
H111	H	1.660747	-0.868948	-0.724070
H112	H	1.715882	-0.964958	-0.671226
C113	C	0.931402	-0.316211	-0.454860
H114	H	0.887082	-0.318558	-0.515460
H115	H	0.990053	-0.271267	-0.468478
H116	H	0.892459	-0.289593	-0.396389
H117	H	1.667617	-0.623400	-1.100862
H118	H	1.468648	-0.674731	-1.103495
H119	H	1.706817	-0.484511	-1.101932
H120	H	1.556791	-0.334889	-0.919107
H121	H	1.706833	-0.483299	-0.920520
C122	C	1.677103	-0.650503	-0.908210
H123	H	1.623043	-0.677931	-0.863788
H124	H	1.740891	-0.644210	-0.869062
H125	H	1.687825	-0.696996	-0.966221
H126	H	1.423726	-0.370640	-1.103239
H127	H	1.563660	-0.337434	-1.101349
H128	H	0.940397	-0.446970	-0.346656
