data_functionalizedCrystal
_audit_creation_method	'MofGen! by Chris Wilmer'
_symmetry_space_group_name_H-M	'P1'
_symmetry_Int_Tables_number	1
_symmetry_cell_setting	triclinic
loop_
_symmetry_equiv_pos_as_xyz
  x,y,z
_cell_length_a	19.805407
_cell_length_b	14.908520
_cell_length_c	19.805399
_cell_angle_alpha	93.270609
_cell_angle_beta	89.980427
_cell_angle_gamma	93.320773
loop_
_atom_site_label
_atom_site_type_symbol
_atom_site_fract_x
_atom_site_fract_y
_atom_site_fract_z
Zn1	Zn	1.019204	-0.359181	-0.398269
Zn2	Zn	1.012594	-0.510047	-0.291612
Zn3	Zn	0.906017	-0.359206	-0.285095
Zn4	Zn	0.899460	-0.509999	-0.404757
O5	O	0.959319	-0.434608	-0.344934
O6	O	1.113043	-0.379203	-0.384134
O7	O	0.998435	-0.490068	-0.196033
O8	O	0.926542	-0.232958	-0.294665
O9	O	1.108187	-0.490044	-0.305773
O10	O	1.009699	-0.232939	-0.377814
O11	O	0.920133	-0.379246	-0.191244
O12	O	0.810431	-0.379199	-0.300956
O13	O	0.915366	-0.489962	-0.498612
O14	O	0.805614	-0.489986	-0.388871
O15	O	1.003341	-0.379157	-0.493845
O16	O	0.992077	-0.636286	-0.312064
O17	O	0.908957	-0.636250	-0.395191
C18	C	0.783463	-0.434591	-0.344911
C19	C	0.708231	-0.434605	-0.344918
C20	C	0.670392	-0.492379	-0.390629
C21	C	0.599704	-0.492380	-0.390639
C22	C	0.566855	-0.434612	-0.344934
C23	C	0.604699	-0.376832	-0.299220
C24	C	0.675386	-0.376827	-0.299214
C25	C	0.319625	-0.376852	-0.299244
C26	C	0.248932	-0.376864	-0.299252
C27	C	0.243942	-0.492406	-0.390668
C28	C	0.314629	-0.492400	-0.390662
C29	C	0.352467	-0.434618	-0.344952
C30	C	0.429116	-0.434615	-0.344943
C31	C	0.490208	-0.434618	-0.344939
C32	C	0.949107	-0.669002	-0.355053
C33	C	0.944800	-0.769277	-0.359405
C34	C	1.023348	-0.957679	-0.281093
C35	C	1.019304	-1.051896	-0.285180
C36	C	0.932671	-1.051929	-0.371669
C37	C	0.936715	-0.957712	-0.367582
C38	C	0.982055	-0.910590	-0.322292
C39	C	0.986095	-0.816372	-0.318202
C40	C	0.899466	-0.816407	-0.404694
C41	C	0.895421	-0.910624	-0.408781
C42	C	1.135861	-0.434626	-0.344957
C43	C	1.211092	-0.434634	-0.344967
C44	C	0.959359	-0.434551	-0.521474
C45	C	0.959376	-0.434527	-0.596705
C46	C	0.969589	-0.199299	-0.334789
C47	C	0.973966	-0.099024	-0.330466
C48	C	1.005186	-0.376828	-0.629568
C49	C	1.005194	-0.376802	-0.700255
C50	C	0.959395	-0.434480	-0.738078
C51	C	0.913581	-0.492182	-0.705210
C52	C	0.913570	-0.492203	-0.634524
C53	C	0.913622	-0.492098	-0.990280
C54	C	0.913638	-0.492074	-1.060971
C55	C	1.005247	-0.376697	-1.056011
C56	C	1.005236	-0.376718	-0.985325
C57	C	0.959419	-0.434416	-0.952463
C58	C	0.959410	-0.434442	-0.875816
C59	C	0.959407	-0.434459	-0.814725
C60	C	0.959320	-0.434600	-0.169077
C61	C	0.959445	-0.434370	-0.093836
H62	H	0.697132	-0.539423	-0.427846
H63	H	0.876288	-0.539141	-0.736011
N64	N	0.558894	-0.554706	-0.439935
H65	H	0.531173	-0.518111	-0.469776
H66	H	0.590476	-0.591291	-0.468836
N67	N	1.035000	-0.765551	-0.269358
H68	H	1.068027	-0.726402	-0.295200
H69	H	1.009144	-0.726570	-0.236278
H70	H	1.052931	-1.090232	-0.251633
N71	N	0.846520	-0.961457	-0.457622
H72	H	0.798868	-0.945125	-0.446349
H73	H	0.857760	-0.944991	-0.505262
N74	N	0.883776	-1.102765	-0.420515
H75	H	0.836121	-1.086440	-0.409249
H76	H	0.895022	-1.086296	-0.468153
N77	N	1.054664	-0.314460	-1.091455
H78	H	1.047722	-0.323193	-1.141974
H79	H	1.046942	-0.250032	-1.076318
H80	H	0.341371	-0.539444	-0.427878
H81	H	0.865840	-0.778057	-0.438239
N82	N	1.054631	-0.314507	-0.944529
H83	H	1.084392	-0.351182	-0.916788
H84	H	1.083607	-0.277960	-0.976116
N85	N	1.072239	-0.906847	-0.232241
H86	H	1.097783	-0.950975	-0.206758
H87	H	1.105227	-0.867696	-0.258123
H88	H	0.876260	-0.539178	-0.607768
H89	H	1.042483	-0.329862	-0.598777
N90	N	0.716199	-0.314520	-0.249906
H91	H	0.765963	-0.323280	-0.256838
H92	H	0.706652	-0.250109	-0.257740
H93	H	0.876340	-0.539044	-1.091765
N94	N	0.203134	-0.554723	-0.439980
H95	H	0.212625	-0.619161	-0.432165
H96	H	0.153384	-0.545887	-0.433029
H97	H	0.222189	-0.329817	-0.262033
H98	H	1.042499	-0.329820	-0.727009
N99	N	0.864188	-0.554296	-0.954840
H100	H	0.835172	-0.590822	-0.989528
H101	H	0.889886	-0.596070	-0.927302
N102	N	0.569275	-0.314530	-0.249916
H103	H	0.580960	-0.328463	-0.202143
H104	H	0.584401	-0.250112	-0.257780
N105	N	0.360431	-0.314518	-0.249954
H106	H	0.328893	-0.277923	-0.221004
H107	H	0.388159	-0.351165	-0.220161
