data_functionalizedCrystal
_audit_creation_method	'MofGen! by Chris Wilmer'
_symmetry_space_group_name_H-M	'P1'
_symmetry_Int_Tables_number	1
_symmetry_cell_setting	triclinic
loop_
_symmetry_equiv_pos_as_xyz
  x,y,z
_cell_length_a	17.639181
_cell_length_b	19.805405
_cell_length_c	19.805399
_cell_angle_alpha	90.027486
_cell_angle_beta	101.207130
_cell_angle_gamma	101.164711
loop_
_atom_site_label
_atom_site_type_symbol
_atom_site_fract_x
_atom_site_fract_y
_atom_site_fract_z
Zn1	Zn	1.208182	0.478433	-0.173132
Zn2	Zn	1.708182	0.978433	0.326868
Zn3	Zn	1.208080	0.591604	-0.059961
Zn4	Zn	1.708080	1.091604	0.440039
Zn5	Zn	1.076023	0.455595	-0.082882
Zn6	Zn	1.576023	0.955595	0.417118
Zn7	Zn	1.075978	0.568721	-0.196024
Zn8	Zn	1.575978	1.068721	0.303976
O9	O	1.142066	0.523588	-0.128000
O10	O	1.642066	1.023588	0.372000
O11	O	1.318763	0.512580	-0.138946
O12	O	1.818763	1.012580	0.361054
O13	O	1.190538	0.573581	0.031711
O14	O	1.690538	1.073581	0.531711
O15	O	1.093617	0.363919	-0.094866
O16	O	1.593617	0.863919	0.405134
O17	O	1.318687	0.595726	-0.055800
O18	O	1.818687	1.095726	0.444200
O19	O	1.190713	0.380698	-0.161172
O20	O	1.690713	0.880698	0.338828
O21	O	1.093517	0.473656	0.014871
O22	O	1.593517	0.973656	0.514871
O23	O	0.965423	0.451467	-0.117064
O24	O	1.465423	0.951467	0.382936
O25	O	1.093539	0.556725	-0.287700
O26	O	1.593539	1.056725	0.212300
O27	O	0.965390	0.534580	-0.200189
O28	O	1.465390	1.034580	0.299811
O29	O	1.190669	0.490391	-0.270881
O30	O	1.690669	0.990391	0.229119
O31	O	1.190494	0.683274	-0.077999
O32	O	1.690494	1.183274	0.422001
O33	O	1.093439	0.666462	-0.177964
O34	O	1.593439	1.166462	0.322036
C35	C	0.936731	0.488063	-0.163598
C36	C	1.436731	0.988063	0.336402
C37	C	0.848888	0.472881	-0.178844
C38	C	1.348888	0.972881	0.321156
C39	C	0.559815	0.639072	-0.012192
C40	C	1.059815	1.139072	0.487808
C41	C	0.477273	0.624797	-0.026523
C42	C	0.977273	1.124797	0.473477
C43	C	0.477351	0.538357	-0.113231
C44	C	0.977351	1.038357	0.386769
C45	C	0.559894	0.552622	-0.098905
C46	C	1.059894	1.052622	0.401095
C47	C	0.601120	0.602981	-0.048385
C48	C	1.101120	1.102981	0.451615
C49	C	0.601199	0.516531	-0.135099
C50	C	1.101199	1.016531	0.364901
C51	C	0.683736	0.530798	-0.120776
C52	C	1.183736	1.030798	0.379224
C53	C	0.724967	0.581156	-0.070260
C54	C	1.224967	1.081156	0.429740
C55	C	0.683657	0.617248	-0.034063
C56	C	1.183657	1.117248	0.465937
C57	C	0.559972	0.466176	-0.185622
C58	C	1.059972	0.966176	0.314378
C59	C	0.601277	0.430085	-0.221815
C60	C	1.101277	0.930085	0.278185
C61	C	0.683815	0.444348	-0.207489
C62	C	1.183815	0.944348	0.292511
C63	C	0.725046	0.494706	-0.156973
C64	C	1.225046	0.994706	0.343027
C65	C	0.725125	0.408256	-0.243686
C66	C	1.225125	0.908256	0.256314
C67	C	0.807662	0.422522	-0.229363
C68	C	1.307662	0.922522	0.270637
C69	C	0.807583	0.508972	-0.142650
C70	C	1.307583	1.008972	0.357350
C71	C	1.141972	0.699428	-0.127989
C72	C	1.641972	1.199428	0.372011
C73	C	1.142004	0.774666	-0.127994
C74	C	1.642004	1.274666	0.372006
C75	C	1.192589	0.818750	-0.075981
C76	C	1.692589	1.318750	0.424019
C77	C	1.192620	0.889444	-0.075993
C78	C	1.692620	1.389444	0.424007
C79	C	1.142063	0.916051	-0.128016
C80	C	1.642063	1.416051	0.371984
C81	C	1.091476	0.871962	-0.180035
C82	C	1.591476	1.371962	0.319965
C83	C	1.091449	0.801270	-0.180025
C84	C	1.591449	1.301270	0.319975
C85	C	1.091585	1.157054	-0.180075
C86	C	1.591585	1.657054	0.319925
C87	C	1.091615	1.227751	-0.180079
C88	C	1.591615	1.727751	0.319921
C89	C	1.192757	1.245228	-0.076042
C90	C	1.692757	1.745228	0.423958
C91	C	1.192729	1.174536	-0.076033
C92	C	1.692729	1.674536	0.423967
C93	C	1.142146	1.130453	-0.128053
C94	C	1.642146	1.630453	0.371947
C95	C	1.142113	1.053799	-0.128041
C96	C	1.642113	1.553799	0.371959
C97	C	1.142091	0.992703	-0.128026
C98	C	1.642091	1.492703	0.371974
C99	C	1.348202	0.559253	-0.092263
C100	C	1.848202	1.059253	0.407737
C101	C	1.436046	0.574451	-0.077034
C102	C	1.936046	1.074451	0.422966
C103	C	1.142110	0.523553	-0.304535
C104	C	1.642110	1.023553	0.195465
C105	C	1.142129	0.523539	-0.379764
C106	C	1.642129	1.023539	0.120236
C107	C	1.142175	1.347064	-0.128031
C108	C	1.642175	1.847064	0.371969
C109	C	1.142204	1.271837	-0.128068
C110	C	1.642204	1.771837	0.371932
C111	C	1.192706	0.488996	-0.406351
C112	C	1.692706	0.988996	0.093649
C113	C	1.192714	0.488978	-0.477038
C114	C	1.692714	0.988978	0.022962
C115	C	1.142149	0.523507	-0.521136
C116	C	1.642149	1.023507	-0.021136
C117	C	1.091566	0.558050	-0.494545
C118	C	1.591566	1.058050	0.005455
C119	C	1.091555	0.558063	-0.423860
C120	C	1.591555	1.058063	0.076140
C121	C	1.091611	0.557994	-0.779610
C122	C	1.591611	1.057994	-0.279610
C123	C	1.091628	0.557980	-0.850300
C124	C	1.591628	1.057980	-0.350300
C125	C	1.192770	0.488909	-0.832789
C126	C	1.692770	0.988909	-0.332789
C127	C	1.192758	0.488923	-0.762104
C128	C	1.692758	0.988923	-0.262104
C129	C	1.142174	0.523463	-0.735519
C130	C	1.642174	1.023463	-0.235519
C131	C	1.142164	0.523481	-0.658872
C132	C	1.642164	1.023481	-0.158872
C133	C	1.142161	0.523493	-0.597781
C134	C	1.642161	1.023493	-0.097781
C135	C	1.142067	0.523582	0.047856
C136	C	1.642067	1.023582	0.547856
C137	C	1.142201	0.523433	0.123111
C138	C	1.642201	1.023433	0.623111
H139	H	0.717225	0.658250	0.007080
H140	H	1.217225	1.158250	0.507080
H141	H	0.567699	0.389085	-0.262950
H142	H	1.067699	0.889085	0.237050
H143	H	1.050392	0.586160	-0.530456
H144	H	1.550392	1.086160	-0.030456
O145	O	1.042550	0.591653	-0.753816
O146	O	1.542550	1.091653	-0.253816
C147	C	1.004037	0.700119	-0.738881
C148	C	1.504037	1.200119	-0.238881
C149	C	1.059670	0.662092	-0.768110
C150	C	1.559670	1.162092	-0.268110
H151	H	1.017848	0.757073	-0.750439
H152	H	1.517848	1.257073	-0.250439
H153	H	1.012698	0.694260	-0.680778
H154	H	1.512698	1.194260	-0.180778
H155	H	0.940334	0.677160	-0.763831
H156	H	1.440334	1.177160	-0.263831
H157	H	1.123394	0.685025	-0.743213
H158	H	1.623394	1.185025	-0.243213
H159	H	1.050942	0.667949	-0.826215
H160	H	1.550942	1.167949	-0.326215
O161	O	0.437234	0.659967	0.008620
O162	O	0.937234	1.159967	0.508620
C163	C	0.411875	0.770677	0.037246
C164	C	0.911875	1.270677	0.537246
C165	C	0.457283	0.730935	-0.002569
C166	C	0.957283	1.230935	0.497431
H167	H	0.428054	0.828061	0.028202
H168	H	0.928054	1.328061	0.528202
H169	H	0.428095	0.761583	0.094630
H170	H	0.928095	1.261583	0.594630
H171	H	0.345806	0.751796	0.018343
H172	H	0.845806	1.251796	0.518343
H173	H	0.523362	0.749792	0.016276
H174	H	1.023362	1.249792	0.516276
H175	H	0.440996	0.740030	-0.059946
H176	H	0.940996	1.240030	0.440054
H177	H	0.593384	0.680075	0.028951
H178	H	1.093384	1.180075	0.528951
H179	H	1.233900	0.460853	-0.498681
H180	H	1.733900	0.960853	0.001319
O181	O	1.042390	0.897916	-0.230502
O182	O	1.542390	1.397916	0.269498
C183	C	0.997633	0.999077	-0.276648
C184	C	1.497633	1.499077	0.223352
C185	C	1.053254	0.969777	-0.219444
C186	C	1.553254	1.469777	0.280556
H187	H	1.006410	1.057182	-0.267735
H188	H	1.506410	1.557182	0.232265
H189	H	0.933893	0.974256	-0.275764
H190	H	1.433893	1.474256	0.224236
H191	H	1.011460	0.987484	-0.328828
H192	H	1.511460	1.487484	0.171172
H193	H	1.039499	0.981361	-0.167235
H194	H	1.539499	1.481361	0.332765
H195	H	1.116978	0.994598	-0.220389
H196	H	1.616978	1.494598	0.279611
H197	H	1.233936	0.460809	-0.726201
H198	H	1.733936	0.960809	-0.226201
O199	O	0.437178	0.489440	-0.162260
O200	O	0.937178	0.989440	0.337740
C201	C	0.310062	0.429175	-0.222784
C202	C	0.810062	0.929175	0.277216
C203	C	0.355456	0.484582	-0.167232
C204	C	0.855456	0.984582	0.332768
H205	H	0.243981	0.425239	-0.226832
H206	H	0.743981	0.925239	0.273168
H207	H	0.326248	0.377366	-0.208180
H208	H	0.826248	0.877366	0.291820
H209	H	0.326360	0.443936	-0.274505
H210	H	0.826360	0.943936	0.225495
H211	H	0.339182	0.469885	-0.115490
H212	H	0.839182	0.969885	0.384510
H213	H	0.339265	0.536376	-0.181895
H214	H	0.839265	1.036376	0.318105
O215	O	1.241705	0.932382	-0.025532
O216	O	1.741705	1.432382	0.474468
C217	C	1.252629	1.014266	0.067588
C218	C	1.752629	1.514266	0.567588
C219	C	1.196910	0.965637	0.010511
C220	C	1.696910	1.465637	0.510511
H221	H	1.216433	1.041155	0.096754
H222	H	1.716433	1.541155	0.596754
H223	H	1.293858	1.054434	0.043535
H224	H	1.793858	1.554434	0.543535
H225	H	1.288851	0.983168	0.104763
H226	H	1.788851	1.483168	0.604763
H227	H	1.160636	0.996678	-0.026684
H228	H	1.660636	1.496678	0.473316
H229	H	1.155733	0.925469	0.034612
H230	H	1.655733	1.425469	0.534612
O231	O	0.847913	0.387548	-0.264475
O232	O	1.347913	0.887548	0.235525
C233	C	0.975103	0.371188	-0.280805
C234	C	1.475103	0.871188	0.219195
C235	C	0.929618	0.410857	-0.240999
C236	C	1.429618	0.910857	0.259001
H237	H	1.041170	0.390009	-0.261831
H238	H	1.541170	0.890009	0.238169
H239	H	0.958957	0.380352	-0.338180
H240	H	1.458957	0.880352	0.161820
H241	H	0.958848	0.313793	-0.271843
H242	H	1.458848	0.813793	0.228157
H243	H	0.945848	0.468264	-0.249905
H244	H	1.445848	0.968264	0.250095
H245	H	0.945768	0.401636	-0.183638
H246	H	1.445768	0.901636	0.316362
O247	O	1.241889	1.288154	-0.025589
O248	O	1.741889	1.788154	0.474411
C249	C	1.286760	1.404804	0.020513
C250	C	1.786760	1.904804	0.520513
C251	C	1.231088	1.356272	-0.036668
C252	C	1.731088	1.856272	0.463332
H253	H	1.278036	1.459885	0.011584
H254	H	1.778036	1.959885	0.511584
H255	H	1.350484	1.401913	0.019620
H256	H	1.850484	1.901913	0.519620
H257	H	1.272937	1.388529	0.072704
H258	H	1.772937	1.888529	0.572704
H259	H	1.244840	1.372513	-0.088887
H260	H	1.744840	1.872513	0.411113
H261	H	1.167381	1.359169	-0.035714
H262	H	1.667381	1.859169	0.464286
O263	O	0.684952	0.359343	-0.292719
O264	O	1.184952	0.859343	0.207281
C265	C	0.557833	0.299090	-0.353250
C266	C	1.057833	0.799090	0.146750
C267	C	0.603229	0.354490	-0.297692
C268	C	1.103229	0.854490	0.202308
H269	H	0.491753	0.295159	-0.357299
H270	H	0.991753	0.795159	0.142701
H271	H	0.574014	0.247278	-0.338653
H272	H	1.074014	0.747278	0.161347
H273	H	0.574134	0.313857	-0.404969
H274	H	1.074134	0.813857	0.095031
H275	H	0.586953	0.339788	-0.245952
H276	H	1.086953	0.839788	0.254048
H277	H	0.587045	0.406287	-0.312348
H278	H	1.087045	0.906287	0.187652
H279	H	1.233895	1.152874	-0.033669
H280	H	1.733895	1.652874	0.466331
H281	H	0.841151	0.549975	-0.101508
H282	H	1.341151	1.049975	0.398492
H283	H	1.050397	1.121167	-0.222431
H284	H	1.550397	1.621167	0.277569
H285	H	0.492765	0.454564	-0.197283
H286	H	0.992765	0.954564	0.302717
H287	H	0.792174	0.592765	-0.058593
H288	H	1.292174	1.092765	0.441407
H289	H	1.233755	0.797091	-0.033615
H290	H	1.733755	1.297091	0.466385
H291	H	1.233956	0.460782	-0.854443
H292	H	1.733956	0.960782	-0.354443
H293	H	1.050446	1.249413	-0.222448
H294	H	1.550446	1.749413	0.277552
H295	H	1.233884	0.460882	-0.370450
H296	H	1.733884	0.960882	0.129550
H297	H	1.050259	0.765377	-0.222380
H298	H	1.550259	1.265377	0.277620
O299	O	1.042616	0.591613	-0.893148
O300	O	1.542616	1.091613	-0.393148
C301	C	1.031937	0.681103	-0.974813
C302	C	1.531937	1.181103	-0.474813
C303	C	1.087526	0.643083	-0.926305
C304	C	1.587526	1.143083	-0.426305
H305	H	1.068223	0.722716	-1.001644
H306	H	1.568223	1.222716	-0.501644
H307	H	0.995794	0.705843	-0.943697
H308	H	1.495794	1.205843	-0.443697
H309	H	0.990628	0.642858	-1.015047
H310	H	1.490628	1.142858	-0.515047
H311	H	1.128883	0.681284	-0.886061
H312	H	1.628883	1.181284	-0.386061
H313	H	1.123613	0.618331	-0.957466
H314	H	1.623613	1.118331	-0.457466
O315	O	1.042409	0.591687	-0.398138
O316	O	1.542409	1.091687	0.101862
C317	C	0.942073	0.660182	-0.422964
C318	C	1.442073	1.160182	0.077036
C319	C	0.997702	0.622140	-0.452182
C320	C	1.497702	1.122140	0.047818
H321	H	0.905901	0.684801	-0.466647
H322	H	1.405901	1.184801	0.033353
H323	H	0.978300	0.701891	-0.383606
H324	H	1.478300	1.201891	0.116394
H325	H	0.900794	0.621969	-0.397009
H326	H	1.400794	1.121969	0.102991
H327	H	1.038992	0.660300	-0.478172
H328	H	1.538992	1.160300	0.021828
H329	H	0.961425	0.580421	-0.491506
H330	H	1.461425	1.080421	0.008494
