data_functionalizedCrystal
_audit_creation_method	'MofGen! by Chris Wilmer'
_symmetry_space_group_name_H-M	'P1'
_symmetry_Int_Tables_number	1
_symmetry_cell_setting	triclinic
loop_
_symmetry_equiv_pos_as_xyz
  x,y,z
_cell_length_a	14.908782
_cell_length_b	16.625545
_cell_length_c	14.908694
_cell_angle_alpha	93.268702
_cell_angle_beta	90.174534
_cell_angle_gamma	86.732496
loop_
_atom_site_label
_atom_site_type_symbol
_atom_site_fract_x
_atom_site_fract_y
_atom_site_fract_z
Zn1	Zn	1.403847	-0.415459	-0.428928
Zn2	Zn	1.395062	-0.542099	-0.278578
Zn3	Zn	1.244822	-0.399990	-0.287279
Zn4	Zn	1.253447	-0.542948	-0.437576
O5	O	1.324294	-0.475124	-0.358091
O6	O	1.528501	-0.438376	-0.401723
O7	O	1.367845	-0.516419	-0.153911
O8	O	1.265984	-0.289214	-0.306091
O9	O	1.522046	-0.531419	-0.291262
O10	O	1.382820	-0.300579	-0.410160
O11	O	1.257465	-0.412012	-0.160304
O12	O	1.120146	-0.412835	-0.314478
O13	O	1.280684	-0.532865	-0.562251
O14	O	1.126483	-0.517865	-0.424900
O15	O	1.391183	-0.439199	-0.555897
O16	O	1.376209	-0.655040	-0.299648
O17	O	1.272165	-0.655663	-0.416463
C18	C	1.090691	-0.463764	-0.371572
C19	C	0.990756	-0.458925	-0.377361
C20	C	0.796234	-0.546566	-0.273040
C21	C	0.702336	-0.542022	-0.278476
C22	C	0.709060	-0.445297	-0.393673
C23	C	0.802959	-0.449842	-0.388237
C24	C	0.846542	-0.500477	-0.327917
C25	C	0.940442	-0.505016	-0.322477
C26	C	0.947164	-0.408297	-0.437679
C27	C	0.853266	-0.403752	-0.443115
C28	C	1.324195	-0.684608	-0.358068
C29	C	1.324237	-0.774233	-0.358083
C30	C	1.324272	-0.847018	-0.358099
C31	C	1.324326	-0.938330	-0.358116
C32	C	1.324373	-1.011109	-0.358125
C33	C	1.324426	-1.102427	-0.358140
C34	C	1.558809	-0.486528	-0.344557
C35	C	1.658746	-0.491388	-0.338790
C36	C	1.337876	-0.487852	-0.592610
C37	C	1.343663	-0.493276	-0.692548
C38	C	1.324420	-0.264824	-0.358132
C39	C	1.324473	-0.175206	-0.358149
C40	C	1.239578	-0.394751	-0.887002
C41	C	1.245013	-0.399844	-0.980904
C42	C	1.359963	-0.508561	-0.974254
C43	C	1.354528	-0.503467	-0.880353
C44	C	1.294335	-0.446559	-0.836730
C45	C	1.288905	-0.441462	-0.742827
C46	C	1.403849	-0.550182	-0.736179
C47	C	1.409284	-0.555275	-0.830080
C48	C	1.310818	-0.462389	-0.124480
C49	C	1.305204	-0.456747	-0.024533
H50	H	0.975926	-0.546244	-0.273360
H51	H	0.831720	-0.587790	-0.223919
H52	H	0.661379	-0.579554	-0.233790
H53	H	0.673559	-0.404080	-0.442790
Br54	Br	0.794109	-0.335043	-0.524980
H55	H	1.458289	-0.601610	-0.865611
Br56	Br	1.015443	-0.345731	-0.512148
Br57	Br	1.207220	-0.364229	-0.683625
Br58	Br	1.441630	-0.585799	-1.033472
Br59	Br	1.157903	-0.317512	-0.827795
Br60	Br	1.170693	-0.329535	-1.049129
Br61	Br	1.478170	-0.620494	-0.667948
