data_functionalizedCrystal
_audit_creation_method	'MofGen! by Chris Wilmer'
_symmetry_space_group_name_H-M	'P1'
_symmetry_Int_Tables_number	1
_symmetry_cell_setting	triclinic
loop_
_symmetry_equiv_pos_as_xyz
  x,y,z
_cell_length_a	21.295418
_cell_length_b	21.295417
_cell_length_c	21.295411
_cell_angle_alpha	89.978356
_cell_angle_beta	89.956262
_cell_angle_gamma	90.046319
loop_
_atom_site_label
_atom_site_type_symbol
_atom_site_fract_x
_atom_site_fract_y
_atom_site_fract_z
Zn1	Zn	-0.962356	0.250415	0.356234
Zn2	Zn	-0.462356	0.750415	0.856234
Zn3	Zn	-0.962258	0.355667	0.250959
Zn4	Zn	-0.462258	0.855667	0.750959
Zn5	Zn	-0.857079	0.250445	0.250943
Zn6	Zn	-0.357079	0.750445	0.750943
Zn7	Zn	-0.857048	0.355680	0.356155
Zn8	Zn	-0.357048	0.855680	0.856155
O9	O	-0.909685	0.303052	0.303573
O10	O	-0.409685	0.803052	0.803573
O11	O	-1.050432	0.264360	0.342308
O12	O	-0.550432	0.764360	0.842308
O13	O	-0.948278	0.341716	0.162867
O14	O	-0.448278	0.841716	0.662867
O15	O	-0.871098	0.162351	0.264937
O16	O	-0.371098	0.662351	0.764937
O17	O	-1.050361	0.341688	0.264963
O18	O	-0.550361	0.841688	0.764963
O19	O	-0.948444	0.162330	0.342293
O20	O	-0.448444	0.662330	0.842293
O21	O	-0.871003	0.264410	0.162856
O22	O	-0.371003	0.764410	0.662856
O23	O	-0.768985	0.264422	0.264861
O24	O	-0.268985	0.764422	0.764861
O25	O	-0.871046	0.341709	0.444255
O26	O	-0.371046	0.841709	0.944255
O27	O	-0.768963	0.341738	0.342160
O28	O	-0.268963	0.841738	0.842160
O29	O	-0.948415	0.264372	0.444313
O30	O	-0.448415	0.764372	0.944313
O31	O	-0.948248	0.443758	0.264887
O32	O	-0.448248	0.943758	0.764887
O33	O	-0.870951	0.443767	0.342175
O34	O	-0.370951	0.943767	0.842175
C35	C	-0.909603	0.466603	0.303538
C36	C	-0.409603	0.966603	0.803538
C37	C	-0.909625	0.536571	0.303544
C38	C	-0.409625	1.036571	0.803544
C39	C	-0.746134	0.303085	0.303500
C40	C	-0.246134	0.803085	0.803500
C41	C	-0.676166	0.303114	0.303484
C42	C	-0.176166	0.803114	0.803484
C43	C	-1.073876	0.303019	0.303646
C44	C	-0.573876	0.803019	0.803646
C45	C	-1.143844	0.303005	0.303677
C46	C	-0.643844	0.803005	0.803677
C47	C	-0.643304	0.343426	0.343674
C48	C	-0.143304	0.843426	0.843674
C49	C	-0.577561	0.343410	0.343702
C50	C	-0.077561	0.843410	0.843702
C51	C	-0.544683	0.303090	0.303530
C52	C	-0.044683	0.803090	0.803530
C53	C	-0.577553	0.262770	0.263337
C54	C	-0.077553	0.762770	0.763337
C55	C	-0.643294	0.262783	0.263315
C56	C	-0.143294	0.762783	0.763315
N57	N	-0.441407	0.298163	0.248472
N58	N	0.058593	0.798163	0.748472
N59	N	-0.378956	0.298155	0.248495
N60	N	0.121044	0.798155	0.748495
C61	C	-0.346608	0.303050	0.303596
C62	C	0.153392	0.803050	0.803596
N63	N	-0.379072	0.307965	0.358675
N64	N	0.120928	0.807965	0.858675
N65	N	-0.441529	0.307976	0.358650
N66	N	0.058471	0.807976	0.858650
C67	C	-0.473398	0.303072	0.303550
C68	C	0.026602	0.803072	0.803550
C69	C	-0.242461	0.343346	0.343820
C70	C	0.257539	0.843346	0.843820
C71	C	-0.176717	0.343326	0.343849
C72	C	0.323283	0.843326	0.843849
C73	C	-0.176710	0.262690	0.263479
C74	C	0.323290	0.762690	0.763479
C75	C	-0.242453	0.262707	0.263455
C76	C	0.257547	0.762707	0.763455
C77	C	-0.275324	0.303038	0.303625
C78	C	0.224676	0.803038	0.803625
C79	C	-0.909738	0.303038	0.467763
C80	C	-0.409738	0.803038	0.967763
C81	C	-0.909760	0.303033	0.537731
C82	C	-0.409760	0.803033	1.037731
C83	C	-0.909785	0.138861	0.303622
C84	C	-0.409785	0.638861	0.803622
C85	C	-0.909828	0.068893	0.303642
C86	C	-0.409828	0.568893	0.803642
C87	C	-0.949910	0.569412	0.263342
C88	C	-0.449910	1.069412	0.763342
C89	C	-0.949939	0.635155	0.263356
C90	C	-0.449939	1.135155	0.763356
C91	C	-0.909673	0.668054	0.303566
C92	C	-0.409673	1.168054	0.803566
C93	C	-0.869386	0.635205	0.343776
C94	C	-0.369386	1.135205	0.843776
C95	C	-0.869362	0.569464	0.343765
C96	C	-0.369362	1.069464	0.843765
N97	N	-0.854606	0.771336	0.308340
N98	N	-0.354606	1.271336	0.808340
N99	N	-0.854630	0.833787	0.308347
N100	N	-0.354630	1.333787	0.808347
C101	C	-0.909743	0.866129	0.303602
C102	C	-0.409743	1.366129	0.803602
N103	N	-0.964832	0.833659	0.298838
N104	N	-0.464832	1.333659	0.798838
N105	N	-0.964807	0.771202	0.298828
N106	N	-0.464807	1.271202	0.798828
C107	C	-0.909695	0.739339	0.303582
C108	C	-0.409695	1.239339	0.803582
C109	C	-0.950063	0.970255	0.263413
C110	C	-0.450063	1.470255	0.763413
C111	C	-0.950094	1.035999	0.263431
C112	C	-0.450094	1.535999	0.763431
C113	C	-0.869535	1.036048	0.343848
C114	C	-0.369535	1.536048	0.843848
C115	C	-0.869510	0.970305	0.343833
C116	C	-0.369510	1.470305	0.843833
C117	C	-0.909773	0.937413	0.303612
C118	C	-0.409773	1.437413	0.803612
C119	C	-0.909670	0.303019	0.140021
C120	C	-0.409670	0.803019	0.640021
C121	C	-0.909769	0.302848	0.070054
C122	C	-0.409769	0.802848	0.570054
C123	C	-0.950044	0.262761	0.570629
C124	C	-0.450044	0.762761	1.070629
C125	C	-0.950043	0.262734	0.636371
C126	C	-0.450043	0.762734	1.136371
C127	C	-0.909765	0.302989	0.669214
C128	C	-0.409765	0.802989	1.169214
C129	C	-0.869473	0.343263	0.636308
C130	C	-0.369473	0.843263	1.136308
C131	C	-0.869470	0.343285	0.570567
C132	C	-0.369470	0.843285	1.070567
N133	N	-0.904908	0.358058	0.772428
N134	N	-0.404908	0.858058	1.272428
N135	N	-0.904914	0.358036	0.834879
N136	N	-0.404914	0.858036	1.334879
C137	C	-0.909769	0.302926	0.867289
C138	C	-0.409769	0.802926	1.367289
N139	N	-0.914629	0.247837	0.834888
N140	N	-0.414629	0.747837	1.334888
N141	N	-0.914627	0.247860	0.772430
N142	N	-0.414627	0.747860	1.272430
C143	C	-0.909763	0.302970	0.740499
C144	C	-0.409763	0.802970	1.240499
C145	C	-0.950054	0.262621	0.971472
C146	C	-0.450054	0.762621	1.471472
C147	C	-0.950049	0.262593	1.037216
C148	C	-0.450049	0.762593	1.537216
C149	C	-0.869482	0.343128	1.037151
C150	C	-0.369482	0.843128	1.537151
C151	C	-0.869484	0.343151	0.971409
C152	C	-0.369484	0.843151	1.471409
C153	C	-0.909773	0.302898	0.938573
C154	C	-0.409773	0.802898	1.438573
H155	H	-0.670063	0.376266	0.376384
H156	H	-0.170063	0.876266	0.876384
H157	H	-0.982857	0.229842	0.944736
H158	H	-0.482857	0.729842	1.444736
O159	O	-0.830194	0.537490	0.382730
O160	O	-0.330194	1.037490	0.882730
C161	C	-0.789528	0.499545	0.346831
C162	C	-0.289528	0.999545	0.846831
H163	H	-0.811749	0.489698	0.299151
H164	H	-0.311749	0.989698	0.799151
H165	H	-0.781062	0.453310	0.372451
H166	H	-0.281062	0.953310	0.872451
H167	H	-0.742892	0.524941	0.339863
H168	H	-0.242892	1.024941	0.839863
H169	H	-0.982850	0.943473	0.230664
H170	H	-0.482850	1.443473	0.730664
H171	H	-0.982852	0.229795	1.064000
H172	H	-0.482852	0.729795	1.564000
O173	O	-0.830377	0.382218	0.939351
O174	O	-0.330377	0.882218	1.439351
C175	C	-0.839024	0.373617	0.874285
C176	C	-0.339024	0.873617	1.374285
H177	H	-0.859668	0.325036	0.865323
H178	H	-0.359668	0.825036	1.365323
H179	H	-0.791870	0.377907	0.849264
H180	H	-0.291870	0.877907	1.349264
H181	H	-0.872524	0.410955	0.855652
H182	H	-0.372524	0.910955	1.355652
H183	H	-0.982902	1.062737	0.230695
H184	H	-0.482902	1.562737	0.730695
O185	O	-0.545689	0.223635	0.224224
O186	O	-0.045689	0.723635	0.724224
C187	C	-0.561662	0.237313	0.161454
C188	C	-0.061662	0.737313	0.661454
H189	H	-0.609370	0.261519	0.160091
H190	H	-0.109370	0.761519	0.660091
H191	H	-0.563927	0.191841	0.133311
H192	H	-0.063927	0.691841	0.633311
H193	H	-0.524608	0.269639	0.140202
H194	H	-0.024608	0.769639	0.640202
H195	H	-0.836676	0.376038	0.663053
H196	H	-0.336676	0.876038	1.163053
H197	H	-0.836752	1.062833	0.376591
H198	H	-0.336752	1.562833	0.876591
H199	H	-0.836704	0.943564	0.376567
H200	H	-0.336704	1.443564	0.876567
O201	O	-0.989196	0.223598	0.538831
O202	O	-0.489196	0.723598	1.038831
C203	C	-1.024763	0.188058	0.581970
C204	C	-0.524763	0.688058	1.081970
H205	H	-0.998982	0.185870	0.628815
H206	H	-0.498982	0.685870	1.128815
H207	H	-1.031508	0.138464	0.562985
H208	H	-0.531508	0.638464	1.062985
H209	H	-1.072557	0.211099	0.588994
H210	H	-0.572557	0.711099	1.088994
H211	H	-0.149942	0.229857	0.230773
H212	H	0.350058	0.729857	0.730773
O213	O	-0.989090	0.223550	0.668366
O214	O	-0.489090	0.723550	1.168366
C215	C	-0.953285	0.182895	0.706385
C216	C	-0.453285	0.682895	1.206385
H217	H	-0.903709	0.179012	0.686537
H218	H	-0.403709	0.679012	1.186537
H219	H	-0.976090	0.134450	0.707156
H220	H	-0.476090	0.634450	1.207156
H221	H	-0.951102	0.202348	0.756205
H222	H	-0.451102	0.702348	1.256205
O223	O	-0.274424	0.382584	0.382754
O224	O	0.225576	0.882584	0.882754
C225	C	-0.312380	0.423190	0.346828
C226	C	0.187620	0.923190	0.846828
H227	H	-0.292508	0.427002	0.297250
H228	H	0.207492	0.927002	0.797250
H229	H	-0.313100	0.471667	0.369508
H230	H	0.186900	0.971667	0.869508
H231	H	-0.362222	0.403735	0.344677
H232	H	0.137778	0.903735	0.844677
H233	H	-0.269209	0.229884	0.230726
H234	H	0.230791	0.729884	0.730726
O235	O	-0.545727	0.382627	0.382767
O236	O	-0.045727	0.882627	0.882767
C237	C	-0.588838	0.418211	0.418231
C238	C	-0.088838	0.918211	0.918231
H239	H	-0.635670	0.420366	0.392428
H240	H	-0.135670	0.920366	0.892428
H241	H	-0.569797	0.467812	0.424862
H242	H	-0.069797	0.967812	0.924862
H243	H	-0.595907	0.395229	0.466079
H244	H	-0.095907	0.895229	0.966079
O245	O	-0.675289	0.223713	0.224239
O246	O	-0.175289	0.723713	0.724239
C247	C	-0.713220	0.259503	0.183490
C248	C	-0.213220	0.759503	0.683490
H249	H	-0.723042	0.307243	0.205600
H250	H	-0.223042	0.807243	0.705600
H251	H	-0.759467	0.233862	0.175084
H252	H	-0.259467	0.733862	0.675084
H253	H	-0.687823	0.266344	0.136837
H254	H	-0.187823	0.766344	0.636837
H255	H	-0.836680	0.375898	1.063891
H256	H	-0.336680	0.875898	1.563891
O257	O	-0.144890	0.382548	0.382910
O258	O	0.355110	0.882548	0.882910
C259	C	-0.188004	0.418135	0.418367
C260	C	0.311996	0.918135	0.918367
H261	H	-0.234836	0.420283	0.392562
H262	H	0.265164	0.920283	0.892562
H263	H	-0.168967	0.467739	0.424990
H264	H	0.331033	0.967739	0.924990
H265	H	-0.195074	0.395162	0.466219
H266	H	0.304926	0.895162	0.966219
O267	O	-0.989086	0.537559	0.224259
O268	O	-0.489086	1.037559	0.724259
C269	C	-1.024639	0.580649	0.188768
C270	C	-0.524639	1.080649	0.688768
H271	H	-1.026818	0.627496	0.214561
H272	H	-0.526818	1.127496	0.714561
H273	H	-1.074234	0.561603	0.182115
H274	H	-0.574234	1.061603	0.682115
H275	H	-1.001615	0.587691	0.140930
H276	H	-0.501615	1.087691	0.640930
H277	H	-0.982746	0.661899	0.230619
H278	H	-0.482746	1.161899	0.730619
H279	H	-0.836663	0.376078	0.543782
H280	H	-0.336663	0.876078	1.043782
H281	H	-0.836602	0.661996	0.376516
H282	H	-0.336602	1.161996	0.876516
