data_functionalizedCrystal
_audit_creation_method	'MofGen! by Chris Wilmer'
_symmetry_space_group_name_H-M	'P1'
_symmetry_Int_Tables_number	1
_symmetry_cell_setting	triclinic
loop_
_symmetry_equiv_pos_as_xyz
  x,y,z
_cell_length_a	17.077404
_cell_length_b	12.759394
_cell_length_c	17.077396
_cell_angle_alpha	89.975378
_cell_angle_beta	89.980499
_cell_angle_gamma	90.014081
loop_
_atom_site_label
_atom_site_type_symbol
_atom_site_fract_x
_atom_site_fract_y
_atom_site_fract_z
Zn1	Zn	1.200104	-0.418260	-0.443864
Zn2	Zn	1.533437	-0.084927	-0.110530
Zn3	Zn	1.866771	0.248407	0.222803
Zn4	Zn	1.200032	-0.593961	-0.312607
Zn5	Zn	1.533365	-0.260627	0.020727
Zn6	Zn	1.866698	0.072706	0.354060
Zn7	Zn	1.068836	-0.418297	-0.312612
Zn8	Zn	1.402169	-0.084964	0.020722
Zn9	Zn	1.735502	0.248370	0.354055
Zn10	Zn	1.068824	-0.593898	-0.443830
Zn11	Zn	1.402158	-0.260565	-0.110497
Zn12	Zn	1.735491	0.072768	0.222836
O13	O	1.134449	-0.506104	-0.378228
O14	O	1.467782	-0.172771	-0.044895
O15	O	1.801116	0.160563	0.288439
O16	O	1.309941	-0.441578	-0.426464
O17	O	1.643275	-0.108245	-0.093131
O18	O	1.976608	0.225089	0.240203
O19	O	1.182603	-0.570700	-0.202760
O20	O	1.515936	-0.237367	0.130573
O21	O	1.849269	0.095967	0.463906
O22	O	1.086284	-0.271271	-0.330039
O23	O	1.419617	0.062062	0.003295
O24	O	1.752950	0.395396	0.336628
O25	O	1.309888	-0.570664	-0.330030
O26	O	1.643221	-0.237331	0.003303
O27	O	1.976555	0.096002	0.336637
O28	O	1.182726	-0.271244	-0.426469
O29	O	1.516059	0.062089	-0.093136
O30	O	1.849393	0.395423	0.240198
O31	O	1.086214	-0.441641	-0.202764
O32	O	1.419547	-0.108307	0.130569
O33	O	1.752880	0.225026	0.463903
O34	O	0.958987	-0.441580	-0.330006
O35	O	1.292321	-0.108247	0.003327
O36	O	1.625654	0.225086	0.336660
O37	O	1.086264	-0.570558	-0.553682
O38	O	1.419598	-0.237225	-0.220348
O39	O	1.752931	0.096109	0.112985
O40	O	0.958979	-0.570594	-0.426412
O41	O	1.292312	-0.237261	-0.093079
O42	O	1.625646	0.096073	0.240255
O43	O	1.182715	-0.441517	-0.553706
O44	O	1.516048	-0.108184	-0.220373
O45	O	1.849382	0.225149	0.112960
O46	O	1.182592	-0.740974	-0.329998
O47	O	1.515925	-0.407640	0.003336
O48	O	1.849258	-0.074307	0.336669
O49	O	1.086194	-0.740928	-0.426407
O50	O	1.419528	-0.407594	-0.093074
O51	O	1.752861	-0.074261	0.240260
C52	C	0.930501	-0.506085	-0.378206
C53	C	1.263834	-0.172752	-0.044873
C54	C	1.597168	0.160582	0.288460
C55	C	0.843251	-0.506102	-0.378216
C56	C	1.176585	-0.172769	-0.044882
C57	C	1.509918	0.160564	0.288451
C58	C	0.802277	-0.573381	-0.428334
C59	C	1.135611	-0.240048	-0.095000
C60	C	1.468944	0.093286	0.238333
C61	C	0.720297	-0.573383	-0.428346
C62	C	1.053630	-0.240050	-0.095013
C63	C	1.386964	0.093283	0.238320
C64	C	0.679292	-0.506111	-0.378236
C65	C	1.012625	-0.172778	-0.044903
C66	C	1.345959	0.160555	0.288430
C67	C	0.720272	-0.438825	-0.328116
C68	C	1.053605	-0.105492	0.005217
C69	C	1.386938	0.227842	0.338550
C70	C	0.802250	-0.438818	-0.328108
C71	C	1.135584	-0.105485	0.005225
C72	C	1.468917	0.227848	0.338558
C73	C	0.549401	-0.438846	-0.328135
C74	C	0.882735	-0.105512	0.005198
C75	C	1.216068	0.227821	0.338532
C76	C	0.467417	-0.438854	-0.328142
C77	C	0.800750	-0.105520	0.005191
C78	C	1.134084	0.227813	0.338525
C79	C	0.467448	-0.573411	-0.428373
C80	C	0.800781	-0.240077	-0.095040
C81	C	1.134115	0.093256	0.238294
C82	C	0.549427	-0.573404	-0.428365
C83	C	0.882760	-0.240071	-0.095032
C84	C	1.216093	0.093263	0.238302
C85	C	0.590401	-0.506119	-0.378244
C86	C	0.923734	-0.172786	-0.044910
C87	C	1.257068	0.160548	0.288423
C88	C	1.134405	-0.779072	-0.378215
C89	C	1.467739	-0.445738	-0.044882
C90	C	1.801072	-0.112405	0.288452
C91	C	1.134458	-0.895848	-0.378236
C92	C	1.467792	-0.562515	-0.044903
C93	C	1.801125	-0.229182	0.288431
C94	C	1.234809	-0.895662	-0.478724
C95	C	1.568142	-0.562329	-0.145391
C96	C	1.901475	-0.228995	0.187943
C97	C	1.285008	-0.950429	-0.528974
C98	C	1.618342	-0.617096	-0.195641
C99	C	1.951675	-0.283763	0.137693
C100	C	1.285055	-1.060151	-0.528991
C101	C	1.618388	-0.726818	-0.195658
C102	C	1.951722	-0.393484	0.137676
C103	C	1.234895	-1.115108	-0.478754
C104	C	1.568228	-0.781774	-0.145421
C105	C	1.901561	-0.448441	0.187913
C106	C	1.184695	-1.060340	-0.428504
C107	C	1.518028	-0.727007	-0.095171
C108	C	1.851362	-0.393673	0.238163
C109	C	1.184655	-0.950616	-0.428491
C110	C	1.517989	-0.617283	-0.095158
C111	C	1.851322	-0.283949	0.238176
C112	C	1.084342	-1.060526	-0.328021
C113	C	1.417675	-0.727193	0.005312
C114	C	1.751009	-0.393860	0.338646
C115	C	1.084298	-0.950805	-0.327999
C116	C	1.417632	-0.617471	0.005334
C117	C	1.750965	-0.284138	0.338668
C118	C	1.034182	-1.115483	-0.277784
C119	C	1.367515	-0.782150	0.055549
C120	C	1.700849	-0.448816	0.388882
C121	C	0.983985	-1.060715	-0.227529
C122	C	1.317318	-0.727382	0.105804
C123	C	1.650652	-0.394049	0.439138
C124	C	0.983941	-0.950987	-0.227514
C125	C	1.317274	-0.617654	0.105820
C126	C	1.650608	-0.284320	0.439153
C127	C	1.034098	-0.896037	-0.277749
C128	C	1.367432	-0.562704	0.055584
C129	C	1.700765	-0.229371	0.388918
C130	C	1.339193	-0.506124	-0.378250
C131	C	1.672526	-0.172791	-0.044917
C132	C	2.005860	0.160543	0.288416
C133	C	1.426443	-0.506132	-0.378260
C134	C	1.759776	-0.172799	-0.044926
C135	C	2.093110	0.160534	0.288407
C136	C	1.134496	-0.506027	-0.582972
C137	C	1.467830	-0.172693	-0.249639
C138	C	1.801163	0.160640	0.083694
C139	C	1.134517	-0.505994	-0.670222
C140	C	1.467850	-0.172660	-0.336889
C141	C	1.801183	0.160673	-0.003556
C142	C	1.134514	-0.232071	-0.378258
C143	C	1.467847	0.101263	-0.044925
C144	C	1.801181	0.434596	0.288408
C145	C	1.134542	-0.115294	-0.378271
C146	C	1.467875	0.218039	-0.044938
C147	C	1.801209	0.551373	0.288396
C148	C	1.184740	-0.438797	-0.711227
C149	C	1.518074	-0.105463	-0.377893
C150	C	1.851407	0.227870	-0.044560
C151	C	1.184750	-0.438762	-0.793207
C152	C	1.518083	-0.105428	-0.459874
C153	C	1.851416	0.227905	-0.126540
C154	C	1.134539	-0.505930	-0.834182
C155	C	1.467872	-0.172597	-0.500848
C156	C	1.801206	0.160737	-0.167515
C157	C	1.084310	-0.573130	-0.793172
C158	C	1.417643	-0.239797	-0.459838
C159	C	1.750976	0.093537	-0.126505
C160	C	1.084297	-0.573159	-0.711193
C161	C	1.417630	-0.239825	-0.377859
C162	C	1.750964	0.093508	-0.044526
C163	C	1.084341	-0.573067	-0.964042
C164	C	1.417675	-0.239733	-0.630709
C165	C	1.751008	0.093600	-0.297375
C166	C	1.084355	-0.573039	-1.046027
C167	C	1.417688	-0.239706	-0.712693
C168	C	1.751022	0.093627	-0.379360
C169	C	1.184794	-0.438670	-1.046056
C170	C	1.518127	-0.105336	-0.712723
C171	C	1.851461	0.227997	-0.379390
C172	C	1.184781	-0.438698	-0.964077
C173	C	1.518115	-0.105365	-0.630744
C174	C	1.851448	0.227968	-0.297411
C175	C	1.134553	-0.505900	-0.923073
C176	C	1.467886	-0.172567	-0.589740
C177	C	1.801220	0.160766	-0.256406
C178	C	1.134447	-0.506105	-0.174280
C179	C	1.467780	-0.172772	0.159053
C180	C	1.801113	0.160561	0.492386
C181	C	1.134579	-0.505842	-0.087031
C182	C	1.467912	-0.172509	0.246302
C183	C	1.801245	0.160824	0.579636
H184	H	0.835658	-0.628165	-0.469136
H185	H	1.168991	-0.294832	-0.135803
H186	H	1.502324	0.038501	0.197530
Cl187	Cl	1.021184	-0.657567	-0.844683
Cl188	Cl	1.354518	-0.324233	-0.511350
Cl189	Cl	1.687851	0.009100	-0.178016
H190	H	0.686939	-0.628169	-0.469157
H191	H	1.020273	-0.294836	-0.135823
H192	H	1.353606	0.038497	0.197510
Cl193	Cl	1.247909	-0.354264	-0.912567
Cl194	Cl	1.581242	-0.020930	-0.579234
Cl195	Cl	1.914576	0.312403	-0.245900
Cl196	Cl	1.247926	-0.354328	-0.844752
Cl197	Cl	1.581259	-0.020994	-0.511419
Cl198	Cl	1.914592	0.312339	-0.178085
Cl199	Cl	0.920927	-1.129808	-0.164389
Cl200	Cl	1.254260	-0.796474	0.168945
Cl201	Cl	1.587593	-0.463141	0.502278
H202	H	0.943059	-0.906401	-0.186597
H203	H	1.276393	-0.573068	0.146736
H204	H	1.609726	-0.239734	0.480070
H205	H	1.325847	-0.905674	-0.569878
H206	H	1.659180	-0.572341	-0.236545
H207	H	1.992514	-0.239008	0.096789
Cl208	Cl	0.600975	-0.657983	-0.491356
Cl209	Cl	0.934308	-0.324649	-0.158023
Cl210	Cl	1.267642	0.008684	0.175311
H211	H	1.034220	-1.204824	-0.277805
H212	H	1.367554	-0.871491	0.055529
H213	H	1.700887	-0.538157	0.388862
Cl214	Cl	1.234743	-0.757725	-0.478717
Cl215	Cl	1.568077	-0.424392	-0.145384
Cl216	Cl	1.901410	-0.091059	0.187950
H217	H	0.434033	-0.384062	-0.287347
H218	H	0.767366	-0.050729	0.045986
H219	H	1.100699	0.282604	0.379319
Cl220	Cl	0.415938	-0.657983	-0.491394
Cl221	Cl	0.749272	-0.324649	-0.158061
Cl222	Cl	1.082605	0.008684	0.175273
H223	H	1.034071	-0.806696	-0.277738
H224	H	1.367404	-0.473363	0.055595
H225	H	1.700738	-0.140029	0.388929
H226	H	1.043467	-0.627731	-1.079386
H227	H	1.376801	-0.294398	-0.746053
H228	H	1.710134	0.038935	-0.412719
H229	H	1.325924	-1.104743	-0.569917
H230	H	1.659257	-0.771409	-0.236584
H231	H	1.992590	-0.438076	0.096749
H232	H	1.234930	-1.204449	-0.478779
H233	H	1.568264	-0.871115	-0.145446
H234	H	1.901597	-0.537782	0.187888
Cl235	Cl	1.247870	-0.354357	-0.659724
Cl236	Cl	1.581203	-0.021023	-0.326390
Cl237	Cl	1.914537	0.312310	0.006943
H238	H	1.043392	-0.627867	-0.677808
H239	H	1.376725	-0.294534	-0.344475
H240	H	1.710058	0.038800	-0.011141
Cl241	Cl	1.247939	-0.354189	-1.097604
Cl242	Cl	1.581272	-0.020855	-0.764271
Cl243	Cl	1.914606	0.312478	-0.430937
Cl244	Cl	1.021195	-0.657549	-0.912495
Cl245	Cl	1.354528	-0.324216	-0.579162
Cl246	Cl	1.687862	0.009118	-0.245828
H247	H	0.686879	-0.384047	-0.287319
H248	H	1.020212	-0.050713	0.046014
H249	H	1.353545	0.282620	0.379347
Cl250	Cl	0.853761	-0.354233	-0.265102
Cl251	Cl	1.187094	-0.020900	0.068231
Cl252	Cl	1.520428	0.312434	0.401565
Cl253	Cl	0.600910	-0.354257	-0.265124
Cl254	Cl	0.934244	-0.020924	0.068209
Cl255	Cl	1.267577	0.312409	0.401542
