data_functionalizedCrystal
_audit_creation_method	'MofGen! by Chris Wilmer'
_symmetry_space_group_name_H-M	'P1'
_symmetry_Int_Tables_number	1
_symmetry_cell_setting	triclinic
loop_
_symmetry_equiv_pos_as_xyz
  x,y,z
_cell_length_a	12.759401
_cell_length_b	25.639239
_cell_length_c	12.759393
_cell_angle_alpha	89.963859
_cell_angle_beta	89.982824
_cell_angle_gamma	90.038847
loop_
_atom_site_label
_atom_site_type_symbol
_atom_site_fract_x
_atom_site_fract_y
_atom_site_fract_z
Zn1	Zn	1.606067	-0.208122	-0.593941
Zn2	Zn	1.605891	-0.295568	-0.418245
Zn3	Zn	1.430373	-0.208148	-0.418281
Zn4	Zn	1.430284	-0.295529	-0.593886
O5	O	1.518154	-0.251842	-0.506088
O6	O	1.753064	-0.219728	-0.570643
O7	O	1.582572	-0.283999	-0.271228
O8	O	1.453789	-0.134980	-0.441621
O9	O	1.752936	-0.283973	-0.441559
O10	O	1.582871	-0.134961	-0.570678
O11	O	1.453619	-0.219772	-0.271255
O12	O	1.283340	-0.219734	-0.441567
O13	O	1.453638	-0.283907	-0.740914
O14	O	1.283274	-0.283932	-0.570584
O15	O	1.582785	-0.219690	-0.740955
O16	O	1.582486	-0.368728	-0.441505
O17	O	1.453468	-0.368699	-0.570549
C18	C	1.245186	-0.251832	-0.506074
C19	C	1.128410	-0.251841	-0.506093
C20	C	1.073541	-0.285322	-0.573160
C21	C	0.963817	-0.285329	-0.573172
C22	C	0.963840	-0.218371	-0.439039
C23	C	1.073562	-0.218362	-0.439033
C24	C	1.128389	-0.318801	-0.640220
C25	C	1.073520	-0.352285	-0.707292
C26	C	0.963796	-0.352292	-0.707303
C27	C	0.908941	-0.318814	-0.640242
C28	C	1.517977	-0.387684	-0.506040
C29	C	1.517997	-0.445799	-0.506055
C30	C	1.585509	-0.806164	-0.439010
C31	C	1.585549	-0.860768	-0.439024
O32	O	1.642767	-0.889007	-0.381967
N33	N	1.518338	-0.888081	-0.506158
C34	C	1.451089	-0.860787	-0.573289
O35	O	1.393926	-0.889032	-0.630394
C36	C	1.451055	-0.806183	-0.573280
C37	C	1.518263	-0.778873	-0.506134
C38	C	1.652712	-0.778854	-0.371870
C39	C	1.652670	-0.724253	-0.371855
C40	C	1.585424	-0.696963	-0.438980
C41	C	1.518221	-0.724273	-0.506119
C42	C	1.383812	-0.778890	-0.640416
C43	C	1.383784	-0.724283	-0.640401
C44	C	1.450992	-0.696973	-0.573256
C45	C	1.450932	-0.642382	-0.573228
N46	N	1.518144	-0.615069	-0.506094
C47	C	1.585389	-0.642359	-0.438970
C48	C	1.451169	-0.975457	-0.573306
C49	C	1.451197	-1.030059	-0.573311
C50	C	1.585659	-1.030037	-0.439046
C51	C	1.585624	-0.975434	-0.439037
C52	C	1.518380	-0.948144	-0.506172
C53	C	1.585295	-0.527694	-0.438943
C54	C	1.585243	-0.473089	-0.438930
C55	C	1.450786	-0.473116	-0.573198
C56	C	1.450833	-0.527717	-0.573207
C57	C	1.518096	-0.555004	-0.506076
O58	O	1.393747	-0.614108	-0.630258
O59	O	1.642553	-0.614107	-0.381885
C60	C	1.792187	-0.251852	-0.506103
C61	C	1.908963	-0.251856	-0.506109
C62	C	1.518221	-0.251791	-0.780122
C63	C	1.518250	-0.251770	-0.896898
C64	C	1.518360	-0.115469	-0.506159
C65	C	1.518447	-0.057355	-0.506190
C66	C	1.451025	-0.285192	-0.951741
C67	C	1.451064	-0.285173	-1.061465
C68	C	1.585554	-0.218305	-1.061494
C69	C	1.585520	-0.218327	-0.951772
C70	C	1.383755	-0.318634	-0.896867
C71	C	1.316524	-0.352059	-0.951710
C72	C	1.316563	-0.352040	-1.061434
C73	C	1.383832	-0.318597	-1.116315
C74	C	1.518147	-0.251855	-0.233121
C75	C	1.518322	-0.251729	-0.116345
H76	H	1.118237	-0.191095	-0.384429
C77	C	1.383712	-0.318658	-0.776175
H78	H	1.334027	-0.343363	-0.751347
H79	H	1.365595	-0.284921	-0.751372
H80	H	1.451490	-0.327713	-0.751347
H81	H	1.261828	-0.379259	-1.106084
H82	H	1.261762	-0.379290	-0.907018
C83	C	1.309890	-0.808919	-0.714285
H84	H	1.269852	-0.784838	-0.754264
H85	H	1.264140	-0.830260	-0.674078
H86	H	1.350078	-0.830179	-0.760108
H87	H	1.217732	-0.318800	-0.640216
C88	C	1.376826	-0.443090	-0.647034
H89	H	1.386442	-0.406659	-0.637412
H90	H	1.306246	-0.452076	-0.631612
H91	H	1.392184	-0.452003	-0.717642
C92	C	1.383878	-0.318579	-1.237010
H93	H	1.334206	-0.343273	-1.261815
H94	H	1.451672	-0.327618	-1.261822
H95	H	1.365763	-0.284832	-1.261851
H96	H	1.640258	-0.191111	-0.907118
C97	C	1.309814	-0.694267	-0.714252
H98	H	1.269793	-0.718356	-0.754234
H99	H	1.349963	-0.672929	-0.760057
H100	H	1.264034	-0.673006	-0.674018
C101	C	1.659536	-0.181518	-1.121861
H102	H	1.649921	-0.186289	-1.195062
H103	H	1.730110	-0.189175	-1.103878
H104	H	1.644201	-0.146389	-1.103896
H105	H	1.118191	-0.379538	-0.761897
H106	H	0.919125	-0.379553	-0.761924
C107	C	1.659626	-1.060064	-0.365207
H108	H	1.650020	-1.096494	-0.374840
H109	H	1.644283	-1.051150	-0.294601
H110	H	1.730209	-1.051078	-0.380643
H111	H	1.707477	-0.801068	-0.317210
C112	C	1.659161	-0.443049	-0.365058
H113	H	1.649499	-0.406620	-0.374647
H114	H	1.729754	-0.451952	-0.380483
H115	H	1.643811	-0.452038	-0.294458
C116	C	0.788247	-0.318810	-0.640280
H117	H	0.763422	-0.343543	-0.689832
H118	H	0.763490	-0.285080	-0.658577
H119	H	0.763369	-0.327814	-0.572453
H120	H	1.396110	-0.549954	-0.627886
C121	C	0.903501	-0.181552	-0.365273
H122	H	0.830297	-0.186356	-0.374875
H123	H	0.921522	-0.146430	-0.380774
H124	H	0.921451	-0.189164	-0.294649
H125	H	1.640069	-0.549906	-0.384280
C126	C	1.726612	-0.694219	-0.298007
H127	H	1.766670	-0.718299	-0.258047
H128	H	1.686449	-0.672953	-0.252183
H129	H	1.772358	-0.672884	-0.338242
H130	H	1.640351	-0.953201	-0.384362
H131	H	1.396402	-0.953241	-0.627972
C132	C	1.377262	-1.060095	-0.647164
H133	H	1.337216	-1.036016	-0.687140
H134	H	1.331521	-1.081436	-0.606948
H135	H	1.417447	-1.081355	-0.692990
