data_functionalizedCrystal
_audit_creation_method	'MofGen! by Chris Wilmer'
_symmetry_space_group_name_H-M	'P1'
_symmetry_Int_Tables_number	1
_symmetry_cell_setting	triclinic
loop_
_symmetry_equiv_pos_as_xyz
  x,y,z
_cell_length_a	25.639239
_cell_length_b	16.959455
_cell_length_c	16.959447
_cell_angle_alpha	90.015228
_cell_angle_beta	89.966924
_cell_angle_gamma	89.966544
loop_
_atom_site_label
_atom_site_type_symbol
_atom_site_fract_x
_atom_site_fract_y
_atom_site_fract_z
Zn1	Zn	-0.208213	-1.208282	-0.446913
Zn2	Zn	0.291787	-0.708282	0.053087
Zn3	Zn	-0.295654	-1.208161	-0.314728
Zn4	Zn	0.204346	-0.708161	0.185272
Zn5	Zn	-0.208227	-1.076110	-0.314748
Zn6	Zn	0.291773	-0.576110	0.185252
Zn7	Zn	-0.295612	-1.076032	-0.446864
Zn8	Zn	0.204388	-0.576032	0.053136
O9	O	-0.251926	-1.142146	-0.380813
O10	O	0.248074	-0.642146	0.119187
O11	O	-0.219825	-1.318876	-0.429390
O12	O	0.280175	-0.818876	0.070610
O13	O	-0.284080	-1.190627	-0.204119
O14	O	0.215920	-0.690627	0.295881
O15	O	-0.135060	-1.093726	-0.332309
O16	O	0.364940	-0.593726	0.167691
O17	O	-0.284067	-1.318788	-0.332274
O18	O	0.215933	-0.818788	0.167726
O19	O	-0.135050	-1.190832	-0.429409
O20	O	0.364950	-0.690832	0.070591
O21	O	-0.219847	-1.093609	-0.204134
O22	O	0.280153	-0.593609	0.295866
O23	O	-0.219806	-0.965489	-0.332262
O24	O	0.280194	-0.465489	0.167738
O25	O	-0.283995	-1.093593	-0.557482
O26	O	0.216005	-0.593593	-0.057482
O27	O	-0.284008	-0.965431	-0.429327
O28	O	0.215992	-0.465431	0.070673
O29	O	-0.219784	-1.190756	-0.557517
O30	O	0.280216	-0.690756	-0.057517
O31	O	-0.368814	-1.190551	-0.332227
O32	O	0.131186	-0.690551	0.167773
O33	O	-0.368783	-1.093476	-0.429307
O34	O	0.131217	-0.593476	0.070693
C35	C	-0.251904	-0.936780	-0.380792
C36	C	0.248096	-0.436780	0.119208
C37	C	-0.251907	-0.848923	-0.380801
C38	C	0.248093	-0.348923	0.119199
C39	C	-0.387769	-1.142013	-0.380777
C40	C	0.112231	-0.642013	0.119223
C41	C	-0.445883	-1.142029	-0.380788
C42	C	0.054117	-0.642029	0.119212
C43	C	-0.218453	-0.477453	-0.330366
C44	C	0.281547	0.022547	0.169634
C45	C	-0.285410	-0.477442	-0.431284
C46	C	0.214590	0.022558	0.068716
C47	C	-0.285404	-0.559988	-0.431281
C48	C	0.214596	-0.059988	0.068719
C49	C	-0.251923	-0.601270	-0.380818
C50	C	0.248077	-0.101270	0.119182
C51	C	-0.218447	-0.560007	-0.330360
C52	C	0.281553	-0.060007	0.169640
C53	C	-0.318883	-0.601258	-0.481733
C54	C	0.181117	-0.101258	0.018267
C55	C	-0.318880	-0.683809	-0.481731
C56	C	0.181120	-0.183809	0.018269
C57	C	-0.285395	-0.725092	-0.431272
C58	C	0.214605	-0.225092	0.068728
C59	C	-0.251918	-0.683824	-0.380812
C60	C	0.248082	-0.183824	0.119188
C61	C	-0.218436	-0.725106	-0.330349
C62	C	0.281564	-0.225106	0.169651
C63	C	-0.184956	-0.683839	-0.279893
C64	C	0.315044	-0.183839	0.220107
C65	C	-0.184963	-0.601290	-0.279901
C66	C	0.315037	-0.101290	0.220099
C67	C	-0.285388	-0.807641	-0.431264
C68	C	0.214612	-0.307641	0.068736
C69	C	-0.218431	-0.807660	-0.330343
C70	C	0.281569	-0.307660	0.169657
C71	C	-0.806250	-1.192825	-0.330350
C72	C	-0.306250	-0.692825	0.169650
C73	C	-0.860854	-1.192855	-0.330360
C74	C	-0.360854	-0.692855	0.169640
O75	O	-0.889094	-1.235906	-0.287436
O76	O	-0.389094	-0.735906	0.212564
N77	N	-0.888165	-1.142285	-0.380866
N78	N	-0.388165	-0.642285	0.119134
C79	C	-0.860870	-1.091686	-0.431369
C80	C	-0.360870	-0.591686	0.068631
O81	O	-0.889114	-1.048675	-0.474329
O82	O	-0.389114	-0.548675	0.025671
C83	C	-0.806266	-1.091660	-0.431362
C84	C	-0.306266	-0.591660	0.068638
C85	C	-0.778958	-1.142228	-0.380848
C86	C	-0.278958	-0.642228	0.119152
C87	C	-0.778941	-1.243389	-0.279840
C88	C	-0.278941	-0.743389	0.220160
C89	C	-0.724341	-1.243358	-0.279829
C90	C	-0.224341	-0.743358	0.220171
C91	C	-0.697049	-1.192761	-0.330327
C92	C	-0.197049	-0.692761	0.169673
C93	C	-0.724357	-1.142196	-0.380836
C94	C	-0.224357	-0.642196	0.119164
C95	C	-0.778972	-1.041066	-0.481869
C96	C	-0.278972	-0.541066	0.018131
C97	C	-0.724365	-1.041045	-0.481858
C98	C	-0.224365	-0.541045	0.018142
C99	C	-0.697056	-1.091613	-0.431344
C100	C	-0.197056	-0.591613	0.068656
C101	C	-0.642465	-1.091568	-0.431323
C102	C	-0.142465	-0.591568	0.068677
N103	N	-0.615153	-1.142139	-0.380818
N104	N	-0.115153	-0.642139	0.119182
C105	C	-0.642445	-1.192735	-0.330320
C106	C	-0.142445	-0.692735	0.169680
C107	C	-0.975540	-1.091746	-0.431381
C108	C	-0.475540	-0.591746	0.068619
C109	C	-1.030143	-1.091767	-0.431385
C110	C	-0.530143	-0.591767	0.068615
C111	C	-1.030123	-1.192938	-0.330377
C112	C	-0.530123	-0.692938	0.169623
C113	C	-0.975520	-1.192912	-0.330370
C114	C	-0.475520	-0.692912	0.169630
C115	C	-0.948229	-1.142316	-0.380876
C116	C	-0.448229	-0.642316	0.119124
C117	C	-0.527780	-1.192664	-0.330299
C118	C	-0.027780	-0.692664	0.169701
C119	C	-0.473175	-1.192625	-0.330290
C120	C	0.026825	-0.692625	0.169710
C121	C	-0.473199	-1.091458	-0.431300
C122	C	0.026801	-0.591458	0.068700
C123	C	-0.527800	-1.091493	-0.431307
C124	C	-0.027800	-0.591493	0.068693
C125	C	-0.555089	-1.142103	-0.380804
C126	C	-0.055089	-0.642103	0.119196
O127	O	-0.614190	-1.048541	-0.474228
O128	O	-0.114190	-0.548541	0.025772
O129	O	-0.614194	-1.235746	-0.287374
O130	O	-0.114194	-0.735746	0.212626
C131	C	-0.115553	-1.142301	-0.380867
C132	C	0.384447	-0.642301	0.119133
C133	C	-0.057439	-1.142367	-0.380890
C134	C	0.442561	-0.642367	0.119110
C135	C	-0.251883	-1.142179	-0.586981
C136	C	0.248117	-0.642179	-0.086981
C137	C	-0.251865	-1.142193	-0.674838
C138	C	0.248135	-0.642193	-0.174838
C139	C	-0.251943	-0.348314	-0.380831
C140	C	0.248057	0.151686	0.119169
C141	C	-0.251934	-0.436171	-0.380829
C142	C	0.248066	0.063829	0.119171
C143	C	-0.285241	-1.091699	-1.046298
C144	C	0.214759	-0.591699	-0.546298
C145	C	-0.218378	-1.192876	-1.046330
C146	C	0.281622	-0.692876	-0.546330
C147	C	-0.218389	-1.192855	-0.963784
C148	C	0.281611	-0.692855	-0.463784
C149	C	-0.251827	-1.142256	-0.922491
C150	C	0.248173	-0.642256	-0.422491
C151	C	-0.285255	-1.091678	-0.963744
C152	C	0.214745	-0.591678	-0.463744
C153	C	-0.184966	-1.243438	-0.922525
C154	C	0.315034	-0.743438	-0.422525
C155	C	-0.184976	-1.243419	-0.839974
C156	C	0.315024	-0.743419	-0.339974
C157	C	-0.218412	-1.192816	-0.798679
C158	C	0.281588	-0.692816	-0.298679
C159	C	-0.251840	-1.142235	-0.839938
C160	C	0.248160	-0.642235	-0.339938
C161	C	-0.285279	-1.091636	-0.798645
C162	C	0.214721	-0.591636	-0.298645
C163	C	-0.318705	-1.041051	-0.839901
C164	C	0.181295	-0.541051	-0.339901
C165	C	-0.318691	-1.041074	-0.922450
C166	C	0.181309	-0.541074	-0.422450
C167	C	-0.218426	-1.192792	-0.716131
C168	C	0.281574	-0.692792	-0.216131
C169	C	-0.285292	-1.091615	-0.716091
C170	C	0.214708	-0.591615	-0.216091
C171	C	-0.251932	-1.142159	-0.175447
C172	C	0.248068	-0.642159	0.324553
C173	C	-0.251803	-1.142298	-0.087591
C174	C	0.248197	-0.642298	0.412409
H175	H	-0.191163	-0.841266	-0.289254
H176	H	0.308837	-0.341266	0.210746
H177	H	-0.191157	-1.234076	-1.079956
H178	H	0.308843	-0.734076	-0.579956
H179	H	-0.312649	-0.841237	-0.472342
H180	H	0.187351	-0.341237	0.027658
H181	H	-0.801156	-1.284596	-0.238718
H182	H	-0.301156	-0.784596	0.261282
H183	H	-0.345933	-0.999857	-0.806270
H184	H	0.154067	-0.499857	-0.306270
N185	N	-0.319442	-1.039926	-0.673903
N186	N	0.180558	-0.539926	-0.173903
N187	N	-0.301046	-0.989570	-0.627846
N188	N	0.198954	-0.489570	-0.127846
H189	H	-0.325163	-0.953064	-0.598049
H190	H	0.174837	-0.453064	-0.098049
H191	H	-0.346146	-0.567640	-0.522811
H192	H	0.153854	-0.067640	-0.022811
H193	H	-0.801197	-0.999884	-0.523000
H194	H	-0.301197	-0.499884	-0.023000
H195	H	-0.702147	-0.999845	-0.522989
H196	H	-0.202147	-0.499845	-0.022989
N197	N	-0.947635	-1.244568	-0.278764
N198	N	-0.447635	-0.744568	0.221236
N199	N	-0.972016	-1.289734	-0.233679
N200	N	-0.472016	-0.789734	0.266321
H201	H	-0.952326	-1.326220	-0.197231
H202	H	-0.452326	-0.826220	0.302769
N203	N	-0.352828	-0.989411	-0.964604
N204	N	0.147172	-0.489411	-0.464604
N205	N	-0.352811	-0.989441	-1.038308
N206	N	0.147189	-0.489441	-0.538308
H207	H	-0.376921	-0.952956	-1.068084
H208	H	0.123079	-0.452956	-0.568084
N209	N	-0.319377	-1.040029	-1.088447
N210	N	0.180623	-0.540029	-0.588447
N211	N	-0.319360	-1.040047	-1.162151
N212	N	0.180640	-0.540047	-0.662151
H213	H	-0.343468	-1.003554	-1.191921
H214	H	0.156532	-0.503554	-0.691921
N215	N	-1.058015	-1.244616	-0.278796
N216	N	-0.558015	-0.744616	0.221204
N217	N	-1.106768	-1.244628	-0.278817
N218	N	-0.606768	-0.744628	0.221183
H219	H	-1.126468	-1.281122	-0.242389
H220	H	-0.626468	-0.781122	0.257611
H221	H	-0.450942	-1.233804	-0.289152
H222	H	0.049058	-0.733804	0.210848
H223	H	-1.052373	-1.050582	-0.472512
H224	H	-0.552373	-0.550582	0.027488
N225	N	-0.555642	-1.244363	-0.278706
N226	N	-0.055642	-0.744363	0.221294
N227	N	-0.531244	-1.289499	-0.233613
N228	N	-0.031244	-0.789499	0.266387
H229	H	-0.550921	-1.326008	-0.197170
H230	H	-0.050921	-0.826008	0.302830
H231	H	-0.157698	-0.717462	-0.238803
H232	H	0.342302	-0.217462	0.261197
N233	N	-0.150769	-0.559125	-0.228370
N234	N	0.349231	-0.059125	0.271630
N235	N	-0.150782	-0.485422	-0.228382
N236	N	0.349218	0.014578	0.271618
H237	H	-0.126634	-0.455638	-0.191988
H238	H	0.373366	0.044362	0.308012
N239	N	-0.150821	-1.295124	-0.964715
N240	N	0.349179	-0.795124	-0.464715
N241	N	-0.150816	-1.295133	-1.038419
N242	N	0.349184	-0.795133	-0.538419
H243	H	-0.126700	-1.331638	-1.068220
H244	H	0.373300	-0.831638	-0.568220
N245	N	-0.696458	-1.295018	-0.228225
N246	N	-0.196458	-0.795018	0.271775
N247	N	-0.720841	-1.340188	-0.183147
N248	N	-0.220841	-0.840188	0.316853
H249	H	-0.701152	-1.376678	-0.146700
H250	H	-0.201152	-0.876678	0.353300
N251	N	-0.150832	-1.295095	-0.797847
N252	N	0.349168	-0.795095	-0.297847
N253	N	-0.120981	-1.340270	-0.834726
N254	N	0.379019	-0.840270	-0.334726
H255	H	-0.096866	-1.376766	-0.804975
H256	H	0.403134	-0.876766	-0.304975
N257	N	-0.184287	-1.244466	-0.674001
N258	N	0.315713	-0.744466	-0.174001
N259	N	-0.154437	-1.289645	-0.710879
N260	N	0.345563	-0.789645	-0.210879
H261	H	-0.130324	-1.326142	-0.681126
H262	H	0.369676	-0.826142	-0.181126
H263	H	-0.953323	-1.050538	-0.472507
H264	H	-0.453323	-0.550538	0.027493
N265	N	-0.184254	-0.435293	-0.278838
N266	N	0.315746	0.064707	0.221162
N267	N	-0.184258	-0.361590	-0.278852
N268	N	0.315742	0.138410	0.221148
H269	H	-0.160105	-0.331812	-0.242461
H270	H	0.339895	0.168188	0.257539
N271	N	-0.353068	-0.725960	-0.533281
N272	N	0.146932	-0.225960	-0.033281
N273	N	-0.334709	-0.772050	-0.583698
N274	N	0.165291	-0.272050	-0.083698
H275	H	-0.358853	-0.801822	-0.620107
H276	H	0.141147	-0.301822	-0.120107
H277	H	-0.550036	-1.050319	-0.472442
H278	H	-0.050036	-0.550319	0.027558
H279	H	-0.450970	-1.050260	-0.472413
H280	H	0.049030	-0.550260	0.027587
H281	H	-0.312672	-0.443825	-0.472363
H282	H	0.187328	0.056175	0.027637
