data_functionalizedCrystal
_audit_creation_method	'MofGen! by Chris Wilmer'
_symmetry_space_group_name_H-M	'P1'
_symmetry_Int_Tables_number	1
_symmetry_cell_setting	triclinic
loop_
_symmetry_equiv_pos_as_xyz
  x,y,z
_cell_length_a	14.044191
_cell_length_b	14.044220
_cell_length_c	13.330367
_cell_angle_alpha	89.994700
_cell_angle_beta	89.994894
_cell_angle_gamma	93.190327
loop_
_atom_site_label
_atom_site_type_symbol
_atom_site_fract_x
_atom_site_fract_y
_atom_site_fract_z
O1	O	1.277177	0.230200	-0.083379
O2	O	1.000504	0.221887	-0.083392
O3	O	1.134688	0.087707	-0.083376
O4	O	1.142993	0.364379	-0.083395
O5	O	1.134666	0.087702	0.083471
O6	O	1.000483	0.221882	0.083455
O7	O	1.277155	0.230195	0.083468
Cu8	Cu	1.138817	0.226038	0.098696
Cu9	Cu	1.138842	0.226044	-0.098620
O10	O	1.142972	0.364374	0.083452
C11	C	0.964872	0.218248	0.000030
C12	C	0.858728	0.207401	0.000026
C13	C	0.613270	0.264501	0.000032
C14	C	0.664395	0.187585	0.000035
C15	C	0.772532	0.198613	0.000030
C16	C	0.505123	0.253474	0.000037
C17	C	1.131041	0.052083	0.000048
C18	C	1.120197	-0.054060	0.000049
C19	C	1.100370	-0.248398	0.000033
C20	C	1.177285	-0.299526	0.000034
C21	C	1.166253	-0.407663	0.000025
C22	C	1.111400	-0.140252	0.000042
C23	C	1.312788	0.233834	0.000043
C24	C	1.418931	0.244681	0.000041
C25	C	1.146618	0.399998	0.000026
C26	C	1.157463	0.506142	0.000018
N27	N	1.138806	0.226034	0.237477
N28	N	1.138860	0.226041	-0.237402
C29	C	1.079421	0.285433	0.710093
C30	C	1.198289	0.166649	0.710075
C31	C	1.198278	0.166646	0.605057
C32	C	1.138839	0.226037	0.552552
C33	C	1.079410	0.285433	0.605065
C34	C	1.257712	0.107258	0.552536
C35	C	1.257704	0.107253	0.447511
C36	C	1.198259	0.166640	0.395004
C37	C	1.138828	0.226037	0.447524
C38	C	1.079389	0.285429	0.395019
C39	C	1.019951	0.344822	0.447536
C40	C	1.019965	0.344820	0.552558
C41	C	1.198245	0.166642	0.289982
C42	C	1.079378	0.285429	0.289991
H43	H	0.650711	0.338628	0.000023
F44	F	0.956715	0.408028	0.608455
H45	H	1.251419	-0.262085	-0.000030
H46	H	1.026242	-0.285837	0.000027
H47	H	0.626952	0.113452	-0.000030
F48	F	1.320959	0.044041	0.391625
F49	F	1.016108	0.348638	0.234119
H50	H	0.971560	0.393183	0.404775
F51	F	1.016163	0.348637	0.765984
F52	F	1.261552	0.103450	0.765954
H53	H	1.306111	0.058908	0.595289
F54	F	1.261504	0.103442	0.234096
