data_functionalizedCrystal
_audit_creation_method	'MofGen! by Chris Wilmer'
_symmetry_space_group_name_H-M	'P1'
_symmetry_Int_Tables_number	1
_symmetry_cell_setting	triclinic
loop_
_symmetry_equiv_pos_as_xyz
  x,y,z
_cell_length_a	16.625546
_cell_length_b	13.032951
_cell_length_c	13.032268
_cell_angle_alpha	89.114265
_cell_angle_beta	97.144614
_cell_angle_gamma	97.175817
loop_
_atom_site_label
_atom_site_type_symbol
_atom_site_fract_x
_atom_site_fract_y
_atom_site_fract_z
Zn1	Zn	-0.544578	-1.498424	-0.780818
Zn2	Zn	-0.044578	-0.998424	-0.280818
Zn3	Zn	-0.664710	-1.520155	-0.608826
Zn4	Zn	-0.164710	-1.020155	-0.108826
Zn5	Zn	-0.510890	-1.348286	-0.587058
Zn6	Zn	-0.010890	-0.848286	-0.087058
Zn7	Zn	-0.660343	-1.326404	-0.758946
Zn8	Zn	-0.160343	-0.826404	-0.258946
O9	O	-0.595130	-1.423317	-0.683912
O10	O	-0.095130	-0.923317	-0.183912
O11	O	-0.576440	-1.645225	-0.776266
O12	O	-0.076440	-1.145225	-0.276266
O13	O	-0.632034	-1.515608	-0.462023
O14	O	-0.132034	-1.015608	0.037977
O15	O	-0.402537	-1.368265	-0.612805
O16	O	0.097463	-0.868265	-0.112805
O17	O	-0.664700	-1.661191	-0.649904
O18	O	-0.164700	-1.161191	-0.149904
O19	O	-0.427288	-1.478571	-0.755159
O20	O	0.072712	-0.978571	-0.255159
O21	O	-0.519023	-1.389337	-0.446031
O22	O	-0.019023	-0.889337	0.053969
O23	O	-0.514789	-1.201465	-0.591596
O24	O	-0.014789	-0.701465	-0.091596
O25	O	-0.657257	-1.330971	-0.905762
O26	O	-0.157257	-0.830971	-0.405762
O27	O	-0.624591	-1.185388	-0.717882
O28	O	-0.124591	-0.685388	-0.217882
O29	O	-0.572206	-1.457353	-0.921832
O30	O	-0.072206	-0.957353	-0.421832
O31	O	-0.776952	-1.494391	-0.628696
O32	O	-0.276952	-0.994391	-0.128696
O33	O	-0.773744	-1.352043	-0.738988
O34	O	-0.273744	-0.852043	-0.238988
C35	C	-0.565561	-1.156110	-0.650004
C36	C	-0.065561	-0.656110	-0.150004
C37	C	-0.552933	-1.041794	-0.635523
C38	C	-0.052933	-0.541794	-0.135523
C39	C	-0.804607	-1.423225	-0.683857
C40	C	-0.304607	-0.923225	-0.183857
C41	C	-0.894235	-1.423276	-0.683879
C42	C	-0.394235	-0.923276	-0.183879
C43	C	-0.601702	-0.982914	-0.691456
C44	C	-0.101702	-0.482914	-0.191456
C45	C	-0.588651	-0.864763	-0.676490
C46	C	-0.088651	-0.364763	-0.176490
C47	C	-1.222439	-1.423442	-0.684009
C48	C	-0.722439	-0.923442	-0.184009
C49	C	-1.131123	-1.423392	-0.683975
C50	C	-0.631123	-0.923392	-0.183975
C51	C	-1.058340	-1.423358	-0.683944
C52	C	-0.558340	-0.923358	-0.183944
C53	C	-0.967018	-1.423310	-0.683911
C54	C	-0.467018	-0.923310	-0.183911
C55	C	-0.384841	-1.423435	-0.683994
C56	C	0.115159	-0.923435	-0.183994
C57	C	-0.295228	-1.423485	-0.684028
C58	C	0.204772	-0.923485	-0.184028
C59	C	-0.618002	-1.389297	-0.952156
C60	C	-0.118002	-0.889297	-0.452156
C61	C	-0.627749	-1.374800	-1.066465
C62	C	-0.127749	-0.874800	-0.566465
C63	C	-0.624805	-0.691569	-0.717946
C64	C	-0.124805	-0.191569	-0.217946
C65	C	-0.637427	-0.805884	-0.732431
C66	C	-0.137427	-0.305884	-0.232431
C67	C	-0.590013	-1.430868	-1.125379
C68	C	-0.090013	-0.930868	-0.625379
C69	C	-0.600085	-1.415885	-1.243524
C70	C	-0.100085	-0.915885	-0.743524
C71	C	-0.572295	-1.457264	-0.416719
C72	C	-0.072295	-0.957264	0.083281
C73	C	-0.562344	-1.471961	-0.302436
C74	C	-0.062344	-0.971961	0.197564
H75	H	-0.653114	-1.019975	-0.750426
H76	H	-0.153114	-0.519975	-0.250426
N77	N	-0.509659	-1.550238	-1.253408
N78	N	-0.009659	-1.050238	-0.753408
H79	H	-0.509928	-1.549846	-1.175959
H80	H	-0.009928	-1.049846	-0.675959
H81	H	-0.531920	-1.621326	-1.281446
H82	H	-0.031920	-1.121326	-0.781446
H83	H	-0.667508	-1.315699	-1.103493
H84	H	-0.167508	-0.815699	-0.603493
H85	H	-0.639847	-1.356781	-1.280547
H86	H	-0.139847	-0.856781	-0.780547
H87	H	-0.537230	-0.827705	-0.617524
H88	H	-0.037230	-0.327705	-0.117524
H89	H	-0.688841	-0.842939	-0.791408
H90	H	-0.188841	-0.342939	-0.291408
N91	N	-0.537357	-1.509165	-1.076337
N92	N	-0.037357	-1.009165	-0.576337
H93	H	-0.491597	-1.473019	-1.026465
H94	H	0.008403	-0.973019	-0.526465
H95	H	-0.571706	-1.562381	-1.037867
H96	H	-0.071706	-1.062381	-0.537867
H97	H	-0.501516	-1.004732	-0.576560
H98	H	-0.001516	-0.504732	-0.076560
