data_functionalizedCrystal
_audit_creation_method	'MofGen! by Chris Wilmer'
_symmetry_space_group_name_H-M	'P1'
_symmetry_Int_Tables_number	1
_symmetry_cell_setting	triclinic
loop_
_symmetry_equiv_pos_as_xyz
  x,y,z
_cell_length_a	11.169417
_cell_length_b	11.169416
_cell_length_c	14.908854
_cell_angle_alpha	86.680204
_cell_angle_beta	86.718053
_cell_angle_gamma	89.985662
loop_
_atom_site_label
_atom_site_type_symbol
_atom_site_fract_x
_atom_site_fract_y
_atom_site_fract_z
Zn1	Zn	1.795741	0.438586	0.510063
Zn2	Zn	2.295741	0.938586	1.010063
Zn3	Zn	1.807213	0.650884	0.359226
Zn4	Zn	2.307213	1.150884	0.859226
Zn5	Zn	1.606619	0.450218	0.359229
Zn6	Zn	2.106619	0.950218	0.859229
Zn7	Zn	1.595026	0.639231	0.510047
Zn8	Zn	2.095026	1.139231	1.010047
O9	O	1.701150	0.544730	0.434641
O10	O	2.201150	1.044730	0.934641
O11	O	1.965212	0.466756	0.490060
O12	O	2.465212	0.966756	0.990060
O13	O	1.790256	0.634011	0.232983
O14	O	2.290256	1.134011	0.732983
O15	O	1.631757	0.280725	0.379245
O16	O	2.131757	0.780725	0.879245
O17	O	1.973640	0.622731	0.379241
O18	O	2.473640	1.122731	0.879241
O19	O	1.770704	0.272178	0.490063
O20	O	2.270704	0.772178	0.990063
O21	O	1.642880	0.486582	0.232985
O22	O	2.142880	0.986582	0.732985
O23	O	1.437132	0.475282	0.379229
O24	O	1.937132	0.975282	0.879229
O25	O	1.611999	0.602870	0.636293
O26	O	2.111999	1.102870	1.136293
O27	O	1.428615	0.614149	0.490034
O28	O	1.928615	1.114149	0.990034
O29	O	1.759463	0.455457	0.636305
O30	O	2.259463	0.955457	1.136305
O31	O	1.779015	0.817289	0.379225
O32	O	2.279015	1.317289	0.879225
O33	O	1.623122	0.808727	0.490032
O34	O	2.123122	1.308727	0.990032
C35	C	1.389326	0.544714	0.434631
C36	C	1.889326	1.044714	0.934631
C37	C	1.255924	0.544735	0.434648
C38	C	1.755924	1.044735	0.934648
C39	C	1.701087	0.856554	0.434646
C40	C	2.201087	1.356554	0.934646
C41	C	1.701167	0.989952	0.434678
C42	C	2.201167	1.489952	0.934678
C43	C	2.014191	0.544746	0.434652
C44	C	2.514191	1.044746	0.934652
C45	C	2.147591	0.544753	0.434657
C46	C	2.647591	1.044753	0.934657
C47	C	1.683158	0.526566	0.669947
C48	C	2.183158	1.026566	1.169947
C49	C	1.675492	0.518825	0.770221
C50	C	2.175492	1.018825	1.270221
C51	C	1.701231	1.231686	0.434665
C52	C	2.201231	1.731686	0.934665
C53	C	1.701233	1.098283	0.434700
C54	C	2.201233	1.598283	0.934700
C55	C	1.719140	0.562736	0.200250
C56	C	2.219140	1.062736	0.700250
C57	C	1.727039	0.570139	0.099977
C58	C	2.227039	1.070139	0.599977
C59	C	1.814575	0.657794	0.958646
C60	C	2.314575	1.157794	1.458646
C61	C	1.807375	0.650525	1.052861
C62	C	2.307375	1.150525	1.552861
C63	C	1.653900	0.497013	1.052870
C64	C	2.153900	0.997013	1.552870
C65	C	1.661099	0.504282	0.958655
C66	C	2.161099	1.004282	1.458655
C67	C	1.741438	0.584677	0.911545
C68	C	2.241438	1.084677	1.411545
C69	C	1.748631	0.591951	0.817328
C70	C	2.248631	1.091951	1.317328
C71	C	1.595162	0.438433	0.817338
C72	C	2.095162	0.938433	1.317338
C73	C	1.587963	0.431164	0.911554
C74	C	2.087963	0.931164	1.411554
H75	H	1.879995	0.723249	0.920288
H76	H	2.379995	1.223249	1.420288
H77	H	1.814053	0.657407	0.778973
H78	H	2.314053	1.157407	1.278973
O79	O	1.878466	0.721678	1.098475
O80	O	2.378466	1.221678	1.598475
C81	C	1.950937	0.794167	1.036688
C82	C	2.450937	1.294167	1.536688
H83	H	1.906910	0.803504	0.969527
H84	H	2.406910	1.303504	1.469527
H85	H	2.042864	0.750988	1.026672
H86	H	2.542864	1.250988	1.526672
C87	C	2.019472	0.907599	1.155937
C88	C	2.519472	1.407599	1.655937
C89	C	1.965391	0.919075	1.073450
C90	C	2.465391	1.419075	1.573450
H91	H	2.028394	0.984646	1.178614
H92	H	2.528394	1.484646	1.678614
H93	H	1.970651	0.858759	1.197565
H94	H	2.470651	1.358759	1.697565
H95	H	2.096072	0.871611	1.147580
H96	H	2.596072	1.371611	1.647580
H97	H	1.888787	0.955047	1.081811
H98	H	2.388787	1.455047	1.581811
H99	H	2.014201	0.967923	1.031824
H100	H	2.514201	1.467923	1.531824
H101	H	1.588499	0.431553	1.091243
H102	H	2.088499	0.931553	1.591243
H103	H	1.522556	0.365707	0.949924
H104	H	2.022556	0.865707	1.449924
H105	H	1.535608	0.378897	0.778980
H106	H	2.035608	0.878897	1.278980
