data_functionalizedCrystal
_audit_creation_method	'MofGen! by Chris Wilmer'
_symmetry_space_group_name_H-M	'P1'
_symmetry_Int_Tables_number	1
_symmetry_cell_setting	triclinic
loop_
_symmetry_equiv_pos_as_xyz
  x,y,z
_cell_length_a	11.169417
_cell_length_b	18.215405
_cell_length_c	18.215387
_cell_angle_alpha	89.908406
_cell_angle_beta	89.942747
_cell_angle_gamma	90.025764
loop_
_atom_site_label
_atom_site_type_symbol
_atom_site_fract_x
_atom_site_fract_y
_atom_site_fract_z
Zn1	Zn	1.835285	-0.292531	-0.416035
Zn2	Zn	1.834992	-0.415734	-0.292963
Zn3	Zn	1.634439	-0.292687	-0.292990
Zn4	Zn	1.634527	-0.415562	-0.415995
O5	O	1.734811	-0.354129	-0.354496
O6	O	2.003195	-0.308881	-0.399714
O7	O	1.808229	-0.399548	-0.189982
O8	O	1.661168	-0.189682	-0.309339
O9	O	2.002980	-0.399397	-0.309294
O10	O	1.808728	-0.189568	-0.399740
O11	O	1.660884	-0.309147	-0.190001
O12	O	1.466501	-0.308981	-0.309301
O13	O	1.661317	-0.399105	-0.518985
O14	O	1.466566	-0.399257	-0.399673
O15	O	1.808813	-0.308715	-0.519014
O16	O	1.808314	-0.518695	-0.309256
O17	O	1.661033	-0.518570	-0.399647
C18	C	1.422986	-0.354118	-0.354486
C19	C	1.289586	-0.354130	-0.354500
C20	C	1.734684	-0.545335	-0.354460
C21	C	1.734739	-0.627134	-0.354470
C22	C	1.811609	-0.815369	-0.307489
C23	C	1.811662	-0.892227	-0.307507
C24	C	1.658166	-0.892137	-0.401555
C25	C	1.658119	-0.815279	-0.401540
C26	C	1.734839	-0.776897	-0.354503
C27	C	1.734939	-0.930613	-0.354536
C28	C	1.734997	-1.013947	-0.354555
C29	C	1.734783	-0.693558	-0.354484
C30	C	2.047853	-0.354140	-0.354506
C31	C	2.181253	-0.354145	-0.354510
C32	C	1.735107	-0.353873	-0.546449
C33	C	1.735234	-0.353765	-0.628248
C34	C	1.734971	-0.162176	-0.354547
C35	C	1.735039	-0.080377	-0.354569
C36	C	1.734584	-0.354330	-0.163289
C37	C	1.734690	-0.354231	-0.081490
C38	C	1.657745	-0.307231	0.183522
C39	C	1.657649	-0.307311	0.106663
C40	C	1.812183	-0.400770	0.106745
C41	C	1.812271	-0.400693	0.183602
C42	C	1.735054	-0.353919	0.221989
C43	C	1.734870	-0.354076	0.068273
C44	C	1.734768	-0.354164	-0.015061
C45	C	1.735154	-0.353833	0.305327
H46	H	1.874178	-0.923547	-0.269225
H47	H	1.595604	-0.783954	-0.439828
H48	H	1.874080	-0.784120	-0.269190
H49	H	1.594869	-0.269145	0.214774
N50	N	1.574262	-0.256958	0.065173
H51	H	1.525361	-0.227318	0.101156
H52	H	1.622704	-0.222721	0.033142
H53	H	1.875051	-0.438851	0.075481
H54	H	1.875228	-0.438715	0.214923
H55	H	1.595702	-0.923396	-0.439849
