data_functionalizedCrystal
_audit_creation_method	'MofGen! by Chris Wilmer'
_symmetry_space_group_name_H-M	'P1'
_symmetry_Int_Tables_number	1
_symmetry_cell_setting	triclinic
loop_
_symmetry_equiv_pos_as_xyz
  x,y,z
_cell_length_a	25.639242
_cell_length_b	25.639240
_cell_length_c	13.033109
_cell_angle_alpha	97.144236
_cell_angle_beta	82.796926
_cell_angle_gamma	90.025061
loop_
_atom_site_label
_atom_site_type_symbol
_atom_site_fract_x
_atom_site_fract_y
_atom_site_fract_z
Zn1	Zn	0.836813	-0.245790	-0.590812
Zn2	Zn	0.825632	-0.322125	-0.416038
Zn3	Zn	0.738279	-0.234696	-0.416083
Zn4	Zn	0.749338	-0.333179	-0.590722
O5	O	0.787516	-0.283947	-0.503414
O6	O	0.908496	-0.255932	-0.567646
O7	O	0.804738	-0.301258	-0.269813
O8	O	0.751401	-0.163006	-0.439317
O9	O	0.900282	-0.312015	-0.439240
O10	O	0.823793	-0.171157	-0.567690
O11	O	0.740560	-0.237025	-0.269846
O12	O	0.666580	-0.247744	-0.439231
O13	O	0.770248	-0.330855	-0.736965
O14	O	0.674704	-0.320098	-0.567538
O15	O	0.834516	-0.266651	-0.737031
O16	O	0.815461	-0.396753	-0.439154
O17	O	0.759407	-0.404874	-0.567494
C18	C	0.651671	-0.283917	-0.503380
C19	C	0.593557	-0.283918	-0.503390
C20	C	0.787436	-0.419785	-0.503332
C21	C	0.787453	-0.477899	-0.503332
C22	C	0.346658	-0.254812	-0.570397
C23	C	0.401262	-0.254807	-0.570391
O24	O	0.433150	-0.230036	-0.627354
N25	N	0.424286	-0.283942	-0.503426
C26	C	0.392703	-0.313089	-0.436470
O27	O	0.417300	-0.337871	-0.379511
C28	C	0.338100	-0.313097	-0.436482
C29	C	0.315079	-0.283956	-0.503444
C30	C	0.323637	-0.225673	-0.637354
C31	C	0.269037	-0.225678	-0.637358
C32	C	0.237458	-0.254822	-0.570405
C33	C	0.260479	-0.283961	-0.503448
C34	C	0.306518	-0.342247	-0.369532
C35	C	0.251913	-0.342253	-0.369550
C36	C	0.228892	-0.313112	-0.436512
C37	C	0.174300	-0.313109	-0.436499
N38	N	0.151276	-0.283974	-0.503464
C39	C	0.182855	-0.254830	-0.570417
C40	C	0.507372	-0.313071	-0.436451
C41	C	0.561973	-0.313060	-0.436433
C42	C	0.570529	-0.254778	-0.570355
C43	C	0.515927	-0.254786	-0.570367
C44	C	0.484349	-0.283935	-0.503416
C45	C	0.068190	-0.254842	-0.570421
C46	C	0.013585	-0.254848	-0.570416
C47	C	0.005034	-0.313132	-0.436498
C48	C	0.059634	-0.313124	-0.436498
C49	C	0.091212	-0.283978	-0.503468
O50	O	0.142380	-0.337869	-0.379568
O51	O	0.158251	-0.230058	-0.627376
C52	C	0.825234	-0.842480	-0.570378
C53	C	0.825251	-0.897086	-0.570399
O54	O	0.857281	-0.928904	-0.627320
N55	N	0.787594	-0.920193	-0.503515
C56	C	0.749915	-0.888692	-0.436612
O57	O	0.717887	-0.913360	-0.379724
C58	C	0.749897	-0.834087	-0.436597
C59	C	0.787559	-0.810983	-0.503478
C60	C	0.862894	-0.819375	-0.637255
C61	C	0.862877	-0.764773	-0.637232
C62	C	0.825202	-0.733276	-0.570332
C63	C	0.787543	-0.756381	-0.503455
C64	C	0.712216	-0.802588	-0.369700
C65	C	0.712200	-0.747980	-0.369692
C66	C	0.749862	-0.724876	-0.436573
C67	C	0.749851	-0.670282	-0.436533
N68	N	0.787508	-0.647175	-0.503417
C69	C	0.825183	-0.678672	-0.570317
C70	C	0.749957	-1.003365	-0.436650
C71	C	0.749977	-1.057968	-0.436659
C72	C	0.825313	-1.066358	-0.570448
C73	C	0.825294	-1.011754	-0.570433
C74	C	0.787613	-0.980258	-0.503535
C75	C	0.825146	-0.564003	-0.570263
C76	C	0.825128	-0.509396	-0.570231
C77	C	0.749791	-0.501011	-0.436447
C78	C	0.749811	-0.555613	-0.436475
C79	C	0.787491	-0.587109	-0.503391
O80	O	0.717836	-0.638431	-0.379644
O81	O	0.857202	-0.653997	-0.627205
C82	C	0.923891	-0.283978	-0.503448
C83	C	0.982006	-0.283992	-0.503463
C84	C	0.804863	-0.301223	-0.775974
C85	C	0.812255	-0.308586	-0.892123
C86	C	0.787611	-0.147581	-0.503519
C87	C	0.787651	-0.089470	-0.503563
C88	C	0.783797	-0.280086	-0.943922
C89	C	0.791437	-0.287695	-1.063969
C90	C	0.770266	-0.266701	-0.231914
C91	C	0.762975	-0.259192	-0.115765
H92	H	0.093895	-0.231108	-0.624953
H93	H	0.497187	-0.231056	-0.624893
H94	H	0.580711	-0.336783	-0.381894
O95	O	0.865751	-0.484475	-0.642369
H96	H	0.889392	-0.456636	-0.595632
H97	H	0.821458	-0.317729	-1.108491
H98	H	0.753775	-0.250057	-0.899396
H99	H	0.349344	-0.201941	-0.691880
H100	H	0.596251	-0.231048	-0.624873
H101	H	0.481664	-0.336806	-0.381922
O102	O	0.723212	-0.219401	-1.056798
H103	H	0.703528	-0.199683	-1.113005
O104	O	0.903498	-0.739861	-0.709378
H105	H	0.897165	-0.696598	-0.698133
H106	H	0.842275	-0.338618	-0.936649
O107	O	0.244210	-0.194251	-0.709588
H108	H	0.275350	-0.173991	-0.756144
H109	H	-0.005156	-0.231115	-0.624944
O110	O	0.709359	-1.082886	-0.364518
H111	H	0.683158	-1.051805	-0.318004
H112	H	0.325252	-0.365978	-0.315004
H113	H	0.226204	-0.365992	-0.315032
O114	O	0.709157	-0.467034	-0.364290
H115	H	0.685504	-0.445128	-0.411011
H116	H	0.078378	-0.336848	-0.381963
H117	H	0.855826	-0.589642	-0.624760
O118	O	-0.029032	-0.344562	-0.364282
H119	H	-0.050940	-0.374160	-0.410960
O120	O	0.903534	-0.853344	-0.709412
H121	H	0.929715	-0.828094	-0.755900
O122	O	0.865916	-0.986834	-0.642564
H123	H	0.892115	-1.017915	-0.689081
O124	O	0.865945	-1.100335	-0.642622
H125	H	0.859623	-1.142186	-0.631401
H126	H	0.719274	-0.977722	-0.382165
O127	O	0.671588	-0.827496	-0.297567
H128	H	0.691629	-0.849000	-0.244435
O129	O	0.671562	-0.714007	-0.297526
H130	H	0.645383	-0.739251	-0.251020
O131	O	0.709192	-0.580538	-0.364339
H132	H	0.682990	-0.549460	-0.317820
