data_functionalizedCrystal
_audit_creation_method	'MofGen! by Chris Wilmer'
_symmetry_space_group_name_H-M	'P1'
_symmetry_Int_Tables_number	1
_symmetry_cell_setting	triclinic
loop_
_symmetry_equiv_pos_as_xyz
  x,y,z
_cell_length_a	19.077105
_cell_length_b	25.639239
_cell_length_c	19.077237
_cell_angle_alpha	92.269360
_cell_angle_beta	85.486555
_cell_angle_gamma	87.734929
loop_
_atom_site_label
_atom_site_type_symbol
_atom_site_fract_x
_atom_site_fract_y
_atom_site_fract_z
Zn1	Zn	1.093599	-0.254028	-0.441820
Zn2	Zn	1.088762	-0.337802	-0.323927
Zn3	Zn	0.970992	-0.246722	-0.319220
Zn4	Zn	0.975650	-0.337766	-0.437044
O5	O	1.032251	-0.294079	-0.380503
O6	O	1.191606	-0.268214	-0.430151
O7	O	1.069166	-0.322678	-0.224654
O8	O	0.987332	-0.174529	-0.335511
O9	O	1.188052	-0.329762	-0.343535
O10	O	1.077410	-0.179897	-0.425586
O11	O	0.982641	-0.255761	-0.221195
O12	O	0.872961	-0.255726	-0.330880
O13	O	0.995269	-0.329700	-0.536327
O14	O	0.876383	-0.322616	-0.417445
O15	O	1.081926	-0.268178	-0.539836
O16	O	1.073682	-0.410959	-0.338904
O17	O	0.990579	-0.410933	-0.422010
C18	C	0.849094	-0.288374	-0.373134
C19	C	0.770739	-0.285947	-0.369998
C20	C	0.735725	-0.319680	-0.413524
C21	C	0.662102	-0.317393	-0.410581
C22	C	0.623495	-0.281374	-0.364109
C23	C	0.658514	-0.247636	-0.320581
C24	C	0.732136	-0.249922	-0.323528
C25	C	0.403119	-0.270796	-0.350473
C26	C	0.329492	-0.268514	-0.347528
C27	C	0.333085	-0.338270	-0.437529
C28	C	0.406708	-0.340555	-0.440469
C29	C	0.441721	-0.306816	-0.396944
N30	N	0.548241	-0.279036	-0.361098
N31	N	0.516973	-0.309152	-0.399959
C32	C	1.032131	-0.429917	-0.380466
C33	C	1.032145	-0.488032	-0.380476
C34	C	1.075643	-0.848406	-0.337311
C35	C	1.075671	-0.903012	-0.337321
O36	O	1.112530	-0.931253	-0.300580
N37	N	1.032376	-0.930324	-0.380555
C38	C	0.989057	-0.903028	-0.423785
O39	O	0.952235	-0.931272	-0.460560
C40	C	0.989033	-0.848423	-0.423778
C41	C	1.032325	-0.821114	-0.380537
C42	C	1.118932	-0.821097	-0.294074
C43	C	1.118903	-0.766495	-0.294062
C44	C	1.075585	-0.739203	-0.337288
C45	C	1.032296	-0.766512	-0.380525
C46	C	0.945718	-0.821128	-0.467012
C47	C	0.945699	-0.766520	-0.467001
C48	C	0.988991	-0.739211	-0.423760
C49	C	0.988950	-0.684618	-0.423740
N50	N	1.032244	-0.657306	-0.380507
C51	C	1.075562	-0.684599	-0.337281
C52	C	0.989110	-1.017700	-0.423798
C53	C	0.989130	-1.072303	-0.423802
C54	C	1.075745	-1.072284	-0.337339
C55	C	1.075721	-1.017680	-0.337332
C56	C	1.032405	-0.990388	-0.380565
C57	C	1.075497	-0.569931	-0.337260
C58	C	1.075463	-0.515324	-0.337250
C59	C	0.988851	-0.515349	-0.423716
C60	C	0.988883	-0.569950	-0.423723
C61	C	1.032212	-0.597240	-0.380493
O62	O	0.952112	-0.656342	-0.460464
O63	O	1.112384	-0.656348	-0.300519
C64	C	1.216123	-0.299807	-0.387901
C65	C	1.294478	-0.302248	-0.391053
C66	C	1.039657	-0.299750	-0.564375
C67	C	1.042813	-0.302167	-0.642730
C68	C	1.032391	-0.157712	-0.380556
C69	C	1.032450	-0.099600	-0.380579
C70	C	1.065454	-0.319537	-1.083981
C71	C	1.062478	-0.317263	-1.010358
C72	C	1.015946	-0.281284	-0.971753
C73	C	0.972381	-0.247580	-1.006776
C74	C	0.975354	-0.249857	-1.080398
C75	C	1.002221	-0.270740	-0.751374
C76	C	0.999253	-0.268464	-0.677747
C77	C	1.089350	-0.338148	-0.681335
C78	C	1.092321	-0.340420	-0.754958
C79	C	1.048754	-0.306718	-0.789974
N80	N	1.012904	-0.278957	-0.896498
N81	N	1.051792	-0.309048	-0.865227
C82	C	1.024914	-0.288394	-0.197348
C83	C	1.021894	-0.285835	-0.118999
H84	H	1.110716	-0.493091	-0.302036
H85	H	0.760643	-0.222450	-0.288088
N86	N	1.122471	-1.101731	-0.290723
H87	H	1.173269	-1.094094	-0.303739
H88	H	1.109474	-1.090350	-0.239920
H89	H	1.110973	-0.995447	-0.302122
H90	H	1.097941	-0.344713	-0.981850
N91	N	0.295325	-0.374654	-0.484480
H92	H	0.307660	-0.412054	-0.473952
H93	H	0.242840	-0.367698	-0.475544
N94	N	0.922197	-0.208770	-0.965139
H95	H	0.895053	-0.187766	-0.998496
H96	H	0.888317	-0.228088	-0.933270
H97	H	0.953870	-1.094533	-0.459007
H98	H	0.298060	-0.239177	-0.309688
H99	H	0.953580	-0.493119	-0.458908
H100	H	1.130212	-0.369718	-0.786385
H101	H	0.939884	-0.222412	-1.108908
N102	N	0.440878	-0.234400	-0.303541
H103	H	0.405247	-0.211235	-0.273657
H104	H	0.470091	-0.255574	-0.272083
H105	H	0.627075	-0.218307	-0.282745
N106	N	1.115647	-0.358341	-1.125617
H107	H	1.142789	-0.379346	-1.092259
H108	H	1.088159	-0.382585	-1.154999
N109	N	0.955257	-0.234382	-0.789148
H110	H	0.923795	-0.255547	-0.818376
H111	H	0.925377	-0.211244	-0.753485
N112	N	0.942375	-0.988264	-0.470417
H113	H	0.972297	-0.967476	-0.504262
H114	H	0.914960	-1.013885	-0.497755
H115	H	0.910426	-0.744303	-0.502209
H116	H	1.124819	-0.365587	-0.652817
H117	H	0.910462	-0.843354	-0.502220
N118	N	1.122230	-0.599361	-0.290635
H119	H	1.149644	-0.573768	-0.263246
H120	H	1.092259	-0.620149	-0.256837
N121	N	0.942183	-0.599409	-0.470352
H122	H	0.914735	-0.573831	-0.497731
H123	H	0.972180	-0.623928	-0.504159
N124	N	1.165607	-0.737045	-0.247435
H125	H	1.193054	-0.762627	-0.220061
H126	H	1.199354	-0.716261	-0.277472
H127	H	1.154210	-0.843313	-0.258874
N128	N	0.949060	-0.229658	-0.636107
H129	H	0.921910	-0.208655	-0.669460
H130	H	0.915186	-0.248982	-0.604238
H131	H	0.633597	-0.344863	-0.446024
N132	N	0.777363	-0.358534	-0.463644
H133	H	0.744007	-0.379556	-0.490771
H134	H	0.809250	-0.339246	-0.497544
H135	H	0.438137	-0.369886	-0.478311
