data_functionalizedCrystal
_audit_creation_method	'MofGen! by Chris Wilmer'
_symmetry_space_group_name_H-M	'P1'
_symmetry_Int_Tables_number	1
_symmetry_cell_setting	triclinic
loop_
_symmetry_equiv_pos_as_xyz
  x,y,z
_cell_length_a	14.586319
_cell_length_b	9.065218
_cell_length_c	16.109296
_cell_angle_alpha	84.237729
_cell_angle_beta	90.002940
_cell_angle_gamma	89.996417
loop_
_atom_site_label
_atom_site_type_symbol
_atom_site_fract_x
_atom_site_fract_y
_atom_site_fract_z
O1	O	0.076227	-1.957446	-0.121906
O2	O	0.076227	-1.527919	-0.131905
O3	O	0.076237	-1.754486	-0.005965
O4	O	0.076217	-1.730880	-0.247846
O5	O	-0.076244	-1.754470	-0.005963
O6	O	-0.076254	-1.527904	-0.131903
O7	O	-0.076254	-1.957431	-0.121904
Cu8	Cu	-0.090176	-1.742666	-0.126903
Cu9	Cu	0.090150	-1.742684	-0.126905
O10	O	-0.076263	-1.730864	-0.247844
C11	C	-0.000013	-1.472948	-0.130943
C12	C	-0.000012	-1.309175	-0.128069
N13	N	-0.217008	-1.742663	-0.126901
C14	C	0.000001	-1.753523	0.025019
C15	C	0.000014	-1.750660	0.117336
C16	C	-0.452010	-1.843020	-0.071154
C17	C	-0.547992	-1.843024	-0.071152
C18	C	-0.548010	-1.642331	-0.182651
C19	C	-0.452030	-1.642321	-0.182648
C20	C	-0.404033	-1.742674	-0.126901
C21	C	-0.595994	-1.742688	-0.126901
C22	C	-0.700061	-1.742692	-0.126900
C23	C	-0.299959	-1.742668	-0.126901
N24	N	0.216981	-1.742698	-0.126901
C25	C	-0.000012	-2.012402	-0.122866
C26	C	-0.000006	-2.176175	-0.125739
C27	C	0.083120	-1.741325	0.416476
C28	C	0.083124	-1.744035	0.329735
C29	C	-0.083119	-1.744039	0.329723
C30	C	-0.083122	-1.741339	0.416463
C31	C	-0.000000	-1.739975	0.459837
C32	C	0.000007	-1.745385	0.286356
C33	C	0.000011	-1.748323	0.192308
C34	C	-0.000004	-1.737039	0.553891
C35	C	-0.000019	-1.731829	0.721173
C36	C	-0.000007	-1.734700	0.628856
H37	H	-0.412933	-1.924732	-0.025760
O38	O	-0.594778	-1.545005	-0.236776
C39	C	-0.742647	-1.456022	-0.286167
C40	C	-0.689800	-1.566344	-0.224836
H41	H	-0.819481	-1.473215	-0.276522
H42	H	-0.723841	-1.475209	-0.352927
H43	H	-0.723732	-1.337883	-0.274416
H44	H	-0.708686	-1.684526	-0.236510
H45	H	-0.708610	-1.547027	-0.158096
H46	H	-0.587052	-1.924734	-0.025757
H47	H	0.150809	-1.745136	0.294435
H48	H	-0.412964	-1.560599	-0.228044
O49	O	0.163943	-1.740050	0.458485
C50	C	0.328833	-1.740180	0.449328
C51	C	0.237365	-1.741677	0.401657
H52	H	0.388219	-1.741464	0.403401
H53	H	0.333072	-1.842110	0.496760
H54	H	0.332917	-1.635742	0.483116
H55	H	0.233219	-1.846047	0.367819
H56	H	0.233164	-1.639677	0.354272
H57	H	-0.150794	-1.745148	0.294397
H58	H	-0.150813	-1.740244	0.451768
