data_functionalizedCrystal
_audit_creation_method	'MofGen! by Chris Wilmer'
_symmetry_space_group_name_H-M	'P1'
_symmetry_Int_Tables_number	1
_symmetry_cell_setting	triclinic
loop_
_symmetry_equiv_pos_as_xyz
  x,y,z
_cell_length_a	21.395362
_cell_length_b	17.637651
_cell_length_c	21.395355
_cell_angle_alpha	101.232233
_cell_angle_beta	90.043940
_cell_angle_gamma	101.230465
loop_
_atom_site_label
_atom_site_type_symbol
_atom_site_fract_x
_atom_site_fract_y
_atom_site_fract_z
Zn1	Zn	0.907526	-0.314524	0.304123
Zn2	Zn	1.240860	0.018809	0.637456
Zn3	Zn	1.574193	0.352143	0.970789
Zn4	Zn	0.886274	-0.446721	0.178135
Zn5	Zn	1.219607	-0.113387	0.511469
Zn6	Zn	1.552940	0.219946	0.844802
Zn7	Zn	0.802736	-0.314561	0.199318
Zn8	Zn	1.136069	0.018773	0.532651
Zn9	Zn	1.469402	0.352106	0.865985
Zn10	Zn	0.781553	-0.446737	0.282837
Zn11	Zn	1.114886	-0.113404	0.616171
Zn12	Zn	1.448219	0.219930	0.949504
O13	O	0.844522	-0.380636	0.241103
O14	O	1.177855	-0.047302	0.574437
O15	O	1.511189	0.286031	0.907770
O16	O	0.992389	-0.332038	0.287453
O17	O	1.325722	0.001295	0.620786
O18	O	1.659055	0.334629	0.954120
O19	O	0.875163	-0.429198	0.093266
O20	O	1.208496	-0.095865	0.426599
O21	O	1.541829	0.237469	0.759933
O22	O	0.834396	-0.203915	0.230994
O23	O	1.167729	0.129419	0.564327
O24	O	1.501062	0.462752	0.897660
O25	O	0.976774	-0.429162	0.194891
O26	O	1.310108	-0.095829	0.528224
O27	O	1.643441	0.237504	0.861557
O28	O	0.911385	-0.203888	0.307993
O29	O	1.244719	0.129446	0.641327
O30	O	1.578052	0.462779	0.974660
O31	O	0.813788	-0.332101	0.108829
O32	O	1.147121	0.001233	0.442162
O33	O	1.480454	0.334566	0.775495
O34	O	0.712244	-0.332116	0.210354
O35	O	1.045577	0.001217	0.543688
O36	O	1.378911	0.334550	0.877021
O37	O	0.798293	-0.429190	0.373340
O38	O	1.131626	-0.095857	0.706674
O39	O	1.464959	0.237477	1.040007
O40	O	0.696681	-0.429226	0.271715
O41	O	1.030014	-0.095892	0.605049
O42	O	1.363348	0.237441	0.938382
O43	O	0.890845	-0.332054	0.388978
O44	O	1.224178	0.001280	0.722312
O45	O	1.557512	0.334613	1.055645
O46	O	0.854623	-0.557364	0.174251
O47	O	1.187956	-0.224031	0.507584
O48	O	1.521289	0.109303	0.840918
O49	O	0.777685	-0.557376	0.251175
O50	O	1.111018	-0.224043	0.584509
O51	O	1.444351	0.109291	0.917842
C52	C	0.681728	-0.380677	0.241024
C53	C	1.015061	-0.047344	0.574357
C54	C	1.348394	0.285989	0.907691
C55	C	0.612080	-0.380714	0.241002
C56	C	0.945414	-0.047381	0.574335
C57	C	1.278747	0.285952	0.907668
C58	C	0.571269	-0.431346	0.272882
C59	C	0.904603	-0.098013	0.606215
C60	C	1.237936	0.235321	0.939549
C61	C	0.505837	-0.431327	0.272913
C62	C	0.839170	-0.097993	0.606246
C63	C	1.172504	0.235340	0.939580
C64	C	0.481217	-0.380684	0.241051
C65	C	0.814550	-0.047351	0.574385
C66	C	1.147884	0.285983	0.907718
C67	C	0.522038	-0.330042	0.209170
C68	C	0.855371	0.003291	0.542503
C69	C	1.188704	0.336624	0.875837
C70	C	0.587469	-0.330057	0.209145
C71	C	0.920803	0.003276	0.542479
C72	C	1.254136	0.336609	0.875812
C73	C	0.378512	-0.374314	0.185668
C74	C	0.711845	-0.040981	0.519001
C75	C	1.045178	0.292352	0.852335
C76	C	0.313080	-0.374305	0.185691
C77	C	0.646414	-0.040971	0.519024
C78	C	0.979747	0.292362	0.852357
C79	C	0.279405	-0.380632	0.241129
C80	C	0.612738	-0.047299	0.574462
C81	C	0.946071	0.286034	0.907795
C82	C	0.311166	-0.386986	0.296543
C83	C	0.644499	-0.053653	0.629876
C84	C	0.977833	0.279681	0.963210
C85	C	0.376598	-0.387001	0.296518
C86	C	0.709931	-0.053668	0.629852
C87	C	1.043264	0.279665	0.963185
C88	C	0.410268	-0.380661	0.241075
C89	C	0.743602	-0.047328	0.574408
C90	C	1.076935	0.286005	0.907742
C91	C	0.167644	-0.431246	0.273045
C92	C	0.500977	-0.097912	0.606379
C93	C	0.834311	0.235421	0.939712
C94	C	0.102211	-0.431221	0.273078
C95	C	0.435545	-0.097888	0.606412
C96	C	0.768878	0.235446	0.939745
C97	C	0.118413	-0.329940	0.209329
C98	C	0.451746	0.003393	0.542663
C99	C	0.785079	0.336726	0.875996
C100	C	0.183845	-0.329961	0.209303
C101	C	0.517178	0.003372	0.542636
C102	C	0.850511	0.336705	0.875969
C103	C	0.208456	-0.380618	0.241159
C104	C	0.541789	-0.047285	0.574492
C105	C	0.875122	0.286049	0.907826
C106	C	0.811566	-0.586058	0.208119
C107	C	1.144899	-0.252725	0.541452
C108	C	1.478232	0.080609	0.874785
C109	C	0.797524	-0.673938	0.194028
C110	C	1.130858	-0.340605	0.527362
C111	C	1.464191	-0.007272	0.860695
C112	C	0.951601	-0.962602	0.348342
C113	C	1.284934	-0.629268	0.681675
C114	C	1.618268	-0.295935	1.015008
C115	C	0.938387	-1.045179	0.335091
C116	C	1.271720	-0.711846	0.668424
C117	C	1.605054	-0.378512	1.001758
C118	C	0.858271	-1.045314	0.254834
C119	C	1.191605	-0.711981	0.588167
C120	C	1.524938	-0.378648	0.921501
C121	C	0.871481	-0.962736	0.268076
C122	C	1.204814	-0.629402	0.601409
C123	C	1.538147	-0.296069	0.934742
C124	C	0.918146	-0.921386	0.314831
C125	C	1.251479	-0.588052	0.648164
C126	C	1.584813	-0.254719	0.981497
C127	C	0.838026	-0.921520	0.234565
C128	C	1.171359	-0.588186	0.567898
C129	C	1.504692	-0.254853	0.901231
C130	C	0.851232	-0.838948	0.247808
C131	C	1.184565	-0.505615	0.581141
C132	C	1.517899	-0.172281	0.914475
C133	C	0.897893	-0.797592	0.294562
C134	C	1.231227	-0.464259	0.627895
C135	C	1.564560	-0.130926	0.961229
C136	C	0.931352	-0.838814	0.328074
C137	C	1.264686	-0.505481	0.661407
C138	C	1.598019	-0.172147	0.994741
C139	C	0.791358	-0.962871	0.187813
C140	C	1.124691	-0.629538	0.521146
C141	C	1.458024	-0.296204	0.854480
C142	C	0.757902	-0.921655	0.154302
C143	C	1.091236	-0.588321	0.487636
C144	C	1.424569	-0.254988	0.820969
C145	C	0.771112	-0.839082	0.167542
C146	C	1.104445	-0.505748	0.500875
C147	C	1.437778	-0.172415	0.834209
C148	C	0.817773	-0.797726	0.214296
C149	C	1.151106	-0.464393	0.547630
C150	C	1.484440	-0.131059	0.880963
C151	C	0.737653	-0.797860	0.134030
C152	C	1.070986	-0.464527	0.467364
C153	C	1.404319	-0.131193	0.800697
C154	C	0.750859	-0.715288	0.147274
C155	C	1.084192	-0.381955	0.480607
C156	C	1.417526	-0.048622	0.813940
C157	C	0.830979	-0.715154	0.227539
C158	C	1.164313	-0.381821	0.560873
C159	C	1.497646	-0.048488	0.894206
C160	C	1.007952	-0.380594	0.241183
C161	C	1.341285	-0.047261	0.574517
C162	C	1.674619	0.286072	0.907850
C163	C	1.077596	-0.380577	0.241217
C164	C	1.410929	-0.047243	0.574551
C165	C	1.744263	0.286090	0.907884
C166	C	0.844577	-0.380620	0.404529
C167	C	1.177910	-0.047286	0.737863
C168	C	1.511243	0.286047	1.071196
C169	C	0.844600	-0.380613	0.474172
C170	C	1.177933	-0.047279	0.807505
C171	C	1.511267	0.286054	1.140838
C172	C	0.877624	-0.174411	0.274231
C173	C	1.210957	0.158922	0.607564
C174	C	1.544291	0.492256	0.940897
C175	C	0.891730	-0.086530	0.288348
C176	C	1.225064	0.246803	0.621681
C177	C	1.558397	0.580136	0.955014
C178	C	0.844513	-0.380594	0.078322
C179	C	1.177846	-0.047261	0.411656
C180	C	1.511180	0.286072	0.744989
C181	C	0.844647	-0.380379	0.008716
C182	C	1.177980	-0.047045	0.342049
C183	C	1.511313	0.286288	0.675383
C184	C	0.892791	-0.330032	0.515029
C185	C	1.226124	0.003302	0.848362
C186	C	1.559457	0.336635	1.181696
C187	C	0.892795	-0.329998	0.580470
C188	C	1.226128	0.003336	0.913803
C189	C	1.559462	0.336669	1.247137
C190	C	0.844613	-0.380559	0.605049
C191	C	1.177947	-0.047226	0.938382
C192	C	1.511280	0.286108	1.271715
C193	C	0.796414	-0.431143	0.564183
C194	C	1.129748	-0.097810	0.897516
C195	C	1.463081	0.235523	1.230850
C196	C	0.796408	-0.431170	0.498744
C197	C	1.129741	-0.097837	0.832078
C198	C	1.463074	0.235496	1.165411
C199	C	0.828245	-0.451751	0.697290
C200	C	1.161578	-0.118418	1.030624
C201	C	1.494911	0.214915	1.363957
C202	C	0.828256	-0.451726	0.762727
C203	C	1.161589	-0.118392	1.096061
C204	C	1.494922	0.214941	1.429394
C205	C	0.844631	-0.380475	0.806883
C206	C	1.177964	-0.047142	1.140216
C207	C	1.511297	0.286191	1.473550
C208	C	0.861008	-0.309248	0.785594
C209	C	1.194342	0.024085	1.118927
C210	C	1.527675	0.357418	1.452260
C211	C	0.861002	-0.309275	0.720155
C212	C	1.194335	0.024058	1.053489
C213	C	1.527668	0.357391	1.386822
C214	C	0.844615	-0.380535	0.676005
C215	C	1.177948	-0.047202	1.009338
C216	C	1.511282	0.286132	1.342672
C217	C	0.892829	-0.329853	0.918699
C218	C	1.226162	0.003480	1.252033
C219	C	1.559496	0.336814	1.585366
C220	C	0.892830	-0.329818	0.984142
C221	C	1.226163	0.003516	1.317475
C222	C	1.559496	0.336849	1.650808
C223	C	0.796451	-0.430971	0.967852
C224	C	1.129784	-0.097637	1.301186
C225	C	1.463118	0.235696	1.634519
C226	C	0.796448	-0.430999	0.902413
C227	C	1.129782	-0.097666	1.235746
C228	C	1.463115	0.235668	1.569079
C229	C	0.844641	-0.380441	0.877840
C230	C	1.177974	-0.047108	1.211173
C231	C	1.511307	0.286225	1.544506
H232	H	0.068983	-0.472450	0.299043
H233	H	0.402317	-0.139117	0.632376
H234	H	0.735650	0.194217	0.965710
Cl235	Cl	0.799604	-1.097304	0.196063
Cl236	Cl	1.132938	-0.763971	0.529396
Cl237	Cl	1.466271	-0.430638	0.862730
Cl238	Cl	0.774850	-1.066676	0.171071
Cl239	Cl	1.108183	-0.733343	0.504404
Cl240	Cl	1.441516	-0.400010	0.837737
H241	H	0.874344	-0.251229	0.821545
H242	H	1.207677	0.082104	1.154878
H243	H	1.541010	0.415437	1.488211
H244	H	0.814745	-0.509757	0.661345
H245	H	1.148078	-0.176424	0.994679
H246	H	1.481411	0.156910	1.328012
Cl247	Cl	0.881585	-0.219737	0.693393
Cl248	Cl	1.214918	0.113596	1.026726
Cl249	Cl	1.548252	0.446929	1.360060
Cl250	Cl	0.699235	-0.973645	0.095531
Cl251	Cl	1.032569	-0.640312	0.428865
Cl252	Cl	1.365902	-0.306978	0.762198
H253	H	0.932067	-0.288682	0.898692
H254	H	1.265401	0.044652	1.232025
H255	H	1.598734	0.377985	1.565359
Cl256	Cl	0.454522	-0.494983	0.312993
Cl257	Cl	0.787856	-0.161650	0.646327
Cl258	Cl	1.121189	0.171683	0.979660
H259	H	0.757162	-0.472359	0.465478
H260	H	1.090496	-0.139025	0.798811
H261	H	1.423829	0.194308	1.132145
H262	H	0.932072	-0.288624	1.017408
H263	H	1.265405	0.044709	1.350742
H264	H	1.598739	0.378043	1.684075
Cl265	Cl	0.980455	-1.096991	0.377221
Cl266	Cl	1.313788	-0.763658	0.710554
Cl267	Cl	1.647121	-0.430324	1.043887
H268	H	0.699654	-0.831539	0.095967
H269	H	1.032987	-0.498206	0.429300
H270	H	1.366321	-0.164873	0.762634
Cl271	Cl	0.420839	-0.366362	0.115967
Cl272	Cl	0.754173	-0.033029	0.449300
Cl273	Cl	1.087506	0.300304	0.782633
H274	H	0.620699	-0.288824	0.183185
H275	H	0.954032	0.044509	0.516518
H276	H	1.287365	0.377842	0.849852
Cl277	Cl	0.735841	-0.494703	0.595081
Cl278	Cl	1.069174	-0.161370	0.928415
Cl279	Cl	1.402508	0.171964	1.261748
Cl280	Cl	1.010275	-0.910613	0.407113
Cl281	Cl	1.343608	-0.577279	0.740446
Cl282	Cl	1.676941	-0.243946	1.073779
H283	H	0.757209	-0.472192	0.869145
H284	H	1.090543	-0.138859	1.202478
H285	H	1.423876	0.194474	1.535811
Cl286	Cl	0.491088	-0.266373	0.169119
Cl287	Cl	0.824422	0.066960	0.502452
Cl288	Cl	1.157755	0.400294	0.835786
Cl289	Cl	0.708803	-0.663470	0.105143
Cl290	Cl	1.042136	-0.330137	0.438476
Cl291	Cl	1.375470	0.003197	0.771810
Cl292	Cl	0.735874	-0.494527	0.998746
Cl293	Cl	1.069207	-0.161194	1.332080
Cl294	Cl	1.402541	0.172140	1.665413
H295	H	0.814924	-0.509723	0.780055
H296	H	1.148257	-0.176390	1.113389
H297	H	1.481590	0.156944	1.446722
Cl298	Cl	0.602206	-0.495025	0.312933
Cl299	Cl	0.935540	-0.161692	0.646267
Cl300	Cl	1.268873	0.171641	0.979600
H301	H	0.283749	-0.392137	0.341686
H302	H	0.617082	-0.058804	0.675020
H303	H	0.950415	0.274529	1.008353
H304	H	0.402455	-0.392173	0.341639
H305	H	0.735788	-0.058839	0.674972
H306	H	1.069122	0.274494	1.008305
Cl307	Cl	0.953372	-0.266469	0.484142
Cl308	Cl	1.286705	0.066864	0.817475
Cl309	Cl	1.620039	0.400198	1.150808
H310	H	0.187684	-0.472490	0.298989
H311	H	0.521017	-0.139156	0.632322
H312	H	0.854351	0.194177	0.965655
Cl313	Cl	0.914299	-0.693787	0.311409
Cl314	Cl	1.247633	-0.360454	0.644742
Cl315	Cl	1.580966	-0.027121	0.978076
H316	H	0.098368	-0.288702	0.183390
H317	H	0.431702	0.044631	0.516724
H318	H	0.765035	0.377964	0.850057
Cl319	Cl	0.235153	-0.266308	0.169220
Cl320	Cl	0.568486	0.067025	0.502553
Cl321	Cl	0.901819	0.400358	0.835887
Cl322	Cl	0.990026	-0.786825	0.386845
Cl323	Cl	1.323359	-0.453492	0.720178
Cl324	Cl	1.656692	-0.120158	1.053512
Cl325	Cl	0.953372	-0.266389	0.631845
Cl326	Cl	1.286706	0.066944	0.965179
Cl327	Cl	1.620039	0.400277	1.298512
H328	H	0.868984	-0.681486	0.265607
H329	H	1.202317	-0.348153	0.598941
H330	H	1.535650	-0.014819	0.932274
Cl331	Cl	0.273159	-0.366316	0.116029
Cl332	Cl	0.606492	-0.032983	0.449362
Cl333	Cl	0.939825	0.300350	0.782695
