data_functionalizedCrystal
_audit_creation_method	'MofGen! by Chris Wilmer'
_symmetry_space_group_name_H-M	'P1'
_symmetry_Int_Tables_number	1
_symmetry_cell_setting	triclinic
loop_
_symmetry_equiv_pos_as_xyz
  x,y,z
_cell_length_a	14.044220
_cell_length_b	10.654550
_cell_length_c	9.130313
_cell_angle_alpha	89.997153
_cell_angle_beta	90.001107
_cell_angle_gamma	88.836904
loop_
_atom_site_label
_atom_site_type_symbol
_atom_site_fract_x
_atom_site_fract_y
_atom_site_fract_z
O1	O	-1.259698	-0.302983	0.121643
O2	O	-0.926364	0.030350	0.454976
O3	O	-0.593031	0.363683	0.788310
O4	O	-0.983657	-0.292050	0.121680
O5	O	-0.650323	0.041284	0.455013
O6	O	-0.316990	0.374617	0.788347
O7	O	-1.128024	-0.115415	0.121651
O8	O	-0.794691	0.217918	0.454985
O9	O	-0.461357	0.551252	0.788318
O10	O	-1.115330	-0.479618	0.121672
O11	O	-0.781997	-0.146285	0.455005
O12	O	-0.448664	0.187049	0.788338
O13	O	-1.128013	-0.115414	-0.121947
O14	O	-0.794680	0.217919	0.211386
O15	O	-0.461346	0.551253	0.544719
O16	O	-0.983646	-0.292049	-0.121919
O17	O	-0.650312	0.041285	0.211415
O18	O	-0.316979	0.374618	0.544748
O19	O	-1.259687	-0.302982	-0.121956
O20	O	-0.926353	0.030351	0.211377
O21	O	-0.593020	0.363685	0.544711
Cu22	Cu	-1.121665	-0.297515	-0.144180
Cu23	Cu	-0.788332	0.035818	0.189153
Cu24	Cu	-0.454999	0.369151	0.522487
Cu25	Cu	-1.121678	-0.297517	0.143904
Cu26	Cu	-0.788345	0.035817	0.477237
Cu27	Cu	-0.455011	0.369150	0.810571
O28	O	-1.115319	-0.479617	-0.121927
O29	O	-0.781986	-0.146284	0.211406
O30	O	-0.448653	0.187050	0.544739
C31	C	-1.127086	-0.068523	-0.000147
C32	C	-0.793753	0.264810	0.333186
C33	C	-0.460420	0.598144	0.666520
C34	C	-1.124298	0.071201	-0.000144
C35	C	-0.790965	0.404534	0.333189
C36	C	-0.457631	0.737867	0.666522
C37	C	-0.948305	-0.287263	-0.000115
C38	C	-0.614972	0.046070	0.333219
C39	C	-0.281639	0.379403	0.666552
C40	C	-0.842986	-0.272988	-0.000101
C41	C	-0.509652	0.060345	0.333233
C42	C	-0.176319	0.393679	0.666566
C43	C	-1.295038	-0.307769	-0.000158
C44	C	-0.961705	0.025565	0.333175
C45	C	-0.628371	0.358898	0.666509
C46	C	-1.400358	-0.322044	-0.000162
C47	C	-1.067024	0.011289	0.333171
C48	C	-0.733691	0.344623	0.666504
C49	C	-0.650153	-0.246889	-0.000131
C50	C	-0.316819	0.086444	0.333202
C51	C	0.016514	0.419777	0.666535
C52	C	-0.593185	-0.348137	-0.000132
C53	C	-0.259852	-0.014804	0.333202
C54	C	0.073482	0.318529	0.666535
C55	C	-0.485886	-0.333615	-0.000149
C56	C	-0.152553	-0.000282	0.333185
C57	C	0.180781	0.333051	0.666518
C58	C	-0.757462	-0.261409	-0.000114
C59	C	-0.424128	0.071924	0.333219
C60	C	-0.090795	0.405258	0.666552
C61	C	-1.116257	-0.526509	-0.000126
C62	C	-0.782924	-0.193176	0.333208
C63	C	-0.449590	0.140158	0.666541
C64	C	-1.119045	-0.666233	-0.000119
C65	C	-0.785712	-0.332899	0.333215
C66	C	-0.452379	0.000434	0.666548
N67	N	-1.121663	-0.297514	-0.346803
N68	N	-0.788330	0.035819	-0.013469
N69	N	-0.454996	0.369152	0.319864
C70	C	-1.209299	0.142144	-0.000155
C71	C	-0.875966	0.475478	0.333178
C72	C	-0.542632	0.808811	0.666511
C73	C	-1.206673	0.273429	-0.000137
C74	C	-0.873340	0.606762	0.333196
C75	C	-0.540007	0.940096	0.666530
C76	C	-1.034038	0.262814	-0.000103
C77	C	-0.700704	0.596147	0.333230
C78	C	-0.367371	0.929481	0.666563
C79	C	-1.036665	0.131532	-0.000111
C80	C	-0.703331	0.464865	0.333222
C81	C	-0.369998	0.798198	0.666556
C82	C	-1.179693	-0.380228	-0.423453
C83	C	-0.846359	-0.046895	-0.090119
C84	C	-0.513026	0.286439	0.243214
C85	C	-1.179708	-0.380222	-0.576790
C86	C	-0.846375	-0.046889	-0.243456
C87	C	-0.513041	0.286444	0.089877
C88	C	-1.063656	-0.214786	-0.576812
C89	C	-0.730322	0.118547	-0.243479
C90	C	-0.396989	0.451881	0.089854
C91	C	-1.063646	-0.214786	-0.423478
C92	C	-0.730313	0.118547	-0.090145
C93	C	-0.396980	0.451880	0.243188
N94	N	-1.121688	-0.297508	0.346527
N95	N	-0.788354	0.035825	0.679860
N96	N	-0.455021	0.369158	1.013193
H97	H	-0.624998	-0.445725	-0.000119
H98	H	-0.291664	-0.112391	0.333214
H99	H	0.041669	0.220942	0.666547
O100	O	-1.298355	0.349946	-0.000170
O101	O	-0.965022	0.683279	0.333163
O102	O	-0.631688	1.016612	0.666496
H103	H	-1.340266	0.327275	0.099094
H104	H	-1.006933	0.660608	0.432427
H105	H	-0.673599	0.993941	0.765761
H106	H	-1.226962	-0.447575	-0.639191
H107	H	-0.893629	-0.114241	-0.305858
H108	H	-0.560296	0.219092	0.027475
H109	H	-0.967442	0.073767	-0.000098
H110	H	-0.634109	0.407100	0.333236
H111	H	-0.300775	0.740434	0.666569
H112	H	-0.618342	-0.149310	-0.000145
H113	H	-0.285009	0.184024	0.333189
H114	H	0.048325	0.517357	0.666522
H115	H	-1.226934	-0.447590	-0.361028
H116	H	-0.893600	-0.114257	-0.027694
H117	H	-0.560267	0.219076	0.305639
O118	O	-1.001071	-0.125572	-0.659510
O119	O	-0.667738	0.207761	-0.326177
O120	O	-0.334405	0.541094	0.007157
H121	H	-1.010817	-0.139477	-0.779011
H122	H	-0.677484	0.193857	-0.445678
H123	H	-0.344150	0.527190	-0.112345
H124	H	-1.280656	0.093027	-0.000179
H125	H	-0.947322	0.426360	0.333154
H126	H	-0.613989	0.759694	0.666487
O127	O	-1.001051	-0.125575	-0.340788
O128	O	-0.667717	0.207758	-0.007455
O129	O	-0.334384	0.541091	0.325879
H130	H	-0.960698	-0.068064	-0.419863
H131	H	-0.627364	0.265270	-0.086530
H132	H	-0.294031	0.598603	0.246804
H133	H	-0.962690	0.311952	-0.000079
H134	H	-0.629356	0.645285	0.333254
H135	H	-0.296023	0.978619	0.666588
