data_functionalizedCrystal
_audit_creation_method	'MofGen! by Chris Wilmer'
_symmetry_space_group_name_H-M	'P1'
_symmetry_Int_Tables_number	1
_symmetry_cell_setting	triclinic
loop_
_symmetry_equiv_pos_as_xyz
  x,y,z
_cell_length_a	19.077105
_cell_length_b	25.639239
_cell_length_c	25.639243
_cell_angle_alpha	90.006746
_cell_angle_beta	92.302578
_cell_angle_gamma	87.734929
loop_
_atom_site_label
_atom_site_type_symbol
_atom_site_fract_x
_atom_site_fract_y
_atom_site_fract_z
Zn1	Zn	1.075803	-0.240449	0.327687
Zn2	Zn	1.575803	0.259551	0.827687
Zn3	Zn	1.075714	-0.327846	0.240249
Zn4	Zn	1.575714	0.172154	0.740249
Zn5	Zn	0.958135	-0.236911	0.236757
Zn6	Zn	1.458135	0.263089	0.736757
Zn7	Zn	0.958046	-0.324333	0.324144
Zn8	Zn	1.458046	0.175667	0.824144
O9	O	1.016925	-0.282385	0.282209
O10	O	1.516925	0.217615	0.782209
O11	O	1.174280	-0.254993	0.319032
O12	O	1.674280	0.245007	0.819032
O13	O	1.060117	-0.315773	0.166620
O14	O	1.560117	0.184227	0.666620
O15	O	0.973818	-0.164217	0.248840
O16	O	1.473818	0.335783	0.748840
O17	O	1.174215	-0.319204	0.254791
O18	O	1.674215	0.180796	0.754791
O19	O	1.060268	-0.166816	0.315646
O20	O	1.560268	0.333184	0.815646
O21	O	0.973732	-0.248963	0.164055
O22	O	1.473732	0.251037	0.664055
O23	O	0.859634	-0.245556	0.245405
O24	O	1.359634	0.254444	0.745405
O25	O	0.973667	-0.313216	0.397779
O26	O	1.473667	0.186784	0.897779
O27	O	0.859569	-0.309785	0.309608
O28	O	1.359569	0.190215	0.809608
O29	O	1.060182	-0.251586	0.400382
O30	O	1.560182	0.248414	0.900382
O31	O	1.060031	-0.400543	0.251356
O32	O	1.560031	0.099457	0.751356
O33	O	0.973581	-0.397962	0.312994
O34	O	1.473581	0.102038	0.812994
C35	C	0.834064	-0.276906	0.276744
C36	C	1.334064	0.223094	0.776744
C37	C	0.755836	-0.274575	0.274418
C38	C	1.255836	0.225425	0.774418
C39	C	0.719069	-0.306971	0.306700
C40	C	1.219069	0.193029	0.806700
C41	C	0.645565	-0.304774	0.304518
C42	C	1.145565	0.195226	0.804518
C43	C	0.608830	-0.270183	0.270050
C44	C	1.108830	0.229817	0.770050
C45	C	0.645602	-0.237783	0.237767
C46	C	1.145602	0.262217	0.737767
C47	C	0.719105	-0.239978	0.239952
C48	C	1.219105	0.260022	0.739952
C49	C	0.389002	-0.260024	0.259937
C50	C	0.889002	0.239976	0.759937
C51	C	0.315494	-0.257833	0.257752
C52	C	0.815494	0.242167	0.757752
C53	C	0.315462	-0.324823	0.324504
C54	C	0.815462	0.175177	0.824504
C55	C	0.388966	-0.327017	0.326685
C56	C	0.888966	0.172983	0.826685
C57	C	0.425732	-0.294616	0.294403
C58	C	0.925732	0.205384	0.794403
N59	N	0.533697	-0.267937	0.267817
N60	N	1.033697	0.232063	0.767817
N61	N	0.500864	-0.296859	0.296639
N62	N	1.000864	0.203141	0.796639
C63	C	1.016806	-0.418224	0.282182
C64	C	1.516806	0.081776	0.782182
C65	C	1.016820	-0.476338	0.282189
C66	C	1.516820	0.023662	0.782189
C67	C	1.062057	-0.838039	0.250175
C68	C	1.562057	-0.338039	0.750175
C69	C	1.062084	-0.892644	0.250183
C70	C	1.562084	-0.392644	0.750183
O71	O	1.100423	-0.922015	0.222933
O72	O	1.600423	-0.422015	0.722933
N73	N	1.017048	-0.918627	0.282247
N74	N	1.517048	-0.418627	0.782247
C75	C	0.971988	-0.890003	0.314311
C76	C	1.471988	-0.390003	0.814311
O77	O	0.933684	-0.917117	0.341585
O78	O	1.433684	-0.417117	0.841585
C79	C	0.971964	-0.835399	0.314305
C80	C	1.471964	-0.335399	0.814305
C81	C	1.016998	-0.809418	0.282234
C82	C	1.516998	-0.309418	0.782234
C83	C	1.107087	-0.812059	0.218107
C84	C	1.607087	-0.312059	0.718107
C85	C	1.107059	-0.757457	0.218099
C86	C	1.607059	-0.257457	0.718099
C87	C	1.062000	-0.728836	0.250158
C88	C	1.562000	-0.228836	0.750158
C89	C	1.016969	-0.754817	0.282226
C90	C	1.516969	-0.254817	0.782226
C91	C	0.926908	-0.806775	0.346371
C92	C	1.426908	-0.306775	0.846371
C93	C	0.926889	-0.752167	0.346363
C94	C	1.426889	-0.252167	0.846363
C95	C	0.971922	-0.726187	0.314292
C96	C	1.471922	-0.226187	0.814292
C97	C	0.971882	-0.671595	0.314277
C98	C	1.471882	-0.171595	0.814277
N99	N	1.016918	-0.645611	0.282212
N100	N	1.516918	-0.145611	0.782212
C101	C	1.061977	-0.674232	0.250153
C102	C	1.561977	-0.174232	0.750153
C103	C	0.972041	-1.004675	0.314320
C104	C	1.472041	-0.504675	0.814320
C105	C	0.972060	-1.059278	0.314323
C106	C	1.472060	-0.559278	0.814323
C107	C	1.062157	-1.061916	0.250196
C108	C	1.562157	-0.561916	0.750196
C109	C	1.062134	-1.007312	0.250190
C110	C	1.562134	-0.507312	0.750190
C111	C	1.017076	-0.978692	0.282255
C112	C	1.517076	-0.478692	0.782255
C113	C	1.061913	-0.559565	0.250137
C114	C	1.561913	-0.059565	0.750137
C115	C	1.061879	-0.504959	0.250130
C116	C	1.561879	-0.004959	0.750130
C117	C	0.971784	-0.502326	0.314259
C118	C	1.471784	-0.002326	0.814259
C119	C	0.971816	-0.556927	0.314264
C120	C	1.471816	-0.056927	0.814264
C121	C	1.016886	-0.585546	0.282202
C122	C	1.516886	-0.085546	0.782202
O123	O	0.933565	-0.642190	0.341514
O124	O	1.433565	-0.142190	0.841514
O125	O	1.100280	-0.647111	0.222887
O126	O	1.600280	-0.147111	0.722887
C127	C	1.200499	-0.287885	0.287696
C128	C	1.700499	0.212115	0.787696
C129	C	1.278727	-0.290229	0.290034
C130	C	1.778727	0.209771	0.790034
C131	C	1.016925	-0.282404	0.418582
C132	C	1.516925	0.217596	0.918582
C133	C	1.016925	-0.282412	0.476696
C134	C	1.516925	0.217588	0.976696
C135	C	1.017063	-0.146016	0.282249
C136	C	1.517063	0.353984	0.782249
C137	C	1.017121	-0.087903	0.282266
C138	C	1.517121	0.412097	0.782266
C139	C	1.061971	-0.250298	0.838420
C140	C	1.561971	0.249702	1.338420
C141	C	1.061971	-0.250295	0.893024
C142	C	1.561971	0.249705	1.393024
O143	O	1.100260	-0.222993	0.922418
O144	O	1.600260	0.277007	1.422418
N145	N	1.016930	-0.282383	0.918979
N146	N	1.516930	0.217617	1.418979
C147	C	0.971881	-0.314472	0.890326
C148	C	1.471881	0.185528	1.390326
O149	O	0.933569	-0.341764	0.917416
O150	O	1.433569	0.158236	1.417416
C151	C	0.971878	-0.314471	0.835723
C152	C	1.471878	0.185529	1.335723
C153	C	1.016927	-0.282385	0.809771
C154	C	1.516927	0.217615	1.309771
C155	C	1.107016	-0.218214	0.812468
C156	C	1.607016	0.281786	1.312468
C157	C	1.107017	-0.218218	0.757868
C158	C	1.607017	0.281782	1.257868
C159	C	1.061973	-0.250306	0.729219
C160	C	1.561973	0.249694	1.229219
C161	C	1.016928	-0.282389	0.755171
C162	C	1.516928	0.217611	1.255171
C163	C	0.926826	-0.346557	0.807071
C164	C	1.426826	0.153443	1.307071
C165	C	0.926827	-0.346554	0.752464
C166	C	1.426827	0.153446	1.252464
C167	C	0.971876	-0.314468	0.726512
C168	C	1.471876	0.185532	1.226512
C169	C	0.971885	-0.314481	0.671921
C170	C	1.471885	0.185519	1.171921
N171	N	1.016927	-0.282393	0.645967
N172	N	1.516927	0.217607	1.145967
C173	C	1.061971	-0.250305	0.674616
C174	C	1.561971	0.249695	1.174616
C175	C	0.971889	-0.314469	1.004997
C176	C	1.471889	0.185531	1.504997
C177	C	0.971895	-0.314472	1.059599
C178	C	1.471895	0.185528	1.559599
C179	C	1.061984	-0.250294	1.062294
C180	C	1.561984	0.249706	1.562294
C181	C	1.061981	-0.250294	1.007690
C182	C	1.561981	0.249706	1.507690
C183	C	1.016930	-0.282381	0.979042
C184	C	1.516930	0.217619	1.479042
C185	C	1.061970	-0.250316	0.559950
C186	C	1.561970	0.249684	1.059950
C187	C	1.061969	-0.250325	0.505345
C188	C	1.561969	0.249675	1.005345
C189	C	0.971877	-0.314500	0.502655
C190	C	1.471877	0.185500	1.002655
C191	C	0.971880	-0.314494	0.557256
C192	C	1.471880	0.185506	1.057256
C193	C	1.016929	-0.282398	0.585902
C194	C	1.516929	0.217602	1.085902
O195	O	0.933614	-0.341767	0.642494
O196	O	1.433614	0.158233	1.142494
O197	O	1.100269	-0.223013	0.647518
O198	O	1.600269	0.276987	1.147518
C199	C	1.016924	-0.282380	1.146367
C200	C	1.516924	0.217620	1.646367
C201	C	1.016936	-0.282382	1.088253
C202	C	1.516936	0.217618	1.588253
H203	H	1.098550	-0.483808	0.224012
H204	H	1.598550	0.016192	0.724012
H205	H	1.098660	-0.224165	1.085630
H206	H	1.598660	0.275835	1.585630
H207	H	0.890233	-0.827918	0.372484
H208	H	1.390233	-0.327918	0.872484
H209	H	0.935148	-0.578082	0.340381
H210	H	1.435148	-0.078082	0.840381
H211	H	0.935204	-0.340626	0.578387
H212	H	1.435204	0.159374	1.078387
H213	H	0.285587	-0.229659	0.229688
H214	H	0.785587	0.270341	0.729688
H215	H	0.935096	-0.479014	0.340360
H216	H	1.435096	0.020986	0.840360
H217	H	1.143700	-0.192089	0.736743
H218	H	1.643700	0.307911	1.236743
H219	H	0.748973	-0.335140	0.334766
H220	H	1.248973	0.164860	0.834766
H221	H	1.098849	-1.085229	0.224093
H222	H	1.598849	-0.585229	0.724093
H223	H	1.098656	-0.224196	0.484218
H224	H	1.598656	0.275804	0.984218
H225	H	0.749040	-0.213595	0.213667
H226	H	1.249040	0.286405	0.713667
H227	H	0.285520	-0.351201	0.350787
H228	H	0.785520	0.148799	0.850787
H229	H	0.935343	-0.981375	0.340430
H230	H	1.435343	-0.481375	0.840430
H231	H	0.418928	-0.233645	0.233647
H232	H	0.918928	0.266355	0.733647
H233	H	1.143783	-0.835356	0.192000
H234	H	1.643783	-0.335356	0.692000
H235	H	0.890198	-0.728867	0.372476
H236	H	1.390198	-0.228867	0.872476
H237	H	0.615632	-0.331154	0.330805
H238	H	1.115632	0.168846	0.830805
H239	H	1.143731	-0.736308	0.191985
H240	H	1.643731	-0.236308	0.691985
H241	H	0.615686	-0.209617	0.209704
H242	H	1.115686	0.290383	0.709704
H243	H	1.098804	-0.986162	0.224076
H244	H	1.598804	-0.486162	0.724076
H245	H	1.098650	-0.224179	0.583268
H246	H	1.598650	0.275821	1.083268
H247	H	0.935202	-0.340600	0.981675
H248	H	1.435202	0.159400	1.481675
H249	H	0.418871	-0.355186	0.354751
H250	H	0.918871	0.144814	0.854751
H251	H	0.935219	-0.340605	1.080725
H252	H	1.435219	0.159395	1.580725
H253	H	1.143696	-0.192082	0.835789
H254	H	1.643696	0.307918	1.335789
H255	H	1.098615	-0.582860	0.224030
H256	H	1.598615	-0.082860	0.724030
H257	H	1.098663	-0.224166	0.986564
H258	H	1.598663	0.275834	1.486564
H259	H	0.890142	-0.372685	0.828191
H260	H	1.390142	0.127315	1.328191
H261	H	0.890132	-0.372678	0.729141
H262	H	1.390132	0.127322	1.229141
H263	H	0.935206	-0.340627	0.479320
H264	H	1.435206	0.159373	0.979320
H265	H	0.935382	-1.080426	0.340434
H266	H	1.435382	-0.580426	0.840434
