data_functionalizedCrystal
_audit_creation_method	'MofGen! by Chris Wilmer'
_symmetry_space_group_name_H-M	'P1'
_symmetry_Int_Tables_number	1
_symmetry_cell_setting	triclinic
loop_
_symmetry_equiv_pos_as_xyz
  x,y,z
_cell_length_a	16.625548
_cell_length_b	16.625546
_cell_length_c	12.827885
_cell_angle_alpha	89.964876
_cell_angle_beta	89.978764
_cell_angle_gamma	90.023536
loop_
_atom_site_label
_atom_site_type_symbol
_atom_site_fract_x
_atom_site_fract_y
_atom_site_fract_z
Zn1	Zn	1.232686	-0.320940	-0.590865
Zn2	Zn	1.232587	-0.455794	-0.416109
Zn3	Zn	1.097846	-0.320981	-0.416132
Zn4	Zn	1.097818	-0.455736	-0.590803
O5	O	1.165234	-0.388363	-0.503477
O6	O	1.345505	-0.338835	-0.567699
O7	O	1.214684	-0.437952	-0.269876
O8	O	1.115786	-0.208143	-0.439347
O9	O	1.345433	-0.437912	-0.439307
O10	O	1.214852	-0.208113	-0.567722
O11	O	1.115690	-0.338906	-0.269893
O12	O	0.985010	-0.338850	-0.439287
O13	O	1.115738	-0.437814	-0.737047
O14	O	0.984989	-0.437854	-0.567616
O15	O	1.214825	-0.338779	-0.737093
O16	O	1.214657	-0.568619	-0.439246
O17	O	1.115643	-0.568576	-0.567593
C18	C	0.955743	-0.388351	-0.503448
C19	C	0.866122	-0.388366	-0.503460
C20	C	0.537947	-0.388371	-0.503505
C21	C	0.629255	-0.388367	-0.503489
C22	C	0.702032	-0.388369	-0.503482
C23	C	0.793346	-0.388364	-0.503468
C24	C	1.165158	-0.597854	-0.503433
C25	C	1.165199	-0.687475	-0.503450
C26	C	1.165340	-1.015650	-0.503558
C27	C	1.165298	-0.924342	-0.503531
C28	C	1.165269	-0.851565	-0.503503
C29	C	1.165228	-0.760251	-0.503477
C30	C	1.375543	-0.388375	-0.503507
C31	C	1.465164	-0.388380	-0.503520
C32	C	1.165289	-0.388285	-0.776047
C33	C	1.165313	-0.388252	-0.892201
C34	C	1.165333	-0.178054	-0.503544
C35	C	1.165375	-0.088433	-0.503572
C36	C	1.214349	-0.339237	-0.944008
C37	C	1.214374	-0.339202	-1.064058
C38	C	1.165226	-0.388382	-0.231967
C39	C	1.165359	-0.388188	-0.115815
H40	H	1.256310	-0.297297	-0.899485
C41	C	1.260100	-0.293473	-1.231480
C42	C	1.271048	-0.282545	-1.124194
H43	H	1.295086	-0.258489	-1.268604
H44	H	1.271873	-0.347649	-1.249296
H45	H	1.205918	-0.281680	-1.249300
H46	H	1.325229	-0.294344	-1.106373
H47	H	1.259281	-0.228357	-1.106371
H48	H	1.123344	-0.430185	-0.936723
H49	H	1.123378	-0.430156	-1.071268
