data_functionalizedCrystal
_audit_creation_method	'MofGen! by Chris Wilmer'
_symmetry_space_group_name_H-M	'P1'
_symmetry_Int_Tables_number	1
_symmetry_cell_setting	triclinic
loop_
_symmetry_equiv_pos_as_xyz
  x,y,z
_cell_length_a	10.489741
_cell_length_b	16.109301
_cell_length_c	15.186229
_cell_angle_alpha	90.013398
_cell_angle_beta	90.005152
_cell_angle_gamma	84.000327
loop_
_atom_site_label
_atom_site_type_symbol
_atom_site_fract_x
_atom_site_fract_y
_atom_site_fract_z
O1	O	-1.692357	-0.117307	-0.073177
O2	O	-1.321001	-0.128317	-0.073191
O3	O	-1.516880	-0.001844	-0.073175
O4	O	-1.496478	-0.243780	-0.073194
O5	O	-1.516854	-0.001823	0.073282
O6	O	-1.320975	-0.128297	0.073266
O7	O	-1.692330	-0.117286	0.073280
Zn8	Zn	-1.506648	-0.122788	0.096526
Zn9	Zn	-1.506683	-0.122816	-0.096438
O10	O	-1.496451	-0.243760	0.073264
C11	C	-1.273468	-0.127475	0.000036
C12	C	-1.131875	-0.124987	0.000031
C13	C	-1.516041	0.029146	0.000054
C14	C	-1.513563	0.121457	0.000055
C15	C	-1.739863	-0.118128	0.000051
C16	C	-1.881456	-0.120616	0.000050
C17	C	-1.064902	-0.044516	0.000045
C18	C	-0.972237	-0.082540	-0.072167
C19	C	-0.972245	-0.082539	0.072228
C20	C	-1.041075	-0.163045	-0.072241
C21	C	-1.041092	-0.163032	0.072219
C22	C	-0.948453	-0.201115	-0.000011
C23	C	-1.497291	-0.274750	0.000033
C24	C	-1.499768	-0.367060	0.000026
N25	N	-1.506634	-0.122769	0.228219
C26	C	-1.624032	0.343048	0.000045
C27	C	-1.621694	0.429783	0.000038
C28	C	-1.389290	0.411341	0.000033
C29	C	-1.391630	0.324608	0.000034
C30	C	-1.509004	0.290464	0.000045
C31	C	-1.504327	0.463932	0.000036
C32	C	-1.501791	0.557974	0.000028
C33	C	-1.511541	0.196417	0.000051
N34	N	-1.506708	-0.122828	-0.228130
C35	C	-1.429342	-0.071890	0.546172
C36	C	-1.429332	-0.071878	0.453982
C37	C	-1.584008	-0.173710	0.453923
C38	C	-1.584025	-0.173717	0.546111
C39	C	-1.506685	-0.122808	0.592233
C40	C	-1.506657	-0.122789	0.407856
C41	C	-1.506646	-0.122776	0.307899
C42	C	-1.506697	-0.122820	0.692196
H43	H	-0.941728	-0.048500	-0.133213
H44	H	-1.366353	-0.030414	0.416484
O45	O	-1.077401	-0.203720	-0.145069
C46	C	-1.138158	-0.273892	-0.119310
H47	H	-1.177266	-0.264114	-0.049623
H48	H	-1.220397	-0.282407	-0.166429
H49	H	-1.065942	-0.331897	-0.121050
O50	O	-0.888391	-0.280129	-0.000215
C51	C	-0.923504	-0.322248	-0.076443
H52	H	-0.956796	-0.274723	-0.129414
H53	H	-0.837402	-0.364640	-0.101647
H54	H	-1.004704	-0.361440	-0.059910
O55	O	-1.659193	-0.223260	0.590724
C56	C	-1.727467	-0.268181	0.530250
H57	H	-1.674657	-0.272699	0.464541
H58	H	-1.735360	-0.333610	0.556866
H59	H	-1.827592	-0.234562	0.520441
O60	O	-1.125242	0.034425	-0.000191
C61	C	-1.090355	0.076535	-0.076459
H62	H	-1.056933	0.028999	-0.129408
H63	H	-1.176614	0.118776	-0.101663
H64	H	-1.009310	0.115883	-0.059977
H65	H	-1.646974	-0.215158	0.416359
O66	O	-1.280003	0.273403	-0.000006
C67	C	-1.307240	0.189529	0.000015
H68	H	-1.407430	0.185607	-0.027709
H69	H	-1.233930	0.150667	-0.042510
H70	H	-1.302386	0.164492	0.070277
H71	H	-1.071633	-0.197045	0.133268
H72	H	-0.941750	-0.048467	0.133278
O73	O	-1.738156	0.310017	0.000006
C74	C	-1.839180	0.375033	0.000024
H75	H	-1.803445	0.434150	-0.027701
H76	H	-1.921127	0.356414	-0.042500
H77	H	-1.874659	0.387108	0.070286
O78	O	-1.275167	0.444373	-0.000011
C79	C	-1.174142	0.379359	0.000008
H80	H	-1.209879	0.320230	-0.027718
H81	H	-1.092203	0.397961	-0.042515
H82	H	-1.138651	0.367315	0.070270
O83	O	-1.733399	0.480896	-0.000116
C84	C	-1.739001	0.531612	-0.075959
H85	H	-1.673772	0.500229	-0.128975
H86	H	-1.841751	0.540741	-0.101417
H87	H	-1.706012	0.594874	-0.058816
O88	O	-1.354193	-0.022356	0.590840
C89	C	-1.285904	0.022573	0.530413
H90	H	-1.338694	0.027095	0.464691
H91	H	-1.278027	0.088000	0.557072
H92	H	-1.185774	-0.011041	0.520611
