data_functionalizedCrystal
_audit_creation_method	'MofGen! by Chris Wilmer'
_symmetry_space_group_name_H-M	'P1'
_symmetry_Int_Tables_number	1
_symmetry_cell_setting	triclinic
loop_
_symmetry_equiv_pos_as_xyz
  x,y,z
_cell_length_a	14.519709
_cell_length_b	14.519709
_cell_length_c	16.776229
_cell_angle_alpha	90.010794
_cell_angle_beta	90.006806
_cell_angle_gamma	96.319854
loop_
_atom_site_label
_atom_site_type_symbol
_atom_site_fract_x
_atom_site_fract_y
_atom_site_fract_z
O1	O	1.223860	-0.120889	-0.066200
O2	O	0.955383	-0.135125	-0.066226
O3	O	1.096740	0.006231	-0.066190
O4	O	1.082503	-0.262246	-0.066236
O5	O	1.096742	0.006231	0.066387
O6	O	0.955386	-0.135126	0.066351
O7	O	1.223863	-0.120889	0.066377
Zn8	Zn	1.089625	-0.128008	0.087413
Zn9	Zn	1.089621	-0.128007	-0.087262
O10	O	1.082506	-0.262246	0.066341
C11	C	1.096078	0.040591	0.000102
C12	C	1.094090	0.142972	0.000114
C13	C	0.921025	-0.134462	0.000059
C14	C	0.818643	-0.132474	0.000050
C15	C	1.086770	0.517868	0.000135
C16	C	1.088803	0.413560	0.000129
C17	C	1.090430	0.330423	0.000125
C18	C	1.092463	0.226109	0.000118
C19	C	0.443748	-0.125154	0.000088
C20	C	0.548056	-0.127187	0.000077
C21	C	0.631192	-0.128814	0.000068
C22	C	0.735507	-0.130847	0.000059
C23	C	1.258221	-0.121553	0.000090
C24	C	1.360602	-0.123541	0.000093
C25	C	1.083168	0.703394	0.000075
C26	C	1.085156	0.601013	0.000143
N27	N	1.089620	-0.128000	-0.206473
C28	C	1.145532	-0.184186	-0.751655
C29	C	1.145534	-0.184182	-0.668203
C30	C	1.089632	-0.128004	-0.626473
C31	C	1.033731	-0.071819	-0.668199
C32	C	1.033735	-0.071819	-0.751650
C33	C	1.033717	-0.071819	-0.331652
C34	C	1.033716	-0.071826	-0.248196
C35	C	1.145516	-0.184182	-0.248205
C36	C	1.145519	-0.184182	-0.331656
C37	C	1.089623	-0.127994	-0.373375
C38	C	1.089623	-0.127997	-0.463863
C39	C	1.089627	-0.128005	-0.535986
N40	N	1.089633	-0.128007	0.206624
H41	H	1.191048	-0.229938	-0.785626
H42	H	0.988220	-0.026074	-0.634216
C43	C	1.207015	-0.245974	-0.377554
H44	H	1.240314	-0.279425	-0.340754
H45	H	1.169226	-0.288270	-0.410123
H46	H	1.249461	-0.208337	-0.410093
H47	H	1.191054	-0.229926	-0.634237
C48	C	1.207011	-0.245980	-0.202312
H49	H	1.199013	-0.237930	-0.146635
H50	H	1.189860	-0.309023	-0.216000
H51	H	1.270103	-0.229097	-0.215980
C52	C	0.972243	-0.010026	-0.797543
H53	H	0.938942	0.023425	-0.760740
H54	H	1.010038	0.032270	-0.830086
H55	H	0.929797	-0.047658	-0.830108
H56	H	0.988203	-0.026067	-0.365610
H57	H	0.988191	-0.026076	-0.214222
