data_functionalizedCrystal
_audit_creation_method	'MofGen! by Chris Wilmer'
_symmetry_space_group_name_H-M	'P1'
_symmetry_Int_Tables_number	1
_symmetry_cell_setting	triclinic
loop_
_symmetry_equiv_pos_as_xyz
  x,y,z
_cell_length_a	16.776229
_cell_length_b	17.699083
_cell_length_c	11.026607
_cell_angle_alpha	84.065484
_cell_angle_beta	89.996140
_cell_angle_gamma	90.000683
loop_
_atom_site_label
_atom_site_type_symbol
_atom_site_fract_x
_atom_site_fract_y
_atom_site_fract_z
O1	O	-0.066164	-1.025155	0.153399
O2	O	-0.066191	-0.807518	0.173356
O3	O	-0.066177	-0.898299	-0.013222
O4	O	-0.066178	-0.934374	0.339978
O5	O	0.066400	-0.898282	-0.013234
O6	O	0.066385	-0.807501	0.173345
O7	O	0.066413	-1.025138	0.153387
Zn8	Zn	0.087448	-0.916317	0.163364
Zn9	Zn	-0.087227	-0.916339	0.163379
O10	O	0.066398	-0.934357	0.339966
C11	C	0.000094	-0.779214	0.172636
C12	C	0.000083	-0.694902	0.170490
N13	N	0.206660	-0.916307	0.163353
N14	N	-0.206438	-0.916354	0.163381
C15	C	0.000110	-0.891635	-0.058419
C16	C	0.000104	-0.871796	-0.193075
C17	C	0.248383	-0.956525	0.080770
C18	C	0.331835	-0.956529	0.080769
C19	C	0.373563	-0.916319	0.163358
C20	C	0.331833	-0.876096	0.245945
C21	C	0.248383	-0.876088	0.245939
C22	C	0.668380	-0.876127	0.245969
C23	C	0.751837	-0.876140	0.245971
C24	C	0.751833	-0.956568	0.080799
C25	C	0.668382	-0.956560	0.080793
C26	C	0.626660	-0.916334	0.163375
C27	C	0.536172	-0.916329	0.163374
C28	C	0.464049	-0.916328	0.163366
C29	C	0.000083	-0.661328	0.280008
C30	C	0.000092	-0.582106	0.277985
C31	C	0.000097	-0.536460	0.166443
C32	C	0.000100	-0.570039	0.056917
C33	C	0.000096	-0.649259	0.058941
C34	C	0.000117	-0.250554	0.048751
C35	C	0.000118	-0.171329	0.046735
C36	C	0.000113	-0.183402	0.267794
C37	C	0.000109	-0.262621	0.269819
C38	C	0.000117	-0.296194	0.160293
C39	C	0.000108	-0.382094	0.162488
C40	C	0.000100	-0.450561	0.164247
C41	C	0.000124	-0.053441	0.154108
C42	C	0.000124	-0.137754	0.156254
C43	C	0.000110	-0.926576	-0.267042
C44	C	0.000105	-0.906072	-0.406216
C45	C	0.000110	-0.941021	0.385163
C46	C	0.000110	-0.960860	0.519819
H47	H	0.214414	-0.989272	0.013522
Cl48	Cl	0.000117	-1.022423	-0.205747
Cl49	Cl	0.000125	-0.113946	-0.093501
H50	H	0.000091	-0.809717	-0.232783
Cl51	Cl	0.804288	-1.007135	-0.023026
H52	H	0.000078	-0.698488	0.370838
H53	H	0.000123	-0.277879	-0.040432
Cl54	Cl	0.000110	-0.512656	-0.083309
H55	H	0.365806	-0.989277	0.013523
Cl56	Cl	0.000087	-0.539903	0.415671
Cl57	Cl	0.000100	-0.691466	-0.078744
H58	H	0.365812	-0.843352	0.313187
Cl59	Cl	0.615928	-1.007113	-0.023033
H60	H	0.785810	-0.843393	0.313227
Cl61	Cl	0.000108	-0.141192	0.405486
H62	H	0.214412	-0.843337	0.313186
Cl63	Cl	0.000084	-0.810221	-0.467505
H64	H	0.000102	-0.299783	0.360648
Cl65	Cl	0.000119	-1.056712	-0.418895
H66	H	0.634417	-0.843375	0.313212
