data_functionalizedCrystal
_audit_creation_method	'MofGen! by Chris Wilmer'
_symmetry_space_group_name_H-M	'P1'
_symmetry_Int_Tables_number	1
_symmetry_cell_setting	triclinic
loop_
_symmetry_equiv_pos_as_xyz
  x,y,z
_cell_length_a	10.967916
_cell_length_b	14.519709
_cell_length_c	9.482944
_cell_angle_alpha	100.411698
_cell_angle_beta	91.572452
_cell_angle_gamma	95.792725
loop_
_atom_site_label
_atom_site_type_symbol
_atom_site_fract_x
_atom_site_fract_y
_atom_site_fract_z
O1	O	-1.614947	0.098997	-0.283694
O2	O	-1.264379	0.120774	-0.195863
O3	O	-1.448956	-0.024555	-0.242120
O4	O	-1.430370	0.244325	-0.237437
O5	O	-1.415218	-0.049514	-0.475462
O6	O	-1.230641	0.095814	-0.429205
O7	O	-1.581209	0.074037	-0.517036
Cu8	Cu	-1.402845	0.082646	-0.494427
Cu9	Cu	-1.442743	0.112164	-0.218473
O10	O	-1.396632	0.219365	-0.470779
C11	C	-1.202644	0.108595	-0.301293
C12	C	-1.068958	0.109483	-0.267800
C13	C	-0.991880	0.096949	-0.373746
C14	C	-0.853708	0.097865	-0.339131
C15	C	-1.431220	-0.071376	-0.358574
C16	C	-1.428624	-0.173701	-0.357924
C17	C	-1.419072	-0.548387	-0.355493
C18	C	-1.421725	-0.444138	-0.356169
C19	C	-1.423848	-0.361048	-0.356710
C20	C	-1.426501	-0.256791	-0.357383
C21	C	-0.642944	0.086216	-0.411604
C22	C	-0.776630	0.085330	-0.445092
C23	C	-1.414368	0.266187	-0.354322
C24	C	-1.416965	0.368513	-0.354962
N25	N	-1.374791	0.061885	-0.688520
C26	C	-1.434460	0.106040	-0.775665
C27	C	-1.411129	0.088757	-0.937238
N28	N	-1.470806	0.132919	-0.024382
H29	H	-0.812926	0.073916	-0.561430
H30	H	-1.032656	0.120890	-0.151470
C31	C	-1.561861	0.200398	-0.964105
C32	C	-1.566867	0.204156	-0.815823
C33	C	-1.650715	0.266319	-0.760245
H34	H	-1.640803	0.178990	-1.008560
H35	H	-1.536382	0.261436	-0.982514
H36	H	-1.592352	0.143131	-0.797426
H37	H	-1.487946	0.225575	-0.771330
H38	H	-1.625236	0.327357	-0.778654
H39	H	-1.729651	0.244905	-0.804710
H40	H	-1.654115	0.268884	-0.659629
C41	C	-1.283642	-0.005514	-0.748779
C42	C	-1.278386	-0.009073	-0.896998
C43	C	-1.194420	-0.071142	-0.952548
H44	H	-1.309107	-0.066606	-0.730629
H45	H	-1.204771	0.015902	-0.704081
H46	H	-1.357240	-0.030493	-0.941681
H47	H	-1.252907	0.052003	-0.915188
H48	H	-1.115549	-0.049725	-0.907850
H49	H	-1.219893	-0.132229	-0.934388
H50	H	-1.190834	-0.073558	-1.053117
H51	H	-1.028183	0.085534	-0.490076
H52	H	-1.342770	0.038153	-0.982242
C53	C	-0.805568	0.113051	-0.183913
C54	C	-0.903459	0.124416	-0.092880
C55	C	-0.859161	0.138395	0.050111
H56	H	-0.748275	0.167870	-0.163949
H57	H	-0.766423	0.059991	-0.168627
H58	H	-0.942585	0.177471	-0.108159
H59	H	-0.960761	0.069606	-0.112799
H60	H	-0.820016	0.085335	0.065397
H61	H	-0.801868	0.193213	0.070060
H62	H	-0.925573	0.146099	0.111894
H63	H	-1.502823	0.156634	-0.730656
