data_functionalizedCrystal
_audit_creation_method	'MofGen! by Chris Wilmer'
_symmetry_space_group_name_H-M	'P1'
_symmetry_Int_Tables_number	1
_symmetry_cell_setting	triclinic
loop_
_symmetry_equiv_pos_as_xyz
  x,y,z
_cell_length_a	19.288864
_cell_length_b	12.837942
_cell_length_c	18.366186
_cell_angle_alpha	89.994829
_cell_angle_beta	89.977106
_cell_angle_gamma	88.982593
loop_
_atom_site_label
_atom_site_type_symbol
_atom_site_fract_x
_atom_site_fract_y
_atom_site_fract_z
O1	O	0.930180	0.129276	-0.060785
O2	O	1.430180	0.629276	0.439215
O3	O	0.729110	0.146715	-0.060736
O4	O	1.229110	0.646715	0.439264
O5	O	0.825187	-0.012886	-0.060755
O6	O	1.325187	0.487114	0.439245
O7	O	0.834104	0.288877	-0.060766
O8	O	1.334104	0.788877	0.439234
O9	O	0.825168	-0.012894	0.060345
O10	O	1.325168	0.487106	0.560345
O11	O	0.729092	0.146707	0.060364
O12	O	1.229092	0.646707	0.560364
O13	O	0.930162	0.129268	0.060314
O14	O	1.430162	0.629268	0.560314
Zn15	Zn	0.829624	0.137986	0.079566
Zn16	Zn	1.329624	0.637986	0.579566
Zn17	Zn	0.829648	0.137997	-0.079987
Zn18	Zn	1.329648	0.637997	0.420013
O19	O	0.834085	0.288870	0.060334
O20	O	1.334085	0.788870	0.560334
C21	C	0.703186	0.146150	-0.000179
C22	C	1.203186	0.646150	0.499821
C23	C	0.625968	0.144466	-0.000160
C24	C	1.125968	0.644466	0.499840
C25	C	0.587666	0.238113	-0.000175
C26	C	1.087666	0.738113	0.499825
C27	C	0.515111	0.236530	-0.000183
C28	C	1.015111	0.736530	0.499817
C29	C	0.480860	0.141295	-0.000191
C30	C	0.980860	0.641295	0.499809
C31	C	0.519171	0.047636	-0.000172
C32	C	1.019171	0.547636	0.499828
C33	C	0.591725	0.049221	-0.000157
C34	C	1.091725	0.549221	0.499843
C35	C	0.367493	0.066433	-0.042639
C36	C	0.867493	0.566433	0.457361
C37	C	0.294940	0.064852	-0.042659
C38	C	0.794940	0.564852	0.457341
C39	C	0.257081	0.136402	-0.000235
C40	C	0.757081	0.636402	0.499765
C41	C	0.291782	0.209552	0.042200
C42	C	0.791782	0.709552	0.542200
C43	C	0.364336	0.211137	0.042215
C44	C	0.864336	0.711137	0.542215
C45	C	0.402188	0.139566	-0.000207
C46	C	0.902188	0.639566	0.499793
C47	C	0.140106	0.228340	-0.000257
C48	C	0.640106	0.728340	0.499743
C49	C	0.067550	0.226753	-0.000261
C50	C	0.567550	0.726753	0.499739
C51	C	0.071611	0.037857	-0.000257
C52	C	0.571611	0.537857	0.499743
C53	C	0.144166	0.039446	-0.000246
C54	C	0.644166	0.539446	0.499754
C55	C	0.178409	0.134690	-0.000250
C56	C	0.678409	0.634690	0.499750
C57	C	0.822165	-0.051497	-0.000205
C58	C	1.322165	0.448503	0.499795
C59	C	0.813181	-0.166532	-0.000204
C60	C	1.313181	0.333468	0.499796
C61	C	0.921187	-0.407995	-0.000245
C62	C	1.421187	0.092005	0.499755
C63	C	0.912748	-0.516081	-0.000245
C64	C	1.412748	-0.016081	0.499755
C65	C	0.787867	-0.490793	-0.000206
C66	C	1.287867	0.009207	0.499794
C67	C	0.796305	-0.382707	-0.000207
C68	C	1.296305	0.117293	0.499793
C69	C	0.862967	-0.341312	-0.000226
C70	C	1.362967	0.158688	0.499774
C71	C	0.871405	-0.233223	-0.000221
C72	C	1.371405	0.266777	0.499779
C73	C	0.746524	-0.207938	-0.000188
C74	C	1.246524	0.292062	0.499812
C75	C	0.738086	-0.316024	-0.000187
C76	C	1.238086	0.183976	0.499813
C77	C	0.956086	0.129833	-0.000243
C78	C	1.456086	0.629833	0.499757
C79	C	1.033304	0.131518	-0.000267
C80	C	1.533304	0.631518	0.499733
C81	C	0.837107	0.327480	-0.000218
C82	C	1.337107	0.827480	0.499782
C83	C	0.846091	0.442515	-0.000224
C84	C	1.346091	0.942515	0.499776
N85	N	0.829612	0.137979	0.188457
N86	N	1.329612	0.637979	0.688457
N87	N	0.829665	0.137996	-0.188879
N88	N	1.329665	0.637996	0.311121
C89	C	0.872172	0.067342	0.226549
C90	C	1.372172	0.567342	0.726549
C91	C	0.872177	0.067337	0.302777
C92	C	1.372177	0.567337	0.802777
C93	C	0.829628	0.137987	0.340910
C94	C	1.329628	0.637987	0.840910
C95	C	0.787059	0.208630	0.302809
C96	C	1.287059	0.708630	0.802809
C97	C	0.787051	0.208625	0.226583
C98	C	1.287051	0.708625	0.726583
C99	C	0.826777	0.232410	0.461668
C100	C	1.326777	0.732410	0.961668
C101	C	0.826790	0.232416	0.537893
C102	C	1.326790	0.732416	1.037893
C103	C	0.829649	0.138000	0.576018
C104	C	1.329649	0.638000	1.076018
C105	C	0.832508	0.043575	0.537908
C106	C	1.332508	0.543575	1.037908
C107	C	0.832500	0.043571	0.461681
C108	C	1.332500	0.543571	0.961681
C109	C	0.829632	0.137999	0.423565
C110	C	1.329632	0.637999	0.923565
C111	C	0.872216	0.067352	0.696764
C112	C	1.372216	0.567352	1.196764
C113	C	0.872215	0.067346	0.772994
C114	C	1.372215	0.567346	1.272994
C115	C	0.787101	0.208648	0.773024
C116	C	1.287101	0.708648	1.273024
C117	C	0.787098	0.208645	0.696796
C118	C	1.287098	0.708645	1.196796
C119	C	0.829659	0.137998	0.658671
C120	C	1.329659	0.637998	1.158671
H121	H	0.167988	0.305893	-0.000250
H122	H	0.667988	0.805893	0.499750
F123	F	0.184932	-0.060228	-0.000234
F124	F	0.684932	0.439772	0.499766
F125	F	0.716927	-0.534868	-0.000205
F126	F	1.216927	-0.034868	0.499795
F127	F	0.942351	-0.189169	-0.000236
F128	F	1.442351	0.310831	0.499764
H129	H	0.975465	-0.374291	-0.000253
H130	H	1.475465	0.125709	0.499747
F131	F	0.974714	-0.587047	-0.000268
F132	F	1.474714	-0.087047	0.499732
H133	H	0.615542	0.315668	-0.000180
H134	H	1.115542	0.815668	0.499820
F135	F	0.258015	-0.012991	-0.087827
F136	F	0.758015	0.487009	0.412173
H137	H	0.834827	-0.033313	0.430655
H138	H	1.334827	0.466687	0.930655
F139	F	0.667144	-0.360092	-0.000174
F140	F	1.167144	0.139908	0.499826
F141	F	0.407779	-0.009727	-0.087795
F142	F	0.907779	0.490273	0.412205
H143	H	0.906869	0.009824	0.665722
H144	H	1.406869	0.509824	1.165722
F145	F	0.741803	0.283831	0.656253
F146	F	1.241803	0.783831	1.156253
H147	H	0.483920	0.312791	-0.000193
H148	H	0.983920	0.812791	0.499807
F149	F	0.482718	-0.053720	-0.000177
F150	F	0.982718	0.446280	0.499823
F151	F	0.251495	0.285708	0.087354
F152	F	0.751495	0.785708	0.587354
F153	F	0.741751	0.283810	0.186041
F154	F	1.241751	0.783810	0.686041
F155	F	0.026786	0.326431	-0.000273
F156	F	0.526786	0.826431	0.499727
H157	H	0.699118	-0.153632	-0.000166
H158	H	1.199118	0.346368	0.499834
F159	F	0.035164	-0.063500	-0.000258
F160	F	0.535164	0.436500	0.499742
H161	H	0.906835	0.009814	0.333797
H162	H	1.406835	0.509814	0.833797
F163	F	0.401265	0.288982	0.087378
F164	F	0.901265	0.788982	0.587378
H165	H	0.906826	0.009815	0.195510
H166	H	1.406826	0.509815	0.695510
F167	F	0.917511	-0.007844	0.813535
F168	F	1.417511	0.492156	1.313535
F169	F	0.835555	-0.056917	0.578476
F170	F	1.335555	0.443083	1.078476
H171	H	0.622910	-0.027040	-0.000145
H172	H	1.122910	0.472960	0.499855
F173	F	0.741813	0.283833	0.813604
F174	F	1.241813	0.783833	1.313604
F175	F	0.823751	0.332910	0.578446
F176	F	1.323751	0.832910	1.078446
F177	F	0.823786	0.332909	0.421101
F178	F	1.323786	0.832909	0.921101
F179	F	0.741773	0.283817	0.343393
F180	F	1.241773	0.783817	0.843393
