data_functionalizedCrystal
_audit_creation_method	'MofGen! by Chris Wilmer'
_symmetry_space_group_name_H-M	'P1'
_symmetry_Int_Tables_number	1
_symmetry_cell_setting	triclinic
loop_
_symmetry_equiv_pos_as_xyz
  x,y,z
_cell_length_a	23.196402
_cell_length_b	23.196402
_cell_length_c	23.196401
_cell_angle_alpha	119.990204
_cell_angle_beta	89.986035
_cell_angle_gamma	60.000268
loop_
_atom_site_label
_atom_site_type_symbol
_atom_site_fract_x
_atom_site_fract_y
_atom_site_fract_z
Zr1	Zr	0.555358	0.631008	0.075647
O2	O	0.463285	0.751274	0.167691
O3	O	0.583581	0.510743	0.047434
O4	O	0.583550	0.631011	0.167700
O5	O	0.463342	0.631004	-0.047447
O6	O	0.678420	0.631013	0.167703
O7	O	0.463315	0.631006	0.047425
O8	O	0.678475	0.415875	-0.047430
O9	O	0.463287	0.846142	0.167687
O10	O	0.666421	0.560211	0.035400
O11	O	0.595640	0.560208	-0.035404
O12	O	0.595604	0.701808	0.106193
O13	O	0.524824	0.701805	0.035389
Zr14	Zr	0.706707	0.631007	-0.075657
Zr15	Zr	0.706664	0.631011	0.075652
Zr16	Zr	0.555401	0.631004	-0.075663
Zr17	Zr	0.555362	0.782311	0.075641
Zr18	Zr	0.706703	0.479704	-0.075651
O19	O	0.678484	0.751272	-0.047445
O20	O	0.678423	0.751278	0.167698
O21	O	0.463346	0.751269	-0.047452
O22	O	0.798780	0.510741	-0.167701
O23	O	0.798719	0.510746	0.047442
O24	O	0.583642	0.510737	-0.167709
O25	O	0.798722	0.631011	0.047437
O26	O	0.678515	0.631004	-0.167710
O27	O	0.583645	0.631003	-0.167714
O28	O	0.798749	0.631009	-0.047435
O29	O	0.583556	0.846144	0.167691
O30	O	0.678509	0.415871	-0.167701
O31	O	0.798778	0.415873	-0.167697
O32	O	0.798743	0.415876	-0.047426
O33	O	0.463321	0.846139	0.047416
O34	O	0.583590	0.846141	0.047420
O35	O	0.666461	0.560207	-0.106204
O36	O	0.737241	0.560210	-0.035399
O37	O	0.666425	0.701807	0.035394
O38	O	0.595644	0.701805	-0.035410
C39	C	0.631027	0.441751	0.000003
C40	C	0.631025	0.377519	0.000006
C41	C	0.667967	0.347351	0.036967
C42	C	0.667974	0.286990	0.036962
C43	C	0.631025	0.256811	0.000004
C44	C	0.594082	0.286984	-0.036966
C45	C	0.594082	0.347338	-0.036965
C46	C	0.569120	0.194781	0.005276
C47	C	0.569118	0.134432	0.005280
C48	C	0.631026	0.070656	-0.000003
C49	C	0.692936	0.067246	-0.005277
C50	C	0.692936	0.127600	-0.005276
C51	C	0.631022	0.191367	-0.000002
C52	C	0.667979	-0.024964	0.036954
C53	C	0.667987	-0.085329	0.036943
C54	C	0.594089	-0.085328	-0.036980
C55	C	0.594087	-0.024969	-0.036974
C56	C	0.631030	0.005212	-0.000003
C57	C	0.441771	0.631005	-0.000012
C58	C	0.377537	0.631004	-0.000014
C59	C	0.384328	0.557093	-0.036961
C60	C	0.323973	0.557092	-0.036963
C61	C	0.256829	0.631006	-0.000006
C62	C	0.250041	0.704926	0.036942
C63	C	0.310395	0.704925	0.036938
C64	C	0.132884	0.687634	0.061903
C65	C	0.072532	0.687632	0.061909
C66	C	0.070675	0.631012	0.000005
C67	C	0.129184	0.574380	-0.061904
C68	C	0.189538	0.574379	-0.061908
C69	C	0.191381	0.631015	0.000002
C70	C	0.012025	0.557095	-0.036948
C71	C	-0.048332	0.557097	-0.036953
C72	C	-0.122264	0.704933	0.036959
C73	C	-0.061907	0.704929	0.036957
C74	C	0.005235	0.631008	0.000005
C75	C	0.820294	0.631010	0.000001
C76	C	0.884527	0.631011	0.000004
C77	C	0.630979	0.631012	0.189260
C78	C	0.630961	0.631014	0.253495
C79	C	0.631038	0.820264	-0.000013
C80	C	0.631039	0.884496	-0.000016
C81	C	0.593997	0.704924	0.320622
C82	C	0.594012	0.704926	0.380977
C83	C	0.630981	0.631013	0.374202
C84	C	0.667953	0.557093	0.307063
C85	C	0.667943	0.557093	0.246710
C86	C	0.625727	0.574386	0.441522
C87	C	0.625733	0.574388	0.501876
C88	C	0.631018	0.631009	0.560351
C89	C	0.636284	0.687640	0.558471
C90	C	0.636273	0.687641	0.498118
C91	C	0.630997	0.631004	0.439641
C92	C	0.594069	0.704926	0.692924
C93	C	0.594090	0.704925	0.753279
C94	C	0.668025	0.557089	0.679363
C95	C	0.668010	0.557093	0.619010
C96	C	0.631028	0.631014	0.625795
C97	C	0.631075	0.631005	0.810731
C98	C	0.631060	0.631011	0.746500
C99	C	0.820289	0.441754	0.000010
C100	C	0.884521	0.377523	0.000015
C101	C	0.631081	0.441746	-0.189262
C102	C	0.631097	0.377513	-0.253494
C103	C	0.820342	0.441749	-0.189256
C104	C	0.884592	0.377517	-0.253486
C105	C	0.441723	0.820266	0.189245
C106	C	0.377472	0.884498	0.253475
C107	C	0.441776	0.820261	-0.000020
C108	C	0.377544	0.884492	-0.000025
C109	C	0.630984	0.820269	0.189252
C110	C	0.630968	0.884502	0.253484
C111	C	0.877717	0.347360	0.036980
C112	C	0.938064	0.287017	0.036999
C113	C	1.005214	0.256834	0.000048
C114	C	1.012016	0.287003	-0.036919
C115	C	0.951670	0.347349	-0.036933
C116	C	0.668073	0.347348	-0.320621
C117	C	0.668085	0.287002	-0.380980
C118	C	0.631127	0.256819	-0.374210
C119	C	0.594147	0.286990	-0.307076
C120	C	0.594130	0.347338	-0.246719
C121	C	0.951718	0.347354	-0.246690
C122	C	1.012093	0.287009	-0.307035
C123	C	1.005342	0.256824	-0.374175
C124	C	0.938209	0.286993	-0.380970
C125	C	0.877835	0.347341	-0.320625
C126	C	0.310347	0.914668	0.246679
C127	C	0.249972	0.975032	0.307024
C128	C	0.256723	1.005220	0.374165
C129	C	0.323855	0.975048	0.380960
C130	C	0.384229	0.914689	0.320615
C131	C	0.384348	0.914661	-0.036984
C132	C	0.324001	0.975021	-0.036986
C133	C	0.256851	1.005207	-0.000033
C134	C	0.250049	0.975035	0.036931
C135	C	0.310395	0.914680	0.036937
C136	C	0.667934	0.914667	0.246692
C137	C	0.667932	0.975013	0.307039
C138	C	0.630960	1.005197	0.374178
C139	C	0.593993	0.975027	0.380969
C140	C	0.593999	0.914678	0.320622
H141	H	0.698058	0.262421	0.067061
C142	C	0.331430	0.475790	-0.077599
C143	C	0.300084	0.455486	-0.037953
C144	C	0.307540	0.374185	-0.078585
C145	C	0.346342	0.313189	-0.158863
C146	C	0.377692	0.333491	-0.198513
C147	C	0.370235	0.414791	-0.157881
H148	H	0.271357	0.500641	0.021477
H149	H	0.284333	0.359157	-0.049233
H150	H	0.351862	0.253005	-0.188941
H151	H	0.406418	0.288336	-0.257943
H152	H	0.393442	0.429820	-0.187233
C153	C	0.553319	1.008242	0.454825
C154	C	0.553310	1.074631	0.521198
C155	C	0.512632	1.107853	0.595055
C156	C	0.471961	1.074685	0.602541
C157	C	0.471968	1.008292	0.536166
C158	C	0.512646	0.975070	0.462308
H159	H	0.583419	1.099187	0.515659
H160	H	0.512627	1.157001	0.644190
H161	H	0.441848	1.099278	0.657214
H162	H	0.441860	0.983736	0.541705
H163	H	0.512651	0.925922	0.413173
H164	H	0.698034	0.999571	0.301496
H165	H	0.698169	0.371917	-0.326147
H166	H	0.640562	0.733750	0.496590
H167	H	0.563999	0.262408	-0.067058
H168	H	0.621441	0.528279	0.503401
H169	H	0.698043	0.496905	0.192050
C170	C	0.930570	0.253833	0.077657
C171	C	0.961856	0.262143	0.137629
C172	C	0.954360	0.228961	0.178286
C173	C	0.915577	0.187469	0.158972
C174	C	0.884288	0.179157	0.098998
C175	C	0.891784	0.212339	0.058340
H176	H	0.990568	0.292860	0.151929
H177	H	0.977523	0.235114	0.222683
H178	H	0.910028	0.162905	0.189069
H179	H	0.855576	0.148440	0.084697
H180	H	0.868621	0.206186	0.013943
H181	H	0.329553	0.999577	-0.067089
H182	H	0.438884	0.890125	0.326157
C183	C	1.085884	0.253786	-0.077573
C184	C	1.152256	0.187397	-0.077561
C185	C	1.226126	0.154172	-0.118221
C186	C	1.233623	0.187336	-0.158894
C187	C	1.167249	0.253728	-0.158907
C188	C	1.093379	0.286953	-0.118246
H189	H	1.146708	0.162845	-0.047451
H190	H	1.275260	0.105024	-0.118211
H191	H	1.288306	0.162740	-0.188993
H192	H	1.172797	0.278281	-0.189016
H193	H	1.044244	0.336102	-0.118257
H194	H	0.957219	0.371900	-0.067039
C195	C	0.553345	0.786229	0.454830
C196	C	0.572619	0.847225	0.477018
C197	C	0.531951	0.928526	0.550870
C198	C	0.472009	0.948831	0.602534
C199	C	0.452732	0.887833	0.580347
C200	C	0.493400	0.806532	0.506495
H201	H	0.616995	0.832196	0.438773
H202	H	0.546221	0.973681	0.567294
H203	H	0.441904	1.009015	0.657203
H204	H	0.408357	0.902862	0.618592
H205	H	0.479130	0.761378	0.490071
C206	C	0.553500	0.253775	-0.299639
C207	C	0.572794	0.212268	-0.260864
C208	C	0.532153	0.179046	-0.253430
C209	C	0.472217	0.187332	-0.284772
C210	C	0.452919	0.228841	-0.323550
C211	C	0.493561	0.262063	-0.330984
H212	H	0.617165	0.206132	-0.237660
H213	H	0.546438	0.148318	-0.224724
H214	H	0.442132	0.162739	-0.279269
H215	H	0.408549	0.234977	-0.346753
H216	H	0.479276	0.292791	-0.359690
C217	C	0.331273	1.008255	0.454818
C218	C	0.370036	0.950179	0.477026
C219	C	0.377451	0.983384	0.550886
C220	C	0.346102	1.074666	0.602539
C221	C	0.307336	1.132747	0.580333
C222	C	0.299922	1.099542	0.506472
H223	H	0.393245	0.882602	0.438788
H224	H	0.406148	0.940388	0.567325
H225	H	0.351591	1.099246	0.657215
H226	H	0.284128	1.200324	0.618570
H227	H	0.271225	1.142539	0.490034
H228	H	0.195368	0.999621	0.067017
H229	H	0.640584	0.733749	0.606084
C230	C	0.553461	0.380510	-0.172880
C231	C	0.512813	0.347299	-0.165442
C232	C	0.472141	0.380467	-0.091604
C233	C	0.472115	0.446847	-0.025204
C234	C	0.512764	0.480061	-0.032640
C235	C	0.553437	0.446893	-0.106478
H236	H	0.512831	0.298158	-0.214597
H237	H	0.442050	0.355880	-0.086101
H238	H	0.442006	0.471400	0.029455
H239	H	0.512746	0.529203	0.016515
H240	H	0.583527	0.471481	-0.111982
H241	H	0.957228	0.371922	-0.192026
C242	C	0.127152	0.512093	-0.130006
C243	C	0.060764	0.512094	-0.130009
C244	C	0.058729	0.449808	-0.198107
C245	C	0.123081	0.387520	-0.266202
C246	C	0.189474	0.387516	-0.266201
C247	C	0.191509	0.449802	-0.198103
H248	H	0.013122	0.558206	-0.079599
H249	H	0.009581	0.449811	-0.198108
H250	H	0.121575	0.341412	-0.316612
H251	H	0.237116	0.341405	-0.316611
H252	H	0.240657	0.449799	-0.198103
C253	C	0.008178	0.749924	0.130006
C254	C	-0.058209	0.749924	0.130016
C255	C	-0.122562	0.812217	0.198115
C256	C	-0.120529	0.874509	0.266205
C257	C	-0.054139	0.874510	0.266198
C258	C	0.010214	0.812218	0.198099
H259	H	-0.059716	0.703810	0.079610
H260	H	-0.171708	0.812215	0.198120
H261	H	-0.168167	0.920622	0.316616
H262	H	-0.052631	0.920625	0.316604
H263	H	0.059360	0.812219	0.198094
H264	H	0.698201	0.262444	-0.435638
C265	C	0.930790	0.253779	-0.454828
C266	C	0.856957	0.286945	-0.462317
C267	C	0.849540	0.253725	-0.536176
C268	C	0.915955	0.187338	-0.602546
C269	C	0.989793	0.154167	-0.595059
C270	C	0.997210	0.187388	-0.521200
H271	H	0.807788	0.336092	-0.413184
H272	H	0.794880	0.278280	-0.541718
H273	H	0.910465	0.162746	-0.657222
H274	H	1.038962	0.105020	-0.644193
H275	H	1.051870	0.162833	-0.515658
C276	C	0.458208	0.881468	-0.077634
C277	C	0.524597	0.815079	-0.077638
C278	C	0.598454	0.781894	-0.118288
C279	C	0.605923	0.815096	-0.158933
C280	C	0.539532	0.881488	-0.158930
C281	C	0.465674	0.914674	-0.118281
H282	H	0.519070	0.790498	-0.047549
H283	H	0.647601	0.732746	-0.118290
H284	H	0.660597	0.790530	-0.189024
H285	H	0.545059	0.906070	-0.189020
H286	H	0.416528	0.963822	-0.118279
C287	C	0.708620	0.008237	0.077612
C288	C	0.668975	0.099515	0.137567
C289	C	0.709616	0.132715	0.178225
C290	C	0.789900	0.074638	0.158929
C291	C	0.829549	-0.016646	0.098971
C292	C	0.788909	-0.049846	0.058313
H293	H	0.609540	0.142513	0.151854
H294	H	0.680264	0.200290	0.222609
H295	H	0.819985	0.099214	0.189026
H296	H	0.888985	-0.059644	0.084684
H297	H	0.818260	-0.117421	0.013929
H298	H	0.134382	0.733754	0.112313
C299	C	1.085932	0.253827	-0.299548
C300	C	1.137599	0.162550	-0.330869
C301	C	1.211435	0.129370	-0.323380
C302	C	1.233605	0.187466	-0.284571
C303	C	1.181937	0.278749	-0.253248
C304	C	1.108100	0.311929	-0.260737
H305	H	1.121189	0.119539	-0.359600
H306	H	1.249683	0.061796	-0.346567
H307	H	1.288262	0.162904	-0.279027
H308	H	1.198347	0.321760	-0.224517
H309	H	1.069853	0.379503	-0.237549
H310	H	0.066696	0.496905	-0.067052
C311	C	-0.196117	0.786240	0.077613
C312	C	-0.262506	0.786246	0.077619
C313	C	-0.336363	0.867556	0.118270
C314	C	-0.343830	0.948860	0.158916
C315	C	-0.277438	0.948856	0.158912
C316	C	-0.203581	0.867547	0.118260
H317	H	-0.256981	0.726058	0.047529
H318	H	-0.385511	0.867558	0.118273
H319	H	-0.398504	1.009050	0.189009
H320	H	-0.282964	1.009045	0.189002
H321	H	-0.154434	0.867545	0.118257
H322	H	1.054508	0.207685	-0.423306
H323	H	0.564004	-0.109898	-0.067072
C324	C	0.302908	0.881474	0.172830
C325	C	0.229064	0.914679	0.165369
C326	C	0.221618	0.881494	0.091522
C327	C	0.288016	0.815104	0.025135
C328	C	0.361866	0.781895	0.032593
C329	C	0.369312	0.815080	0.106441
H330	H	0.179907	0.963829	0.214515
H331	H	0.166949	0.906078	0.086001
H332	H	0.282504	0.790538	-0.029531
H333	H	0.411023	0.732745	-0.016552
H334	H	0.423981	0.790496	0.111961
C335	C	0.803857	0.380558	0.077634
C336	C	0.796388	0.347375	0.118299
C337	C	0.722531	0.380572	0.158960
C338	C	0.656142	0.446952	0.158956
C339	C	0.663608	0.480139	0.118290
C340	C	0.737466	0.446942	0.077629
H341	H	0.845535	0.298233	0.118303
H342	H	0.717004	0.356005	0.189064
H343	H	0.601468	0.471527	0.189056
H344	H	0.614461	0.529281	0.118286
H345	H	0.742993	0.471509	0.047525
H346	H	0.207719	1.054351	-0.000043
C347	C	0.708663	0.475788	0.545167
C348	C	0.768614	0.455456	0.493489
C349	C	0.809271	0.374146	0.419644
C350	C	0.789978	0.313169	0.397476
C351	C	0.730025	0.333499	0.449154
C352	C	0.689368	0.414809	0.523000
H353	H	0.782898	0.500597	0.509898
H354	H	0.853653	0.359097	0.381388
H355	H	0.820076	0.252978	0.342811
H356	H	0.715741	0.288358	0.432745
H357	H	0.644986	0.429858	0.561255
H358	H	0.631146	0.207679	-0.423363
C359	C	0.176132	1.008206	0.299539
C360	C	0.153966	1.049667	0.260724
C361	C	0.080129	1.082837	0.253236
C362	C	0.028459	1.074546	0.284563
C363	C	0.050625	1.033082	0.323380
C364	C	0.124461	0.999912	0.330868
H365	H	0.192216	1.055807	0.237532
H366	H	0.063721	1.113531	0.224501
H367	H	-0.026199	1.099100	0.279020
H368	H	0.012375	1.026943	0.346573
H369	H	0.140869	0.969218	0.359603
H370	H	0.564002	-0.000402	-0.067069
H371	H	0.698041	0.890100	0.192029
H372	H	0.823181	0.371892	-0.326169
H373	H	1.054346	0.207695	0.000064
H374	H	0.621418	0.528279	0.393913
H375	H	0.698051	0.371920	0.067069
H376	H	0.743346	0.124818	-0.009571
H377	H	0.207557	1.054367	0.423295
H378	H	0.304846	0.890118	0.067031
H379	H	0.630960	1.054338	0.423310
H380	H	0.743350	0.015312	-0.009588
H381	H	0.563957	0.765117	0.698450
H382	H	0.698074	-0.109897	0.067039
H383	H	0.563894	0.890124	0.326163
H384	H	0.518699	0.246717	0.009593
C385	C	0.176184	0.786231	0.077599
C386	C	0.153979	0.847211	0.157875
C387	C	0.080120	0.928519	0.198531
C388	C	0.028467	0.948846	0.158911
C389	C	0.050671	0.887865	0.078631
C390	C	0.124530	0.806557	0.037974
H391	H	0.192217	0.832164	0.187208
H392	H	0.063684	0.973661	0.257961
H393	H	-0.026207	1.009035	0.189007
H394	H	0.012433	0.902911	0.049297
H395	H	0.140966	0.761414	-0.021455
H396	H	0.563998	0.371902	-0.067064
C397	C	0.501018	0.138190	0.011088
C398	C	0.432922	0.208331	0.016891
C399	C	0.364819	0.212094	0.022702
C400	C	0.364813	0.145715	0.022711
C401	C	0.432911	0.075569	0.016909
C402	C	0.501014	0.071806	0.011097
H403	H	0.432924	0.257474	0.016884
H404	H	0.314408	0.264022	0.026997
H405	H	0.314399	0.148501	0.027013
H406	H	0.432909	0.026426	0.016915
H407	H	0.551425	0.019878	0.006802
H408	H	0.237172	0.528270	-0.112318
H409	H	0.438994	0.496901	-0.067045
H410	H	-0.067440	0.765114	0.067048
H411	H	-0.042797	0.496908	-0.067044
H412	H	0.304861	0.765113	0.067023
H413	H	0.563992	0.765114	0.807938
H414	H	0.563887	0.765117	0.326153
H415	H	0.698127	0.496908	0.673846
H416	H	0.698054	0.496912	0.301551
