data_functionalizedCrystal
_audit_creation_method	'MofGen! by Chris Wilmer'
_symmetry_space_group_name_H-M	'P1'
_symmetry_Int_Tables_number	1
_symmetry_cell_setting	triclinic
loop_
_symmetry_equiv_pos_as_xyz
  x,y,z
_cell_length_a	15.298208
_cell_length_b	15.297475
_cell_length_c	15.296720
_cell_angle_alpha	91.617114
_cell_angle_beta	72.662266
_cell_angle_gamma	88.396166
loop_
_atom_site_label
_atom_site_type_symbol
_atom_site_fract_x
_atom_site_fract_y
_atom_site_fract_z
Zn1	Zn	0.695101	1.116597	-0.823348
Zn2	Zn	0.823706	1.116549	-0.694763
Zn3	Zn	0.644926	1.005350	-0.644605
Zn4	Zn	0.814927	0.946503	-0.814670
O5	O	0.744665	1.046250	-0.744346
O6	O	0.736833	1.234313	-0.830914
O7	O	0.782667	1.126405	-0.563124
O8	O	0.526615	1.044755	-0.650955
O9	O	0.831318	1.234277	-0.736444
O10	O	0.563477	1.126488	-0.782277
O11	O	0.651318	1.044708	-0.526272
O12	O	0.642805	0.879821	-0.642541
O13	O	0.816355	0.944459	-0.940807
O14	O	0.767704	0.836587	-0.767487
O15	O	0.728320	1.069426	-0.947182
O16	O	0.947509	1.069344	-0.728029
O17	O	0.941059	0.944412	-0.816124
C18	C	0.698858	0.827680	-0.698630
C19	C	0.679286	0.734166	-0.679097
C20	C	0.884556	0.380621	-0.883958
C21	C	0.902951	0.468480	-0.902309
C22	C	0.847036	0.534906	-0.846508
C23	C	0.772723	0.513464	-0.772352
C24	C	0.754331	0.425595	-0.753995
C25	C	0.716811	0.579880	-0.716545
C26	C	0.642498	0.558438	-0.642389
C27	C	0.624108	0.470578	-0.624035
C28	C	0.680023	0.404152	-0.679836
C29	C	0.735204	0.667749	-0.734902
C30	C	0.604978	0.712723	-0.604939
C31	C	0.586583	0.624863	-0.586588
C32	C	0.511737	1.092191	-0.711989
C33	C	0.412478	1.111768	-0.698200
C34	C	0.119249	0.906762	-0.842791
C35	C	0.212507	0.888364	-0.855743
C36	C	0.262505	0.944214	-0.816359
C37	C	0.219234	1.018464	-0.764019
C38	C	0.125965	1.036860	-0.751060
C39	C	0.269221	1.074312	-0.724628
C40	C	0.225950	1.148562	-0.672289
C41	C	0.132690	1.166955	-0.659332
C42	C	0.082693	1.111106	-0.698716
C43	C	0.362490	1.055916	-0.737587
C44	C	0.369206	1.186014	-0.645857
C45	C	0.275947	1.204412	-0.632904
C46	C	0.976694	1.000506	-0.776602
C47	C	1.075977	0.981008	-0.790447
C48	C	0.776955	1.000384	-0.977308
C49	C	0.790715	0.980838	-1.076583
C50	C	0.790652	1.265673	-0.790242
C51	C	0.810248	1.359178	-0.809800
C52	C	0.646169	1.186005	-1.369701
C53	C	0.633243	1.204374	-1.276429
C54	C	0.672610	1.148491	-1.226463
C55	C	0.724905	1.074237	-1.269778
C56	C	0.737838	1.055870	-1.363060
C57	C	0.764279	1.018357	-1.219822
C58	C	0.816574	0.944103	-1.263137
C59	C	0.829504	0.925739	-1.356411
C60	C	0.790137	0.981621	-1.406377
C61	C	0.751346	1.036724	-1.126539
C62	C	0.843015	0.906589	-1.119899
C63	C	0.855940	0.888221	-1.213171
C64	C	0.712446	1.091998	-0.512292
C65	C	0.698469	1.111756	-0.413017
H66	H	0.665048	0.332607	-0.664900
H67	H	0.862018	0.606444	-0.861454
H68	H	0.240705	1.264867	-0.590289
H69	H	0.875072	0.861086	-1.079217
H70	H	0.963458	0.485932	-0.962685
H71	H	0.559449	0.766808	-0.559499
C72	C	0.028557	0.892120	-0.945902
C73	C	0.064290	0.845382	-0.886077
H74	H	-0.005369	0.854220	-0.972630
H75	H	-0.010552	0.938962	-0.912869
H76	H	0.077365	0.914861	-0.992790
H77	H	0.015482	0.822646	-0.839185
H78	H	0.103402	0.798523	-0.919111
H79	H	0.930078	0.326531	-0.929378
H80	H	0.397713	0.995463	-0.780207
H81	H	0.795710	0.685198	-0.795281
C82	C	0.423627	0.636117	-0.516643
C83	C	0.504904	0.601285	-0.505073
H84	H	0.373203	0.621554	-0.466322
H85	H	0.426577	0.697944	-0.519578
H86	H	0.415973	0.612462	-0.571870
H87	H	0.512561	0.624945	-0.449849
H88	H	0.501954	0.539446	-0.502128
C89	C	0.553765	0.481920	-0.461132
C90	C	0.542430	0.447030	-0.542506
H91	H	0.503337	0.467393	-0.410798
H92	H	0.608900	0.458281	-0.453300
H93	H	0.556730	0.543751	-0.464109
H94	H	0.539471	0.385197	-0.539532
H95	H	0.487280	0.470665	-0.550340
H96	H	0.590667	1.264833	-1.241169
H97	H	0.338440	0.929231	-0.826909
C98	C	0.898101	0.959996	-1.556285
C99	C	0.804347	0.961431	-1.508907
H100	H	0.906870	0.947529	-1.619582
H101	H	0.921986	1.015389	-1.548686
H102	H	0.929027	0.916086	-1.532727
H103	H	0.773421	1.005346	-1.532461
H104	H	0.780450	0.906031	-1.516513
H105	H	0.614129	1.231500	-1.410393
H106	H	0.247729	0.827905	-0.898350
C107	C	-0.047249	1.208291	-0.630217
C108	C	-0.019822	1.131330	-0.684478
H109	H	-0.110536	1.220776	-0.621434
H110	H	-0.037193	1.200925	-0.572475
H111	H	-0.012625	1.255370	-0.659954
H112	H	-0.054441	1.084249	-0.654737
H113	H	-0.029886	1.138691	-0.742231
C114	C	0.148701	1.293710	-0.569970
C115	C	0.085125	1.248570	-0.601799
H116	H	0.119337	1.344099	-0.534458
H117	H	0.172658	1.256613	-0.533191
H118	H	0.197218	1.311045	-0.620681
H119	H	0.036612	1.231230	-0.551089
H120	H	0.061155	1.285674	-0.638580
C121	C	0.515181	1.215651	-0.625095
C122	C	0.424174	1.247455	-0.602632
H123	H	0.549125	1.253595	-0.598435
H124	H	0.516831	1.158719	-0.602277
H125	H	0.541313	1.213087	-0.689811
H126	H	0.398039	1.250013	-0.537916
H127	H	0.422520	1.304403	-0.625446
H128	H	0.708766	1.097182	-1.091281
C129	C	0.604176	1.245647	-1.096464
C130	C	0.658394	1.168675	-1.123934
H131	H	0.595391	1.258103	-1.033162
H132	H	0.633929	1.292725	-1.131059
H133	H	0.546429	1.238307	-1.106530
H134	H	0.716144	1.176017	-1.113874
H135	H	0.628641	1.121587	-1.089328
C136	C	0.832756	0.789488	-1.439390
C137	C	0.887003	0.844133	-1.404039
H138	H	0.868260	0.739114	-1.468800
H139	H	0.782073	0.772134	-1.390871
H140	H	0.811159	0.820154	-1.482486
H141	H	0.908595	0.813468	-1.360938
H142	H	0.937703	0.861486	-1.452564
C143	C	0.988156	0.832188	-1.332311
C144	C	0.913431	0.806606	-1.260790
H145	H	1.023650	0.781802	-1.361703
H146	H	0.966555	0.862835	-1.375406
H147	H	1.024949	0.869265	-1.308322
H148	H	0.876634	0.769534	-1.284780
H149	H	0.935032	0.775945	-1.217688
