data_functionalizedCrystal
_audit_creation_method	'MofGen! by Chris Wilmer'
_symmetry_space_group_name_H-M	'P1'
_symmetry_Int_Tables_number	1
_symmetry_cell_setting	triclinic
loop_
_symmetry_equiv_pos_as_xyz
  x,y,z
_cell_length_a	19.121102
_cell_length_b	12.759394
_cell_length_c	12.759387
_cell_angle_alpha	90.031660
_cell_angle_beta	87.538126
_cell_angle_gamma	92.430742
loop_
_atom_site_label
_atom_site_type_symbol
_atom_site_fract_x
_atom_site_fract_y
_atom_site_fract_z
Zn1	Zn	1.073810	0.486838	-0.662508
Zn2	Zn	1.073736	0.662550	-0.486822
Zn3	Zn	0.956351	0.479384	-0.479351
Zn4	Zn	0.956345	0.654969	-0.654971
O5	O	1.015061	0.570935	-0.570913
O6	O	1.172085	0.516439	-0.645484
O7	O	1.058136	0.638306	-0.338808
O8	O	0.971965	0.333354	-0.503676
O9	O	1.172031	0.645535	-0.516408
O10	O	1.058261	0.338830	-0.638240
O11	O	0.971894	0.503735	-0.333319
O12	O	0.858065	0.496383	-0.496367
O13	O	0.971956	0.632612	-0.802994
O14	O	0.858061	0.625384	-0.625394
O15	O	1.058256	0.509088	-0.808532
O16	O	1.058131	0.808564	-0.509099
O17	O	0.971885	0.802993	-0.632638
C18	C	0.832578	0.559253	-0.559253
C19	C	0.754512	0.554280	-0.554289
C20	C	1.015018	0.843900	-0.570885
C21	C	1.015065	0.960680	-0.570912
C22	C	1.015114	0.570836	-0.844950
C23	C	1.015136	0.570793	-0.961728
C24	C	0.717852	0.619210	-0.619029
C25	C	0.644500	0.614524	-0.614370
C26	C	0.607809	0.544913	-0.544966
C27	C	0.644474	0.479976	-0.480223
C28	C	0.717825	0.484658	-0.484888
C29	C	0.386337	0.527407	-0.527531
C30	C	0.312981	0.522733	-0.522869
C31	C	0.313013	0.657280	-0.657018
C32	C	0.386365	0.661959	-0.661672
C33	C	0.423023	0.597019	-0.596933
C34	C	0.532832	0.540123	-0.540200
C35	C	0.497999	0.601804	-0.601705
C36	C	1.198255	0.582664	-0.582620
C37	C	1.276322	0.587662	-0.587609
C38	C	1.015122	0.296906	-0.570966
C39	C	1.015148	0.180131	-0.570988
C40	C	1.104941	0.966431	-0.442376
C41	C	1.149897	1.024169	-0.378122
C42	C	1.149938	1.133893	-0.378153
C43	C	1.105019	1.185882	-0.442448
C44	C	1.060063	1.128144	-0.506702
C45	C	1.060025	1.018418	-0.506662
C46	C	0.970192	1.122393	-0.635242
C47	C	0.970146	1.012669	-0.635207
C48	C	0.925274	1.174382	-0.699537
C49	C	0.880313	1.116644	-0.763788
C50	C	0.880273	1.006913	-0.763753
C51	C	0.925190	0.954931	-0.699462
C52	C	1.105007	0.442176	-0.967515
C53	C	1.149952	0.377853	-1.025270
C54	C	1.149969	0.377815	-1.134992
C55	C	1.105035	0.442106	-1.186963
C56	C	1.060090	0.506430	-1.129208
C57	C	1.060079	0.506463	-1.019483
C58	C	0.970216	0.635040	-1.123421
C59	C	0.970202	0.635084	-1.013699
C60	C	0.925282	0.699331	-1.175391
C61	C	0.880339	0.763662	-1.117637
C62	C	0.880325	0.763697	-1.007907
C63	C	0.925257	0.699408	-0.955944
C64	C	1.015048	0.570961	-0.297945
C65	C	1.015162	0.570716	-0.181176
H66	H	0.747721	0.675898	-0.675543
F67	F	0.273934	0.448647	-0.448989
F68	F	0.832427	0.945473	-0.832148
F69	F	0.925086	1.291145	-0.699206
F70	F	0.605488	0.683630	-0.683277
H71	H	1.186536	0.325506	-0.982943
F72	F	0.425342	0.458289	-0.458632
F73	F	1.104833	1.302645	-0.442115
H74	H	0.843717	0.816066	-0.960889
H75	H	0.843747	1.158982	-0.816136
F76	F	0.925311	0.838163	-0.699668
F77	F	0.925248	0.699445	-0.839167
F78	F	0.537050	0.675885	-0.675570
H79	H	0.502950	0.483448	-0.483688
H80	H	1.105004	0.442210	-0.878174
H81	H	1.186563	0.325431	-1.182016
H82	H	0.843754	0.815996	-1.159960
H83	H	1.105047	0.442061	-1.276305
F84	F	0.925301	0.699289	-1.292168
F85	F	1.197788	1.195343	-0.309772
F86	F	1.197703	0.968832	-0.309702
F87	F	0.425409	0.736051	-0.735540
F88	F	0.756840	0.415549	-0.415984
F89	F	0.605423	0.405884	-0.406363
F90	F	1.105054	0.849663	-0.442578
F91	F	0.273993	0.726390	-0.725911
