data_functionalizedCrystal
_audit_creation_method	'MofGen! by Chris Wilmer'
_symmetry_space_group_name_H-M	'P1'
_symmetry_Int_Tables_number	1
_symmetry_cell_setting	triclinic
loop_
_symmetry_equiv_pos_as_xyz
  x,y,z
_cell_length_a	10.540514
_cell_length_b	27.731996
_cell_length_c	9.616153
_cell_angle_alpha	89.991761
_cell_angle_beta	89.992599
_cell_angle_gamma	83.568274
loop_
_atom_site_label
_atom_site_type_symbol
_atom_site_fract_x
_atom_site_fract_y
_atom_site_fract_z
O1	O	1.682922	0.068055	-0.115683
O2	O	1.313223	0.074486	-0.115684
O3	O	1.509589	0.000944	-0.115654
O4	O	1.486556	0.141597	-0.115714
O5	O	1.509562	0.000946	0.115638
O6	O	1.313196	0.074488	0.115607
O7	O	1.682895	0.068057	0.115608
Zn8	Zn	1.498041	0.071272	0.152330
Zn9	Zn	1.498077	0.071270	-0.152406
O10	O	1.486529	0.141599	0.115577
C11	C	1.265927	0.074007	-0.000038
C12	C	1.125040	0.072572	-0.000037
C13	C	1.509102	-0.017065	-0.000003
C14	C	1.507677	-0.070730	0.000011
C15	C	1.052025	0.125168	-0.000063
C16	C	0.905476	0.123693	-0.000594
C17	C	0.933974	0.043967	-0.131855
C18	C	1.080432	0.045815	-0.131959
C19	C	1.080839	0.045038	0.131072
C20	C	0.933882	0.044531	0.132798
C21	C	1.498725	-0.403504	-0.126134
C22	C	1.493313	-0.605196	-0.126159
O23	O	1.492572	-0.631272	-0.233383
N24	N	1.492627	-0.630416	-0.000083
C25	C	1.493285	-0.605210	0.126008
O26	O	1.492563	-0.631289	0.233243
C27	C	1.498687	-0.403519	0.126031
C28	C	1.499387	-0.378301	-0.000053
C29	C	1.499423	-0.378286	-0.252208
C30	C	1.500783	-0.327867	-0.252200
C31	C	1.501445	-0.302664	-0.126119
C32	C	1.500747	-0.327882	-0.000046
C33	C	1.499336	-0.378313	0.252120
C34	C	1.500684	-0.327887	0.252115
C35	C	1.501383	-0.302670	0.126031
C36	C	1.502768	-0.252260	0.126043
N37	N	1.503455	-0.227039	-0.000033
C38	C	1.502793	-0.252242	-0.126114
C39	C	1.490451	-0.711102	0.125987
C40	C	1.489102	-0.761524	0.125982
C41	C	1.489129	-0.761506	-0.126185
C42	C	1.490486	-0.711083	-0.126179
C43	C	1.491137	-0.685881	-0.000089
C44	C	1.505650	-0.146357	-0.126089
C45	C	1.507015	-0.095933	-0.126070
C46	C	1.506982	-0.095955	0.126096
C47	C	1.505624	-0.146375	0.126078
C48	C	1.504953	-0.171574	-0.000025
O49	O	1.503497	-0.226152	0.233211
O50	O	1.503487	-0.226153	-0.233333
C51	C	1.497365	-0.453923	-0.126141
C52	C	1.496667	-0.479141	-0.000068
C53	C	1.497329	-0.453939	0.126013
C54	C	1.495319	-0.529564	-0.000073
C55	C	1.494657	-0.554766	-0.126154
C56	C	1.495344	-0.529545	-0.252230
C57	C	1.496704	-0.479126	-0.252223
C58	C	1.496642	-0.479159	0.252089
C59	C	1.495284	-0.529579	0.252071
C60	C	1.494622	-0.554781	0.125990
C61	C	1.730191	0.068536	-0.000041
C62	C	1.871078	0.069971	-0.000051
C63	C	1.487016	0.159608	-0.000076
C64	C	1.488441	0.213273	-0.000099
N65	N	1.498027	0.071274	0.360305
N66	N	1.498101	0.071266	-0.360381
C67	C	1.392674	0.110481	0.580658
C68	C	1.392896	0.110628	0.419491
C69	C	1.630248	0.082742	0.418748
C70	C	1.629671	0.083020	0.579966
C71	C	1.472485	0.020468	0.580238
C72	C	1.469424	0.020798	0.419011
H73	H	0.861903	0.144146	0.093866
H74	H	1.294581	0.103728	0.379979
H75	H	0.892041	0.063535	0.230308
H76	H	1.079616	0.146505	0.094440
H77	H	1.130135	0.007179	-0.137571
H78	H	1.549380	-0.008720	0.618366
H79	H	0.913393	0.004509	-0.136367
H80	H	1.294046	0.103688	0.619473
H81	H	1.505098	-0.166868	-0.228774
H82	H	1.488591	-0.782035	-0.228846
H83	H	1.408696	0.147955	0.621141
H84	H	1.107834	0.064806	-0.230877
H85	H	1.501348	-0.307339	-0.354871
H86	H	1.497273	-0.458598	-0.354893
H87	H	1.409140	0.148316	0.380895
H88	H	1.081340	0.146192	-0.094458
H89	H	1.505066	-0.166908	0.228746
H90	H	1.378227	0.009552	0.620980
H91	H	0.890595	0.061790	-0.230333
H92	H	1.490987	-0.690587	0.228671
H93	H	1.111552	0.062547	0.231007
H94	H	1.507527	-0.075426	0.228748
H95	H	1.652398	0.120080	0.617538
H96	H	0.862861	0.144058	-0.095649
H97	H	0.911416	0.005373	0.141166
H98	H	1.491054	-0.690554	-0.228847
H99	H	1.129798	0.006243	0.132361
H100	H	1.507588	-0.075403	-0.228748
H101	H	1.498880	-0.398800	-0.354884
H102	H	1.488552	-0.782053	0.228652
H103	H	1.494811	-0.550074	-0.354890
H104	H	1.710518	0.055607	0.618966
H105	H	1.498768	-0.398837	0.354792
H106	H	1.710524	0.054959	0.380407
H107	H	1.501195	-0.307369	0.354795
H108	H	1.653537	0.119383	0.378342
H109	H	1.372166	0.012105	0.380815
H110	H	1.541295	-0.009786	0.378729
H111	H	1.494724	-0.550107	0.354752
H112	H	1.497183	-0.458645	0.354762
