data_functionalizedCrystal
_audit_creation_method	'MofGen! by Chris Wilmer'
_symmetry_space_group_name_H-M	'P1'
_symmetry_Int_Tables_number	1
_symmetry_cell_setting	triclinic
loop_
_symmetry_equiv_pos_as_xyz
  x,y,z
_cell_length_a	17.640112
_cell_length_b	25.639239
_cell_length_c	17.639041
_cell_angle_alpha	101.216308
_cell_angle_beta	87.857772
_cell_angle_gamma	101.263838
loop_
_atom_site_label
_atom_site_type_symbol
_atom_site_fract_x
_atom_site_fract_y
_atom_site_fract_z
Zn1	Zn	1.247751	-0.015062	0.195091
Zn2	Zn	1.221949	-0.122913	0.068102
Zn3	Zn	1.095080	-0.049054	0.093732
Zn4	Zn	1.120677	-0.116060	0.220693
O5	O	1.171364	-0.075772	0.144405
O6	O	1.350605	-0.018010	0.156806
O7	O	1.183609	-0.130209	-0.034777
O8	O	1.115417	0.028633	0.107189
O9	O	1.331648	-0.097248	0.063507
O10	O	1.227584	0.053607	0.181657
O11	O	1.090399	-0.075946	-0.015947
O12	O	0.992199	-0.069301	0.132014
O13	O	1.159044	-0.085568	0.323576
O14	O	1.011005	-0.118530	0.225292
O15	O	1.252405	-0.011365	0.304767
O16	O	1.208430	-0.195182	0.088332
O17	O	1.134025	-0.190147	0.200440
C18	C	0.974045	-0.096860	0.184213
C19	C	0.889635	-0.105892	0.201261
C20	C	0.563034	-0.007152	0.014899
C21	C	0.483720	-0.015647	0.030928
C22	C	0.503324	-0.067028	0.127891
C23	C	0.582641	-0.058535	0.111873
C24	C	0.612490	-0.028597	0.055375
C25	C	0.632097	-0.079980	0.152349
C26	C	0.711408	-0.071489	0.136328
C27	C	0.741262	-0.041554	0.079832
C28	C	0.691800	-0.020106	0.039355
C29	C	0.602246	-0.109921	0.208842
C30	C	0.651702	-0.131366	0.249318
C31	C	0.731015	-0.122872	0.233302
C32	C	0.760869	-0.092937	0.176805
C33	C	0.780476	-0.144320	0.273779
C34	C	0.859787	-0.135830	0.257758
C35	C	0.840180	-0.084447	0.160785
C36	C	1.171229	-0.211634	0.144396
C37	C	1.171246	-0.269745	0.144403
C38	C	1.210250	-0.632674	0.086087
C39	C	1.210281	-0.687273	0.086092
O40	O	1.243304	-0.717712	0.036498
N41	N	1.171508	-0.711989	0.144428
C42	C	1.132706	-0.682100	0.202769
O43	O	1.099730	-0.708136	0.252389
C44	C	1.132680	-0.627501	0.202767
C45	C	1.171450	-0.602790	0.144422
C46	C	1.249017	-0.607963	0.027748
C47	C	1.248984	-0.553367	0.027743
C48	C	1.210184	-0.523483	0.086078
C49	C	1.171417	-0.548194	0.144417
C50	C	1.093884	-0.597612	0.261110
C51	C	1.093861	-0.543009	0.261103
C52	C	1.132631	-0.518298	0.202758
C53	C	1.132584	-0.463715	0.202747
N54	N	1.171358	-0.438999	0.144411
C55	C	1.210158	-0.468883	0.086076
C56	C	1.132766	-0.796763	0.202769
C57	C	1.132787	-0.851362	0.202768
C58	C	1.210364	-0.856532	0.086092
C59	C	1.210337	-0.801932	0.086090
C60	C	1.171540	-0.772047	0.144432
C61	C	1.210085	-0.354229	0.086070
C62	C	1.210046	-0.299629	0.086069
C63	C	1.132474	-0.294464	0.202747
C64	C	1.132509	-0.349060	0.202746
C65	C	1.171321	-0.378941	0.144404
O66	O	1.099581	-0.433242	0.252317
O67	O	1.243137	-0.442839	0.036469
C68	C	1.369453	-0.054602	0.104442
C69	C	1.453867	-0.045580	0.087412
C70	C	1.211457	-0.043911	0.342499
C71	C	1.228543	-0.030333	0.426915
C72	C	1.171523	0.060625	0.144426
C73	C	1.171591	0.118750	0.144435
C74	C	1.301227	0.027434	0.536104
C75	C	1.285167	0.014671	0.456784
C76	C	1.187953	-0.062591	0.476362
C77	C	1.204002	-0.049833	0.555686
C78	C	1.260640	-0.004821	0.585551
C79	C	1.163415	-0.082088	0.605133
C80	C	1.179466	-0.069333	0.684449
C81	C	1.236104	-0.024323	0.714320
C82	C	1.276691	0.007935	0.664867
C83	C	1.106781	-0.127103	0.575266
C84	C	1.066195	-0.159358	0.624712
C85	C	1.082241	-0.146600	0.704031
C86	C	1.138879	-0.101590	0.733902
C87	C	1.041654	-0.178858	0.753484
C88	C	1.057704	-0.166103	0.832800
C89	C	1.154929	-0.088835	0.813218
C90	C	1.131423	-0.107519	0.947082
C91	C	1.114343	-0.121090	0.862665
H92	H	0.587341	0.017237	-0.031096
Cl93	Cl	1.083751	-0.380130	0.276082
Cl94	Cl	1.372400	0.084041	0.573661
H95	H	1.062269	-0.518679	0.308615
Cl96	Cl	1.258876	-0.391785	0.012723
Cl97	Cl	1.297802	-0.645522	-0.045597
H98	H	1.100880	-0.270124	0.250241
Cl99	Cl	1.045152	-0.628661	0.334469
H100	H	0.900055	-0.153292	0.290719
Cl101	Cl	1.083979	-0.759200	0.276116
Cl102	Cl	1.116753	-0.119176	0.438810
H103	H	1.201041	-0.052176	0.837537
H104	H	1.101209	-0.871479	0.250273
H105	H	0.716107	0.004282	-0.006640
Cl106	Cl	1.256286	-0.008288	0.814033
H107	H	1.322803	0.044594	0.689186
Cl108	Cl	1.006680	-0.206651	0.894966
H109	H	1.318220	0.040941	0.416526
H110	H	1.093718	-0.137489	0.510680
H111	H	0.443456	0.001823	-0.002031
Cl112	Cl	0.465790	-0.104670	0.198905
Cl113	Cl	1.259140	-0.894111	0.012755
H114	H	1.020082	-0.196008	0.600385
H115	H	0.756160	-0.168700	0.319774
H116	H	0.995544	-0.215510	0.729154
H117	H	0.805842	-0.034643	0.066787
Cl118	Cl	0.502538	-0.120602	0.228972
Cl119	Cl	0.614168	-0.169008	0.320332
Cl120	Cl	0.877711	-0.046805	0.089763
H121	H	1.280557	-0.533250	-0.019764
Cl122	Cl	1.258790	-0.268567	0.012716
H123	H	1.241908	-0.781816	0.038581
