data_functionalizedCrystal
_audit_creation_method	'MofGen! by Chris Wilmer'
_symmetry_space_group_name_H-M	'P1'
_symmetry_Int_Tables_number	1
_symmetry_cell_setting	triclinic
loop_
_symmetry_equiv_pos_as_xyz
  x,y,z
_cell_length_a	18.101397
_cell_length_b	10.685727
_cell_length_c	10.686551
_cell_angle_alpha	99.074299
_cell_angle_beta	94.415461
_cell_angle_gamma	85.642555
loop_
_atom_site_label
_atom_site_type_symbol
_atom_site_fract_x
_atom_site_fract_y
_atom_site_fract_z
Zn1	Zn	0.345730	-1.995609	-0.866111
Zn2	Zn	0.478412	-1.979144	-0.653807
Zn3	Zn	0.345757	-1.767044	-0.637630
Zn4	Zn	0.460699	-1.783280	-0.849771
O5	O	0.407650	-1.881269	-0.751830
O6	O	0.370732	-2.171050	-0.851558
O7	O	0.468239	-1.937323	-0.474030
O8	O	0.242122	-1.797460	-0.668008
O9	O	0.468213	-2.158953	-0.695579
O10	O	0.242102	-1.965386	-0.835872
O11	O	0.370778	-1.781494	-0.462145
O12	O	0.353603	-1.591572	-0.652162
O13	O	0.438025	-1.825131	-1.029569
O14	O	0.438050	-1.603501	-0.808021
O15	O	0.353557	-1.981129	-1.041575
O16	O	0.579694	-1.953066	-0.679734
O17	O	0.566681	-1.809165	-0.823707
C18	C	0.600058	-1.881127	-0.751733
C19	C	0.682374	-1.881186	-0.751743
C20	C	0.393908	-1.551480	-0.726564
C21	C	0.388046	-1.410397	-0.715785
C22	C	0.981467	-1.881312	-0.751829
C23	C	0.958298	-1.971561	-0.660965
C24	C	0.872683	-1.971932	-0.661258
C25	C	0.833084	-1.881249	-0.751785
C26	C	0.860028	-1.927784	-0.888352
C27	C	0.945727	-1.928487	-0.887862
C28	C	0.945812	-1.744361	-0.707268
C29	C	0.860315	-1.744807	-0.704344
C30	C	0.749223	-1.881212	-0.751768
C31	C	1.065327	-1.881353	-0.751855
C32	C	1.214490	-1.881411	-0.751922
C33	C	1.132177	-1.881376	-0.751871
C34	C	0.393812	-1.906778	-1.082918
C35	C	0.387916	-1.917648	-1.224008
C36	C	0.421438	-1.212345	-0.777189
C37	C	0.427293	-1.353429	-0.787979
C38	C	0.421383	-1.855933	-0.422036
C39	C	0.427081	-1.845308	-0.280965
H40	H	0.854909	-1.941628	-0.560317
C41	C	0.990527	-1.930969	-0.524215
C42	C	0.975005	-2.005959	-0.418303
C43	C	1.007235	-1.965360	-0.281547
C44	C	1.054988	-1.849770	-0.250704
C45	C	1.070513	-1.774773	-0.356619
C46	C	1.038282	-1.815372	-0.493375
H47	H	0.939653	-2.091532	-0.441133
H48	H	0.995742	-2.020879	-0.203142
H49	H	1.078847	-1.819716	-0.149469
H50	H	1.105864	-1.689200	-0.333789
H51	H	1.049775	-1.759854	-0.571780
C52	C	0.478746	-1.433341	-0.882626
C53	C	0.466060	-1.426387	-1.025583
C54	C	0.517514	-1.506307	-1.120231
C55	C	0.581654	-1.593182	-1.071922
C56	C	0.594343	-1.600140	-0.928958
C57	C	0.542889	-1.520219	-0.834309
H58	H	0.418577	-1.362073	-1.061351
H59	H	0.508120	-1.501157	-1.226063
H60	H	0.619744	-1.652345	-1.141986
H61	H	0.641826	-1.664453	-0.893190
H62	H	0.552283	-1.525370	-0.728477
H63	H	0.349955	-1.351232	-0.645729
C64	C	0.336518	-2.012562	-1.303945
C65	C	0.252647	-2.000903	-1.285100
C66	C	0.201251	-2.095815	-1.365037
C67	C	0.233726	-2.202385	-1.463818
C68	C	0.317602	-2.214049	-1.482668
C69	C	0.368998	-2.119137	-1.402731
H70	H	0.228603	-1.922009	-1.211972
H71	H	0.139161	-2.087180	-1.351083
H72	H	0.195680	-2.272644	-1.522992
H73	H	0.341646	-2.292942	-1.555795
H74	H	0.431088	-2.127772	-1.416685
C75	C	0.978605	-1.689841	-0.574331
C76	C	1.019331	-1.566164	-0.555150
C77	C	1.052126	-1.511662	-0.422209
C78	C	1.044196	-1.580838	-0.308449
C79	C	1.003468	-1.704523	-0.327627
C80	C	0.970673	-1.759024	-0.460567
H81	H	1.025204	-1.514949	-0.639364
H82	H	1.082276	-1.420102	-0.408013
H83	H	1.068472	-1.540492	-0.210039
H84	H	0.997595	-1.755737	-0.243412
H85	H	0.940523	-1.850584	-0.474763
H86	H	0.465126	-1.775062	-1.221792
C87	C	0.976531	-2.064136	-0.937229
C88	C	1.060731	-2.092857	-0.946998
C89	C	1.091531	-2.228510	-0.996361
C90	C	1.038131	-2.335443	-1.035956
C91	C	0.953926	-2.306725	-1.026188
C92	C	0.923126	-2.171072	-0.976824
H93	H	1.100265	-2.013697	-0.917686
H94	H	1.153865	-2.249769	-1.003592
H95	H	1.060931	-2.435862	-1.072498
H96	H	0.914391	-2.385886	-1.055499
H97	H	0.860791	-2.149814	-0.969594
H98	H	0.982952	-2.072235	-0.690959
H99	H	0.855337	-2.073177	-0.691560
C100	C	0.823400	-1.648012	-0.786178
C101	C	0.871589	-1.574894	-0.858736
C102	C	0.834686	-1.478131	-0.940624
C103	C	0.749595	-1.454485	-0.949954
C104	C	0.701401	-1.527605	-0.877394
C105	C	0.738303	-1.624369	-0.795506
H106	H	0.934583	-1.592396	-0.851831
H107	H	0.870363	-1.424003	-0.994338
H108	H	0.722277	-1.382855	-1.010573
H109	H	0.638406	-1.510103	-0.884299
H110	H	0.702626	-1.678497	-0.741792
H111	H	0.960461	-1.866195	-0.958452
H112	H	0.833660	-1.864513	-0.958321
H113	H	0.841332	-2.027141	-0.925319
H114	H	0.843019	-1.709904	-0.603791
H115	H	0.960061	-1.676992	-0.773323
