data_functionalizedCrystal
_audit_creation_method	'MofGen! by Chris Wilmer'
_symmetry_space_group_name_H-M	'P1'
_symmetry_Int_Tables_number	1
_symmetry_cell_setting	triclinic
loop_
_symmetry_equiv_pos_as_xyz
  x,y,z
_cell_length_a	9.065218
_cell_length_b	10.654550
_cell_length_c	9.730223
_cell_angle_alpha	90.000193
_cell_angle_beta	89.999690
_cell_angle_gamma	95.249606
loop_
_atom_site_label
_atom_site_type_symbol
_atom_site_fract_x
_atom_site_fract_y
_atom_site_fract_z
O1	O	1.959386	-0.184154	-0.114290
O2	O	1.530019	-0.199259	-0.114291
O3	O	1.754575	-0.009007	-0.114285
O4	O	1.734831	-0.374407	-0.114296
O5	O	1.754572	-0.009011	0.114295
O6	O	1.530016	-0.199264	0.114289
O7	O	1.959384	-0.184159	0.114290
Zn8	Zn	1.744700	-0.191712	0.150581
Zn9	Zn	1.744703	-0.191706	-0.150582
O10	O	1.734828	-0.374412	0.114284
C11	C	1.753124	0.037795	0.000003
C12	C	1.748786	0.177255	-0.000002
C13	C	1.475039	-0.197810	-0.000001
C14	C	1.311220	-0.193469	-0.000002
N15	N	1.744708	-0.191716	0.356118
C16	C	2.014364	-0.185608	-0.000002
C17	C	2.178183	-0.189949	-0.000011
C18	C	1.736279	-0.421213	-0.000007
C19	C	1.740616	-0.560673	-0.000011
C20	C	1.881001	0.256217	0.000003
C21	C	1.876917	0.387254	-0.000007
C22	C	1.608391	0.360354	-0.000020
C23	C	1.612477	0.229320	-0.000020
C24	C	2.036032	0.271749	0.000016
C25	C	2.031948	0.402786	0.000007
N26	N	1.744706	-0.191692	-0.356119
C27	C	1.844167	-0.107501	0.428047
C28	C	1.844163	-0.107486	0.571930
C29	C	1.645236	-0.275911	0.571942
C30	C	1.645234	-0.275920	0.428062
C31	C	1.959020	-0.010265	0.428040
C32	C	1.959016	-0.010250	0.571923
H33	H	1.504815	0.165033	-0.000043
O34	O	1.537942	-0.366735	0.350478
H35	H	1.600652	-0.428522	0.284917
H36	H	2.085399	0.235924	0.098713
H37	H	2.078802	0.448245	-0.098688
H38	H	2.090360	0.444312	0.095665
O39	O	1.461383	0.416521	-0.000023
H40	H	1.397792	0.384930	-0.093194
O41	O	1.911548	0.110761	0.631065
H42	H	2.002302	0.156598	0.695259
H43	H	1.564247	-0.344467	0.630535
H44	H	2.072399	-0.032217	0.610974
H45	H	1.933829	0.086367	0.388989
O46	O	2.116333	0.232524	-0.126690
H47	H	2.152394	0.317238	-0.188731
O48	O	2.100922	-0.051316	0.368906
H49	H	2.176158	-0.073071	0.453913
