data_functionalizedCrystal
_audit_creation_method	'MofGen! by Chris Wilmer'
_symmetry_space_group_name_H-M	'P1'
_symmetry_Int_Tables_number	1
_symmetry_cell_setting	triclinic
loop_
_symmetry_equiv_pos_as_xyz
  x,y,z
_cell_length_a	15.995350
_cell_length_b	27.732048
_cell_length_c	15.072220
_cell_angle_alpha	89.993868
_cell_angle_beta	89.991149
_cell_angle_gamma	83.067515
loop_
_atom_site_label
_atom_site_type_symbol
_atom_site_fract_x
_atom_site_fract_y
_atom_site_fract_z
O1	O	1.110190	0.062301	-0.073717
O2	O	0.866315	0.069995	-0.073737
O3	O	0.995827	-0.004216	-0.073709
O4	O	0.980678	0.136512	-0.073744
O5	O	0.995795	-0.004212	0.073856
O6	O	0.866283	0.069999	0.073828
O7	O	1.110158	0.062305	0.073848
Zn8	Zn	0.988215	0.066153	0.097267
Zn9	Zn	0.988257	0.066148	-0.097156
O10	O	0.980646	0.136516	0.073821
C11	C	0.835108	0.069679	0.000044
C12	C	0.742170	0.068726	0.000037
C13	C	0.995493	-0.022222	0.000076
C14	C	0.994535	-0.075881	0.000083
C15	C	0.404467	0.065301	0.000056
C16	C	0.452585	0.012449	0.000399
C17	C	0.549263	0.013403	0.000060
C18	C	0.572006	0.067000	0.000047
C19	C	0.530599	0.093065	-0.084223
C20	C	0.433981	0.091738	-0.084287
C21	C	0.433592	0.092834	0.083522
C22	C	0.530537	0.092822	0.084630
C23	C	0.666691	0.067962	0.000039
C24	C	0.309782	0.064340	0.000058
C25	C	1.065040	-0.414392	0.000043
C26	C	1.061487	-0.616067	0.000030
O27	O	1.125959	-0.647045	-0.000004
N28	N	0.984692	-0.635522	0.000025
C29	C	0.908780	-0.604555	0.000017
O30	O	0.843380	-0.625730	0.000003
C31	C	0.912334	-0.402881	0.000023
C32	C	0.989134	-0.383429	0.000037
C33	C	1.141834	-0.394940	0.000056
C34	C	1.142721	-0.344524	0.000064
C35	C	1.066815	-0.313561	0.000059
C36	C	0.990021	-0.333013	0.000045
C37	C	0.836422	-0.371914	0.000009
C38	C	0.837317	-0.321493	0.000008
C39	C	0.914117	-0.302041	0.000023
C40	C	0.915002	-0.251634	0.000048
N41	N	0.991797	-0.232179	0.000053
C42	C	1.067703	-0.263142	0.000059
C43	C	0.906920	-0.710437	0.000015
C44	C	0.906031	-0.760855	0.000015
C45	C	1.058739	-0.772364	0.000027
C46	C	1.059627	-0.721945	0.000033
C47	C	0.983715	-0.690982	0.000021
C48	C	1.069561	-0.157265	0.000076
C49	C	1.070442	-0.106844	0.000088
C50	C	0.917734	-0.095340	0.000072
C51	C	0.916853	-0.145756	0.000065
C52	C	0.992773	-0.176718	0.000064
O53	O	0.850565	-0.220628	0.000072
O54	O	1.133094	-0.241958	0.000053
C55	C	1.064153	-0.464808	0.000035
C56	C	0.987359	-0.484260	0.000022
C57	C	0.911452	-0.453297	0.000016
C58	C	0.986470	-0.534679	0.000022
C59	C	1.062377	-0.565642	0.000027
C60	C	1.139172	-0.546187	0.000032
C61	C	1.140059	-0.495771	0.000040
C62	C	0.834657	-0.472752	0.000011
C63	C	0.833776	-0.523168	0.000004
C64	C	0.909683	-0.554132	0.000009
C65	C	1.141364	0.062621	0.000066
C66	C	1.234302	0.063575	0.000066
C67	C	0.980980	0.154523	0.000034
C68	C	0.981938	0.208182	0.000021
N69	N	0.988193	0.066156	0.229956
N70	N	0.988287	0.066140	-0.229845
C71	C	0.988256	0.066146	0.589158
C72	C	0.918727	0.105721	0.551536
C73	C	0.918884	0.105866	0.448710
C74	C	0.988224	0.066151	0.410954
C75	C	1.075446	0.077167	0.448249
C76	C	1.075056	0.077448	0.551106
C77	C	0.971342	0.015437	0.551269
C78	C	0.969333	0.015775	0.448405
C79	C	0.988211	0.066153	0.310240
C80	C	0.988274	0.066145	0.689871
H81	H	0.577944	-0.007086	0.060468
H82	H	0.909157	0.004845	0.577257
H83	H	0.545395	0.131906	0.089710
H84	H	1.016735	-0.015055	0.422708
H85	H	1.120545	-0.797583	0.000032
C86	C	0.390009	0.145475	0.084282
H87	H	0.354231	0.150668	0.034010
H88	H	0.431396	0.167308	0.082424
H89	H	0.357496	0.150921	0.136872
H90	H	0.434323	-0.008675	0.060832
C91	C	0.406136	0.069497	0.169811
H92	H	0.376653	0.042739	0.155738
H93	H	0.370356	0.092822	0.202705
H94	H	0.454467	0.058520	0.204216
H95	H	1.203650	-0.420146	0.000057
H96	H	0.929616	0.143496	0.424088
C97	C	0.569257	0.068607	-0.168939
H98	H	0.543792	0.084642	-0.219582
H99	H	0.559718	0.035459	-0.169690
H100	H	0.628115	0.070641	-0.169813
C101	C	0.426500	-0.015965	-0.080771
H102	H	0.386415	0.004242	-0.114869
H103	H	0.402313	-0.043788	-0.061386
H104	H	0.474683	-0.025870	-0.116145
H105	H	1.122164	-0.706111	0.000044
C106	C	0.882661	0.004480	0.415483
H107	H	0.858086	0.030352	0.379061
H108	H	0.847091	0.000919	0.464933
H109	H	0.889340	-0.024796	0.382126
C110	C	0.567745	0.067117	0.168851
H111	H	0.608387	0.040759	0.152545
H112	H	0.523998	0.055245	0.201948
H113	H	0.593828	0.089490	0.204013
C114	C	1.039840	-0.024350	0.584141
H115	H	1.078563	-0.010154	0.620778
H116	H	1.068820	-0.039613	0.534681
H117	H	1.014392	-0.047823	0.617264
C118	C	0.830827	0.097008	0.584990
H119	H	0.835740	0.069159	0.622207
H120	H	0.795806	0.091957	0.535793
H121	H	0.806712	0.124534	0.617633
C122	C	1.154925	-0.085450	0.000099
H123	H	1.200003	-0.111115	0.000091
H124	H	1.158439	-0.066025	0.051560
H125	H	1.158456	-0.066018	-0.051365
H126	H	1.131383	-0.182469	0.000072
C127	C	0.834242	-0.061276	0.000060
H128	H	0.788373	-0.080079	0.000056
H129	H	0.831436	-0.041367	-0.051399
H130	H	0.831402	-0.041372	0.051526
H131	H	0.577401	-0.007228	-0.060444
H132	H	1.205260	-0.328691	0.000072
H133	H	1.202598	-0.479938	0.000051
H134	H	0.929308	0.143139	0.577366
H135	H	1.090060	0.114429	0.575080
C136	C	1.146998	0.039990	0.584730
H137	H	1.176338	0.024671	0.535524
H138	H	1.124283	0.016237	0.619764
H139	H	1.184767	0.055957	0.619632
H140	H	0.772844	-0.447546	0.000005
H141	H	1.128393	0.049109	0.423790
C142	C	0.409594	0.066051	-0.169367
H143	H	0.458714	0.056522	-0.203563
H144	H	0.371348	0.087645	-0.203061
H145	H	0.383691	0.038130	-0.153961
C146	C	0.821552	-0.782247	0.000007
H147	H	0.776476	-0.756581	-0.000006
H148	H	0.818011	-0.801679	0.051463
H149	H	0.818042	-0.801671	-0.051462
H150	H	1.090825	0.113727	0.422472
H151	H	0.401231	0.130541	-0.088120
C152	C	0.548997	0.146257	-0.088479
H153	H	0.582177	0.153056	-0.038783
H154	H	0.497439	0.167216	-0.087700
H155	H	0.578744	0.151312	-0.141577
C156	C	0.823411	-0.676383	0.000013
H157	H	0.777554	-0.695196	0.000020
H158	H	0.820582	-0.656471	-0.051443
H159	H	0.820573	-0.656481	0.051482
H160	H	0.773883	-0.387743	-0.000008
C161	C	0.753814	-0.287435	-0.000005
H162	H	0.765336	-0.254620	-0.000007
H163	H	0.722282	-0.293337	0.051447
H164	H	0.722315	-0.293331	-0.051478
C165	C	1.222667	-0.580253	0.000031
H166	H	1.211130	-0.613065	0.000017
H167	H	1.254182	-0.574364	0.051490
H168	H	1.254190	-0.574352	-0.051435
C169	C	0.749290	-0.544559	-0.000015
H170	H	0.704215	-0.518894	-0.000026
H171	H	0.745746	-0.563995	0.051437
H172	H	0.745785	-0.563980	-0.051488
C173	C	0.832376	-0.167155	0.000047
H174	H	0.787297	-0.141491	0.000039
H175	H	0.828836	-0.186592	0.051496
H176	H	0.828874	-0.186574	-0.051429
H177	H	0.854029	0.099303	0.423496
