data_functionalizedCrystal
_audit_creation_method	'MofGen! by Chris Wilmer'
_symmetry_space_group_name_H-M	'P1'
_symmetry_Int_Tables_number	1
_symmetry_cell_setting	triclinic
loop_
_symmetry_equiv_pos_as_xyz
  x,y,z
_cell_length_a	12.759401
_cell_length_b	19.805399
_cell_length_c	12.759400
_cell_angle_alpha	89.976763
_cell_angle_beta	90.014845
_cell_angle_gamma	89.984563
loop_
_atom_site_label
_atom_site_type_symbol
_atom_site_fract_x
_atom_site_fract_y
_atom_site_fract_z
Zn1	Zn	1.606224	-0.382665	-0.418286
Zn2	Zn	1.606128	-0.269486	-0.593979
Zn3	Zn	1.430535	-0.269498	-0.418316
Zn4	Zn	1.430514	-0.382641	-0.593924
O5	O	1.518350	-0.326072	-0.506126
O6	O	1.753232	-0.367657	-0.441603
O7	O	1.582803	-0.174771	-0.570713
O8	O	1.453890	-0.284526	-0.271291
O9	O	1.753161	-0.284504	-0.570684
O10	O	1.582967	-0.367669	-0.271269
O11	O	1.453796	-0.174780	-0.441653
O12	O	1.283511	-0.284502	-0.441600
O13	O	1.453854	-0.477361	-0.570590
O14	O	1.283496	-0.367627	-0.570618
O15	O	1.582947	-0.477379	-0.441549
O16	O	1.582783	-0.284480	-0.740993
O17	O	1.453761	-0.367615	-0.740953
C18	C	1.245383	-0.326063	-0.506107
C19	C	1.128606	-0.326075	-0.506124
C20	C	1.518409	-0.502615	-0.506060
C21	C	1.518434	-0.577847	-0.506032
C22	C	1.073764	-0.369287	-0.573412
C23	C	0.964040	-0.369295	-0.573425
C24	C	0.964010	-0.282873	-0.438860
C25	C	1.073732	-0.282869	-0.438842
C26	C	1.073780	-0.419180	-0.651105
C27	C	0.964056	-0.419188	-0.651118
C28	C	1.585654	-0.613202	-0.438837
C29	C	1.585665	-0.683890	-0.438807
C30	C	1.518460	-0.719223	-0.505977
C31	C	1.451233	-0.683863	-0.573175
C32	C	1.451217	-0.613176	-0.573199
C33	C	1.451292	-0.968937	-0.573077
C34	C	1.451315	-1.039629	-0.573049
C35	C	1.585740	-1.039651	-0.438684
C36	C	1.585724	-0.968964	-0.438709
C37	C	1.518493	-0.933610	-0.505902
C38	C	1.518481	-0.856962	-0.505933
C39	C	1.518477	-0.795870	-0.505952
C40	C	1.792383	-0.326082	-0.506147
C41	C	1.909160	-0.326086	-0.506155
C42	C	1.518288	-0.326058	-0.779094
C43	C	1.518357	-0.326075	-0.895870
C44	C	1.518352	-0.150217	-0.506116
C45	C	1.518530	-0.074985	-0.505849
C46	C	1.585614	-0.282835	-0.950719
C47	C	1.585678	-0.282856	-1.060443
C48	C	1.451221	-0.369359	-1.060460
C49	C	1.451163	-0.369341	-0.950738
C50	C	1.663238	-0.232891	-0.950709
C51	C	1.663303	-0.232912	-1.060433
C52	C	1.518441	-0.326101	-0.232093
C53	C	1.518480	-0.326114	-0.115316
H54	H	1.118381	-0.247686	-0.384043
H55	H	1.103584	-0.471626	-0.629417
H56	H	1.107796	-0.400314	-0.728353
Br57	Br	1.676983	-1.087634	-0.347490
H58	H	1.396584	-1.068395	-0.627750
Br59	Br	1.676946	-0.731870	-0.347659
Br60	Br	1.798809	-0.256352	-0.900939
Br61	Br	1.614672	-0.149870	-0.894099
Br62	Br	1.359980	-0.565194	-0.664389
Br63	Br	1.792130	-0.264293	-1.117029
H64	H	1.396564	-0.940160	-0.627805
H65	H	1.640453	-0.940200	-0.384015
Br66	Br	1.627086	-0.145531	-1.110197
Br67	Br	0.907372	-0.502241	-0.602726
H68	H	1.396510	-0.712637	-0.627862
Br69	Br	1.359903	-0.428039	-0.876303
H70	H	1.396514	-0.404585	-1.105147
H71	H	0.919318	-0.247696	-0.384081
H72	H	0.934261	-0.405058	-0.732465
H73	H	1.640384	-0.584439	-0.384143
