data_functionalizedCrystal
_audit_creation_method	'MofGen! by Chris Wilmer'
_symmetry_space_group_name_H-M	'P1'
_symmetry_Int_Tables_number	1
_symmetry_cell_setting	triclinic
loop_
_symmetry_equiv_pos_as_xyz
  x,y,z
_cell_length_a	10.489711
_cell_length_b	10.489741
_cell_length_c	9.565339
_cell_angle_alpha	89.992742
_cell_angle_beta	89.995507
_cell_angle_gamma	84.533091
loop_
_atom_site_label
_atom_site_type_symbol
_atom_site_fract_x
_atom_site_fract_y
_atom_site_fract_z
O1	O	1.694072	0.179793	-0.116310
O2	O	1.322872	0.196725	-0.116301
O3	O	1.516919	0.002660	-0.116297
O4	O	1.500026	0.373858	-0.116314
O5	O	1.516908	0.002643	0.116223
O6	O	1.322862	0.196708	0.116219
O7	O	1.694062	0.179776	0.116210
Zn8	Zn	1.508460	0.188239	0.153132
Zn9	Zn	1.508474	0.188262	-0.153223
O10	O	1.500015	0.373841	0.116206
C11	C	1.275334	0.195446	-0.000040
C12	C	1.133703	0.191644	-0.000037
C13	C	0.951317	0.308348	-0.000058
C14	C	1.043467	0.250061	-0.114698
C15	C	1.043430	0.250013	0.114549
C16	C	0.973516	0.126519	-0.114801
C17	C	0.973469	0.126487	0.114549
C18	C	1.065593	0.068111	-0.000119
C19	C	1.515638	-0.044880	-0.000038
C20	C	1.511820	-0.186509	-0.000041
C21	C	1.388354	-0.254636	-0.000048
C22	C	1.446673	-0.346773	0.114595
C23	C	1.446713	-0.346731	-0.114652
C24	C	1.570190	-0.276781	0.114697
C25	C	1.570213	-0.276729	-0.114652
C26	C	1.628622	-0.368839	0.000019
C27	C	1.741600	0.181055	-0.000054
C28	C	1.883231	0.184857	-0.000066
C29	C	1.501296	0.421381	-0.000056
C30	C	1.505114	0.563010	-0.000063
N31	N	1.508460	0.188223	0.362211
N32	N	1.508484	0.188268	-0.362303
C33	C	1.597498	0.097768	0.546549
C34	C	1.624332	0.212912	0.453305
C35	C	1.481683	0.073088	0.453386
C36	C	1.535376	0.303471	0.546505
C37	C	1.392676	0.163571	0.546595
C38	C	1.419462	0.278799	0.453393
H39	H	0.901626	0.409850	-0.000176
N40	N	1.082335	0.315629	-0.236288
N41	N	1.041167	0.429883	-0.256724
H42	H	1.068611	0.476198	-0.342594
H43	H	1.722257	0.233791	0.412328
N44	N	1.269867	0.137359	0.598064
N45	N	1.206198	0.217846	0.672791
H46	H	1.119461	0.199326	0.709141
N47	N	1.127673	-0.059323	-0.000167
N48	N	1.200335	-0.096352	0.098294
H49	H	1.244180	-0.186352	0.098259
H50	H	1.730226	-0.418274	0.000080
H51	H	1.394428	-0.377786	0.211520
N52	N	0.934509	0.060998	0.236140
N53	N	0.818809	0.046745	0.255011
H54	H	0.791287	0.000503	0.340896
H55	H	0.942712	0.074323	-0.211834
N56	N	1.635693	-0.237790	-0.236259
N57	N	1.593628	-0.259840	-0.355212
H58	H	1.639865	-0.232338	-0.441108
N59	N	1.082255	0.315591	0.236126
N60	N	1.041073	0.429845	0.256517
H61	H	1.068488	0.476170	0.342376
H62	H	1.459025	-0.024299	0.412481
N63	N	1.563975	0.425660	0.597596
N64	N	1.667924	0.467710	0.566697
H65	H	1.688128	0.554002	0.602784
H66	H	1.286841	-0.204974	0.000070
H67	H	1.622382	-0.245961	0.211728
N68	N	1.325027	0.374883	0.402365
N69	N	1.309120	0.389892	0.273694
H70	H	1.242430	0.457754	0.237650
H71	H	1.672836	0.021341	0.587450
N72	N	1.381142	-0.385580	-0.236225
N73	N	1.266876	-0.344436	-0.256615
H74	H	1.220556	-0.371870	-0.342469
