data_functionalizedCrystal
_audit_creation_method	'MofGen! by Chris Wilmer'
_symmetry_space_group_name_H-M	'P1'
_symmetry_Int_Tables_number	1
_symmetry_cell_setting	triclinic
loop_
_symmetry_equiv_pos_as_xyz
  x,y,z
_cell_length_a	16.109302
_cell_length_b	16.109301
_cell_length_c	9.130313
_cell_angle_alpha	89.995471
_cell_angle_beta	89.994534
_cell_angle_gamma	83.461682
loop_
_atom_site_label
_atom_site_type_symbol
_atom_site_fract_x
_atom_site_fract_y
_atom_site_fract_z
O1	O	1.103130	0.106870	-0.121865
O2	O	1.603130	0.606870	0.378135
O3	O	0.861069	0.120169	-0.121854
O4	O	1.361069	0.620169	0.378146
O5	O	0.988749	-0.007512	-0.121850
O6	O	1.488749	0.492488	0.378150
O7	O	0.975450	0.234550	-0.121869
O8	O	1.475450	0.734550	0.378131
O9	O	0.988740	-0.007515	0.121749
O10	O	1.488740	0.492485	0.621749
O11	O	0.861060	0.120165	0.121745
O12	O	1.361060	0.620165	0.621745
O13	O	1.103122	0.106866	0.121734
O14	O	1.603122	0.606866	0.621734
Cu15	Cu	0.982090	0.113515	0.143982
Cu16	Cu	1.482090	0.613515	0.643982
Cu17	Cu	0.982100	0.113520	-0.144102
Cu18	Cu	1.482100	0.613520	0.355898
O19	O	0.975441	0.234547	0.121730
O20	O	1.475441	0.734547	0.621730
C21	C	0.830089	0.119628	-0.000053
C22	C	1.330089	0.619628	0.499947
C23	C	0.737794	0.118013	-0.000048
C24	C	1.237794	0.618013	0.499952
C25	C	0.525448	0.114275	0.132723
C26	C	1.025448	0.614275	0.632723
C27	C	0.438728	0.112749	0.132718
C28	C	0.938728	0.612749	0.632718
C29	C	0.438748	0.112757	-0.132866
C30	C	0.938748	0.612757	0.367134
C31	C	0.525468	0.114278	-0.132860
C32	C	1.025468	0.614278	0.367140
C33	C	0.568815	0.115041	-0.000061
C34	C	1.068815	0.615041	0.499939
C35	C	0.395375	0.111994	-0.000072
C36	C	0.895375	0.611994	0.499928
C37	C	0.301350	0.110338	-0.000079
C38	C	0.801350	0.610338	0.499921
C39	C	0.662847	0.116695	-0.000054
C40	C	1.162847	0.616695	0.499946
C41	C	0.988206	-0.038488	-0.000051
C42	C	1.488206	0.461512	0.499949
C43	C	0.986591	-0.130784	-0.000053
C44	C	1.486591	0.369216	0.499947
C45	C	1.057074	-0.439782	-0.000082
C46	C	1.557074	0.060218	0.499918
C47	C	1.058599	-0.353062	-0.000073
C48	C	1.558599	0.146938	0.499927
C49	C	0.907111	-0.333189	-0.000047
C50	C	1.407111	0.166811	0.499953
C51	C	0.905586	-0.419907	-0.000045
C52	C	1.405586	0.080093	0.499955
C53	C	0.980570	-0.473202	-0.000070
C54	C	1.480570	0.026798	0.499930
C55	C	0.983620	-0.299763	-0.000063
C56	C	1.483620	0.200237	0.499937
C57	C	0.985273	-0.205737	-0.000054
C58	C	1.485273	0.294263	0.499946
C59	C	0.978917	-0.567234	-0.000076
C60	C	1.478917	-0.067234	0.499924
C61	C	1.134101	0.107407	-0.000070
C62	C	1.634101	0.607407	0.499930
C63	C	1.226396	0.109022	-0.000085
C64	C	1.726396	0.609022	0.499915
C65	C	0.975984	0.265523	-0.000072
C66	C	1.475984	0.765523	0.499928
C67	C	0.977600	0.357819	-0.000080
C68	C	1.477600	0.857819	0.499920
N69	N	0.982089	0.113512	0.346605
N70	N	1.482089	0.613512	0.846605
N71	N	0.982108	0.113517	-0.346725
N72	N	1.482108	0.613517	0.153275
C73	C	1.038645	0.056998	0.423258
C74	C	1.538645	0.556998	0.923258
C75	C	1.038653	0.056999	0.576595
C76	C	1.538653	0.556999	1.076595
C77	C	0.925546	0.170032	0.576611
C78	C	1.425546	0.670032	1.076611
C79	C	0.925535	0.170028	0.423277
C80	C	1.425535	0.670028	0.923277
H81	H	0.403444	0.112136	-0.240987
H82	H	0.903444	0.612136	0.259013
Cl83	Cl	0.579990	0.115234	-0.299803
Cl84	Cl	1.079990	0.615234	0.200197
H85	H	1.118131	-0.483172	-0.000102
H86	H	1.618131	0.016828	0.499898
Cl87	Cl	0.854427	0.241074	0.326903
Cl88	Cl	1.354427	0.741074	0.826903
Cl89	Cl	1.154780	-0.311052	-0.000094
Cl90	Cl	1.654780	0.188948	0.499906
Cl91	Cl	0.812850	-0.266185	-0.000028
Cl92	Cl	1.312850	0.233815	0.499972
H93	H	0.560739	0.114897	0.240857
H94	H	1.060739	0.614897	0.740857
Cl95	Cl	1.109752	-0.014051	0.672955
Cl96	Cl	1.609752	0.485949	1.172955
H97	H	0.403423	0.112125	0.240845
H98	H	0.903423	0.612125	0.740845
H99	H	0.843284	-0.447118	-0.000028
H100	H	1.343284	0.052882	0.499972
H101	H	0.879502	0.216048	0.639053
H102	H	1.379502	0.716048	1.139053
H103	H	1.084693	0.010979	0.360835
H104	H	1.584693	0.510979	0.860835
