data_functionalizedCrystal
_audit_creation_method	'MofGen! by Chris Wilmer'
_symmetry_space_group_name_H-M	'P1'
_symmetry_Int_Tables_number	1
_symmetry_cell_setting	triclinic
loop_
_symmetry_equiv_pos_as_xyz
  x,y,z
_cell_length_a	17.699077
_cell_length_b	17.699083
_cell_length_c	16.776229
_cell_angle_alpha	89.996964
_cell_angle_beta	90.005198
_cell_angle_gamma	83.281795
loop_
_atom_site_label
_atom_site_type_symbol
_atom_site_fract_x
_atom_site_fract_y
_atom_site_fract_z
O1	O	1.004080	0.095688	0.066266
O2	O	0.783701	0.108145	0.066269
O3	O	0.900117	-0.008273	0.066275
O4	O	0.887664	0.212106	0.066260
O5	O	0.900104	-0.008273	-0.066301
O6	O	0.783688	0.108145	-0.066308
O7	O	1.004067	0.095688	-0.066310
Zn8	Zn	0.893875	0.101916	-0.087358
Zn9	Zn	0.893893	0.101917	0.087317
O10	O	0.887651	0.212106	-0.066317
C11	C	0.755498	0.107700	-0.000019
C12	C	0.671479	0.106363	-0.000018
C13	C	0.632005	0.105733	-0.072286
C14	C	0.553062	0.104464	-0.072287
C15	C	0.513595	0.103832	-0.000018
C16	C	0.553075	0.104460	0.072256
C17	C	0.632017	0.105722	0.072256
C18	C	0.234712	0.099366	0.072258
C19	C	0.155764	0.098106	0.072252
C20	C	0.155757	0.098108	-0.072285
C21	C	0.234699	0.099371	-0.072285
C22	C	0.274173	0.099995	-0.000011
C23	C	0.359771	0.101369	-0.000011
C24	C	0.427997	0.102464	-0.000017
C25	C	0.899664	-0.036470	-0.000009
C26	C	0.898326	-0.120488	0.000002
C27	C	1.032271	0.096133	-0.000021
C28	C	1.116289	0.097470	-0.000017
N29	N	0.893869	0.101916	-0.206570
C30	C	0.888104	0.240303	-0.000030
C31	C	0.889443	0.324321	-0.000036
C32	C	0.821109	0.372943	-0.000036
C33	C	0.822371	0.451887	-0.000026
C34	C	0.891968	0.482206	-0.000023
C35	C	0.960307	0.433577	-0.000022
C36	C	0.959044	0.354636	-0.000025
C37	C	0.965402	0.751940	-0.000006
C38	C	0.966660	0.830888	-0.000005
C39	C	0.828730	0.849191	-0.000007
C40	C	0.827467	0.770250	-0.000010
C41	C	0.895805	0.721628	-0.000005
C42	C	0.894436	0.636029	-0.000013
C43	C	0.893338	0.567804	-0.000020
C44	C	0.939684	0.147763	-0.248287
C45	C	0.939693	0.147760	-0.331739
C46	C	0.893881	0.101913	-0.373473
C47	C	0.848064	0.056060	-0.331749
C48	C	0.848061	0.056060	-0.248298
C49	C	0.848080	0.056061	-0.668296
C50	C	0.848085	0.056067	-0.751753
C51	C	0.939712	0.147762	-0.751737
C52	C	0.939708	0.147761	-0.668287
C53	C	0.893894	0.101906	-0.626570
C54	C	0.893887	0.101908	-0.536082
C55	C	0.893884	0.101914	-0.463959
N56	N	0.893905	0.101911	0.206528
H57	H	0.520935	0.103939	0.131098
H58	H	1.021048	0.712361	-0.000006
O59	O	0.984280	0.192317	-0.627872
C60	C	1.024707	0.232797	-0.682589
H61	H	1.029186	0.201461	-0.742074
H62	H	1.084211	0.237414	-0.658467
H63	H	0.993419	0.292248	-0.691469
O64	O	0.803582	0.011593	-0.372407
C65	C	0.813378	0.021449	-0.455010
H66	H	0.834819	0.078763	-0.466394
H67	H	0.756646	0.019607	-0.486707
H68	H	0.856590	-0.026054	-0.478724
H69	H	0.810753	0.018726	-0.214333
O70	O	0.984256	0.192321	-0.207875
C71	C	1.024681	0.232800	-0.262595
H72	H	1.029159	0.201461	-0.322079
H73	H	1.084184	0.237419	-0.238476
H74	H	0.993390	0.292250	-0.271479
O75	O	0.117546	0.097455	0.142529
C76	C	0.169311	0.098295	0.206320
H77	H	0.228762	0.075241	0.185139
H78	H	0.151377	0.061196	0.256863
H79	H	0.169654	0.159123	0.228544
H80	H	0.123608	0.097597	-0.131133
H81	H	0.664156	0.106237	0.131104
O82	O	0.273116	0.100083	0.142412
C83	C	0.310067	0.166346	0.146746
H84	H	0.318998	0.188378	0.083998
H85	H	0.367533	0.152497	0.177343
H86	H	0.273552	0.211744	0.182400
O87	O	1.034289	0.860305	0.000147
C88	C	1.075945	0.835430	0.068804
H89	H	1.035245	0.819078	0.116790
H90	H	1.108053	0.883195	0.091857
H91	H	1.118219	0.783904	0.053285
O92	O	1.027848	0.463153	-0.000054
C93	C	1.014312	0.543255	-0.000033
H94	H	0.955211	0.561907	-0.025132
H95	H	1.058833	0.567414	-0.038523
H96	H	1.017945	0.565219	0.063571
H97	H	0.764435	0.348264	-0.000047
O98	O	0.755922	0.499010	-0.000067
C99	C	0.694224	0.455322	-0.000058
H100	H	0.713544	0.396368	-0.025158
H101	H	0.646355	0.484536	-0.038553
H102	H	0.672883	0.449734	0.063542
H103	H	0.770794	0.745568	-0.000017
O104	O	0.762413	0.896532	0.000032
C105	C	0.778446	0.972710	0.000019
H106	H	0.837890	0.975625	0.025122
H107	H	0.734880	1.008552	0.038510
H108	H	0.775530	0.995555	-0.063583
O109	O	0.670355	0.106482	-0.142468
C110	C	0.707337	0.172726	-0.146794
H111	H	0.677473	0.218145	-0.105787
H112	H	0.705307	0.194732	-0.210715
H113	H	0.769134	0.158869	-0.127378
O114	O	0.514829	0.103892	-0.142559
C115	C	0.566593	0.104709	-0.206344
H116	H	0.619687	0.129561	-0.185155
H117	H	0.538904	0.141079	-0.256889
H118	H	0.583045	0.044149	-0.228567
H119	H	1.014688	0.315047	-0.000023
O120	O	0.984203	0.192231	-0.792385
C121	C	0.974376	0.182416	-0.874990
H122	H	0.952913	0.125116	-0.886391
H123	H	1.031100	0.184253	-0.906693
H124	H	0.931170	0.229941	-0.898682
H125	H	0.977001	0.185093	-0.365702
H126	H	0.810779	0.018730	-0.785730
H127	H	0.266829	0.099890	-0.131133
H128	H	0.810776	0.018723	-0.634341
