data_functionalizedCrystal
_audit_creation_method	'MofGen! by Chris Wilmer'
_symmetry_space_group_name_H-M	'P1'
_symmetry_Int_Tables_number	1
_symmetry_cell_setting	triclinic
loop_
_symmetry_equiv_pos_as_xyz
  x,y,z
_cell_length_a	25.639242
_cell_length_b	25.639239
_cell_length_c	21.395355
_cell_angle_alpha	90.019334
_cell_angle_beta	90.033313
_cell_angle_gamma	90.034213
loop_
_atom_site_label
_atom_site_type_symbol
_atom_site_fract_x
_atom_site_fract_y
_atom_site_fract_z
Zn1	Zn	0.799283	-0.208274	0.354404
Zn2	Zn	1.299283	0.291726	0.854404
Zn3	Zn	0.799189	-0.295693	0.249625
Zn4	Zn	1.299189	0.204307	0.749625
Zn5	Zn	0.711842	-0.208267	0.249625
Zn6	Zn	1.211842	0.291733	0.749625
Zn7	Zn	0.711804	-0.295673	0.354349
Zn8	Zn	1.211804	0.204327	0.854349
O9	O	0.755529	-0.251977	0.302001
O10	O	1.255529	0.248023	0.802001
O11	O	0.872435	-0.219881	0.340528
O12	O	1.372435	0.280119	0.840528
O13	O	0.787579	-0.284102	0.161947
O14	O	1.287579	0.215898	0.661947
O15	O	0.723496	-0.135103	0.263547
O16	O	1.223496	0.364897	0.763547
O17	O	0.872367	-0.284108	0.263547
O18	O	1.372367	0.215892	0.763547
O19	O	0.787738	-0.135108	0.340528
O20	O	1.287738	0.364892	0.840528
O21	O	0.723405	-0.219870	0.161947
O22	O	1.223405	0.280130	0.661947
O23	O	0.638672	-0.219850	0.263494
O24	O	1.138672	0.280150	0.763494
O25	O	0.723432	-0.284074	0.442035
O26	O	1.223432	0.215926	0.942035
O27	O	0.638644	-0.284067	0.340434
O28	O	1.138644	0.215933	0.840434
O29	O	0.787702	-0.219862	0.442075
O30	O	1.287702	0.280138	0.942075
O31	O	0.787542	-0.368856	0.263494
O32	O	1.287542	0.131144	0.763494
O33	O	0.723341	-0.368841	0.340435
O34	O	1.223341	0.131159	0.840435
C35	C	0.619687	-0.251956	0.301959
C36	C	1.119687	0.248044	0.801959
C37	C	0.561573	-0.251960	0.301955
C38	C	1.061573	0.248040	0.801955
C39	C	0.201204	-0.285470	0.342026
C40	C	0.701204	0.214530	0.842026
C41	C	0.146600	-0.285474	0.342036
C42	C	0.646600	0.214526	0.842036
O43	O	0.118358	-0.313940	0.376070
O44	O	0.618358	0.186060	0.876070
N45	N	0.119290	-0.251991	0.302042
N46	N	0.619290	0.248009	0.802042
C47	C	0.146588	-0.218500	0.262040
C48	C	0.646588	0.281500	0.762040
O49	O	0.118345	-0.190020	0.228023
O50	O	0.618345	0.309980	0.728023
C51	C	0.201191	-0.218494	0.262034
C52	C	0.701191	0.281506	0.762034
C53	C	0.228498	-0.251983	0.302026
C54	C	0.728498	0.248017	0.802026
C55	C	0.228511	-0.318956	0.382015
C56	C	0.728511	0.181044	0.882015
C57	C	0.283111	-0.318953	0.382004
C58	C	0.783111	0.181047	0.882004
C59	C	0.310405	-0.285465	0.342004
C60	C	0.810405	0.214535	0.842004
C61	C	0.283098	-0.251980	0.302015
C62	C	0.783098	0.248020	0.802015
C63	C	0.228488	-0.185000	0.222035
C64	C	0.728488	0.315000	0.722035
C65	C	0.283095	-0.184998	0.222033
C66	C	0.783095	0.315002	0.722033
C67	C	0.310402	-0.218486	0.262025
C68	C	0.810402	0.281514	0.762025
C69	C	0.364993	-0.218489	0.262004
C70	C	0.864993	0.281511	0.762004
N71	N	0.392302	-0.251972	0.301998
N72	N	0.892302	0.248028	0.801998
C73	C	0.365008	-0.285460	0.341998
C74	C	0.865008	0.214540	0.841998
C75	C	0.031917	-0.218513	0.262057
C76	C	0.531917	0.281487	0.762057
C77	C	-0.022685	-0.218521	0.262059
C78	C	0.477315	0.281479	0.762059
C79	C	-0.022669	-0.285494	0.342056
C80	C	0.477331	0.214506	0.842056
C81	C	0.031934	-0.285489	0.342050
C82	C	0.531934	0.214511	0.842050
C83	C	0.059227	-0.251995	0.302051
C84	C	0.559227	0.248005	0.802051
C85	C	0.479674	-0.285452	0.341972
C86	C	0.979674	0.214548	0.841972
C87	C	0.534279	-0.285448	0.341955
C88	C	1.034279	0.214552	0.841955
C89	C	0.534259	-0.218473	0.261961
C90	C	1.034259	0.281527	0.761961
C91	C	0.479658	-0.218479	0.261975
C92	C	0.979658	0.281521	0.761975
C93	C	0.452367	-0.251970	0.301985
C94	C	0.952367	0.248030	0.801985
O95	O	0.393269	-0.190036	0.227989
O96	O	0.893269	0.309964	0.727989
O97	O	0.393258	-0.313930	0.376015
O98	O	0.893258	0.186070	0.876015
C99	C	0.755441	-0.387819	0.301972
C100	C	1.255441	0.112181	0.801972
C101	C	0.755452	-0.445933	0.301981
C102	C	1.255452	0.054067	0.801981
C103	C	0.789046	-0.806292	0.262006
C104	C	1.289046	-0.306292	0.762006
C105	C	0.789067	-0.860896	0.262015
C106	C	1.289067	-0.360896	0.762015
O107	O	0.817539	-0.889129	0.227996
O108	O	1.317539	-0.389129	0.727996
N109	N	0.755621	-0.888216	0.302043
N110	N	1.255621	-0.388216	0.802043
C111	C	0.722157	-0.860929	0.342069
C112	C	1.222157	-0.360929	0.842069
O113	O	0.693712	-0.889180	0.376117
O114	O	1.193712	-0.389180	0.876117
C115	C	0.722140	-0.806325	0.342063
C116	C	1.222140	-0.306325	0.842063
C117	C	0.755584	-0.779008	0.302028
C118	C	1.255584	-0.279008	0.802028
C119	C	0.822488	-0.778975	0.221975
C120	C	1.322488	-0.278975	0.721975
C121	C	0.822467	-0.724374	0.221966
C122	C	1.322467	-0.224374	0.721966
C123	C	0.789004	-0.697091	0.261988
C124	C	1.289004	-0.197091	0.761988
C125	C	0.755563	-0.724408	0.302019
C126	C	1.255563	-0.224408	0.802019
C127	C	0.688679	-0.779039	0.382092
C128	C	1.188679	-0.279039	0.882092
C129	C	0.688665	-0.724432	0.382084
C130	C	1.188665	-0.224432	0.882084
C131	C	0.722109	-0.697115	0.342049
C132	C	1.222109	-0.197115	0.842049
C133	C	0.722079	-0.642524	0.342032
C134	C	1.222079	-0.142524	0.842032
N135	N	0.755524	-0.615204	0.302005
N136	N	1.255524	-0.115204	0.802005
C137	C	0.788987	-0.642487	0.261983
C138	C	1.288987	-0.142487	0.761983
C139	C	0.722197	-0.975599	0.342079
C140	C	1.222197	-0.475599	0.842079
C141	C	0.722211	-1.030202	0.342082
C142	C	1.222211	-0.530202	0.842082
C143	C	0.789121	-1.030165	0.262028
C144	C	1.289121	-0.530165	0.762028
C145	C	0.789104	-0.975562	0.262022
C146	C	1.289104	-0.475562	0.762022
C147	C	0.755642	-0.948279	0.302051
C148	C	1.255642	-0.448279	0.802051
C149	C	0.788940	-0.527822	0.261966
C150	C	1.288940	-0.027822	0.761966
C151	C	0.788914	-0.473217	0.261959
C152	C	1.288914	0.026783	0.761959
C153	C	0.722006	-0.473258	0.342014
C154	C	1.222006	0.026742	0.842014
C155	C	0.722030	-0.527859	0.342020
C156	C	1.222030	-0.027859	0.842020
C157	C	0.755501	-0.555139	0.301994
C158	C	1.255501	-0.055139	0.801994
O159	O	0.693623	-0.614256	0.376036
O160	O	1.193623	-0.114256	0.876036
O161	O	0.817433	-0.614229	0.227946
O162	O	1.317433	-0.114229	0.727946
C163	C	0.891902	-0.251998	0.302044
C164	C	1.391902	0.248002	0.802044
C165	C	0.950016	-0.252007	0.302062
C166	C	1.450016	0.247993	0.802062
C167	C	0.755573	-0.251966	0.465424
C168	C	1.255573	0.248034	0.965424
C169	C	0.755591	-0.251962	0.535066
C170	C	1.255591	0.248038	1.035066
C171	C	0.755632	-0.115604	0.302044
C172	C	1.255632	0.384396	0.802044
C173	C	0.755676	-0.057490	0.302062
C174	C	1.255676	0.442510	0.802062
C175	C	0.755516	-0.251950	0.139213
C176	C	1.255516	0.248050	0.639213
C177	C	0.755599	-0.251807	0.069573
C178	C	1.255599	0.248193	0.569573
C179	C	0.789055	-0.218525	0.567801
C180	C	1.289055	0.281475	1.067801
C181	C	0.789055	-0.218503	0.633236
C182	C	1.289055	0.281497	1.133236
C183	C	0.755595	-0.251926	0.665934
C184	C	1.255595	0.248074	1.165934
C185	C	0.722125	-0.285365	0.633191
C186	C	1.222125	0.214635	1.133191
C187	C	0.722123	-0.285383	0.567757
C188	C	1.222123	0.214617	1.067757
C189	C	0.751437	-0.299003	0.769598
C190	C	1.251437	0.200997	1.269598
C191	C	0.751442	-0.298986	0.835031
C192	C	1.251442	0.201014	1.335031
C193	C	0.755599	-0.251871	0.867755
C194	C	1.255599	0.248129	1.367755
C195	C	0.759760	-0.204771	0.835038
C196	C	1.259760	0.295229	1.335038
C197	C	0.759758	-0.204789	0.769604
C198	C	1.259758	0.295211	1.269604
C199	C	0.755594	-0.251910	0.736886
C200	C	1.255594	0.248090	1.236886
C201	C	0.789064	-0.218407	0.971443
C202	C	1.289064	0.281593	1.471443
C203	C	0.789059	-0.218384	1.036879
C204	C	1.289059	0.281616	1.536879
C205	C	0.722132	-0.285251	1.036833
C206	C	1.222132	0.214749	1.536833
C207	C	0.722134	-0.285269	0.971397
C208	C	1.222134	0.214731	1.471397
C209	C	0.755602	-0.251848	0.938706
C210	C	1.255602	0.248152	1.438706
H211	H	0.054136	-0.191239	0.229480
H212	H	0.554136	0.308761	0.729480
C213	C	0.825928	-1.060184	0.218002
C214	C	1.325928	-0.560184	0.718002
H215	H	0.821148	-1.096615	0.223746
H216	H	1.321148	-0.596615	0.723746
H217	H	0.818290	-1.051259	0.175894
H218	H	1.318290	-0.551259	0.675894
H219	H	0.861054	-1.051203	0.227217
H220	H	1.361054	-0.551203	0.727217
C221	C	0.313142	-0.355784	0.426004
C222	C	0.813142	0.144216	0.926004
H223	H	0.289060	-0.375722	0.449830
H224	H	0.789060	0.124278	0.949830
H225	H	0.334419	-0.378538	0.401993
H226	H	0.834419	0.121462	0.901993
H227	H	0.334466	-0.335811	0.453348
H228	H	0.834466	0.164189	0.953348
C229	C	0.764332	-0.152940	0.871022
C230	C	1.264332	0.347060	1.371022
H231	H	0.766814	-0.124894	0.842166
H232	H	1.266814	0.375106	1.342166
H233	H	0.734371	-0.148331	0.896527
H234	H	1.234371	0.351669	1.396527
H235	H	0.794642	-0.153617	0.896568
H236	H	1.294642	0.346383	1.396568
C237	C	0.685320	-0.322131	0.669153
C238	C	1.185320	0.177869	1.169153
H239	H	0.665386	-0.342046	0.640283
H240	H	1.165386	0.157954	1.140283
H241	H	0.705303	-0.344909	0.694691
H242	H	1.205303	0.155091	1.194691
H243	H	0.662554	-0.302117	0.694664
H244	H	1.162554	0.197883	1.194664
C245	C	0.685380	-0.945593	0.386105
C246	C	1.185380	-0.445593	0.886105
H247	H	0.665463	-0.969688	0.409938
H248	H	1.165463	-0.469688	0.909938
H249	H	0.705357	-0.924263	0.413432
H250	H	1.205357	-0.424263	0.913432
H251	H	0.662599	-0.924324	0.362102
H252	H	1.162599	-0.424324	0.862102
H253	H	0.816307	-0.191310	0.541188
H254	H	1.316307	0.308690	1.041188
C255	C	0.825870	-0.181725	0.669252
C256	C	1.325870	0.318275	1.169252
H257	H	0.845805	-0.161826	0.640411
H258	H	1.345805	0.338174	1.140411
H259	H	0.805893	-0.158933	0.694769
H260	H	1.305893	0.341067	1.194769
H261	H	0.848636	-0.201732	0.694789
H262	H	1.348636	0.298268	1.194789
H263	H	0.694760	-0.451035	0.374598
H264	H	1.194760	0.048965	0.874598
C265	C	0.313117	-0.148156	0.178033
C266	C	0.813117	0.351844	0.678033
H267	H	0.349548	-0.152944	0.183755
H268	H	0.849548	0.347056	0.683755
H269	H	0.304137	-0.155753	0.135920
H270	H	0.804137	0.344247	0.635920
H271	H	0.304191	-0.113037	0.187288
H272	H	0.804191	0.386963	0.687288
H273	H	0.661417	-0.702221	0.414682
H274	H	1.161417	-0.202221	0.914682
C275	C	0.685329	-0.322054	0.935384
C276	C	1.185329	0.177946	1.435384
H277	H	0.690117	-0.317275	0.891731
H278	H	1.190117	0.182725	1.391731
H279	H	0.692953	-0.357181	0.946112
H280	H	1.192953	0.142819	1.446112
H281	H	0.650203	-0.314390	0.946085
H282	H	1.150203	0.185610	1.446085
C283	C	0.746871	-0.350792	0.871017
C284	C	1.246871	0.149208	1.371017
H285	H	0.747476	-0.344035	0.914673
H286	H	1.247476	0.155965	1.414673
H287	H	0.715029	-0.367509	0.860276
H288	H	1.215029	0.132491	1.360276
H289	H	0.775300	-0.372791	0.860307
H290	H	1.275300	0.127209	1.360307
C291	C	0.746864	-0.350832	0.733605
C292	C	1.246864	0.149168	1.233605
H293	H	0.747454	-0.344097	0.689949
H294	H	1.247454	0.155903	1.189949
H295	H	0.775290	-0.372826	0.744347
H296	H	1.275290	0.127174	1.244347
H297	H	0.715019	-0.367542	0.744308
H298	H	1.215019	0.132458	1.244308
H299	H	0.457424	-0.191211	0.229409
H300	H	0.957424	0.308789	0.729409
C301	C	0.859261	-0.694332	0.177935
C302	C	1.359261	-0.194332	0.677935
H303	H	0.879195	-0.718408	0.154109
H304	H	1.379195	-0.218408	0.654109
H305	H	0.839273	-0.673058	0.150602
H306	H	1.339273	-0.173058	0.650602
H307	H	0.882028	-0.673004	0.201935
H308	H	1.382028	-0.173004	0.701935
C309	C	0.825896	-0.945518	0.217990
C310	C	1.325896	-0.445518	0.717990
H311	H	0.845827	-0.969592	0.194160
H312	H	1.345827	-0.469592	0.694160
H313	H	0.805904	-0.924243	0.190661
H314	H	1.305904	-0.424243	0.690661
H315	H	0.848664	-0.924191	0.241988
H316	H	1.348664	-0.424191	0.741988
C317	C	0.764329	-0.152985	0.733614
C318	C	1.264329	0.347015	1.233614
H319	H	0.763736	-0.159746	0.689958
H320	H	1.263736	0.340254	1.189958
H321	H	0.735904	-0.130985	0.744318
H322	H	1.235904	0.369015	1.244318
H323	H	0.796175	-0.136268	0.744355
H324	H	1.296175	0.363732	1.244355
H325	H	0.694870	-0.312610	0.541104
H326	H	1.194870	0.187390	1.041104
H327	H	0.816313	-0.191191	0.944824
H328	H	1.316313	0.308809	1.444824
C329	C	0.685242	-0.557909	0.386056
C330	C	1.185242	-0.057909	0.886056
H331	H	0.665312	-0.533837	0.409892
H332	H	1.165312	-0.033837	0.909892
H333	H	0.662479	-0.579246	0.362068
H334	H	1.162479	-0.079246	0.862068
H335	H	0.705246	-0.579174	0.413388
H336	H	1.205246	-0.079174	0.913388
H337	H	0.816309	-0.191153	1.063531
H338	H	1.316309	0.308847	1.563531
C339	C	0.198462	-0.148158	0.178048
C340	C	0.698462	0.351842	0.678048
H341	H	0.222545	-0.128212	0.154235
H342	H	0.722545	0.371788	0.654235
H343	H	0.177133	-0.168118	0.150702
H344	H	0.677133	0.331882	0.650702
H345	H	0.177191	-0.125406	0.202075
H346	H	0.677191	0.374594	0.702075
H347	H	0.206294	-0.346226	0.414592
H348	H	0.706294	0.153774	0.914592
C349	C	0.685421	-1.060247	0.386115
C350	C	1.185421	-0.560247	0.886115
H351	H	0.690219	-1.096675	0.380389
H352	H	1.190219	-0.596675	0.880389
H353	H	0.693052	-1.051271	0.428219
H354	H	1.193052	-0.551271	0.928219
H355	H	0.650290	-1.051334	0.376893
H356	H	1.150290	-0.551334	0.876893
C357	C	0.564313	-0.322284	0.385951
C358	C	1.064313	0.177716	0.885951
H359	H	0.540235	-0.342223	0.409779
H360	H	1.040235	0.157777	0.909779
H361	H	0.585588	-0.345036	0.361934
H362	H	1.085588	0.154964	0.861934
H363	H	0.585640	-0.302312	0.413293
H364	H	1.085640	0.197688	0.913293
C365	C	0.651894	-0.809076	0.426136
C366	C	1.151894	-0.309076	0.926136
H367	H	0.631971	-0.784999	0.449973
H368	H	1.131971	-0.284999	0.949973
H369	H	0.629125	-0.830409	0.402152
H370	H	1.129125	-0.330409	0.902152
H371	H	0.671896	-0.830344	0.453468
H372	H	1.171896	-0.330344	0.953468
C373	C	0.825697	-0.443169	0.217913
C374	C	1.325697	0.056831	0.717913
H375	H	0.820889	-0.406741	0.223631
H376	H	1.320889	0.093259	0.723631
H377	H	0.860828	-0.452077	0.227121
H378	H	1.360828	0.047923	0.727121
H379	H	0.818055	-0.452147	0.175808
H380	H	1.318055	0.047853	0.675808
C381	C	0.061966	-0.322321	0.386046
C382	C	0.561966	0.177679	0.886046
H383	H	0.037886	-0.342262	0.409870
H384	H	0.537886	0.157738	0.909870
H385	H	0.083244	-0.345072	0.362031
H386	H	0.583244	0.154928	0.862031
H387	H	0.083289	-0.302349	0.413392
H388	H	0.583289	0.197651	0.913392
C389	C	0.685331	-0.322019	1.072792
C390	C	1.185331	0.177981	1.572792
H391	H	0.690127	-0.317223	1.116452
H392	H	1.190127	0.182777	1.616452
H393	H	0.650206	-0.314370	1.062047
H394	H	1.150206	0.185630	1.562047
H395	H	0.692964	-0.357154	1.062072
H396	H	1.192964	0.142846	1.562072
H397	H	0.556491	-0.191209	0.229392
H398	H	1.056491	0.308791	0.729392
H399	H	0.849740	-0.801183	0.189384
H400	H	1.349740	-0.301183	0.689384
C401	C	0.825753	-0.557823	0.217934
C402	C	1.325753	-0.057823	0.717934
H403	H	0.845660	-0.533728	0.194090
H404	H	1.345660	-0.033728	0.694090
H405	H	0.848536	-0.579095	0.241926
H406	H	1.348536	-0.079095	0.741926
H407	H	0.805768	-0.579151	0.190608
H408	H	1.305768	-0.079151	0.690608
H409	H	0.457460	-0.312723	0.374553
H410	H	0.957460	0.187277	0.874553
H411	H	-0.044902	-0.312760	0.374629
H412	H	0.455098	0.187240	0.874629
H413	H	-0.044913	-0.191256	0.229487
H414	H	0.455087	0.308744	0.729487
