data_functionalizedCrystal
_audit_creation_method	'MofGen! by Chris Wilmer'
_symmetry_space_group_name_H-M	'P1'
_symmetry_Int_Tables_number	1
_symmetry_cell_setting	triclinic
loop_
_symmetry_equiv_pos_as_xyz
  x,y,z
_cell_length_a	6.817900
_cell_length_b	17.982959
_cell_length_c	16.015572
_cell_angle_alpha	78.160019
_cell_angle_beta	104.485554
_cell_angle_gamma	102.451857
loop_
_atom_site_label
_atom_site_type_symbol
_atom_site_fract_x
_atom_site_fract_y
_atom_site_fract_z
V1	V	-3.990110	-0.030701	-0.269498
O2	O	-3.983612	0.078252	-0.263997
O3	O	-3.936788	-0.134716	-0.268012
O4	O	-3.928046	0.003460	-0.386873
O5	O	-3.992415	-0.060880	-0.144313
V6	V	-4.476146	-0.021650	-0.254482
O7	O	-4.245855	-0.050556	-0.302438
O8	O	-4.670598	-0.001794	-0.221542
O9	O	-4.306261	0.082365	-0.255968
O10	O	-4.600040	-0.130603	-0.259983
O11	O	-4.591237	0.008529	-0.379667
O12	O	-4.315003	-0.055810	-0.137107
C13	C	-3.781034	-0.161125	-0.263852
C14	C	-3.818633	-0.245942	-0.263419
C15	C	-4.017712	-0.288472	-0.267535
C16	C	-4.053030	-0.368165	-0.267133
C17	C	-3.889265	-0.405328	-0.262610
C18	C	-3.690172	-0.362791	-0.258496
C19	C	-3.654858	-0.283099	-0.258904
C20	C	-3.832583	-0.684183	-0.256852
C21	C	-3.867912	-0.763882	-0.256442
C22	C	-4.230755	-0.769250	-0.265081
C23	C	-4.195442	-0.689557	-0.265489
C24	C	-3.996354	-0.647027	-0.261380
C25	C	-3.958061	-0.560614	-0.261817
C26	C	-3.927554	-0.491740	-0.262166
C27	C	-3.769881	0.015132	-0.415470
C28	C	-3.800388	0.042374	-0.511427
C29	C	-4.077582	-0.199424	-0.889887
C30	C	-4.106253	-0.173801	-0.980049
C31	C	-4.035538	-0.041239	-0.954889
C32	C	-4.006849	-0.066850	-0.864723
C33	C	-4.027878	-0.145944	-0.832230
C34	C	-3.957145	-0.013370	-0.807065
C35	C	-3.928470	-0.038980	-0.716907
C36	C	-3.949500	-0.118070	-0.684407
C37	C	-3.999203	-0.171553	-0.742072
C38	C	-3.936132	0.065723	-0.839560
C39	C	-3.886428	0.119203	-0.781902
C40	C	-3.857738	0.093593	-0.691742
C41	C	-3.878767	0.014503	-0.659242
C42	C	-3.808035	0.147077	-0.634077
C43	C	-3.779360	0.121467	-0.543920
C44	C	-3.850093	-0.011106	-0.569085
C45	C	-4.125357	0.108770	-0.260125
C46	C	-4.066996	0.193587	-0.260564
C47	C	-4.136511	-0.067486	-0.108505
C48	C	-4.085242	-0.094725	-0.012547
H49	H	-3.670477	-0.649565	-0.253502
Br50	Br	-3.712007	0.194046	-0.465667
H51	H	-4.018429	0.023159	-0.981357
Br52	Br	-3.975074	0.100479	-0.961919
H53	H	-3.869320	0.183601	-0.808371
Br54	Br	-4.417698	-0.639128	-0.271613
H55	H	-3.926155	-0.138920	-0.610995
H56	H	-3.790940	0.211475	-0.660548
Br57	Br	-4.106061	-0.306766	-0.845780
H58	H	-4.151070	-0.258222	-0.271210
Br59	Br	-4.173728	-0.246391	-1.058299
Br60	Br	-4.323218	-0.425882	-0.272720
H61	H	-3.556836	-0.393055	-0.254819
H62	H	-4.392866	-0.803887	-0.268428
Br63	Br	-3.878571	-0.118448	-0.524977
Br64	Br	-3.645642	-0.814317	-0.250300
H65	H	-3.492752	-0.248471	-0.255557
H66	H	-4.016299	-0.235958	-0.715614
