data_functionalizedCrystal
_audit_creation_method	'MofGen! by Chris Wilmer'
_symmetry_space_group_name_H-M	'P1'
_symmetry_Int_Tables_number	1
_symmetry_cell_setting	triclinic
loop_
_symmetry_equiv_pos_as_xyz
  x,y,z
_cell_length_a	27.731994
_cell_length_b	27.732048
_cell_length_c	15.500227
_cell_angle_alpha	92.799543
_cell_angle_beta	87.185826
_cell_angle_gamma	82.631595
loop_
_atom_site_label
_atom_site_type_symbol
_atom_site_fract_x
_atom_site_fract_y
_atom_site_fract_z
O1	O	0.643206	0.055135	-0.071829
O2	O	0.502410	0.063906	-0.071859
O3	O	0.577180	-0.010877	-0.071827
O4	O	0.568436	0.129918	-0.071862
O5	O	0.572643	-0.006356	0.072060
O6	O	0.497873	0.068427	0.072027
O7	O	0.638669	0.059655	0.072058
Cu8	Cu	0.567857	0.064454	0.085181
Cu9	Cu	0.573222	0.059108	-0.084982
O10	O	0.563899	0.134438	0.072025
C11	C	0.482134	0.065986	0.000080
C12	C	0.428478	0.065444	0.000070
C13	C	0.093285	0.064493	0.078537
C14	C	-0.108373	0.062432	0.078547
O15	O	-0.136549	0.064240	0.145251
N16	N	-0.131115	0.059712	0.000114
C17	C	-0.103438	0.057504	-0.078326
O18	O	-0.127408	0.055138	-0.145038
C19	C	0.098220	0.059562	-0.078336
C20	C	0.120958	0.062287	0.000102
C21	C	0.116024	0.067218	0.156968
C22	C	0.166435	0.067735	0.156965
C23	C	0.194108	0.065529	0.078530
C24	C	0.171369	0.062805	0.000099
C25	C	0.125896	0.057350	-0.156775
C26	C	0.176314	0.057863	-0.156771
C27	C	0.199052	0.060589	-0.078333
C28	C	0.249453	0.061116	-0.078339
N29	N	0.272195	0.063836	0.000093
C30	C	0.244522	0.066043	0.078528
C31	C	-0.209312	0.056424	-0.078316
C32	C	-0.259726	0.055911	-0.078314
C33	C	-0.264658	0.060838	0.078560
C34	C	-0.214243	0.061355	0.078557
C35	C	-0.186570	0.059144	0.000117
C36	C	0.350390	0.067130	0.078515
C37	C	0.400805	0.067650	0.078504
C38	C	0.405733	0.062720	-0.078369
C39	C	0.355321	0.062203	-0.078359
C40	C	0.327651	0.064407	0.000090
O41	O	0.277660	0.059304	-0.145008
O42	O	0.268502	0.068397	0.145229
C43	C	0.042874	0.063975	0.078540
C44	C	0.020136	0.061251	0.000109
C45	C	0.047808	0.059044	-0.078326
C46	C	-0.030279	0.060737	0.000111
C47	C	-0.057952	0.062944	0.078546
C48	C	-0.035210	0.065664	0.156978
C49	C	0.015201	0.066182	0.156975
C50	C	0.025067	0.056324	-0.156758
C51	C	-0.025345	0.055807	-0.156749
C52	C	-0.053018	0.058014	-0.078314
C53	C	0.574728	-0.026623	0.000119
C54	C	0.574175	-0.080278	0.000126
C55	C	0.614881	-0.419102	0.000090
C56	C	0.612830	-0.620761	0.000078
O57	O	0.650053	-0.652025	0.000048
N58	N	0.568494	-0.639877	0.000069
C59	C	0.524668	-0.608574	0.000058
O60	O	0.486910	-0.629460	0.000041
C61	C	0.526719	-0.406916	0.000064
C62	C	0.571058	-0.387803	0.000082
C63	C	0.659216	-0.399989	0.000107
C64	C	0.659728	-0.349577	0.000115
C65	C	0.615905	-0.318278	0.000106
C66	C	0.571570	-0.337391	0.000089
C67	C	0.482894	-0.375614	0.000047
C68	C	0.483410	-0.325197	0.000046
C69	C	0.527749	-0.306084	0.000064
C70	C	0.528259	-0.255680	0.000089
N71	N	0.572595	-0.236564	0.000097
C72	C	0.616418	-0.267863	0.000106
C73	C	0.523594	-0.714448	0.000056
C74	C	0.523081	-0.764862	0.000056
C75	C	0.611244	-0.777046	0.000074
C76	C	0.611756	-0.726631	0.000081
C77	C	0.567930	-0.695333	0.000065
C78	C	0.617490	-0.161994	0.000123
C79	C	0.617998	-0.111577	0.000135
C80	C	0.529836	-0.099397	0.000112
C81	C	0.529327	-0.149810	0.000105
C82	C	0.573159	-0.181108	0.000108
O83	O	0.491057	-0.224388	0.000109
O84	O	0.654171	-0.246968	0.000103
C85	C	0.614369	-0.469514	0.000082
C86	C	0.570034	-0.488627	0.000066
C87	C	0.526211	-0.457328	0.000057
C88	C	0.569521	-0.539041	0.000066
C89	C	0.613344	-0.570340	0.000074
C90	C	0.657680	-0.551225	0.000083
C91	C	0.658192	-0.500813	0.000091
C92	C	0.481875	-0.476444	0.000049
C93	C	0.481366	-0.526856	0.000042
C94	C	0.525189	-0.558155	0.000050
C95	C	0.658945	0.057575	0.000116
C96	C	0.712601	0.058117	0.000121
C97	C	0.566351	0.150184	0.000078
C98	C	0.566904	0.203839	0.000065
N99	N	0.564086	0.068213	0.204864
N100	N	0.576997	0.055344	-0.204666
C101	C	0.595780	0.036537	0.250154
C102	C	0.592933	0.039384	0.340726
C103	C	0.558394	0.073911	0.386005
C104	C	0.526697	0.105590	0.340709
C105	C	0.529542	0.102739	0.250139
C106	C	0.548145	0.084172	0.659468
C107	C	0.545303	0.087021	0.750044
C108	C	0.611538	0.020815	0.750055
C109	C	0.614382	0.017969	0.659483
C110	C	0.582684	0.049646	0.614195
C111	C	0.555484	0.076824	0.478584
C112	C	0.585592	0.046730	0.521617
H113	H	0.198842	0.056063	-0.220648
H114	H	0.336806	0.059992	-0.142229
C115	C	0.040207	0.069175	0.243263
N116	N	0.059038	0.071428	0.308260
H117	H	0.428273	0.060926	-0.142228
H118	H	0.646926	-0.802539	0.000082
H119	H	0.494156	-0.073905	0.000108
C120	C	0.665707	-0.196414	0.000134
N121	N	0.702023	-0.222339	0.000150
C122	C	-0.065660	0.068090	0.243257
N123	N	-0.088596	0.069914	0.308238
C124	C	-0.050351	0.052807	-0.243043
N125	N	-0.069182	0.050542	-0.308038
C126	C	0.434117	-0.396626	0.000022
N127	N	0.397375	-0.412451	-0.000000
C128	C	0.475379	-0.680025	0.000040
N129	N	0.439062	-0.654100	0.000029
H130	H	0.613712	0.018617	0.484748
H131	H	0.654106	-0.096018	0.000151
H132	H	0.618740	0.013590	0.377601
C133	C	0.652375	-0.020016	0.609683
N134	N	0.680992	-0.048626	0.572173
C135	C	0.432587	-0.547873	0.000023
N136	N	0.395847	-0.563702	0.000001
H137	H	0.527363	0.104938	0.515458
C138	C	0.474305	-0.785880	0.000048
N139	N	0.437565	-0.801708	0.000036
H140	H	0.637345	-0.004975	0.786937
C141	C	0.319959	0.069560	0.164812
N142	N	0.297038	0.071393	0.229812
H143	H	0.419316	0.069871	0.142381
H144	H	0.517176	0.115139	0.786907
H145	H	0.447721	-0.299715	0.000032
H146	H	0.493222	-0.165371	0.000115
C147	C	0.488699	0.143565	0.390519
N148	N	0.460078	0.172169	0.428036
H149	H	-0.195733	0.063575	0.142428
H150	H	0.503733	0.128533	0.213264
C151	C	0.055500	0.053895	-0.243048
N152	N	0.078421	0.052067	-0.308047
H153	H	0.623907	0.008423	0.213294
H154	H	0.184944	0.069952	0.220837
H155	H	0.647861	-0.711073	0.000094
H156	H	0.695833	-0.334020	0.000125
H157	H	0.107392	0.055130	-0.220648
H158	H	0.694904	-0.425468	0.000111
H159	H	0.093498	0.069013	0.220842
H160	H	0.694297	-0.485256	0.000105
H161	H	-0.287198	0.062636	0.142425
C162	C	-0.284733	0.052917	-0.164601
N163	N	-0.303566	0.050658	-0.229596
H164	H	0.693362	-0.576717	0.000094
H165	H	-0.186785	0.054624	-0.142195
C166	C	0.513337	0.119080	0.609662
N167	N	0.487140	0.145396	0.572145
H168	H	0.446188	-0.450964	0.000040
