data_functionalizedCrystal
_audit_creation_method	'MofGen! by Chris Wilmer'
_symmetry_space_group_name_H-M	'P1'
_symmetry_Int_Tables_number	1
_symmetry_cell_setting	triclinic
loop_
_symmetry_equiv_pos_as_xyz
  x,y,z
_cell_length_a	19.288864
_cell_length_b	14.519709
_cell_length_c	17.766277
_cell_angle_alpha	89.992699
_cell_angle_beta	89.976791
_cell_angle_gamma	83.408195
loop_
_atom_site_label
_atom_site_type_symbol
_atom_site_fract_x
_atom_site_fract_y
_atom_site_fract_z
O1	O	0.921767	0.115045	-0.062837
O2	O	1.421767	0.615045	0.437163
O3	O	0.719562	0.130564	-0.062786
O4	O	1.219562	0.630564	0.437214
O5	O	0.826026	-0.011468	-0.062806
O6	O	1.326026	0.488532	0.437194
O7	O	0.815304	0.257077	-0.062817
O8	O	1.315304	0.757077	0.437183
O9	O	0.826007	-0.011475	0.062382
O10	O	1.326007	0.488525	0.562382
O11	O	0.719544	0.130557	0.062402
O12	O	1.219544	0.630557	0.562402
O13	O	0.921748	0.115038	0.062351
O14	O	1.421748	0.615038	0.562351
Cu15	Cu	0.820644	0.122797	0.073808
Cu16	Cu	1.320644	0.622797	0.573808
Cu17	Cu	0.820666	0.122805	-0.074242
Cu18	Cu	1.320666	0.622805	0.425758
O19	O	0.815285	0.257070	0.062371
O20	O	1.315285	0.757070	0.562371
C21	C	0.693675	0.130061	-0.000185
C22	C	1.193675	0.630061	0.499815
C23	C	0.616566	0.128562	-0.000165
C24	C	1.116566	0.628562	0.499835
C25	C	0.825517	-0.045828	-0.000212
C26	C	1.325517	0.454172	0.499788
C27	C	0.824019	-0.148200	-0.000211
C28	C	1.324019	0.351800	0.499789
C29	C	0.572169	0.211900	-0.000181
C30	C	1.072169	0.711900	0.499819
C31	C	0.499717	0.210492	-0.000189
C32	C	0.999717	0.710492	0.499811
C33	C	0.471665	0.125741	-0.000197
C34	C	0.971665	0.625741	0.499803
C35	C	0.516071	0.042392	-0.000178
C36	C	1.016071	0.542392	0.499822
C37	C	0.588521	0.043803	-0.000162
C38	C	1.088521	0.543803	0.499838
C39	C	0.363169	0.059120	-0.044079
C40	C	0.863169	0.559120	0.455921
C41	C	0.290720	0.057713	-0.044099
C42	C	0.790720	0.557713	0.455901
C43	C	0.248203	0.121387	-0.000242
C44	C	0.748203	0.621387	0.499758
C45	C	0.278144	0.186483	0.043625
C46	C	0.778144	0.686483	0.543625
C47	C	0.350594	0.187894	0.043641
C48	C	0.850594	0.687894	0.543641
C49	C	0.393105	0.124202	-0.000214
C50	C	0.893105	0.624202	0.499786
C51	C	0.125246	0.203203	-0.000265
C52	C	0.625246	0.703203	0.499735
C53	C	0.052792	0.201792	-0.000269
C54	C	0.552792	0.701792	0.499731
C55	C	0.069148	0.033689	-0.000265
C56	C	0.569148	0.533689	0.499735
C57	C	0.141599	0.035103	-0.000254
C58	C	0.641599	0.535103	0.499746
C59	C	0.169644	0.119863	-0.000258
C60	C	0.669644	0.619863	0.499742
C61	C	0.818507	-0.523061	-0.000229
C62	C	1.318507	-0.023061	0.499771
C63	C	0.820037	-0.418762	-0.000224
C64	C	1.320037	0.081238	0.499776
C65	C	0.821263	-0.335633	-0.000219
C66	C	1.321263	0.164367	0.499781
C67	C	0.822794	-0.231329	-0.000215
C68	C	1.322794	0.268671	0.499785
C69	C	0.947636	0.115541	-0.000251
C70	C	1.447636	0.615541	0.499749
C71	C	1.024745	0.117040	-0.000276
C72	C	1.524745	0.617040	0.499724
C73	C	0.815794	0.291430	-0.000225
C74	C	1.315794	0.791430	0.499775
C75	C	0.817291	0.393802	-0.000230
C76	C	1.317291	0.893802	0.499770
N77	N	0.820634	0.122790	0.177938
N78	N	1.320634	0.622790	0.677938
N79	N	0.820682	0.122805	-0.178373
N80	N	1.320682	0.622805	0.321627
C81	C	0.867791	0.059929	0.217316
C82	C	1.367791	0.559929	0.717316
C83	C	0.867795	0.059925	0.296118
C84	C	1.367795	0.559925	0.796118
C85	C	0.820648	0.122798	0.335538
C86	C	1.320648	0.622798	0.835538
C87	C	0.773482	0.185664	0.296151
C88	C	1.273482	0.685664	0.796151
C89	C	0.773475	0.185660	0.217351
C90	C	1.273475	0.685660	0.717351
C91	C	0.811652	0.206826	0.460375
C92	C	1.311652	0.706826	0.960375
C93	C	0.811664	0.206831	0.539173
C94	C	1.311664	0.706831	1.039173
C95	C	0.820667	0.122809	0.578585
C96	C	1.320667	0.622809	1.078585
C97	C	0.829672	0.038778	0.539188
C98	C	1.329672	0.538778	1.039188
C99	C	0.829665	0.038775	0.460387
C100	C	1.329665	0.538775	0.960387
C101	C	0.820651	0.122808	0.420984
C102	C	1.320651	0.622808	0.920984
C103	C	0.867831	0.059938	0.703409
C104	C	1.367831	0.559938	1.203409
C105	C	0.867830	0.059932	0.782212
C106	C	1.367830	0.559932	1.282212
C107	C	0.773521	0.185679	0.782244
C108	C	1.273521	0.685679	1.282244
C109	C	0.773518	0.185676	0.703442
C110	C	1.273518	0.685676	1.203442
C111	C	0.820677	0.122807	0.664029
C112	C	1.320677	0.622807	1.164029
H113	H	0.594998	0.280918	-0.000185
H114	H	1.094998	0.780918	0.499815
N115	N	0.722607	0.253465	0.174880
N116	N	1.222607	0.753465	0.674880
H117	H	0.730683	0.318894	0.188581
H118	H	1.230683	0.818894	0.688581
H119	H	0.729781	0.243846	0.118992
H120	H	1.229781	0.743846	0.618992
N121	N	0.722629	0.253471	0.338668
N122	N	1.222629	0.753471	0.838668
H123	H	0.749220	0.294220	0.371340
H124	H	1.249220	0.794220	0.871340
H125	H	0.692763	0.293231	0.301715
H126	H	1.192763	0.793231	0.801715
H127	H	0.463563	0.278358	-0.000199
H128	H	0.963563	0.778358	0.499801
N129	N	0.839374	-0.051851	0.417896
N130	N	1.339374	0.448149	0.917896
H131	H	0.882365	-0.054009	0.385181
H132	H	1.382365	0.445991	0.885181
H133	H	0.845050	-0.105027	0.454864
H134	H	1.345050	0.394973	0.954864
N135	N	0.722665	0.253493	0.660967
N136	N	1.222665	0.753493	1.160967
H137	H	0.729815	0.243951	0.605066
H138	H	1.229815	0.743951	1.105066
H139	H	0.673381	0.243009	0.674768
H140	H	1.173381	0.743009	1.174768
N141	N	0.258432	-0.012499	-0.091408
N142	N	0.758432	0.487501	0.408592
H143	H	0.206084	-0.003729	-0.084767
H144	H	0.706084	0.496271	0.415233
H145	H	0.270290	-0.003634	-0.146112
H146	H	0.770290	0.496366	0.353888
N147	N	0.918651	-0.007880	0.174806
N148	N	1.418651	0.492120	0.674806
H149	H	0.948525	-0.047704	0.211715
H150	H	1.448525	0.452296	0.711715
H151	H	0.892009	-0.048565	0.142134
H152	H	1.392009	0.451435	0.642134
H153	H	0.016645	0.269658	-0.000277
H154	H	0.516645	0.769658	0.499723
N155	N	0.038904	-0.057725	-0.000276
N156	N	0.538904	0.442275	0.499724
H157	H	0.055063	-0.094225	0.046136
H158	H	0.555063	0.405775	0.546136
H159	H	-0.013725	-0.045899	-0.000315
H160	H	0.486275	0.454101	0.499685
N161	N	0.189490	-0.054783	-0.000238
N162	N	0.689490	0.445217	0.499762
H163	H	0.160727	-0.108688	-0.000243
H164	H	0.660727	0.391312	0.499757
H165	H	0.219933	-0.057859	-0.046639
H166	H	0.719933	0.442141	0.453361
H167	H	0.804309	0.275251	0.428292
H168	H	1.304309	0.775251	0.928292
N169	N	0.382890	0.258095	0.090954
N170	N	0.882890	0.758095	0.590954
H171	H	0.344967	0.298221	0.118737
H172	H	0.844967	0.798221	0.618737
H173	H	0.416230	0.224737	0.128421
H174	H	0.916230	0.724737	0.628421
H175	H	0.148080	0.272220	-0.000257
H176	H	0.648080	0.772220	0.499743
N177	N	0.839402	-0.051852	0.581685
N178	N	1.339402	0.448148	1.081685
H179	H	0.845113	-0.105080	0.544771
H180	H	1.345113	0.394920	1.044771
H181	H	0.882393	-0.053903	0.614349
H182	H	1.382393	0.446097	1.114349
N183	N	0.232290	0.255155	0.090935
N184	N	0.732290	0.755155	0.590935
H185	H	0.245709	0.246805	0.145664
H186	H	0.745709	0.746805	0.645664
H187	H	0.238606	0.320260	0.074503
H188	H	0.738606	0.820260	0.574503
N189	N	0.409020	-0.009564	-0.091386
N190	N	0.909020	0.490436	0.408614
H191	H	0.435807	0.024893	-0.128885
H192	H	0.935807	0.524893	0.371115
H193	H	0.442872	-0.048573	-0.057731
H194	H	0.942872	0.451427	0.442269
N195	N	0.722663	0.253485	0.824751
N196	N	1.222663	0.753485	1.324751
H197	H	0.749250	0.294235	0.857428
H198	H	1.249250	0.794235	1.357428
H199	H	0.692800	0.293245	0.787795
H200	H	1.192800	0.793245	1.287795
H201	H	0.493226	-0.026613	-0.000195
H202	H	0.993226	0.473387	0.499805
N203	N	0.636412	-0.046087	-0.000142
N204	N	1.136412	0.453913	0.499858
H205	H	0.607650	-0.099992	-0.000145
H206	H	1.107650	0.400008	0.499855
H207	H	0.666853	-0.049163	-0.046545
H208	H	1.166853	0.450837	0.453455
N209	N	0.801948	0.297457	0.581663
N210	N	1.301948	0.797457	1.081663
H211	H	0.796231	0.350684	0.544741
H212	H	1.296231	0.850684	1.044741
H213	H	0.758966	0.299520	0.614379
H214	H	1.258966	0.799520	1.114379
H215	H	0.906198	0.008734	0.328185
H216	H	1.406198	0.508734	0.828185
H217	H	0.906229	0.008743	0.671318
H218	H	1.406229	0.508743	1.171318
H219	H	0.906230	0.008738	0.814274
H220	H	1.406230	0.508738	1.314274
