data_functionalizedCrystal
_audit_creation_method	'MofGen! by Chris Wilmer'
_symmetry_space_group_name_H-M	'P1'
_symmetry_Int_Tables_number	1
_symmetry_cell_setting	triclinic
loop_
_symmetry_equiv_pos_as_xyz
  x,y,z
_cell_length_a	29.839134
_cell_length_b	29.839131
_cell_length_c	29.839125
_cell_angle_alpha	90.025363
_cell_angle_beta	90.021980
_cell_angle_gamma	90.030088
loop_
_atom_site_label
_atom_site_type_symbol
_atom_site_fract_x
_atom_site_fract_y
_atom_site_fract_z
Zn1	Zn	0.686739	-0.178978	0.254101
Zn2	Zn	1.186739	0.321022	0.754101
Zn3	Zn	0.686679	-0.254090	0.178961
Zn4	Zn	1.186679	0.245910	0.678961
Zn5	Zn	0.611622	-0.178968	0.178971
Zn6	Zn	1.111622	0.321032	0.678971
Zn7	Zn	0.611578	-0.254075	0.254049
Zn8	Zn	1.111578	0.245925	0.754049
O9	O	0.649154	-0.216528	0.216521
O10	O	1.149154	0.283472	0.716521
O11	O	0.749598	-0.188952	0.244151
O12	O	1.249598	0.311048	0.744151
O13	O	0.676716	-0.244127	0.116095
O14	O	1.176716	0.255873	0.616095
O15	O	0.621630	-0.116102	0.188963
O16	O	1.121630	0.383898	0.688963
O17	O	0.749554	-0.244137	0.188946
O18	O	1.249554	0.255863	0.688946
O19	O	0.676818	-0.116109	0.244161
O20	O	1.176818	0.383891	0.744161
O21	O	0.621572	-0.188935	0.116102
O22	O	1.121572	0.311065	0.616102
O23	O	0.548749	-0.188921	0.188912
O24	O	1.048749	0.311079	0.688912
O25	O	0.621554	-0.244111	0.316923
O26	O	1.121554	0.255889	0.816923
O27	O	0.548716	-0.244101	0.244072
O28	O	1.048716	0.255899	0.744072
O29	O	0.676775	-0.188937	0.316961
O30	O	1.176775	0.311063	0.816961
O31	O	0.676673	-0.316955	0.188896
O32	O	1.176673	0.183045	0.688896
O33	O	0.621497	-0.316944	0.244063
O34	O	1.121497	0.183056	0.744063
C35	C	0.532432	-0.216509	0.216488
C36	C	1.032432	0.283491	0.716488
C37	C	0.482497	-0.216511	0.216485
C38	C	0.982497	0.283489	0.716485
C39	C	0.172847	-0.245303	0.245207
C40	C	0.672847	0.254697	0.745207
C41	C	-0.014827	-0.245315	0.245227
C42	C	0.485173	0.254685	0.745227
O43	O	-0.039098	-0.269774	0.269629
O44	O	0.460902	0.230226	0.769629
N45	N	-0.038288	-0.216544	0.216554
N46	N	0.461712	0.283456	0.716554
C47	C	-0.014828	-0.187766	0.187877
C48	C	0.485172	0.312234	0.687877
O49	O	-0.039089	-0.163291	0.163492
O50	O	0.460911	0.336709	0.663492
C51	C	0.172844	-0.187751	0.187859
C52	C	0.672844	0.312249	0.687859
C53	C	0.196303	-0.216527	0.216531
C54	C	0.696303	0.283473	0.716531
C55	C	0.196305	-0.274076	0.273877
C56	C	0.696305	0.225924	0.773877
C57	C	0.243221	-0.274075	0.273870
C58	C	0.743221	0.225925	0.773870
C59	C	0.266677	-0.245299	0.245193
C60	C	0.766677	0.254701	0.745193
C61	C	0.243219	-0.216526	0.216524
C62	C	0.743219	0.283474	0.716524
C63	C	0.196303	-0.158971	0.159184
C64	C	0.696303	0.341029	0.659184
C65	C	0.243224	-0.158969	0.159183
C66	C	0.743224	0.341031	0.659183
C67	C	0.266683	-0.187745	0.187855
C68	C	0.766683	0.312255	0.687855
C69	C	0.313591	-0.187749	0.187840
C70	C	0.813591	0.312251	0.687840
N71	N	0.337052	-0.216520	0.216513
N72	N	0.837052	0.283480	0.716513
C73	C	0.313595	-0.245295	0.245189
C74	C	0.813595	0.254705	0.745189
C75	C	-0.113358	-0.187776	0.187887
C76	C	0.386642	0.312224	0.687887
C77	C	-0.160276	-0.187780	0.187891
C78	C	0.339724	0.312220	0.687891
C79	C	-0.160272	-0.245329	0.245242
C80	C	0.339728	0.254671	0.745242
C81	C	-0.113353	-0.245327	0.245236
C82	C	0.386647	0.254673	0.745236
C83	C	-0.089897	-0.216547	0.216560
C84	C	0.410103	0.283453	0.716560
C85	C	0.412121	-0.245290	0.245172
C86	C	0.912121	0.254710	0.745172
C87	C	0.459041	-0.245287	0.245161
C88	C	0.959041	0.254713	0.745161
C89	C	0.459032	-0.187736	0.187812
C90	C	0.959032	0.312264	0.687812
C91	C	0.412117	-0.187740	0.187821
C92	C	0.912117	0.312260	0.687821
C93	C	0.388662	-0.216519	0.216505
C94	C	0.888662	0.283481	0.716505
O95	O	0.337891	-0.163299	0.163455
O96	O	0.837891	0.336701	0.663455
O97	O	0.337865	-0.269759	0.269577
O98	O	0.837865	0.230241	0.769577
C99	C	0.125931	-0.245304	0.245214
C100	C	0.625931	0.254696	0.745214
C101	C	0.102472	-0.216531	0.216545
C102	C	0.602472	0.283469	0.716545
C103	C	0.125929	-0.187755	0.187868
C104	C	0.625929	0.312245	0.687868
C105	C	0.055554	-0.216535	0.216548
C106	C	0.555554	0.283465	0.716548
C107	C	0.032098	-0.245310	0.245225
C108	C	0.532098	0.254690	0.745225
C109	C	0.055559	-0.274082	0.273898
C110	C	0.555559	0.225918	0.773898
C111	C	0.102474	-0.274080	0.273891
C112	C	0.602474	0.225920	0.773891
C113	C	0.102468	-0.158984	0.159196
C114	C	0.602468	0.341016	0.659196
C115	C	0.055552	-0.158989	0.159205
C116	C	0.555552	0.341011	0.659205
C117	C	0.032096	-0.187764	0.187881
C118	C	0.532096	0.312236	0.687881
C119	C	0.649086	-0.333250	0.216483
C120	C	1.149086	0.166750	0.716483
C121	C	0.649098	-0.383185	0.216482
C122	C	1.149098	0.116815	0.716482
C123	C	0.677885	-0.692797	0.245303
C124	C	1.177885	-0.192797	0.745303
C125	C	0.677933	-0.880470	0.245330
C126	C	1.177933	-0.380470	0.745330
O127	O	0.702342	-0.904708	0.269807
O128	O	1.202342	-0.404708	0.769807
N129	N	0.649231	-0.903970	0.216570
N130	N	1.149231	-0.403970	0.716570
C131	C	0.620512	-0.880548	0.187804
C132	C	1.120512	-0.380548	0.687804
O133	O	0.596096	-0.904843	0.163346
O134	O	1.096096	-0.404843	0.663346
C135	C	0.620461	-0.692876	0.187780
C136	C	1.120461	-0.192876	0.687780
C137	C	0.649169	-0.669379	0.216538
C138	C	1.149169	-0.169379	0.716538
C139	C	0.706590	-0.669300	0.274059
C140	C	1.206590	-0.169300	0.774059
C141	C	0.706579	-0.622384	0.274051
C142	C	1.206579	-0.122384	0.774051
C143	C	0.677863	-0.598966	0.245286
C144	C	1.177863	-0.098966	0.745286
C145	C	0.649158	-0.622463	0.216529
C146	C	1.149158	-0.122463	0.716529
C147	C	0.591740	-0.669456	0.159016
C148	C	1.091740	-0.169456	0.659016
C149	C	0.591729	-0.622535	0.159013
C150	C	1.091729	-0.122535	0.659013
C151	C	0.620437	-0.599037	0.187771
C152	C	1.120437	-0.099037	0.687771
C153	C	0.620431	-0.552130	0.187755
C154	C	1.120431	-0.052130	0.687755
N155	N	0.649134	-0.528630	0.216515
N156	N	1.149134	-0.028630	0.716515
C157	C	0.677850	-0.552048	0.245280
C158	C	1.177850	-0.052048	0.745280
C159	C	0.620541	-0.979079	0.187818
C160	C	1.120541	-0.479079	0.687818
C161	C	0.620554	-1.025997	0.187824
C162	C	1.120554	-0.525997	0.687824
C163	C	0.677975	-1.025915	0.245351
C164	C	1.177975	-0.525915	0.745351
C165	C	0.677964	-0.978996	0.245342
C166	C	1.177964	-0.478996	0.745342
C167	C	0.649244	-0.955579	0.216578
C168	C	1.149244	-0.455579	0.716578
C169	C	0.677826	-0.453522	0.245259
C170	C	1.177826	0.046478	0.745259
C171	C	0.677814	-0.406603	0.245247
C172	C	1.177814	0.093397	0.745247
C173	C	0.620391	-0.406688	0.187722
C174	C	1.120391	0.093312	0.687722
C175	C	0.620404	-0.453604	0.187732
C176	C	1.120404	0.046396	0.687732
C177	C	0.649123	-0.477020	0.216505
C178	C	1.149123	0.022980	0.716505
O179	O	0.596032	-0.527863	0.163295
O180	O	1.096032	-0.027863	0.663295
O181	O	0.702255	-0.527746	0.269742
O182	O	1.202255	-0.027746	0.769742
C183	C	0.677895	-0.739712	0.245312
C184	C	1.177895	-0.239712	0.745312
C185	C	0.649190	-0.763210	0.216556
C186	C	1.149190	-0.263210	0.716556
C187	C	0.620474	-0.739792	0.187790
C188	C	1.120474	-0.239792	0.687790
C189	C	0.649203	-0.810128	0.216561
C190	C	1.149203	-0.310128	0.716561
C191	C	0.677919	-0.833546	0.245326
C192	C	1.177919	-0.333546	0.745326
C193	C	0.706622	-0.810046	0.274086
C194	C	1.206622	-0.310046	0.774086
C195	C	0.706611	-0.763130	0.274077
C196	C	1.206611	-0.263130	0.774077
C197	C	0.591772	-0.763291	0.159031
C198	C	1.091772	-0.263291	0.659031
C199	C	0.591785	-0.810207	0.159041
C200	C	1.091785	-0.310207	0.659041
C201	C	0.620501	-0.833625	0.187807
C202	C	1.120501	-0.333625	0.687807
C203	C	0.766333	-0.216547	0.216553
C204	C	1.266333	0.283453	0.716553
C205	C	0.816267	-0.216555	0.216567
C206	C	1.316267	0.283445	0.716567
C207	C	0.649167	-0.216524	0.333699
C208	C	1.149167	0.283476	0.833699
C209	C	0.649172	-0.216522	0.383633
C210	C	1.149172	0.283478	0.883633
C211	C	0.649235	-0.099349	0.216568
C212	C	1.149235	0.400651	0.716568
C213	C	0.649270	-0.049415	0.216589
C214	C	1.149270	0.450585	0.716589
C215	C	0.649168	-0.216499	0.099798
C216	C	1.149168	0.283501	0.599798
C217	C	0.649250	-0.216374	0.049864
C218	C	1.149250	0.283626	0.549864
C219	C	0.677955	-0.187718	0.693300
C220	C	1.177955	0.312282	1.193300
C221	C	0.677978	-0.187680	0.880973
C222	C	1.177978	0.312320	1.380973
O223	O	0.702417	-0.163232	0.905257
O224	O	1.202417	0.336768	1.405257
N225	N	0.649231	-0.216402	0.904419
N226	N	1.149231	0.283598	1.404419
C227	C	0.620475	-0.245133	0.880943
C228	C	1.120475	0.254867	1.380943
O229	O	0.596022	-0.269559	0.905192
O230	O	1.096022	0.230441	1.405192
C231	C	0.620451	-0.245169	0.693271
C232	C	1.120451	0.254831	1.193271
C233	C	0.649202	-0.216448	0.669828
C234	C	1.149202	0.283552	1.169828
C235	C	0.706704	-0.158999	0.669856
C236	C	1.206704	0.341001	1.169856
C237	C	0.706700	-0.159011	0.622941
C238	C	1.206700	0.340989	1.122941
C239	C	0.677947	-0.187741	0.599469
C240	C	1.177947	0.312259	1.099469
C241	C	0.649198	-0.216460	0.622912
C242	C	1.149198	0.283540	1.122912
C243	C	0.591693	-0.273898	0.669797
C244	C	1.091693	0.226102	1.169797
C245	C	0.591689	-0.273903	0.622876
C246	C	1.091689	0.226097	1.122876
C247	C	0.620440	-0.245183	0.599432
C248	C	1.120440	0.254817	1.099432
C249	C	0.620441	-0.245202	0.552525
C250	C	1.120441	0.254798	1.052525
N251	N	0.649188	-0.216480	0.529079
N252	N	1.149188	0.283520	1.029079
C253	C	0.677941	-0.187749	0.552551
C254	C	1.177941	0.312251	1.052551
C255	C	0.620491	-0.245113	0.979474
C256	C	1.120491	0.254887	1.479474
C257	C	0.620497	-0.245105	1.026392
C258	C	1.120497	0.254895	1.526392
C259	C	0.677999	-0.187650	1.026418
C260	C	1.177999	0.312350	1.526418
C261	C	0.677994	-0.187661	0.979499
C262	C	1.177994	0.312339	1.479499
C263	C	0.649237	-0.216391	0.956028
C264	C	1.149237	0.283609	1.456028
C265	C	0.677930	-0.187776	0.454025
C266	C	1.177930	0.312224	0.954025
C267	C	0.677925	-0.187792	0.407105
C268	C	1.177925	0.312208	0.907105
C269	C	0.620421	-0.245244	0.407083
C270	C	1.120421	0.254756	0.907083
C271	C	0.620428	-0.245230	0.453999
C272	C	1.120428	0.254770	0.953999
C273	C	0.649184	-0.216493	0.477469
C274	C	1.149184	0.283507	0.977469
O275	O	0.596011	-0.269633	0.528212
O276	O	1.096011	0.230367	1.028212
O277	O	0.702383	-0.163320	0.528294
O278	O	1.202383	0.336680	1.028294
C279	C	0.677959	-0.187706	0.740215
C280	C	1.177959	0.312294	1.240215
C281	C	0.649211	-0.216425	0.763659
C282	C	1.149211	0.283575	1.263659
C283	C	0.620458	-0.245155	0.740187
C284	C	1.120458	0.254845	1.240187
C285	C	0.649217	-0.216417	0.810577
C286	C	1.149217	0.283583	1.310577
C287	C	0.677970	-0.187686	0.834049
C288	C	1.177970	0.312314	1.334049
C289	C	0.706717	-0.158964	0.810603
C290	C	1.206717	0.341036	1.310603
C291	C	0.706712	-0.158976	0.763687
C292	C	1.206712	0.341024	1.263687
C293	C	0.591711	-0.273877	0.763633
C294	C	1.091711	0.226123	1.263633
C295	C	0.591718	-0.273864	0.810548
C296	C	1.091718	0.226136	1.310548
C297	C	0.620471	-0.245133	0.834020
C298	C	1.120471	0.254867	1.334020
H299	H	0.478139	-0.164309	0.164463
H300	H	0.978139	0.335691	0.664463
Br301	Br	0.552657	-0.312894	0.591025
Br302	Br	1.052657	0.187106	1.091025
H303	H	0.597182	-1.045124	0.164401
H304	H	1.097182	-0.545124	0.664401
H305	H	-0.179372	-0.164352	0.164539
H306	H	0.320628	0.335648	0.664539
Br307	Br	0.581411	-0.284212	0.485816
Br308	Br	1.081411	0.215788	0.985816
Br309	Br	0.552776	-0.701333	0.119985
Br310	Br	1.052776	-0.201333	0.619985
Br311	Br	0.134294	-0.119926	0.120275
Br312	Br	0.634294	0.380074	0.620275
H313	H	0.729954	-0.603255	0.297470
H314	H	1.229954	-0.103255	0.797470
H315	H	0.730130	-0.135573	0.829722
H316	H	1.230130	0.364427	1.329722
Br317	Br	0.581422	-0.374898	0.148684
Br318	Br	1.081422	0.125102	0.648684
Br319	Br	0.716778	-0.374716	0.284277
Br320	Br	1.216778	0.125284	0.784277
H321	H	0.597153	-0.960016	0.164394
H322	H	1.097153	-0.460016	0.664394
Br323	Br	0.552748	-0.590757	0.119974
Br324	Br	1.052748	-0.090757	0.619974
H325	H	0.701208	-0.472582	0.268692
H326	H	1.201208	0.027418	0.768692
Br327	Br	0.581401	-0.284233	0.375219
Br328	Br	1.081401	0.215767	0.875219
H329	H	0.730005	-0.829121	0.297506
H330	H	1.230005	-0.329121	0.797506
H331	H	0.729974	-0.688362	0.297486
H332	H	1.229974	-0.188362	0.797486
H333	H	0.730125	-0.135588	0.744604
H334	H	1.230125	0.364412	1.244604
Br335	Br	0.552698	-0.312850	0.842358
Br336	Br	1.052698	0.187150	1.342358
H337	H	0.568297	-0.297274	0.744526
H338	H	1.068297	0.202726	1.244526
Br339	Br	0.023721	-0.119933	0.120287
Br340	Br	0.523721	0.380067	0.620287
Br341	Br	0.552823	-0.842090	0.120006
Br342	Br	1.052823	-0.342090	0.620006
H343	H	-0.094265	-0.164339	0.164534
H344	H	0.405735	0.335661	0.664534
Br345	Br	0.716949	-0.148813	0.375292
Br346	Br	1.216949	0.351187	0.875292
Br347	Br	-0.081521	-0.284382	0.284148
Br348	Br	0.418479	0.215618	0.784148
H349	H	0.729988	-0.744002	0.297495
H350	H	1.229988	-0.244002	0.797495
Br351	Br	0.716926	-0.947112	0.284373
Br352	Br	1.216926	-0.447112	0.784373
Br353	Br	0.275055	-0.119906	0.120265
Br354	Br	0.775055	0.380094	0.620265
Br355	Br	0.716953	-0.148772	0.485869
Br356	Br	1.216953	0.351228	0.985869
Br357	Br	0.745737	-0.120008	0.701702
Br358	Br	1.245737	0.379992	1.201702
Br359	Br	0.581450	-0.485494	0.148696
Br360	Br	1.081450	0.014506	0.648696
H361	H	0.701357	-1.044990	0.268772
H362	H	1.201357	-0.544990	0.768772
H363	H	0.568280	-0.297285	0.688876
H364	H	1.068280	0.202715	1.188876
H365	H	0.478139	-0.268721	0.268510
H366	H	0.978139	0.231279	0.768510
Br367	Br	0.134304	-0.313136	0.312804
Br368	Br	0.634304	0.186864	0.812804
H369	H	0.568387	-0.744228	0.135607
H370	H	1.068387	-0.244228	0.635607
Br371	Br	0.023716	-0.313137	0.312812
Br372	Br	0.523716	0.186863	0.812812
Br373	Br	0.581458	-0.284107	0.947627
Br374	Br	1.081458	0.215893	1.447627
H375	H	0.701411	-0.164257	1.045537
H376	H	1.201411	0.335743	1.545537
Br377	Br	0.745719	-0.120028	0.591132
Br378	Br	1.245719	0.379972	1.091132
Br379	Br	0.717016	-0.148682	0.947688
Br380	Br	1.217016	0.351318	1.447688
H381	H	0.393030	-0.268723	0.268530
H382	H	0.893030	0.231277	0.768530
Br383	Br	0.275051	-0.313128	0.312785
Br384	Br	0.775051	0.186872	0.812785
H385	H	0.597090	-0.268497	1.045476
H386	H	1.097090	0.231503	1.545476
H387	H	0.177212	-0.297509	0.297231
H388	H	0.677212	0.202491	0.797231
H389	H	0.177211	-0.135539	0.135836
H390	H	0.677211	0.364461	0.635836
Br391	Br	-0.192115	-0.284379	0.284163
Br392	Br	0.307885	0.215621	0.784163
H393	H	0.393015	-0.164309	0.164474
H394	H	0.893015	0.335691	0.664474
