data_functionalizedCrystal
_audit_creation_method	'MofGen! by Chris Wilmer'
_symmetry_space_group_name_H-M	'P1'
_symmetry_Int_Tables_number	1
_symmetry_cell_setting	triclinic
loop_
_symmetry_equiv_pos_as_xyz
  x,y,z
_cell_length_a	19.805407
_cell_length_b	12.594516
_cell_length_c	19.805399
_cell_angle_alpha	90.020797
_cell_angle_beta	90.019573
_cell_angle_gamma	90.016053
loop_
_atom_site_label
_atom_site_type_symbol
_atom_site_fract_x
_atom_site_fract_y
_atom_site_fract_z
Zn1	Zn	1.034784	-0.423767	0.382752
Zn2	Zn	1.534784	0.076233	0.882752
Zn3	Zn	1.034720	-0.601760	0.269577
Zn4	Zn	1.534720	-0.101760	0.769577
Zn5	Zn	0.921599	-0.423796	0.269576
Zn6	Zn	1.421599	0.076204	0.769576
Zn7	Zn	0.921583	-0.601704	0.382723
Zn8	Zn	1.421583	-0.101704	0.882723
O9	O	0.978172	-0.512757	0.326157
O10	O	1.478172	-0.012757	0.826157
O11	O	1.129492	-0.447389	0.367751
O12	O	1.629492	0.052611	0.867751
O13	O	1.019694	-0.578189	0.174860
O14	O	1.519694	-0.078189	0.674860
O15	O	0.936647	-0.274846	0.284601
O16	O	1.436647	0.225154	0.784601
O17	O	1.129445	-0.578160	0.284602
O18	O	1.629445	-0.078160	0.784602
O19	O	1.019804	-0.274825	0.367750
O20	O	1.519804	0.225175	0.867750
O21	O	0.936584	-0.447439	0.174860
O22	O	1.436584	0.052561	0.674860
O23	O	0.826880	-0.447385	0.284573
O24	O	1.326880	0.052615	0.784573
O25	O	0.936620	-0.578064	0.477444
O26	O	1.436620	-0.078064	0.977444
O27	O	0.826869	-0.578092	0.367702
O28	O	1.326869	-0.078092	0.867702
O29	O	1.019788	-0.447335	0.477464
O30	O	1.519788	0.052665	0.977464
O31	O	1.019678	-0.750698	0.284574
O32	O	1.519678	-0.250698	0.784574
O33	O	0.936557	-0.750657	0.367703
O34	O	1.436557	-0.250657	0.867703
C35	C	0.802316	-0.512736	0.326135
C36	C	1.302316	-0.012736	0.826135
C37	C	0.727084	-0.512753	0.326142
C38	C	1.227084	-0.012753	0.826142
C39	C	0.691751	-0.580915	0.369357
C40	C	1.191751	-0.080915	0.869357
C41	C	0.621063	-0.580917	0.369366
C42	C	1.121063	-0.080917	0.869366
C43	C	0.585708	-0.512762	0.326157
C44	C	1.085708	-0.012762	0.826157
C45	C	0.621045	-0.444592	0.282940
C46	C	1.121045	0.055408	0.782940
C47	C	0.691733	-0.444586	0.282934
C48	C	1.191733	0.055414	0.782934
C49	C	0.335972	-0.444615	0.282962
C50	C	0.835972	0.055385	0.782962
C51	C	0.265280	-0.444629	0.282970
C52	C	0.765280	0.055371	0.782970
C53	C	0.265302	-0.580947	0.369394
C54	C	0.765302	-0.080947	0.869394
C55	C	0.335989	-0.580941	0.369389
C56	C	0.835989	-0.080941	0.869389
C57	C	0.371321	-0.512768	0.326175
C58	C	0.871321	-0.012768	0.826175
C59	C	0.447969	-0.512765	0.326166
C60	C	0.947969	-0.012765	0.826166
C61	C	0.509061	-0.512769	0.326162
C62	C	1.009061	-0.012769	0.826162
C63	C	0.978127	-0.789298	0.326150
C64	C	1.478127	-0.289298	0.826150
C65	C	0.978170	-0.907603	0.326170
C66	C	1.478170	-0.407603	0.826170
C67	C	0.932956	-0.976872	0.371352
C68	C	1.432956	-0.476872	0.871352
C69	C	0.916467	-1.047728	0.309590
C70	C	1.416467	-0.547728	0.809590
C71	C	0.994721	-1.047546	0.387943
C72	C	1.494721	-0.547546	0.887943
C73	C	0.961649	-0.976901	0.264375
C74	C	1.461649	-0.476901	0.764375
C75	C	1.039931	-0.976712	0.342770
C76	C	1.539931	-0.476712	0.842770
C77	C	1.023465	-1.047536	0.280965
C78	C	1.523465	-0.547536	0.780965
C79	C	1.154714	-0.512778	0.326179
C80	C	1.654714	-0.012778	0.826179
C81	C	1.229946	-0.512787	0.326189
C82	C	1.729946	-0.012787	0.826189
C83	C	0.978209	-0.512690	0.502700
C84	C	1.478209	-0.012690	1.002700
C85	C	0.978226	-0.512661	0.577932
C86	C	1.478226	-0.012661	1.077932
C87	C	0.978235	-0.235136	0.326178
C88	C	1.478235	0.264864	0.826178
C89	C	0.978261	-0.116830	0.326188
C90	C	1.478261	0.383170	0.826188
C91	C	0.978173	-0.512747	0.150301
C92	C	1.478173	-0.012747	0.650301
C93	C	0.978288	-0.512475	0.075069
C94	C	1.478288	-0.012475	0.575069
C95	C	1.021533	-0.444587	0.613288
C96	C	1.521533	0.055413	1.113288
C97	C	1.021539	-0.444556	0.683976
C98	C	1.521539	0.055444	1.183976
C99	C	0.978242	-0.512605	0.719307
C100	C	1.478242	-0.012605	1.219307
C101	C	0.934931	-0.580683	0.683947
C102	C	1.434931	-0.080683	1.183947
C103	C	0.934921	-0.580707	0.613259
C104	C	1.434921	-0.080707	1.113259
C105	C	0.934969	-0.580583	0.969020
C106	C	1.434969	-0.080583	1.469020
C107	C	0.934984	-0.580556	1.039712
C108	C	1.434984	-0.080556	1.539712
C109	C	1.021588	-0.444432	1.039737
C110	C	1.521588	0.055568	1.539737
C111	C	1.021578	-0.444457	0.969050
C112	C	1.521578	0.055543	1.469050
C113	C	0.978264	-0.512530	0.933695
C114	C	1.478264	-0.012530	1.433695
C115	C	0.978256	-0.512561	0.857046
C116	C	1.478256	-0.012561	1.357046
C117	C	0.978253	-0.512580	0.795955
C118	C	1.478253	-0.012580	1.295955
H119	H	0.720532	-0.636419	0.404541
H120	H	1.220532	-0.136419	0.904541
F121	F	1.067619	-0.372163	0.575692
F122	F	1.567619	0.127837	1.075692
H123	H	0.947627	-0.945998	0.212128
H124	H	1.447627	-0.445998	0.712128
H125	H	0.864280	-1.078946	0.295564
H126	H	1.364280	-0.578946	0.795564
F127	F	0.888898	-0.652986	1.077313
F128	F	1.388898	-0.152986	1.577313
F129	F	1.067656	-0.372139	0.721602
F130	F	1.567656	0.127861	1.221602
H131	H	0.592254	-0.389094	0.247761
H132	H	1.092254	0.110906	0.747761
F133	F	1.073495	-1.087837	0.230978
F134	F	1.573495	-0.587837	0.730978
F135	F	1.067662	-0.372033	0.931451
F136	F	1.567662	0.127967	1.431451
H137	H	1.092106	-0.945498	0.356826
H138	H	1.592106	-0.445498	0.856826
H139	H	0.720500	-0.389075	0.247748
H140	H	1.220500	0.110925	0.747748
F141	F	1.067684	-0.371979	1.077370
F142	F	1.567684	0.128021	1.577370
F143	F	1.012969	-1.088111	0.456214
F144	F	1.512969	-0.588111	0.956214
H145	H	0.899710	-0.636028	0.940243
H146	H	1.399710	-0.136028	1.440243
F147	F	0.888848	-0.653102	0.721550
F148	F	1.388848	-0.153102	1.221550
F149	F	0.227694	-0.653503	0.415388
F150	F	0.727694	-0.153503	0.915388
F151	F	0.882892	-0.936313	0.421222
F152	F	1.382892	-0.436313	0.921222
H153	H	0.592298	-0.636423	0.404556
H154	H	1.092298	-0.136423	0.904556
F155	F	0.373612	-0.653485	0.415376
F156	F	0.873612	-0.153485	0.915376
F157	F	0.888826	-0.653159	0.575631
F158	F	1.388826	-0.153159	1.075631
H159	H	0.364730	-0.389113	0.247769
H160	H	0.864730	0.110887	0.747769
F161	F	0.227654	-0.372084	0.236979
F162	F	0.727654	0.127916	0.736979
