data_functionalizedCrystal
_audit_creation_method	'MofGen! by Chris Wilmer'
_symmetry_space_group_name_H-M	'P1'
_symmetry_Int_Tables_number	1
_symmetry_cell_setting	triclinic
loop_
_symmetry_equiv_pos_as_xyz
  x,y,z
_cell_length_a	6.817900
_cell_length_b	9.582889
_cell_length_c	16.418042
_cell_angle_alpha	93.121935
_cell_angle_beta	103.389568
_cell_angle_gamma	111.207298
loop_
_atom_site_label
_atom_site_type_symbol
_atom_site_fract_x
_atom_site_fract_y
_atom_site_fract_z
V1	V	-4.065737	-0.208271	-0.260999
O2	O	-4.011405	0.008757	-0.256189
O3	O	-4.056518	-0.411763	-0.259063
O4	O	-4.016299	-0.205617	-0.374900
O5	O	-4.051903	-0.198817	-0.139550
V6	V	-4.544422	-0.182247	-0.246492
O7	O	-4.337607	-0.265357	-0.292824
O8	O	-4.722749	-0.125162	-0.214667
O9	O	-4.330434	0.021245	-0.248428
O10	O	-4.716150	-0.399275	-0.251302
O11	O	-4.675653	-0.191702	-0.367941
O12	O	-4.370653	-0.184902	-0.132591
C13	C	-3.911085	-0.461353	-0.254906
C14	C	-3.984827	-0.627714	-0.254082
C15	C	-3.859780	-0.198391	-0.402666
C16	C	-3.900902	-0.197567	-0.495779
C17	C	-4.178996	-0.203134	-0.714261
C18	C	-4.217613	-0.202347	-0.801749
C19	C	-3.850517	-0.187377	-0.793218
C20	C	-3.811898	-0.188153	-0.705730
C21	C	-3.976148	-0.196040	-0.666255
C22	C	-4.053384	-0.194476	-0.841231
C23	C	-4.095253	-0.193623	-0.936089
C24	C	-3.934276	-0.196890	-0.571390
C25	C	-4.139211	0.070826	-0.252583
C26	C	-4.044707	0.237186	-0.253412
C27	C	-4.190516	-0.192133	-0.104820
C28	C	-4.128631	-0.192949	-0.011706
H29	H	-4.312741	-0.209553	-0.682123
O30	O	-4.414673	-0.209441	-0.848489
C31	C	-4.734679	-0.347605	-0.963457
C32	C	-4.511522	-0.339739	-0.910605
H33	H	-4.813068	-0.452959	-1.013678
H34	H	-4.710900	-0.242425	-0.995584
H35	H	-4.845351	-0.353299	-0.920189
H36	H	-4.400735	-0.334095	-0.953815
H37	H	-4.535468	-0.444917	-0.878469
O38	O	-3.691056	-0.179533	-0.831646
C39	C	-3.458228	-0.039625	-0.914158
C40	C	-3.638857	-0.048336	-0.870694
H41	H	-3.415938	0.066455	-0.945724
H42	H	-3.518231	-0.144078	-0.964060
H43	H	-3.306669	-0.034760	-0.864809
H44	H	-3.790478	-0.053153	-0.919981
H45	H	-3.578676	0.056114	-0.820776
O46	O	-3.615037	-0.181528	-0.659040
C47	C	-3.421776	-0.304195	-0.566685
C48	C	-3.644847	-0.311843	-0.619498
H49	H	-3.445795	-0.409555	-0.534716
H50	H	-3.343270	-0.199014	-0.516339
H51	H	-3.311085	-0.298391	-0.609958
H52	H	-3.755705	-0.317704	-0.576293
H53	H	-3.723176	-0.417007	-0.669852
