data_functionalizedCrystal
_audit_creation_method	'MofGen! by Chris Wilmer'
_symmetry_space_group_name_H-M	'P1'
_symmetry_Int_Tables_number	1
_symmetry_cell_setting	triclinic
loop_
_symmetry_equiv_pos_as_xyz
  x,y,z
_cell_length_a	14.853567
_cell_length_b	23.532407
_cell_length_c	13.930277
_cell_angle_alpha	89.990782
_cell_angle_beta	89.995755
_cell_angle_gamma	83.241804
loop_
_atom_site_label
_atom_site_type_symbol
_atom_site_fract_x
_atom_site_fract_y
_atom_site_fract_z
O1	O	1.195555	0.074353	-0.079775
O2	O	1.695555	0.574353	0.420225
O3	O	0.932999	0.083210	-0.079793
O4	O	1.432999	0.583210	0.420207
O5	O	1.072194	-0.004116	-0.079766
O6	O	1.572194	0.495884	0.420234
O7	O	1.056360	0.161678	-0.079802
O8	O	1.556360	0.661678	0.420198
O9	O	1.072175	-0.004118	0.079896
O10	O	1.572175	0.495882	0.579896
O11	O	0.932980	0.083208	0.079869
O12	O	1.432980	0.583208	0.579869
O13	O	1.195536	0.074351	0.079887
O14	O	1.695536	0.574351	0.579887
Zn15	Zn	1.064255	0.078779	0.105228
Zn16	Zn	1.564255	0.578779	0.605228
Zn17	Zn	1.064280	0.078782	-0.105133
Zn18	Zn	1.564280	0.578782	0.394867
O19	O	1.056340	0.161677	0.079860
O20	O	1.556340	0.661677	0.579860
C21	C	0.899405	0.082808	0.000036
C22	C	1.399405	0.582808	0.500036
C23	C	0.799334	0.081605	0.000030
C24	C	1.299334	0.581605	0.500030
C25	C	0.387423	0.024648	0.000064
C26	C	0.887423	0.524648	0.500064
C27	C	0.365008	0.128393	0.000041
C28	C	0.865008	0.628393	0.500041
C29	C	0.459029	0.129524	0.000037
C30	C	0.959029	0.629524	0.500037
C31	C	0.517252	0.078216	0.000046
C32	C	1.017252	0.578216	0.500046
C33	C	0.481454	0.025777	0.000058
C34	C	0.981454	0.525777	0.500058
C35	C	0.494835	0.181961	0.000016
C36	C	0.994835	0.681961	0.500016
C37	C	0.588861	0.183094	0.000011
C38	C	1.088861	0.683094	0.500011
C39	C	0.647086	0.131786	0.000027
C40	C	1.147086	0.631786	0.500027
C41	C	0.611283	0.079345	0.000040
C42	C	1.111283	0.579345	0.500040
C43	C	0.669506	0.028037	0.000049
C44	C	1.169506	0.528037	0.500049
C45	C	0.633704	-0.024404	0.000069
C46	C	1.133704	0.475596	0.500069
C47	C	0.539679	-0.025531	0.000074
C48	C	1.039679	0.474469	0.500074
C49	C	0.741111	0.132913	0.000022
C50	C	1.241111	0.632913	0.500022
C51	C	0.763536	0.029166	0.000042
C52	C	1.263536	0.529166	0.500042
C53	C	1.071782	-0.025335	0.000068
C54	C	1.571782	0.474665	0.500068
C55	C	1.070569	-0.088557	0.000075
C56	C	1.570569	0.411443	0.500075
C57	C	1.145338	-0.487334	0.000027
C58	C	1.645338	0.012666	0.500027
C59	C	1.144212	-0.546739	0.000020
C60	C	1.644212	-0.046739	0.500020
O61	O	1.213524	-0.583181	-0.000011
O62	O	1.713524	-0.083181	0.499989
N63	N	1.061460	-0.569726	0.000015
N64	N	1.561460	-0.069726	0.500015
C65	C	0.979829	-0.533305	0.000008
C66	C	1.479829	-0.033305	0.500008
O67	O	0.909339	-0.558312	0.000002
O68	O	1.409339	-0.058312	0.500002
C69	C	0.980957	-0.473901	0.000008
C70	C	1.480957	0.026099	0.500008
C71	C	1.063714	-0.450917	0.000023
C72	C	1.563714	0.049083	0.500023
C73	C	1.228089	-0.464349	0.000041
C74	C	1.728089	0.035651	0.500041
C75	C	1.229214	-0.404948	0.000050
C76	C	1.729214	0.095052	0.500050
C77	C	1.147590	-0.368531	0.000046
C78	C	1.647590	0.131469	0.500046
C79	C	1.064839	-0.391516	0.000032
C80	C	1.564839	0.108484	0.500032
C81	C	0.899327	-0.437481	-0.000006
C82	C	1.399327	0.062519	0.499994
C83	C	0.900461	-0.378073	-0.000006
C84	C	1.400461	0.121927	0.499994
C85	C	0.983218	-0.355089	0.000009
C86	C	1.483218	0.144911	0.500009
C87	C	0.984341	-0.295698	0.000037
C88	C	1.484341	0.204302	0.500037
N89	N	1.067092	-0.272711	0.000042
N90	N	1.567092	0.227289	0.500042
C91	C	1.148717	-0.309128	0.000046
C92	C	1.648717	0.190872	0.500046
C93	C	0.977469	-0.658058	0.000005
C94	C	1.477469	-0.158058	0.500005
C95	C	0.976340	-0.717461	0.000012
C96	C	1.476340	-0.217461	0.500012
C97	C	1.140723	-0.730890	0.000022
C98	C	1.640723	-0.230890	0.500022
C99	C	1.141851	-0.671486	0.000022
C100	C	1.641851	-0.171486	0.500022
C101	C	1.060220	-0.635070	0.000010
C102	C	1.560220	-0.135070	0.500010
C103	C	1.151075	-0.184380	0.000066
C104	C	1.651075	0.315620	0.500066
C105	C	1.152194	-0.124974	0.000079
C106	C	1.652194	0.375026	0.500079
C107	C	0.987811	-0.111549	0.000064
C108	C	1.487811	0.388451	0.500064
C109	C	0.986692	-0.170951	0.000056
C110	C	1.486692	0.329049	0.500056
C111	C	1.068331	-0.207365	0.000054
C112	C	1.568331	0.292635	0.500054
O113	O	0.915065	-0.259221	0.000064
O114	O	1.415065	0.240779	0.500064
O115	O	1.219196	-0.284112	0.000039
O116	O	1.719196	0.215888	0.500039
C117	C	1.229130	0.074753	0.000056
C118	C	1.729130	0.574753	0.500056
C119	C	1.329200	0.075956	0.000056
C120	C	1.829200	0.575956	0.500056
C121	C	1.056753	0.182895	0.000025
C122	C	1.556753	0.682895	0.500025
C123	C	1.057966	0.246118	0.000011
C124	C	1.557966	0.746118	0.500011
N125	N	1.064244	0.078777	0.248794
N126	N	1.564244	0.578777	0.748794
N127	N	1.064298	0.078779	-0.248700
N128	N	1.564298	0.578779	0.251300
C129	C	1.002642	0.117434	0.701051
C130	C	1.502642	0.617434	1.201051
C131	C	1.125943	0.040125	0.701045
C132	C	1.625943	0.540125	1.201045
C133	C	1.125932	0.040123	0.600549
C134	C	1.625932	0.540123	1.100549
C135	C	1.064276	0.078778	0.550300
C136	C	1.564276	0.578778	1.050300
C137	C	1.002631	0.117435	0.600546
C138	C	1.502631	0.617435	1.100546
C139	C	1.187582	0.001470	0.550295
C140	C	1.687582	0.501470	1.050295
C141	C	1.187575	0.001467	0.449793
C142	C	1.687575	0.501467	0.949793
C143	C	1.125914	0.040120	0.399542
C144	C	1.625914	0.540120	0.899542
C145	C	1.064266	0.078778	0.449795
C146	C	1.564266	0.578778	0.949795
C147	C	1.002610	0.117433	0.399546
C148	C	1.502610	0.617433	0.899546
C149	C	0.940956	0.156089	0.449797
C150	C	1.440956	0.656089	0.949797
C151	C	0.940970	0.156088	0.550295
C152	C	1.440970	0.656088	1.050295
C153	C	1.125900	0.040122	0.299043
C154	C	1.625900	0.540122	0.799043
C155	C	1.002599	0.117434	0.299041
C156	C	1.502599	0.617434	0.799041
H157	H	0.358269	-0.018049	0.000084
H158	H	0.858269	0.481951	0.500084
H159	H	1.237775	-0.030008	0.408885
H160	H	1.737775	0.469992	0.908885
C161	C	1.317884	-0.504399	0.000054
C162	C	1.817884	-0.004399	0.500054
H163	H	1.367320	-0.482194	0.000069
H164	H	1.867320	0.017806	0.500069
H165	H	1.320884	-0.527851	-0.055620
H166	H	1.820884	-0.027851	0.444380
H167	H	1.320855	-0.527853	0.055742
H168	H	1.820855	-0.027853	0.555742
C169	C	1.193709	-0.002392	0.243767
C170	C	1.693709	0.497608	0.743767
H171	H	1.184875	0.003146	0.176716
H172	H	1.684875	0.503146	0.676716
H173	H	1.184272	-0.040413	0.260251
H174	H	1.684272	0.459587	0.760251
H175	H	1.253821	0.003871	0.260221
H176	H	1.753821	0.503871	0.760221
C177	C	0.628236	0.240776	0.000002
C178	C	1.128236	0.740776	0.500002
H179	H	0.580093	0.271170	0.000005
H180	H	1.080093	0.771170	0.500005
H181	H	0.664455	0.243377	-0.055673
H182	H	1.164455	0.743377	0.444327
H183	H	0.664442	0.243369	0.055689
H184	H	1.164442	0.743369	0.555689
H185	H	0.952388	0.148910	0.258134
H186	H	1.452388	0.648910	0.758134
C187	C	1.232882	-0.646209	0.000029
C188	C	1.732882	-0.146209	0.500029
H189	H	1.281329	-0.676411	0.000027
H190	H	1.781329	-0.176411	0.500027
H191	H	1.236737	-0.623318	0.055705
H192	H	1.736737	-0.123318	0.555705
H193	H	1.236748	-0.623313	-0.055657
H194	H	1.736748	-0.123313	0.444343
C195	C	0.873140	0.198608	0.394516
C196	C	1.373140	0.698608	0.894516
H197	H	0.881967	0.193068	0.327467
H198	H	1.381967	0.693068	0.827467
H199	H	0.882583	0.236629	0.410974
H200	H	1.382583	0.736629	0.910974
H201	H	0.813029	0.192349	0.410990
H202	H	1.313029	0.692349	0.910990
C203	C	0.898032	-0.071484	0.000054
C204	C	1.398032	0.428516	0.500054
H205	H	0.910562	-0.032814	0.000049
H206	H	1.410562	0.467186	0.500049
H207	H	0.864059	-0.078460	0.055723
H208	H	1.364059	0.421540	0.555723
H209	H	0.864091	-0.078452	-0.055640
H210	H	1.364091	0.421548	0.444360
H211	H	0.810936	-0.012615	0.000053
H212	H	1.310936	0.487385	0.500053
H213	H	0.447423	0.223733	-0.000001
H214	H	0.947423	0.723733	0.499999
H215	H	0.770257	0.175610	0.000007
H216	H	1.270257	0.675610	0.500007
C217	C	0.873168	0.198609	0.605572
C218	C	1.373168	0.698609	1.105572
H219	H	0.882014	0.193076	0.672622
H220	H	1.382014	0.693076	1.172622
H221	H	0.813054	0.192358	0.589123
H222	H	1.313054	0.692358	1.089123
H223	H	0.882622	0.236630	0.589086
H224	H	1.382622	0.736630	1.089086
H225	H	1.207187	-0.760552	0.000022
H226	H	1.707187	-0.260552	0.500022
C227	C	0.697754	-0.080839	0.000078
C228	C	1.197754	0.419161	0.500078
H229	H	0.758878	-0.072652	0.000075
H230	H	1.258878	0.427348	0.500075
H231	H	0.686953	-0.102341	-0.055590
H232	H	1.186953	0.397659	0.444410
H233	H	0.686958	-0.102337	0.055772
H234	H	1.186958	0.397663	0.555772
H235	H	1.219587	-0.106264	0.000094
H236	H	1.719587	0.393736	0.500094
C237	C	0.300966	0.184826	0.000033
C238	C	0.800966	0.684826	0.500033
H239	H	0.239841	0.176643	0.000044
H240	H	0.739841	0.676643	0.500044
H241	H	0.311770	0.206329	-0.055647
H242	H	0.811770	0.706329	0.444353
H243	H	0.311768	0.206321	0.055716
H244	H	0.811768	0.706321	0.555716
C245	C	0.934831	0.159954	0.756321
C246	C	1.434831	0.659954	1.256321
H247	H	0.943667	0.154422	0.823372
H248	H	1.443667	0.654422	1.323372
H249	H	0.874721	0.153701	0.739860
H250	H	1.374721	0.653701	1.239860
H251	H	0.944285	0.197976	0.739838
H252	H	1.444285	0.697976	1.239838
C253	C	0.885310	-0.742739	0.000007
C254	C	1.385310	-0.242739	0.500007
H255	H	0.896321	-0.783334	0.000009
H256	H	1.396321	-0.283334	0.500009
H257	H	0.851732	-0.730234	-0.055671
H258	H	1.351732	-0.230234	0.444329
H259	H	0.851722	-0.730249	0.055691
H260	H	1.351722	-0.230249	0.555691
H261	H	1.237785	-0.029999	0.591211
H262	H	1.737785	0.470001	1.091211
C263	C	0.500294	-0.083210	0.000085
C264	C	1.000294	0.416790	0.500085
H265	H	0.435958	-0.076533	0.000076
H266	H	0.935958	0.423467	0.500076
H267	H	0.520304	-0.104342	0.055765
H268	H	1.020304	0.395658	0.555765
H269	H	0.520312	-0.104335	-0.055597
H270	H	1.020312	0.395665	0.444403
C271	C	1.240876	-0.224428	0.000072
C272	C	1.740876	0.275572	0.500072
H273	H	1.290314	-0.202224	0.000090
H274	H	1.790314	0.297776	0.500090
H275	H	1.243873	-0.247876	-0.055606
H276	H	1.743873	0.252124	0.444394
H277	H	1.243847	-0.247886	0.055757
H278	H	1.743847	0.252114	0.555757
H279	H	1.176146	0.008655	0.741961
H280	H	1.676146	0.508655	1.241961
H281	H	0.831937	-0.456183	-0.000023
H282	H	1.331937	0.043817	0.499977
H283	H	1.296604	-0.386241	0.000058
H284	H	1.796604	0.113759	0.500058
C285	C	0.887669	-0.618004	0.000010
C286	C	1.387669	-0.118004	0.500010
H287	H	0.838230	-0.640207	0.000016
H288	H	1.338230	-0.140207	0.500016
H289	H	0.884688	-0.594544	-0.055665
H290	H	1.384688	-0.094544	0.444335
H291	H	0.884685	-0.594560	0.055697
H292	H	1.384685	-0.094560	0.555697
H293	H	0.833986	-0.348425	-0.000017
H294	H	1.333986	0.151575	0.499983
H295	H	0.919305	-0.189665	0.000071
H296	H	1.419305	0.310335	0.500071
