data_functionalizedCrystal
_audit_creation_method	'MofGen! by Chris Wilmer'
_symmetry_space_group_name_H-M	'P1'
_symmetry_Int_Tables_number	1
_symmetry_cell_setting	triclinic
loop_
_symmetry_equiv_pos_as_xyz
  x,y,z
_cell_length_a	16.959455
_cell_length_b	12.759394
_cell_length_c	12.759387
_cell_angle_alpha	89.968340
_cell_angle_beta	89.972176
_cell_angle_gamma	90.011857
loop_
_atom_site_label
_atom_site_type_symbol
_atom_site_fract_x
_atom_site_fract_y
_atom_site_fract_z
Zn1	Zn	1.208471	-0.418295	-0.594204
Zn2	Zn	1.208388	-0.594012	-0.418522
Zn3	Zn	1.076282	-0.418338	-0.418518
Zn4	Zn	1.076276	-0.593923	-0.594138
O5	O	1.142354	-0.506142	-0.506345
O6	O	1.319071	-0.441623	-0.570928
O7	O	1.190832	-0.570763	-0.271500
O8	O	1.093854	-0.271311	-0.441849
O9	O	1.319010	-0.570721	-0.441855
O10	O	1.190973	-0.271279	-0.570925
O11	O	1.093774	-0.441697	-0.271498
O12	O	0.965670	-0.441611	-0.441786
O13	O	1.093844	-0.570570	-0.741168
O14	O	0.965666	-0.570612	-0.570813
O15	O	1.190967	-0.441537	-0.741216
O16	O	1.190826	-0.741021	-0.441792
O17	O	1.093764	-0.740956	-0.570816
C18	C	0.936988	-0.506107	-0.506293
C19	C	0.849131	-0.506118	-0.506295
C20	C	1.142307	-0.779109	-0.506320
C21	C	1.142359	-0.895886	-0.506344
C22	C	1.243506	-0.895900	-0.372091
C23	C	1.294100	-0.950768	-0.304977
C24	C	1.294146	-1.060490	-0.305006
C25	C	1.243594	-1.115346	-0.372158
C26	C	1.193000	-1.060478	-0.439272
C27	C	1.192958	-0.950754	-0.439234
C28	C	1.091859	-1.060464	-0.573529
C29	C	1.091807	-0.950742	-0.573496
C30	C	1.041307	-1.115320	-0.640681
C31	C	0.990708	-1.060452	-0.707791
C32	C	0.990663	-0.950724	-0.707759
C33	C	1.041213	-0.895874	-0.640610
C34	C	0.477613	-0.573297	-0.439103
C35	C	0.477698	-0.439074	-0.573716
C36	C	0.560244	-0.439057	-0.573690
C37	C	0.601478	-0.506162	-0.506371
C38	C	0.560167	-0.573284	-0.439078
C39	C	0.601561	-0.371943	-0.640990
C40	C	0.684112	-0.371924	-0.640968
C41	C	0.725348	-0.439024	-0.573643
C42	C	0.684032	-0.506148	-0.506346
C43	C	0.725266	-0.573253	-0.439027
C44	C	0.683951	-0.640373	-0.371723
C45	C	0.601403	-0.640384	-0.371752
C46	C	0.807897	-0.439013	-0.573614
C47	C	0.807820	-0.573240	-0.439001
C48	C	1.348522	-0.506177	-0.506399
C49	C	1.436379	-0.506192	-0.506422
C50	C	1.142414	-0.506039	-0.780379
C51	C	1.142439	-0.505995	-0.897156
C52	C	1.142423	-0.232108	-0.506394
C53	C	1.142453	-0.115332	-0.506415
C54	C	1.243580	-0.371641	-0.897226
C55	C	1.294162	-0.304449	-0.952122
C56	C	1.294181	-0.304410	-1.061843
C57	C	1.243612	-0.371570	-1.116672
C58	C	1.193030	-0.438762	-1.061776
C59	C	1.193018	-0.438795	-0.952052
C60	C	1.091886	-0.573109	-1.061706
C61	C	1.091870	-0.573154	-0.951984
C62	C	1.041317	-0.640268	-1.116534
C63	C	0.990738	-0.707468	-1.061639
C64	C	0.990722	-0.707504	-0.951910
C65	C	1.041288	-0.640347	-0.897089
C66	C	1.142340	-0.506169	-0.233378
C67	C	1.142468	-0.505916	-0.116602
H68	H	1.335260	-0.906095	-0.250305
H69	H	0.717744	-0.317271	-0.695770
N70	N	0.936160	-0.779983	-0.892718
H71	H	0.968255	-0.828702	-0.847197
H72	H	0.899546	-0.737219	-0.847250
H73	H	1.041283	-0.640374	-0.807747
N74	N	0.433223	-0.366704	-0.646319
H75	H	0.447582	-0.291615	-0.630126
H76	H	0.447646	-0.383194	-0.721324
N77	N	0.936096	-0.891540	-0.780145
H78	H	0.948357	-0.910559	-0.855232
H79	H	0.879654	-0.910731	-0.763678
N80	N	0.433065	-0.645695	-0.366517
H81	H	0.447397	-0.629286	-0.291476
H82	H	0.374526	-0.635494	-0.376827
H83	H	0.949557	-1.105124	-0.762466
N84	N	1.243445	-0.777559	-0.372047
H85	H	1.283142	-0.751134	-0.319323
H86	H	1.257916	-0.751129	-0.444162
N87	N	1.348718	-1.119677	-0.232628
H88	H	1.380736	-1.068282	-0.190085
H89	H	1.316575	-1.165274	-0.183983
H90	H	1.041333	-0.640228	-1.205876
N91	N	0.728426	-0.712745	-0.299110
H92	H	0.714066	-0.787835	-0.315295
H93	H	0.786975	-0.702461	-0.309346
H94	H	0.841387	-0.627883	-0.384177
N95	N	0.936205	-0.779887	-1.120789
H96	H	0.948451	-0.854968	-1.101697
H97	H	0.879752	-0.763473	-1.101654
N98	N	0.556844	-0.712768	-0.299162
H99	H	0.498293	-0.702594	-0.309397
H100	H	0.571276	-0.787820	-0.315375
N101	N	0.557087	-0.299574	-0.713596
H102	H	0.595784	-0.257058	-0.756230
H103	H	0.522860	-0.342411	-0.762145
N104	N	1.348710	-0.232034	-0.892975
H105	H	1.336471	-0.156951	-0.912067
H106	H	1.340996	-0.242356	-0.815159
H107	H	1.335364	-0.249690	-1.106539
H108	H	1.243644	-1.204687	-0.372184
H109	H	1.243577	-0.371675	-0.807885
N110	N	1.041357	-1.233661	-0.640720
H111	H	1.081076	-1.260099	-0.588013
H112	H	0.987122	-1.260073	-0.621385
N113	N	1.243633	-0.371527	-1.235014
H114	H	1.203926	-0.424268	-1.261417
H115	H	1.229153	-0.299406	-1.261367
N116	N	0.852462	-0.366644	-0.646205
H117	H	0.838099	-0.291555	-0.630037
H118	H	0.910997	-0.376914	-0.635935
N119	N	1.041164	-0.777532	-0.640566
H120	H	1.095371	-0.751034	-0.659932
H121	H	1.001409	-0.751177	-0.693261
