data_functionalizedCrystal
_audit_creation_method	'MofGen! by Chris Wilmer'
_symmetry_space_group_name_H-M	'P1'
_symmetry_Int_Tables_number	1
_symmetry_cell_setting	triclinic
loop_
_symmetry_equiv_pos_as_xyz
  x,y,z
_cell_length_a	16.992694
_cell_length_b	13.596369
_cell_length_c	16.974813
_cell_angle_alpha	93.660550
_cell_angle_beta	87.024634
_cell_angle_gamma	89.999564
loop_
_atom_site_label
_atom_site_type_symbol
_atom_site_fract_x
_atom_site_fract_y
_atom_site_fract_z
O1	O	1.040212	0.095010	0.167651
O2	O	0.811928	0.094893	0.165812
O3	O	0.932434	0.085816	0.052030
O4	O	0.919706	0.104086	0.281433
O5	O	0.932422	-0.077767	0.052023
O6	O	0.811916	-0.068691	0.165805
O7	O	1.040200	-0.068573	0.167644
Zn8	Zn	0.926056	-0.094605	0.166723
Zn9	Zn	0.926072	0.120924	0.166732
O10	O	0.919694	-0.059497	0.281426
C11	C	0.782712	0.012916	0.163442
C12	C	0.695676	0.012365	0.156382
N13	N	0.926051	-0.241697	0.166716
C14	C	0.645362	0.017789	0.224498
C15	C	0.563583	0.017247	0.217860
C16	C	0.532118	0.011288	0.143106
C17	C	0.582439	0.005860	0.074985
C18	C	0.664217	0.006396	0.081624
C19	C	0.288550	0.009070	0.115591
C20	C	0.206766	0.008538	0.108957
C21	C	0.187916	0.019923	0.251833
C22	C	0.269696	0.020464	0.258466
C23	C	0.320009	0.015031	0.190345
N24	N	0.448527	0.010737	0.136319
N25	N	0.403599	0.015576	0.197132
C26	C	0.926071	-0.642987	0.166733
C27	C	0.926063	-0.531335	0.166731
C28	C	0.926061	-0.442345	0.166725
C29	C	0.926053	-0.330687	0.166722
C30	C	1.069416	0.013405	0.170013
C31	C	1.156452	0.013962	0.177073
C32	C	0.931944	0.001678	0.022537
C33	C	0.930491	-0.005313	-0.065332
N34	N	0.926083	0.268016	0.166733
C35	C	0.929817	0.080571	-0.106604
C36	C	0.928448	0.074000	-0.189166
C37	C	0.927758	-0.018458	-0.230454
C38	C	0.928429	-0.104348	-0.189176
C39	C	0.929793	-0.097775	-0.106615
C40	C	0.923672	-0.047677	-0.477374
C41	C	0.922311	-0.054244	-0.559940
C42	C	0.922328	0.124105	-0.559925
C43	C	0.923696	0.130670	-0.477363
C44	C	0.924364	0.044779	-0.436092
N45	N	0.926360	-0.025177	-0.314845
N46	N	0.925756	0.051500	-0.351701
C47	C	0.920184	0.024643	0.310918
C48	C	0.921637	0.031641	0.398787
H49	H	0.670973	0.022643	0.285371
N50	N	0.921573	-0.153968	-0.604479
H51	H	0.873227	-0.191543	-0.586788
H52	H	0.920645	-0.145002	-0.663030
H53	H	0.930383	0.155860	-0.072993
N54	N	0.921608	0.216737	-0.604441
H55	H	0.922256	0.276305	-0.565757
H56	H	0.969628	0.217615	-0.642030
N57	N	0.927693	-0.204070	-0.233707
H58	H	0.928326	-0.257480	-0.195030
H59	H	0.878548	-0.210412	-0.264625
H60	H	0.924232	-0.117616	-0.443782
H61	H	0.522620	0.021665	0.273328
H62	H	0.146942	0.024344	0.307293
H63	H	0.927902	0.143936	-0.222766
H64	H	0.329506	0.004646	0.060122
N65	N	0.303631	0.026910	0.339093
H66	H	0.259347	0.030269	0.381239
H67	H	0.337159	-0.033255	0.344967
N68	N	0.172827	0.002116	0.028326
H69	H	0.217109	-0.001245	-0.013822
H70	H	0.139306	-0.058992	0.022461
N71	N	0.548507	-0.000583	-0.005645
H72	H	0.489066	-0.000099	0.000484
H73	H	0.566915	0.057664	-0.035683
H74	H	0.705182	0.001979	0.026156
N75	N	0.930532	-0.190409	-0.062099
H76	H	0.931500	-0.172217	-0.003533
H77	H	0.881711	-0.230228	-0.073193
N78	N	0.924443	0.230391	-0.432832
H79	H	0.923808	0.283803	-0.471507
H80	H	0.876429	0.237275	-0.395237
