data_functionalizedCrystal
_audit_creation_method	'MofGen! by Chris Wilmer'
_symmetry_space_group_name_H-M	'P1'
_symmetry_Int_Tables_number	1
_symmetry_cell_setting	triclinic
loop_
_symmetry_equiv_pos_as_xyz
  x,y,z
_cell_length_a	11.169417
_cell_length_b	18.215399
_cell_length_c	11.169416
_cell_angle_alpha	89.975965
_cell_angle_beta	90.011219
_cell_angle_gamma	89.986667
loop_
_atom_site_label
_atom_site_type_symbol
_atom_site_fract_x
_atom_site_fract_y
_atom_site_fract_z
Zn1	Zn	1.834885	-0.416080	-0.477763
Zn2	Zn	1.834798	-0.293027	-0.678479
Zn3	Zn	1.634194	-0.293035	-0.477812
Zn4	Zn	1.634179	-0.416059	-0.678406
O5	O	1.734514	-0.354550	-0.578115
O6	O	2.002823	-0.399762	-0.504399
O7	O	1.808157	-0.190044	-0.651912
O8	O	1.660859	-0.309368	-0.309856
O9	O	2.002759	-0.309356	-0.651864
O10	O	1.808306	-0.399769	-0.309820
O11	O	1.660774	-0.190049	-0.504482
O12	O	1.466242	-0.309349	-0.504411
O13	O	1.660833	-0.519046	-0.651739
O14	O	1.466231	-0.399735	-0.651786
O15	O	1.808292	-0.519061	-0.504327
O16	O	1.808142	-0.309336	-0.846419
O17	O	1.660748	-0.399727	-0.846365
C18	C	1.422689	-0.354541	-0.578097
C19	C	1.289289	-0.354554	-0.578118
C20	C	1.734571	-0.546503	-0.578019
C21	C	1.734595	-0.628302	-0.577978
C22	C	1.657918	-0.816500	-0.501160
C23	C	1.657938	-0.893359	-0.501136
C24	C	1.811415	-0.893342	-0.654653
C25	C	1.811388	-0.816485	-0.654683
C26	C	1.734641	-0.778066	-0.577929
C27	C	1.734689	-0.931782	-0.577876
C28	C	1.734712	-1.015116	-0.577850
C29	C	1.734615	-0.694727	-0.577956
C30	C	2.047556	-0.354560	-0.578134
C31	C	2.180956	-0.354564	-0.578142
C32	C	1.734466	-0.354545	-0.889940
C33	C	1.734556	-0.354567	-1.023340
C34	C	1.734527	-0.163344	-0.578124
C35	C	1.734735	-0.081545	-0.577827
C36	C	1.734594	-0.354572	-0.265073
C37	C	1.734629	-0.354581	-0.131673
H38	H	1.595425	-0.785221	-0.438662
H39	H	1.873868	-0.785191	-0.717202
H40	H	1.873901	-0.924632	-0.717143
C41	C	1.573544	-0.935633	-0.416676
N42	N	1.509975	-0.967473	-0.353056
