data_functionalizedCrystal
_audit_creation_method	'MofGen! by Chris Wilmer'
_symmetry_space_group_name_H-M	'P1'
_symmetry_Int_Tables_number	1
_symmetry_cell_setting	triclinic
loop_
_symmetry_equiv_pos_as_xyz
  x,y,z
_cell_length_a	13.339070
_cell_length_b	16.776229
_cell_length_c	17.699083
_cell_angle_alpha	89.992455
_cell_angle_beta	99.456154
_cell_angle_gamma	89.993203
loop_
_atom_site_label
_atom_site_type_symbol
_atom_site_fract_x
_atom_site_fract_y
_atom_site_fract_z
O1	O	1.341354	-0.066323	0.379243
O2	O	1.046949	-0.066318	0.329465
O3	O	1.202469	-0.066314	0.245923
O4	O	1.185834	-0.066327	0.462785
O5	O	1.202449	0.066263	0.245911
O6	O	1.046929	0.066259	0.329454
O7	O	1.341334	0.066253	0.379231
Zn8	Zn	1.194128	0.087305	0.354341
Zn9	Zn	1.194155	-0.087370	0.354356
O10	O	1.185814	0.066249	0.462773
C11	C	1.009271	-0.000029	0.321051
C12	C	0.897030	-0.000026	0.295987
C13	C	1.201863	-0.000025	0.217594
C14	C	1.200075	-0.000025	0.133198
N15	N	1.194117	0.206517	0.354331
C16	C	0.531758	-0.000051	0.490868
C17	C	0.637213	-0.000056	0.514418
C18	C	0.702173	-0.000048	0.459813
C19	C	0.661667	-0.000037	0.381652
C20	C	0.556202	-0.000038	0.358099
C21	C	0.726616	-0.000035	0.327044
C22	C	0.686110	-0.000023	0.248884
C23	C	0.580655	-0.000024	0.225335
C24	C	0.515696	-0.000032	0.279940
C25	C	0.832081	-0.000034	0.350597
C26	C	0.856524	-0.000020	0.217829
C27	C	0.751070	-0.000016	0.194278
C28	C	1.379012	-0.000038	0.387645
C29	C	1.491253	-0.000045	0.412709
N30	N	1.194174	-0.206581	0.354361
C31	C	1.263002	0.248235	0.317364
C32	C	1.263008	0.331688	0.317365
C33	C	1.194132	0.373419	0.354337
C34	C	1.125240	0.331695	0.391305
C35	C	1.125230	0.248244	0.391300
C36	C	1.125276	0.668242	0.391328
C37	C	1.125293	0.751698	0.391333
C38	C	1.263054	0.751686	0.317393
C39	C	1.263044	0.668235	0.317387
C40	C	1.194149	0.626517	0.354352
C41	C	1.194142	0.536029	0.354349
C42	C	1.194143	0.463906	0.354345
C43	C	1.291362	-0.000026	0.103873
C44	C	1.289675	-0.000033	0.024573
C45	C	1.196701	-0.000033	-0.025400
C46	C	1.105407	-0.000035	0.003930
C47	C	1.107095	-0.000034	0.083228
C48	C	1.098600	-0.000041	-0.315872
C49	C	1.096920	-0.000040	-0.395175
C50	C	1.281181	-0.000040	-0.374527
C51	C	1.282869	-0.000039	-0.295229
C52	C	1.191575	-0.000045	-0.265906
C53	C	1.193405	-0.000039	-0.179920
C54	C	1.194871	-0.000034	-0.111385
C55	C	1.186420	-0.000041	0.491102
C56	C	1.188208	-0.000047	0.575498
H57	H	0.865050	-0.000040	0.414236
H58	H	0.788038	-0.000054	0.478992
Br59	Br	0.970732	-0.000040	-0.462997
H60	H	1.024263	-0.000046	-0.292008
Br61	Br	0.979226	-0.000049	-0.063891
H62	H	1.364011	-0.000031	0.000701
H63	H	0.670185	-0.000072	0.578056
H64	H	1.069135	0.214277	0.421401
Br65	Br	0.983200	-0.000039	0.123027
H66	H	0.478860	-0.000064	0.535319
H67	H	0.547679	-0.000023	0.161691
Br68	Br	1.409052	-0.000039	-0.227411
Br69	Br	1.405083	-0.000032	-0.414326
Br70	Br	1.031814	0.808335	0.441514
Br71	Br	1.356556	0.808306	0.267225
H72	H	0.429825	-0.000028	0.260769
H73	H	0.909415	-0.000017	0.173364
Br74	Br	0.696085	0.000002	0.088206
Br75	Br	1.417548	-0.000013	0.171687
H76	H	1.319092	0.214263	0.287261
Br77	Br	1.356492	0.388309	0.267191
H78	H	1.319132	0.634259	0.287284
H79	H	1.069155	0.365678	0.421406
Br80	Br	1.031780	0.611630	0.441494
