data_functionalizedCrystal
_audit_creation_method	'MofGen! by Chris Wilmer'
_symmetry_space_group_name_H-M	'P1'
_symmetry_Int_Tables_number	1
_symmetry_cell_setting	triclinic
loop_
_symmetry_equiv_pos_as_xyz
  x,y,z
_cell_length_a	19.077312
_cell_length_b	29.839131
_cell_length_c	19.076919
_cell_angle_alpha	87.739939
_cell_angle_beta	85.331053
_cell_angle_gamma	87.741726
loop_
_atom_site_label
_atom_site_type_symbol
_atom_site_fract_x
_atom_site_fract_y
_atom_site_fract_z
Zn1	Zn	1.061590	-0.215151	0.355208
Zn2	Zn	1.561590	0.284849	0.855208
Zn3	Zn	1.066224	-0.287374	0.237306
Zn4	Zn	1.566224	0.212626	0.737306
Zn5	Zn	0.948449	-0.209366	0.242077
Zn6	Zn	1.448449	0.290634	0.742077
Zn7	Zn	0.943656	-0.287355	0.359889
Zn8	Zn	1.443656	0.212645	0.859889
O9	O	1.004980	-0.249811	0.298620
O10	O	1.504980	0.250189	0.798620
O11	O	1.160850	-0.227160	0.335612
O12	O	1.660850	0.272840	0.835612
O13	O	1.054546	-0.274612	0.139292
O14	O	1.554546	0.225388	0.639292
O15	O	0.963524	-0.147268	0.257122
O16	O	1.463524	0.352732	0.757122
O17	O	1.164254	-0.280222	0.248990
O18	O	1.664254	0.219778	0.748990
O19	O	1.046648	-0.151519	0.340238
O20	O	1.546648	0.348481	0.840238
O21	O	0.968018	-0.217300	0.142797
O22	O	1.468018	0.282700	0.642797
O23	O	0.849168	-0.217282	0.261661
O24	O	1.349168	0.282718	0.761661
O25	O	0.955354	-0.280190	0.457915
O26	O	1.455354	0.219810	0.957915
O27	O	0.845646	-0.274581	0.348217
O28	O	1.345646	0.225419	0.848217
O29	O	1.042000	-0.227142	0.454476
O30	O	1.542000	0.272858	0.954476
O31	O	1.049898	-0.350236	0.253529
O32	O	1.549898	0.149764	0.753529
O33	O	0.959848	-0.350222	0.343591
O34	O	1.459848	0.149778	0.843591
C35	C	0.821829	-0.245302	0.305965
C36	C	1.321829	0.254698	0.805965
C37	C	0.743476	-0.243384	0.309124
C38	C	1.243476	0.256616	0.809124
C39	C	0.302240	-0.229593	0.331787
C40	C	0.802240	0.270407	0.831787
C41	C	0.375861	-0.231403	0.328815
C42	C	0.875861	0.268597	0.828815
C43	C	0.414439	-0.259886	0.282157
C44	C	0.914439	0.240114	0.782157
C45	C	0.379391	-0.286563	0.238473
C46	C	0.879391	0.213437	0.738473
C47	C	0.305771	-0.284755	0.241449
C48	C	0.805771	0.215245	0.741449
C49	C	0.634808	-0.268253	0.268416
C50	C	1.134808	0.231747	0.768416
C51	C	0.708434	-0.270059	0.265441
C52	C	1.208434	0.229941	0.765441
C53	C	0.704899	-0.214899	0.355785
C54	C	1.204899	0.285101	0.855785
C55	C	0.631278	-0.213091	0.358754
C56	C	1.131278	0.286909	0.858754
C57	C	0.596236	-0.239770	0.315073
C58	C	1.096236	0.260230	0.815073
N59	N	0.489691	-0.261736	0.279116
N60	N	0.989691	0.238264	0.779116
N61	N	0.520985	-0.237922	0.318117
N62	N	1.020985	0.262078	0.818117
C63	C	1.004874	-0.366530	0.298565
C64	C	1.504874	0.133470	0.798565
C65	C	1.004893	-0.416465	0.298562
C66	C	1.504893	0.083535	0.798562
C67	C	1.048250	-0.728291	0.341963
C68	C	1.548250	-0.228291	0.841963
C69	C	1.048325	-0.915967	0.342003
C70	C	1.548325	-0.415967	0.842003
O71	O	1.085085	-0.942085	0.378864
O72	O	1.585085	-0.442085	0.878864
N73	N	1.005096	-0.937258	0.298693
N74	N	1.505096	-0.437258	0.798693
C75	C	0.961842	-0.911627	0.255375
C76	C	1.461842	-0.411627	0.755375
O77	O	0.925070	-0.934043	0.218543
O78	O	1.425070	-0.434043	0.718543
C79	C	0.961764	-0.723952	0.255339
C80	C	1.461764	-0.223952	0.755339
C81	C	1.005001	-0.702664	0.298646
C82	C	1.505001	-0.202664	0.798646
C83	C	1.091482	-0.707003	0.385267
C84	C	1.591482	-0.207003	0.885267
C85	C	1.091466	-0.660086	0.385254
C86	C	1.591466	-0.160086	0.885254
C87	C	1.048217	-0.634459	0.341937
C88	C	1.548217	-0.134459	0.841937
C89	C	1.004985	-0.655747	0.298633
C90	C	1.504985	-0.155747	0.798633
C91	C	0.918508	-0.698322	0.212025
C92	C	1.418508	-0.198322	0.712025
C93	C	0.918491	-0.651400	0.212021
C94	C	1.418491	-0.151400	0.712021
C95	C	0.961727	-0.630112	0.255328
C96	C	1.461727	-0.130112	0.755328
C97	C	0.961720	-0.583204	0.255303
C98	C	1.461720	-0.083204	0.755303
N99	N	1.004948	-0.561913	0.298613
N100	N	1.504948	-0.061913	0.798613
C101	C	1.048197	-0.587540	0.341930
C102	C	1.548197	-0.087540	0.841930
C103	C	0.961887	-1.010159	0.255395
C104	C	1.461887	-0.510159	0.755395
C105	C	0.961908	-1.057078	0.255403
C106	C	1.461908	-0.557078	0.755403
C107	C	1.048389	-1.061415	0.342032
C108	C	1.548389	-0.561415	0.842032
C109	C	1.048372	-1.014495	0.342020
C110	C	1.548372	-0.514495	0.842020
C111	C	1.005116	-0.988868	0.298704
C112	C	1.505116	-0.488868	0.798704
C113	C	1.048160	-0.489013	0.341898
C114	C	1.548160	0.010987	0.841898
C115	C	1.048142	-0.442092	0.341879
C116	C	1.548142	0.057908	0.841879
C117	C	0.961658	-0.437759	0.255253
C118	C	1.461658	0.062241	0.755253
C119	C	0.961678	-0.484676	0.255269
C120	C	1.461678	0.015324	0.755269
C121	C	1.004931	-0.510302	0.298597
C122	C	1.504931	-0.010302	0.798597
O123	O	0.924973	-0.557058	0.218467
O124	O	1.424973	-0.057058	0.718467
O125	O	1.084952	-0.565116	0.378767
O126	O	1.584952	-0.065116	0.878767
C127	C	1.048266	-0.775207	0.341977
C128	C	1.548266	-0.275207	0.841977
C129	C	1.005034	-0.796496	0.298673
C130	C	1.505034	-0.296496	0.798673
C131	C	0.961785	-0.770868	0.255355
C132	C	1.461785	-0.270868	0.755355
C133	C	1.005054	-0.843415	0.298680
C134	C	1.505054	-0.343415	0.798680
C135	C	1.048303	-0.869042	0.341997
C136	C	1.548303	-0.369042	0.841997
C137	C	1.091531	-0.847751	0.385307
C138	C	1.591531	-0.347751	0.885307
C139	C	1.091515	-0.800835	0.385294
C140	C	1.591515	-0.300835	0.885294
C141	C	0.918556	-0.792159	0.212046
C142	C	1.418556	-0.292159	0.712046
C143	C	0.918577	-0.839076	0.212062
C144	C	1.418577	-0.339076	0.712062
C145	C	0.961826	-0.864703	0.255379
C146	C	1.461826	-0.364703	0.755379
C147	C	1.188845	-0.254338	0.291247
C148	C	1.688845	0.245662	0.791247
C149	C	1.267197	-0.256268	0.288105
C150	C	1.767197	0.243732	0.788105
C151	C	0.997625	-0.254309	0.482489
C152	C	1.497625	0.245691	0.982489
C153	C	0.994492	-0.256226	0.560842
C154	C	1.494492	0.243774	1.060842
C155	C	1.005104	-0.132638	0.298690
C156	C	1.505104	0.367362	0.798690
C157	C	1.005157	-0.082705	0.298720
C158	C	1.505157	0.417295	0.798720
C159	C	1.012346	-0.245299	0.115465
C160	C	1.512346	0.254701	0.615465
C161	C	1.015616	-0.243259	0.037106
C162	C	1.515616	0.256741	0.537106
C163	C	1.038129	-0.229509	0.595864
C164	C	1.538129	0.270491	1.095864
C165	C	1.035176	-0.231308	0.669486
C166	C	1.535176	0.268692	1.169486
C167	C	0.988588	-0.259827	0.708085
C168	C	1.488588	0.240173	1.208085
C169	C	0.944946	-0.286546	0.673059
C170	C	1.444946	0.213454	1.173059
C171	C	0.947896	-0.284744	0.599438
C172	C	1.447896	0.215256	1.099438
C173	C	0.974924	-0.268176	0.928459
C174	C	1.474924	0.231824	1.428459
C175	C	0.971979	-0.269977	1.002085
C176	C	1.471979	0.230023	1.502085
C177	C	1.062208	-0.214738	0.998507
C178	C	1.562208	0.285262	1.498507
C179	C	1.065157	-0.212940	0.924885
C180	C	1.565157	0.287060	1.424885
C181	C	1.021512	-0.239657	0.889865
C182	C	1.521512	0.260343	1.389865
N183	N	0.985570	-0.261668	0.783339
N184	N	1.485570	0.238332	1.283339
N185	N	1.024527	-0.237814	0.814613
N186	N	1.524527	0.262186	1.314613
H187	H	0.606287	-0.289976	0.232845
H188	H	1.106287	0.210024	0.732845
H189	H	1.126722	-0.783505	0.420558
H190	H	1.626722	-0.283505	0.920558
H191	H	1.126671	-0.642756	0.420521
H192	H	1.626671	-0.142756	0.920521
Br193	Br	0.249892	-0.190933	0.395107
Br194	Br	0.749892	0.309067	0.895107
Br195	Br	0.881715	-0.325249	0.725443
Br196	Br	1.381715	0.174751	1.225443
H197	H	0.733438	-0.193179	0.391349
H198	H	1.233438	0.306821	0.891349
Br199	Br	0.902967	-0.402970	0.196467
Br200	Br	1.402967	0.097030	0.696467
H201	H	1.126700	-0.727864	0.420546
H202	H	1.626700	-0.227864	0.920546
H203	H	0.739841	-0.293254	0.227445
H204	H	1.239841	0.206746	0.727445
Br205	Br	0.431744	-0.325222	0.175155
Br206	Br	0.931744	0.174778	0.675155
H207	H	1.083376	-0.509872	0.377185
H208	H	1.583376	-0.009872	0.877185
Br209	Br	0.423417	-0.195205	0.388107
Br210	Br	0.923417	0.304795	0.888107
Br211	Br	0.258211	-0.320963	0.182172
Br212	Br	0.758211	0.179037	0.682172
H213	H	1.070711	-0.209553	0.697997
H214	H	1.570711	0.290447	1.197997
H215	H	1.083353	-0.424761	0.377145
H216	H	1.583353	0.075239	0.877145
Br217	Br	1.150229	-0.882541	0.444090
Br218	Br	1.650229	-0.382541	0.944090
H219	H	0.912355	-0.306496	0.570925
H220	H	1.412355	0.193504	1.070925
Br221	Br	0.903011	-0.513568	0.196484
Br222	Br	1.403011	-0.013568	0.696484
Br223	Br	1.128387	-0.174235	0.872505
Br224	Br	1.628387	0.325765	1.372505
H225	H	0.599873	-0.189900	0.396751
H226	H	1.099873	0.310100	0.896751
Br227	Br	1.107052	-0.985609	0.400796
Br228	Br	1.607052	-0.485609	0.900796
Br229	Br	0.859850	-0.757386	0.153258
Br230	Br	1.359850	-0.257386	0.653258
Br231	Br	1.107084	-1.096204	0.400819
Br232	Br	1.607084	-0.596204	0.900819
H233	H	1.076067	-0.206287	0.564441
H234	H	1.576067	0.293713	1.064441
Br235	Br	0.908747	-0.308682	1.054470
Br236	Br	1.408747	0.191318	1.554470
Br237	Br	0.903240	-1.085963	0.196614
Br238	Br	1.403240	-0.585963	0.696614
H239	H	0.926662	-0.989297	0.220120
H240	H	1.426662	-0.489297	0.720120
Br241	Br	0.859781	-0.616623	0.153233
Br242	Br	1.359781	-0.116623	0.653233
H243	H	0.883300	-0.715647	0.176759
H244	H	1.383300	-0.215647	0.676759
H245	H	0.883370	-0.856404	0.176790
H246	H	1.383370	-0.356404	0.676790
H247	H	1.097740	-0.192986	1.027028
H248	H	1.597740	0.307014	1.527028
H249	H	0.939396	-0.289937	0.899955
H250	H	1.439396	0.210063	1.399955
