data_functionalizedCrystal
_audit_creation_method	'MofGen! by Chris Wilmer'
_symmetry_space_group_name_H-M	'P1'
_symmetry_Int_Tables_number	1
_symmetry_cell_setting	triclinic
loop_
_symmetry_equiv_pos_as_xyz
  x,y,z
_cell_length_a	27.732048
_cell_length_b	27.732048
_cell_length_c	26.210047
_cell_angle_alpha	90.000479
_cell_angle_beta	89.996535
_cell_angle_gamma	97.357345
loop_
_atom_site_label
_atom_site_type_symbol
_atom_site_fract_x
_atom_site_fract_y
_atom_site_fract_z
O1	O	0.640931	-0.057510	-0.042369
O2	O	1.140931	0.442490	0.457631
O3	O	0.500138	-0.066256	-0.042385
O4	O	1.000138	0.433744	0.457615
O5	O	0.574907	0.008514	-0.042367
O6	O	1.074907	0.508514	0.457633
O7	O	0.566162	-0.132279	-0.042387
O8	O	1.066162	0.367721	0.457613
O9	O	0.574893	0.008502	0.042491
O10	O	1.074893	0.508502	0.542491
O11	O	0.500123	-0.066267	0.042473
O12	O	1.000123	0.433733	0.542473
O13	O	0.640917	-0.057522	0.042489
O14	O	1.140917	0.442478	0.542489
Cu15	Cu	0.570519	-0.061896	0.050229
Cu16	Cu	1.070519	0.438104	0.550229
Cu17	Cu	0.570536	-0.061882	-0.050125
Cu18	Cu	1.070536	0.438118	0.449875
O19	O	0.566147	-0.132291	0.042471
O20	O	1.066147	0.367709	0.542471
C21	C	0.482124	-0.066078	0.000042
C22	C	0.982124	0.433922	0.500042
C23	C	0.428469	-0.065525	0.000036
C24	C	0.928469	0.434475	0.500036
C25	C	0.089654	-0.106229	0.000053
C26	C	0.589654	0.393771	0.500053
C27	C	-0.112006	-0.104178	0.000057
C28	C	0.387994	0.395822	0.500057
O29	O	-0.143262	-0.141398	0.000074
O30	O	0.356738	0.358602	0.500074
N31	N	-0.131130	-0.059843	0.000063
N32	N	0.368870	0.440157	0.500063
C33	C	-0.099835	-0.016017	0.000071
C34	C	0.400165	0.483983	0.500071
O35	O	-0.120728	0.021740	0.000081
O36	O	0.379272	0.521740	0.500081
C37	C	0.101824	-0.018068	0.000069
C38	C	0.601824	0.481932	0.500069
C39	C	0.120944	-0.062407	0.000059
C40	C	0.620944	0.437593	0.500059
C41	C	0.108775	-0.150563	0.000043
C42	C	0.608775	0.349437	0.500043
C43	C	0.159187	-0.151076	0.000039
C44	C	0.659187	0.348924	0.500039
C45	C	0.190477	-0.107253	0.000045
C46	C	0.690477	0.392747	0.500045
C47	C	0.171356	-0.062919	0.000055
C48	C	0.671356	0.437081	0.500055
C49	C	0.133117	0.025757	0.000081
C50	C	0.633117	0.525757	0.500081
C51	C	0.183535	0.025240	0.000082
C52	C	0.683535	0.525240	0.500082
C53	C	0.202655	-0.019098	0.000071
C54	C	0.702655	0.480902	0.500071
C55	C	0.253059	-0.019609	0.000057
C56	C	0.753059	0.480391	0.500057
N57	N	0.272183	-0.063944	0.000051
N58	N	0.772183	0.436056	0.500051
C59	C	0.240892	-0.107766	0.000045
C60	C	0.740892	0.392234	0.500045
C61	C	-0.205709	-0.014943	0.000070
C62	C	0.294291	0.485057	0.500070
C63	C	-0.256124	-0.014430	0.000070
C64	C	0.243876	0.485570	0.500070
C65	C	-0.268291	-0.102591	0.000057
C66	C	0.231709	0.397409	0.500057
C67	C	-0.217876	-0.103104	0.000054
C68	C	0.282124	0.396896	0.500054
C69	C	-0.186585	-0.059278	0.000065
C70	C	0.313415	0.440722	0.500065
C71	C	0.346761	-0.108839	0.000036
C72	C	0.846761	0.391161	0.500036
C73	C	0.397178	-0.109347	0.000030
C74	C	0.897178	0.390653	0.500030
C75	C	0.409341	-0.021186	0.000045
C76	C	0.909341	0.478814	0.500045
C77	C	0.358929	-0.020678	0.000049
C78	C	0.858929	0.479322	0.500049
C79	C	0.327639	-0.064508	0.000046
C80	C	0.827639	0.435492	0.500046
O81	O	0.284343	0.017592	0.000046
O82	O	0.784343	0.517592	0.500046
O83	O	0.261794	-0.145518	0.000047
O84	O	0.761794	0.354482	0.500047
C85	C	0.039242	-0.105716	0.000057
C86	C	0.539242	0.394284	0.500057
C87	C	0.020120	-0.061382	0.000067
C88	C	0.520120	0.438618	0.500067
C89	C	0.051411	-0.017560	0.000073
C90	C	0.551411	0.482440	0.500073
C91	C	-0.030294	-0.060869	0.000066
C92	C	0.469706	0.439131	0.500066
C93	C	-0.061585	-0.104691	0.000060
C94	C	0.438415	0.395309	0.500060
C95	C	-0.042461	-0.149026	0.000054
C96	C	0.457539	0.350974	0.500054
C97	C	0.007951	-0.149539	0.000050
C98	C	0.507951	0.350461	0.500050
C99	C	0.032287	0.026775	0.000078
C100	C	0.532287	0.526775	0.500078
C101	C	-0.018125	0.027284	0.000082
C102	C	0.481875	0.527284	0.500082
C103	C	-0.049416	-0.016538	0.000076
C104	C	0.450584	0.483462	0.500076
C105	C	0.574716	0.026515	0.000064
C106	C	1.074716	0.526515	0.500064
C107	C	0.574164	0.080170	0.000068
C108	C	1.074164	0.580170	0.500068
C109	C	0.658931	-0.057699	0.000061
C110	C	1.158931	0.442301	0.500061
C111	C	0.712586	-0.058252	0.000064
C112	C	1.212586	0.441748	0.500064
C113	C	0.566338	-0.150292	0.000040
C114	C	1.066338	0.349708	0.500040
C115	C	0.566891	-0.203947	0.000032
C116	C	1.066891	0.296053	0.500032
N117	N	0.570510	-0.061905	0.120813
N118	N	1.070510	0.438095	0.620813
C119	C	0.614867	0.418985	0.000046
C120	C	1.114867	0.918985	0.500046
C121	C	0.612816	0.620645	0.000039
C122	C	1.112816	1.120645	0.500039
O123	O	0.650037	0.651900	0.000021
O124	O	1.150037	1.151900	0.500021
N125	N	0.568481	0.639768	0.000034
N126	N	1.068481	1.139768	0.500034
C127	C	0.524656	0.608474	0.000028
C128	C	1.024656	1.108474	0.500028
O129	O	0.486899	0.629367	0.000019
O130	O	0.986899	1.129367	0.500019
C131	C	0.526707	0.406815	0.000032
C132	C	1.026707	0.906815	0.500032
C133	C	0.571045	0.387694	0.000042
C134	C	1.071045	0.887694	0.500042
C135	C	0.659202	0.399864	0.000056
C136	C	1.159202	0.899864	0.500056
C137	C	0.659714	0.349452	0.000060
C138	C	1.159714	0.849452	0.500060
C139	C	0.615892	0.318161	0.000056
C140	C	1.115892	0.818161	0.500056
C141	C	0.571557	0.337282	0.000046
C142	C	1.071557	0.837282	0.500046
C143	C	0.482882	0.375521	0.000022
C144	C	0.982882	0.875521	0.500022
C145	C	0.483399	0.325104	0.000022
C146	C	0.983399	0.825104	0.500022
C147	C	0.527737	0.305983	0.000032
C148	C	1.027737	0.805983	0.500032
C149	C	0.528247	0.255580	0.000046
C150	C	1.028247	0.755580	0.500046
N151	N	0.572583	0.236456	0.000051
N152	N	1.072583	0.736456	0.500051
C153	C	0.616405	0.267747	0.000056
C154	C	1.116405	0.767747	0.500056
C155	C	0.523582	0.714348	0.000027
C156	C	1.023582	1.214348	0.500027
C157	C	0.523069	0.764762	0.000027
C158	C	1.023069	1.264762	0.500027
C159	C	0.611230	0.776930	0.000037
C160	C	1.111230	1.276930	0.500037
C161	C	0.611742	0.726514	0.000041
C162	C	1.111742	1.226514	0.500041
C163	C	0.567917	0.695224	0.000032
C164	C	1.067917	1.195224	0.500032
C165	C	0.617477	0.161878	0.000066
C166	C	1.117477	0.661878	0.500066
C167	C	0.617986	0.111461	0.000073
C168	C	1.117986	0.611461	0.500073
C169	C	0.529825	0.099298	0.000060
C170	C	1.029825	0.599298	0.500060
C171	C	0.529316	0.149710	0.000056
C172	C	1.029316	0.649710	0.500056
C173	C	0.573147	0.180999	0.000057
C174	C	1.073147	0.680999	0.500057
O175	O	0.491047	0.224296	0.000059
O176	O	0.991047	0.724296	0.500059
O177	O	0.654156	0.246844	0.000054
O178	O	1.154156	0.746844	0.500054
C179	C	0.614355	0.469397	0.000042
C180	C	1.114355	0.969397	0.500042
C181	C	0.570021	0.488518	0.000033
C182	C	1.070021	0.988518	0.500033
C183	C	0.526198	0.457228	0.000028
C184	C	1.026198	0.957228	0.500028
C185	C	0.569508	0.538933	0.000033
C186	C	1.069508	1.038933	0.500033
C187	C	0.613330	0.570223	0.000037
C188	C	1.113330	1.070223	0.500037
C189	C	0.657665	0.551100	0.000042
C190	C	1.157665	1.051100	0.500042
C191	C	0.658177	0.500688	0.000046
C192	C	1.158177	1.000688	0.500046
C193	C	0.481863	0.476351	0.000023
C194	C	0.981863	0.976351	0.500023
C195	C	0.481355	0.526764	0.000019
C196	C	0.981355	1.026764	0.500019
C197	C	0.525177	0.558054	0.000024
C198	C	1.025177	1.058054	0.500024
N199	N	0.570548	-0.061868	-0.120709
N200	N	1.070548	0.438132	0.379291
C201	C	0.603640	-0.028781	0.473336
C202	C	1.103640	0.471219	0.973336
C203	C	0.603651	-0.028774	0.686994
C204	C	1.103651	0.471226	1.186994
O205	O	0.631801	-0.000614	0.714623
O206	O	1.131801	0.499386	1.214623
N207	N	0.570538	-0.061871	0.713707
N208	N	1.070538	0.438129	1.213707
C209	C	0.537419	-0.094970	0.687003
C210	C	1.037419	0.405030	1.187003
O211	O	0.509251	-0.123117	0.714626
O212	O	1.009251	0.376883	1.214626
C213	C	0.537406	-0.094974	0.473345
C214	C	1.037406	0.405026	0.973345
C215	C	0.570524	-0.061878	0.446635
C216	C	1.070524	0.438122	0.946635
C217	C	0.636755	0.004312	0.446625
C218	C	1.136755	0.504312	0.946625
C219	C	0.636754	0.004308	0.393214
C220	C	1.136754	0.504308	0.893214
C221	C	0.603638	-0.028789	0.366513
C222	C	1.103638	0.471211	0.866513
C223	C	0.570523	-0.061882	0.393223
C224	C	1.070523	0.438118	0.893223
C225	C	0.504284	-0.128070	0.446641
C226	C	1.004284	0.371930	0.946641
C227	C	0.504283	-0.128067	0.393223
C228	C	1.004283	0.371933	0.893223
C229	C	0.537401	-0.094971	0.366513
C230	C	1.037401	0.405029	0.866513
C231	C	0.537405	-0.094983	0.313111
C232	C	1.037405	0.405017	0.813111
N233	N	0.570518	-0.061886	0.286397
N234	N	1.070518	0.438114	0.786397
C235	C	0.603634	-0.028789	0.313098
C236	C	1.103634	0.471211	0.813098
C237	C	0.537428	-0.094966	0.799176
C238	C	1.037428	0.405034	1.299176
C239	C	0.537432	-0.094965	0.852590
C240	C	1.037432	0.405035	1.352590
C241	C	0.603664	-0.028769	0.852578
C242	C	1.103664	0.471231	1.352578
C243	C	0.603662	-0.028773	0.799163
C244	C	1.103662	0.471227	1.299163
C245	C	0.570541	-0.061869	0.772463
C246	C	1.070541	0.438131	1.272463
C247	C	0.603629	-0.028800	0.200931
C248	C	1.103629	0.471200	0.700931
C249	C	0.603626	-0.028808	0.147514
C250	C	1.103626	0.471192	0.647514
C251	C	0.537393	-0.095002	0.147531
C252	C	1.037393	0.404998	0.647531
C253	C	0.537397	-0.094996	0.200943
C254	C	1.037397	0.405004	0.700943
C255	C	0.570517	-0.061891	0.227641
C256	C	1.070517	0.438109	0.727641
O257	O	0.509267	-0.123125	0.285449
O258	O	1.009267	0.376875	0.785449
O259	O	0.631790	-0.000639	0.285466
O260	O	1.131790	0.499361	0.785466
C261	C	0.603641	-0.028777	0.526747
C262	C	1.103641	0.471223	1.026747
C263	C	0.570527	-0.061871	0.553457
C264	C	1.070527	0.438129	1.053457
C265	C	0.537410	-0.094968	0.526756
C266	C	1.037410	0.405032	1.026756
C267	C	0.570530	-0.061870	0.606872
C268	C	1.070530	0.438130	1.106872
C269	C	0.603646	-0.028773	0.633573
C270	C	1.103646	0.471227	1.133573
C271	C	0.636759	0.004323	0.606859
C272	C	1.136759	0.504323	1.106859
C273	C	0.636758	0.004320	0.553448
C274	C	1.136758	0.504320	1.053448
C275	C	0.504298	-0.128064	0.553470
C276	C	1.004298	0.371936	1.053470
C277	C	0.504302	-0.128058	0.606881
C278	C	1.004302	0.371942	1.106881
C279	C	0.537418	-0.094961	0.633582
C280	C	1.037418	0.405039	1.133582
H281	H	-0.180236	0.020747	0.000079
H282	H	0.319764	0.520747	0.500079
O283	O	-0.199362	-0.146204	-0.000021
O284	O	0.300638	0.353796	0.499979
C285	C	-0.215372	-0.172881	-0.043981
C286	C	0.284628	0.327119	0.456019
H287	H	-0.250241	-0.159967	-0.058633
H288	H	0.249759	0.340033	0.441367
H289	H	-0.222671	-0.213189	-0.034103
H290	H	0.277329	0.286811	0.465897
H291	H	-0.186150	-0.167059	-0.074753
H292	H	0.313850	0.332941	0.425247
H293	H	0.343360	0.015426	0.000050
H294	H	0.843360	0.515426	0.500050
H295	H	0.321291	-0.144530	0.000036
H296	H	0.821291	0.355470	0.500036
O297	O	0.472062	-0.160153	0.367265
O298	O	0.972062	0.339847	0.867265
C299	C	0.442444	-0.134473	0.336359
C300	C	0.942444	0.365527	0.836359
H301	H	0.441917	-0.096354	0.352452
H302	H	0.941917	0.403646	0.852452
H303	H	0.403875	-0.154459	0.335761
H304	H	0.903875	0.345541	0.835761
H305	H	0.457587	-0.131841	0.295875
H306	H	0.957587	0.368159	0.795875
H307	H	0.486964	0.780325	0.000028
H308	H	0.986964	1.280325	0.500028
H309	H	0.023514	-0.185643	0.000042
H310	H	0.523514	0.314357	0.500042
O311	O	0.505302	-0.127188	0.773268
O312	O	1.005302	0.372812	1.273268
C313	C	0.512799	-0.174983	0.786336
C314	C	1.012799	0.325017	1.286336
H315	H	0.551500	-0.174946	0.801009
H316	H	1.051500	0.325054	1.301009
H317	H	0.507051	-0.199288	0.751215
H318	H	1.007051	0.300712	1.251215
H319	H	0.485908	-0.189361	0.817351
H320	H	0.985908	0.310639	1.317351
O321	O	0.487302	0.068828	0.000032
O322	O	0.987302	0.568828	0.500032
C323	C	0.497268	0.020233	0.000048
C324	C	0.997268	0.520233	0.500048
H325	H	0.535226	0.018582	-0.016008
H326	H	1.035226	0.518582	0.483992
H327	H	0.469321	-0.002817	-0.024594
H328	H	0.969321	0.497183	0.475406
H329	H	0.495315	0.005638	0.040759
H330	H	0.995315	0.505638	0.540759
H331	H	0.412743	-0.145454	0.000021
H332	H	0.912743	0.354546	0.500021
O333	O	0.438238	0.545254	-0.000012
O334	O	0.938238	1.045254	0.499988
C335	C	0.399673	0.506819	-0.000004
C336	C	0.899673	1.006819	0.499996
H337	H	0.412970	0.472666	-0.016060
H338	H	0.912970	0.972666	0.483940
H339	H	0.368701	0.517123	-0.024650
H340	H	0.868701	1.017123	0.475350
H341	H	0.386164	0.499589	0.040705
H342	H	0.886164	0.999589	0.540705
H343	H	0.630629	-0.001823	0.777418
H344	H	1.130629	0.498177	1.277418
O345	O	0.635823	0.003291	0.226915
O346	O	1.135823	0.503291	0.726915
C347	C	0.665460	-0.022387	0.257800
C348	C	1.165460	0.477613	0.757800
H349	H	0.645924	-0.060344	0.265815
H350	H	1.145924	0.439656	0.765815
H351	H	0.673267	-0.002150	0.295355
H352	H	1.173267	0.497850	0.795355
H353	H	0.701155	-0.025432	0.237206
H354	H	1.201155	0.474568	0.737206
H355	H	0.510469	-0.121920	0.874334
H356	H	1.010469	0.378080	1.374334
H357	H	-0.271687	0.021674	0.000070
H358	H	0.228313	0.521674	0.500070
O359	O	0.114632	0.068870	0.000119
O360	O	0.614632	0.568870	0.500119
C361	C	0.153070	0.107432	0.000116
C362	C	0.653070	0.607432	0.500116
H363	H	0.187219	0.094131	0.016173
H364	H	0.687219	0.594131	0.516173
H365	H	0.142766	0.138404	0.024765
H366	H	0.642766	0.638404	0.524765
H367	H	0.160305	0.120942	-0.040591
H368	H	0.660305	0.620942	0.459409
H369	H	0.630597	-0.001858	0.125768
H370	H	1.130597	0.498142	0.625768
O371	O	-0.072911	-0.191564	-0.000019
O372	O	0.427089	0.308436	0.499981
C373	C	-0.102428	-0.193902	-0.043973
C374	C	0.397572	0.306098	0.456027
H375	H	-0.104690	-0.155551	-0.058620
H376	H	0.395310	0.344449	0.441380
H377	H	-0.140457	-0.212192	-0.034088
H378	H	0.359543	0.287808	0.465912
H379	H	-0.086005	-0.215853	-0.074751
H380	H	0.413995	0.284147	0.425249
H381	H	0.209009	0.060929	0.000091
H382	H	0.709009	0.560929	0.500091
O383	O	0.661028	0.092830	0.000012
O384	O	1.161028	0.592830	0.500012
C385	C	0.663976	0.064040	-0.043941
C386	C	1.163976	0.564040	0.456059
H387	H	0.625784	0.051201	-0.058596
H388	H	1.125784	0.551201	0.441404
H389	H	0.682993	0.031166	-0.034052
H390	H	1.182993	0.531166	0.465948
H391	H	0.685534	0.086472	-0.074715
H392	H	1.185534	0.586472	0.425285
H393	H	0.510434	-0.121950	0.222691
H394	H	1.010434	0.378050	0.722691
H395	H	0.663720	0.031259	0.371469
H396	H	1.163720	0.531259	0.871469
O397	O	-0.298643	-0.145192	0.000122
O398	O	0.201357	0.354808	0.500122
C399	C	-0.290041	-0.172130	0.044077
C400	C	0.209959	0.327870	0.544077
H401	H	-0.251705	-0.159975	0.058728
H402	H	0.248295	0.340025	0.558728
H403	H	-0.293889	-0.212473	0.034192
H404	H	0.206111	0.287527	0.534192
H405	H	-0.317570	-0.165726	0.074852
H406	H	0.182430	0.334274	0.574852
H407	H	0.663725	0.031271	0.628608
H408	H	1.163725	0.531271	1.128608
H409	H	0.646911	0.802415	0.000041
H410	H	1.146911	1.302415	0.500041
H411	H	0.434827	0.014492	0.000048
H412	H	0.934827	0.514492	0.500048
H413	H	-0.033688	0.063392	0.000086
H414	H	0.466312	0.563392	0.500086
H415	H	0.663722	0.031266	0.468360
H416	H	1.163722	0.531266	0.968360
H417	H	0.493213	0.165279	0.000062
H418	H	0.993213	0.665279	0.500062
H419	H	0.057760	0.062462	0.000085
H420	H	0.557760	0.562462	0.500085
H421	H	0.653168	0.187348	0.000065
H422	H	1.153168	0.687348	0.500065
O423	O	0.701290	0.482198	0.000030
O424	O	1.201290	0.982198	0.500030
C425	C	0.739853	0.520634	0.000045
C426	C	1.239853	1.020634	0.500045
H427	H	0.726561	0.554784	-0.016022
H428	H	1.226561	1.054784	0.483978
H429	H	0.770837	0.510330	-0.024588
H430	H	1.270837	1.010330	0.475412
H431	H	0.753345	0.527870	0.040757
H432	H	1.253345	1.027870	0.540757
O433	O	0.480962	0.684024	0.000046
O434	O	0.980962	1.184024	0.500046
C435	C	0.441727	0.711721	0.000031
C436	C	0.941727	1.211721	0.500031
H437	H	0.454289	0.749441	0.016096
H438	H	0.954289	1.249441	0.516096
H439	H	0.411041	0.692904	0.024667
H440	H	0.911041	1.192904	0.524667
H441	H	0.428123	0.715213	-0.040680
H442	H	0.928123	1.215213	0.459320
O443	O	0.439824	0.394112	0.000098
O444	O	0.939824	0.894112	0.500098
C445	C	0.436874	0.422921	0.044035
C446	C	0.936874	0.922921	0.544035
H447	H	0.462033	0.411188	0.074763
H448	H	0.962033	0.911188	0.574763
H449	H	0.397877	0.418106	0.058774
H450	H	0.897877	0.918106	0.558774
H451	H	0.448325	0.462765	0.034098
H452	H	0.948325	0.962765	0.534098
H453	H	0.695819	0.333889	0.000066
H454	H	1.195819	0.833889	0.500066
H455	H	0.694889	0.425336	0.000058
H456	H	1.194889	0.925336	0.500058
O457	O	0.654824	0.707965	-0.000045
O458	O	1.154824	1.207965	0.499955
C459	C	0.681525	0.724002	-0.043984
C460	C	1.181525	1.224002	0.456016
H461	H	0.655595	0.734299	-0.074703
H462	H	1.155595	1.234299	0.425297
H463	H	0.701862	0.693611	-0.058736
H464	H	1.201862	1.193611	0.441264
H465	H	0.708707	0.757061	-0.034043
H466	H	1.208707	1.257061	0.465957
O467	O	0.440781	0.294778	0.000036
O468	O	0.940781	0.794778	0.500036
C469	C	0.401542	0.322470	0.000013
C470	C	0.901542	0.822470	0.500013
H471	H	0.414098	0.360191	0.016079
H472	H	0.914098	0.860191	0.516079
H473	H	0.370854	0.303651	0.024644
H474	H	0.870854	0.803651	0.524644
H475	H	0.387945	0.325961	-0.040701
H476	H	0.887945	0.825961	0.459299
H477	H	0.477334	-0.155013	0.628625
H478	H	0.977334	0.344987	1.128625
H479	H	0.477317	-0.155019	0.468381
H480	H	0.977317	0.344981	0.968381
H481	H	0.630629	-0.001821	0.874327
H482	H	1.130629	0.498179	1.374327
O483	O	0.700222	0.581520	-0.000045
O484	O	1.200222	1.081520	0.499955
C485	C	0.702557	0.611050	-0.043990
C486	C	1.202557	1.111050	0.456010
H487	H	0.677703	0.592398	-0.074708
H488	H	1.177703	1.092398	0.425292
H489	H	0.741539	0.617010	-0.058741
H490	H	1.241539	1.117010	0.441259
H491	H	0.690319	0.647622	-0.034058
H492	H	1.190319	1.147622	0.465942
H493	H	0.510432	-0.121951	0.125783
H494	H	1.010432	0.378049	0.625783
H495	H	0.663725	0.031269	0.531704
H496	H	1.163725	0.531269	1.031704
H497	H	0.477330	-0.155015	0.531734
H498	H	0.977330	0.344985	1.031734
H499	H	0.174750	-0.187180	0.000030
H500	H	0.674750	0.312820	0.500030
O501	O	0.078404	-0.193149	-0.000056
O502	O	0.578404	0.306851	0.499944
C503	C	0.087043	-0.220082	-0.044005
C504	C	0.587043	0.279918	0.455995
H505	H	0.104462	-0.194421	-0.074715
H506	H	0.604462	0.305579	0.425285
H507	H	0.051134	-0.239744	-0.058765
H508	H	0.551134	0.260256	0.441235
H509	H	0.112518	-0.247860	-0.034074
H510	H	0.612518	0.252140	0.465926
O511	O	0.439304	0.445940	-0.000070
O512	O	0.939304	0.945940	0.499930
C513	C	0.436967	0.416401	-0.044009
C514	C	0.936967	0.916401	0.455991
H515	H	0.461833	0.435040	-0.074727
H516	H	0.961833	0.935040	0.425273
H517	H	0.397988	0.410453	-0.058763
H518	H	0.897988	0.910453	0.441237
H519	H	0.449190	0.379826	-0.034067
H520	H	0.949190	0.879826	0.465933
