data_functionalizedCrystal
_audit_creation_method	'MofGen! by Chris Wilmer'
_symmetry_space_group_name_H-M	'P1'
_symmetry_Int_Tables_number	1
_symmetry_cell_setting	triclinic
loop_
_symmetry_equiv_pos_as_xyz
  x,y,z
_cell_length_a	19.288864
_cell_length_b	15.995350
_cell_length_c	18.366186
_cell_angle_alpha	89.995992
_cell_angle_beta	89.977106
_cell_angle_gamma	83.314311
loop_
_atom_site_label
_atom_site_type_symbol
_atom_site_fract_x
_atom_site_fract_y
_atom_site_fract_z
O1	O	0.921624	0.104451	-0.060780
O2	O	1.421624	0.604451	0.439220
O3	O	0.719400	0.118542	-0.060729
O4	O	1.219400	0.618542	0.439271
O5	O	0.826040	-0.010412	-0.060755
O6	O	1.326040	0.489588	0.439245
O7	O	0.814984	0.233405	-0.060754
O8	O	1.314984	0.733405	0.439246
O9	O	0.826022	-0.010418	0.060344
O10	O	1.326022	0.489582	0.560344
O11	O	0.719382	0.118535	0.060370
O12	O	1.219382	0.618535	0.560370
O13	O	0.921606	0.104445	0.060320
O14	O	1.421606	0.604445	0.560320
Zn15	Zn	0.820491	0.111489	0.079572
Zn16	Zn	1.320491	0.611489	0.579572
Zn17	Zn	0.820515	0.111498	-0.079982
Zn18	Zn	1.320515	0.611498	0.420018
O19	O	0.814966	0.233399	0.060346
O20	O	1.314966	0.733399	0.560346
C21	C	0.693513	0.118085	-0.000173
C22	C	1.193513	0.618085	0.499827
C23	C	0.616406	0.116724	-0.000154
C24	C	1.116406	0.616724	0.499846
C25	C	0.571906	0.192388	-0.000165
C26	C	1.071906	0.692388	0.499835
C27	C	0.499456	0.191110	-0.000173
C28	C	0.999456	0.691110	0.499827
C29	C	0.471508	0.114163	-0.000185
C30	C	0.971508	0.614163	0.499815
C31	C	0.516018	0.038489	-0.000170
C32	C	1.016018	0.538489	0.499830
C33	C	0.588467	0.039769	-0.000155
C34	C	1.088467	0.539769	0.499845
C35	C	0.363096	0.053676	-0.042636
C36	C	0.863096	0.553676	0.457364
C37	C	0.290648	0.052398	-0.042656
C38	C	0.790648	0.552398	0.457344
C39	C	0.248053	0.110209	-0.000229
C40	C	0.748053	0.610209	0.499771
C41	C	0.277912	0.169312	0.042208
C42	C	0.777912	0.669312	0.542208
C43	C	0.350361	0.170593	0.042224
C44	C	0.850361	0.670593	0.542224
C45	C	0.392951	0.112765	-0.000201
C46	C	0.892951	0.612765	0.499799
C47	C	0.124993	0.184492	-0.000248
C48	C	0.624993	0.684492	0.499752
C49	C	0.052542	0.183210	-0.000251
C50	C	0.552542	0.683210	0.499749
C51	C	0.069106	0.030587	-0.000255
C52	C	0.569106	0.530587	0.499745
C53	C	0.141556	0.031871	-0.000244
C54	C	0.641556	0.531871	0.499756
C55	C	0.169495	0.108826	-0.000244
C56	C	0.669495	0.608826	0.499756
C57	C	0.825574	-0.041608	-0.000207
C58	C	1.325574	0.458392	0.499793
C59	C	0.824203	-0.134553	-0.000211
C60	C	1.324203	0.365447	0.499789
C61	C	0.819282	-0.472282	-0.000207
C62	C	1.319282	0.027718	0.499793
C63	C	0.743335	-0.424562	-0.000460
C64	C	1.243335	0.075438	0.499540
C65	C	0.744706	-0.327877	-0.000187
C66	C	1.244706	0.172123	0.499813
C67	C	0.821723	-0.304731	-0.000209
C68	C	1.321723	0.195269	0.499791
C69	C	0.859173	-0.345953	0.068934
C70	C	1.359173	0.154047	0.568934
C71	C	0.857265	-0.442582	0.068992
C72	C	1.357265	0.057418	0.568992
C73	C	0.858854	-0.442939	-0.068721
C74	C	1.358854	0.057061	0.431279
C75	C	0.858836	-0.345993	-0.069635
C76	C	1.358836	0.154007	0.430365
C77	C	0.823107	-0.210039	-0.000208
C78	C	1.323107	0.289961	0.499792
C79	C	0.817901	-0.566975	-0.000203
C80	C	1.317901	-0.066975	0.499797
C81	C	0.947492	0.104902	-0.000238
C82	C	1.447492	0.604902	0.499762
C83	C	1.024600	0.106263	-0.000262
C84	C	1.524600	0.606263	0.499738
C85	C	0.815432	0.264595	-0.000204
C86	C	1.315432	0.764595	0.499796
C87	C	0.816802	0.357540	-0.000206
C88	C	1.316802	0.857540	0.499794
N89	N	0.820480	0.111483	0.188463
N90	N	1.320480	0.611483	0.688463
N91	N	0.820531	0.111497	-0.188873
N92	N	1.320531	0.611497	0.311127
C93	C	0.867715	0.054410	0.226552
C94	C	1.367715	0.554410	0.726552
C95	C	0.867720	0.054407	0.302780
C96	C	1.367720	0.554407	0.802780
C97	C	0.820495	0.111490	0.340916
C98	C	1.320495	0.611490	0.840916
C99	C	0.773250	0.168567	0.302818
C100	C	1.273250	0.668567	0.802818
C101	C	0.773243	0.168564	0.226591
C102	C	1.273243	0.668564	0.726591
C103	C	0.811395	0.187781	0.461678
C104	C	1.311395	0.687781	0.961678
C105	C	0.811407	0.187785	0.537903
C106	C	1.311407	0.687785	1.037903
C107	C	0.820515	0.111500	0.576023
C108	C	1.320515	0.611500	1.076023
C109	C	0.829624	0.035208	0.537909
C110	C	1.329624	0.535208	1.037909
C111	C	0.829617	0.035204	0.461683
C112	C	1.329617	0.535204	0.961683
C113	C	0.820498	0.111500	0.423571
C114	C	1.320498	0.611500	0.923571
C115	C	0.867758	0.054419	0.696767
C116	C	1.367758	0.554419	1.196767
C117	C	0.867757	0.054414	0.772996
C118	C	1.367757	0.554414	1.272996
C119	C	0.773292	0.168582	0.773033
C120	C	1.273292	0.668582	1.273033
C121	C	0.773289	0.168579	0.696805
C122	C	1.273289	0.668579	1.196805
C123	C	0.820525	0.111499	0.658677
C124	C	1.320525	0.611499	1.158677
H125	H	0.177789	-0.029743	-0.000239
H126	H	0.677789	0.470257	0.499761
H127	H	0.266342	0.004277	-0.077214
H128	H	0.766342	0.504277	0.422786
H129	H	0.046352	-0.032065	-0.000310
H130	H	0.546352	0.467935	0.499690
N131	N	0.602032	0.275392	-0.000166
N132	N	1.102032	0.775392	0.499834
H133	H	0.585775	0.308530	0.044721
H134	H	1.085775	0.808530	0.544721
H135	H	0.654676	0.264662	-0.000184
H136	H	1.154676	0.764662	0.499816
H137	H	0.493259	-0.024162	-0.000189
H138	H	0.993259	0.475838	0.499811
N139	N	0.918678	-0.007160	0.655625
N140	N	1.418678	0.492840	1.155625
H141	H	0.949429	0.024731	0.623974
H142	H	1.449429	0.524731	1.123974
H143	H	0.948554	-0.043320	0.691361
H144	H	1.448554	0.456680	1.191361
H145	H	0.397772	0.006598	-0.077190
H146	H	0.897772	0.506598	0.422810
N147	N	0.824706	-0.308251	0.137120
N148	N	1.324706	0.191749	0.637120
H149	H	0.859960	-0.281015	0.166872
H150	H	1.359960	0.218985	0.666872
H151	H	0.784836	-0.264509	0.123326
H152	H	1.284836	0.235491	0.623326
H153	H	0.803994	0.249907	0.568929
H154	H	1.303994	0.749907	1.068929
H155	H	0.715055	-0.299903	0.049476
H156	H	1.215055	0.200097	0.549476
N157	N	0.801575	0.270068	0.420570
N158	N	1.301575	0.770068	0.920570
H159	H	0.843756	0.274900	0.388921
H160	H	1.343756	0.774900	0.888921
H161	H	0.758555	0.271982	0.389008
H162	H	1.258555	0.771982	0.889008
H163	H	0.837040	-0.026911	0.568945
H164	H	1.337040	0.473089	1.068945
H165	H	0.829941	-0.460783	0.120694
H166	H	1.329941	0.039217	0.620694
N167	N	0.636469	-0.041843	-0.000139
N168	N	1.136469	0.458157	0.499861
H169	H	0.607774	-0.090785	-0.000144
H170	H	1.107774	0.409215	0.499856
H171	H	0.666914	-0.044636	-0.045026
H172	H	1.166914	0.455364	0.454974
H173	H	0.715267	-0.299341	-0.049751
H174	H	1.215267	0.200659	0.450249
N175	N	0.933235	-0.325933	-0.075192
N176	N	1.433235	0.174067	0.424808
H177	H	0.943986	-0.289653	-0.032594
H178	H	1.443986	0.210347	0.467406
H179	H	0.965998	-0.379994	-0.074608
H180	H	1.465998	0.120006	0.425392
H181	H	0.243232	0.216387	0.076757
H182	H	0.743232	0.716387	0.576757
N183	N	0.703128	-0.448951	-0.066133
N184	N	1.203128	0.051049	0.433867
H185	H	0.733750	-0.491173	-0.096361
H186	H	1.233750	0.008827	0.403639
H187	H	0.660425	-0.474729	-0.049558
H188	H	1.160425	0.025271	0.450442
N189	N	0.918678	-0.007144	0.343871
N190	N	1.418678	0.492856	0.843871
H191	H	0.911515	0.001523	0.397946
H192	H	1.411515	0.501523	0.897946
H193	H	0.910665	-0.066524	0.330563
H194	H	1.410665	0.433476	0.830563
N195	N	0.722290	0.230125	0.185511
N196	N	1.222290	0.730125	0.685511
H197	H	0.730285	0.289529	0.198767
H198	H	1.230285	0.789529	0.698767
H199	H	0.729476	0.221391	0.131448
H200	H	1.229476	0.721391	0.631448
H201	H	0.837032	-0.026916	0.430654
H202	H	1.337032	0.473084	0.930654
H203	H	0.713107	-0.444044	0.048862
H204	H	1.213107	0.055956	0.548862
N205	N	0.931119	-0.485585	0.073132
N206	N	1.431119	0.014415	0.573132
H207	H	0.964769	-0.441745	0.074915
H208	H	1.464769	0.058255	0.574915
H209	H	0.936671	-0.521493	0.118457
H210	H	1.436671	-0.021493	0.618457
H211	H	0.915755	-0.332041	0.071489
H212	H	1.415755	0.167959	0.571489
N213	N	0.825980	-0.470017	-0.138143
N214	N	1.325980	0.029983	0.361857
H215	H	0.785098	-0.501586	-0.125881
H216	H	1.285098	-0.001586	0.374119
H217	H	0.809253	-0.418697	-0.168147
H218	H	1.309253	0.081303	0.331853
H219	H	0.016310	0.244828	-0.000256
H220	H	0.516310	0.744828	0.499744
H221	H	0.831456	-0.318639	-0.120785
H222	H	1.331456	0.181361	0.379215
N223	N	0.933027	-0.485284	-0.069363
N224	N	1.433027	0.014716	0.430637
H225	H	0.940988	-0.523293	-0.025514
H226	H	1.440988	-0.023293	0.474486
H227	H	0.941330	-0.519756	-0.115272
H228	H	1.441330	-0.019756	0.384728
H229	H	0.906177	0.007930	0.195510
H230	H	1.406177	0.507930	0.695510
H231	H	0.734798	0.215044	0.333872
H232	H	1.234798	0.715044	0.833872
N233	N	0.722352	0.230145	0.814157
N234	N	1.222352	0.730145	1.314157
H235	H	0.692425	0.266301	0.778457
H236	H	1.192425	0.766301	1.278457
H237	H	0.691654	0.198175	0.845797
H238	H	1.191654	0.698175	1.345797
N239	N	0.155135	0.267488	-0.000244
N240	N	0.655135	0.767488	0.499756
H241	H	0.115947	0.315229	-0.000246
H242	H	0.615947	0.815229	0.499754
H243	H	0.184811	0.271340	0.044653
H244	H	0.684811	0.771340	0.544653
H245	H	0.463217	0.252727	-0.000180
H246	H	0.963217	0.752727	0.499820
N247	N	0.918718	-0.007132	0.814082
N248	N	1.418718	0.492868	1.314082
H249	H	0.948645	-0.043283	0.778358
H250	H	1.448645	0.456717	1.278358
H251	H	0.949414	0.024855	0.845682
H252	H	1.449414	0.524855	1.345682
H253	H	0.734828	0.215057	0.665791
H254	H	1.234828	0.715057	1.165791
H255	H	0.374670	0.218714	0.076780
H256	H	0.874670	0.718714	0.576780
