data_functionalizedCrystal
_audit_creation_method	'MofGen! by Chris Wilmer'
_symmetry_space_group_name_H-M	'P1'
_symmetry_Int_Tables_number	1
_symmetry_cell_setting	triclinic
loop_
_symmetry_equiv_pos_as_xyz
  x,y,z
_cell_length_a	15.995300
_cell_length_b	14.853567
_cell_length_c	13.930277
_cell_angle_alpha	89.998611
_cell_angle_beta	89.991068
_cell_angle_gamma	96.446631
loop_
_atom_site_label
_atom_site_type_symbol
_atom_site_fract_x
_atom_site_fract_y
_atom_site_fract_z
O1	O	1.111150	-0.115987	-0.079858
O2	O	1.611150	0.384013	0.420142
O3	O	0.867386	-0.130384	-0.079851
O4	O	1.367386	0.369616	0.420149
O5	O	0.995780	0.008054	-0.079858
O6	O	1.495780	0.508054	0.420142
O7	O	0.982757	-0.254425	-0.079851
O8	O	1.482757	0.245575	0.420149
O9	O	0.995761	0.008052	0.079804
O10	O	1.495761	0.508052	0.579804
O11	O	0.867367	-0.130387	0.079811
O12	O	1.367367	0.369613	0.579811
O13	O	1.111132	-0.115990	0.079804
O14	O	1.611132	0.384010	0.579804
Zn15	Zn	0.989247	-0.123189	0.105157
Zn16	Zn	1.489247	0.376811	0.605157
Zn17	Zn	0.989271	-0.123185	-0.105204
Zn18	Zn	1.489271	0.376815	0.394796
O19	O	0.982738	-0.254428	0.079810
O20	O	1.482738	0.245572	0.579810
C21	C	0.836181	-0.129798	-0.000019
C22	C	1.336181	0.370202	0.499981
C23	C	0.743226	-0.128038	-0.000017
C24	C	1.243226	0.371962	0.499983
C25	C	0.573039	-0.124787	-0.000025
C26	C	1.073039	0.375213	0.499975
C27	C	0.525688	-0.223358	-0.000020
C28	C	1.025688	0.276642	0.499980
C29	C	0.428998	-0.221560	-0.000385
C30	C	0.928998	0.278440	0.499615
C31	C	0.405479	-0.121587	-0.000031
C32	C	0.905479	0.378413	0.499969
C33	C	0.446565	-0.072681	-0.091027
C34	C	0.946565	0.427319	0.408973
C35	C	0.543202	-0.075175	-0.091101
C36	C	1.043202	0.424825	0.408899
C37	C	0.543458	-0.073719	0.090471
C38	C	1.043458	0.426281	0.590471
C39	C	0.446513	-0.073728	0.091664
C40	C	0.946513	0.426272	0.591664
C41	C	0.310781	-0.119773	-0.000038
C42	C	0.810781	0.380227	0.499962
C43	C	0.667737	-0.126597	-0.000024
C44	C	1.167737	0.373403	0.499976
C45	C	0.995180	0.041641	-0.000029
C46	C	1.495180	0.541641	0.499971
C47	C	0.993412	0.141722	-0.000038
C48	C	1.493412	0.641722	0.499962
C49	C	1.142337	-0.116575	-0.000030
C50	C	1.642337	0.383425	0.499970
C51	C	1.235292	-0.118336	-0.000038
C52	C	1.735292	0.381664	0.499962
C53	C	0.983338	-0.288014	-0.000020
C54	C	1.483338	0.211986	0.499980
C55	C	0.985106	-0.388095	-0.000018
C56	C	1.485106	0.111905	0.499982
N57	N	0.989236	-0.123191	0.248723
N58	N	1.489236	0.376809	0.748723
C59	C	0.909669	0.554126	-0.000017
C60	C	1.409669	1.054126	0.499983
C61	C	1.062203	0.575643	-0.000021
C62	C	1.562203	1.075643	0.499979
C63	C	1.063866	0.481611	-0.000027
C64	C	1.563866	0.981611	0.499973
C65	C	0.988429	0.423833	-0.000026
C66	C	1.488429	0.923833	0.499974
C67	C	0.911329	0.460086	-0.000020
C68	C	1.411329	0.960086	0.499980
C69	C	1.140964	0.445351	-0.000024
C70	C	1.640964	0.945351	0.499976
C71	C	1.142630	0.351315	-0.000028
C72	C	1.642630	0.851315	0.499972
C73	C	1.067192	0.293535	-0.000035
C74	C	1.567192	0.793535	0.499965
C75	C	0.990089	0.329793	-0.000029
C76	C	1.490089	0.829793	0.499971
C77	C	0.914652	0.272015	-0.000028
C78	C	1.414652	0.772015	0.499972
C79	C	0.837548	0.308271	-0.000030
C80	C	1.337548	0.808271	0.499970
C81	C	0.835891	0.402306	-0.000026
C82	C	1.335891	0.902306	0.499974
C83	C	1.068849	0.199500	-0.000038
C84	C	1.568849	0.699500	0.499962
C85	C	0.916312	0.177975	-0.000031
C86	C	1.416312	0.677975	0.499969
N87	N	0.989289	-0.123176	-0.248770
N88	N	1.489289	0.376824	0.251230
C89	C	0.938395	-0.068489	0.298986
C90	C	1.438395	0.431511	0.798986
C91	C	1.040088	-0.177887	0.298965
C92	C	1.540088	0.322113	0.798965
C93	C	1.040098	-0.177887	0.399461
C94	C	1.540098	0.322113	0.899461
C95	C	0.989257	-0.123185	0.449724
C96	C	1.489257	0.376815	0.949724
C97	C	0.938406	-0.068485	0.399491
C98	C	1.438406	0.431515	0.899491
C99	C	1.090955	-0.232579	0.449701
C100	C	1.590955	0.267421	0.949701
C101	C	1.090968	-0.232580	0.550203
C102	C	1.590968	0.267420	1.050203
C103	C	1.040122	-0.177883	0.600468
C104	C	1.540122	0.322117	1.100468
C105	C	0.989268	-0.123181	0.550229
C106	C	1.489268	0.376819	1.050229
C107	C	0.938427	-0.068480	0.600492
C108	C	1.438427	0.431520	1.100492
C109	C	0.887567	-0.013782	0.550255
C110	C	1.387567	0.486218	1.050255
C111	C	0.887560	-0.013788	0.449757
C112	C	1.387560	0.486212	0.949757
C113	C	1.040130	-0.177877	0.700966
C114	C	1.540130	0.322123	1.200966
C115	C	0.938437	-0.068475	0.700997
C116	C	1.438437	0.431525	1.200997
H117	H	0.418227	-0.106207	-0.159000
H118	H	0.918227	0.393793	0.341000
H119	H	1.081542	-0.222408	0.741865
H120	H	1.581542	0.277592	1.241865
F121	F	0.391840	-0.271794	0.084852
F122	F	0.891840	0.228206	0.584852
H123	H	0.561570	-0.110419	-0.159378
H124	H	1.061570	0.389581	0.340622
F125	F	0.757266	0.246769	-0.000022
F126	F	1.257266	0.746769	0.499978
F127	F	1.150902	0.160916	-0.000022
F128	F	1.650902	0.660916	0.499978
H129	H	0.575391	-0.002793	-0.094991
H130	H	1.075391	0.497207	0.405009
F131	F	0.551383	-0.274364	-0.085182
F132	F	1.051383	0.225636	0.414818
H133	H	0.401202	-0.259820	-0.065993
H134	H	0.901202	0.240180	0.434007
H135	H	0.432381	0.000777	-0.094157
H136	H	0.932381	0.500777	0.405843
H137	H	0.773118	0.431835	-0.000026
H138	H	1.273118	0.931835	0.499974
H139	H	0.846893	0.583651	-0.000022
H140	H	1.346893	1.083651	0.499978
F141	F	0.410823	-0.120406	0.179659
F142	F	0.910823	0.379594	0.679659
F143	F	0.836020	0.116489	-0.000037
F144	F	1.336020	0.616489	0.499963
H145	H	1.123621	0.622691	-0.000014
H146	H	1.623621	1.122691	0.499986
H147	H	0.563988	-0.106172	0.159463
H148	H	1.063988	0.393828	0.659463
H149	H	1.132353	-0.277107	0.408769
H150	H	1.632353	0.222893	0.908769
H151	H	0.575154	-0.001044	0.091344
H152	H	1.075154	0.498956	0.591344
F153	F	0.426349	0.021540	0.099202
F154	F	0.926349	0.521540	0.599202
F155	F	0.550319	-0.275330	0.084926
F156	F	1.050319	0.224670	0.584926
H157	H	0.897032	-0.023935	0.741915
H158	H	1.397032	0.476065	1.241915
H159	H	1.202381	0.492401	-0.000016
H160	H	1.702381	0.992401	0.499984
H161	H	1.205412	0.321803	-0.000029
H162	H	1.705412	0.821803	0.499971
F163	F	0.833465	0.044437	0.603761
F164	F	1.333465	0.544437	1.103761
F165	F	0.884266	-0.010283	0.245522
F166	F	1.384266	0.489717	0.745522
F167	F	0.833438	0.044421	0.396285
F168	F	1.333438	0.544421	0.896285
H169	H	1.081485	-0.222417	0.258035
H170	H	1.581485	0.277583	0.758035
F171	F	1.145093	-0.290796	0.603659
F172	F	1.645093	0.209204	1.103659
