data_functionalizedCrystal
_audit_creation_method	'MofGen! by Chris Wilmer'
_symmetry_space_group_name_H-M	'P1'
_symmetry_Int_Tables_number	1
_symmetry_cell_setting	triclinic
loop_
_symmetry_equiv_pos_as_xyz
  x,y,z
_cell_length_a	10.654550
_cell_length_b	10.654550
_cell_length_c	9.730223
_cell_angle_alpha	90.004253
_cell_angle_beta	90.000043
_cell_angle_gamma	84.484931
loop_
_atom_site_label
_atom_site_type_symbol
_atom_site_fract_x
_atom_site_fract_y
_atom_site_fract_z
O1	O	-1.667839	-0.176399	-0.114187
O2	O	-1.302361	-0.193205	-0.114212
O3	O	-1.493503	-0.002062	-0.114190
O4	O	-1.476697	-0.367541	-0.114209
O5	O	-1.493490	-0.002057	0.114390
O6	O	-1.302348	-0.193199	0.114368
O7	O	-1.667827	-0.176393	0.114393
Zn8	Zn	-1.485085	-0.184796	0.150672
Zn9	Zn	-1.485102	-0.184802	-0.150492
O10	O	-1.476684	-0.367536	0.114371
C11	C	-1.255556	-0.191968	0.000075
C12	C	-1.116113	-0.188276	0.000065
C13	C	-1.492263	0.044738	0.000099
C14	C	-1.488571	0.184181	0.000096
C15	C	-1.714631	-0.177630	0.000103
C16	C	-1.854074	-0.181322	0.000104
C17	C	-1.036628	-0.300818	0.000064
C18	C	-0.905607	-0.297341	0.000088
C19	C	-0.933570	-0.068772	0.000109
C20	C	-1.064588	-0.072250	0.000095
C21	C	-1.477925	-0.414336	0.000079
C22	C	-1.481617	-0.553779	0.000072
N23	N	-1.485083	-0.184790	0.356209
C24	C	-1.601112	0.263667	0.000104
C25	C	-1.597636	0.394688	0.000087
C26	C	-1.369066	0.366725	0.000061
C27	C	-1.372544	0.235706	0.000068
N28	N	-1.485114	-0.184798	-0.356028
C29	C	-1.569750	-0.100188	0.428144
C30	C	-1.569763	-0.100189	0.572027
C31	C	-1.400438	-0.269404	0.572026
C32	C	-1.400420	-0.269396	0.428146
H33	H	-1.078574	-0.395294	0.000049
H34	H	-1.331508	-0.338290	0.630612
O35	O	-1.652132	-0.017963	0.641692
C36	C	-1.820029	0.149923	0.626499
C37	C	-1.726832	0.056844	0.547435
H38	H	-1.880431	0.210447	0.550327
H39	H	-1.883327	0.095176	0.693809
H40	H	-1.765253	0.213116	0.693911
H41	H	-1.781506	-0.006371	0.479948
H42	H	-1.663535	0.111670	0.480212
H43	H	-1.689279	0.459401	0.000090
H44	H	-1.274601	0.408693	0.000041
H45	H	-1.280893	0.170985	0.000058
O46	O	-1.318124	-0.351706	0.358472
C47	C	-1.150126	-0.519493	0.373642
C48	C	-1.243275	-0.426376	0.452719
H49	H	-1.089568	-0.579870	0.449806
H50	H	-1.204815	-0.582821	0.306298
H51	H	-1.086972	-0.464650	0.306263
H52	H	-1.306452	-0.481116	0.520172
H53	H	-1.188508	-0.363048	0.519977
H54	H	-0.840894	-0.388984	0.000089
O55	O	-0.883723	0.044038	0.000182
C56	C	-0.925289	0.270380	0.000100
C57	C	-0.981902	0.142708	0.000059
H58	H	-1.004639	0.350189	-0.000028
H59	H	-0.864697	0.277815	0.095785
H60	H	-0.864602	0.277649	-0.095535
H61	H	-1.042647	0.135353	0.095630
H62	H	-1.042421	0.135329	-0.095689
H63	H	-1.129309	0.019401	0.000100
H64	H	-1.695588	0.221720	0.000124
H65	H	-1.638687	-0.031295	0.369576
