data_functionalizedCrystal
_audit_creation_method	'MofGen! by Chris Wilmer'
_symmetry_space_group_name_H-M	'P1'
_symmetry_Int_Tables_number	1
_symmetry_cell_setting	triclinic
loop_
_symmetry_equiv_pos_as_xyz
  x,y,z
_cell_length_a	16.109318
_cell_length_b	10.868271
_cell_length_c	16.109301
_cell_angle_alpha	89.993442
_cell_angle_beta	96.534978
_cell_angle_gamma	90.000736
loop_
_atom_site_label
_atom_site_type_symbol
_atom_site_fract_x
_atom_site_fract_y
_atom_site_fract_z
O1	O	1.103123	0.102224	-0.106936
O2	O	1.603123	0.602224	0.393064
O3	O	0.861063	0.102249	-0.120221
O4	O	1.361063	0.602249	0.379779
O5	O	0.988742	0.102223	0.007452
O6	O	1.488742	0.602223	0.507452
O7	O	0.975443	0.102250	-0.234609
O8	O	1.475443	0.602250	0.265391
O9	O	0.988732	-0.102421	0.007457
O10	O	1.488732	0.397579	0.507457
O11	O	0.861052	-0.102395	-0.120216
O12	O	1.361052	0.397605	0.379784
O13	O	1.103112	-0.102421	-0.106931
O14	O	1.603112	0.397579	0.393069
Zn15	Zn	0.982080	-0.134900	-0.113573
Zn16	Zn	1.482080	0.365100	0.386427
Zn17	Zn	0.982094	0.134728	-0.113579
Zn18	Zn	1.482094	0.634728	0.386421
O19	O	0.975433	-0.102395	-0.234604
O20	O	1.475433	0.397605	0.265396
C21	C	0.830083	-0.000070	-0.119677
C22	C	1.330083	0.499930	0.380323
C23	C	0.737788	-0.000061	-0.118057
C24	C	1.237788	0.499939	0.381943
C25	C	0.438720	0.111469	-0.112824
C26	C	0.938720	0.611469	0.387176
C27	C	0.525441	0.111477	-0.114342
C28	C	1.025441	0.611477	0.385658
C29	C	0.525449	-0.111638	-0.114325
C30	C	1.025449	0.388362	0.385675
C31	C	0.438730	-0.111645	-0.112802
C32	C	0.938730	0.388355	0.387198
C33	C	0.395367	-0.000087	-0.112056
C34	C	0.895367	0.499913	0.387944
C35	C	0.568807	-0.000073	-0.115096
C36	C	1.068807	0.499927	0.384904
C37	C	0.662835	-0.000066	-0.116742
C38	C	1.162835	0.499934	0.383258
C39	C	0.301334	-0.000095	-0.110409
C40	C	0.801334	0.499905	0.389591
N41	N	0.982077	-0.318914	-0.113568
N42	N	1.482077	0.181086	0.386432
C43	C	0.982090	-0.569920	-0.113577
C44	C	1.482090	-0.069920	0.386423
C45	C	0.982080	-0.430242	-0.113574
C46	C	1.482080	0.069758	0.386426
C47	C	1.134092	-0.000099	-0.107474
C48	C	1.634092	0.499901	0.392526
C49	C	1.226387	-0.000100	-0.109095
C50	C	1.726387	0.499900	0.390905
C51	C	0.988198	-0.000100	0.038430
C52	C	1.488198	0.499900	0.538430
C53	C	0.986583	-0.000101	0.130725
C54	C	1.486583	0.499899	0.630725
N55	N	0.982104	0.318742	-0.113578
N56	N	1.482104	0.818742	0.386422
C57	C	0.975976	-0.000069	-0.265581
C58	C	1.475976	0.499931	0.234419
C59	C	0.977592	-0.000060	-0.357877
C60	C	1.477592	0.499940	0.142123
C61	C	1.058590	-0.000089	0.352993
C62	C	1.558590	0.499911	0.852993
C63	C	1.057066	-0.000079	0.439713
C64	C	1.557066	0.499921	0.939713
C65	C	0.905579	-0.000068	0.419848
C66	C	1.405579	0.499932	0.919848
C67	C	0.907104	-0.000069	0.333130
C68	C	1.407104	0.499931	0.833130
C69	C	0.983612	-0.000086	0.299704
C70	C	1.483612	0.499914	0.799704
C71	C	0.980563	-0.000075	0.473144
C72	C	1.480563	0.499925	0.973144
C73	C	0.978910	-0.000063	0.567170
C74	C	1.478910	0.499937	1.067170
C75	C	0.985265	-0.000095	0.205672
C76	C	1.485265	0.499905	0.705672
H77	H	0.560736	0.202317	-0.114967
H78	H	1.060736	0.702317	0.385033
H79	H	0.403417	0.202306	-0.112216
H80	H	0.903417	0.702306	0.387784
H81	H	0.560765	-0.202464	-0.114934
H82	H	1.060765	0.297536	0.385066
H83	H	0.843288	-0.000057	0.447074
H84	H	1.343288	0.499943	0.947074
H85	H	0.403431	-0.202493	-0.112175
H86	H	0.903431	0.297507	0.387825
H87	H	1.118121	-0.000079	0.483098
H88	H	1.618121	0.499921	0.983098
H89	H	0.846043	-0.000063	0.289740
H90	H	1.346043	0.499937	0.789740
H91	H	1.120888	-0.000100	0.325781
H92	H	1.620888	0.499900	0.825781
