data_functionalizedCrystal
_audit_creation_method	'MofGen! by Chris Wilmer'
_symmetry_space_group_name_H-M	'P1'
_symmetry_Int_Tables_number	1
_symmetry_cell_setting	triclinic
loop_
_symmetry_equiv_pos_as_xyz
  x,y,z
_cell_length_a	10.686220
_cell_length_b	10.686551
_cell_length_c	19.805405
_cell_angle_alpha	94.410986
_cell_angle_beta	85.591520
_cell_angle_gamma	90.308082
loop_
_atom_site_label
_atom_site_type_symbol
_atom_site_fract_x
_atom_site_fract_y
_atom_site_fract_z
Zn1	Zn	1.972224	-0.562358	0.165018
Zn2	Zn	1.955947	-0.352578	0.287529
Zn3	Zn	1.746336	-0.368672	0.182333
Zn4	Zn	1.762378	-0.578356	0.286157
O5	O	1.859221	-0.465491	0.230259
O6	O	2.145609	-0.521099	0.174597
O7	O	1.914616	-0.179166	0.281395
O8	O	1.776398	-0.394405	0.085314
O9	O	2.133651	-0.366975	0.264605
O10	O	1.942357	-0.536705	0.072592
O11	O	1.760616	-0.190990	0.204108
O12	O	1.572919	-0.409918	0.202778
O13	O	1.803740	-0.751780	0.262267
O14	O	1.584706	-0.563972	0.279057
O15	O	1.957913	-0.740027	0.173267
O16	O	1.930172	-0.382488	0.382069
O17	O	1.787957	-0.548366	0.381062
C18	C	1.533296	-0.490428	0.242648
C19	C	1.393866	-0.501126	0.247963
C20	C	1.884432	-0.792694	0.215683
C21	C	1.895175	-0.932128	0.209471
C22	C	2.186419	-0.440457	0.217823
C23	C	2.325852	-0.429789	0.212523
C24	C	1.859075	-0.465441	0.406123
C25	C	1.859131	-0.465453	0.481353
C26	C	1.834181	-0.139556	0.244727
C27	C	1.823681	-0.000103	0.250739
C28	C	1.859404	-0.465566	0.053706
C29	C	1.859482	-0.465598	-0.021531
C30	C	1.933267	-0.379158	0.517192
C31	C	1.933322	-0.379182	0.587877
C32	C	1.859234	-0.465495	0.622722
C33	C	1.785096	-0.551799	0.586877
C34	C	1.785048	-0.551780	0.516193
C35	C	1.785288	-0.551878	0.871939
C36	C	1.785339	-0.551887	0.942629
C37	C	1.933562	-0.379279	0.943624
C38	C	1.933514	-0.379261	0.872939
C39	C	1.859381	-0.465568	0.837100
C40	C	1.859324	-0.465543	0.760455
C41	C	1.859284	-0.465516	0.699366
H42	H	1.374290	-0.360530	0.178116
H43	H	1.724924	-0.622150	0.842765
H44	H	1.754257	-0.951628	0.290824
H45	H	1.345421	-0.570382	0.282377
H46	H	1.964612	-0.980608	0.169388
H47	H	1.993591	-0.308867	0.488827
H48	H	1.993689	-0.308911	0.617055
H49	H	1.724681	-0.622052	0.487012
C50	C	2.015004	-0.284299	0.834615
N51	N	2.076384	-0.212771	0.805750
C52	C	1.703839	-0.646850	0.980956
N53	N	1.642458	-0.718372	1.009824
C54	C	2.015117	-0.284344	0.983053
N55	N	2.076539	-0.212838	1.012750
H56	H	1.724778	-0.622082	0.615253
