data_functionalizedCrystal
_audit_creation_method	'MofGen! by Chris Wilmer'
_symmetry_space_group_name_H-M	'P1'
_symmetry_Int_Tables_number	1
_symmetry_cell_setting	triclinic
loop_
_symmetry_equiv_pos_as_xyz
  x,y,z
_cell_length_a	18.215407
_cell_length_b	16.120484
_cell_length_c	18.215399
_cell_angle_alpha	92.869789
_cell_angle_beta	89.980167
_cell_angle_gamma	92.926015
loop_
_atom_site_label
_atom_site_type_symbol
_atom_site_fract_x
_atom_site_fract_y
_atom_site_fract_z
Zn1	Zn	1.110213	-0.331906	-0.430960
Zn2	Zn	1.443546	0.001427	-0.097627
Zn3	Zn	1.776879	0.334760	0.235707
Zn4	Zn	1.103879	-0.471328	-0.314129
Zn5	Zn	1.437212	-0.137995	0.019204
Zn6	Zn	1.770546	0.195339	0.352538
Zn7	Zn	0.987144	-0.331934	-0.307908
Zn8	Zn	1.320477	0.001400	0.025425
Zn9	Zn	1.653811	0.334733	0.358758
Zn10	Zn	0.980871	-0.471282	-0.437152
Zn11	Zn	1.314205	-0.137948	-0.103818
Zn12	Zn	1.647538	0.195385	0.229515
O13	O	1.045527	-0.401612	-0.372537
O14	O	1.378860	-0.068279	-0.039204
O15	O	1.712193	0.265054	0.294129
O16	O	1.212356	-0.350409	-0.415474
O17	O	1.545690	-0.017076	-0.082141
O18	O	1.879023	0.316258	0.251193
O19	O	1.088368	-0.452868	-0.210321
O20	O	1.421702	-0.119535	0.123012
O21	O	1.755035	0.213799	0.456346
O22	O	1.008745	-0.215264	-0.319037
O23	O	1.342078	0.118069	0.014297
O24	O	1.675412	0.451403	0.347630
O25	O	1.207703	-0.452841	-0.329639
O26	O	1.541036	-0.119508	0.003695
O27	O	1.874370	0.213825	0.337028
O28	O	1.099163	-0.215244	-0.409442
O29	O	1.432496	0.118089	-0.076109
O30	O	1.765830	0.451423	0.257225
O31	O	1.002604	-0.350456	-0.205751
O32	O	1.335937	-0.017122	0.127583
O33	O	1.669270	0.316211	0.460916
O34	O	0.883328	-0.350411	-0.325041
O35	O	1.216661	-0.017077	0.008292
O36	O	1.549995	0.316256	0.341626
O37	O	0.998054	-0.452762	-0.539313
O38	O	1.331387	-0.119429	-0.205980
O39	O	1.664721	0.213904	0.127353
O40	O	0.878719	-0.452789	-0.419995
O41	O	1.212053	-0.119455	-0.086662
O42	O	1.545386	0.213878	0.246671
O43	O	1.093081	-0.350364	-0.534764
O44	O	1.426414	-0.017031	-0.201431
O45	O	1.759747	0.316303	0.131903
O46	O	1.082286	-0.587988	-0.335643
O47	O	1.415619	-0.254654	-0.002310
O48	O	1.748953	0.078679	0.331024
O49	O	0.991913	-0.587954	-0.426027
O50	O	1.325246	-0.254620	-0.092694
O51	O	1.658579	0.078713	0.240639
C52	C	0.854321	-0.401598	-0.372516
C53	C	1.187654	-0.068265	-0.039182
C54	C	1.520988	0.265068	0.294151
C55	C	0.772522	-0.401612	-0.372525
C56	C	1.105855	-0.068279	-0.039191
C57	C	1.439188	0.265055	0.294142
C58	C	1.035751	-0.618221	-0.382198
C59	C	1.369085	-0.284888	-0.048865
C60	C	1.702418	0.048446	0.284469
C61	C	1.031637	-0.710887	-0.386356
C62	C	1.364970	-0.377554	-0.053022
C63	C	1.698304	-0.044220	0.280311
C64	C	0.581943	-0.455004	-0.421912
C65	C	0.915277	-0.121671	-0.088579
C66	C	1.248610	0.211662	0.244755
C67	C	0.505085	-0.455007	-0.421921
C68	C	0.838418	-0.121674	-0.088588
C69	C	1.171751	0.211660	0.244745
C70	C	0.509861	-0.348236	-0.323179
C71	C	0.843195	-0.014902	0.010154
C72	C	1.176528	0.318431	0.343487
C73	C	0.586719	-0.348229	-0.323174
C74	C	0.920052	-0.014896	0.010159
C75	C	1.253386	0.318437	0.343493
C76	C	0.622758	-0.401619	-0.372540
C77	C	0.956091	-0.068285	-0.039206
C78	C	1.289424	0.265048	0.294127
C79	C	0.469041	-0.401627	-0.372554
C80	C	0.802375	-0.068294	-0.039221
C81	C	1.135708	0.265039	0.294113
C82	C	0.385708	-0.401630	-0.372564
C83	C	0.719041	-0.068296	-0.039230
C84	C	1.052374	0.265037	0.294103
C85	C	0.706097	-0.401615	-0.372531
C86	C	1.039430	-0.068282	-0.039198
C87	C	1.372764	0.265051	0.294136
C88	C	1.024129	-0.880549	-0.393961
C89	C	1.357462	-0.547215	-0.060628
C90	C	1.690796	-0.213882	0.272705
C91	C	1.067056	-0.921836	-0.351125
C92	C	1.400390	-0.588502	-0.017792
C93	C	1.733723	-0.255169	0.315541
C94	C	1.062879	-1.016241	-0.355357
C95	C	1.396212	-0.682908	-0.022024
C96	C	1.729545	-0.349575	0.311309
C97	C	1.028305	-0.786135	-0.389730
C98	C	1.361639	-0.452801	-0.056397
C99	C	1.694972	-0.119468	0.276936
C100	C	1.237479	-0.401627	-0.372560
C101	C	1.570812	-0.068294	-0.039226
C102	C	1.904146	0.265039	0.294107
C103	C	1.319277	-0.401634	-0.372569
C104	C	1.652611	-0.068300	-0.039236
C105	C	1.985944	0.265033	0.294098
C106	C	1.045574	-0.401555	-0.564488
C107	C	1.378907	-0.068222	-0.231154
C108	C	1.712241	0.265112	0.102179
C109	C	1.045594	-0.401530	-0.646286
C110	C	1.378928	-0.068197	-0.312952
C111	C	1.712261	0.265136	0.020381
C112	C	1.055360	-0.184158	-0.362855
C113	C	1.388693	0.149175	-0.029522
C114	C	1.722027	0.482509	0.303812
C115	C	1.059551	-0.091492	-0.358729
C116	C	1.392884	0.241841	-0.025396
C117	C	1.726217	0.575175	0.307938
C118	C	1.095094	-0.348162	-0.832110
C119	C	1.428427	-0.014828	-0.498776
C120	C	1.761760	0.318505	-0.165443
C121	C	1.095104	-0.348138	-0.908967
C122	C	1.428437	-0.014804	-0.575634
C123	C	1.761770	0.318529	-0.242301
C124	C	0.996153	-0.454770	-0.913694
C125	C	1.329486	-0.121437	-0.580360
C126	C	1.662819	0.211896	-0.247027
C127	C	0.996140	-0.454790	-0.836837
C128	C	1.329473	-0.121456	-0.503504
C129	C	1.662806	0.211877	-0.170170
C130	C	1.045615	-0.401487	-0.796047
C131	C	1.378948	-0.068153	-0.462714
C132	C	1.712281	0.265180	-0.129380
C133	C	1.045637	-0.401443	-0.949761
C134	C	1.378971	-0.068110	-0.616428
C135	C	1.712304	0.265224	-0.283095
C136	C	1.045648	-0.401417	-1.033094
C137	C	1.378981	-0.068084	-0.699761
C138	C	1.712314	0.265250	-0.366427
C139	C	1.045603	-0.401511	-0.712709
C140	C	1.378937	-0.068178	-0.379376
C141	C	1.712270	0.265155	-0.046043
C142	C	1.045524	-0.401610	-0.181331
C143	C	1.378858	-0.068276	0.152002
C144	C	1.712191	0.265057	0.485336
C145	C	1.045657	-0.401399	-0.099523
C146	C	1.378991	-0.068066	0.233810
C147	C	1.712324	0.265267	0.567144
H148	H	0.611284	-0.498475	-0.462110
H149	H	0.944617	-0.165142	-0.128777
H150	H	1.277951	0.168192	0.204556
C151	C	1.194625	-0.336531	-0.994912
C152	C	1.527959	-0.003198	-0.661578
C153	C	1.861292	0.330135	-0.328245
C154	C	1.149489	-0.289521	-0.948612
C155	C	1.482823	0.043812	-0.615279
C156	C	1.816156	0.377145	-0.281945
H157	H	1.228197	-0.300339	-1.019389
H158	H	1.561530	0.032994	-0.686056
H159	H	1.894864	0.366327	-0.352723
H160	H	1.221132	-0.372856	-0.966553
H161	H	1.554465	-0.039522	-0.633220
H162	H	1.887799	0.293811	-0.299887
H163	H	1.165156	-0.368271	-1.030200
H164	H	1.498490	-0.034938	-0.696867
H165	H	1.831823	0.298395	-0.363534
H166	H	1.178958	-0.257786	-0.913320
H167	H	1.512292	0.075548	-0.579986
H168	H	1.845625	0.408881	-0.246653
H169	H	1.122981	-0.253183	-0.976972
H170	H	1.456314	0.080151	-0.643639
H171	H	1.789648	0.413484	-0.310306
C172	C	0.479643	-0.495805	-0.548299
C173	C	0.812976	-0.162472	-0.214966
C174	C	1.146309	0.170862	0.118368
C175	C	0.460223	-0.513694	-0.476192
C176	C	0.793556	-0.180360	-0.142859
C177	C	1.126889	0.152973	0.190475
H178	H	0.451950	-0.532041	-0.581804
H179	H	0.785283	-0.198708	-0.248471
H180	H	1.118616	0.134626	0.084863
H181	H	0.469573	-0.439813	-0.556649
H182	H	0.802907	-0.106480	-0.223316
H183	H	1.136240	0.226853	0.110017
H184	H	0.530576	-0.503443	-0.555348
H185	H	0.863909	-0.170110	-0.222015
H186	H	1.197243	0.163223	0.111319
H187	H	0.409290	-0.506049	-0.469141
H188	H	0.742624	-0.172716	-0.135808
H189	H	1.075957	0.160617	0.197525
H190	H	0.470287	-0.569699	-0.467838
H191	H	0.803620	-0.236365	-0.134505
H192	H	1.136953	0.096968	0.198828
H193	H	0.955874	-0.498169	-0.946914
H194	H	1.289207	-0.164836	-0.613581
H195	H	1.622540	0.168497	-0.280247
C196	C	1.114662	-0.788257	-0.303481
C197	C	1.447995	-0.454923	0.029852
C198	C	1.781328	-0.121590	0.363185
C199	C	1.120898	-0.873845	-0.297318
C200	C	1.454231	-0.540512	0.036015
C201	C	1.787564	-0.207178	0.369349
H202	H	1.147895	-0.758629	-0.270259
H203	H	1.481228	-0.425296	0.063075
H204	H	1.814562	-0.091962	0.396408
H205	H	1.126032	-0.773986	-0.352303
H206	H	1.459365	-0.440653	-0.018969
H207	H	1.792699	-0.107320	0.314364
H208	H	1.065830	-0.774109	-0.292050
H209	H	1.399163	-0.440776	0.041283
H210	H	1.732497	-0.107442	0.374617
H211	H	1.169728	-0.887994	-0.308755
H212	H	1.503062	-0.554660	0.024579
H213	H	1.836395	-0.221327	0.357912
H214	H	1.109532	-0.888121	-0.248486
H215	H	1.442866	-0.554788	0.084847
H216	H	1.776199	-0.221454	0.418181
C217	C	0.394164	-0.300836	-0.279343
C218	C	0.727497	0.032498	0.053990
C219	C	1.060831	0.365831	0.387323
C220	C	0.470244	-0.289556	-0.268916
C221	C	0.803578	0.043778	0.064418
C222	C	1.136911	0.377111	0.397751
H223	H	0.369709	-0.264611	-0.245839
H224	H	0.703042	0.068722	0.087495
H225	H	1.036376	0.402056	0.420828
H226	H	0.382140	-0.288706	-0.328262
H227	H	0.715474	0.044627	0.005072
H228	H	1.048807	0.377961	0.338405
H229	H	0.379046	-0.356839	-0.270989
H230	H	0.712379	-0.023506	0.062345
H231	H	1.045712	0.309828	0.395678
H232	H	0.485364	-0.233553	-0.277276
H233	H	0.818697	0.099780	0.056058
H234	H	1.152030	0.433113	0.389391
H235	H	0.482273	-0.301680	-0.219986
H236	H	0.815607	0.031654	0.113348
H237	H	1.148940	0.364987	0.446681
H238	H	1.135377	-0.304757	-0.798901
H239	H	1.468711	0.028577	-0.465567
H240	H	1.802044	0.361910	-0.132234
H241	H	0.619951	-0.304751	-0.282969
H242	H	0.953285	0.028582	0.050365
H243	H	1.286618	0.361916	0.383698
C244	C	0.976509	-1.014126	-0.441574
C245	C	1.309843	-0.680793	-0.108240
C246	C	1.643176	-0.347459	0.225093
C247	C	0.970276	-0.928539	-0.447749
C248	C	1.303610	-0.595206	-0.114416
C249	C	1.636943	-0.261873	0.218917
H250	H	0.943258	-1.043758	-0.474775
H251	H	1.276591	-0.710425	-0.141442
H252	H	1.609925	-0.377092	0.191891
H253	H	1.025329	-1.028281	-0.453020
H254	H	1.358662	-0.694948	-0.119687
H255	H	1.691996	-0.361614	0.213647
H256	H	0.965156	-1.028383	-0.392738
H257	H	1.298489	-0.695050	-0.059405
H258	H	1.631823	-0.361716	0.273928
H259	H	0.981635	-0.914281	-0.496584
H260	H	1.314969	-0.580948	-0.163251
H261	H	1.648302	-0.247614	0.170083
H262	H	0.921446	-0.914378	-0.436308
H263	H	1.254779	-0.581045	-0.102975
H264	H	1.588112	-0.247712	0.230358
C265	C	0.898335	-0.560202	-0.849223
C266	C	1.231668	-0.226869	-0.515890
C267	C	1.565001	0.106464	-0.182556
C268	C	0.941751	-0.513413	-0.797191
C269	C	1.275084	-0.180079	-0.463858
C270	C	1.608417	0.153254	-0.130525
H271	H	0.864762	-0.596393	-0.824745
H272	H	1.198095	-0.263060	-0.491412
H273	H	1.531429	0.070273	-0.158079
H274	H	0.871830	-0.523872	-0.877576
H275	H	1.205163	-0.190539	-0.544243
H276	H	1.538497	0.142794	-0.210910
H277	H	0.928970	-0.592085	-0.880626
H278	H	1.262304	-0.258751	-0.547293
H279	H	1.595637	0.074582	-0.213960
H280	H	0.911116	-0.481525	-0.765791
H281	H	1.244449	-0.148192	-0.432458
H282	H	1.577782	0.185141	-0.099124
H283	H	0.968257	-0.549747	-0.768826
H284	H	1.301591	-0.216414	-0.435492
H285	H	1.634924	0.116919	-0.102159
