data_functionalizedCrystal
_audit_creation_method	'MofGen! by Chris Wilmer'
_symmetry_space_group_name_H-M	'P1'
_symmetry_Int_Tables_number	1
_symmetry_cell_setting	triclinic
loop_
_symmetry_equiv_pos_as_xyz
  x,y,z
_cell_length_a	17.699083
_cell_length_b	16.176319
_cell_length_c	17.699083
_cell_angle_alpha	89.992434
_cell_angle_beta	96.716985
_cell_angle_gamma	90.001388
loop_
_atom_site_label
_atom_site_type_symbol
_atom_site_fract_x
_atom_site_fract_y
_atom_site_fract_z
O1	O	-1.004079	-0.068624	0.095713
O2	O	-0.504079	0.431376	0.595713
O3	O	-0.783701	-0.068653	0.108165
O4	O	-0.283701	0.431347	0.608165
O5	O	-0.900116	-0.068630	-0.008250
O6	O	-0.400116	0.431370	0.491750
O7	O	-0.887664	-0.068647	0.212128
O8	O	-0.387664	0.431353	0.712128
O9	O	-0.900099	0.068863	-0.008257
O10	O	-0.400099	0.568863	0.491743
O11	O	-0.783684	0.068840	0.108158
O12	O	-0.283684	0.568840	0.608158
O13	O	-1.004062	0.068869	0.095706
O14	O	-0.504062	0.568869	0.595706
Cu15	Cu	-0.893872	0.081409	0.101932
Cu16	Cu	-0.393872	0.581409	0.601932
Cu17	Cu	-0.893892	-0.081193	0.101940
Cu18	Cu	-0.393892	0.418807	0.601940
O19	O	-0.887647	0.068846	0.212121
O20	O	-0.387647	0.568846	0.712121
C21	C	-0.755495	0.000090	0.107716
C22	C	-0.255495	0.500090	0.607716
C23	C	-0.671477	0.000079	0.106377
C24	C	-0.171477	0.500079	0.606377
N25	N	-0.893863	0.195774	0.101925
N26	N	-0.393863	0.695774	0.601925
C27	C	-0.622856	0.000074	0.174710
C28	C	-0.122856	0.500074	0.674710
C29	C	-0.543913	0.000084	0.173448
C30	C	-0.043913	0.500084	0.673448
C31	C	-0.513592	0.000093	0.103852
C32	C	-0.013592	0.500093	0.603852
C33	C	-0.562219	0.000101	0.035513
C34	C	-0.062219	0.500101	0.535513
C35	C	-0.641161	0.000097	0.036776
C36	C	-0.141161	0.500097	0.536776
C37	C	-0.243856	0.000119	0.030418
C38	C	0.256144	0.500119	0.530418
C39	C	-0.164908	0.000121	0.029160
C40	C	0.335092	0.500121	0.529160
C41	C	-0.146608	0.000106	0.167090
C42	C	0.353392	0.500106	0.667090
C43	C	-0.225550	0.000102	0.168353
C44	C	0.274450	0.500102	0.668353
C45	C	-0.274170	0.000114	0.100015
C46	C	0.225830	0.500114	0.600015
C47	C	-0.359769	0.000105	0.101384
C48	C	0.140231	0.500105	0.601384
C49	C	-0.427995	0.000097	0.102481
C50	C	0.072005	0.500097	0.602481
C51	C	-0.945427	0.239048	0.050398
C52	C	-0.445427	0.739048	0.550398
C53	C	-0.945430	0.325595	0.050397
C54	C	-0.445430	0.825595	0.550397
C55	C	-0.893872	0.368867	0.101928
C56	C	-0.393872	0.868867	0.601928
C57	C	-0.842303	0.325586	0.153458
C58	C	-0.342303	0.825586	0.653458
C59	C	-0.842297	0.239041	0.153455
C60	C	-0.342297	0.739041	0.653455
C61	C	-0.842326	0.674615	0.153474
C62	C	-0.342326	1.174615	0.653474
C63	C	-0.842338	0.761166	0.153475
C64	C	-0.342338	1.261166	0.653475
C65	C	-0.945460	0.761169	0.050416
C66	C	-0.445460	1.261169	0.550416
C67	C	-0.945453	0.674624	0.050412
C68	C	-0.445453	1.174624	0.550412
C69	C	-0.893882	0.631351	0.101939
C70	C	-0.393882	1.131351	0.601939
C71	C	-0.893878	0.537507	0.101938
C72	C	-0.393878	1.037507	0.601938
C73	C	-0.893879	0.462709	0.101934
C74	C	-0.393879	0.962709	0.601934
C75	C	-0.032268	0.000122	0.096156
C76	C	0.467732	0.500122	0.596156
C77	C	-0.116286	0.000122	0.097494
C78	C	0.383714	0.500122	0.597494
C79	C	-0.899662	0.000116	-0.036451
C80	C	-0.399662	0.500116	0.463549
C81	C	-0.898323	0.000116	-0.120469
C82	C	-0.398323	0.500116	0.379531
N83	N	-0.893899	0.804442	0.101943
N84	N	-0.393899	1.304442	0.601943
C85	C	-0.966656	0.000127	-0.169090
C86	C	-0.466656	0.500127	0.330910
C87	C	-0.965394	0.000119	-0.248033
C88	C	-0.465394	0.500119	0.251967
C89	C	-0.895798	0.000107	-0.278354
C90	C	-0.395798	0.500107	0.221646
C91	C	-0.827459	0.000095	-0.229727
C92	C	-0.327459	0.500095	0.270273
C93	C	-0.828722	0.000096	-0.150785
C94	C	-0.328722	0.500096	0.349215
C95	C	-0.822364	0.000087	-0.548090
C96	C	-0.322364	0.500087	-0.048090
C97	C	-0.821106	0.000088	-0.627038
C98	C	-0.321106	0.500088	-0.127038
C99	C	-0.959036	0.000110	-0.645338
C100	C	-0.459036	0.500110	-0.145338
C101	C	-0.960299	0.000112	-0.566396
C102	C	-0.460299	0.500112	-0.066396
C103	C	-0.891961	0.000095	-0.517776
C104	C	-0.391961	0.500095	-0.017776
C105	C	-0.893330	0.000101	-0.432177
C106	C	-0.393330	0.500101	0.067823
C107	C	-0.894427	0.000107	-0.363951
C108	C	-0.394427	0.500107	0.136049
C109	C	-0.888102	0.000098	0.240322
C110	C	-0.388102	0.500098	0.740322
C111	C	-0.889440	0.000092	0.324340
C112	C	-0.389440	0.500092	0.824340
H113	H	-0.647537	0.000066	0.231384
H114	H	-0.147537	0.500066	0.731384
H115	H	-1.023330	0.000141	-0.144409
H116	H	-0.523330	0.500141	0.355591
H117	H	-1.021038	0.000129	-0.287618
H118	H	-0.521038	0.500129	0.212382
Cl119	Cl	-0.736452	0.000064	-0.486977
Cl120	Cl	-0.236452	0.500064	0.013023
Cl121	Cl	-0.702285	0.000107	-0.049132
Cl122	Cl	-0.202285	0.500107	0.450868
H123	H	-1.016971	0.000125	-0.541714
H124	H	-0.516971	0.500125	-0.041714
Cl125	Cl	-1.010250	0.184659	-0.014385
Cl126	Cl	-0.510250	0.684659	0.485615
Cl127	Cl	-0.733606	0.000072	-0.665153
Cl128	Cl	-0.233606	0.500072	-0.165153
H129	H	-0.504328	0.000079	0.229092
H130	H	-0.004328	0.500079	0.729092
H131	H	-0.800307	0.203808	0.195413
H132	H	-0.300307	0.703808	0.695413
Cl133	Cl	-0.739966	0.000070	-0.267844
Cl134	Cl	-0.239966	0.500070	0.232156
H135	H	-1.014680	0.000120	-0.684934
H136	H	-0.514680	0.500120	-0.184934
Cl137	Cl	-0.777498	0.620220	0.218251
Cl138	Cl	-0.277498	1.120220	0.718251
Cl139	Cl	-0.524102	0.000118	-0.051980
Cl140	Cl	-0.024102	0.500118	0.448020
Cl141	Cl	-0.263663	0.000086	0.255849
Cl142	Cl	0.236337	0.500086	0.755849
H143	H	-0.107012	0.000101	0.222734
H144	H	0.392988	0.500101	0.722734
H145	H	-0.773078	0.000088	-0.111198
H146	H	-0.273078	0.500088	0.388802
Cl147	Cl	-0.777483	0.379983	0.218238
Cl148	Cl	-0.277483	0.879983	0.718238
Cl149	Cl	-0.126793	0.000133	-0.058340
Cl150	Cl	0.373207	0.500133	0.441660
Cl151	Cl	-0.304969	0.000133	-0.055494
Cl152	Cl	0.195031	0.500133	0.444506
H153	H	-0.987439	0.639395	0.008453
H154	H	-0.487439	1.139395	0.508453
Cl155	Cl	-1.010254	0.379999	-0.014382
Cl156	Cl	-0.510254	0.879999	0.485618
H157	H	-0.800351	0.796396	0.195439
H158	H	-0.300351	1.296396	0.695439
Cl159	Cl	-1.010291	0.815574	-0.014365
Cl160	Cl	-0.510291	1.315574	0.485635
