data_functionalizedCrystal
_audit_creation_method	'MofGen! by Chris Wilmer'
_symmetry_space_group_name_H-M	'P1'
_symmetry_Int_Tables_number	1
_symmetry_cell_setting	triclinic
loop_
_symmetry_equiv_pos_as_xyz
  x,y,z
_cell_length_a	25.639239
_cell_length_b	25.639242
_cell_length_c	14.908662
_cell_angle_alpha	93.324789
_cell_angle_beta	86.732725
_cell_angle_gamma	90.033587
loop_
_atom_site_label
_atom_site_type_symbol
_atom_site_fract_x
_atom_site_fract_y
_atom_site_fract_z
Zn1	Zn	-0.225283	0.816312	0.510279
Zn2	Zn	-0.307677	0.811184	0.359411
Zn3	Zn	-0.220249	0.723836	0.359413
Zn4	Zn	-0.312679	0.728831	0.510201
O5	O	-0.266472	0.770041	0.434826
O6	O	-0.236226	0.888798	0.490298
O7	O	-0.291879	0.795360	0.233168
O8	O	-0.147753	0.736160	0.379458
O9	O	-0.296760	0.885030	0.379456
O10	O	-0.151451	0.804101	0.490299
O11	O	-0.227646	0.731187	0.233168
O12	O	-0.232497	0.651333	0.379383
O13	O	-0.305286	0.744672	0.636455
O14	O	-0.300405	0.655002	0.490167
O15	O	-0.241077	0.808944	0.636512
O16	O	-0.381504	0.800203	0.379381
O17	O	-0.385180	0.739699	0.490166
C18	C	-0.266448	0.634196	0.434767
C19	C	-0.266451	0.576082	0.434763
C20	C	-0.231060	0.322975	0.377241
C21	C	-0.231055	0.377579	0.377229
O22	O	-0.200931	0.404186	0.328270
N23	N	-0.266459	0.406810	0.434809
C24	C	-0.301867	0.381434	0.492410
O25	O	-0.331981	0.411312	0.541386
C26	C	-0.301870	0.326832	0.492426
C27	C	-0.266467	0.297603	0.434836
C28	C	-0.195659	0.293746	0.319656
C29	C	-0.195665	0.239146	0.319667
C30	C	-0.231072	0.213774	0.377262
C31	C	-0.266473	0.243003	0.434846
C32	C	-0.337275	0.301457	0.550031
C33	C	-0.337274	0.246851	0.550042
C34	C	-0.301871	0.217622	0.492452
C35	C	-0.301885	0.163031	0.492452
N36	N	-0.266481	0.133800	0.434872
C37	C	-0.231074	0.159171	0.377277
C38	C	-0.301859	0.496104	0.492375
C39	C	-0.301860	0.550705	0.492356
C40	C	-0.231046	0.546846	0.377175
C41	C	-0.231049	0.492243	0.377191
C42	C	-0.266455	0.466873	0.434795
C43	C	-0.231090	0.044507	0.377303
C44	C	-0.231100	-0.010098	0.377316
C45	C	-0.301912	-0.006233	0.492499
C46	C	-0.301903	0.048367	0.492483
C47	C	-0.266488	0.073736	0.434882
O48	O	-0.331992	0.136388	0.541388
O49	O	-0.200961	0.129288	0.328318
C50	C	-0.402313	0.769951	0.434785
C51	C	-0.460428	0.769962	0.434797
C52	C	-0.818869	0.801636	0.377239
C53	C	-0.873473	0.801656	0.377251
O54	O	-0.900074	0.828494	0.328267
N55	N	-0.902713	0.770135	0.434886
C56	C	-0.877346	0.738594	0.492519
O57	O	-0.907230	0.711784	0.541544
C58	C	-0.822742	0.738576	0.492511
C59	C	-0.793505	0.770096	0.434865
C60	C	-0.789631	0.833154	0.319599
C61	C	-0.735031	0.833132	0.319586
C62	C	-0.709667	0.801593	0.377213
C63	C	-0.738904	0.770075	0.434852
C64	C	-0.797376	0.707039	0.550148
C65	C	-0.742768	0.707025	0.550135
C66	C	-0.713531	0.738544	0.492490
C67	C	-0.658939	0.738514	0.492466
N68	N	-0.629699	0.770036	0.434831
C69	C	-0.655063	0.801575	0.377205
C70	C	-0.992017	0.738634	0.492533
C71	C	-1.046619	0.738648	0.492537
C72	C	-1.042743	0.801712	0.377270
C73	C	-0.988140	0.801694	0.377262
C74	C	-0.962777	0.770156	0.434898
C75	C	-0.540397	0.801527	0.377181
C76	C	-0.485792	0.801501	0.377170
C77	C	-0.489672	0.738440	0.492440
C78	C	-0.544273	0.738464	0.492448
C79	C	-0.569634	0.770012	0.434815
O80	O	-0.632303	0.711692	0.541427
O81	O	-0.625172	0.828385	0.328196
C82	C	-0.130101	0.770145	0.434887
C83	C	-0.071988	0.770190	0.434913
C84	C	-0.274301	0.777937	0.670133
C85	C	-0.277637	0.781302	0.770407
C86	C	-0.266497	0.906416	0.434885
C87	C	-0.266507	0.964531	0.434911
C88	C	-0.258636	0.762205	0.200435
C89	C	-0.255152	0.758942	0.100161
C90	C	-0.315778	0.819450	0.911740
C91	C	-0.312646	0.816292	0.817524
C92	C	-0.245759	0.749466	0.817511
C93	C	-0.248891	0.752624	0.911727
C94	C	-0.283901	0.787618	0.958839
C95	C	-0.287030	0.790778	1.053057
C96	C	-0.220146	0.723949	1.053042
C97	C	-0.217014	0.720791	0.958826
H98	H	-0.330695	0.475451	0.539281
O99	O	-0.196782	-0.038512	0.321262
C100	C	-0.224563	-0.072085	0.262919
H101	H	-0.265548	-0.055844	0.257235
H102	H	-0.203290	-0.075027	0.193544
H103	H	-0.227314	-0.112532	0.290797
H104	H	-0.810277	0.858840	0.272672
O105	O	-0.196577	0.571442	0.321276
C106	C	-0.145147	0.558812	0.341177
H107	H	-0.145249	0.520336	0.375861
H108	H	-0.119477	0.554766	0.276145
H109	H	-0.129126	0.591119	0.387615
O110	O	-0.182996	0.686755	0.913198
C111	C	-0.155522	0.659346	0.974975
H112	H	-0.179168	0.659772	1.042129
H113	H	-0.149033	0.617243	0.947735
H114	H	-0.116150	0.678860	0.985016
O115	O	-0.336277	-0.030826	0.548576
C116	C	-0.327905	-0.014450	0.638521
H117	H	-0.307878	0.025275	0.640442
H118	H	-0.367013	-0.011249	0.678871
H119	H	-0.302056	-0.044134	0.668982
O120	O	-0.371712	0.329862	0.605852
C121	C	-0.403721	0.359705	0.554401
H122	H	-0.404532	0.340855	0.483338
H123	H	-0.445065	0.361397	0.586919
H124	H	-0.387450	0.400994	0.551341
H125	H	-0.821171	0.681369	0.597084
H126	H	-0.711229	0.858800	0.272649
H127	H	-0.194187	0.698031	1.091399
H128	H	-0.461988	0.827169	0.330226
O129	O	-0.349710	0.853499	0.957551
C130	C	-0.321758	0.889107	1.012097
H131	H	-0.279637	0.891414	0.983719
H132	H	-0.340708	0.929367	1.013185
H133	H	-0.322328	0.875334	1.083492
H134	H	-0.166836	0.215353	0.272771
O135	O	-0.196672	0.069062	0.321259
C136	C	-0.165425	0.031547	0.270455
H137	H	-0.186739	-0.007493	0.267289
H138	H	-0.157422	0.044918	0.199384
H139	H	-0.126847	0.026879	0.303609
H140	H	-0.202219	0.468449	0.330299
H141	H	-1.063404	0.827395	0.330350
O142	O	-0.321066	0.824699	1.098923
C143	C	-0.356649	0.796731	1.153377
H144	H	-0.338670	0.757596	1.167478
H145	H	-0.365862	0.820244	1.219639
H146	H	-0.394187	0.789739	1.117051
H147	H	-0.338602	0.842215	0.779180
O148	O	-0.211826	0.715446	0.771636
C149	C	-0.239784	0.679822	0.717131
H150	H	-0.278941	0.697762	0.703027
H151	H	-0.216291	0.670611	0.650874
H152	H	-0.246726	0.642286	0.753416
O153	O	-0.564967	0.832248	0.321239
C154	C	-0.552229	0.885006	0.341067
H155	H	-0.513733	0.887214	0.375755
H156	H	-0.548174	0.906296	0.276001
H157	H	-0.584479	0.904171	0.387475
O158	O	-0.161315	0.318359	0.263571
C159	C	-0.169667	0.301951	0.173633
H160	H	-0.211279	0.286765	0.168964
H161	H	-0.163636	0.336350	0.129054
H162	H	-0.140839	0.269472	0.150155
O163	O	-0.336203	0.579075	0.548422
C164	C	-0.327859	0.568761	0.638370
H165	H	-0.286250	0.553933	0.643056
H166	H	-0.333885	0.606170	0.682926
H167	H	-0.356693	0.537842	0.661864
O168	O	-0.371717	0.222289	0.606033
C169	C	-0.402950	0.259801	0.656873
H170	H	-0.403496	0.297472	0.619902
H171	H	-0.444470	0.244326	0.666384
H172	H	-0.386140	0.267937	0.725442
H173	H	-0.330735	0.072166	0.539371
O174	O	-0.959821	0.832362	0.321240
C175	C	-0.993923	0.860189	0.270364
H176	H	-1.034066	0.863232	0.307329
H177	H	-0.977797	0.901064	0.260809
H178	H	-0.997481	0.838774	0.201815
H179	H	-1.070419	0.712976	0.539469
H180	H	-0.971369	0.712947	0.539464
H181	H	-0.568080	0.712800	0.539390
O182	O	-0.718214	0.676340	0.606156
C183	C	-0.755734	0.648539	0.657049
H184	H	-0.793436	0.645518	0.620098
H185	H	-0.740314	0.607655	0.666605
H186	H	-0.763791	0.669961	0.725597
H187	H	-0.469013	0.712760	0.539357
