data_functionalizedCrystal
_audit_creation_method	'MofGen! by Chris Wilmer'
_symmetry_space_group_name_H-M	'P1'
_symmetry_Int_Tables_number	1
_symmetry_cell_setting	triclinic
loop_
_symmetry_equiv_pos_as_xyz
  x,y,z
_cell_length_a	9.065218
_cell_length_b	15.186229
_cell_length_c	9.065218
_cell_angle_alpha	89.998095
_cell_angle_beta	94.984115
_cell_angle_gamma	90.003435
loop_
_atom_site_label
_atom_site_type_symbol
_atom_site_fract_x
_atom_site_fract_y
_atom_site_fract_z
O1	O	1.960399	0.073227	-0.216355
O2	O	2.460399	0.573227	0.283645
O3	O	1.531114	0.073228	-0.234101
O4	O	2.031114	0.573228	0.265899
O5	O	1.754630	0.073226	-0.010586
O6	O	2.254630	0.573226	0.489414
O7	O	1.736884	0.073229	-0.439871
O8	O	2.236884	0.573229	0.060129
O9	O	1.754615	-0.073232	-0.010582
O10	O	2.254615	0.426768	0.489418
O11	O	1.531099	-0.073229	-0.234098
O12	O	2.031099	0.426771	0.265902
O13	O	1.960384	-0.073230	-0.216352
O14	O	2.460384	0.426770	0.283648
Zn15	Zn	1.745739	-0.096483	-0.225224
Zn16	Zn	2.245739	0.403517	0.274776
Zn17	Zn	1.745759	0.096481	-0.225229
Zn18	Zn	2.245759	0.596481	0.274771
O19	O	1.736868	-0.073228	-0.439867
O20	O	2.236868	0.426772	0.060133
C21	C	1.476120	-0.000001	-0.232394
C22	C	1.976120	0.499999	0.267606
C23	C	1.312277	-0.000000	-0.227294
C24	C	1.812277	0.500000	0.272706
N25	N	1.745736	-0.228176	-0.225220
N26	N	2.245736	0.271824	0.274780
C27	C	1.844744	-0.453900	-0.126282
C28	C	2.344744	0.046100	0.373718
C29	C	1.844748	-0.546089	-0.126278
C30	C	2.344748	-0.046089	0.373722
C31	C	1.646756	-0.546096	-0.324164
C32	C	2.146756	-0.046096	0.175836
C33	C	1.646745	-0.453908	-0.324159
C34	C	2.146745	0.046092	0.175841
C35	C	1.745747	-0.407812	-0.225220
C36	C	2.245747	0.092188	0.274780
C37	C	1.745763	-0.592190	-0.225221
C38	C	2.245763	-0.092190	0.274779
C39	C	1.745767	-0.692146	-0.225218
C40	C	2.245767	-0.192146	0.274782
C41	C	1.745742	-0.307850	-0.225221
C42	C	2.245742	0.192150	0.274779
C43	C	2.015378	0.000000	-0.218059
C44	C	2.515378	0.500000	0.281941
C45	C	2.179221	0.000005	-0.223158
C46	C	2.679221	0.500005	0.276842
C47	C	1.752917	-0.000002	0.044403
C48	C	2.252917	0.499998	0.544403
C49	C	1.747817	0.000003	0.208245
C50	C	2.247817	0.500003	0.708245
N51	N	1.745774	0.228173	-0.225221
N52	N	2.245774	0.728173	0.274779
C53	C	1.738582	0.000001	-0.494855
C54	C	2.238582	0.500001	0.005145
C55	C	1.743681	0.000003	-0.658698
C56	C	2.243681	0.500003	-0.158698
H57	H	1.925355	-0.416370	-0.045717
H58	H	2.425355	0.083630	0.454283
H59	H	1.566152	-0.583637	-0.404720
H60	H	2.066152	-0.083637	0.095280
H61	H	1.925358	-0.583611	-0.045712
H62	H	2.425358	-0.083611	0.454288
F63	F	1.541369	-0.404855	-0.429462
F64	F	2.041369	0.095145	0.070538
