data_functionalizedCrystal
_audit_creation_method	'MofGen! by Chris Wilmer'
_symmetry_space_group_name_H-M	'P1'
_symmetry_Int_Tables_number	1
_symmetry_cell_setting	triclinic
loop_
_symmetry_equiv_pos_as_xyz
  x,y,z
_cell_length_a	11.792241
_cell_length_b	16.109301
_cell_length_c	10.268362
_cell_angle_alpha	89.994258
_cell_angle_beta	89.991152
_cell_angle_gamma	96.172552
loop_
_atom_site_label
_atom_site_type_symbol
_atom_site_fract_x
_atom_site_fract_y
_atom_site_fract_z
O1	O	1.505894	-0.113955	0.108178
O2	O	1.755894	0.136045	0.358178
O3	O	2.005894	0.386045	0.608178
O4	O	2.255894	0.636045	0.858178
O5	O	1.175450	-0.125699	0.108209
O6	O	1.425450	0.124301	0.358209
O7	O	1.675450	0.374301	0.608209
O8	O	1.925450	0.624301	0.858209
O9	O	1.349750	0.001161	0.108180
O10	O	1.599750	0.251161	0.358180
O11	O	1.849750	0.501161	0.608180
O12	O	2.099750	0.751161	0.858180
O13	O	1.331595	-0.240815	0.108208
O14	O	1.581595	0.009185	0.358208
O15	O	1.831595	0.259185	0.608208
O16	O	2.081595	0.509185	0.858208
O17	O	1.349765	0.001167	-0.108421
O18	O	1.599765	0.251167	0.141579
O19	O	1.849765	0.501167	0.391579
O20	O	2.099765	0.751167	0.641579
O21	O	1.175465	-0.125694	-0.108392
O22	O	1.425465	0.124306	0.141608
O23	O	1.675465	0.374306	0.391608
O24	O	1.925465	0.624306	0.641608
O25	O	1.505909	-0.113950	-0.108422
O26	O	1.755909	0.136050	0.141578
O27	O	2.005909	0.386050	0.391578
O28	O	2.255909	0.636050	0.641578
Cu29	Cu	1.340689	-0.119821	-0.128184
Cu30	Cu	1.590689	0.130179	0.121816
Cu31	Cu	1.840689	0.380179	0.371816
Cu32	Cu	2.090689	0.630179	0.621816
Cu33	Cu	1.340671	-0.119827	0.127971
Cu34	Cu	1.590671	0.130173	0.377971
Cu35	Cu	1.840671	0.380173	0.627971
Cu36	Cu	2.090671	0.630173	0.877971
O37	O	1.331610	-0.240810	-0.108393
O38	O	1.581610	0.009190	0.141607
O39	O	1.831610	0.259190	0.391607
O40	O	2.081610	0.509190	0.641607
C41	C	1.133173	-0.124959	-0.000087
C42	C	1.383173	0.125041	0.249913
C43	C	1.633173	0.375041	0.499913
C44	C	1.883173	0.625041	0.749913
C45	C	1.007179	-0.122751	-0.000076
C46	C	1.257179	0.127249	0.249924
C47	C	1.507179	0.377249	0.499924
C48	C	1.757179	0.627249	0.749924
C49	C	1.349022	0.032142	-0.000121
C50	C	1.599022	0.282142	0.249879
C51	C	1.849022	0.532142	0.499879
C52	C	2.099022	0.782142	0.749879
C53	C	1.346817	0.124448	-0.000123
C54	C	1.596817	0.374448	0.249877
C55	C	1.846817	0.624448	0.499877
C56	C	2.096817	0.874448	0.749877
N57	N	1.340659	-0.119826	0.308137
N58	N	1.590659	0.130174	0.558137
N59	N	1.840659	0.380174	0.808137
N60	N	2.090659	0.630174	1.058137
C61	C	0.776502	-0.118690	-0.000114
C62	C	1.026502	0.131310	0.249886
C63	C	1.276502	0.381310	0.499886
C64	C	1.526502	0.631310	0.749886
C65	C	0.904868	-0.120946	-0.000093
C66	C	1.154868	0.129054	0.249907
C67	C	1.404868	0.379054	0.499907
C68	C	1.654868	0.629054	0.749907
C69	C	1.548186	-0.114690	-0.000123
C70	C	1.798186	0.135310	0.249877
C71	C	2.048186	0.385310	0.499877
C72	C	2.298186	0.635310	0.749877
C73	C	1.674181	-0.116898	-0.000126
C74	C	1.924181	0.133102	0.249874
C75	C	2.174181	0.383102	0.499874
C76	C	2.424181	0.633102	0.749874
C77	C	1.332338	-0.271791	-0.000089
C78	C	1.582338	-0.021791	0.249911
C79	C	1.832338	0.228209	0.499911
C80	C	2.082338	0.478209	0.749911
C81	C	1.334542	-0.364097	-0.000079
C82	C	1.584542	-0.114097	0.249921
C83	C	1.834542	0.135903	0.499921
C84	C	2.084542	0.385903	0.749921
C85	C	1.445116	0.346258	-0.000111
C86	C	1.695116	0.596258	0.249889
C87	C	1.945116	0.846258	0.499889
C88	C	2.195116	1.096258	0.749889
C89	C	1.443036	0.432988	-0.000101
C90	C	1.693036	0.682988	0.249899
C91	C	1.943036	0.932988	0.499899
C92	C	2.193036	1.182988	0.749899
C93	C	1.236235	0.414087	-0.000086
C94	C	1.486235	0.664087	0.249914
C95	C	1.736235	0.914087	0.499914
C96	C	1.986235	1.164087	0.749914
C97	C	1.238317	0.327358	-0.000088
C98	C	1.488317	0.577358	0.249912
C99	C	1.738317	0.827358	0.499912
C100	C	1.988317	1.077358	0.749912
C101	C	1.342761	0.293446	-0.000107
C102	C	1.592761	0.543446	0.249893
C103	C	1.842761	0.793446	0.499893
C104	C	2.092761	1.043446	0.749893
C105	C	1.338599	0.466905	-0.000095
C106	C	1.588599	0.716905	0.249905
C107	C	1.838599	0.966905	0.499905
C108	C	2.088599	1.216905	0.749905
C109	C	1.336342	0.560942	-0.000083
C110	C	1.586342	0.810942	0.249917
C111	C	1.836342	1.060942	0.499917
C112	C	2.086342	1.310942	0.749917
C113	C	1.345018	0.199404	-0.000117
C114	C	1.595018	0.449404	0.249883
C115	C	1.845018	0.699404	0.499883
C116	C	2.095018	0.949404	0.749883
N117	N	1.340710	-0.119816	-0.308350
N118	N	1.590710	0.130184	-0.058350
N119	N	1.840710	0.380184	0.191650
N120	N	2.090710	0.630184	0.441650
C121	C	1.340666	-0.119826	0.425979
C122	C	1.590666	0.130174	0.675979
C123	C	1.840666	0.380174	0.925979
C124	C	2.090666	0.630174	1.175979
C125	C	1.340687	-0.119823	0.573817
C126	C	1.590687	0.130177	0.823817
C127	C	1.840687	0.380177	1.073817
C128	C	2.090687	0.630177	1.323817
H129	H	1.530161	0.318650	-0.000124
H130	H	1.780161	0.568650	0.249876
H131	H	2.030161	0.818650	0.499876
H132	H	2.280161	1.068650	0.749876
Br133	Br	1.581953	0.504658	-0.000099
Br134	Br	1.831953	0.754658	0.249901
Br135	Br	2.081953	1.004658	0.499901
Br136	Br	2.331953	1.254658	0.749901
H137	H	1.151201	0.441709	-0.000073
H138	H	1.401201	0.691709	0.249927
H139	H	1.651201	0.941709	0.499927
H140	H	1.901201	1.191709	0.749927
Br141	Br	1.099396	0.255679	-0.000065
Br142	Br	1.349396	0.505679	0.249935
Br143	Br	1.599396	0.755679	0.499935
Br144	Br	1.849396	1.005679	0.749935
