data_functionalizedCrystal
_audit_creation_method	'MofGen! by Chris Wilmer'
_symmetry_space_group_name_H-M	'P1'
_symmetry_Int_Tables_number	1
_symmetry_cell_setting	triclinic
loop_
_symmetry_equiv_pos_as_xyz
  x,y,z
_cell_length_a	14.853567
_cell_length_b	16.992694
_cell_length_c	15.455313
_cell_angle_alpha	92.857794
_cell_angle_beta	92.672621
_cell_angle_gamma	92.848423
loop_
_atom_site_label
_atom_site_type_symbol
_atom_site_fract_x
_atom_site_fract_y
_atom_site_fract_z
O1	O	0.187488	-1.044027	-0.072010
O2	O	0.185390	-0.815740	-0.072036
O3	O	0.055640	-0.935981	-0.072025
O4	O	0.317238	-0.923785	-0.072021
O5	O	0.063027	-0.929105	0.072237
O6	O	0.192777	-0.808864	0.072226
O7	O	0.194875	-1.037151	0.072251
Cu8	Cu	0.194501	-0.922380	0.085411
Cu9	Cu	0.185764	-0.930511	-0.085195
O10	O	0.324625	-0.916909	0.072241
C11	C	0.025705	-0.931991	0.000103
C12	C	-0.074496	-0.930335	0.000096
C13	C	0.186385	-0.783087	0.000092
C14	C	0.178334	-0.696034	0.000081
C15	C	0.193880	-1.069804	0.000122
C16	C	0.201931	-1.156857	0.000127
C17	C	-0.492567	-0.851909	0.000103
C18	C	-0.503760	-0.994758	0.000119
C19	C	-0.409617	-0.996315	0.000114
C20	C	-0.356944	-0.925668	0.000105
C21	C	-0.398414	-0.853464	0.000101
C22	C	-0.368139	-1.068518	0.000127
C23	C	-0.273990	-1.070078	0.000123
C24	C	-0.221316	-0.999430	0.000108
C25	C	-0.262791	-0.927223	0.000103
C26	C	-0.210118	-0.856576	0.000094
C27	C	-0.251593	-0.784368	0.000082
C28	C	-0.345740	-0.782816	0.000086
C29	C	-0.127169	-1.000982	0.000105
C30	C	-0.115966	-0.858131	0.000091
C31	C	0.354560	-0.920900	0.000110
C32	C	0.454760	-0.922556	0.000112
N33	N	0.200645	-0.916666	0.205406
C34	C	0.256009	-0.645878	0.000083
C35	C	0.248440	-0.564083	0.000095
C36	C	0.163195	-0.532445	0.000099
C37	C	0.085514	-0.582608	0.000100
C38	C	0.093084	-0.664401	0.000094
C39	C	0.131820	-0.288813	0.000122
C40	C	0.124255	-0.207013	0.000125
C41	C	0.287183	-0.188493	0.000122
C42	C	0.294745	-0.270290	0.000111
C43	C	0.217064	-0.320445	0.000116
N44	N	0.155456	-0.448838	0.000108
N45	N	0.224804	-0.404050	0.000113
N46	N	0.179613	-0.936231	-0.205190
C47	C	0.145545	-0.967766	0.250805
C48	C	0.150201	-0.963453	0.341612
C49	C	0.209961	-0.908042	0.387019
C50	C	0.265063	-0.856936	0.341614
C51	C	0.260402	-0.861246	0.250808
C52	C	0.230054	-0.889436	0.658599
C53	C	0.234713	-0.885131	0.749411
C54	C	0.119849	-0.991647	0.749403
C55	C	0.115198	-0.995956	0.658595
C56	C	0.170296	-0.944847	0.613198
N57	N	0.214723	-0.903633	0.479839
N58	N	0.165529	-0.949253	0.520380
H59	H	-0.073085	-0.800601	0.000080
H60	H	0.029832	-0.705238	0.000092
O61	O	0.057056	-1.049557	0.614257
C62	C	0.039657	-1.160964	0.511056
C63	C	0.105742	-1.100517	0.561356
H64	H	0.078992	-1.202170	0.468260
H65	H	0.000808	-1.196841	0.558838
H66	H	-0.009766	-1.128589	0.468786
H67	H	0.155220	-1.132829	0.603628
H68	H	0.144525	-1.064641	0.513528
H69	H	0.283380	-0.840006	0.786377
H70	H	0.096886	-1.012891	0.213840
H71	H	0.311692	-0.523249	0.000096
O72	O	0.041375	-0.176407	0.000166
C73	C	-0.119432	-0.203405	0.000114
C74	C	-0.025632	-0.238170	0.000093
H75	H	-0.173633	-0.253324	0.000036
H76	H	-0.124012	-0.162728	0.060500
H77	H	-0.130089	-0.168420	-0.060247
H78	H	-0.014913	-0.273192	0.060413
H79	H	-0.021096	-0.278804	-0.060333
H80	H	0.364161	-0.296043	0.000098
H81	H	0.274919	-0.847822	0.621644
H82	H	-0.411032	-1.126034	0.000143
H83	H	-0.240230	-1.128874	0.000132
H84	H	-0.208694	-0.726847	0.000081
H85	H	-0.379517	-0.724028	0.000077
H86	H	0.068566	-0.329639	0.000127
H87	H	-0.093404	-1.059772	0.000120
O88	O	0.002773	-0.551749	0.000067
C89	C	-0.081096	-0.433950	0.000125
C90	C	0.012664	-0.468790	0.000145
H91	H	-0.073129	-0.366873	0.000207
H92	H	-0.122891	-0.457414	-0.060263
H93	H	-0.116681	-0.451777	0.060484
H94	H	0.048327	-0.450977	-0.060173
H95	H	0.054393	-0.445329	0.060573
O96	O	0.096653	-1.013183	0.385578
C97	C	-0.017781	-1.119275	0.375987
C98	C	0.042824	-1.063010	0.326089
H99	H	-0.061331	-1.159564	0.327912
H100	H	0.026144	-1.156518	0.418463
H101	H	-0.063071	-1.083353	0.418536
H102	H	0.088123	-1.098871	0.283492
H103	H	-0.001155	-1.025765	0.283667
H104	H	0.325425	-0.671631	0.000080
H105	H	0.313718	-0.811815	0.378590
H106	H	0.305269	-0.819634	0.213845
H107	H	-0.526339	-0.793119	0.000091
H108	H	-0.546652	-1.052275	0.000134
H109	H	0.350426	-0.147649	0.000119
H110	H	0.074990	-1.033256	0.786374
