data_functionalizedCrystal
_audit_creation_method	'MofGen! by Chris Wilmer'
_symmetry_space_group_name_H-M	'P1'
_symmetry_Int_Tables_number	1
_symmetry_cell_setting	triclinic
loop_
_symmetry_equiv_pos_as_xyz
  x,y,z
_cell_length_a	15.944499
_cell_length_b	15.944493
_cell_length_c	10.268362
_cell_angle_alpha	90.000590
_cell_angle_beta	89.992825
_cell_angle_gamma	83.476327
loop_
_atom_site_label
_atom_site_type_symbol
_atom_site_fract_x
_atom_site_fract_y
_atom_site_fract_z
O1	O	1.114529	0.108129	-0.108361
O2	O	0.869970	0.121531	-0.108344
O3	O	0.998953	-0.007450	-0.108364
O4	O	0.985546	0.237109	-0.108341
O5	O	0.998942	-0.007455	0.108237
O6	O	0.869959	0.121526	0.108256
O7	O	1.114518	0.108124	0.108240
Cu8	Cu	0.992237	0.114824	0.128025
Cu9	Cu	0.992251	0.114830	-0.128130
O10	O	0.985535	0.237104	0.108259
C11	C	0.838670	0.120979	-0.000042
C12	C	0.745422	0.119334	-0.000037
C13	C	0.453871	0.194269	-0.000049
C14	C	0.514913	0.155319	-0.106851
C15	C	0.409787	0.113358	-0.000068
C16	C	0.514888	0.155292	0.106701
C17	C	0.574695	0.116299	-0.000050
C18	C	0.469602	0.074386	-0.106957
C19	C	0.469570	0.074370	0.106690
C20	C	0.530595	0.035361	-0.000137
C21	C	0.314787	0.111666	-0.000079
C22	C	0.669694	0.117984	-0.000049
C23	C	0.998400	-0.038747	-0.000069
C24	C	0.996757	-0.131995	-0.000086
C25	C	1.072679	-0.367769	-0.000066
C26	C	1.031743	-0.418327	-0.106858
C27	C	0.993713	-0.302716	-0.000070
C28	C	1.031713	-0.418308	0.106693
C29	C	0.990778	-0.467625	-0.000048
C30	C	0.952797	-0.352045	-0.106950
C31	C	0.952780	-0.352023	0.106698
C32	C	0.911785	-0.402548	-0.000120
C33	C	0.995405	-0.207716	-0.000083
C34	C	0.989079	-0.562622	-0.000044
C35	C	1.145818	0.108675	-0.000065
C36	C	1.239066	0.110320	-0.000079
C37	C	0.986088	0.268401	-0.000039
C38	C	0.987731	0.361650	-0.000031
N39	N	0.992234	0.114819	0.308191
N40	N	0.992260	0.114829	-0.308296
C41	C	0.992246	0.114829	0.573862
C42	C	0.992237	0.114826	0.426024
H43	H	0.534952	0.189525	0.196989
H44	H	0.420527	0.261416	-0.000146
H45	H	0.843713	-0.418002	-0.000174
H46	H	1.065074	-0.447248	0.196972
H47	H	1.140699	-0.352153	-0.000178
H48	H	0.919455	-0.323059	0.196991
H49	H	0.449456	0.040174	0.196979
H50	H	0.563787	-0.031847	-0.000200
H51	H	1.065096	-0.447277	-0.197149
H52	H	0.535009	0.189546	-0.197131
H53	H	0.449635	0.040198	-0.197351
H54	H	0.919473	-0.323217	-0.197331
