data_functionalizedCrystal
_audit_creation_method	'MofGen! by Chris Wilmer'
_symmetry_space_group_name_H-M	'P1'
_symmetry_Int_Tables_number	1
_symmetry_cell_setting	triclinic
loop_
_symmetry_equiv_pos_as_xyz
  x,y,z
_cell_length_a	15.944493
_cell_length_b	17.019294
_cell_length_c	14.421503
_cell_angle_alpha	86.125318
_cell_angle_beta	89.992936
_cell_angle_gamma	83.434588
loop_
_atom_site_label
_atom_site_type_symbol
_atom_site_fract_x
_atom_site_fract_y
_atom_site_fract_z
O1	O	1.114433	0.101508	-0.085203
O2	O	0.869860	0.114099	-0.086213
O3	O	0.998969	-0.007029	-0.076534
O4	O	0.985324	0.222636	-0.094882
O5	O	0.998947	-0.007011	0.077688
O6	O	0.869839	0.114117	0.068009
O7	O	1.114411	0.101527	0.069019
Cu8	Cu	0.992123	0.107824	0.082596
Cu9	Cu	0.992148	0.107802	-0.099790
O10	O	0.985303	0.222654	0.059340
C11	C	0.838556	0.113594	-0.009061
C12	C	0.745309	0.112051	-0.008940
C13	C	0.509460	0.183350	-0.014637
C14	C	0.458939	0.144910	0.064479
C15	C	0.574591	0.109192	-0.008710
C16	C	0.458965	0.144875	-0.087571
C17	C	0.409685	0.106436	-0.008492
C18	C	0.525299	0.070773	0.070467
C19	C	0.525328	0.070748	-0.081652
C20	C	0.474840	0.032254	-0.002514
C21	C	0.669589	0.110782	-0.008835
C22	C	0.314690	0.104841	-0.008360
C23	C	0.998440	-0.036408	0.002923
C24	C	0.996887	-0.123978	0.009912
C25	C	0.996172	-0.165123	-0.070870
C26	C	0.994707	-0.247403	-0.064299
C27	C	0.993965	-0.288537	0.023054
C28	C	0.994678	-0.247385	0.103842
C29	C	0.996137	-0.165106	0.097271
C30	C	0.989556	-0.536966	0.047102
C31	C	0.988100	-0.619251	0.053667
C32	C	0.988127	-0.619263	-0.114475
C33	C	0.989591	-0.536983	-0.121039
C34	C	0.990300	-0.495838	-0.040251
C35	C	0.992471	-0.372640	0.029773
C36	C	0.991788	-0.411735	-0.046970
C37	C	1.145716	0.102032	-0.008135
C38	C	1.238963	0.103575	-0.008263
C39	C	0.985831	0.252034	-0.020119
C40	C	0.987384	0.339603	-0.027115
N41	N	0.992111	0.107838	0.210876
N42	N	0.992167	0.107782	-0.228069
C43	C	0.932401	0.163823	0.456056
C44	C	1.008284	0.179122	0.516638
C45	C	0.992132	0.107819	0.400039
C46	C	0.916269	0.092538	0.523549
C47	C	0.992145	0.107803	0.582761
C48	C	1.068053	0.123154	0.459257
C49	C	0.975987	0.036539	0.466165
C50	C	1.051925	0.051809	0.526722
C51	C	0.992123	0.107831	0.294776
C52	C	0.992162	0.107791	0.688021
H53	H	0.429953	0.176235	0.126265
Cl54	Cl	0.569848	0.022463	0.173685
Cl55	Cl	0.451075	-0.066441	0.005438
Cl56	Cl	0.997035	-0.113380	0.198830
H57	H	1.132229	0.136144	0.431166
H58	H	0.852107	0.079621	0.551750
Cl59	Cl	0.570109	0.022429	-0.177054
Cl60	Cl	1.130002	-0.021326	0.574148
Cl61	Cl	0.987234	-0.670993	-0.216030
Cl62	Cl	0.954849	-0.056488	0.431607
Cl63	Cl	0.990434	-0.485250	0.148665
H64	H	0.991869	-0.406141	0.100896
Cl65	Cl	0.533469	0.281969	-0.022405
H66	H	0.996781	-0.131639	-0.142002
Cl67	Cl	1.029387	0.272177	0.551158
Cl68	Cl	0.854495	0.236998	0.408364
H69	H	0.429996	0.176200	-0.154354
H70	H	0.994128	-0.280901	-0.130080
Cl71	Cl	0.990526	-0.485278	-0.230859
Cl72	Cl	0.987172	-0.670962	0.163491
H73	H	0.992386	-0.378240	-0.118093
Cl74	Cl	0.993735	-0.299095	0.213659
