data_functionalizedCrystal
_audit_creation_method	'MofGen! by Chris Wilmer'
_symmetry_space_group_name_H-M	'P1'
_symmetry_Int_Tables_number	1
_symmetry_cell_setting	triclinic
loop_
_symmetry_equiv_pos_as_xyz
  x,y,z
_cell_length_a	19.188930
_cell_length_b	19.188924
_cell_length_c	14.750779
_cell_angle_alpha	77.399495
_cell_angle_beta	102.584925
_cell_angle_gamma	83.143372
loop_
_atom_site_label
_atom_site_type_symbol
_atom_site_fract_x
_atom_site_fract_y
_atom_site_fract_z
O1	O	0.910881	0.102421	-0.080135
O2	O	1.244214	0.435755	0.253199
O3	O	1.577548	0.769088	0.586532
O4	O	0.707582	0.114143	-0.080069
O5	O	1.040915	0.447476	0.253264
O6	O	1.374249	0.780810	0.586597
O7	O	0.815103	0.006624	-0.080093
O8	O	1.148436	0.339958	0.253241
O9	O	1.481770	0.673291	0.586574
O10	O	0.803360	0.209940	-0.080112
O11	O	1.136693	0.543273	0.253222
O12	O	1.470027	0.876607	0.586555
O13	O	0.845498	-0.023767	0.079551
O14	O	1.178831	0.309567	0.412884
O15	O	1.512164	0.642900	0.746218
O16	O	0.737977	0.083752	0.079574
O17	O	1.071310	0.417086	0.412908
O18	O	1.404643	0.750419	0.746241
O19	O	0.941276	0.072030	0.079509
O20	O	1.274609	0.405364	0.412842
O21	O	1.607943	0.738697	0.746176
Zn22	Zn	0.844452	0.073066	0.104889
Zn23	Zn	1.177785	0.406399	0.438222
Zn24	Zn	1.511119	0.739733	0.771555
Zn25	Zn	0.804406	0.113107	-0.105449
Zn26	Zn	1.137739	0.446441	0.227884
Zn27	Zn	1.471072	0.779774	0.561218
O28	O	0.833755	0.179549	0.079532
O29	O	1.167088	0.512882	0.412866
O30	O	1.500422	0.846216	0.746199
C31	C	0.696770	0.098566	-0.000239
C32	C	1.030103	0.431899	0.333094
C33	C	1.363437	0.765233	0.666428
C34	C	0.619270	0.097421	-0.000214
C35	C	0.952604	0.430754	0.333120
C36	C	1.285937	0.764087	0.666453
C37	C	0.574341	0.160516	-0.000235
C38	C	0.907674	0.493849	0.333099
C39	C	1.241007	0.827182	0.666432
C40	C	0.501515	0.159446	-0.000245
C41	C	0.834848	0.492779	0.333088
C42	C	1.168182	0.826113	0.666421
C43	C	0.473618	0.095281	-0.000254
C44	C	0.806952	0.428615	0.333079
C45	C	1.140285	0.761948	0.666413
C46	C	0.518559	0.032177	-0.000228
C47	C	0.851892	0.365510	0.333106
C48	C	1.185225	0.698844	0.666439
C49	C	0.591385	0.033247	-0.000208
C50	C	0.924718	0.366580	0.333126
C51	C	1.258051	0.699913	0.666459
N52	N	0.355288	0.056584	-0.054622
N53	N	0.688622	0.389917	0.278712
N54	N	1.021955	0.723251	0.612045
N55	N	0.286106	0.055573	-0.054643
N56	N	0.619439	0.388906	0.278690
N57	N	0.952772	0.722239	0.612024
C58	C	0.254199	0.092054	-0.000312
C59	C	0.587532	0.425388	0.333021
C60	C	0.920865	0.758721	0.666354
N61	N	0.294084	0.129598	0.054028
N62	N	0.627417	0.462932	0.387361
N63	N	0.960751	0.796265	0.720695
N64	N	0.363272	0.130613	0.054045
N65	N	0.696605	0.463946	0.387378
N66	N	1.029939	0.797279	0.720712
C67	C	0.394652	0.094114	-0.000275
C68	C	0.727985	0.427448	0.333058
C69	C	1.061318	0.760781	0.666392
C70	C	0.130303	0.153994	-0.000343
C71	C	0.463636	0.487327	0.332990
C72	C	0.796970	0.820660	0.666323
C73	C	0.057477	0.152920	-0.000348
C74	C	0.390811	0.486253	0.332986
C75	C	0.724144	0.819587	0.666319
C76	C	0.074521	0.025651	-0.000340
C77	C	0.407854	0.358984	0.332993
C78	C	0.741187	0.692318	0.666327
C79	C	0.147347	0.026725	-0.000326
C80	C	0.480680	0.360058	0.333008
C81	C	0.814013	0.693391	0.666341
C82	C	0.175232	0.090899	-0.000332
C83	C	0.508565	0.424232	0.333001
C84	C	0.841899	0.757565	0.666335
C85	C	0.829921	-0.034582	-0.000270
C86	C	1.163254	0.298751	0.333064
C87	C	1.496588	0.632084	0.666397
C88	C	0.828783	-0.112088	-0.000267
C89	C	1.162116	0.221246	0.333066
C90	C	1.495450	0.554579	0.666400
C91	C	0.811683	-0.131920	-0.087289
C92	C	1.145017	0.201413	0.246045
C93	C	1.478350	0.534746	0.579378
C94	C	0.810602	-0.204742	-0.087296
C95	C	1.143935	0.128592	0.246038
C96	C	1.477269	0.461925	0.579371
C97	C	0.826635	-0.257730	-0.000276
C98	C	1.159969	0.075603	0.333058
C99	C	1.493302	0.408936	0.666391
C100	C	0.843734	-0.237891	0.086758
C101	C	1.177067	0.095443	0.420091
C102	C	1.510400	0.428776	0.753424
C103	C	0.844807	-0.165069	0.086762
C104	C	1.178141	0.168264	0.420095
C105	C	1.511474	0.501598	0.753429
N106	N	0.877012	-0.389721	0.064479
N107	N	1.210345	-0.056387	0.397812
N108	N	1.543679	0.276946	0.731145
N109	N	0.875992	-0.458897	0.064469
N110	N	1.209326	-0.125564	0.397802
N111	N	1.542659	0.207769	0.731135
C112	C	0.823400	-0.477138	-0.000284
C113	C	1.156733	-0.143805	0.333049
C114	C	1.490067	0.189529	0.666383
N115	N	0.771871	-0.423588	-0.065041
N116	N	1.105205	-0.090254	0.268293
N117	N	1.438538	0.243079	0.601626
N118	N	0.772894	-0.354405	-0.065033
N119	N	1.106227	-0.021071	0.268300
N120	N	1.439561	0.312262	0.601633
C121	C	0.825473	-0.336695	-0.000271
C122	C	1.158806	-0.003362	0.333062
C123	C	1.492139	0.329972	0.666396
C124	C	0.805126	-0.575931	-0.087319
C125	C	1.138459	-0.242597	0.246014
C126	C	1.471792	0.090736	0.579347
C127	C	0.804041	-0.648754	-0.087323
C128	C	1.137374	-0.315420	0.246011
C129	C	1.470707	0.017913	0.579344
C130	C	0.837180	-0.681902	0.086733
C131	C	1.170513	-0.348569	0.420066
C132	C	1.503846	-0.015236	0.753400
C133	C	0.838257	-0.609080	0.086734
C134	C	1.171590	-0.275746	0.420067
C135	C	1.504924	0.057587	0.753401
C136	C	0.822233	-0.556098	-0.000295
C137	C	1.155566	-0.222765	0.333038
C138	C	1.488899	0.110569	0.666372
C139	C	0.952087	0.087608	-0.000323
C140	C	1.285421	0.420941	0.333010
C141	C	1.618754	0.754274	0.666343
C142	C	1.029586	0.088755	-0.000355
C143	C	1.362919	0.422088	0.332978
C144	C	1.696253	0.755421	0.666312
C145	C	0.818936	0.220756	-0.000293
C146	C	1.152270	0.554090	0.333041
C147	C	1.485603	0.887423	0.666374
C148	C	0.820073	0.298263	-0.000302
C149	C	1.153407	0.631596	0.333031
C150	C	1.486740	0.964929	0.666365
N151	N	0.871788	0.045738	0.248438
N152	N	1.205121	0.379072	0.581772
N153	N	1.538455	0.712405	0.915105
N154	N	0.777075	0.140430	-0.248999
N155	N	1.110409	0.473763	0.084335
N156	N	1.443742	0.807096	0.417668
C157	C	0.700730	0.216721	0.600293
C158	C	1.034064	0.550054	0.933627
C159	C	1.367397	0.883387	1.266960
C160	C	0.719891	0.197576	0.700788
C161	C	1.053224	0.530909	1.034122
C162	C	1.386557	0.864243	1.367455
C163	C	0.815120	0.102403	0.700731
C164	C	1.148453	0.435736	1.034064
C165	C	1.481787	0.769070	1.367397
C166	C	0.795965	0.121538	0.600234
C167	C	1.129299	0.454871	0.933567
C168	C	1.462632	0.788204	1.266900
C169	C	0.738771	0.178697	0.550023
C170	C	1.072104	0.512031	0.883356
C171	C	1.405437	0.845364	1.216690
C172	C	0.834006	0.083514	0.549963
C173	C	1.167339	0.416848	0.883296
C174	C	1.500672	0.750181	1.216630
C175	C	0.814855	0.102650	0.449475
C176	C	1.148188	0.435983	0.782808
C177	C	1.481521	0.769317	1.116141
C178	C	0.757664	0.159809	0.399257
C179	C	1.090997	0.493142	0.732590
C180	C	1.424330	0.826476	1.065924
C181	C	0.719620	0.197833	0.449535
C182	C	1.052953	0.531167	0.782868
C183	C	1.386286	0.864500	1.116201
C184	C	0.891203	0.026358	0.600175
C185	C	1.224537	0.359691	0.933509
C186	C	1.557870	0.693025	1.266842
C187	C	0.929244	-0.011665	0.549905
C188	C	1.262577	0.321668	0.883238
C189	C	1.595910	0.655001	1.216572
C190	C	0.910090	0.007467	0.449415
C191	C	1.243423	0.340800	0.782748
C192	C	1.576756	0.674134	1.116082
C193	C	0.852899	0.064626	0.399197
C194	C	1.186232	0.397959	0.732530
C195	C	1.519565	0.731293	1.065864
C196	C	0.948134	-0.030557	0.399137
C197	C	1.281467	0.302776	0.732471
C198	C	1.614800	0.636109	1.065804
C199	C	0.928983	-0.011422	0.298649
C200	C	1.262316	0.321912	0.631982
C201	C	1.595649	0.655245	0.965316
C202	C	0.833748	0.083762	0.298709
C203	C	1.167081	0.417095	0.632042
C204	C	1.500414	0.750428	0.965376
H205	H	0.597040	0.212771	-0.000242
H206	H	0.930373	0.546105	0.333092
H207	H	1.263706	0.879438	0.666425
C208	C	0.487871	-0.038404	-0.000238
C209	C	0.821204	0.294929	0.333095
C210	C	1.154537	0.628262	0.666428
N211	N	0.464757	-0.091569	-0.000244
N212	N	0.798091	0.241765	0.333090
N213	N	1.131424	0.575098	0.666423
C214	C	0.452081	0.228860	-0.000280
C215	C	0.785415	0.562194	0.333054
C216	C	1.118748	0.895527	0.666387
N217	N	0.414849	0.281144	-0.000310
N218	N	0.748182	0.614478	0.333023
N219	N	1.081516	0.947811	0.666356
C220	C	0.196769	-0.042684	-0.000314
C221	C	0.530103	0.290649	0.333019
C222	C	0.863436	0.623983	0.666353
N223	N	0.233995	-0.094966	-0.000303
N224	N	0.567328	0.238367	0.333030
N225	N	0.900661	0.571701	0.666363
C226	C	0.857076	-0.587265	0.182466
C227	C	1.190409	-0.253931	0.515799
C228	C	1.523743	0.079402	0.849133
N229	N	0.871250	-0.570834	0.254576
N230	N	1.204583	-0.237501	0.587910
N231	N	1.537916	0.095832	0.921243
C232	C	0.640808	-0.036165	-0.000191
C233	C	0.974141	0.297168	0.333142
C234	C	1.307475	0.630502	0.666476
N235	N	0.678035	-0.088446	-0.000182
N236	N	1.011368	0.244887	0.333152
N237	N	1.344701	0.578221	0.666485
H238	H	0.153011	0.206245	-0.000334
H239	H	0.486344	0.539578	0.332999
H240	H	0.819678	0.872912	0.666332
H241	H	0.654152	0.263261	0.559410
H242	H	0.987485	0.596595	0.892743
H243	H	1.320818	0.929928	1.226077
H244	H	0.688909	0.228545	0.741714
H245	H	1.022243	0.561878	1.075047
H246	H	1.355576	0.895212	1.408380
H247	H	0.020897	0.204301	-0.000359
H248	H	0.354230	0.537634	0.332974
H249	H	0.687563	0.870967	0.666307
H250	H	0.051797	-0.026582	-0.000407
H251	H	0.385130	0.306752	0.332927
H252	H	0.718463	0.640085	0.666260
H253	H	0.792074	-0.532790	-0.158183
H254	H	1.125407	-0.199457	0.175150
H255	H	1.458740	0.133877	0.508483
H256	H	0.850229	-0.725045	0.157586
H257	H	1.183563	-0.391711	0.490920
H258	H	1.516896	-0.058378	0.824253
C259	C	0.770802	0.146613	0.243472
C260	C	1.104135	0.479946	0.576805
C261	C	1.437469	0.813279	0.910138
N262	N	0.723385	0.193942	0.201867
N263	N	1.056719	0.527275	0.535200
N264	N	1.390052	0.860609	0.868533
H265	H	0.856786	-0.281038	0.157610
H266	H	1.190119	0.052295	0.490943
H267	H	1.523453	0.385628	0.824276
H268	H	0.798633	-0.088786	-0.158155
H269	H	1.131966	0.244548	0.175179
H270	H	1.465300	0.577881	0.508512
H271	H	0.861690	0.055864	0.741624
H272	H	1.195024	0.389198	1.074957
H273	H	1.528357	0.722531	1.408290
C274	C	0.656674	0.260684	0.394297
C275	C	0.990007	0.594018	0.727631
C276	C	1.323341	0.927351	1.060964
N277	N	0.609257	0.308014	0.352692
N278	N	0.942591	0.641347	0.686026
N279	N	1.275924	0.974680	1.019359
C280	C	0.912268	0.005309	0.710716
C281	C	1.245601	0.338643	1.044050
C282	C	1.578935	0.671976	1.377383
N283	N	0.928132	-0.010545	0.793976
N284	N	1.261466	0.322788	1.127309
N285	N	1.594799	0.656122	1.460643
C286	C	0.992154	-0.074542	0.605148
C287	C	1.325488	0.258791	0.938481
C288	C	1.658821	0.592125	1.271815
N289	N	1.039538	-0.121904	0.646756
N290	N	1.372871	0.211429	0.980090
N291	N	1.706204	0.544763	1.313423
H292	H	0.994707	-0.077093	0.440032
H293	H	1.328040	0.256241	0.773365
H294	H	1.661373	0.589574	1.106699
C295	C	0.791786	-0.226563	-0.183030
C296	C	1.125119	0.106770	0.150303
C297	C	1.458453	0.440103	0.483636
N298	N	0.777613	-0.242997	-0.255138
N299	N	1.110946	0.090336	0.078195
N300	N	1.444280	0.423670	0.411529
C301	C	0.970827	-0.053251	0.243348
C302	C	1.304160	0.280083	0.576682
C303	C	1.637494	0.613416	0.910015
N304	N	1.002347	-0.084757	0.201696
N305	N	1.335680	0.248576	0.535029
N306	N	1.669013	0.581910	0.868362
H307	H	0.790112	-0.664897	-0.158189
H308	H	1.123445	-0.331564	0.175144
H309	H	1.456779	0.001769	0.508477
C310	C	0.863623	-0.143255	0.182497
C311	C	1.196957	0.190079	0.515831
C312	C	1.530290	0.523412	0.849164
N313	N	0.877798	-0.126823	0.254606
N314	N	1.211132	0.206510	0.587940
N315	N	1.544465	0.539843	0.921273
H316	H	0.742074	0.175391	0.317433
H317	H	1.075407	0.508724	0.650766
H318	H	1.408741	0.842057	0.984100
