data_functionalizedCrystal
_audit_creation_method	'MofGen! by Chris Wilmer'
_symmetry_space_group_name_H-M	'P1'
_symmetry_Int_Tables_number	1
_symmetry_cell_setting	triclinic
loop_
_symmetry_equiv_pos_as_xyz
  x,y,z
_cell_length_a	6.817900
_cell_length_b	16.305597
_cell_length_c	16.305550
_cell_angle_alpha	95.371930
_cell_angle_beta	103.455250
_cell_angle_gamma	103.455834
loop_
_atom_site_label
_atom_site_type_symbol
_atom_site_fract_x
_atom_site_fract_y
_atom_site_fract_z
V1	V	-4.026184	-0.117429	-0.263322
O2	O	-4.013844	0.004910	-0.258012
O3	O	-3.977574	-0.232137	-0.261808
O4	O	-3.977591	-0.115944	-0.378036
O5	O	-4.013827	-0.112087	-0.140980
V6	V	-4.509864	-0.102758	-0.248654
O7	O	-4.287097	-0.149611	-0.295498
O8	O	-4.699147	-0.070575	-0.216479
O9	O	-4.335267	0.011951	-0.250169
O10	O	-4.639601	-0.225097	-0.253965
O11	O	-4.639617	-0.108099	-0.370997
O12	O	-4.335250	-0.104243	-0.133941
C13	C	-3.822530	-0.260091	-0.257728
C14	C	-3.864072	-0.353868	-0.257254
C15	C	-4.015199	-0.694622	-0.255573
C16	C	-3.779480	-0.653779	-0.250966
C17	C	-3.735942	-0.556181	-0.251124
C18	C	-3.940222	-0.525570	-0.256407
C19	C	-4.023196	-0.550725	-0.177802
C20	C	-4.065002	-0.648256	-0.177220
C21	C	-4.153223	-0.674025	-0.338559
C22	C	-4.106392	-0.576516	-0.340014
C23	C	-3.897858	-0.430029	-0.256876
C24	C	-4.057566	-0.790162	-0.255098
C25	C	-3.822550	-0.111874	-0.405987
C26	C	-3.864102	-0.111419	-0.499768
C27	C	-4.015190	-0.109655	-0.840509
C28	C	-3.779145	-0.104421	-0.799567
C29	C	-3.735951	-0.105243	-0.702074
C30	C	-3.940232	-0.110530	-0.671463
C31	C	-4.107221	-0.193843	-0.722296
C32	C	-4.149085	-0.193372	-0.819844
C33	C	-4.069986	-0.032242	-0.794473
C34	C	-4.022057	-0.031583	-0.696629
C35	C	-3.897882	-0.111027	-0.575926
C36	C	-4.057549	-0.109164	-0.936046
C37	C	-4.153653	0.039900	-0.254247
C38	C	-4.091350	0.133676	-0.254726
C39	C	-4.153633	-0.108316	-0.105985
C40	C	-4.091320	-0.108767	-0.012204
H41	H	-4.047529	-0.560983	-0.398178
N42	N	-3.875159	-0.505862	-0.100155
N43	N	-3.796266	-0.546439	-0.045939
H44	H	-3.691704	-0.514757	0.008899
N45	N	-4.297505	-0.551663	-0.350966
N46	N	-4.314430	-0.495752	-0.297087
H47	H	-4.449409	-0.478199	-0.304815
H48	H	-3.674445	-0.667116	-0.191115
H49	H	-3.733628	-0.684409	-0.306909
H50	H	-4.325854	-0.701034	-0.342754
N51	N	-3.576877	-0.512786	-0.175823
N52	N	-3.497723	-0.554573	-0.122985
H53	H	-3.385382	-0.523927	-0.069799
N54	N	-3.870287	0.045736	-0.653316
N55	N	-3.905512	0.116266	-0.664694
H56	H	-3.798322	0.170872	-0.634099
H57	H	-4.235016	-0.675100	-0.177167
H58	H	-3.966022	-0.659587	-0.114785
N59	N	-4.103648	-0.266875	-0.858142
N60	N	-3.966349	-0.258034	-0.898179
H61	H	-3.934246	-0.309946	-0.925222
N62	N	-4.367151	-0.202556	-0.855006
N63	N	-4.436895	-0.203856	-0.933257
H64	H	-4.590905	-0.210353	-0.958091
N65	N	-4.211384	-0.525809	-0.178877
N66	N	-4.211290	-0.448955	-0.176521
H67	H	-4.344198	-0.431355	-0.177283
N68	N	-4.206849	-0.030320	-0.669847
N69	N	-4.366822	-0.091261	-0.697283
H70	H	-4.497353	-0.090388	-0.678371
N71	N	-4.118483	-0.715020	-0.413336
N72	N	-3.991561	-0.759922	-0.406372
H73	H	-3.967002	-0.788875	-0.459178
H74	H	-3.609485	-0.045341	-0.666902
H75	H	-3.669702	-0.539416	-0.307294
N76	N	-3.646047	-0.028916	-0.814891
N77	N	-3.723595	0.021920	-0.856169
H78	H	-3.629596	0.075249	-0.866997
N79	N	-3.722514	-0.174194	-0.839255
N80	N	-3.657683	-0.226170	-0.795545
H81	H	-3.617684	-0.275446	-0.823576
N82	N	-3.652565	-0.175812	-0.681787
N83	N	-3.475441	-0.163038	-0.631604
H84	H	-3.416548	-0.212880	-0.617276
H85	H	-4.260373	-0.200725	-0.703400
H86	H	-3.978618	0.030884	-0.807685
N87	N	-4.037631	-0.267377	-0.701380
N88	N	-3.865190	-0.258635	-0.649081
H89	H	-3.816029	-0.310566	-0.634308
H90	H	-4.242049	-0.035336	-0.821297
