data_functionalizedCrystal
_audit_creation_method	'MofGen! by Chris Wilmer'
_symmetry_space_group_name_H-M	'P1'
_symmetry_Int_Tables_number	1
_symmetry_cell_setting	triclinic
loop_
_symmetry_equiv_pos_as_xyz
  x,y,z
_cell_length_a	19.077105
_cell_length_b	12.827892
_cell_length_c	19.076919
_cell_angle_alpha	92.275535
_cell_angle_beta	90.076224
_cell_angle_gamma	87.711903
loop_
_atom_site_label
_atom_site_type_symbol
_atom_site_fract_x
_atom_site_fract_y
_atom_site_fract_z
Zn1	Zn	1.058323	-0.505562	-0.440440
Zn2	Zn	1.062981	-0.673587	-0.322941
Zn3	Zn	0.945540	-0.491563	-0.318233
Zn4	Zn	0.940802	-0.672957	-0.435693
O5	O	1.001912	-0.585917	-0.379327
O6	O	1.157274	-0.533973	-0.428810
O7	O	1.051334	-0.643846	-0.223985
O8	O	0.960534	-0.347187	-0.334460
O9	O	1.160695	-0.657421	-0.342484
O10	O	1.043396	-0.357472	-0.424245
O11	O	0.965050	-0.510114	-0.220526
O12	O	0.846579	-0.509503	-0.329857
O13	O	0.952460	-0.656347	-0.534655
O14	O	0.843098	-0.642772	-0.416155
O15	O	1.038802	-0.533362	-0.538142
O16	O	1.046740	-0.819737	-0.337881
O17	O	0.956976	-0.819274	-0.420720
C18	C	0.819342	-0.574551	-0.371981
C19	C	0.741237	-0.569714	-0.368855
C20	C	0.702753	-0.636925	-0.412246
C21	C	0.629365	-0.632367	-0.409312
C22	C	0.594463	-0.560602	-0.362983
C23	C	0.632953	-0.493385	-0.319590
C24	C	0.706339	-0.497938	-0.322528
C25	C	0.375174	-0.539528	-0.349389
C26	C	0.301782	-0.534981	-0.346453
C27	C	0.298199	-0.673963	-0.436177
C28	C	0.371587	-0.678514	-0.439108
C29	C	0.410071	-0.611293	-0.395717
N30	N	0.519449	-0.555944	-0.359982
N31	N	0.485083	-0.615947	-0.398723
C32	C	1.001868	-0.857424	-0.379313
C33	C	1.001913	-0.973581	-0.379333
C34	C	1.046380	-1.025566	-0.338391
C35	C	1.046427	-1.145620	-0.338411
C36	C	1.185194	-0.597329	-0.386702
C37	C	1.263298	-0.602192	-0.389845
C38	C	0.994583	-0.596346	-0.562607
C39	C	0.991460	-0.600790	-0.640711
C40	C	1.001974	-0.313353	-0.379357
C41	C	1.002000	-0.197202	-0.379370
C42	C	1.034945	-0.538849	-0.679221
C43	C	1.032002	-0.543020	-0.752607
C44	C	0.985578	-0.609138	-0.787481
C45	C	0.942089	-0.671081	-0.748966
C46	C	0.945028	-0.666904	-0.675581
C47	C	0.971962	-0.628492	-1.006763
C48	C	0.969027	-0.632667	-1.080153
C49	C	1.058939	-0.504604	-1.083789
C50	C	1.061878	-0.500438	-1.010402
C51	C	1.018386	-0.562376	-0.971894
N52	N	0.982570	-0.613406	-0.862494
N53	N	1.021391	-0.558103	-0.896882
C54	C	1.009252	-0.575456	-0.196761
C55	C	1.012511	-0.570727	-0.118663
H56	H	0.399999	-0.736955	-0.476832
H57	H	1.072750	-0.485012	-0.650831
H58	H	1.084495	-1.190325	-0.303357
H59	H	1.067413	-0.492584	-0.783958
H60	H	0.963881	-1.017954	-0.414402
H61	H	0.604530	-0.434948	-0.281871
H62	H	1.084418	-0.981195	-0.303327
H63	H	0.737673	-0.443203	-0.287198
H64	H	0.598034	-0.687098	-0.444645
O65	O	0.260709	-0.739145	-0.478301
C66	C	0.188452	-0.719759	-0.465765
H67	H	0.179350	-0.637135	-0.442441
H68	H	0.158469	-0.728231	-0.517275
H69	H	0.169109	-0.778235	-0.427442
H70	H	0.273368	-0.476530	-0.308731
H71	H	0.963926	-1.152504	-0.414421
O72	O	0.412444	-0.474187	-0.307171
C73	C	0.365899	-0.409855	-0.265665
H74	H	0.313683	-0.449275	-0.261085
H75	H	0.389306	-0.396733	-0.211163
H76	H	0.357071	-0.331539	-0.291181
O77	O	0.896892	-0.735190	-0.782805
C78	C	0.827582	-0.706986	-0.762040
H79	H	0.824861	-0.622134	-0.741737
H80	H	0.790932	-0.716577	-0.808901
H81	H	0.810908	-0.759441	-0.718695
H82	H	1.099683	-0.446600	-0.982013
O83	O	1.101109	-0.444469	-1.121302
C84	C	1.088574	-0.462348	-1.193553
H85	H	1.033938	-0.493770	-1.201387
H86	H	1.092239	-0.385956	-1.221642
H87	H	1.129410	-0.521774	-1.216052
H88	H	0.931220	-0.686511	-1.108546
H89	H	0.936558	-0.678943	-0.975419
O90	O	0.902871	-0.727237	-0.638201
C91	C	0.917480	-0.833362	-0.656752
H92	H	0.972804	-0.843274	-0.679195
H93	H	0.913358	-0.881864	-0.608239
H94	H	0.878091	-0.860765	-0.697821
H95	H	0.731165	-0.695367	-0.449970
