data_functionalizedCrystal
_audit_creation_method	'MofGen! by Chris Wilmer'
_symmetry_space_group_name_H-M	'P1'
_symmetry_Int_Tables_number	1
_symmetry_cell_setting	triclinic
loop_
_symmetry_equiv_pos_as_xyz
  x,y,z
_cell_length_a	27.731993
_cell_length_b	27.732046
_cell_length_c	15.021413
_cell_angle_alpha	90.002303
_cell_angle_beta	90.004294
_cell_angle_gamma	97.368814
loop_
_atom_site_label
_atom_site_type_symbol
_atom_site_fract_x
_atom_site_fract_y
_atom_site_fract_z
O1	O	0.640947	-0.057385	-0.073805
O2	O	1.140947	0.442615	0.426195
O3	O	0.500150	-0.066158	-0.073861
O4	O	1.000150	0.433842	0.426139
O5	O	0.574922	0.008626	-0.073811
O6	O	1.074922	0.508626	0.426189
O7	O	0.566175	-0.132169	-0.073854
O8	O	1.066175	0.367831	0.426146
O9	O	0.574910	0.008615	0.074253
O10	O	1.074910	0.508615	0.574253
O11	O	0.500138	-0.066169	0.074204
O12	O	1.000138	0.433831	0.574204
O13	O	0.640935	-0.057396	0.074260
O14	O	1.140935	0.442604	0.574260
Zn15	Zn	0.570534	-0.061784	0.097740
Zn16	Zn	1.070534	0.438216	0.597740
Zn17	Zn	0.570550	-0.061770	-0.097341
Zn18	Zn	1.070550	0.438230	0.402659
O19	O	0.566163	-0.132180	0.074210
O20	O	1.066163	0.367820	0.574210
C21	C	0.482136	-0.065983	0.000165
C22	C	0.982136	0.434017	0.500165
C23	C	0.428480	-0.065441	0.000144
C24	C	0.928480	0.434559	0.500144
C25	C	0.574732	0.026628	0.000224
C26	C	1.074732	0.526628	0.500224
C27	C	0.574180	0.080282	0.000234
C28	C	1.074180	0.580282	0.500234
C29	C	0.045326	-0.061505	-0.080521
C30	C	0.545326	0.438495	0.419479
C31	C	0.246984	-0.063572	-0.080546
C32	C	0.746984	0.436428	0.419454
O33	O	0.273062	-0.063815	-0.149188
O34	O	0.773062	0.436185	0.350812
N35	N	0.272197	-0.063836	0.000162
N36	N	0.772197	0.436164	0.500162
C37	C	0.246994	-0.063581	0.080882
C38	C	0.746994	0.436419	0.580882
O39	O	0.273068	-0.063848	0.149528
O40	O	0.773068	0.436152	0.649528
C41	C	0.045338	-0.061510	0.080906
C42	C	0.545338	0.438490	0.580906
C43	C	0.020126	-0.061251	0.000192
C44	C	0.520126	0.438749	0.500192
C45	C	0.020114	-0.061245	-0.161228
C46	C	0.520114	0.438755	0.338772
C47	C	-0.030297	-0.060731	-0.161221
C48	C	0.469703	0.439269	0.338779
C49	C	-0.055497	-0.060476	-0.080507
C50	C	0.444503	0.439524	0.419493
C51	C	-0.030285	-0.060737	0.000199
C52	C	0.469715	0.439263	0.500199
C53	C	0.020136	-0.061251	0.161624
C54	C	0.520136	0.438749	0.661624
C55	C	-0.030281	-0.060732	0.161623
C56	C	0.469719	0.439268	0.661623
C57	C	-0.055492	-0.060473	0.080910
C58	C	0.444508	0.439527	0.580910
C59	C	-0.105897	-0.059968	0.080920
C60	C	0.394103	0.440032	0.580920
N61	N	-0.131111	-0.059704	0.000212
N62	N	0.368889	0.440296	0.500212
C63	C	-0.105911	-0.059958	-0.080501
C64	C	0.394089	0.440042	0.419499
C65	C	0.352866	-0.064669	0.080864
C66	C	0.852866	0.435331	0.580864
C67	C	0.403280	-0.065187	0.080858
C68	C	0.903280	0.434813	0.580858
C69	C	0.403266	-0.065177	-0.080570
C70	C	0.903266	0.434823	0.419430
C71	C	0.352851	-0.064662	-0.080564
C72	C	0.852851	0.435338	0.419436
C73	C	0.327653	-0.064404	0.000156
C74	C	0.827653	0.435596	0.500156
C75	C	-0.211779	-0.058879	-0.080481
C76	C	0.288221	0.441121	0.419519
C77	C	-0.262195	-0.058367	-0.080466
C78	C	0.237805	0.441633	0.419534
C79	C	-0.262177	-0.058374	0.080961
C80	C	0.237823	0.441626	0.580961
C81	C	-0.211765	-0.058889	0.080947
C82	C	0.288235	0.441111	0.580947
C83	C	-0.186567	-0.059139	0.000219
C84	C	0.313433	0.440861	0.500219
O85	O	-0.132006	-0.059720	0.149526
O86	O	0.367994	0.440280	0.649526
O87	O	-0.131992	-0.059680	-0.149138
O88	O	0.368008	0.440320	0.350862
C89	C	0.095738	-0.062019	-0.080528
C90	C	0.595738	0.437981	0.419472
C91	C	0.120950	-0.062279	0.000178
C92	C	0.620950	0.437721	0.500178
C93	C	0.095750	-0.062025	0.080892
C94	C	0.595750	0.437975	0.580892
C95	C	0.171363	-0.062797	0.000173
C96	C	0.671363	0.437203	0.500173
C97	C	0.196563	-0.063051	-0.080541
C98	C	0.696563	0.436949	0.419459
C99	C	0.171350	-0.062787	-0.161249
C100	C	0.671350	0.437213	0.338751
C101	C	0.120938	-0.062273	-0.161242
C102	C	0.620938	0.437727	0.338758
C103	C	0.120964	-0.062289	0.161600
C104	C	0.620964	0.437711	0.661600
C105	C	0.171375	-0.062804	0.161586
C106	C	0.671375	0.437196	0.661586
C107	C	0.196575	-0.063058	0.080873
C108	C	0.696575	0.436942	0.580873
C109	C	0.614886	0.419106	0.000219
C110	C	1.114886	0.919106	0.500219
C111	C	0.612837	0.620765	0.000215
C112	C	1.112837	1.120765	0.500215
O113	O	0.650059	0.652028	0.000192
O114	O	1.150059	1.152028	0.500192
N115	N	0.568500	0.639880	0.000199
N116	N	1.068500	1.139880	0.500199
C117	C	0.524673	0.608577	0.000178
C118	C	1.024673	1.108577	0.500178
O119	O	0.486916	0.629463	0.000155
O120	O	0.986916	1.129463	0.500155
C121	C	0.526724	0.406919	0.000176
C122	C	1.026724	0.906919	0.500176
C123	C	0.571063	0.387807	0.000201
C124	C	1.071063	0.887807	0.500201
C125	C	0.659222	0.399993	0.000243
C126	C	1.159222	0.899993	0.500243
C127	C	0.659734	0.349581	0.000249
C128	C	1.159734	0.849581	0.500249
C129	C	0.615910	0.318282	0.000231
C130	C	1.115910	0.818282	0.500231
C131	C	0.571575	0.337395	0.000207
C132	C	1.071575	0.837395	0.500207
C133	C	0.482897	0.375616	0.000149
C134	C	0.982897	0.875616	0.500149
C135	C	0.483414	0.325199	0.000146
C136	C	0.983414	0.825199	0.500146
C137	C	0.527753	0.306087	0.000171
C138	C	1.027753	0.806087	0.500171
C139	C	0.528263	0.255683	0.000195
C140	C	1.028263	0.755683	0.500195
N141	N	0.572600	0.236568	0.000211
N142	N	1.072600	0.736568	0.500211
C143	C	0.616423	0.267868	0.000229
C144	C	1.116423	0.767868	0.500229
C145	C	0.523600	0.714451	0.000181
C146	C	1.023600	1.214451	0.500181
C147	C	0.523087	0.764865	0.000183
C148	C	1.023087	1.264865	0.500183
C149	C	0.611251	0.777050	0.000218
C150	C	1.111251	1.277050	0.500218
C151	C	0.611763	0.726635	0.000222
C152	C	1.111763	1.226635	0.500222
C153	C	0.567936	0.695336	0.000197
C154	C	1.067936	1.195336	0.500197
C155	C	0.617495	0.161999	0.000242
C156	C	1.117495	0.661999	0.500242
C157	C	0.618003	0.111582	0.000252
C158	C	1.118003	0.611582	0.500252
C159	C	0.529840	0.099401	0.000212
C160	C	1.029840	0.599401	0.500212
C161	C	0.529332	0.149814	0.000207
C162	C	1.029332	0.649814	0.500207
C163	C	0.573163	0.181112	0.000219
C164	C	1.073163	0.681112	0.500219
O165	O	0.491061	0.224392	0.000208
O166	O	0.991061	0.724392	0.500208
O167	O	0.654175	0.246972	0.000232
O168	O	1.154175	0.746972	0.500232
C169	C	0.614375	0.469518	0.000213
C170	C	1.114375	0.969518	0.500213
C171	C	0.570039	0.488630	0.000189
C172	C	1.070039	0.988630	0.500189
C173	C	0.526215	0.457331	0.000171
C174	C	1.026215	0.957331	0.500171
C175	C	0.569526	0.539045	0.000191
C176	C	1.069526	1.039045	0.500191
C177	C	0.613350	0.570344	0.000209
C178	C	1.113350	1.070344	0.500209
C179	C	0.657686	0.551229	0.000225
C180	C	1.157686	1.051229	0.500225
C181	C	0.658198	0.500817	0.000231
C182	C	1.158198	1.000817	0.500231
C183	C	0.481879	0.476446	0.000155
C184	C	0.981879	0.976446	0.500155
C185	C	0.481371	0.526859	0.000150
C186	C	0.981371	1.026859	0.500150
C187	C	0.525194	0.558158	0.000168
C188	C	1.025194	1.058158	0.500168
C189	C	0.658948	-0.057570	0.000232
C190	C	1.158948	0.442430	0.500232
C191	C	0.712605	-0.058113	0.000247
C192	C	1.212605	0.441887	0.500247
N193	N	0.570527	-0.061793	0.230878
N194	N	1.070527	0.438207	0.730878
C195	C	0.566354	0.849819	0.000184
C196	C	1.066354	1.349819	0.500184
C197	C	0.566911	0.796165	0.000201
C198	C	1.066911	1.296165	0.500201
N199	N	0.570561	-0.061757	-0.230479
N200	N	1.070561	0.438243	0.269521
C201	C	0.535948	-0.096357	0.470538
C202	C	1.035948	0.403643	0.970538
C203	C	0.579558	-0.105405	0.529886
C204	C	1.079558	0.394595	1.029886
C205	C	0.570540	-0.061781	0.412485
C206	C	1.070540	0.438219	0.912485
C207	C	0.526941	-0.052744	0.529878
C208	C	1.026941	0.447256	1.029878
C209	C	0.570548	-0.061770	0.587909
C210	C	1.070548	0.438230	1.087909
C211	C	0.614172	-0.070850	0.470527
C212	C	1.114172	0.429150	0.970527
C213	C	0.561527	-0.018171	0.470513
C214	C	1.061527	0.481829	0.970513
C215	C	0.605169	-0.027199	0.529835
C216	C	1.105169	0.472801	1.029835
C217	C	0.570534	-0.061788	0.311427
C218	C	1.070534	0.438212	0.811427
C219	C	0.570558	-0.061763	0.688964
C220	C	1.070558	0.438237	1.188964
H221	H	-0.191269	-0.059084	-0.146217
H222	H	0.308731	0.440916	0.353783
N223	N	0.095198	-0.061999	-0.243698
N224	N	0.595198	0.438001	0.256302
N225	N	0.105548	-0.027966	-0.297727
N226	N	0.605548	0.472034	0.202273
H227	H	0.087372	-0.027772	-0.355968
H228	H	0.587372	0.472228	0.144032
N229	N	-0.287917	-0.058118	0.163412
N230	N	0.212083	0.441882	0.663412
N231	N	-0.287001	-0.092262	0.217453
N232	N	0.212999	0.407738	0.717453
H233	H	-0.305180	-0.092078	0.275686
H234	H	0.194820	0.407922	0.775686
N235	N	0.660441	-0.080497	0.437982
N236	N	1.160441	0.419503	0.937982
N237	N	0.693413	-0.087349	0.491479
N238	N	1.193413	0.412651	0.991479
H239	H	0.726089	-0.094164	0.468494
H240	H	1.226089	0.405836	0.968494
N241	N	-0.186015	-0.059151	0.163398
N242	N	0.313985	0.440849	0.663398
N243	N	-0.153174	-0.025351	0.181429
N244	N	0.346826	0.474649	0.681429
H245	H	-0.134992	-0.025533	0.239665
H246	H	0.365008	0.474467	0.739665
N247	N	0.656016	0.809027	0.000212
N248	N	1.156016	1.309027	0.500212
N249	N	0.685587	0.807480	-0.062199
N250	N	1.185587	1.307480	0.437801
H251	H	0.717201	0.830067	-0.062211
H252	H	1.217201	1.330067	0.437789
N253	N	0.499287	-0.133070	0.437884
N254	N	0.999287	0.366930	0.937884
N255	N	0.500919	-0.176706	0.456936
N256	N	1.000919	0.323294	0.956936
H257	H	0.475029	-0.202636	0.433875
H258	H	0.975029	0.297364	0.933875
H259	H	0.653187	0.187476	0.000248
H260	H	1.153187	0.687476	0.500248
H261	H	0.695840	0.334025	0.000266
H262	H	1.195840	0.834025	0.500266
N263	N	-0.056028	-0.060476	0.244071
N264	N	0.443972	0.439524	0.744071
N265	N	-0.101040	-0.060019	0.244073
N266	N	0.398960	0.439981	0.744073
H267	H	-0.119225	-0.059840	0.302301
H268	H	0.380775	0.440160	0.802301
N269	N	0.480690	-0.043151	0.562600
N270	N	0.980690	0.456849	1.062600
N271	N	0.473409	-0.041255	0.644571
N272	N	0.973409	0.458745	1.144571
H273	H	0.440744	-0.034482	0.667681
H274	H	0.940744	0.465518	1.167681
H275	H	0.040656	-0.061461	0.227350
H276	H	0.540656	0.438539	0.727350
H277	H	-0.050820	-0.060517	-0.226946
H278	H	0.449180	0.439483	0.273054
H279	H	0.647868	0.711078	0.000242
H280	H	1.147868	1.211078	0.500242
H281	H	0.040627	-0.061450	-0.226958
H282	H	0.540627	0.438550	0.273042
H283	H	0.445262	0.542414	0.000138
H284	H	0.945262	1.042414	0.500138
H285	H	0.191876	-0.062996	-0.226969
H286	H	0.691876	0.437004	0.273031
H287	H	0.694911	0.425473	0.000254
H288	H	1.194911	0.925473	0.500254
H289	H	0.191898	-0.063019	0.227318
H290	H	0.691898	0.436981	0.727318
N291	N	0.703494	0.481307	0.000260
N292	N	1.203494	0.981307	0.500260
N293	N	0.742615	0.509266	0.000277
N294	N	1.242615	1.009266	0.500277
H295	H	0.774609	0.495490	0.000297
H296	H	1.274609	0.995490	0.500297
H297	H	0.587189	-0.142280	0.555966
H298	H	1.087189	0.357720	1.055966
H299	H	0.332327	-0.064451	-0.146287
H300	H	0.832327	0.435549	0.353713
H301	H	0.487909	0.688971	0.000160
H302	H	0.987909	1.188971	0.500160
N303	N	0.477792	0.784377	0.000178
N304	N	0.977792	1.284377	0.500178
N305	N	0.438669	0.756419	0.000163
N306	N	0.938669	1.256419	0.500163
H307	H	0.406677	0.770197	0.000157
H308	H	0.906677	1.270197	0.500157
H309	H	0.100451	-0.062080	0.227328
H310	H	0.600451	0.437920	0.727328
N311	N	0.437601	0.395122	0.000122
N312	N	0.937601	0.895122	0.500122
N313	N	0.398481	0.367162	0.000096
N314	N	0.898481	0.867162	0.500096
H315	H	0.366487	0.380936	0.000074
H316	H	0.866487	0.880936	0.500074
H317	H	0.447724	0.299717	0.000125
H318	H	0.947724	0.799717	0.500125
N319	N	0.641913	0.009489	0.562284
N320	N	1.141913	0.509489	1.062284
N321	N	0.685528	0.007852	0.543076
N322	N	1.185528	0.507852	1.043076
H323	H	0.711481	0.033762	0.565994
H324	H	1.211481	0.533762	1.065994
H325	H	0.553882	0.018692	0.444412
H326	H	1.053882	0.518692	0.944412
N327	N	0.429020	-0.065432	-0.163011
N328	N	0.929020	0.434568	0.336989
N329	N	0.474033	-0.065890	-0.162994
N330	N	0.974033	0.434110	0.337006
H331	H	0.492225	-0.066065	-0.221213
H332	H	0.992225	0.433935	0.278787
H333	H	0.654111	0.096024	0.000274
H334	H	1.154111	0.596024	0.500274
H335	H	0.423802	-0.065406	0.146583
H336	H	0.923802	0.434594	0.646583
N337	N	0.484037	0.169331	0.000209
N338	N	0.984037	0.669331	0.500209
N339	N	0.444913	0.141378	0.000207
N340	N	0.944913	0.641378	0.500207
H341	H	0.412922	0.155158	0.000206
H342	H	0.912922	0.655158	0.500206
N343	N	0.485082	0.067418	0.000202
N344	N	0.985082	0.567418	0.500202
N345	N	0.485551	0.022407	0.000204
N346	N	0.985551	0.522407	0.500204
H347	H	0.453940	-0.000183	0.000192
H348	H	0.953940	0.499817	0.500192
H349	H	0.332355	-0.064457	0.146599
H350	H	0.832355	0.435543	0.646599
N351	N	0.437112	0.444479	0.000125
N352	N	0.937112	0.944479	0.500125
N353	N	0.407543	0.446030	-0.062299
N354	N	0.907543	0.946030	0.437701
H355	H	0.375923	0.423454	-0.062318
H356	H	0.875923	0.923454	0.437682
H357	H	0.693369	0.576722	0.000244
H358	H	1.193369	1.076722	0.500244
H359	H	-0.282721	-0.058157	-0.146196
H360	H	0.217279	0.441843	0.353804
