data_functionalizedCrystal
_audit_creation_method	'MofGen! by Chris Wilmer'
_symmetry_space_group_name_H-M	'P1'
_symmetry_Int_Tables_number	1
_symmetry_cell_setting	triclinic
loop_
_symmetry_equiv_pos_as_xyz
  x,y,z
_cell_length_a	8.559649
_cell_length_b	8.559649
_cell_length_c	7.681481
_cell_angle_alpha	85.069100
_cell_angle_beta	85.087445
_cell_angle_gamma	110.221336
loop_
_atom_site_label
_atom_site_type_symbol
_atom_site_fract_x
_atom_site_fract_y
_atom_site_fract_z
O1	O	-2.109658	-0.037794	-0.146430
O2	O	-1.634173	0.045988	-0.146430
O3	O	-1.913806	-0.233646	-0.146429
O4	O	-1.830024	0.241840	-0.146432
O5	O	-1.948233	-0.268133	0.146429
O6	O	-1.668600	0.011500	0.146428
O7	O	-2.144084	-0.072281	0.146428
Zn8	Zn	-1.911808	-0.035866	0.192925
Zn9	Zn	-1.866449	0.009573	-0.192928
O10	O	-1.864451	0.207352	0.146426
C11	C	-1.591077	0.035093	-0.000002
C12	C	-1.411378	0.053992	-0.000002
C13	C	-1.937368	-0.311198	-0.000003
C14	C	-1.956266	-0.490896	-0.000013
C15	C	-1.187180	-0.061387	-0.000002
C16	C	-1.366879	-0.080286	-0.000003
C17	C	-1.840889	0.284905	-0.000004
C18	C	-1.821989	0.464604	-0.000006
N19	N	-1.942776	-0.066880	0.456260
N20	N	-1.835496	0.040571	-0.456262
H21	H	-1.311988	0.183421	-0.000011
N22	N	-1.650553	-0.403774	0.000020
H23	H	-1.660897	-0.289755	0.000018
H24	H	-1.575261	-0.404043	-0.108537
H25	H	-2.085696	-0.590286	0.000002
H26	H	-1.725985	0.150248	0.468540
N27	N	-1.498518	-0.251719	0.000010
H28	H	-1.498367	-0.327105	0.108574
H29	H	-1.472776	-0.301402	-0.108623
H30	H	-2.052304	-0.176553	0.531466
