data_functionalizedCrystal
_audit_creation_method	'MofGen! by Chris Wilmer'
_symmetry_space_group_name_H-M	'P1'
_symmetry_Int_Tables_number	1
_symmetry_cell_setting	triclinic
loop_
_symmetry_equiv_pos_as_xyz
  x,y,z
_cell_length_a	17.077404
_cell_length_b	18.215405
_cell_length_c	18.215398
_cell_angle_alpha	90.028025
_cell_angle_beta	90.019224
_cell_angle_gamma	90.025110
loop_
_atom_site_label
_atom_site_type_symbol
_atom_site_fract_x
_atom_site_fract_y
_atom_site_fract_z
Zn1	Zn	1.200042	-0.293006	0.416098
Zn2	Zn	1.533375	0.040328	0.749431
Zn3	Zn	1.866708	0.373661	1.082765
Zn4	Zn	1.199945	-0.416072	0.293026
Zn5	Zn	1.533278	-0.082738	0.626359
Zn6	Zn	1.866611	0.250595	0.959693
Zn7	Zn	1.068774	-0.293024	0.293046
Zn8	Zn	1.402107	0.040309	0.626379
Zn9	Zn	1.735441	0.373643	0.959712
Zn10	Zn	1.068737	-0.416036	0.416051
Zn11	Zn	1.402070	-0.082702	0.749385
Zn12	Zn	1.735403	0.250631	1.082718
O13	O	1.134374	-0.354534	0.354555
O14	O	1.467708	-0.021201	0.687889
O15	O	1.801041	0.312132	1.021222
O16	O	1.309876	-0.309338	0.399783
O17	O	1.643209	0.023995	0.733117
O18	O	1.976542	0.357328	1.066450
O19	O	1.182520	-0.399772	0.190044
O20	O	1.515853	-0.066438	0.523378
O21	O	1.849186	0.266895	0.856711
O22	O	1.086243	-0.190037	0.309397
O23	O	1.419576	0.143296	0.642730
O24	O	1.752910	0.476629	0.976063
O25	O	1.309804	-0.399754	0.309363
O26	O	1.643138	-0.066421	0.642696
O27	O	1.976471	0.266913	0.976030
O28	O	1.182685	-0.190024	0.399802
O29	O	1.516018	0.143309	0.733136
O30	O	1.849351	0.476643	1.066469
O31	O	1.086149	-0.309369	0.190059
O32	O	1.419482	0.023964	0.523392
O33	O	1.752816	0.357298	0.856725
O34	O	0.958922	-0.309334	0.309352
O35	O	1.292255	0.023999	0.642685
O36	O	1.625589	0.357332	0.976018
O37	O	1.086180	-0.399693	0.519042
O38	O	1.419513	-0.066359	0.852375
O39	O	1.752846	0.266974	1.185709
O40	O	0.958895	-0.399710	0.399723
O41	O	1.292228	-0.066377	0.733057
O42	O	1.625561	0.266956	1.066390
O43	O	1.182649	-0.309303	0.519076
O44	O	1.515982	0.024030	0.852409
O45	O	1.849315	0.357363	1.185743
O46	O	1.182484	-0.519051	0.309318
O47	O	1.515817	-0.185718	0.642651
O48	O	1.849150	0.147616	0.975984
O49	O	1.086086	-0.519025	0.399704
O50	O	1.419419	-0.185691	0.733037
O51	O	1.752752	0.147642	1.066371
C52	C	0.930426	-0.354521	0.354535
C53	C	1.263760	-0.021188	0.687868
C54	C	1.597093	0.312146	1.021202
C55	C	0.843177	-0.354533	0.354544
C56	C	1.176510	-0.021200	0.687877
C57	C	1.509843	0.312134	1.021210
C58	C	0.802193	-0.401663	0.401525
C59	C	1.135526	-0.068329	0.734858
C60	C	1.468859	0.265004	1.068191
C61	C	0.720212	-0.401664	0.401537
C62	C	1.053546	-0.068331	0.734870
C63	C	1.386879	0.265002	1.068203
C64	C	0.679217	-0.354539	0.354563
C65	C	1.012551	-0.021206	0.687896
C66	C	1.345884	0.312127	1.021230
C67	C	0.720207	-0.307404	0.307580
C68	C	1.053540	0.025929	0.640913
C69	C	1.386873	0.359262	0.974246
C70	C	0.802186	-0.307399	0.307572
C71	C	1.135519	0.025934	0.640906
C72	C	1.468852	0.359267	0.974239
C73	C	0.549337	-0.307419	0.307598
C74	C	0.882670	0.025915	0.640931
C75	C	1.216003	0.359248	0.974264
C76	C	0.467352	-0.307424	0.307604
C77	C	0.800685	0.025909	0.640937
C78	C	1.134019	0.359242	0.974271
C79	C	0.467363	-0.401684	0.401562
C80	C	0.800697	-0.068350	0.734895
C81	C	1.134030	0.264983	1.068228
C82	C	0.549342	-0.401679	0.401554
C83	C	0.882676	-0.068345	0.734888
C84	C	1.216009	0.264988	1.068221
C85	C	0.590326	-0.354545	0.354570
C86	C	0.923660	-0.021211	0.687903
C87	C	1.256993	0.312122	1.021237
C88	C	1.134291	-0.545741	0.354520
C89	C	1.467625	-0.212407	0.687853
C90	C	1.800958	0.120926	1.021186
C91	C	1.134328	-0.627539	0.354529
C92	C	1.467661	-0.294206	0.687863
C93	C	1.800994	0.039127	1.021196
C94	C	1.184640	-0.815723	0.307552
C95	C	1.517973	-0.482389	0.640885
C96	C	1.851307	-0.149056	0.974218
C97	C	1.184675	-0.892581	0.307570
C98	C	1.518008	-0.559248	0.640903
C99	C	1.851342	-0.225915	0.974236
C100	C	1.084209	-0.892594	0.401612
C101	C	1.417542	-0.559260	0.734945
C102	C	1.750876	-0.225927	1.068278
C103	C	1.084178	-0.815736	0.401597
C104	C	1.417512	-0.482403	0.734930
C105	C	1.750845	-0.149070	1.068264
C106	C	1.134393	-0.777303	0.354563
C107	C	1.467726	-0.443970	0.687896
C108	C	1.801059	-0.110636	1.021230
C109	C	1.134458	-0.931019	0.354595
C110	C	1.467792	-0.597686	0.687929
C111	C	1.801125	-0.264352	1.021262
C112	C	1.134496	-1.014353	0.354615
C113	C	1.467829	-0.681019	0.687948
C114	C	1.801163	-0.347686	1.021282
C115	C	1.134356	-0.693964	0.354544
C116	C	1.467690	-0.360631	0.687877
C117	C	1.801023	-0.027297	1.021211
C118	C	1.339118	-0.354548	0.354576
C119	C	1.672452	-0.021215	0.687909
C120	C	2.005785	0.312119	1.021243
C121	C	1.426368	-0.354554	0.354585
C122	C	1.759702	-0.021221	0.687918
C123	C	2.093035	0.312113	1.021252
C124	C	1.134421	-0.354492	0.546508
C125	C	1.467754	-0.021159	0.879842
C126	C	1.801087	0.312175	1.213175
C127	C	1.134441	-0.354474	0.628307
C128	C	1.467774	-0.021141	0.961640
C129	C	1.801107	0.312193	1.294974
C130	C	1.134479	-0.162581	0.354607
C131	C	1.467812	0.170752	0.687940
C132	C	1.801146	0.504085	1.021274
C133	C	1.134523	-0.080782	0.354629
C134	C	1.467857	0.252551	0.687962
C135	C	1.801190	0.585884	1.021296
C136	C	1.134373	-0.354523	0.163349
C137	C	1.467706	-0.021190	0.496682
C138	C	1.801040	0.312143	0.830016
C139	C	1.134505	-0.354334	0.081551
C140	C	1.467839	-0.021001	0.414884
C141	C	1.801172	0.312333	0.748217
C142	C	1.184657	-0.401456	0.893362
C143	C	1.517990	-0.068122	1.226695
C144	C	1.851323	0.265211	1.560028
C145	C	1.184645	-0.401481	0.816503
C146	C	1.517978	-0.068148	1.149836
C147	C	1.851311	0.265185	1.483170
C148	C	1.084284	-0.307350	0.816501
C149	C	1.417617	0.025983	1.149835
C150	C	1.750951	0.359317	1.483168
C151	C	1.084292	-0.307329	0.893359
C152	C	1.417626	0.026005	1.226692
C153	C	1.750959	0.359338	1.560025
C154	C	1.134483	-0.354381	0.931787
C155	C	1.467817	-0.021047	1.265120
C156	C	1.801150	0.312286	1.598454
C157	C	1.134463	-0.354427	0.778071
C158	C	1.467796	-0.021094	1.111404
C159	C	1.801129	0.312239	1.444737
C160	C	1.134449	-0.354455	0.694737
C161	C	1.467783	-0.021121	1.028070
C162	C	1.801116	0.312212	1.361404
C163	C	1.134496	-0.354354	1.015126
C164	C	1.467829	-0.021021	1.348459
C165	C	1.801162	0.312312	1.681793
H166	H	0.686847	-0.440043	0.439793
H167	H	1.020180	-0.106710	0.773126
H168	H	1.353514	0.226624	1.106459
H169	H	1.043261	-0.784453	0.439882
H170	H	1.376594	-0.451120	0.773216
H171	H	1.709928	-0.117786	1.106549
H172	H	1.043421	-0.269041	0.785204
H173	H	1.376755	0.064292	1.118537
H174	H	1.710088	0.397625	1.451870
H175	H	1.043325	-0.923896	0.439904
H176	H	1.376658	-0.590562	0.773237
H177	H	1.709992	-0.257229	1.106571
C178	C	0.341704	-0.443540	0.443309
C179	C	0.675038	-0.110206	0.776642
C180	C	1.008371	0.223127	1.109975
C181	C	0.422317	-0.453490	0.453214
C182	C	0.755650	-0.120157	0.786547
C183	C	1.088984	0.213177	1.119880
H184	H	0.313894	-0.475520	0.475197
H185	H	0.647227	-0.142187	0.808531
H186	H	0.980561	0.191146	1.141864
H187	H	0.328243	-0.454245	0.393850
H188	H	0.661576	-0.120912	0.727183
H189	H	0.994910	0.212422	1.060517
H190	H	0.328305	-0.394106	0.454174
H191	H	0.661638	-0.060772	0.787507
H192	H	0.994971	0.272561	1.120840
H193	H	0.435717	-0.502923	0.442343
H194	H	0.769051	-0.169590	0.775677
H195	H	1.102384	0.163744	1.109010
H196	H	0.435784	-0.442790	0.502684
H197	H	0.769117	-0.109456	0.836017
H198	H	1.102450	0.223877	1.169350
H199	H	0.835554	-0.269018	0.269319
H200	H	1.168887	0.064316	0.602653
H201	H	1.502220	0.397649	0.935986
C202	C	0.978710	-0.297087	0.979762
C203	C	1.312043	0.036246	1.313096
C204	C	1.645376	0.369580	1.646429
C205	C	1.029131	-0.255583	0.935598
C206	C	1.362464	0.077751	1.268931
C207	C	1.695798	0.411084	1.602265
H208	H	0.944651	-0.265144	1.005834
H209	H	1.277985	0.068189	1.339167
H210	H	1.611318	0.401523	1.672501
H211	H	1.008599	-0.325098	1.013646
H212	H	1.341932	0.008235	1.346980
H213	H	1.675266	0.341568	1.680313
H214	H	0.948674	-0.329158	0.949755
H215	H	1.282007	0.004175	1.283088
H216	H	1.615340	0.337508	1.616421
H217	H	1.059171	-0.223515	0.965606
H218	H	1.392505	0.109818	1.298940
H219	H	1.725838	0.443152	1.632273
H220	H	0.999238	-0.227559	0.901710
H221	H	1.332572	0.105774	1.235043
H222	H	1.665905	0.439108	1.568377
H223	H	1.225529	-0.784432	0.269255
H224	H	1.558862	-0.451098	0.602588
H225	H	1.892195	-0.117765	0.935922
H226	H	1.225593	-0.923859	0.269290
H227	H	1.558926	-0.590526	0.602623
H228	H	1.892259	-0.257193	0.935956
H229	H	1.225524	-0.439769	0.924648
H230	H	1.558858	-0.106436	1.257981
H231	H	1.892191	0.226898	1.591314
C232	C	0.541123	-0.494848	0.494432
C233	C	0.874457	-0.161515	0.827765
C234	C	1.207790	0.171818	1.161099
C235	C	0.594406	-0.453479	0.453188
C236	C	0.927739	-0.120145	0.786521
C237	C	1.261073	0.213188	1.119855
H238	H	0.568946	-0.526823	0.526312
H239	H	0.902279	-0.193490	0.859646
H240	H	1.235613	0.139844	1.192979
H241	H	0.509125	-0.522959	0.462321
H242	H	0.842458	-0.189625	0.795655
H243	H	1.175791	0.143708	1.128988
H244	H	0.509172	-0.462818	0.522644
H245	H	0.842506	-0.129484	0.855977
H246	H	1.175839	0.203849	1.189310
H247	H	0.626354	-0.485510	0.424972
H248	H	0.959687	-0.152176	0.758305
H249	H	1.293020	0.181157	1.091639
H250	H	0.626418	-0.425367	0.485303
H251	H	0.959752	-0.092033	0.818636
H252	H	1.293085	0.241300	1.151969
C253	C	0.341677	-0.265546	0.265942
C254	C	0.675011	0.067787	0.599275
C255	C	1.008344	0.401121	0.932608
C256	C	0.422287	-0.255593	0.256002
C257	C	0.755620	0.077740	0.589335
C258	C	1.088954	0.411073	0.922669
H259	H	0.313858	-0.233542	0.234089
H260	H	0.647191	0.099792	0.567422
H261	H	0.980525	0.433125	0.900756
H262	H	0.328291	-0.254874	0.315414
H263	H	0.661624	0.078460	0.648748
H264	H	0.994958	0.411793	0.982081
H265	H	0.328214	-0.314972	0.255049
H266	H	0.661548	0.018362	0.588382
H267	H	0.994881	0.351695	0.921716
H268	H	0.435751	-0.206169	0.266900
H269	H	0.769085	0.127165	0.600233
H270	H	1.102418	0.460498	0.933566
H271	H	0.435679	-0.266260	0.206518
H272	H	0.769012	0.067073	0.539851
H273	H	1.102346	0.400406	0.873185
H274	H	0.582703	-0.269030	0.269344
H275	H	0.916037	0.064303	0.602678
H276	H	1.249370	0.397636	0.936011
H277	H	1.225501	-0.439814	0.785221
H278	H	1.558834	-0.106481	1.118554
H279	H	1.892167	0.226852	1.451887
H280	H	0.835565	-0.440040	0.439774
H281	H	1.168898	-0.106707	0.773107
H282	H	1.502232	0.226627	1.106440
H283	H	0.686822	-0.269031	0.269336
H284	H	1.020155	0.064302	0.602670
H285	H	1.353489	0.397636	0.936003
