data_functionalizedCrystal
_audit_creation_method	'MofGen! by Chris Wilmer'
_symmetry_space_group_name_H-M	'P1'
_symmetry_Int_Tables_number	1
_symmetry_cell_setting	triclinic
loop_
_symmetry_equiv_pos_as_xyz
  x,y,z
_cell_length_a	16.956995
_cell_length_b	8.559649
_cell_length_c	15.455313
_cell_angle_alpha	92.289439
_cell_angle_beta	87.515363
_cell_angle_gamma	72.916568
loop_
_atom_site_label
_atom_site_type_symbol
_atom_site_fract_x
_atom_site_fract_y
_atom_site_fract_z
O1	O	1.057907	0.059246	-0.072189
O2	O	0.822286	0.115799	-0.072177
O3	O	0.960855	-0.147821	-0.072183
O4	O	0.919338	0.322866	-0.072183
O5	O	0.952934	-0.132805	0.072079
O6	O	0.814365	0.130816	0.072086
O7	O	1.049986	0.074262	0.072073
Cu8	Cu	0.931453	0.103910	0.085252
Cu9	Cu	0.940819	0.086151	-0.085355
O10	O	0.911417	0.337883	0.072080
C11	C	0.788440	0.126203	-0.000044
C12	C	0.699392	0.134812	-0.000039
C13	C	0.196150	0.199209	-0.000071
C14	C	0.279821	0.191108	-0.000071
C15	C	0.340221	0.039045	-0.000064
C16	C	0.316947	-0.104926	-0.000067
C17	C	0.233278	-0.096824	-0.000074
C18	C	0.592449	-0.001058	-0.000049
C19	C	0.676123	-0.009149	-0.000040
C20	C	0.638991	0.286887	-0.000045
C21	C	0.555321	0.294976	-0.000046
C22	C	0.532054	0.151004	-0.000054
N23	N	0.425747	0.030761	-0.000061
N24	N	0.446530	0.159289	-0.000063
C25	C	0.960041	-0.200258	-0.000054
C26	C	0.969406	-0.378876	-0.000059
C27	C	1.083832	0.063858	-0.000061
C28	C	1.172880	0.055249	-0.000072
C29	C	0.912231	0.390320	-0.000052
C30	C	0.902866	0.568937	-0.000052
N31	N	0.924870	0.116399	0.205248
N32	N	0.947409	0.073649	-0.205351
C33	C	0.983755	0.004440	0.250639
C34	C	0.978784	0.013899	0.341447
C35	C	0.914930	0.135325	0.386862
C36	C	0.856040	0.247289	0.341465
C37	C	0.861008	0.237822	0.250658
C38	C	0.893487	0.176146	0.658445
C39	C	0.888524	0.185607	0.749258
C40	C	1.011268	-0.047786	0.749234
C41	C	1.016234	-0.057236	0.658426
C42	C	0.957340	0.054723	0.613036
N43	N	0.909849	0.145000	0.479683
N44	N	0.962419	0.045040	0.520217
H45	H	0.573516	-0.118290	-0.000053
C46	C	0.637178	0.528984	-0.074210
C47	C	0.664565	0.445137	-0.000046
H48	H	0.652962	0.626690	-0.074209
H49	H	0.661291	0.461597	-0.124504
H50	H	0.578703	0.555554	-0.074205
H51	H	0.723040	0.418556	-0.000054
H52	H	0.640455	0.512538	0.050261
C53	C	0.142825	0.446288	-0.074246
C54	C	0.129759	0.366361	-0.000082
H55	H	0.101836	0.549477	-0.074256
H56	H	0.195979	0.462062	-0.074235
H57	H	0.139507	0.381535	-0.124545
H58	H	0.133084	0.431109	0.050218
H59	H	0.076592	0.350593	-0.000085
C60	C	0.278379	-0.390253	-0.000061
C61	C	0.207697	-0.255070	-0.000072
H62	H	0.262586	-0.487948	-0.000058
H63	H	0.313009	-0.392497	-0.050362
H64	H	0.307472	-0.382004	0.050254
H65	H	0.178608	-0.263313	-0.050390
H66	H	0.173054	-0.252828	0.050234
C67	C	0.771669	0.407804	0.667602
C68	C	0.828758	0.299222	0.608560
H69	H	0.731711	0.483795	0.636801
H70	H	0.744929	0.348226	0.703032
H71	H	0.799653	0.465051	0.703007
H72	H	0.800774	0.241967	0.573160
H73	H	0.855501	0.358807	0.573116
H74	H	1.059215	-0.138939	0.786199
H75	H	1.033542	-0.470852	-0.000055
C76	C	0.823455	-0.148072	-0.000065
C77	C	0.816286	-0.306921	-0.000055
H78	H	0.770002	-0.071428	-0.000073
H79	H	0.849838	-0.127277	0.050238
H80	H	0.855375	-0.137776	-0.050377
H81	H	0.784371	-0.317220	0.050261
H82	H	0.789890	-0.327722	-0.050363
C83	C	0.443774	0.468091	-0.074228
C84	C	0.488933	0.462130	-0.000064
H85	H	0.402788	0.571285	-0.074234
H86	H	0.479957	0.453533	-0.124522
H87	H	0.417941	0.383509	-0.074217
H88	H	0.514772	0.546705	-0.000078
H89	H	0.452745	0.476705	0.050243
H90	H	1.035754	-0.094431	0.213668
H91	H	1.026732	-0.077268	0.378404
C92	C	0.391596	0.310133	-0.000117
C93	C	0.305401	0.349350	-0.000102
H94	H	0.407386	0.407830	-0.000152
H95	H	0.410170	0.253279	0.050198
H96	H	0.415687	0.242712	-0.050418
H97	H	0.281311	0.416762	0.050203
H98	H	0.286819	0.406230	-0.050422
C99	C	1.137054	-0.287001	0.667527
C100	C	1.086420	-0.190721	0.608508
H101	H	1.180382	-0.369412	0.636708
H102	H	1.159923	-0.220042	0.702929
H103	H	1.105198	-0.336868	0.702961
H104	H	1.118274	-0.140844	0.573078
H105	H	1.063551	-0.257690	0.573091
H106	H	0.813057	0.328989	0.213701
H107	H	0.836524	0.284494	0.786231
H108	H	0.725302	-0.132984	-0.000039
H109	H	0.804045	0.346152	0.378447
C110	C	0.436667	-0.293495	-0.074212
C111	C	0.383341	-0.272075	-0.000060
H112	H	0.477657	-0.396684	-0.074201
H113	H	0.406026	-0.289434	-0.124514
H114	H	0.462495	-0.208904	-0.074201
H115	H	0.357508	-0.356660	-0.000075
H116	H	0.413987	-0.276151	0.050255
