data_functionalizedCrystal
_audit_creation_method	'MofGen! by Chris Wilmer'
_symmetry_space_group_name_H-M	'P1'
_symmetry_Int_Tables_number	1
_symmetry_cell_setting	triclinic
loop_
_symmetry_equiv_pos_as_xyz
  x,y,z
_cell_length_a	14.560432
_cell_length_b	23.196402
_cell_length_c	23.196402
_cell_angle_alpha	90.003744
_cell_angle_beta	59.999111
_cell_angle_gamma	60.004778
loop_
_atom_site_label
_atom_site_type_symbol
_atom_site_fract_x
_atom_site_fract_y
_atom_site_fract_z
Zr1	Zr	1.005287	-0.075658	0.555354
O2	O	1.196883	-0.167702	0.463296
O3	O	0.813687	-0.047443	0.583575
O4	O	1.005285	-0.167709	0.583564
O5	O	1.005288	0.047434	0.463314
O6	O	1.005288	-0.167712	0.678434
O7	O	1.005285	-0.047436	0.463306
O8	O	0.662554	0.047421	0.678453
O9	O	1.348021	-0.167700	0.463295
O10	O	0.892498	-0.035410	0.666411
O11	O	0.892498	0.035393	0.595617
O12	O	1.118080	-0.106205	0.595604
O13	O	1.118080	-0.035402	0.524810
Zr14	Zr	1.005294	0.075644	0.706673
Zr15	Zr	1.005290	-0.075663	0.706661
Zr16	Zr	1.005290	0.075649	0.555367
Zr17	Zr	1.246334	-0.075654	0.555354
Zr18	Zr	0.764247	0.075640	0.706674
O19	O	1.196894	0.047429	0.678452
O20	O	1.196888	-0.167709	0.678434
O21	O	1.196888	0.047437	0.463314
O22	O	0.813698	0.167688	0.798732
O23	O	0.813693	-0.047451	0.798713
O24	O	0.813693	0.167695	0.583593
O25	O	1.005293	-0.047448	0.798713
O26	O	1.005296	0.167695	0.678463
O27	O	1.005293	0.167698	0.583593
O28	O	1.005296	0.047422	0.798721
O29	O	1.348024	-0.167704	0.583564
O30	O	0.662557	0.167690	0.678463
O31	O	0.662560	0.167685	0.798732
O32	O	0.662557	0.047417	0.798722
O33	O	1.348024	-0.047431	0.463306
O34	O	1.348027	-0.047435	0.583574
O35	O	0.892501	0.106191	0.666423
O36	O	0.892501	0.035388	0.737217
O37	O	1.118083	-0.035407	0.666411
O38	O	1.118083	0.035396	0.595616
C39	C	0.703777	-0.000012	0.631014
C40	C	0.601446	-0.000013	0.631014
C41	C	1.005286	-0.000001	0.441752
C42	C	1.005284	0.000002	0.377519
C43	C	1.005295	0.189254	0.631030
C44	C	1.005297	0.253488	0.631035
C45	C	0.601439	-0.073939	0.704917
C46	C	0.553365	-0.110903	0.741865
C47	C	0.457216	-0.110901	0.741863
C48	C	0.409136	-0.073930	0.704911
C49	C	0.457210	-0.036966	0.667963
C50	C	0.553365	-0.036974	0.667967
C51	C	0.457210	0.036963	0.594065
C52	C	0.553366	0.036958	0.594062
C53	C	0.409130	0.073934	0.557113
C54	C	0.457211	0.110894	0.520160
C55	C	0.553367	0.110891	0.520162
C56	C	0.601440	0.073922	0.557114
C57	C	1.306804	-0.000003	0.631013
C58	C	1.409135	-0.000001	0.631013
C59	C	1.005286	-0.189269	0.630998
C60	C	1.005284	-0.253502	0.630992
C61	C	1.123044	0.246709	0.594078
C62	C	1.123046	0.307063	0.594067
C63	C	1.005293	0.374196	0.631028
C64	C	0.887530	0.380973	0.667987
C65	C	0.887532	0.320619	0.667991
C66	C	0.915080	0.498130	0.692930
C67	C	0.915083	0.558482	0.692928
C68	C	1.005284	0.560350	0.631016
C69	C	1.095503	0.501853	0.569106
C70	C	1.095505	0.441499	0.569110
C71	C	1.005279	0.439644	0.631028
C72	C	1.123041	0.619012	0.594044
C73	C	1.123038	0.679369	0.594032
C74	C	0.887519	0.753278	0.667959
C75	C	0.887525	0.692921	0.667964
C76	C	1.005290	0.625791	0.631009
C77	C	0.887537	0.036949	0.384304
C78	C	0.887535	0.036952	0.323949
C79	C	1.005288	-0.000006	0.256810
C80	C	1.123051	-0.036955	0.250028
C81	C	1.123049	-0.036951	0.310382
C82	C	1.095501	-0.061915	0.132876
C83	C	1.095498	-0.061921	0.072524
C84	C	1.005297	-0.000017	0.070656
C85	C	0.915078	0.061892	0.129154
C86	C	0.915076	0.061896	0.189508
C87	C	1.005302	-0.000014	0.191362
C88	C	0.887540	0.036937	0.012001
C89	C	0.887543	0.036942	-0.048356
C90	C	1.123062	-0.036972	-0.122278
C91	C	1.123056	-0.036970	-0.061921
C92	C	1.005291	-0.000018	0.005216
C93	C	1.005295	-0.000014	0.820275
C94	C	1.005297	-0.000016	0.884509
C95	C	0.703781	-0.000018	0.820276
C96	C	0.601452	-0.000022	0.884509
C97	C	0.703781	0.189250	0.631030
C98	C	0.601452	0.253482	0.631036
C99	C	0.703786	0.189243	0.820292
C100	C	0.601458	0.253473	0.884531
C101	C	1.306795	-0.189258	0.441736
C102	C	1.409123	-0.253487	0.377497
C103	C	1.306800	0.000004	0.441752
C104	C	1.409129	0.000008	0.377518
C105	C	1.306800	-0.189264	0.630997
C106	C	1.409129	-0.253496	0.630992
C107	C	0.553395	-0.036986	0.877714
C108	C	0.457259	-0.037003	0.938063
C109	C	0.409175	-0.000053	1.005206
C110	C	0.457241	0.036912	1.012000
C111	C	0.553382	0.036925	0.951652
C112	C	0.553399	0.320608	0.667998
C113	C	0.457263	0.380967	0.668001
C114	C	0.409175	0.374198	0.631045
C115	C	0.457238	0.307064	0.594077
C116	C	0.553379	0.246707	0.594071
C117	C	0.553404	0.246678	0.951658
C118	C	0.457269	0.307023	1.012024
C119	C	0.409184	0.374162	1.005260
C120	C	0.457248	0.380956	0.938125
C121	C	0.553387	0.320612	0.877761
C122	C	1.457189	-0.246692	0.310369
C123	C	1.553353	-0.307037	0.250004
C124	C	1.601443	-0.374177	0.256767
C125	C	1.553373	-0.380971	0.323902
C126	C	1.457217	-0.320626	0.384266
C127	C	1.457196	0.036965	0.384313
C128	C	1.553359	0.036966	0.323965
C129	C	1.601446	0.000013	0.256821
C130	C	1.553375	-0.036949	0.250027
C131	C	1.457221	-0.036953	0.310375
C132	C	1.457186	-0.246704	0.667955
C133	C	1.553323	-0.307052	0.667964
C134	C	1.601407	-0.374190	0.631004
C135	C	1.553341	-0.380980	0.594039
C136	C	1.457199	-0.320634	0.594035
H137	H	0.679741	-0.073951	0.704915
Cl138	Cl	1.396797	-0.083414	0.301820
H139	H	1.592449	-0.301509	0.698064
Cl140	Cl	0.288307	-0.000075	1.081066
Cl141	Cl	0.613811	-0.157378	0.788318
Cl142	Cl	0.288319	0.450018	1.081154
H143	H	0.592501	0.326155	0.823105
Cl144	Cl	0.739496	0.083395	0.096403
Cl145	Cl	0.613789	0.157367	0.473715
Cl146	Cl	0.613769	0.162322	0.547603
Cl147	Cl	1.271083	-0.083413	0.165625
H148	H	0.679736	0.073912	0.557116
H149	H	1.592506	-0.435652	0.563948
H150	H	0.418068	-0.140997	0.771953
Cl151	Cl	0.613829	-0.083448	0.793312
Cl152	Cl	1.208925	-0.139746	-0.001012
H153	H	0.418146	0.301478	1.066682
H154	H	0.418083	0.435630	0.932628
Cl155	Cl	0.396768	0.298567	0.547623
Cl156	Cl	1.396770	0.083422	0.468715
Cl157	Cl	0.739485	0.837669	0.714418
H158	H	1.592541	-0.435643	0.329401
Cl159	Cl	1.396752	-0.162295	0.301847
Cl160	Cl	1.613759	-0.298480	0.165614
H161	H	1.218939	-0.067065	-0.176943
Cl162	Cl	1.722325	-0.450032	0.180874
H163	H	1.418083	-0.326168	0.438923
Cl164	Cl	1.271092	0.162320	0.547613
Cl165	Cl	1.208912	-0.139744	0.135213
H166	H	1.418051	-0.192043	0.698052
H167	H	1.592482	0.067068	0.329510
Cl168	Cl	0.396847	-0.083474	0.929505
H169	H	1.679741	0.000023	0.207688
Cl170	Cl	1.271088	-0.083404	0.301850
H171	H	1.592543	-0.067035	0.195351
Cl172	Cl	0.288249	0.073941	0.557113
Cl173	Cl	1.271090	-0.083425	-0.070451
Cl174	Cl	0.739491	0.701444	0.714431
Cl175	Cl	1.722277	-0.450048	0.631014
H176	H	0.418051	0.140997	0.490079
Cl177	Cl	0.801665	0.139717	0.126819
H178	H	0.418077	0.066996	1.066676
Cl179	Cl	0.739493	0.329142	0.714456
H180	H	1.418082	-0.326173	0.563932
Cl181	Cl	0.288244	-0.073918	0.704920
Cl182	Cl	1.271078	0.670843	0.547550
Cl183	Cl	1.208910	0.367966	0.491283
Cl184	Cl	1.271083	0.298546	0.547616
H185	H	0.791655	0.067033	-0.042825
H186	H	1.168953	0.503370	0.518691
Cl187	Cl	0.613828	0.329137	0.714466
Cl188	Cl	0.801659	0.632016	0.770756
Cl189	Cl	1.271085	0.534617	0.547584
Cl190	Cl	0.801675	0.495790	0.770771
H191	H	0.791655	0.435636	0.698079
H192	H	0.791643	0.067034	0.438966
H193	H	0.791647	0.067039	0.329474
Cl194	Cl	0.396857	0.465354	0.714481
Cl195	Cl	0.801671	0.139721	0.263042
H196	H	0.592498	0.067030	0.957195
H197	H	0.330891	0.423350	0.631055
H198	H	0.592541	0.192015	0.957179
