data_functionalizedCrystal
_audit_creation_method	'MofGen! by Chris Wilmer'
_symmetry_space_group_name_H-M	'P1'
_symmetry_Int_Tables_number	1
_symmetry_cell_setting	triclinic
loop_
_symmetry_equiv_pos_as_xyz
  x,y,z
_cell_length_a	14.853566
_cell_length_b	10.489716
_cell_length_c	13.330367
_cell_angle_alpha	89.999430
_cell_angle_beta	89.995295
_cell_angle_gamma	84.081775
loop_
_atom_site_label
_atom_site_type_symbol
_atom_site_fract_x
_atom_site_fract_y
_atom_site_fract_z
O1	O	1.197293	0.166522	-0.083348
O2	O	0.934943	0.186362	-0.083363
O3	O	1.072099	-0.009225	-0.083359
O4	O	1.060137	0.362109	-0.083352
O5	O	1.072079	-0.009230	0.083488
O6	O	0.934923	0.186357	0.083484
O7	O	1.197273	0.166518	0.083499
Cu8	Cu	1.066096	0.176437	0.098726
Cu9	Cu	1.066120	0.176442	-0.098590
O10	O	1.060117	0.362105	0.083495
C11	C	0.901339	0.185461	0.000058
C12	C	0.801241	0.182768	0.000052
C13	C	0.378004	0.171380	-0.090879
C14	C	0.378003	0.171376	0.091024
C15	C	0.472051	0.173905	0.091021
C16	C	0.519080	0.175173	0.000066
C17	C	0.472060	0.173913	-0.090885
C18	C	0.519077	0.175178	0.181971
C19	C	0.613131	0.177709	0.181971
C20	C	0.660161	0.178968	0.091016
C21	C	0.613136	0.177706	0.000061
C22	C	0.660165	0.178975	-0.090894
C23	C	0.613142	0.177703	-0.181850
C24	C	0.519091	0.175172	-0.181841
C25	C	0.754212	0.181499	0.091006
C26	C	0.754221	0.181507	-0.090900
C27	C	1.071190	-0.056749	0.000061
C28	C	1.068501	-0.198350	0.000052
C29	C	1.152610	-0.296969	0.000066
C30	C	1.108175	-0.373828	-0.082198
C31	C	1.108136	-0.373796	0.082300
C32	C	1.024102	-0.273344	-0.082280
C33	C	1.024075	-0.273307	0.082292
C34	C	0.979578	-0.350117	0.000008
C35	C	1.230877	0.167419	0.000075
C36	C	1.330975	0.170112	0.000075
C37	C	1.061026	0.409629	0.000072
C38	C	1.063715	0.551230	0.000075
N39	N	1.066086	0.176433	0.237507
N40	N	1.066137	0.176437	-0.237372
C41	C	1.005384	0.263014	0.710128
C42	C	1.126880	0.089861	0.710100
C43	C	1.126869	0.089857	0.605082
C44	C	1.066117	0.176434	0.552582
C45	C	1.005374	0.263015	0.605100
C46	C	1.187617	0.003286	0.552556
C47	C	1.187610	0.003279	0.447531
C48	C	1.126852	0.089851	0.395029
C49	C	1.066106	0.176435	0.447554
C50	C	1.005354	0.263013	0.395054
C51	C	0.944603	0.349591	0.447577
C52	C	0.944616	0.349588	0.552598
C53	C	1.126839	0.089855	0.290007
C54	C	1.005343	0.263014	0.290026
H55	H	0.792493	0.182547	0.165061
H56	H	0.955868	0.333512	0.247286
O57	O	0.981868	-0.221392	-0.165458
C58	C	1.026028	-0.273883	-0.251941
H59	H	1.064241	-0.370675	-0.232763
H60	H	0.973785	-0.287147	-0.312687
H61	H	1.075765	-0.206277	-0.280308
H62	H	0.895156	0.420078	0.595369
O63	O	1.239888	-0.268513	-0.000222
C64	C	1.283925	-0.319954	-0.087118
H65	H	1.231481	-0.334223	-0.147422
H66	H	1.332653	-0.251123	-0.115851
H67	H	1.323249	-0.416111	-0.068349
H68	H	1.143689	-0.417720	-0.151744
H69	H	0.906363	-0.373725	-0.000041
O70	O	0.981874	-0.220990	0.165363
C71	C	1.026450	-0.272444	0.251935
H72	H	1.099115	-0.309684	0.232230
H73	H	1.026690	-0.194658	0.311629
H74	H	0.989590	-0.354595	0.281950
H75	H	1.143650	-0.417669	0.151846
O76	O	0.885714	0.433746	0.396463
C77	C	0.934498	0.512584	0.335729
H78	H	1.004718	0.461966	0.319994
H79	H	0.897002	0.532661	0.261878
H80	H	0.941222	0.606874	0.376201
O81	O	0.946336	0.346938	0.761255
C82	C	0.890272	0.278477	0.821992
H83	H	0.925541	0.178758	0.837718
H84	H	0.876354	0.331677	0.895847
H85	H	0.823587	0.269639	0.781527
O86	O	1.246648	-0.080949	0.396671
C87	C	1.300287	-0.157339	0.465531
H88	H	1.263327	-0.158869	0.540404
H89	H	1.313383	-0.259172	0.435190
H90	H	1.367524	-0.115751	0.476680
H91	H	0.792506	0.182536	-0.164967
O92	O	1.185845	0.005585	0.760990
C93	C	1.170353	-0.120718	0.735355
H94	H	1.135605	-0.120649	0.659105
H95	H	1.237708	-0.183374	0.731760
H96	H	1.125220	-0.160262	0.794469
H97	H	1.237085	-0.067197	0.595305
H98	H	1.176305	0.019370	0.247248
O99	O	0.473556	0.173906	-0.270278
C100	C	0.535225	0.175605	-0.350561
H101	H	0.605740	0.137042	-0.323912
H102	H	0.513368	0.113016	-0.414177
H103	H	0.536435	0.278128	-0.378513
H104	H	0.651444	0.178745	-0.255905
H105	H	0.339706	0.170352	0.165075
O106	O	0.332270	0.170375	-0.179203
C107	C	0.268347	0.279270	-0.184631
H108	H	0.290044	0.357184	-0.133018
H109	H	0.264092	0.316294	-0.265072
H110	H	0.199216	0.252389	-0.160193
H111	H	0.480779	0.174154	0.256021
O112	O	0.658670	0.178873	0.270411
C113	C	0.596989	0.177246	0.350688
H114	H	0.533418	0.135100	0.324026
H115	H	0.629485	0.116095	0.414296
H116	H	0.578190	0.279225	0.378658
