data_functionalizedCrystal
_audit_creation_method	'MofGen! by Chris Wilmer'
_symmetry_space_group_name_H-M	'P1'
_symmetry_Int_Tables_number	1
_symmetry_cell_setting	triclinic
loop_
_symmetry_equiv_pos_as_xyz
  x,y,z
_cell_length_a	12.759401
_cell_length_b	17.640280
_cell_length_c	12.759393
_cell_angle_alpha	78.768122
_cell_angle_beta	89.981504
_cell_angle_gamma	78.801088
loop_
_atom_site_label
_atom_site_type_symbol
_atom_site_fract_x
_atom_site_fract_y
_atom_site_fract_z
Zn1	Zn	1.690815	-0.314620	-0.509515
Zn2	Zn	1.726240	-0.446817	-0.298344
Zn3	Zn	1.515128	-0.314662	-0.333843
Zn4	Zn	1.550620	-0.446756	-0.474002
O5	O	1.620701	-0.380714	-0.403926
O6	O	1.842537	-0.332165	-0.481509
O7	O	1.698207	-0.429329	-0.156021
O8	O	1.508755	-0.204049	-0.386865
O9	O	1.868564	-0.429289	-0.326362
O10	O	1.637831	-0.204019	-0.515931
O11	O	1.543105	-0.332235	-0.182102
O12	O	1.372813	-0.332176	-0.352430
O13	O	1.569245	-0.429185	-0.625745
O14	O	1.398888	-0.429226	-0.455404
O15	O	1.672246	-0.332106	-0.651837
O16	O	1.732622	-0.557416	-0.291927
O17	O	1.603595	-0.557371	-0.420982
C18	C	1.347729	-0.380699	-0.403916
C19	C	1.230956	-0.380712	-0.403931
C20	C	1.675832	-0.586073	-0.348771
C21	C	1.699514	-0.673926	-0.325211
C22	C	1.189721	-0.431327	-0.457417
C23	C	1.079999	-0.431337	-0.457425
C24	C	1.052758	-0.330115	-0.350454
C25	C	1.162476	-0.330102	-0.350453
C26	C	1.205448	-0.489768	-0.519172
C27	C	1.095727	-0.489778	-0.519181
C28	C	1.441225	-0.962886	-0.583293
C29	C	1.463480	-1.045438	-0.561121
C30	C	1.597919	-1.045419	-0.426872
C31	C	1.575680	-0.962866	-0.449037
C32	C	1.497331	-0.921606	-0.527247
C33	C	1.631785	-0.921585	-0.392991
C34	C	1.609543	-0.839039	-0.415150
C35	C	1.531196	-0.797773	-0.493355
C36	C	1.475089	-0.839060	-0.549406
C37	C	1.710129	-0.962847	-0.314775
C38	C	1.766234	-0.921566	-0.258729
C39	C	1.743998	-0.839018	-0.280893
C40	C	1.665650	-0.797753	-0.359098
C41	C	1.800105	-0.797732	-0.224841
C42	C	1.777863	-0.715186	-0.247000
C43	C	1.643408	-0.715207	-0.381257
C44	C	1.894738	-0.380729	-0.403937
C45	C	2.011516	-0.380736	-0.403942
C46	C	1.620753	-0.380634	-0.677981
C47	C	1.620775	-0.380600	-0.794767
C48	C	1.565383	-0.174553	-0.459319
C49	C	1.541809	-0.086700	-0.482925
C50	C	1.674416	-0.330046	-0.863218
C51	C	1.674433	-0.330017	-0.972949
C52	C	1.567168	-0.431104	-0.945768
C53	C	1.567145	-0.431128	-0.836040
C54	C	1.736348	-0.271687	-0.878911
C55	C	1.736365	-0.271658	-0.988643
C56	C	1.620694	-0.380736	-0.130953
C57	C	1.620815	-0.380548	-0.014227
H58	H	0.996989	-0.288910	-0.306915
C59	C	1.508103	-0.486722	-0.760760
C60	C	1.416402	-0.452459	-0.694558
C61	C	1.357343	-0.508051	-0.619286
C62	C	1.389984	-0.597905	-0.610216
C63	C	1.481690	-0.632172	-0.676421
C64	C	1.540749	-0.576581	-0.751693
H65	H	1.392235	-0.385940	-0.701270
H66	H	1.289456	-0.482683	-0.570277
H67	H	1.346265	-0.639057	-0.554496
H68	H	1.505857	-0.698692	-0.669709
H69	H	1.608635	-0.601949	-0.800701
H70	H	1.411297	-0.805464	-0.613101
C71	C	1.852241	-0.293818	-1.022922
C72	C	1.898244	-0.235720	-1.107922
C73	C	2.014116	-0.257883	-1.142196
C74	C	2.083986	-0.338145	-1.091470
C75	C	2.037984	-0.396249	-1.006465
C76	C	1.922112	-0.374085	-0.972191
H77	H	1.846522	-0.176300	-1.145477
H78	H	2.048169	-0.214870	-1.205122
H79	H	2.169761	-0.354552	-1.116841
H80	H	2.089706	-0.455668	-0.968910
H81	H	1.888059	-0.417098	-0.909265
H82	H	1.523501	-0.472240	-0.979387
H83	H	1.255083	-0.547887	-0.474284
H84	H	1.819518	-0.293631	-0.838983
C85	C	1.207829	-0.274425	-0.291613
C86	C	1.168606	-0.184580	-0.324512
C87	C	1.213955	-0.128902	-0.265664
C88	C	1.298526	-0.163068	-0.173917
C89	C	1.337753	-0.252917	-0.141014
C90	C	1.292405	-0.308595	-0.199861
H91	H	1.105997	-0.159284	-0.392433
H92	H	1.184916	-0.062390	-0.290022
H93	H	1.332096	-0.121852	-0.130354
H94	H	1.400362	-0.278213	-0.073093
H95	H	1.321444	-0.375108	-0.175503
H96	H	1.055857	-0.467928	-0.602399
H97	H	1.661708	-1.079024	-0.363190
C98	C	1.684709	-0.188999	-0.860900
C99	C	1.733699	-0.117370	-0.909315
C100	C	1.682060	-0.034685	-0.891304
C101	C	1.581431	-0.023629	-0.824878
C102	C	1.532435	-0.095260	-0.776459
C103	C	1.584074	-0.177945	-0.794470
H104	H	1.808196	-0.125552	-0.958491
H105	H	1.718331	0.018342	-0.927147
H106	H	1.543204	0.037580	-0.811545
H107	H	1.457938	-0.087078	-0.727283
H108	H	1.547803	-0.230971	-0.758627
H109	H	1.691620	-0.213497	-1.038305
C110	C	1.839578	-0.669769	-0.185357
C111	C	1.834150	-0.681169	-0.062852
C112	C	1.895862	-0.635750	-0.001205
C113	C	1.963001	-0.578930	-0.062064
C114	C	1.968431	-0.567527	-0.184576
C115	C	1.906720	-0.612946	-0.246223
H116	H	1.784448	-0.723233	-0.017794
H117	H	1.891842	-0.644192	0.089487
H118	H	2.008684	-0.545308	-0.016430
H119	H	2.018134	-0.525463	-0.229634
H120	H	1.910740	-0.604504	-0.336915
C121	C	1.239801	-0.467711	-0.635062
C122	C	1.289467	-0.394256	-0.669655
C123	C	1.323820	-0.372199	-0.785542
C124	C	1.308508	-0.423596	-0.866834
C125	C	1.258839	-0.497056	-0.832243
C126	C	1.224486	-0.519113	-0.716356
H127	H	1.300805	-0.356205	-0.609476
H128	H	1.360588	-0.317819	-0.811148
H129	H	1.333938	-0.407268	-0.952620
H130	H	1.247502	-0.535107	-0.892422
H131	H	1.187718	-0.573493	-0.690750
H132	H	1.082380	-0.550979	-0.480818
C133	C	1.355041	-0.917489	-0.669326
C134	C	1.238685	-0.928905	-0.657583
C135	C	1.152503	-0.883505	-0.743608
C136	C	1.182678	-0.826689	-0.841375
C137	C	1.299039	-0.815271	-0.853122
C138	C	1.385221	-0.860670	-0.767097
H139	H	1.216343	-0.970965	-0.585206
H140	H	1.066364	-0.891958	-0.734911
H141	H	1.118881	-0.793082	-0.905055
H142	H	1.321381	-0.773210	-0.925499
H143	H	1.471360	-0.852217	-0.775794
H144	H	1.579616	-0.681611	-0.444952
C145	C	1.401759	-1.090847	-0.622780
C146	C	1.315580	-1.045459	-0.708804
C147	C	1.253859	-1.090869	-0.770457
C148	C	1.278317	-1.181667	-0.746086
C149	C	1.364500	-1.227060	-0.660057
C150	C	1.426222	-1.181650	-0.598404
H151	H	1.297471	-0.978241	-0.726849
H152	H	1.190060	-1.057266	-0.834141
H153	H	1.232627	-1.215281	-0.791725
H154	H	1.382609	-1.294278	-0.642012
H155	H	1.490021	-1.215253	-0.534720
H156	H	1.513080	-0.730559	-0.511388
C157	C	1.734599	-1.053649	-0.290328
C158	C	1.645904	-1.099105	-0.250943
C159	C	1.670375	-1.189906	-0.226464
C160	C	1.783541	-1.235252	-0.241370
C161	C	1.872243	-1.189796	-0.280757
C162	C	1.847773	-1.098994	-0.305236
H163	H	1.562126	-1.065538	-0.239907
H164	H	1.604711	-1.223556	-0.197307
H165	H	1.801655	-1.302469	-0.223250
H166	H	1.956022	-1.223363	-0.291794
H167	H	1.913437	-1.065345	-0.334393
C168	C	1.852417	-0.966958	-0.172703
C169	C	1.822249	-1.023769	-0.074926
C170	C	1.908435	-1.069159	0.011099
C171	C	2.024789	-1.057739	-0.000652
C172	C	2.054962	-1.000925	-0.098433
C173	C	1.968776	-0.955535	-0.184458
H174	H	1.736112	-1.032225	-0.066223
H175	H	1.886099	-1.111216	0.083483
H176	H	2.088590	-1.091339	0.063028
H177	H	2.141100	-0.992469	-0.107136
H178	H	1.991113	-0.913478	-0.256842
C179	C	1.886280	-0.843125	-0.138808
C180	C	1.856097	-0.899932	-0.041035
C181	C	1.942271	-0.945324	0.045000
C182	C	2.058629	-0.933911	0.033263
C183	C	2.088818	-0.877102	-0.064515
C184	C	2.002643	-0.831710	-0.150550
H185	H	1.769957	-0.908383	-0.032342
H186	H	1.919923	-0.987378	0.117382
H187	H	2.122421	-0.967514	0.096951
H188	H	2.174958	-0.868651	-0.073207
H189	H	2.024991	-0.789656	-0.222931
