data_functionalizedCrystal
_audit_creation_method	'MofGen! by Chris Wilmer'
_symmetry_space_group_name_H-M	'P1'
_symmetry_Int_Tables_number	1
_symmetry_cell_setting	triclinic
loop_
_symmetry_equiv_pos_as_xyz
  x,y,z
_cell_length_a	12.811457
_cell_length_b	12.837942
_cell_length_c	9.198806
_cell_angle_alpha	89.997396
_cell_angle_beta	95.428003
_cell_angle_gamma	89.411937
loop_
_atom_site_label
_atom_site_type_symbol
_atom_site_fract_x
_atom_site_fract_y
_atom_site_fract_z
O1	O	1.406628	0.139675	0.064559
O2	O	1.102567	0.154865	0.024468
O3	O	1.247855	-0.003662	0.043633
O4	O	1.261340	0.298202	0.045394
O5	O	1.247842	-0.003662	0.285417
O6	O	1.102554	0.154865	0.266252
O7	O	1.406615	0.139674	0.306342
Cu8	Cu	1.254583	0.147269	0.308374
Cu9	Cu	1.254599	0.147270	0.022437
O10	O	1.261327	0.298201	0.287177
C11	C	1.063371	0.154014	0.140193
C12	C	0.946600	0.151466	0.124797
C13	C	0.727159	0.146658	0.359488
C14	C	0.617442	0.144263	0.345029
C15	C	0.617447	0.144275	0.081422
C16	C	0.727164	0.146670	0.095881
C17	C	0.782016	0.147862	0.234918
C18	C	0.891735	0.150264	0.249375
C19	C	0.891738	0.150269	-0.014230
C20	C	0.782021	0.147874	-0.028689
C21	C	1.243294	-0.042302	0.163924
C22	C	1.229708	-0.157438	0.162130
C23	C	1.393035	-0.397693	0.183634
C24	C	1.380275	-0.505874	0.181950
C25	C	1.191428	-0.481982	0.157065
C26	C	1.204188	-0.373802	0.158750
C27	C	1.304995	-0.331661	0.172037
C28	C	1.317754	-0.223478	0.173732
C29	C	1.128908	-0.199589	0.148838
C30	C	1.116147	-0.307770	0.147153
C31	C	1.445811	0.140525	0.190614
C32	C	1.562582	0.143073	0.206001
C33	C	1.265889	0.336842	0.166883
C34	C	1.279474	0.451977	0.168668
N35	N	1.254580	0.147269	0.509487
N36	N	1.254609	0.147263	-0.178676
C37	C	1.315556	0.080415	0.589728
C38	C	1.315572	0.080412	0.757142
H39	H	0.771820	0.147643	0.472697
C40	C	1.184065	0.224587	0.584113
N41	N	1.130950	0.282825	0.640318
H42	H	1.202407	0.204505	0.752361
H43	H	1.451967	-0.559634	0.191389
H44	H	0.737346	0.146898	-0.141889
H45	H	0.572781	0.143288	0.446466
H46	H	0.936394	0.151242	0.362587
C47	C	0.557091	0.142949	-0.071507
N48	N	0.511630	0.141948	-0.186694
H49	H	0.936414	0.151256	-0.115664
H50	H	1.399837	-0.189170	0.184557
C51	C	1.386099	0.003085	0.850319
N52	N	1.439221	-0.055160	0.920503
C53	C	1.503922	-0.351336	0.198258
N54	N	1.587445	-0.316421	0.209272
H55	H	1.109355	-0.516313	0.146232
C56	C	1.032057	-0.126945	0.136081
N57	N	0.959111	-0.072228	0.126477
C58	C	1.005265	-0.354138	0.132554
N59	N	0.921746	-0.389060	0.121570
C60	C	1.386048	0.003076	0.515099
N61	N	1.439139	-0.055184	0.458890
