data_functionalizedCrystal
_audit_creation_method	'MofGen! by Chris Wilmer'
_symmetry_space_group_name_H-M	'P1'
_symmetry_Int_Tables_number	1
_symmetry_cell_setting	triclinic
loop_
_symmetry_equiv_pos_as_xyz
  x,y,z
_cell_length_a	14.908520
_cell_length_b	21.395362
_cell_length_c	21.395355
_cell_angle_alpha	90.048039
_cell_angle_beta	93.280325
_cell_angle_gamma	86.659696
loop_
_atom_site_label
_atom_site_type_symbol
_atom_site_fract_x
_atom_site_fract_y
_atom_site_fract_z
Zn1	Zn	-0.358835	-0.943516	-0.369030
Zn2	Zn	0.141165	-0.443516	0.130970
Zn3	Zn	-0.509680	-0.937388	-0.270296
Zn4	Zn	-0.009680	-0.437388	0.229704
Zn5	Zn	-0.358883	-0.838729	-0.264226
Zn6	Zn	0.141117	-0.338729	0.235774
Zn7	Zn	-0.509705	-0.832669	-0.374994
Zn8	Zn	-0.009705	-0.332669	0.125006
O9	O	-0.434276	-0.888075	-0.319637
O10	O	0.065724	-0.388075	0.180363
O11	O	-0.378814	-1.030382	-0.355977
O12	O	0.121186	-0.530382	0.144023
O13	O	-0.489686	-0.924273	-0.181813
O14	O	0.010314	-0.424273	0.318187
O15	O	-0.232628	-0.857729	-0.273092
O16	O	0.267372	-0.357729	0.226908
O17	O	-0.489640	-1.025880	-0.283438
O18	O	0.010360	-0.525880	0.216562
O19	O	-0.232593	-0.934716	-0.350091
O20	O	0.267407	-0.434716	0.149909
O21	O	-0.378897	-0.851788	-0.177354
O22	O	0.121103	-0.351788	0.322646
O23	O	-0.378921	-0.750246	-0.278875
O24	O	0.121079	-0.250246	0.221125
O25	O	-0.489682	-0.847401	-0.461881
O26	O	0.010318	-0.347401	0.038119
O27	O	-0.489729	-0.745794	-0.360256
O28	O	0.010271	-0.245794	0.139744
O29	O	-0.378838	-0.928840	-0.457499
O30	O	0.121162	-0.428840	0.042501
O31	O	-0.635932	-0.918397	-0.289221
O32	O	-0.135932	-0.418397	0.210779
O33	O	-0.635950	-0.841460	-0.366142
O34	O	-0.135950	-0.341460	0.133858
C35	C	-0.434333	-0.725285	-0.319555
C36	C	0.065667	-0.225285	0.180445
C37	C	-0.434380	-0.655642	-0.319535
C38	C	0.065620	-0.155642	0.180465
C39	C	-0.668676	-0.878623	-0.329001
C40	C	-0.168676	-0.378623	0.170999
C41	C	-0.768954	-0.874636	-0.333028
C42	C	-0.268954	-0.374636	0.166972
C43	C	-0.492156	-0.620624	-0.361851
C44	C	0.007844	-0.120624	0.138149
C45	C	-0.492138	-0.555190	-0.361874
C46	C	0.007862	-0.055190	0.138126
C47	C	-0.434353	-0.524775	-0.319569
C48	C	0.065647	-0.024775	0.180431
C49	C	-0.376565	-0.559802	-0.277250
C50	C	0.123435	-0.059802	0.222750
C51	C	-0.376579	-0.625235	-0.277233
C52	C	0.123421	-0.125235	0.222767
C53	C	-0.427091	-0.421341	-0.262866
C54	C	0.072909	0.078659	0.237134
C55	C	-0.427084	-0.355908	-0.262882
C56	C	0.072916	0.144092	0.237118
C57	C	-0.434306	-0.322956	-0.319622
C58	C	0.065694	0.177044	0.180378
C59	C	-0.441554	-0.355445	-0.376349
C60	C	0.058446	0.144555	0.123651
C61	C	-0.441568	-0.420878	-0.376332
C62	C	0.058432	0.079122	0.123668
C63	C	-0.434331	-0.453824	-0.319584
C64	C	0.065669	0.046176	0.180416
C65	C	-0.492066	-0.216986	-0.361966
C66	C	0.007934	0.283014	0.138034
C67	C	-0.492041	-0.151551	-0.361989
C68	C	0.007959	0.348449	0.138011
C69	C	-0.376473	-0.156164	-0.277361
C70	C	0.123527	0.343836	0.222639
C71	C	-0.376493	-0.221598	-0.277343
C72	C	0.123507	0.278402	0.222657
C73	C	-0.434294	-0.252006	-0.319645
C74	C	0.065706	0.247994	0.180355
C75	C	-0.957305	-0.947342	-0.260562
C76	C	-0.457305	-0.447342	0.239438
C77	C	-1.051525	-0.943599	-0.264344
C78	C	-0.551525	-0.443599	0.235656
C79	C	-1.051614	-0.863409	-0.344376
C80	C	-0.551614	-0.363409	0.155624
C81	C	-0.957394	-0.867153	-0.340595
C82	C	-0.457394	-0.367153	0.159405
C83	C	-0.910243	-0.909120	-0.298685
C84	C	-0.410243	-0.409120	0.201315
C85	C	-0.816022	-0.912860	-0.294901
C86	C	-0.316022	-0.412860	0.205099
C87	C	-0.816113	-0.832674	-0.374936
C88	C	-0.316113	-0.332674	0.125064
C89	C	-0.910333	-0.828931	-0.378718
C90	C	-0.410333	-0.328931	0.121282
C91	C	-0.198960	-0.897582	-0.310249
C92	C	0.301040	-0.397582	0.189751
C93	C	-0.098683	-0.901633	-0.306249
C94	C	0.401317	-0.401633	0.193751
C95	C	-0.434258	-0.888128	-0.483059
C96	C	0.065742	-0.388128	0.016941
C97	C	-0.434250	-0.888151	-0.552700
C98	C	0.065750	-0.388151	-0.052700
C99	C	-0.434234	-0.051500	-0.319702
C100	C	0.065766	0.448500	0.180298
C101	C	-0.434254	-0.121141	-0.319685
C102	C	0.065746	0.378859	0.180315
C103	C	-0.376531	-0.930554	-0.583133
C104	C	0.123469	-0.430554	-0.083133
C105	C	-0.376492	-0.930555	-0.648567
C106	C	0.123508	-0.430555	-0.148567
C107	C	-0.434188	-0.888158	-0.683566
C108	C	0.065812	-0.388158	-0.183566
C109	C	-0.491911	-0.845747	-0.653126
C110	C	0.008089	-0.345747	-0.153126
C111	C	-0.491942	-0.845743	-0.587693
C112	C	0.008058	-0.345743	-0.087693
C113	C	-0.515424	-0.879935	-0.790484
C114	C	-0.015424	-0.379935	-0.290484
C115	C	-0.515395	-0.879943	-0.855916
C116	C	-0.015395	-0.379943	-0.355916
C117	C	-0.434093	-0.888166	-0.885383
C118	C	0.065907	-0.388166	-0.385383
C119	C	-0.352818	-0.896394	-0.849410
C120	C	0.147182	-0.396394	-0.349410
C121	C	-0.352849	-0.896390	-0.783977
C122	C	0.147151	-0.396390	-0.283977
C123	C	-0.434161	-0.888157	-0.754518
C124	C	0.065839	-0.388157	-0.254518
C125	C	-0.376327	-0.930572	-0.986766
C126	C	0.123673	-0.430572	-0.486766
C127	C	-0.376287	-0.930569	-1.052201
C128	C	0.123713	-0.430569	-0.552201
C129	C	-0.491714	-0.845763	-1.056760
C130	C	0.008286	-0.345763	-0.556760
C131	C	-0.491746	-0.845764	-0.991326
C132	C	0.008254	-0.345764	-0.491326
C133	C	-0.434054	-0.888172	-0.956333
C134	C	0.065946	-0.388172	-0.456333
C135	C	-0.434229	-0.888062	-0.156847
C136	C	0.065771	-0.388062	0.343153
C137	C	-0.433983	-0.888171	-0.087196
C138	C	0.066017	-0.388171	0.412804
H139	H	-0.539186	-0.526673	-0.396335
H140	H	-0.039186	-0.026673	0.103665
C141	C	-0.363918	-1.015344	-0.721721
C142	C	0.136082	-0.515344	-0.221721
C143	C	-0.313050	-0.977171	-0.682029
C144	C	0.186950	-0.477171	-0.182029
H145	H	-0.324750	-1.044121	-0.742380
H146	H	0.175250	-0.544121	-0.242380
H147	H	-0.403222	-1.037716	-0.697786
H148	H	0.096778	-0.537716	-0.197786
H149	H	-0.398268	-0.990083	-0.751924
H150	H	0.101732	-0.490083	-0.251924
H151	H	-0.278704	-1.002432	-0.651823
H152	H	0.221296	-0.502432	-0.151823
H153	H	-0.273730	-0.954798	-0.705966
H154	H	0.226270	-0.454798	-0.205966
H155	H	-0.538885	-0.811225	-0.681627
H156	H	-0.038885	-0.311225	-0.181627
C157	C	-0.262333	-0.570932	-0.193602
C158	C	0.237667	-0.070932	0.306398
C159	C	-0.313046	-0.526373	-0.230748
C160	C	0.186954	-0.026373	0.269252
H161	H	-0.223112	-0.550294	-0.164897
H162	H	0.276888	-0.050294	0.335103
H163	H	-0.301592	-0.594830	-0.171153
H164	H	0.198408	-0.094830	0.328847
H165	H	-0.227889	-0.597885	-0.219565
H166	H	0.272111	-0.097885	0.280435
H167	H	-0.347495	-0.499423	-0.204786
H168	H	0.152505	0.000577	0.295214
H169	H	-0.273781	-0.502465	-0.253199
H170	H	0.226219	-0.002465	0.246801
H171	H	-0.948736	-0.794764	-0.412841
H172	H	-0.448736	-0.294764	0.087159
C173	C	-0.710122	-0.828125	-0.454955
C174	C	-0.210122	-0.328125	0.045045
C175	C	-0.764385	-0.790656	-0.416847
C176	C	-0.264385	-0.290656	0.083153
H177	H	-0.678194	-0.802182	-0.480829
H178	H	-0.178194	-0.302182	0.019171
H179	H	-0.668556	-0.853645	-0.429457
H180	H	-0.168556	-0.353645	0.070543
H181	H	-0.746823	-0.853951	-0.480431
H182	H	-0.246823	-0.353951	0.019569
H183	H	-0.727683	-0.764833	-0.391368
H184	H	-0.227683	-0.264833	0.108632
H185	H	-0.805956	-0.765125	-0.442348
H186	H	-0.305956	-0.265125	0.057652
H187	H	-0.286614	-0.903091	-0.873401
H188	H	0.213386	-0.403091	-0.373401
H189	H	-0.538942	-0.811210	-0.562916
H190	H	-0.038942	-0.311210	-0.062916
H191	H	-1.090021	-0.829246	-0.378501
H192	H	-0.590021	-0.329246	0.121499
H193	H	-0.421206	-0.448165	-0.216658
H194	H	0.078794	0.051835	0.283342
H195	H	-0.329553	-0.965085	-0.554645
H196	H	0.170447	-0.465085	-0.054645
H197	H	-0.918914	-0.981509	-0.226434
H198	H	-0.418914	-0.481509	0.273566
H199	H	-0.286672	-0.903088	-0.754691
H200	H	0.213328	-0.403088	-0.254691
C201	C	-0.262222	-1.014392	-0.988830
C202	C	0.237778	-0.514392	-0.488830
C203	C	-0.312904	-0.977178	-0.948297
C204	C	0.187096	-0.477178	-0.448297
H205	H	-0.223063	-1.043161	-0.965080
H206	H	0.276937	-0.543161	-0.465080
H207	H	-0.301505	-1.036773	-1.015945
H208	H	0.198495	-0.536773	-0.515945
H209	H	-0.227713	-0.988480	-1.012947
H210	H	0.272287	-0.488480	-0.512947
H211	H	-0.347417	-1.003090	-0.924183
H212	H	0.152583	-0.503090	-0.424183
H213	H	-0.273615	-0.954796	-0.921171
H214	H	0.226385	-0.454796	-0.421171
C215	C	-0.455828	-0.361568	-0.488508
C216	C	0.044172	0.138432	0.011492
C217	C	-0.449472	-0.319235	-0.438725
C218	C	0.050528	0.180765	0.061275
H219	H	-0.460717	-0.339210	-0.527014
H220	H	0.039283	0.160790	-0.027014
H221	H	-0.403550	-0.389223	-0.487274
H222	H	0.096450	0.110777	0.012726
H223	H	-0.507538	-0.384974	-0.485002
H224	H	-0.007538	0.115026	0.014998
H225	H	-0.397758	-0.295832	-0.442228
H226	H	0.102242	0.204168	0.057772
H227	H	-0.501755	-0.291569	-0.439960
H228	H	-0.001755	0.208431	0.060040
H229	H	-0.329420	-0.131401	-0.242918
H230	H	0.170580	0.368599	0.257082
H231	H	-0.581613	-0.873072	-0.766497
H232	H	-0.081613	-0.373072	-0.266497
C233	C	-0.262269	-0.219583	-0.193691
C234	C	0.237731	0.280417	0.306309
C235	C	-0.312992	-0.260094	-0.230821
C236	C	0.187008	0.239906	0.269179
H237	H	-0.223067	-0.243350	-0.164968
H238	H	0.276933	0.256650	0.335032
H239	H	-0.227812	-0.195495	-0.219659
H240	H	0.272188	0.304505	0.280341
H241	H	-0.301530	-0.192436	-0.171258
H242	H	0.198470	0.307564	0.328742
H243	H	-0.273731	-0.287238	-0.253258
H244	H	0.226269	0.212762	0.246742
H245	H	-0.347451	-0.284193	-0.204850
H246	H	0.152549	0.215807	0.295150
C247	C	-0.324971	-0.968218	-1.150478
C248	C	0.175029	-0.468218	-0.650478
C249	C	-0.312827	-0.977175	-1.085656
C250	C	0.187173	-0.477175	-0.585656
H251	H	-0.285786	-0.996988	-1.171130
H252	H	0.214214	-0.496988	-0.671130
H253	H	-0.385570	-0.974943	-1.163639
H254	H	0.114430	-0.474943	-0.663639
H255	H	-0.311777	-0.926650	-1.160627
H256	H	0.188223	-0.426650	-0.660627
H257	H	-0.326027	-1.018742	-1.075506
H258	H	0.173973	-0.518742	-0.575506
H259	H	-0.252214	-0.970455	-1.072490
H260	H	0.247786	-0.470455	-0.572490
C261	C	-0.606387	-0.609487	-0.445504
C262	C	-0.106387	-0.109487	0.054496
C263	C	-0.555681	-0.654047	-0.408355
C264	C	-0.055681	-0.154047	0.091645
H265	H	-0.645599	-0.630124	-0.474216
H266	H	-0.145599	-0.130124	0.025784
H267	H	-0.640832	-0.582537	-0.419548
H268	H	-0.140832	-0.082537	0.080452
H269	H	-0.567116	-0.585586	-0.467950
H270	H	-0.067116	-0.085586	0.032050
H271	H	-0.594953	-0.677945	-0.385905
H272	H	-0.094953	-0.177945	0.114095
H273	H	-0.521234	-0.681008	-0.434314
H274	H	-0.021234	-0.181008	0.065686
H275	H	-0.539126	-0.241745	-0.396414
H276	H	-0.039126	0.258255	0.103586
H277	H	-0.539088	-0.123040	-0.396452
H278	H	-0.039088	0.376960	0.103548
H279	H	-1.089839	-0.974724	-0.233301
H280	H	-0.589839	-0.474724	0.266699
C281	C	-0.542935	-0.808125	-1.159085
C282	C	-0.042935	-0.308125	-0.659085
C283	C	-0.555146	-0.799166	-1.095224
C284	C	-0.055146	-0.299166	-0.595224
H285	H	-0.582103	-0.779359	-1.182832
H286	H	-0.082103	-0.279359	-0.682832
H287	H	-0.482327	-0.801396	-1.167372
H288	H	0.017673	-0.301396	-0.667372
H289	H	-0.556111	-0.849695	-1.170361
H290	H	-0.056111	-0.349695	-0.670361
H291	H	-0.541964	-0.757597	-1.083947
H292	H	-0.041964	-0.257597	-0.583947
H293	H	-0.615768	-0.805890	-1.086934
H294	H	-0.115768	-0.305890	-0.586934
C295	C	-0.605836	-0.761943	-1.002406
C296	C	-0.105836	-0.261943	-0.502406
C297	C	-0.555200	-0.799157	-0.957871
C298	C	-0.055200	-0.299157	-0.457871
H299	H	-0.645013	-0.733170	-0.981751
H300	H	-0.145013	-0.233170	-0.481751
H301	H	-0.566525	-0.739568	-1.026332
H302	H	-0.066525	-0.239568	-0.526332
H303	H	-0.640324	-0.787855	-1.029333
H304	H	-0.140324	-0.287855	-0.529333
H305	H	-0.520707	-0.773245	-0.930947
H306	H	-0.020707	-0.273245	-0.430947
H307	H	-0.594517	-0.821534	-0.933934
H308	H	-0.094517	-0.321534	-0.433934
C309	C	-0.660654	-0.918882	-0.881900
C310	C	-0.160654	-0.418882	-0.381900
C311	C	-0.604736	-0.870902	-0.895447
C312	C	-0.104736	-0.370902	-0.395447
H313	H	-0.715814	-0.913297	-0.906300
H314	H	-0.215814	-0.413297	-0.406300
H315	H	-0.631793	-0.958186	-0.891503
H316	H	-0.131793	-0.458186	-0.391503
H317	H	-0.672289	-0.917694	-0.838711
H318	H	-0.172289	-0.417694	-0.338711
H319	H	-0.593095	-0.872093	-0.938636
H320	H	-0.093095	-0.372093	-0.438636
H321	H	-0.633602	-0.831588	-0.885849
H322	H	-0.133602	-0.331588	-0.385849
H323	H	-0.421188	-0.329461	-0.216692
H324	H	0.078812	0.170539	0.283308
C325	C	-0.363886	-0.699243	-0.192443
C326	C	0.136114	-0.199243	0.307557
C327	C	-0.313073	-0.663733	-0.230713
C328	C	0.186927	-0.163733	0.269287
H329	H	-0.324679	-0.723014	-0.163726
H330	H	0.175321	-0.223014	0.336274
H331	H	-0.403125	-0.672091	-0.170008
H332	H	0.096875	-0.172091	0.329992
H333	H	-0.398304	-0.726716	-0.217641
H334	H	0.101696	-0.226716	0.282359
H335	H	-0.278660	-0.636257	-0.205515
H336	H	0.221340	-0.136257	0.294485
H337	H	-0.273818	-0.690888	-0.253150
H338	H	0.226182	-0.190888	0.246850
C339	C	-0.825401	-0.991751	-0.216176
C340	C	-0.325401	-0.491751	0.283824
C341	C	-0.764191	-0.958990	-0.248837
C342	C	-0.264191	-0.458990	0.251163
H343	H	-0.793403	-1.020233	-0.187741
H344	H	-0.293403	-0.520233	0.312259
H345	H	-0.862211	-0.963004	-0.193650
H346	H	-0.362211	-0.463004	0.306350
H347	H	-0.862093	-1.014241	-0.244990
H348	H	-0.362093	-0.514241	0.255010
H349	H	-0.727504	-0.936496	-0.220024
H350	H	-0.227504	-0.436496	0.279976
H351	H	-0.727366	-0.987741	-0.271364
H352	H	-0.227366	-0.487741	0.228636
C353	C	-0.373317	-0.497318	-0.443810
C354	C	0.126683	0.002682	0.056190
C355	C	-0.449517	-0.456590	-0.438682
C356	C	0.050483	0.043410	0.061318
H357	H	-0.378225	-0.519367	-0.482302
H358	H	0.121775	-0.019367	0.017698
H359	H	-0.321032	-0.473916	-0.442600
H360	H	0.178968	0.026084	0.057400
H361	H	-0.369028	-0.526301	-0.410011
H362	H	0.130972	-0.026301	0.089989
H363	H	-0.453802	-0.427604	-0.472479
H364	H	0.046198	0.072396	0.027521
H365	H	-0.501817	-0.479994	-0.439898
H366	H	-0.001817	0.020006	0.060102
