data_functionalizedCrystal
_audit_creation_method	'MofGen! by Chris Wilmer'
_symmetry_space_group_name_H-M	'P1'
_symmetry_Int_Tables_number	1
_symmetry_cell_setting	triclinic
loop_
_symmetry_equiv_pos_as_xyz
  x,y,z
_cell_length_a	12.594517
_cell_length_b	12.594516
_cell_length_c	12.594510
_cell_angle_alpha	90.031906
_cell_angle_beta	89.977213
_cell_angle_gamma	89.984147
loop_
_atom_site_label
_atom_site_type_symbol
_atom_site_fract_x
_atom_site_fract_y
_atom_site_fract_z
Zn1	Zn	1.627282	0.423656	-0.601875
Zn2	Zn	1.627169	0.601684	-0.423903
Zn3	Zn	1.449282	0.423719	-0.423904
Zn4	Zn	1.449268	0.601592	-0.601833
O5	O	1.538250	0.512663	-0.512879
O6	O	1.776213	0.447283	-0.578284
O7	O	1.603530	0.578141	-0.274957
O8	O	1.472947	0.274765	-0.447530
O9	O	1.776129	0.578080	-0.447528
O10	O	1.603723	0.274718	-0.578285
O11	O	1.472837	0.447391	-0.274958
O12	O	1.300334	0.447302	-0.447489
O13	O	1.472924	0.577924	-0.750784
O14	O	1.300324	0.577985	-0.578213
O15	O	1.603710	0.447195	-0.750815
O16	O	1.603517	0.750617	-0.447488
O17	O	1.472814	0.750550	-0.578212
C18	C	1.261709	0.512641	-0.512847
C19	C	1.143404	0.512658	-0.512859
C20	C	1.538180	0.789204	-0.512868
C21	C	1.538248	0.907509	-0.512899
C22	C	1.538329	0.512542	-0.790500
C23	C	1.538362	0.512490	-0.908805
C24	C	1.074125	0.441482	-0.441894
C25	C	1.003313	0.538574	-0.415718
C26	C	1.003417	0.415614	-0.539054
C27	C	1.074150	0.609800	-0.486632
C28	C	1.074260	0.486775	-0.610013
C29	C	1.003480	0.583933	-0.583874
C30	C	1.815871	0.512685	-0.512911
C31	C	1.934177	0.512694	-0.512924
C32	C	1.538349	0.235042	-0.512912
C33	C	1.538391	0.116736	-0.512927
C34	C	1.467152	0.976764	-0.583950
C35	C	1.441216	1.047639	-0.486827
C36	C	1.564281	1.047433	-0.610039
C37	C	1.512261	0.976826	-0.415725
C38	C	1.635371	0.976613	-0.539002
C39	C	1.609472	1.047456	-0.441812
C40	C	1.609522	0.441365	-1.048839
C41	C	1.635509	0.538486	-0.978022
C42	C	1.512422	0.415381	-0.978051
C43	C	1.564444	0.609630	-1.048774
C44	C	1.441312	0.486459	-1.048809
C45	C	1.467262	0.583646	-0.978024
C46	C	1.538233	0.512706	-0.236338
C47	C	1.538406	0.512458	-0.118033
H48	H	1.105144	0.381351	-0.381807
C49	C	1.482751	0.304452	-0.936086
N50	N	1.460410	0.220899	-0.904482
C51	C	1.386015	0.664983	-0.936243
N52	N	1.324833	0.726251	-0.904758
C53	C	1.594248	0.720588	-1.090563
N54	N	1.616700	0.804159	-1.122042
H55	H	0.972152	0.560489	-0.333584
C56	C	1.330443	0.456679	-1.090858
N57	N	1.246938	0.434237	-1.122532
H58	H	1.359148	1.078860	-0.464772
C59	C	1.115947	0.720722	-0.456601
N60	N	1.147430	0.804266	-0.433977
H61	H	1.406921	0.945723	-0.643949
C62	C	0.961826	0.665362	-0.664981
N63	N	0.930447	0.726697	-0.726064
C64	C	1.116403	0.457124	-0.720935
N65	N	1.148150	0.434778	-0.804481
C66	C	1.482459	0.935102	-0.304729
N67	N	1.460008	0.903673	-0.221129
H68	H	0.972290	0.333541	-0.561146
C69	C	1.690776	1.089135	-0.360563
N70	N	1.752008	1.120531	-0.299363
H71	H	1.586242	1.078449	-0.692178
H72	H	1.717420	0.945395	-0.561104
C73	C	1.690854	0.360230	-1.090850
N74	N	1.752115	0.299124	-1.122495
H75	H	1.717601	0.560496	-0.946925
