data_functionalizedCrystal
_audit_creation_method	'MofGen! by Chris Wilmer'
_symmetry_space_group_name_H-M	'P1'
_symmetry_Int_Tables_number	1
_symmetry_cell_setting	triclinic
loop_
_symmetry_equiv_pos_as_xyz
  x,y,z
_cell_length_a	13.897449
_cell_length_b	12.759399
_cell_length_c	12.759393
_cell_angle_alpha	89.969094
_cell_angle_beta	89.975751
_cell_angle_gamma	90.015943
loop_
_atom_site_label
_atom_site_type_symbol
_atom_site_fract_x
_atom_site_fract_y
_atom_site_fract_z
Zn1	Zn	1.474728	-0.418192	-0.594110
Zn2	Zn	1.808061	-0.084859	-0.260777
Zn3	Zn	2.141395	0.248474	0.072557
Zn4	Zn	1.474627	-0.593908	-0.418429
Zn5	Zn	1.807960	-0.260574	-0.085095
Zn6	Zn	2.141294	0.072759	0.248238
Zn7	Zn	1.313415	-0.418246	-0.418435
Zn8	Zn	1.646748	-0.084913	-0.085102
Zn9	Zn	1.980081	0.248421	0.248232
Zn10	Zn	1.313406	-0.593832	-0.594056
Zn11	Zn	1.646739	-0.260499	-0.260723
Zn12	Zn	1.980073	0.072834	0.072611
O13	O	1.394044	-0.506045	-0.506257
O14	O	1.727377	-0.172711	-0.172924
O15	O	2.060711	0.160622	0.160409
O16	O	1.609696	-0.441510	-0.570826
O17	O	1.943030	-0.108177	-0.237492
O18	O	2.276363	0.225156	0.095841
O19	O	1.453203	-0.570660	-0.271408
O20	O	1.786536	-0.237327	0.061925
O21	O	2.119870	0.096007	0.395258
O22	O	1.334859	-0.271218	-0.441764
O23	O	1.668193	0.062116	-0.108431
O24	O	2.001526	0.395449	0.224903
O25	O	1.609622	-0.570608	-0.441753
O26	O	1.942955	-0.237275	-0.108420
O27	O	2.276289	0.096059	0.224913
O28	O	1.453375	-0.271178	-0.570831
O29	O	1.786709	0.062155	-0.237498
O30	O	2.120042	0.395488	0.095835
O31	O	1.334761	-0.441602	-0.271413
O32	O	1.668095	-0.108269	0.061920
O33	O	2.001428	0.225065	0.395254
O34	O	1.178432	-0.441529	-0.441711
O35	O	1.511765	-0.108195	-0.108378
O36	O	1.845099	0.225138	0.224955
O37	O	1.334845	-0.570479	-0.741084
O38	O	1.668178	-0.237146	-0.407751
O39	O	2.001511	0.096188	-0.074418
O40	O	1.178426	-0.570531	-0.570739
O41	O	1.511759	-0.237198	-0.237406
O42	O	1.845092	0.096135	0.095927
O43	O	1.453367	-0.441437	-0.741124
O44	O	1.786700	-0.108104	-0.407791
O45	O	2.120034	0.225230	-0.074457
O46	O	1.453195	-0.740919	-0.441701
O47	O	1.786528	-0.407585	-0.108368
O48	O	2.119861	-0.074252	0.224966
O49	O	1.334746	-0.740863	-0.570733
O50	O	1.668080	-0.407530	-0.237400
O51	O	2.001413	-0.074197	0.095933
C52	C	1.143430	-0.506028	-0.506221
C53	C	1.476763	-0.172695	-0.172887
C54	C	1.810096	0.160638	0.160446
C55	C	1.036216	-0.506047	-0.506230
C56	C	1.369549	-0.172713	-0.172897
C57	C	1.702882	0.160620	0.160437
C58	C	1.393985	-0.779012	-0.506233
C59	C	1.727318	-0.445679	-0.172900
C60	C	2.060652	-0.112345	0.160433
C61	C	1.394048	-0.895789	-0.506258
C62	C	1.727381	-0.562455	-0.172925
C63	C	2.060714	-0.229122	0.160408
C64	C	1.455794	-0.950644	-0.439148
C65	C	1.789127	-0.617311	-0.105814
C66	C	2.122461	-0.283978	0.227519
C67	C	1.455856	-1.060369	-0.439183
C68	C	1.789189	-0.727035	-0.105850
C69	C	2.122523	-0.393702	0.227484
C70	C	1.332417	-1.060371	-0.573443
C71	C	1.665750	-0.727038	-0.240109
C72	C	1.999084	-0.393704	0.093224
C73	C	1.332361	-0.950649	-0.573412
C74	C	1.665694	-0.617316	-0.240079
C75	C	1.999027	-0.283982	0.093255
C76	C	0.949146	-0.506050	-0.506248
C77	C	1.282479	-0.172717	-0.172914
C78	C	1.615813	0.160616	0.160419
C79	C	0.839913	-0.506058	-0.506279
C80	C	1.173247	-0.172724	-0.172946
C81	C	1.506580	0.160609	0.160387
C82	C	1.645637	-0.506062	-0.506295
C83	C	1.978970	-0.172728	-0.172961
C84	C	2.312304	0.160605	0.160372
C85	C	1.752851	-0.506069	-0.506311
C86	C	2.086184	-0.172735	-0.172977
C87	C	2.419518	0.160598	0.160356
C88	C	1.394116	-0.505944	-0.780291
C89	C	1.727449	-0.172610	-0.446958
C90	C	2.060783	0.160723	-0.113624
C91	C	1.394147	-0.505901	-0.897068
C92	C	1.727480	-0.172567	-0.563734
C93	C	2.060814	0.160766	-0.230401
C94	C	1.394130	-0.232011	-0.506304
C95	C	1.727463	0.101322	-0.172971
C96	C	2.060796	0.434655	0.160362
C97	C	1.394166	-0.115235	-0.506324
C98	C	1.727499	0.218099	-0.172991
C99	C	2.060833	0.551432	0.160342
C100	C	1.455866	-0.438698	-0.951952
C101	C	1.789199	-0.105365	-0.618619
C102	C	2.122533	0.227969	-0.285285
C103	C	1.455882	-0.438653	-1.061676
C104	C	1.789216	-0.105319	-0.728343
C105	C	2.122549	0.228014	-0.395009
C106	C	1.332458	-0.573022	-1.061622
C107	C	1.665791	-0.239689	-0.728289
C108	C	1.999124	0.093645	-0.394955
C109	C	1.332437	-0.573061	-0.951900
C110	C	1.665770	-0.239728	-0.618566
C111	C	1.999104	0.093605	-0.285233
C112	C	1.394028	-0.506069	-0.233290
C113	C	1.727361	-0.172736	0.100043
C114	C	2.060694	0.160597	0.433377
C115	C	1.394184	-0.505816	-0.116514
C116	C	1.727517	-0.172483	0.216819
C117	C	2.060850	0.160850	0.550153
H118	H	1.506025	-0.905980	-0.384469
H119	H	1.839358	-0.572646	-0.051135
H120	H	2.172692	-0.239313	0.282198
Cl121	Cl	1.254889	-0.657453	-1.130561
Cl122	Cl	1.588223	-0.324120	-0.797228
Cl123	Cl	1.921556	0.009213	-0.463894
Cl124	Cl	1.533486	-1.129326	-0.354814
Cl125	Cl	1.866820	-0.795992	-0.021480
Cl126	Cl	2.200153	-0.462659	0.311853
H127	H	1.282192	-1.105052	-0.628115
H128	H	1.615525	-0.771718	-0.294782
H129	H	1.948859	-0.438385	0.038552
Cl130	Cl	1.254735	-0.881682	-0.657793
Cl131	Cl	1.588069	-0.548349	-0.324459
Cl132	Cl	1.921402	-0.215015	0.008874
H133	H	1.506112	-0.384008	-0.907311
H134	H	1.839445	-0.050675	-0.573978
H135	H	2.172778	0.282658	-0.240644
H136	H	1.282171	-0.627785	-0.907212
H137	H	1.615504	-0.294452	-0.573878
H138	H	1.948838	0.038882	-0.240545
H139	H	1.506139	-0.383928	-1.106358
H140	H	1.839472	-0.050594	-0.773025
H141	H	2.172806	0.282739	-0.439691
