data_functionalizedCrystal
_audit_creation_method	'MofGen! by Chris Wilmer'
_symmetry_space_group_name_H-M	'P1'
_symmetry_Int_Tables_number	1
_symmetry_cell_setting	triclinic
loop_
_symmetry_equiv_pos_as_xyz
  x,y,z
_cell_length_a	18.101398
_cell_length_b	18.101397
_cell_length_c	13.897441
_cell_angle_alpha	89.968764
_cell_angle_beta	89.989505
_cell_angle_gamma	90.015323
loop_
_atom_site_label
_atom_site_type_symbol
_atom_site_fract_x
_atom_site_fract_y
_atom_site_fract_z
Zn1	Zn	1.132185	-0.294901	-0.545162
Zn2	Zn	1.632185	0.205099	-0.045162
Zn3	Zn	1.132104	-0.418754	-0.383859
Zn4	Zn	1.632104	0.081246	0.116141
Zn5	Zn	1.008342	-0.294922	-0.383903
Zn6	Zn	1.508342	0.205078	0.116097
Zn7	Zn	1.008319	-0.418696	-0.545134
Zn8	Zn	1.508319	0.081304	-0.045134
O9	O	1.070237	-0.356818	-0.464514
O10	O	1.570237	0.143182	0.035486
O11	O	1.235807	-0.311346	-0.523758
O12	O	1.735807	0.188654	-0.023758
O13	O	1.115662	-0.402361	-0.248883
O14	O	1.615662	0.097639	0.251117
O15	O	1.024814	-0.191286	-0.405324
O16	O	1.524814	0.308714	0.094676
O17	O	1.235747	-0.402341	-0.405249
O18	O	1.735747	0.097659	0.094751
O19	O	1.115800	-0.191271	-0.523801
O20	O	1.615800	0.308729	-0.023801
O21	O	1.024735	-0.311382	-0.248915
O22	O	1.524735	0.188618	0.251085
O23	O	0.904706	-0.311325	-0.405298
O24	O	1.404706	0.188675	0.094702
O25	O	1.024774	-0.402241	-0.680119
O26	O	1.524774	0.097759	-0.180119
O27	O	0.904689	-0.402261	-0.523753
O28	O	1.404689	0.097739	-0.023753
O29	O	1.115778	-0.311289	-0.680140
O30	O	1.615778	0.188711	-0.180140
O31	O	1.115640	-0.522380	-0.405222
O32	O	1.615640	-0.022380	0.094778
O33	O	1.024696	-0.522336	-0.523710
O34	O	1.524696	-0.022336	-0.023710
C35	C	0.877827	-0.356789	-0.464528
C36	C	1.377827	0.143211	0.035472
C37	C	0.795513	-0.356794	-0.464556
C38	C	1.295513	0.143206	0.035444
C39	C	0.496422	-0.356838	-0.464516
C40	C	0.996422	0.143162	0.035484
C41	C	0.527761	-0.414329	-0.538677
C42	C	1.027761	0.085671	-0.038677
C43	C	0.613379	-0.414149	-0.538982
C44	C	1.113379	0.085851	-0.038982
C45	C	0.644804	-0.356817	-0.464536
C46	C	1.144804	0.143183	0.035464
C47	C	0.613735	-0.278814	-0.492315
C48	C	1.113735	0.221186	0.007685
C49	C	0.528090	-0.279159	-0.492843
C50	C	1.028090	0.220841	0.007157
C51	C	0.527972	-0.376663	-0.362397
C52	C	1.027972	0.123337	0.137603
C53	C	0.613622	-0.378374	-0.362942
C54	C	1.113622	0.121626	0.137058
C55	C	0.728664	-0.356800	-0.464546
C56	C	1.228664	0.143200	0.035454
C57	C	0.412562	-0.356849	-0.464509
C58	C	0.912562	0.143151	0.035491
C59	C	1.070176	-0.549229	-0.464479
C60	C	1.570176	-0.049229	0.035521
C61	C	1.070218	-0.631543	-0.464497
C62	C	1.570218	-0.131543	0.035503
C63	C	1.070263	-0.782251	-0.464530
C64	C	1.570263	-0.282251	0.035470
C65	C	1.127539	-0.813601	-0.390052
C66	C	1.627539	-0.313601	0.109948
C67	C	1.127396	-0.899220	-0.389778
C68	C	1.627396	-0.399220	0.110222
C69	C	1.070308	-0.930634	-0.464562
C70	C	1.570308	-0.430634	0.035438
C71	C	0.992206	-0.899612	-0.437217
C72	C	1.492206	-0.399612	0.062783
C73	C	0.992512	-0.813968	-0.436657
C74	C	1.492512	-0.313968	0.063343
C75	C	1.090416	-0.813743	-0.566546
C76	C	1.590416	-0.313743	-0.066546
C77	C	1.092164	-0.899393	-0.566021
C78	C	1.592164	-0.399393	-0.066021
C79	C	1.070329	-1.014493	-0.464582
C80	C	1.570329	-0.514493	0.035418
C81	C	1.070237	-0.698392	-0.464507
C82	C	1.570237	-0.198392	0.035493
C83	C	1.263399	-0.356848	-0.464501
C84	C	1.763399	0.143152	0.035499
C85	C	1.345713	-0.356861	-0.464496
C86	C	1.845713	0.143139	0.035504
C87	C	1.070283	-0.356756	-0.716108
C88	C	1.570283	0.143244	-0.216108
C89	C	1.070302	-0.356730	-0.823322
C90	C	1.570302	0.143270	-0.323322
C91	C	1.070319	-0.163656	-0.464571
C92	C	1.570319	0.336344	0.035429
C93	C	1.070353	-0.081342	-0.464595
C94	C	1.570353	0.418658	0.035405
C95	C	1.070317	-0.356709	-0.910391
C96	C	1.570317	0.143291	-0.410391
C97	C	1.070338	-0.356675	-1.019624
C98	C	1.570338	0.143325	-0.519624
C99	C	1.070235	-0.356827	-0.213900
C100	C	1.570235	0.143173	0.286100
C101	C	1.070359	-0.356645	-0.106687
C102	C	1.570359	0.143355	0.393313
H103	H	1.185304	-0.920192	-0.406857
H104	H	1.685304	-0.420192	0.093143
H105	H	1.114054	-0.919763	-0.314197
H106	H	1.614054	-0.419763	0.185803
H107	H	0.633938	-0.435773	-0.341991
H108	H	1.133938	0.064227	0.158009
H109	H	0.635014	-0.339541	-0.304719
H110	H	1.135014	0.160459	0.195281
N111	N	1.110064	-0.785161	-0.290496
N112	N	1.610064	-0.285161	0.209504
H113	H	1.058744	-0.801448	-0.271390
H114	H	1.558744	-0.301448	0.228610
H115	H	1.147155	-0.805565	-0.243158
H116	H	1.647155	-0.305565	0.256842
H117	H	0.948373	-0.793231	-0.488559
H118	H	1.448373	-0.293231	0.011441
H119	H	0.974871	-0.921119	-0.363480
H120	H	1.474871	-0.421119	0.136520
H121	H	0.975459	-0.794048	-0.362093
H122	H	1.475459	-0.294048	0.137907
N123	N	0.642149	-0.256141	-0.590135
N124	N	1.142149	0.243859	-0.090135
H125	H	0.621847	-0.205881	-0.607370
H126	H	1.121847	0.294119	-0.107370
H127	H	0.697891	-0.253989	-0.588708
H128	H	1.197891	0.246011	-0.088708
H129	H	0.507157	-0.472362	-0.521462
H130	H	1.007157	0.027638	-0.021462
N131	N	1.164554	-0.785072	-0.599569
N132	N	1.664554	-0.285072	-0.099569
H133	H	1.185828	-0.751372	-0.548727
H134	H	1.685828	-0.251372	-0.048727
H135	H	1.199170	-0.828004	-0.610501
H136	H	1.699170	-0.328004	-0.110501
N137	N	1.204467	-0.786253	-0.412390
N138	N	1.704467	-0.286253	0.087610
H139	H	1.240355	-0.807010	-0.363753
H140	H	1.740355	-0.307010	0.136247
H141	H	1.219131	-0.802912	-0.479055
H142	H	1.719131	-0.302912	0.020945
H143	H	1.149641	-0.919663	-0.586645
H144	H	1.649641	-0.419663	-0.086645
H145	H	0.507705	-0.334786	-0.307140
H146	H	1.007705	0.165214	0.192860
N147	N	0.499271	-0.397182	-0.638327
N148	N	0.999271	0.102818	-0.138327
H149	H	0.466152	-0.352334	-0.635640
H150	H	0.966152	0.147666	-0.135640
H151	H	0.542322	-0.386968	-0.682621
H152	H	1.042322	0.113032	-0.182621
H153	H	1.048704	-0.793464	-0.622036
H154	H	1.548704	-0.293464	-0.122036
H155	H	1.053520	-0.920773	-0.624473
H156	H	1.553520	-0.420773	-0.124473
N157	N	0.641212	-0.490766	-0.515919
N158	N	1.141212	0.009234	-0.015919
H159	H	0.597845	-0.524962	-0.505463
H160	H	1.097845	-0.024962	-0.005463
H161	H	0.672134	-0.509537	-0.571238
H162	H	1.172134	-0.009537	-0.071238
N163	N	0.640532	-0.396758	-0.639205
N164	N	1.140532	0.103242	-0.139205
H165	H	0.671405	-0.350289	-0.637684
H166	H	1.171405	0.149711	-0.137684
H167	H	0.671485	-0.439193	-0.663674
H168	H	1.171485	0.060807	-0.163674
N169	N	0.501637	-0.256816	-0.591698
N170	N	1.001637	0.243184	-0.091698
H171	H	0.545611	-0.246844	-0.634527
H172	H	1.045611	0.253156	-0.134527
H173	H	0.470987	-0.297995	-0.620155
H174	H	0.970987	0.202005	-0.120155
N175	N	0.500621	-0.220496	-0.424422
N176	N	1.000621	0.279504	0.075578
H177	H	0.544150	-0.194524	-0.394055
H178	H	1.044150	0.305476	0.105945
H179	H	0.469697	-0.183475	-0.460948
H180	H	0.969697	0.316525	0.039052
N181	N	0.640693	-0.220529	-0.423005
N182	N	1.140693	0.279471	0.076995
H183	H	0.673384	-0.244185	-0.372812
H184	H	1.173384	0.255815	0.127188
H185	H	0.669738	-0.181897	-0.459360
H186	H	1.169738	0.318103	0.040640
N187	N	0.934147	-0.926569	-0.506863
N188	N	1.434147	-0.426569	-0.006863
H189	H	0.957972	-0.959227	-0.556930
H190	H	1.457972	-0.459227	-0.056930
H191	H	0.895420	-0.955649	-0.470731
H192	H	1.395420	-0.455649	0.029269
N193	N	0.499348	-0.450709	-0.328940
N194	N	0.999348	0.049291	0.171060
H195	H	0.465633	-0.472155	-0.379648
H196	H	0.965633	0.027845	0.120352
H197	H	0.542300	-0.485274	-0.317825
H198	H	1.042300	0.014726	0.182175
