data_functionalizedCrystal
_audit_creation_method	'MofGen! by Chris Wilmer'
_symmetry_space_group_name_H-M	'P1'
_symmetry_Int_Tables_number	1
_symmetry_cell_setting	triclinic
loop_
_symmetry_equiv_pos_as_xyz
  x,y,z
_cell_length_a	19.188930
_cell_length_b	19.188930
_cell_length_c	18.266242
_cell_angle_alpha	90.011475
_cell_angle_beta	89.977082
_cell_angle_gamma	96.855221
loop_
_atom_site_label
_atom_site_type_symbol
_atom_site_fract_x
_atom_site_fract_y
_atom_site_fract_z
O1	O	0.926149	-0.087169	-0.061124
O2	O	0.722838	-0.098903	-0.061075
O3	O	0.830361	0.008620	-0.061087
O4	O	0.818627	-0.194691	-0.061113
O5	O	0.830343	0.008625	0.060675
O6	O	0.722820	-0.098897	0.060687
O7	O	0.926131	-0.087163	0.060638
Zn8	Zn	0.824473	-0.093029	0.079994
Zn9	Zn	0.824497	-0.093037	-0.080432
O10	O	0.818608	-0.194686	0.060649
C11	C	0.696818	-0.098520	-0.000188
C12	C	0.619313	-0.097380	-0.000169
C13	C	0.574389	-0.160470	-0.000188
C14	C	0.501566	-0.159399	-0.000196
C15	C	0.473669	-0.095233	-0.000199
C16	C	0.518603	-0.032133	-0.000175
C17	C	0.591425	-0.033207	-0.000160
N18	N	0.365695	-0.046188	-0.041663
N19	N	0.296516	-0.045172	-0.041679
C20	C	0.254260	-0.091994	-0.000243
N21	N	0.283795	-0.139881	0.041200
N22	N	0.352980	-0.140899	0.041213
C23	C	0.394707	-0.094062	-0.000215
C24	C	0.130372	-0.153928	-0.000270
C25	C	0.057547	-0.152853	-0.000274
C26	C	0.074586	-0.025586	-0.000261
C27	C	0.147409	-0.026662	-0.000250
C28	C	0.175298	-0.090835	-0.000258
C29	C	0.829972	0.034634	-0.000204
C30	C	0.828831	0.112138	-0.000197
C31	C	0.952151	-0.087546	-0.000252
C32	C	1.029656	-0.088687	-0.000276
C33	C	0.818997	-0.220700	-0.000236
C34	C	0.820138	-0.298204	-0.000247
N35	N	0.824461	-0.093024	0.189481
C36	C	0.891922	0.157062	-0.000209
C37	C	0.890850	0.229886	-0.000220
C38	C	0.826684	0.257782	-0.000206
C39	C	0.763585	0.212849	-0.000198
C40	C	0.764658	0.140026	-0.000194
N41	N	0.777631	0.365789	0.041244
N42	N	0.776615	0.434968	0.041242
C43	C	0.823446	0.477191	-0.000220
N44	N	0.871341	0.447624	-0.041669
N45	N	0.872359	0.378439	-0.041664
C46	C	0.825513	0.336745	-0.000210
C47	C	0.885379	0.601079	-0.000245
C48	C	0.884305	0.673904	-0.000261
C49	C	0.757038	0.656865	-0.000231
C50	C	0.758114	0.584042	-0.000222
C51	C	0.822287	0.556154	-0.000226
N52	N	0.824513	-0.093037	-0.189919
C53	C	0.872088	-0.045436	0.227785
C54	C	0.872092	-0.045433	0.304430
C55	C	0.824477	-0.093030	0.342768
C56	C	0.776841	-0.140621	0.304455
C57	C	0.776834	-0.140618	0.227812
N58	N	0.815401	-0.154837	0.463094
N59	N	0.815413	-0.154838	0.535902
C60	C	0.824496	-0.093040	0.573691
N61	N	0.833582	-0.031239	0.535920
N62	N	0.833574	-0.031240	0.463106
C63	C	0.824480	-0.093038	0.425875
C64	C	0.872131	-0.045444	0.695101
C65	C	0.872130	-0.045440	0.771748
C66	C	0.776882	-0.140634	0.771772
C67	C	0.776879	-0.140632	0.695127
C68	C	0.824507	-0.093038	0.656796
H69	H	0.628003	0.018171	-0.000145
N70	N	0.923511	0.005885	0.813059
H71	H	0.896942	0.036744	0.844880
H72	H	0.953665	0.035979	0.777091
N73	N	0.604460	-0.229687	-0.000198
H74	H	0.588035	-0.257319	0.044931
H75	H	0.657406	-0.220744	-0.000215
H76	H	0.910910	-0.006688	0.663892
N77	N	0.009092	-0.220906	-0.000301
H78	H	-0.041274	-0.210491	-0.000306
H79	H	0.018077	-0.248884	0.044833
H80	H	0.706738	0.547464	-0.000208
H81	H	0.944176	0.134360	-0.000214
H82	H	0.937632	0.578372	-0.000251
H83	H	0.711340	0.235567	-0.000187
H84	H	0.713281	0.103448	-0.000184
H85	H	0.910877	-0.006680	0.335623
N86	N	0.958900	0.278352	-0.000235
H87	H	0.999715	0.249634	-0.000238
H88	H	0.961213	0.308946	0.044903
H89	H	0.051874	0.026659	-0.000309
N90	N	0.952356	0.722362	-0.000276
H91	H	0.993169	0.693642	-0.000276
H92	H	0.954670	0.752959	0.044859
N93	N	0.687828	0.686943	-0.000223
H94	H	0.696720	0.739893	-0.000230
H95	H	0.660220	0.670506	0.044922
N96	N	0.725521	-0.191967	0.813114
H97	H	0.695347	-0.222114	0.777214
H98	H	0.694745	-0.165305	0.844931
N99	N	0.725510	-0.191959	0.653808
H100	H	0.695345	-0.222111	0.689723
H101	H	0.752136	-0.222761	0.621984
N102	N	0.923451	0.005898	0.186442
H103	H	0.972978	-0.002023	0.199754
H104	H	0.915506	0.055410	0.199816
N105	N	0.453100	-0.227449	-0.000219
H106	H	0.481817	-0.268264	-0.000221
H107	H	0.422543	-0.229769	-0.045366
H108	H	0.495885	0.020111	-0.000188
N109	N	0.725480	-0.191955	0.345800
H110	H	0.732713	-0.184737	0.400167
H111	H	0.733387	-0.241467	0.332385
N112	N	0.160456	-0.223139	-0.000265
H113	H	0.213406	-0.214246	-0.000258
H114	H	0.144030	-0.250742	-0.045408
H115	H	0.738049	-0.179371	0.196624
N116	N	0.195869	0.041386	-0.000229
H117	H	0.167148	0.082199	-0.000231
H118	H	0.226481	0.043713	-0.045360
