data_functionalizedCrystal
_audit_creation_method	'MofGen! by Chris Wilmer'
_symmetry_space_group_name_H-M	'P1'
_symmetry_Int_Tables_number	1
_symmetry_cell_setting	triclinic
loop_
_symmetry_equiv_pos_as_xyz
  x,y,z
_cell_length_a	14.971506
_cell_length_b	11.792254
_cell_length_c	13.448316
_cell_angle_alpha	89.993237
_cell_angle_beta	89.992937
_cell_angle_gamma	83.910493
loop_
_atom_site_label
_atom_site_type_symbol
_atom_site_fract_x
_atom_site_fract_y
_atom_site_fract_z
O1	O	1.187535	0.148018	-0.082699
O2	O	1.687535	0.648018	0.417301
O3	O	0.927208	0.165706	-0.082700
O4	O	1.427208	0.665706	0.417300
O5	O	1.063683	-0.008348	-0.082692
O6	O	1.563683	0.491652	0.417308
O7	O	1.051060	0.322072	-0.082707
O8	O	1.551060	0.822072	0.417293
O9	O	1.063666	-0.008358	0.082691
O10	O	1.563666	0.491642	0.582691
O11	O	0.927191	0.165695	0.082684
O12	O	1.427191	0.665695	0.582684
O13	O	1.187517	0.148007	0.082685
O14	O	1.687517	0.648007	0.582685
Cu15	Cu	1.057353	0.156850	0.097785
Cu16	Cu	1.557353	0.656850	0.597785
Cu17	Cu	1.057373	0.156863	-0.097800
Cu18	Cu	1.557373	0.656863	0.402200
O19	O	1.051043	0.322061	0.082677
O20	O	1.551043	0.822061	0.582677
C21	C	0.893872	0.164906	-0.000008
C22	C	1.393872	0.664906	0.499992
C23	C	0.794566	0.162523	-0.000008
C24	C	1.294566	0.662523	0.499992
C25	C	0.356660	0.255683	-0.000022
C26	C	0.856660	0.755683	0.499978
C27	C	0.449970	0.257913	-0.000027
C28	C	0.949970	0.757913	0.499973
C29	C	0.506776	0.155649	-0.000018
C30	C	1.006776	0.655649	0.499982
C31	C	0.470269	0.051149	-0.000015
C32	C	0.970269	0.551149	0.499985
C33	C	0.376962	0.048920	-0.000017
C34	C	0.876962	0.548920	0.499983
C35	C	0.664751	0.055802	-0.000007
C36	C	1.164751	0.555802	0.499993
C37	C	0.758065	0.058031	-0.000002
C38	C	1.258065	0.558031	0.499998
C39	C	0.737759	0.264794	-0.000016
C40	C	1.237759	0.764794	0.499984
C41	C	0.644451	0.262566	-0.000018
C42	C	1.144451	0.762566	0.499982
C43	C	0.607951	0.158065	-0.000013
C44	C	1.107951	0.658065	0.499987
C45	C	1.062879	-0.050639	-0.000001
C46	C	1.562879	0.449361	0.499999
C47	C	1.060499	-0.176637	-0.000002
C48	C	1.560499	0.323363	0.499998
C49	C	1.058565	-0.278961	-0.000005
C50	C	1.558565	0.221039	0.499995
C51	C	1.056147	-0.407332	-0.000015
C52	C	1.556147	0.092668	0.499985
C53	C	1.220854	0.148808	-0.000010
C54	C	1.720854	0.648808	0.499990
C55	C	1.320159	0.151191	-0.000016
C56	C	1.820159	0.651191	0.499984
C57	C	1.051846	0.364352	-0.000017
C58	C	1.551846	0.864352	0.499983
C59	C	1.054227	0.490350	-0.000022
C60	C	1.554227	0.990350	0.499978
N61	N	1.057345	0.156841	0.235349
N62	N	1.557345	0.656841	0.735349
N63	N	1.057388	0.156864	-0.235365
N64	N	1.557388	0.656864	0.264635
C65	C	1.117795	0.079801	0.287393
C66	C	1.617795	0.579801	0.787393
C67	C	1.117800	0.079800	0.391496
C68	C	1.617800	0.579800	0.891496
C69	C	1.057359	0.156845	0.443554
C70	C	1.557359	0.656845	0.943554
C71	C	0.996903	0.233888	0.391503
C72	C	1.496903	0.733888	0.891503
C73	C	0.996894	0.233883	0.287402
C74	C	1.496894	0.733883	0.787402
C75	C	0.996928	0.233896	0.608483
C76	C	1.496928	0.733896	1.108483
C77	C	0.996938	0.233903	0.712592
C78	C	1.496938	0.733903	1.212592
C79	C	1.117834	0.079813	0.712578
C80	C	1.617834	0.579813	1.212578
C81	C	1.117825	0.079808	0.608476
C82	C	1.617825	0.579808	1.108476
C83	C	1.057370	0.156853	0.556433
C84	C	1.557370	0.656853	1.056433
H85	H	0.804315	-0.025241	-0.000003
H86	H	1.304315	0.474759	0.499997
H87	H	0.479684	0.343000	-0.000041
H88	H	0.979684	0.843000	0.499959
H89	H	0.310414	0.338958	-0.000022
H90	H	0.810414	0.838958	0.499978
F91	F	0.625907	-0.055420	0.000003
F92	F	1.125907	0.444580	0.500003
H93	H	0.516529	-0.032115	-0.000013
H94	H	1.016529	0.467885	0.499987
H95	H	0.947668	0.296614	0.245029
H96	H	1.447668	0.796614	0.745029
H97	H	0.598201	0.345838	-0.000019
H98	H	1.098201	0.845838	0.499981
H99	H	0.767482	0.349883	-0.000019
H100	H	1.267482	0.849883	0.499981
F101	F	0.338115	-0.062294	-0.000011
F102	F	0.838115	0.437706	0.499989
H103	H	1.167016	0.017067	0.245014
H104	H	1.667016	0.517067	0.745014
H105	H	1.167022	0.017068	0.433870
H106	H	1.667022	0.517068	0.933870
H107	H	1.167045	0.017078	0.566091
H108	H	1.667045	0.517078	1.066091
H109	H	1.167059	0.017081	0.754958
H110	H	1.667059	0.517081	1.254958
F111	F	0.932607	0.315903	0.767988
F112	F	1.432607	0.815903	1.267988
H113	H	0.947696	0.296630	0.566113
H114	H	1.447696	0.796630	1.066113
F115	F	0.932572	0.315881	0.446908
F116	F	1.432572	0.815881	0.946908
