data_functionalizedCrystal
_audit_creation_method	'MofGen! by Chris Wilmer'
_symmetry_space_group_name_H-M	'P1'
_symmetry_Int_Tables_number	1
_symmetry_cell_setting	triclinic
loop_
_symmetry_equiv_pos_as_xyz
  x,y,z
_cell_length_a	10.723023
_cell_length_b	10.654550
_cell_length_c	9.130313
_cell_angle_alpha	89.995631
_cell_angle_beta	90.003377
_cell_angle_gamma	95.523761
loop_
_atom_site_label
_atom_site_type_symbol
_atom_site_fract_x
_atom_site_fract_y
_atom_site_fract_z
O1	O	1.657214	-0.176145	0.121795
O2	O	1.294064	-0.193006	0.121799
O3	O	1.483988	-0.001835	0.121788
O4	O	1.467289	-0.367316	0.121806
O5	O	1.483975	-0.001829	-0.121811
O6	O	1.294050	-0.193001	-0.121800
O7	O	1.657200	-0.176139	-0.121804
Cu8	Cu	1.475624	-0.184569	-0.144045
Cu9	Cu	1.475640	-0.184576	0.144039
O10	O	1.467276	-0.367310	-0.121793
C11	C	1.247557	-0.191777	-0.000000
C12	C	1.109002	-0.188106	0.000001
C13	C	0.904027	-0.182673	-0.126185
C14	C	1.047230	-0.186467	-0.126189
C15	C	1.482755	0.044966	-0.000011
C16	C	1.479087	0.184408	-0.000009
C17	C	1.703707	-0.177369	-0.000002
C18	C	1.842262	-0.181039	0.000007
C19	C	1.468509	-0.414111	0.000009
C20	C	1.472177	-0.553554	0.000016
N21	N	1.475622	-0.184564	-0.346667
C22	C	1.590911	0.263911	-0.000009
C23	C	1.587457	0.394931	0.000008
C24	C	1.360344	0.366933	0.000021
C25	C	1.363800	0.235916	0.000014
C26	C	1.559750	-0.099949	-0.423324
C27	C	1.559762	-0.099949	-0.576661
C28	C	1.391515	-0.269190	-0.576671
C29	C	1.391498	-0.269183	-0.423336
N30	N	1.475651	-0.184572	0.346662
H31	H	1.100348	-0.187866	-0.234227
O32	O	1.695999	0.472289	-0.000189
C33	C	1.700800	0.548911	-0.126359
H34	H	1.601687	0.556391	-0.168413
H35	H	1.746433	0.646963	-0.097975
H36	H	1.758162	0.505339	-0.214712
O37	O	1.248467	0.417179	-0.000035
C38	C	1.269392	0.549867	0.000003
H39	H	1.366508	0.579796	-0.046117
H40	H	1.195553	0.590725	-0.070718
H41	H	1.263035	0.586375	0.116870
O42	O	1.255250	0.158548	-0.000180
C43	C	1.250430	0.081954	-0.126360
H44	H	1.349536	0.074491	-0.168432
H45	H	1.204811	-0.016107	-0.097982
H46	H	1.193047	0.125540	-0.214698
H47	H	0.895399	-0.182457	0.108041
H48	H	1.684786	0.221979	-0.000025
H49	H	1.628264	-0.031047	-0.639071
H50	H	1.628247	-0.031045	-0.360903
O51	O	1.309756	-0.351218	-0.651315
C52	C	1.232188	-0.283250	-0.740015
H53	H	1.281047	-0.185431	-0.762988
H54	H	1.212914	-0.335494	-0.847837
H55	H	1.139880	-0.273865	-0.680949
H56	H	0.850887	-0.181270	-0.234220
O57	O	1.045737	-0.186212	0.128941
C58	C	1.090680	-0.078493	0.209787
H59	H	1.135767	-0.003547	0.132143
H60	H	1.009433	-0.039780	0.269895
H61	H	1.163180	-0.105047	0.292696
H62	H	1.322986	-0.338087	-0.360918
