data_functionalizedCrystal
_audit_creation_method	'MofGen! by Chris Wilmer'
_symmetry_space_group_name_H-M	'P1'
_symmetry_Int_Tables_number	1
_symmetry_cell_setting	triclinic
loop_
_symmetry_equiv_pos_as_xyz
  x,y,z
_cell_length_a	12.759401
_cell_length_b	13.032721
_cell_length_c	12.759393
_cell_angle_alpha	97.148766
_cell_angle_beta	89.982824
_cell_angle_gamma	97.204304
loop_
_atom_site_label
_atom_site_type_symbol
_atom_site_fract_x
_atom_site_fract_y
_atom_site_fract_z
Zn1	Zn	1.553081	-0.415980	-0.647065
Zn2	Zn	1.530644	-0.590760	-0.493689
Zn3	Zn	1.377381	-0.416032	-0.471411
Zn4	Zn	1.355046	-0.590682	-0.669321
O5	O	1.454038	-0.503364	-0.570372
O6	O	1.697125	-0.439176	-0.626729
O7	O	1.510270	-0.567636	-0.343720
O8	O	1.419425	-0.269788	-0.476075
O9	O	1.680640	-0.567586	-0.514044
O10	O	1.548512	-0.269750	-0.605127
O11	O	1.397668	-0.439264	-0.327352
O12	O	1.227398	-0.439189	-0.497655
O13	O	1.381359	-0.567453	-0.813383
O14	O	1.210989	-0.567504	-0.643058
O15	O	1.526855	-0.439101	-0.797032
O16	O	1.488613	-0.736987	-0.535625
O17	O	1.359602	-0.736930	-0.664660
C18	C	1.181073	-0.503344	-0.570355
C19	C	1.064294	-0.503361	-0.570376
C20	C	1.000902	-0.570282	-0.645990
C21	C	0.891176	-0.570295	-0.646003
C22	C	0.908245	-0.436464	-0.494779
C23	C	1.017970	-0.436447	-0.494771
C24	C	0.991046	-0.647551	-0.733295
C25	C	0.881320	-0.647564	-0.733308
C26	C	1.419278	-0.774876	-0.604998
C27	C	1.404503	-0.891030	-0.619846
C28	C	1.461805	-0.942809	-0.562669
C29	C	1.446536	-1.062860	-0.578014
C30	C	1.728069	-0.503384	-0.570389
C31	C	1.844844	-0.503392	-0.570397
C32	C	1.454118	-0.503262	-0.844392
C33	C	1.454152	-0.503219	-0.961163
C34	C	1.488963	-0.230791	-0.535633
C35	C	1.503846	-0.114637	-0.520830
C36	C	1.378419	-0.570021	-1.024537
C37	C	1.378463	-0.569983	-1.134256
C38	C	1.529976	-0.436333	-1.117217
C39	C	1.529937	-0.436377	-1.007501
C40	C	1.290941	-0.647180	-1.034375
C41	C	1.290984	-0.647142	-1.144094
C42	C	1.454028	-0.503389	-0.297407
C43	C	1.454235	-0.503138	-0.180599
H44	H	0.851012	-0.618676	-0.806974
H45	H	1.386174	-1.107404	-0.638334
H46	H	1.591677	-0.381912	-1.154959
Br47	Br	1.632737	-0.345732	-0.921498
H48	H	1.302363	-0.728127	-1.014918
Br49	Br	1.604470	-1.040406	-0.420305
H50	H	1.344145	-0.935578	-0.680162
H51	H	1.522171	-0.898264	-0.502361
H52	H	0.841184	-0.728480	-0.721702
Br53	Br	1.168295	-0.598863	-0.971483
H54	H	1.069581	-0.381947	-0.433205
Br55	Br	0.845370	-0.345653	-0.392180
Br56	Br	1.045332	-0.611584	-0.864385
H57	H	1.015241	-0.724391	-0.713816
H58	H	1.310286	-0.724018	-1.187923
H59	H	1.212405	-0.625441	-1.171108
