data_functionalizedCrystal
_audit_creation_method	'MofGen! by Chris Wilmer'
_symmetry_space_group_name_H-M	'P1'
_symmetry_Int_Tables_number	1
_symmetry_cell_setting	triclinic
loop_
_symmetry_equiv_pos_as_xyz
  x,y,z
_cell_length_a	23.532407
_cell_length_b	14.519709
_cell_length_c	13.596369
_cell_angle_alpha	90.006934
_cell_angle_beta	89.999993
_cell_angle_gamma	83.264411
loop_
_atom_site_label
_atom_site_type_symbol
_atom_site_fract_x
_atom_site_fract_y
_atom_site_fract_z
O1	O	-0.755765	-0.111951	-0.081671
O2	O	-0.255765	0.388049	0.418329
O3	O	-0.589975	-0.128149	-0.081700
O4	O	-0.089975	0.371851	0.418300
O5	O	-0.677266	0.014241	-0.081676
O6	O	-0.177266	0.514241	0.418324
O7	O	-0.668474	-0.254340	-0.081695
O8	O	-0.168474	0.245660	0.418305
O9	O	-0.677257	0.014248	0.081907
O10	O	-0.177257	0.514248	0.581907
O11	O	-0.589966	-0.128142	0.081883
O12	O	-0.089966	0.371858	0.581883
O13	O	-0.755756	-0.111943	0.081912
O14	O	-0.255756	0.388057	0.581912
Zn15	Zn	-0.672860	-0.120041	0.107870
Zn16	Zn	-0.172860	0.379959	0.607870
Zn17	Zn	-0.672871	-0.120051	-0.107658
Zn18	Zn	-0.172871	0.379949	0.392342
O19	O	-0.668466	-0.254333	0.081888
O20	O	-0.168466	0.245667	0.581888
C21	C	-0.568753	-0.127733	0.000088
C22	C	-0.068753	0.372267	0.500088
C23	C	-0.505530	-0.126493	0.000077
C24	C	-0.005530	0.373507	0.500077
C25	C	-0.676852	0.048599	0.000116
C26	C	-0.176852	0.548599	0.500116
C27	C	-0.675624	0.150966	0.000116
C28	C	-0.175624	0.650966	0.500116
C29	C	-0.776979	-0.112360	0.000122
C30	C	-0.276979	0.387640	0.500122
C31	C	-0.840201	-0.113600	0.000127
C32	C	-0.340201	0.386400	0.500127
C33	C	-0.106772	-0.202977	0.000116
C34	C	0.393228	0.297023	0.500116
C35	C	-0.047367	-0.201825	0.000122
C36	C	0.452633	0.298175	0.500122
O37	O	-0.010942	-0.272727	0.000153
O38	O	0.489058	0.227273	0.500153
N39	N	-0.024358	-0.117175	0.000127
N40	N	0.475642	0.382825	0.500127
C41	C	-0.060759	-0.033671	0.000135
C42	C	0.439241	0.466329	0.500135
O43	O	-0.035734	0.038437	0.000140
O44	O	0.464266	0.538437	0.500140
C45	C	-0.120164	-0.034824	0.000136
C46	C	0.379836	0.465176	0.500136
C47	C	-0.143168	-0.119480	0.000121
C48	C	0.356832	0.380520	0.500121
C49	C	-0.129777	-0.287626	0.000103
C50	C	0.370223	0.212374	0.500103
C51	C	-0.189179	-0.288778	0.000095
C52	C	0.310821	0.211222	0.500095
C53	C	-0.225575	-0.205281	0.000100
C54	C	0.274425	0.294719	0.500100
C55	C	-0.202570	-0.120631	0.000114
C56	C	0.297430	0.379369	0.500114
C57	C	-0.156563	0.048679	0.000151
C58	C	0.343437	0.548679	0.500151
C59	C	-0.215971	0.047519	0.000153
C60	C	0.284029	0.547519	0.500153
C61	C	-0.238976	-0.037137	0.000139
C62	C	0.261024	0.462863	0.500139
C63	C	-0.298367	-0.038286	0.000111
C64	C	0.201633	0.461714	0.500111
N65	N	-0.321375	-0.122936	0.000107
N66	N	0.178625	0.377064	0.500107
C67	C	-0.284979	-0.206434	0.000101
C68	C	0.215021	0.293566	0.500101
C69	C	0.063994	-0.031256	0.000135
C70	C	0.563994	0.468744	0.500135
C71	C	0.123397	-0.030102	0.000127
C72	C	0.623397	0.469898	0.500127
C73	C	0.136786	-0.198257	0.000116
C74	C	0.636786	0.301743	0.500116
C75	C	0.077382	-0.199410	0.000117
C76	C	0.577382	0.300590	0.500117
C77	C	0.040986	-0.115906	0.000130
C78	C	0.540986	0.384094	0.500130
C79	C	-0.409727	-0.208846	0.000084
C80	C	0.090273	0.291154	0.500084
C81	C	-0.469134	-0.209990	0.000072
C82	C	0.030866	0.290010	0.500072
C83	C	-0.482517	-0.041836	0.000088
C84	C	0.017483	0.458164	0.500088
C85	C	-0.423115	-0.040691	0.000095
C86	C	0.076885	0.459309	0.500095
C87	C	-0.386721	-0.124204	0.000096
C88	C	0.113279	0.375796	0.500096
O89	O	-0.334827	0.032579	0.000084
O90	O	0.165173	0.532579	0.500084
O91	O	-0.310012	-0.278529	0.000109
O92	O	0.189988	0.221471	0.500109
C93	C	-0.668880	-0.288692	0.000094
C94	C	-0.168880	0.211308	0.500094
C95	C	-0.670107	-0.391058	0.000087
C96	C	-0.170107	0.108942	0.500087
N97	N	-0.672856	-0.120034	0.254962
N98	N	-0.172856	0.379966	0.754962
C99	C	-0.671104	0.525808	0.000090
C100	C	-0.171104	1.025808	0.500090
C101	C	-0.672359	0.421515	0.000097
C102	C	-0.172359	0.921515	0.500097
C103	C	-0.673364	0.338390	0.000104
C104	C	-0.173364	0.838390	0.500104
C105	C	-0.674619	0.234091	0.000110
C106	C	-0.174619	0.734091	0.500110
N107	N	-0.672880	-0.120051	-0.254750
N108	N	-0.172880	0.379949	0.245250
C109	C	-0.672871	-0.120052	0.656253
C110	C	-0.172871	0.379948	1.156253
C111	C	-0.672865	-0.120050	0.544601
C112	C	-0.172865	0.379950	1.044601
C113	C	-0.672864	-0.120044	0.455611
C114	C	-0.172864	0.379956	0.955611
C115	C	-0.672858	-0.120040	0.343952
C116	C	-0.172858	0.379960	0.843952
H117	H	-0.487861	-0.278930	0.000059
H118	H	0.012139	0.221070	0.500059
F119	F	0.175532	-0.287123	0.000114
F120	F	0.675532	0.212877	0.500114
F121	F	-0.091050	-0.376504	0.000097
F122	F	0.408950	0.123496	0.500097
H123	H	-0.512162	0.026146	0.000088
H124	H	-0.012162	0.526146	0.500088
H125	H	-0.380101	-0.276850	0.000088
H126	H	0.119899	0.223150	0.500088
H127	H	0.034363	0.036747	0.000137
H128	H	0.534363	0.536747	0.500137
F129	F	0.147874	0.060001	0.000120
F130	F	0.647874	0.560001	0.500120
F131	F	0.052904	-0.289511	0.000103
F132	F	0.552904	0.210489	0.500103
F133	F	-0.213654	-0.378881	0.000084
F134	F	0.286346	0.121119	0.500084
F135	F	-0.132093	0.138783	0.000153
F136	F	0.367907	0.638783	0.500153
H137	H	-0.245602	0.115519	0.000165
H138	H	0.254398	0.615519	0.500165
F139	F	-0.398631	0.049409	0.000110
F140	F	0.101369	0.549409	0.500110
