data_functionalizedCrystal
_audit_creation_method	'MofGen! by Chris Wilmer'
_symmetry_space_group_name_H-M	'P1'
_symmetry_Int_Tables_number	1
_symmetry_cell_setting	triclinic
loop_
_symmetry_equiv_pos_as_xyz
  x,y,z
_cell_length_a	29.839134
_cell_length_b	29.839131
_cell_length_c	29.839126
_cell_angle_alpha	89.970347
_cell_angle_beta	89.964260
_cell_angle_gamma	90.030088
loop_
_atom_site_label
_atom_site_type_symbol
_atom_site_fract_x
_atom_site_fract_y
_atom_site_fract_z
Zn1	Zn	0.686800	-0.178959	-0.254101
Zn2	Zn	0.936800	0.071041	-0.004101
Zn3	Zn	1.186800	0.321041	0.245899
Zn4	Zn	1.436800	0.571041	0.495899
Zn5	Zn	0.686722	-0.254076	-0.178961
Zn6	Zn	0.936722	-0.004076	0.071039
Zn7	Zn	1.186722	0.245924	0.321039
Zn8	Zn	1.436722	0.495924	0.571039
Zn9	Zn	0.611665	-0.178955	-0.178971
Zn10	Zn	0.861665	0.071045	0.071029
Zn11	Zn	1.111665	0.321045	0.321029
Zn12	Zn	1.361665	0.571045	0.571029
Zn13	Zn	0.611639	-0.254056	-0.254049
Zn14	Zn	0.861639	-0.004056	-0.004049
Zn15	Zn	1.111639	0.245944	0.245951
Zn16	Zn	1.361639	0.495944	0.495951
O17	O	0.649206	-0.216511	-0.216521
O18	O	0.899206	0.033489	0.033479
O19	O	1.149206	0.283489	0.283479
O20	O	1.399206	0.533489	0.533479
O21	O	0.749657	-0.188934	-0.244151
O22	O	0.999657	0.061066	0.005849
O23	O	1.249657	0.311066	0.255849
O24	O	1.499657	0.561066	0.505849
O25	O	0.676744	-0.244118	-0.116095
O26	O	0.926744	0.005882	0.133905
O27	O	1.176744	0.255882	0.383905
O28	O	1.426744	0.505882	0.633905
O29	O	0.621675	-0.116088	-0.188963
O30	O	0.871675	0.133912	0.061037
O31	O	1.121675	0.383912	0.311037
O32	O	1.371675	0.633912	0.561037
O33	O	0.749600	-0.244122	-0.188946
O34	O	0.999600	0.005878	0.061054
O35	O	1.249600	0.255878	0.311054
O36	O	1.499600	0.505878	0.561054
O37	O	0.676877	-0.116091	-0.244161
O38	O	0.926877	0.133909	0.005839
O39	O	1.176877	0.383909	0.255839
O40	O	1.426877	0.633909	0.505839
O41	O	0.621600	-0.188927	-0.116102
O42	O	0.871600	0.061073	0.133898
O43	O	1.121600	0.311073	0.383898
O44	O	1.371600	0.561073	0.633898
O45	O	0.548794	-0.188906	-0.188912
O46	O	0.798794	0.061094	0.061088
O47	O	1.048794	0.311094	0.311088
O48	O	1.298794	0.561094	0.561088
O49	O	0.621631	-0.244087	-0.316923
O50	O	0.871631	0.005913	-0.066923
O51	O	1.121631	0.255913	0.183077
O52	O	1.371631	0.505913	0.433077
O53	O	0.548775	-0.244083	-0.244073
O54	O	0.798775	0.005917	0.005927
O55	O	1.048775	0.255917	0.255927
O56	O	1.298775	0.505917	0.505927
O57	O	0.676851	-0.188914	-0.316961
O58	O	0.926851	0.061086	-0.066961
O59	O	1.176851	0.311086	0.183039
O60	O	1.426851	0.561086	0.433039
O61	O	0.676719	-0.316941	-0.188896
O62	O	0.926719	-0.066941	0.061104
O63	O	1.176719	0.183059	0.311104
O64	O	1.426719	0.433059	0.561104
O65	O	0.621555	-0.316926	-0.244063
O66	O	0.871555	-0.066926	0.005937
O67	O	1.121555	0.183074	0.255937
O68	O	1.371555	0.433074	0.505937
C69	C	0.532484	-0.216492	-0.216488
C70	C	0.782484	0.033508	0.033512
C71	C	1.032484	0.283508	0.283512
C72	C	1.282484	0.533508	0.533512
C73	C	0.482549	-0.216495	-0.216485
C74	C	0.732549	0.033505	0.033515
C75	C	0.982549	0.283505	0.283515
C76	C	1.232549	0.533505	0.533515
C77	C	0.649138	-0.333234	-0.216483
C78	C	0.899138	-0.083234	0.033517
C79	C	1.149138	0.166766	0.283517
C80	C	1.399138	0.416766	0.533517
C81	C	0.649150	-0.383168	-0.216482
C82	C	0.899150	-0.133168	0.033518
C83	C	1.149150	0.116832	0.283518
C84	C	1.399150	0.366832	0.533518
C85	C	0.172905	-0.245284	-0.245207
C86	C	0.422905	0.004716	0.004793
C87	C	0.672905	0.254716	0.254793
C88	C	0.922905	0.504716	0.504793
C89	C	-0.014768	-0.245297	-0.245227
C90	C	0.235232	0.004703	0.004773
C91	C	0.485232	0.254703	0.254773
C92	C	0.735232	0.504703	0.504773
O93	O	-0.039033	-0.269754	-0.269629
O94	O	0.210967	-0.019754	-0.019629
O95	O	0.460967	0.230246	0.230371
O96	O	0.710967	0.480246	0.480371
N97	N	-0.038236	-0.216528	-0.216554
N98	N	0.211764	0.033472	0.033446
N99	N	0.461764	0.283472	0.283446
N100	N	0.711764	0.533472	0.533446
C101	C	-0.014783	-0.187752	-0.187877
C102	C	0.235217	0.062248	0.062123
C103	C	0.485217	0.312248	0.312123
C104	C	0.735217	0.562248	0.562123
O105	O	-0.039050	-0.163279	-0.163492
O106	O	0.210950	0.086721	0.086508
O107	O	0.460950	0.336721	0.336508
O108	O	0.710950	0.586721	0.586508
C109	C	0.172890	-0.187737	-0.187859
C110	C	0.422890	0.062263	0.062141
C111	C	0.672890	0.312263	0.312141
C112	C	0.922890	0.562263	0.562141
C113	C	0.196355	-0.216511	-0.216531
C114	C	0.446355	0.033489	0.033469
C115	C	0.696355	0.283489	0.283469
C116	C	0.946355	0.533489	0.533469
C117	C	0.196371	-0.274056	-0.273877
C118	C	0.446371	-0.024056	-0.023877
C119	C	0.696371	0.225944	0.226123
C120	C	0.946371	0.475944	0.476123
C121	C	0.243287	-0.274054	-0.273870
C122	C	0.493287	-0.024054	-0.023870
C123	C	0.743287	0.225946	0.226130
C124	C	0.993287	0.475946	0.476130
C125	C	0.266736	-0.245281	-0.245193
C126	C	0.516736	0.004719	0.004807
C127	C	0.766736	0.254719	0.254807
C128	C	1.016736	0.504719	0.504807
C129	C	0.243271	-0.216509	-0.216524
C130	C	0.493271	0.033491	0.033476
C131	C	0.743271	0.283491	0.283476
C132	C	0.993271	0.533491	0.533476
C133	C	0.196342	-0.158959	-0.159184
C134	C	0.446342	0.091041	0.090816
C135	C	0.696342	0.341041	0.340816
C136	C	0.946342	0.591041	0.590816
C137	C	0.243263	-0.158957	-0.159183
C138	C	0.493263	0.091043	0.090817
C139	C	0.743263	0.341043	0.340817
C140	C	0.993263	0.591043	0.590817
C141	C	0.266728	-0.187731	-0.187855
C142	C	0.516728	0.062269	0.062145
C143	C	0.766728	0.312269	0.312145
C144	C	1.016728	0.562269	0.562145
C145	C	0.313636	-0.187734	-0.187840
C146	C	0.563636	0.062266	0.062160
C147	C	0.813636	0.312266	0.312160
C148	C	1.063636	0.562266	0.562160
N149	N	0.337104	-0.216504	-0.216513
N150	N	0.587104	0.033496	0.033487
N151	N	0.837104	0.283496	0.283487
N152	N	1.087104	0.533496	0.533487
C153	C	0.313654	-0.245277	-0.245189
C154	C	0.563654	0.004723	0.004811
C155	C	0.813654	0.254723	0.254811
C156	C	1.063654	0.504723	0.504811
C157	C	-0.113313	-0.187762	-0.187887
C158	C	0.136687	0.062238	0.062113
C159	C	0.386687	0.312238	0.312113
C160	C	0.636687	0.562238	0.562113
C161	C	-0.160231	-0.187766	-0.187891
C162	C	0.089769	0.062234	0.062109
C163	C	0.339769	0.312234	0.312109
C164	C	0.589769	0.562234	0.562109
C165	C	-0.160213	-0.245311	-0.245242
C166	C	0.089787	0.004689	0.004758
C167	C	0.339787	0.254689	0.254758
C168	C	0.589787	0.504689	0.504758
C169	C	-0.113294	-0.245309	-0.245236
C170	C	0.136706	0.004691	0.004764
C171	C	0.386706	0.254691	0.254764
C172	C	0.636706	0.504691	0.504764
C173	C	-0.089845	-0.216531	-0.216560
C174	C	0.160155	0.033469	0.033440
C175	C	0.410155	0.283469	0.283440
C176	C	0.660155	0.533469	0.533440
C177	C	0.412180	-0.245271	-0.245172
C178	C	0.662180	0.004729	0.004828
C179	C	0.912180	0.254729	0.254828
C180	C	1.162180	0.504729	0.504828
C181	C	0.459100	-0.245268	-0.245161
C182	C	0.709100	0.004732	0.004839
C183	C	0.959100	0.254732	0.254839
C184	C	1.209100	0.504732	0.504839
C185	C	0.459077	-0.187722	-0.187812
C186	C	0.709077	0.062278	0.062188
C187	C	0.959077	0.312278	0.312188
C188	C	1.209077	0.562278	0.562188
C189	C	0.412162	-0.187726	-0.187821
C190	C	0.662162	0.062274	0.062179
C191	C	0.912162	0.312274	0.312179
C192	C	1.162162	0.562274	0.562179
C193	C	0.388714	-0.216502	-0.216505
C194	C	0.638714	0.033498	0.033495
C195	C	0.888714	0.283498	0.283495
C196	C	1.138714	0.533498	0.533495
O197	O	0.337930	-0.163287	-0.163455
O198	O	0.587930	0.086713	0.086545
O199	O	0.837930	0.336713	0.336545
O200	O	1.087930	0.586713	0.586545
O201	O	0.337930	-0.269739	-0.269577
O202	O	0.587930	-0.019739	-0.019577
O203	O	0.837930	0.230261	0.230423
O204	O	1.087930	0.480261	0.480423
C205	C	0.125990	-0.245286	-0.245214
C206	C	0.375990	0.004714	0.004786
C207	C	0.625990	0.254714	0.254786
C208	C	0.875990	0.504714	0.504786
C209	C	0.102524	-0.216515	-0.216545
C210	C	0.352524	0.033485	0.033455
C211	C	0.602524	0.283485	0.283455
C212	C	0.852524	0.533485	0.533455
C213	C	0.125974	-0.187741	-0.187868
C214	C	0.375974	0.062259	0.062132
C215	C	0.625974	0.312259	0.312132
C216	C	0.875974	0.562259	0.562132
C217	C	0.055606	-0.216519	-0.216548
C218	C	0.305606	0.033481	0.033452
C219	C	0.555606	0.283481	0.283452
C220	C	0.805606	0.533481	0.533452
C221	C	0.032157	-0.245292	-0.245225
C222	C	0.282157	0.004708	0.004775
C223	C	0.532157	0.254708	0.254775
C224	C	0.782157	0.504708	0.504775
C225	C	0.055625	-0.274061	-0.273898
C226	C	0.305625	-0.024061	-0.023898
C227	C	0.555625	0.225939	0.226102
C228	C	0.805625	0.475939	0.476102
C229	C	0.102540	-0.274059	-0.273891
C230	C	0.352540	-0.024059	-0.023891
C231	C	0.602540	0.225941	0.226109
C232	C	0.852540	0.475941	0.476109
C233	C	0.102506	-0.158972	-0.159196
C234	C	0.352506	0.091028	0.090804
C235	C	0.602506	0.341028	0.340804
C236	C	0.852506	0.591028	0.590804
C237	C	0.055590	-0.158977	-0.159205
C238	C	0.305590	0.091023	0.090795
C239	C	0.555590	0.341023	0.340795
C240	C	0.805590	0.591023	0.590795
C241	C	0.032141	-0.187750	-0.187881
C242	C	0.282141	0.062250	0.062119
C243	C	0.532141	0.312250	0.312119
C244	C	0.782141	0.562250	0.562119
C245	C	0.677944	-0.692779	-0.245303
C246	C	0.927944	-0.442779	0.004697
C247	C	1.177944	-0.192779	0.254697
C248	C	1.427944	0.057221	0.504697
C249	C	0.677992	-0.880452	-0.245330
C250	C	0.927992	-0.630452	0.004670
C251	C	1.177992	-0.380452	0.254670
C252	C	1.427992	-0.130452	0.504670
O253	O	0.702407	-0.904688	-0.269807
O254	O	0.952407	-0.654688	-0.019807
O255	O	1.202407	-0.404688	0.230193
O256	O	1.452407	-0.154688	0.480193
N257	N	0.649283	-0.903953	-0.216570
N258	N	0.899283	-0.653953	0.033430
N259	N	1.149283	-0.403953	0.283430
N260	N	1.399283	-0.153953	0.533430
C261	C	0.620557	-0.880534	-0.187804
C262	C	0.870557	-0.630534	0.062196
C263	C	1.120557	-0.380534	0.312196
C264	C	1.370557	-0.130534	0.562196
O265	O	0.596135	-0.904830	-0.163346
O266	O	0.846135	-0.654830	0.086654
O267	O	1.096135	-0.404830	0.336654
O268	O	1.346135	-0.154830	0.586654
C269	C	0.620506	-0.692862	-0.187780
C270	C	0.870506	-0.442862	0.062220
C271	C	1.120506	-0.192862	0.312220
C272	C	1.370506	0.057138	0.562220
C273	C	0.649221	-0.669363	-0.216538
C274	C	0.899221	-0.419363	0.033462
C275	C	1.149221	-0.169363	0.283462
C276	C	1.399221	0.080637	0.533462
C277	C	0.706656	-0.669279	-0.274060
C278	C	0.956656	-0.419279	-0.024060
C279	C	1.206656	-0.169279	0.225940
C280	C	1.456656	0.080721	0.475940
C281	C	0.706645	-0.622364	-0.274051
C282	C	0.956645	-0.372364	-0.024051
C283	C	1.206645	-0.122364	0.225949
C284	C	1.456645	0.127636	0.475949
C285	C	0.677922	-0.598948	-0.245286
C286	C	0.927922	-0.348948	0.004714
C287	C	1.177922	-0.098948	0.254714
C288	C	1.427922	0.151052	0.504714
C289	C	0.649210	-0.622447	-0.216529
C290	C	0.899210	-0.372447	0.033471
C291	C	1.149210	-0.122447	0.283471
C292	C	1.399210	0.127553	0.533471
C293	C	0.591778	-0.669444	-0.159016
C294	C	0.841778	-0.419444	0.090984
C295	C	1.091778	-0.169444	0.340984
C296	C	1.341778	0.080556	0.590984
C297	C	0.591767	-0.622523	-0.159013
C298	C	0.841767	-0.372523	0.090987
C299	C	1.091767	-0.122523	0.340987
C300	C	1.341767	0.127477	0.590987
C301	C	0.620482	-0.599023	-0.187771
C302	C	0.870482	-0.349023	0.062229
C303	C	1.120482	-0.099023	0.312229
C304	C	1.370482	0.150977	0.562229
C305	C	0.620476	-0.552116	-0.187755
C306	C	0.870476	-0.302116	0.062245
C307	C	1.120476	-0.052116	0.312245
C308	C	1.370476	0.197884	0.562245
N309	N	0.649186	-0.528614	-0.216515
N310	N	0.899186	-0.278614	0.033485
N311	N	1.149186	-0.028614	0.283485
N312	N	1.399186	0.221386	0.533485
C313	C	0.677909	-0.552030	-0.245280
C314	C	0.927909	-0.302030	0.004720
C315	C	1.177909	-0.052030	0.254720
C316	C	1.427909	0.197970	0.504720
C317	C	0.620586	-0.979065	-0.187818
C318	C	0.870586	-0.729065	0.062182
C319	C	1.120586	-0.479065	0.312182
C320	C	1.370586	-0.229065	0.562182
C321	C	0.620599	-1.025983	-0.187824
C322	C	0.870599	-0.775983	0.062176
C323	C	1.120599	-0.525983	0.312176
C324	C	1.370599	-0.275983	0.562176
C325	C	0.678034	-1.025897	-0.245351
C326	C	0.928034	-0.775897	0.004649
C327	C	1.178034	-0.525897	0.254649
C328	C	1.428034	-0.275897	0.504649
C329	C	0.678023	-0.978978	-0.245342
C330	C	0.928023	-0.728978	0.004658
C331	C	1.178023	-0.478978	0.254658
C332	C	1.428023	-0.228978	0.504658
C333	C	0.649296	-0.955563	-0.216578
C334	C	0.899296	-0.705563	0.033422
C335	C	1.149296	-0.455563	0.283422
C336	C	1.399296	-0.205563	0.533422
C337	C	0.677884	-0.453504	-0.245259
C338	C	0.927884	-0.203504	0.004741
C339	C	1.177884	0.046496	0.254741
C340	C	1.427884	0.296496	0.504741
C341	C	0.677872	-0.406584	-0.245247
C342	C	0.927872	-0.156584	0.004753
C343	C	1.177872	0.093416	0.254753
C344	C	1.427872	0.343416	0.504753
C345	C	0.620436	-0.406674	-0.187722
C346	C	0.870436	-0.156674	0.062278
C347	C	1.120436	0.093326	0.312278
C348	C	1.370436	0.343326	0.562278
C349	C	0.620449	-0.453590	-0.187732
C350	C	0.870449	-0.203590	0.062268
C351	C	1.120449	0.046410	0.312268
C352	C	1.370449	0.296410	0.562268
C353	C	0.649175	-0.477004	-0.216505
C354	C	0.899175	-0.227004	0.033495
C355	C	1.149175	0.022996	0.283495
C356	C	1.399175	0.272996	0.533495
O357	O	0.596071	-0.527850	-0.163295
O358	O	0.846071	-0.277850	0.086705
O359	O	1.096071	-0.027850	0.336705
O360	O	1.346071	0.222150	0.586705
O361	O	0.702320	-0.527726	-0.269742
O362	O	0.952320	-0.277726	-0.019742
O363	O	1.202320	-0.027726	0.230258
O364	O	1.452320	0.222274	0.480258
C365	C	0.677954	-0.739694	-0.245312
C366	C	0.927954	-0.489694	0.004688
C367	C	1.177954	-0.239694	0.254688
C368	C	1.427954	0.010306	0.504688
C369	C	0.649242	-0.763193	-0.216556
C370	C	0.899242	-0.513193	0.033444
C371	C	1.149242	-0.263193	0.283444
C372	C	1.399242	-0.013193	0.533444
C373	C	0.620519	-0.739778	-0.187790
C374	C	0.870519	-0.489778	0.062210
C375	C	1.120519	-0.239778	0.312210
C376	C	1.370519	0.010222	0.562210
C377	C	0.649255	-0.810111	-0.216561
C378	C	0.899255	-0.560111	0.033439
C379	C	1.149255	-0.310111	0.283439
C380	C	1.399255	-0.060111	0.533439
C381	C	0.677978	-0.833527	-0.245326
C382	C	0.927978	-0.583527	0.004674
C383	C	1.177978	-0.333527	0.254674
C384	C	1.427978	-0.083527	0.504674
C385	C	0.706688	-0.810025	-0.274086
C386	C	0.956688	-0.560025	-0.024086
C387	C	1.206688	-0.310025	0.225914
C388	C	1.456688	-0.060025	0.475914
C389	C	0.706677	-0.763110	-0.274077
C390	C	0.956677	-0.513110	-0.024077
C391	C	1.206677	-0.263110	0.225923
C392	C	1.456677	-0.013110	0.475923
C393	C	0.591810	-0.763279	-0.159031
C394	C	0.841810	-0.513279	0.090969
C395	C	1.091810	-0.263279	0.340969
C396	C	1.341810	-0.013279	0.590969
C397	C	0.591823	-0.810195	-0.159041
C398	C	0.841823	-0.560195	0.090959
C399	C	1.091823	-0.310195	0.340959
C400	C	1.341823	-0.060195	0.590959
C401	C	0.620546	-0.833611	-0.187807
C402	C	0.870546	-0.583611	0.062193
C403	C	1.120546	-0.333611	0.312193
C404	C	1.370546	-0.083611	0.562193
C405	C	0.766385	-0.216531	-0.216553
C406	C	1.016385	0.033469	0.033447
C407	C	1.266385	0.283469	0.283447
C408	C	1.516385	0.533469	0.533447
C409	C	0.816319	-0.216539	-0.216567
C410	C	1.066319	0.033461	0.033433
C411	C	1.316319	0.283461	0.283433
C412	C	1.566319	0.533461	0.533433
C413	C	0.649247	-0.216499	-0.333699
C414	C	0.899247	0.033501	-0.083699
C415	C	1.149247	0.283501	0.166301
C416	C	1.399247	0.533501	0.416301
C417	C	0.649264	-0.216493	-0.383633
C418	C	0.899264	0.033507	-0.133633
C419	C	1.149264	0.283507	0.116367
C420	C	1.399264	0.533507	0.366367
C421	C	0.649287	-0.099333	-0.216568
C422	C	0.899287	0.150667	0.033432
C423	C	1.149287	0.400667	0.283432
C424	C	1.399287	0.650667	0.533432
C425	C	0.649322	-0.049399	-0.216589
C426	C	0.899322	0.200601	0.033411
C427	C	1.149322	0.450601	0.283411
C428	C	1.399322	0.700601	0.533411
C429	C	0.677971	-0.245172	-0.740220
C430	C	0.927971	0.004828	-0.490220
C431	C	1.177971	0.254828	-0.240220
C432	C	1.427971	0.504828	0.009780
C433	C	0.677972	-0.245203	-0.552547
C434	C	0.927972	0.004797	-0.302547
C435	C	1.177972	0.254797	-0.052547
C436	C	1.427972	0.504797	0.197453
O437	O	0.702376	-0.269657	-0.528282
O438	O	0.952376	-0.019657	-0.278282
O439	O	1.202376	0.230343	-0.028282
O440	O	1.452376	0.480343	0.221718
N441	N	0.649262	-0.216471	-0.529079
N442	N	0.899262	0.033529	-0.279079
N443	N	1.149262	0.283529	-0.029079
N444	N	1.399262	0.533529	0.220921
C445	C	0.620547	-0.187732	-0.552532
C446	C	0.870547	0.062268	-0.302532
C447	C	1.120547	0.312268	-0.052532
C448	C	1.370547	0.562268	0.197468
O449	O	0.596124	-0.163298	-0.528264
O450	O	0.846124	0.086702	-0.278264
O451	O	1.096124	0.336702	-0.028264
O452	O	1.346124	0.586702	0.221736
C453	C	0.620544	-0.187704	-0.740204
C454	C	0.870544	0.062296	-0.490204
C455	C	1.120544	0.312296	-0.240204
C456	C	1.370544	0.562296	0.009796
C457	C	0.649260	-0.216434	-0.763670
C458	C	0.899260	0.033566	-0.513670
C459	C	1.149260	0.283566	-0.263670
C460	C	1.399260	0.533566	-0.013670
C461	C	0.706684	-0.273900	-0.763686
C462	C	0.956684	-0.023900	-0.513686
C463	C	1.206684	0.226100	-0.263686
C464	C	1.456684	0.476100	-0.013686
C465	C	0.706685	-0.273890	-0.810601
C466	C	0.956685	-0.023890	-0.560601
C467	C	1.206685	0.226110	-0.310601
C468	C	1.456685	0.476110	-0.060601
C469	C	0.677974	-0.245152	-0.834051
C470	C	0.927974	0.004848	-0.584051
C471	C	1.177974	0.254848	-0.334051
C472	C	1.427974	0.504848	-0.084051
C473	C	0.649261	-0.216424	-0.810585
C474	C	0.899261	0.033576	-0.560585
C475	C	1.149261	0.283576	-0.310585
C476	C	1.399261	0.533576	-0.060585
C477	C	0.591828	-0.158967	-0.763656
C478	C	0.841828	0.091033	-0.513656
C479	C	1.091828	0.341033	-0.263656
C480	C	1.341828	0.591033	-0.013656
C481	C	0.591829	-0.158963	-0.810577
C482	C	0.841829	0.091037	-0.560577
C483	C	1.091829	0.341037	-0.310577
C484	C	1.341829	0.591037	-0.060577
C485	C	0.620544	-0.187693	-0.834043
C486	C	0.870544	0.062307	-0.584043
C487	C	1.120544	0.312307	-0.334043
C488	C	1.370544	0.562307	-0.084043
C489	C	0.620551	-0.187676	-0.880950
C490	C	0.870551	0.062324	-0.630950
C491	C	1.120551	0.312324	-0.380950
C492	C	1.370551	0.562324	-0.130950
N493	N	0.649261	-0.216407	-0.904418
N494	N	0.899261	0.033593	-0.654418
N495	N	1.149261	0.283593	-0.404418
N496	N	1.399261	0.533593	-0.154418
C497	C	0.677973	-0.245145	-0.880969
C498	C	0.927973	0.004855	-0.630969
C499	C	1.177973	0.254855	-0.380969
C500	C	1.427973	0.504855	-0.130969
C501	C	0.620551	-0.187749	-0.454001
C502	C	0.870551	0.062251	-0.204001
C503	C	1.120551	0.312251	0.045999
C504	C	1.370551	0.562251	0.295999
C505	C	0.620552	-0.187755	-0.407083
C506	C	0.870552	0.062245	-0.157083
C507	C	1.120552	0.312245	0.092917
C508	C	1.370552	0.562245	0.342917
C509	C	0.677977	-0.245227	-0.407102
C510	C	0.927977	0.004773	-0.157102
C511	C	1.177977	0.254773	0.092898
C512	C	1.427977	0.504773	0.342898
C513	C	0.677978	-0.245217	-0.454020
C514	C	0.927978	0.004783	-0.204020
C515	C	1.177978	0.254783	0.045980
C516	C	1.427978	0.504783	0.295980
C517	C	0.649262	-0.216480	-0.477469
C518	C	0.899262	0.033520	-0.227469
C519	C	1.149262	0.283520	0.022531
C520	C	1.399262	0.533520	0.272531
C521	C	0.677974	-0.245122	-0.979495
C522	C	0.927974	0.004878	-0.729495
C523	C	1.177974	0.254878	-0.479495
C524	C	1.427974	0.504878	-0.229495
C525	C	0.677974	-0.245109	-1.026414
C526	C	0.927974	0.004891	-0.776414
C527	C	1.177974	0.254891	-0.526414
C528	C	1.427974	0.504891	-0.276414
C529	C	0.620547	-0.187639	-1.026392
C530	C	0.870547	0.062361	-0.776392
C531	C	1.120547	0.312361	-0.526392
C532	C	1.370547	0.562361	-0.276392
C533	C	0.620549	-0.187651	-0.979476
C534	C	0.870549	0.062349	-0.729476
C535	C	1.120549	0.312349	-0.479476
C536	C	1.370549	0.562349	-0.229476
C537	C	0.649263	-0.216396	-0.956029
C538	C	0.899263	0.033604	-0.706029
C539	C	1.149263	0.283604	-0.456029
C540	C	1.399263	0.533604	-0.206029
O541	O	0.596156	-0.163238	-0.905244
O542	O	0.846156	0.086762	-0.655244
O543	O	1.096156	0.336762	-0.405244
O544	O	1.346156	0.586762	-0.155244
O545	O	0.702385	-0.269583	-0.905244
O546	O	0.952385	-0.019583	-0.655244
O547	O	1.202385	0.230417	-0.405244
O548	O	1.452385	0.480417	-0.155244
C549	C	0.677970	-0.245181	-0.693305
C550	C	0.927970	0.004819	-0.443305
C551	C	1.177970	0.254819	-0.193305
C552	C	1.427970	0.504819	0.056695
C553	C	0.649257	-0.216453	-0.669839
C554	C	0.899257	0.033547	-0.419839
C555	C	1.149257	0.283547	-0.169839
C556	C	1.399257	0.533547	0.080161
C557	C	0.620546	-0.187715	-0.693288
C558	C	0.870546	0.062285	-0.443288
C559	C	1.120546	0.312285	-0.193288
C560	C	1.370546	0.562285	0.056712
C561	C	0.649259	-0.216460	-0.622921
C562	C	0.899259	0.033540	-0.372921
C563	C	1.149259	0.283540	-0.122921
C564	C	1.399259	0.533540	0.127079
C565	C	0.677970	-0.245198	-0.599471
C566	C	0.927970	0.004802	-0.349471
C567	C	1.177970	0.254802	-0.099471
C568	C	1.427970	0.504802	0.150529
C569	C	0.706680	-0.273929	-0.622940
C570	C	0.956680	-0.023929	-0.372940
C571	C	1.206680	0.226071	-0.122940
C572	C	1.456680	0.476071	0.127060
C573	C	0.706682	-0.273919	-0.669855
C574	C	0.956682	-0.023919	-0.419855
C575	C	1.206682	0.226081	-0.169855
C576	C	1.456682	0.476081	0.080145
C577	C	0.591835	-0.158984	-0.669820
C578	C	0.841835	0.091016	-0.419820
C579	C	1.091835	0.341016	-0.169820
C580	C	1.341835	0.591016	0.080180
C581	C	0.591837	-0.158996	-0.622904
C582	C	0.841837	0.091004	-0.372904
C583	C	1.091837	0.341004	-0.122904
C584	C	1.341837	0.591004	0.127096
C585	C	0.620548	-0.187734	-0.599455
C586	C	0.870548	0.062266	-0.349455
C587	C	1.120548	0.312266	-0.099455
C588	C	1.370548	0.562266	0.150545
C589	C	0.649192	-0.216492	-0.099798
C590	C	0.899192	0.033508	0.150202
C591	C	1.149192	0.283508	0.400202
C592	C	1.399192	0.533508	0.650202
C593	C	0.649262	-0.216371	-0.049864
C594	C	0.899262	0.033629	0.200136
C595	C	1.149262	0.283629	0.450136
C596	C	1.399262	0.533629	0.700136
H597	H	0.478203	-0.268701	-0.268510
H598	H	0.728203	-0.018701	-0.018510
H599	H	0.978203	0.231299	0.231490
H600	H	1.228203	0.481299	0.481490
H601	H	0.730067	-0.297286	-0.829703
H602	H	0.980067	-0.047286	-0.579703
H603	H	1.230067	0.202714	-0.329703
H604	H	1.480067	0.452714	-0.079703
H605	H	0.701360	-0.268612	-0.473123
H606	H	0.951360	-0.018612	-0.223123
H607	H	1.201360	0.231388	0.026877
H608	H	1.451360	0.481388	0.276877
N609	N	0.126455	-0.129575	-0.129906
N610	N	0.376455	0.120425	0.120094
N611	N	0.626455	0.370425	0.370094
N612	N	0.876455	0.620425	0.620094
N613	N	0.121234	-0.088125	-0.132966
N614	N	0.371234	0.161875	0.117034
N615	N	0.621234	0.411875	0.367034
N616	N	0.871234	0.661875	0.617034
H617	H	0.138147	-0.067363	-0.112276
H618	H	0.388147	0.182637	0.137724
H619	H	0.638147	0.432637	0.387724
H620	H	0.888147	0.682637	0.637724
N621	N	0.707308	-0.274574	-0.383137
N622	N	0.957308	-0.024574	-0.133137
N623	N	1.207308	0.225426	0.116863
N624	N	1.457308	0.475426	0.366863
N625	N	0.707302	-0.274571	-0.341246
N626	N	0.957302	-0.024571	-0.091246
N627	N	1.207302	0.225429	0.158754
N628	N	1.457302	0.475429	0.408754
H629	H	0.728015	-0.295297	-0.324319
H630	H	0.978015	-0.045297	-0.074319
H631	H	1.228015	0.204703	0.175681
H632	H	1.478015	0.454703	0.425681
N633	N	0.591213	-0.158293	-1.050349
N634	N	0.841213	0.091707	-0.800349
N635	N	1.091213	0.341707	-0.550349
N636	N	1.341213	0.591707	-0.300349
N637	N	0.549757	-0.161274	-1.045085
N638	N	0.799757	0.088726	-0.795085
N639	N	1.049757	0.338726	-0.545085
N640	N	1.299757	0.588726	-0.295085
H641	H	0.529036	-0.140551	-1.062006
H642	H	0.779036	0.109449	-0.812006
H643	H	1.029036	0.359449	-0.562006
H644	H	1.279036	0.609449	-0.312006
H645	H	0.730065	-0.297314	-0.688957
H646	H	0.980065	-0.047314	-0.438957
H647	H	1.230065	0.202686	-0.188957
H648	H	1.480065	0.452686	0.061043
N649	N	0.736018	-0.739115	-0.303449
N650	N	0.986018	-0.489115	-0.053449
N651	N	1.236018	-0.239115	0.196551
N652	N	1.486018	0.010885	0.446551
N653	N	0.777473	-0.744336	-0.300509
N654	N	1.027473	-0.494336	-0.050509
N655	N	1.277473	-0.244336	0.199491
N656	N	1.527473	0.005664	0.449491
H657	H	0.798199	-0.727394	-0.321254
H658	H	1.048199	-0.477394	-0.071254
H659	H	1.298199	-0.227394	0.178746
H660	H	1.548199	0.022606	0.428746
H661	H	0.036489	-0.135546	-0.135853
H662	H	0.286489	0.114454	0.114147
H663	H	0.536489	0.364454	0.364147
H664	H	0.786489	0.614454	0.614147
H665	H	0.701405	-0.959848	-0.268760
H666	H	0.951405	-0.709848	-0.018760
H667	H	1.201405	-0.459848	0.231240
H668	H	1.451405	-0.209848	0.481240
H669	H	0.568454	-0.135583	-0.688908
H670	H	0.818454	0.114417	-0.438908
H671	H	1.068454	0.364417	-0.188908
H672	H	1.318454	0.614417	0.061092
N673	N	0.707306	-0.274452	-1.050391
N674	N	0.957306	-0.024452	-0.800391
N675	N	1.207306	0.225548	-0.550391
N676	N	1.457306	0.475548	-0.300391
N677	N	0.735945	-0.258644	-1.076594
N678	N	0.985945	-0.008644	-0.826594
N679	N	1.235945	0.241356	-0.576594
N680	N	1.485945	0.491356	-0.326594
H681	H	0.756660	-0.279367	-1.093527
H682	H	1.006660	-0.029367	-0.843527
H683	H	1.256660	0.220633	-0.593527
H684	H	1.506660	0.470633	-0.343527
N685	N	0.707379	-1.049812	-0.274736
N686	N	0.957379	-0.799812	-0.024736
N687	N	1.207379	-0.549812	0.225264
N688	N	1.457379	-0.299812	0.475264
N689	N	0.748834	-1.044544	-0.271807
N690	N	0.998834	-0.794544	-0.021807
N691	N	1.248834	-0.544544	0.228193
N692	N	1.498834	-0.294544	0.478193
H693	H	0.769556	-1.061436	-0.292562
H694	H	1.019556	-0.811436	-0.042562
H695	H	1.269556	-0.561436	0.207438
H696	H	1.519556	-0.311436	0.457438
H697	H	0.597071	-0.472724	-0.164312
H698	H	0.847071	-0.222724	0.085688
H699	H	1.097071	0.027276	0.335688
H700	H	1.347071	0.277276	0.585688
H701	H	0.393095	-0.268703	-0.268530
H702	H	0.643095	-0.018703	-0.018530
H703	H	0.893095	0.231297	0.231470
H704	H	1.143095	0.481297	0.481470
N705	N	0.031673	-0.303451	-0.303197
N706	N	0.281673	-0.053451	-0.053197
N707	N	0.531673	0.196549	0.196803
N708	N	0.781673	0.446549	0.446803
N709	N	0.052625	-0.329138	-0.328799
N710	N	0.302625	-0.079138	-0.078799
N711	N	0.552625	0.170862	0.171201
N712	N	0.802625	0.420862	0.421201
H713	H	0.035708	-0.349892	-0.349493
H714	H	0.285708	-0.099892	-0.099493
H715	H	0.535708	0.150108	0.150507
H716	H	0.785708	0.400108	0.400507
H717	H	0.262388	-0.297484	-0.297218
H718	H	0.512388	-0.047484	-0.047218
H719	H	0.762388	0.202516	0.202782
H720	H	1.012388	0.452516	0.452782
H721	H	0.730065	-0.297304	-0.744598
H722	H	0.980065	-0.047304	-0.494598
H723	H	1.230065	0.202696	-0.244598
H724	H	1.480065	0.452696	0.005402
H725	H	0.177283	-0.297487	-0.297231
H726	H	0.427283	-0.047487	-0.047231
H727	H	0.677283	0.202513	0.202769
H728	H	0.927283	0.452513	0.452769
N729	N	0.172371	-0.129569	-0.129901
N730	N	0.422371	0.120431	0.120099
N731	N	0.672371	0.370431	0.370099
N732	N	0.922371	0.620431	0.620099
N733	N	0.146161	-0.145326	-0.101241
N734	N	0.396161	0.104674	0.148759
N735	N	0.646161	0.354674	0.398759
N736	N	0.896161	0.604674	0.648759
H737	H	0.129231	-0.124568	-0.080559
H738	H	0.379231	0.125432	0.169441
H739	H	0.629231	0.375432	0.419441
H740	H	0.879231	0.625432	0.669441
H741	H	0.597174	-0.164355	-0.387981
H742	H	0.847174	0.085645	-0.137981
H743	H	1.097174	0.335645	0.112019
H744	H	1.347174	0.585645	0.362019
H745	H	0.121642	-0.297490	-0.297238
H746	H	0.371642	-0.047490	-0.047238
H747	H	0.621642	0.202510	0.202762
H748	H	0.871642	0.452510	0.452762
H749	H	0.730045	-0.688339	-0.297486
H750	H	0.980045	-0.438339	-0.047486
H751	H	1.230045	-0.188339	0.202514
H752	H	1.480045	0.061661	0.452514
N753	N	-0.089327	-0.274705	-0.274518
N754	N	0.160673	-0.024705	-0.024518
N755	N	0.410673	0.225295	0.225482
N756	N	0.660673	0.475295	0.475482
N757	N	-0.094589	-0.316155	-0.271455
N758	N	0.155411	-0.066155	-0.021455
N759	N	0.405411	0.183845	0.228545
N760	N	0.655411	0.433845	0.478545
H761	H	-0.077663	-0.336918	-0.292137
H762	H	0.172337	-0.086918	-0.042137
H763	H	0.422337	0.163082	0.207863
H764	H	0.672337	0.413082	0.457863
N765	N	0.591273	-1.049977	-0.158437
N766	N	0.841273	-0.799977	0.091563
N767	N	1.091273	-0.549977	0.341563
N768	N	1.341273	-0.299977	0.591563
N769	N	0.565632	-1.029058	-0.132757
N770	N	0.815632	-0.779058	0.117243
N771	N	1.065632	-0.529058	0.367243
N772	N	1.315632	-0.279058	0.617243
H773	H	0.544918	-1.046003	-0.112002
H774	H	0.794918	-0.796003	0.137998
H775	H	1.044918	-0.546003	0.387998
H776	H	1.294918	-0.296003	0.637998
N777	N	0.591232	-0.955154	-0.158438
N778	N	0.841232	-0.705154	0.091562
N779	N	1.091232	-0.455154	0.341562
N780	N	1.341232	-0.205154	0.591562
N781	N	0.549779	-0.960435	-0.161376
N782	N	0.799779	-0.710435	0.088624
N783	N	1.049779	-0.460435	0.338624
N784	N	1.299779	-0.210435	0.588624
H785	H	0.529047	-0.943551	-0.140625
H786	H	0.779047	-0.693551	0.109375
H787	H	1.029047	-0.443551	0.359375
H788	H	1.279047	-0.193551	0.609375
H789	H	0.730060	-0.297327	-0.603839
H790	H	0.980060	-0.047327	-0.353839
H791	H	1.230060	0.202673	-0.103839
H792	H	1.480060	0.452673	0.146161
N793	N	0.736028	-0.833956	-0.303463
N794	N	0.986028	-0.583956	-0.053463
N795	N	1.236028	-0.333956	0.196537
N796	N	1.486028	-0.083956	0.446537
N797	N	0.736030	-0.875847	-0.303461
N798	N	0.986030	-0.625847	-0.053461
N799	N	1.236030	-0.375847	0.196539
N800	N	1.486030	-0.125847	0.446539
H801	H	0.756750	-0.892750	-0.324208
H802	H	1.006750	-0.642750	-0.074208
H803	H	1.256750	-0.392750	0.175792
H804	H	1.506750	-0.142750	0.425792
H805	H	0.568454	-0.135596	-0.603803
H806	H	0.818454	0.114404	-0.353803
H807	H	1.068454	0.364404	-0.103803
H808	H	1.318454	0.614404	0.146197
H809	H	0.568441	-0.829324	-0.135619
H810	H	0.818441	-0.579324	0.114381
H811	H	1.068441	-0.329324	0.364381
H812	H	1.318441	-0.079324	0.614381
H813	H	0.701359	-0.268526	-0.960410
H814	H	0.951359	-0.018526	-0.710410
H815	H	1.201359	0.231474	-0.460410
H816	H	1.451359	0.481474	-0.210410
N817	N	0.591212	-0.158390	-0.477943
N818	N	0.841212	0.091610	-0.227943
N819	N	1.091212	0.341610	0.022057
N820	N	1.341212	0.591610	0.272057
N821	N	0.565583	-0.132742	-0.456978
N822	N	0.815583	0.117258	-0.206978
N823	N	1.065583	0.367258	0.043022
N824	N	1.315583	0.617258	0.293022
H825	H	0.544862	-0.112006	-0.473885
H826	H	0.794862	0.137994	-0.223885
H827	H	1.044862	0.387994	0.026115
H828	H	1.294862	0.637994	0.276115
H829	H	0.262352	-0.135519	-0.135834
H830	H	0.512352	0.114481	0.114166
H831	H	0.762352	0.364481	0.364166
H832	H	1.012352	0.614481	0.614166
N833	N	0.707215	-0.382585	-0.274618
N834	N	0.957215	-0.132585	-0.024618
N835	N	1.207215	0.117415	0.225382
N836	N	1.457215	0.367415	0.475382
N837	N	0.748671	-0.387804	-0.271679
N838	N	0.998671	-0.137804	-0.021679
N839	N	1.248671	0.112196	0.228321
N840	N	1.498671	0.362196	0.478321
H841	H	0.769395	-0.370858	-0.292422
H842	H	1.019395	-0.120858	-0.042422
H843	H	1.269395	0.129142	0.207578
H844	H	1.519395	0.379142	0.457578
H845	H	0.568396	-0.688569	-0.135597
H846	H	0.818396	-0.438569	0.114403
H847	H	1.068396	-0.188569	0.364403
H848	H	1.318396	0.061431	0.614403
N849	N	0.388183	-0.158343	-0.158531
N850	N	0.638183	0.091657	0.091469
N851	N	0.888183	0.341657	0.341469
N852	N	1.138183	0.591657	0.591469
N853	N	0.361971	-0.174107	-0.129877
N854	N	0.611971	0.075893	0.120123
N855	N	0.861971	0.325893	0.370123
N856	N	1.111971	0.575893	0.620123
H857	H	0.345038	-0.153353	-0.109193
H858	H	0.595038	0.096647	0.140807
H859	H	0.845038	0.346647	0.390807
H860	H	1.095038	0.596647	0.640807
N861	N	0.562416	-0.598612	-0.129630
N862	N	0.812416	-0.348612	0.120370
N863	N	1.062416	-0.098612	0.370370
N864	N	1.312416	0.151388	0.620370
N865	N	0.536782	-0.619604	-0.103958
N866	N	0.786782	-0.369604	0.146042
N867	N	1.036782	-0.119604	0.396042
N868	N	1.286782	0.130396	0.646042
H869	H	0.516053	-0.602718	-0.083206
H870	H	0.766053	-0.352718	0.166794
H871	H	1.016053	-0.102718	0.416794
H872	H	1.266053	0.147282	0.666794
H873	H	0.568444	-0.135573	-0.744558
H874	H	0.818444	0.114427	-0.494558
H875	H	1.068444	0.364427	-0.244558
H876	H	1.318444	0.614427	0.005442
H877	H	0.568444	-0.135561	-0.829666
H878	H	0.818444	0.114439	-0.579666
H879	H	1.068444	0.364439	-0.329666
H880	H	1.318444	0.614439	-0.079666
N881	N	0.483044	-0.158331	-0.158530
N882	N	0.733044	0.091669	0.091470
N883	N	0.983044	0.341669	0.341470
N884	N	1.233044	0.591669	0.591470
N885	N	0.509251	-0.129731	-0.174399
N886	N	0.759251	0.120269	0.075601
N887	N	1.009251	0.370269	0.325601
N888	N	1.259251	0.620269	0.575601
H889	H	0.526180	-0.108971	-0.153721
H890	H	0.776180	0.141029	0.096279
H891	H	1.026180	0.391029	0.346279
H892	H	1.276180	0.641029	0.596279
H893	H	0.597172	-0.164251	-0.960369
H894	H	0.847172	0.085749	-0.710369
H895	H	1.097172	0.335749	-0.460369
H896	H	1.347172	0.585749	-0.210369
N897	N	0.707228	-0.477409	-0.274653
N898	N	0.957228	-0.227409	-0.024653
N899	N	1.207228	0.022591	0.225347
N900	N	1.457228	0.272591	0.475347
N901	N	0.732860	-0.456414	-0.300324
N902	N	0.982860	-0.206414	-0.050324
N903	N	1.232860	0.043586	0.199676
N904	N	1.482860	0.293586	0.449676
H905	H	0.753586	-0.473296	-0.321082
H906	H	1.003586	-0.223296	-0.071082
H907	H	1.253586	0.026704	0.178918
H908	H	1.503586	0.276704	0.428918
H909	H	0.597051	-0.387602	-0.164300
H910	H	0.847051	-0.137602	0.085700
H911	H	1.097051	0.112398	0.335700
H912	H	1.347051	0.362398	0.585700
H913	H	-0.179314	-0.268739	-0.268592
H914	H	0.070686	-0.018739	-0.018592
H915	H	0.320686	0.231261	0.231408
H916	H	0.570686	0.481261	0.481408
H917	H	0.568420	-0.744218	-0.135607
H918	H	0.818420	-0.494218	0.114393
H919	H	1.068420	-0.244218	0.364393
H920	H	1.318420	0.005782	0.614393
H921	H	-0.179333	-0.164340	-0.164539
H922	H	0.070667	0.085660	0.085461
H923	H	0.320667	0.335660	0.335461
H924	H	0.570667	0.585660	0.585461
N925	N	0.735979	-0.598370	-0.303431
N926	N	0.985979	-0.348370	-0.053431
N927	N	1.235979	-0.098370	0.196569
N928	N	1.485979	0.151630	0.446569
N929	N	0.761619	-0.619291	-0.329110
N930	N	1.011619	-0.369291	-0.079110
N931	N	1.261619	-0.119291	0.170890
N932	N	1.511619	0.130709	0.420890
H933	H	0.782337	-0.602348	-0.349862
H934	H	1.032337	-0.352348	-0.099862
H935	H	1.282337	-0.102348	0.150138
H936	H	1.532337	0.147652	0.400138
H937	H	-0.094225	-0.164327	-0.164534
H938	H	0.155775	0.085673	0.085466
H939	H	0.405775	0.335673	0.335466
H940	H	0.655775	0.585673	0.585466
