data_functionalizedCrystal
_audit_creation_method	'MofGen! by Chris Wilmer'
_symmetry_space_group_name_H-M	'P1'
_symmetry_Int_Tables_number	1
_symmetry_cell_setting	triclinic
loop_
_symmetry_equiv_pos_as_xyz
  x,y,z
_cell_length_a	17.699103
_cell_length_b	17.699097
_cell_length_c	16.776229
_cell_angle_alpha	89.989262
_cell_angle_beta	89.988386
_cell_angle_gamma	83.289745
loop_
_atom_site_label
_atom_site_type_symbol
_atom_site_fract_x
_atom_site_fract_y
_atom_site_fract_z
O1	O	0.095760	1.004079	-0.066363
O2	O	0.108202	0.783703	-0.066351
O3	O	-0.008207	0.900109	-0.066342
O4	O	0.212169	0.887672	-0.066372
O5	O	-0.008214	0.900094	0.066234
O6	O	0.108195	0.783687	0.066225
O7	O	0.095753	1.004064	0.066213
Zn8	Zn	0.101973	0.893873	0.087269
Zn9	Zn	0.101982	0.893893	-0.087407
O10	O	0.212162	0.887657	0.066204
C11	C	0.107751	0.755498	-0.000061
C12	C	0.106408	0.671481	-0.000056
C13	C	-0.036407	0.899653	-0.000052
C14	C	-0.120425	0.898309	-0.000045
C15	C	0.098183	0.155770	-0.072355
C16	C	0.099439	0.234714	-0.072351
C17	C	0.100064	0.274172	-0.000080
C18	C	0.099426	0.234682	0.072191
C19	C	0.098164	0.155740	0.072187
C20	C	0.104513	0.553047	0.072212
C21	C	0.105777	0.631994	0.072211
C22	C	0.105788	0.632021	-0.072326
C23	C	0.104526	0.553079	-0.072331
C24	C	0.103884	0.513597	-0.000060
C25	C	0.102520	0.427997	-0.000065
C26	C	0.101434	0.359770	-0.000074
C27	C	-0.636133	0.890093	-0.072364
C28	C	-0.557189	0.891355	-0.072357
C29	C	-0.517735	0.891977	-0.000085
C30	C	-0.557229	0.891343	0.072185
C31	C	-0.636171	0.890086	0.072177
C32	C	-0.238862	0.896413	0.072218
C33	C	-0.159914	0.897668	0.072220
C34	C	-0.159880	0.897682	-0.072316
C35	C	-0.238823	0.896425	-0.072324
C36	C	-0.278310	0.895796	-0.000055
C37	C	-0.363910	0.894429	-0.000063
C38	C	-0.432136	0.893339	-0.000076
C39	C	0.240362	0.888113	-0.000088
C40	C	0.324379	0.889457	-0.000100
N41	N	0.101966	0.893865	0.206480
C42	C	0.096204	1.032268	-0.000078
C43	C	0.097546	1.116286	-0.000089
N44	N	0.101983	0.893908	-0.206618
C45	C	0.050441	0.945425	0.248201
C46	C	0.050440	0.945429	0.331653
C47	C	0.101969	0.893876	0.373383
C48	C	0.153496	0.842310	0.331656
C49	C	0.153492	0.842303	0.248205
C50	C	0.153511	0.842338	0.668203
C51	C	0.153512	0.842350	0.751660
C52	C	0.050459	0.945464	0.751651
C53	C	0.050455	0.945457	0.668200
C54	C	0.101979	0.893888	0.626481
C55	C	0.101978	0.893884	0.535992
C56	C	0.101974	0.893884	0.463870
H57	H	0.099952	0.266860	-0.131197
H58	H	-0.525099	0.891854	0.131030
H59	H	-0.525042	0.891875	-0.131202
O60	O	0.000295	0.995519	0.792093
C61	C	-0.074613	0.983338	0.771735
H62	H	-0.074484	0.954162	0.711151
H63	H	-0.111956	1.040293	0.768873
H64	H	-0.097973	0.945711	0.818716
H65	H	0.008485	0.987413	0.365622
H66	H	0.103979	0.520911	0.131059
H67	H	-0.127791	0.898170	0.131076
O68	O	0.203441	0.792144	0.207639
C69	C	0.162960	0.745537	0.159379
H70	H	0.103274	0.744371	0.184545
H71	H	0.193912	0.685325	0.158442
H72	H	0.158962	0.769224	0.096127
O73	O	0.103886	0.514872	-0.142606
C74	C	0.104735	0.566649	-0.206391
H75	H	0.081683	0.626093	-0.185199
H76	H	0.067641	0.548721	-0.256930
H77	H	0.165565	0.567001	-0.228622
H78	H	-0.271003	0.895902	0.131064
H79	H	0.106308	0.664177	-0.131173
H80	H	-0.270942	0.895916	-0.131176
H81	H	-0.127720	0.898197	-0.131162
H82	H	-0.668321	0.889568	0.131022
H83	H	0.195474	0.800367	0.785634
H84	H	0.099930	0.266816	0.131035
O85	O	0.097583	0.117495	0.142457
C86	C	0.098387	0.169249	0.206247
H87	H	0.123242	0.222350	0.185062
H88	H	0.134747	0.141558	0.256788
H89	H	0.037823	0.185689	0.228474
H90	H	0.008484	0.987409	0.214230
H91	H	0.008499	0.987438	0.634227
H92	H	0.195465	0.800350	0.634241
O93	O	0.203522	0.792304	0.372313
C94	C	0.192467	0.803354	0.454916
H95	H	0.164108	0.863577	0.466303
H96	H	0.249798	0.794833	0.486617
H97	H	0.154559	0.760589	0.478623
O98	O	-0.674477	0.889350	-0.142547
C99	C	-0.711469	0.823108	-0.146856
H100	H	-0.681615	0.777688	-0.105841
H101	H	-0.709439	0.801105	-0.210772
H102	H	-0.773265	0.836966	-0.127439
O103	O	0.097547	0.117565	-0.142631
C104	C	0.098397	0.169345	-0.206413
H105	H	0.075341	0.228788	-0.185219
H106	H	0.061307	0.151417	-0.256957
H107	H	0.159228	0.169701	-0.228640
H108	H	0.106286	0.664118	0.131066
