data_functionalizedCrystal
_audit_creation_method	'MofGen! by Chris Wilmer'
_symmetry_space_group_name_H-M	'P1'
_symmetry_Int_Tables_number	1
_symmetry_cell_setting	triclinic
loop_
_symmetry_equiv_pos_as_xyz
  x,y,z
_cell_length_a	11.792241
_cell_length_b	10.723024
_cell_length_c	9.798715
_cell_angle_alpha	89.998022
_cell_angle_beta	90.000512
_cell_angle_gamma	84.330643
loop_
_atom_site_label
_atom_site_type_symbol
_atom_site_fract_x
_atom_site_fract_y
_atom_site_fract_z
O1	O	1.507282	0.171036	-0.113355
O2	O	2.007282	0.671036	0.386645
O3	O	1.176980	0.188663	-0.113386
O4	O	1.676980	0.688663	0.386614
O5	O	1.349750	-0.001747	-0.113365
O6	O	1.849750	0.498253	0.386635
O7	O	1.334512	0.361446	-0.113376
O8	O	1.834512	0.861446	0.386624
O9	O	1.349737	-0.001747	0.113618
O10	O	1.849737	0.498253	0.613618
O11	O	1.176967	0.188663	0.113596
O12	O	1.676967	0.688663	0.613596
O13	O	1.507269	0.171035	0.113627
O14	O	2.007269	0.671035	0.613627
Zn15	Zn	1.342116	0.179849	0.149650
Zn16	Zn	1.842116	0.679849	0.649650
Zn17	Zn	1.342133	0.179850	-0.149409
Zn18	Zn	1.842133	0.679850	0.350591
O19	O	1.334499	0.361445	0.113606
O20	O	1.834499	0.861445	0.613606
C21	C	1.348634	-0.048244	0.000125
C22	C	1.848634	0.451756	0.500125
C23	C	1.345317	-0.186789	0.000120
C24	C	1.845317	0.313211	0.500120
C25	C	1.134680	0.187556	0.000101
C26	C	1.634680	0.687556	0.500101
C27	C	1.008659	0.184242	0.000089
C28	C	1.508659	0.684242	0.500089
C29	C	1.441990	-0.262028	0.000127
C30	C	1.941990	0.237972	0.500127
C31	C	1.438563	-0.405222	0.000122
C32	C	1.938563	0.094778	0.500122
C33	C	0.777933	0.178147	0.000128
C34	C	1.277933	0.678147	0.500128
C35	C	0.906326	0.181533	0.000107
C36	C	1.406326	0.681533	0.500107
C37	C	1.549569	0.172143	0.000137
C38	C	2.049569	0.672143	0.500137
C39	C	1.675590	0.175457	0.000140
C40	C	2.175590	0.675457	0.500140
C41	C	1.335614	0.407942	0.000114
C42	C	1.835614	0.907942	0.500114
C43	C	1.338932	0.546488	0.000110
C44	C	1.838932	1.046488	0.500110
N45	N	1.342112	0.179848	0.353750
N46	N	1.842112	0.679848	0.853750
N47	N	1.342145	0.179841	-0.353508
N48	N	1.842145	0.679841	0.146492
C49	C	1.414654	0.099549	0.421536
C50	C	1.914654	0.599549	0.921536
C51	C	1.414672	0.099544	0.578698
C52	C	1.914672	0.599544	1.078698
H53	H	1.527292	-0.220431	0.000143
H54	H	2.027292	0.279569	0.500143
C55	C	1.550372	-0.492560	0.000131
C56	C	2.050372	0.007440	0.500131
N57	N	1.634591	-0.558347	0.000136
N58	N	2.134591	-0.058347	0.500136
H59	H	1.476743	0.030799	0.363221
H60	H	1.976743	0.530799	0.863221
C61	C	1.227118	-0.366181	0.000100
C62	C	1.727118	0.133819	0.500100
N63	N	1.142900	-0.300394	0.000090
N64	N	1.642900	0.199606	0.500090
H65	H	1.260014	-0.228386	0.000103
H66	H	1.760014	0.271614	0.500103
C67	C	1.498577	0.006665	0.657447
C68	C	1.998577	0.506665	1.157447
N69	N	1.561775	-0.063295	0.716764
N70	N	2.061775	0.436705	1.216764
H71	H	1.280040	0.248597	0.588207
H72	H	1.780040	0.748597	1.088207
C73	C	1.258222	0.272717	0.432528
C74	C	1.758222	0.772717	0.932528
N75	N	1.195033	0.342669	0.491863
N76	N	1.695033	0.842669	0.991863
