data_functionalizedCrystal
_audit_creation_method	'MofGen! by Chris Wilmer'
_symmetry_space_group_name_H-M	'P1'
_symmetry_Int_Tables_number	1
_symmetry_cell_setting	triclinic
loop_
_symmetry_equiv_pos_as_xyz
  x,y,z
_cell_length_a	19.188929
_cell_length_b	19.188925
_cell_length_c	8.140239
_cell_angle_alpha	89.996333
_cell_angle_beta	90.025294
_cell_angle_gamma	96.856335
loop_
_atom_site_label
_atom_site_type_symbol
_atom_site_fract_x
_atom_site_fract_y
_atom_site_fract_z
O1	O	-0.087148	0.926146	-0.136727
O2	O	0.412852	1.426146	0.363273
O3	O	-0.098887	0.722834	-0.136733
O4	O	0.401113	1.222834	0.363267
O5	O	0.008638	0.830357	-0.136628
O6	O	0.508638	1.330357	0.363372
O7	O	-0.194673	0.818622	-0.136832
O8	O	0.305327	1.318622	0.363168
O9	O	0.008639	0.830351	0.136599
O10	O	0.508639	1.330351	0.636599
O11	O	-0.098885	0.722828	0.136494
O12	O	0.401115	1.222828	0.636494
O13	O	-0.087147	0.926140	0.136500
O14	O	0.412853	1.426140	0.636500
Zn15	Zn	-0.093016	0.824483	0.179878
Zn16	Zn	0.406984	1.324483	0.679878
Zn17	Zn	-0.093018	0.824491	-0.180111
Zn18	Zn	0.406982	1.324491	0.319889
O19	O	-0.194672	0.818617	0.136395
O20	O	0.305328	1.318617	0.636395
C21	C	-0.098507	0.696820	-0.000118
C22	C	0.401493	1.196820	0.499882
C23	C	-0.097367	0.619315	-0.000115
C24	C	0.402633	1.119315	0.499885
C25	C	-0.152831	0.057545	-0.000175
C26	C	0.347169	0.557545	0.499825
C27	C	-0.153908	0.130368	-0.000185
C28	C	0.346092	0.630368	0.499815
C29	C	-0.090816	0.175302	-0.000119
C30	C	0.409184	0.675302	0.499881
C31	C	-0.026642	0.147408	-0.000085
C32	C	0.473358	0.647408	0.499915
C33	C	-0.025568	0.074586	-0.000091
C34	C	0.474432	0.574586	0.499909
N35	N	-0.045139	0.295978	0.092935
N36	N	0.454861	0.795978	0.592935
N37	N	-0.046164	0.365155	0.092945
N38	N	0.453836	0.865155	0.592945
C39	C	-0.094050	0.394712	-0.000103
C40	C	0.405950	0.894712	0.499897
N41	N	-0.140882	0.352476	-0.093140
N42	N	0.359118	0.852476	0.406860
N43	N	-0.139859	0.283292	-0.093142
N44	N	0.360141	0.783292	0.406858
C45	C	-0.091974	0.254267	-0.000113
C46	C	0.408026	0.754267	0.499887
C47	C	-0.159386	0.501561	-0.000159
C48	C	0.340614	1.001561	0.499841
C49	C	-0.160460	0.574385	-0.000179
C50	C	0.339540	1.074385	0.499821
C51	C	-0.033193	0.591425	-0.000062
C52	C	0.466807	1.091425	0.499938
C53	C	-0.032121	0.518601	-0.000059
C54	C	0.467879	1.018601	0.499941
C55	C	-0.095220	0.473673	-0.000099
C56	C	0.404780	0.973673	0.499901
C57	C	-0.220684	0.819000	-0.000244
C58	C	0.279316	1.319000	0.499756
C59	C	-0.298188	0.820140	-0.000322
C60	C	0.201812	1.320140	0.499678
C61	C	-0.343113	0.757049	-0.000291
C62	C	0.156887	1.257049	0.499709
C63	C	-0.415937	0.758121	-0.000254
C64	C	0.084063	1.258121	0.499746
C65	C	-0.443833	0.822287	-0.000215
C66	C	0.056167	1.322287	0.499785
C67	C	-0.398897	0.885386	-0.000256
C68	C	0.101103	1.385386	0.499744
C69	C	-0.326075	0.884313	-0.000309
C70	C	0.173925	1.384313	0.499691
N71	N	-0.551800	0.871332	0.092875
N72	N	-0.051800	1.371332	0.592875
N73	N	-0.620978	0.872347	0.092930
N74	N	-0.120978	1.372347	0.592930
C75	C	-0.663241	0.825525	-0.000057
C76	C	-0.163241	1.325525	0.499943
N77	N	-0.633713	0.777639	-0.093080
N78	N	-0.133713	1.277639	0.406920
N79	N	-0.564529	0.776621	-0.093127
N80	N	-0.064529	1.276621	0.406873
C81	C	-0.522795	0.823458	-0.000158
C82	C	-0.022795	1.323458	0.499842
C83	C	-0.787131	0.763592	0.000012
C84	C	-0.287131	1.263592	0.500012
C85	C	-0.859955	0.764666	0.000039
C86	C	-0.359955	1.264666	0.500039
C87	C	-0.842914	0.891934	0.000054
C88	C	-0.342914	1.391934	0.500054
C89	C	-0.770091	0.890857	0.000010
C90	C	-0.270091	1.390857	0.500010
C91	C	-0.742204	0.826685	-0.000003
C92	C	-0.242204	1.326685	0.499997
C93	C	0.034650	0.829974	0.000008
C94	C	0.534650	1.329974	0.500008
C95	C	0.112154	0.828833	0.000075
C96	C	0.612154	1.328833	0.500075
C97	C	-0.087527	0.952154	-0.000118
C98	C	0.412473	1.452154	0.499882
C99	C	-0.088666	1.029658	-0.000132
C100	C	0.411334	1.529658	0.499868
N101	N	-0.093015	0.824483	0.425560
N102	N	0.406985	1.324483	0.925560
N103	N	-0.093014	0.824496	-0.425793
N104	N	0.406986	1.324496	0.074207
H105	H	0.024728	0.183999	-0.000036
H106	H	0.524728	0.683999	0.499964
H107	H	0.018178	0.628010	-0.000021
H108	H	0.518178	1.128010	0.499979
C109	C	-0.224492	0.161051	-0.000225
C110	C	0.275508	0.661051	0.499775
H111	H	-0.261916	0.123864	-0.000242
H112	H	0.238084	0.623864	0.499758
H113	H	-0.227562	0.189111	-0.095501
H114	H	0.272438	0.689111	0.404499
H115	H	-0.227547	0.189099	0.095072
H116	H	0.272453	0.689099	0.595072
C117	C	-0.429576	0.955969	-0.000209
C118	C	0.070424	1.455969	0.499791
H119	H	-0.392387	0.993392	-0.000247
H120	H	0.107613	1.493392	0.499753
H121	H	-0.457599	0.959032	0.095094
H122	H	0.042401	1.459032	0.595094
H123	H	-0.457660	0.959034	-0.095479
H124	H	0.042340	1.459034	0.404521
H125	H	-0.320413	0.704795	-0.000316
H126	H	0.179587	1.204795	0.499684
H127	H	0.020129	0.495896	-0.000014
H128	H	0.520129	0.995896	0.499986
C129	C	0.045017	0.043910	-0.000028
C130	C	0.545017	0.543910	0.499972
H131	H	0.082440	0.081099	0.000017
H132	H	0.582440	0.581099	0.500017
H133	H	0.048080	0.015856	-0.095302
H134	H	0.548080	0.515856	0.404698
H135	H	0.048081	0.015856	0.095271
H136	H	0.548081	0.515856	0.595271
H137	H	-0.865626	0.944179	-0.000034
H138	H	-0.365626	1.444179	0.499966
H139	H	-0.204212	0.020968	-0.000216
H140	H	0.295788	0.520968	0.499784
H141	H	-0.210765	0.464978	-0.000195
H142	H	0.289235	0.964978	0.499805
C143	C	-0.231045	0.605060	-0.000222
C144	C	0.268955	1.105060	0.499778
H145	H	-0.268468	0.567871	-0.000231
H146	H	0.231532	1.067871	0.499769
H147	H	-0.234118	0.633117	-0.095503
H148	H	0.265882	1.133117	0.404497
H149	H	-0.234101	0.633111	0.095070
H150	H	0.265899	1.133111	0.595070
H151	H	-0.452522	0.706743	-0.000225
H152	H	0.047478	1.206743	0.499775
H153	H	-0.289496	0.935691	-0.000336
H154	H	0.210504	1.435691	0.499664
H155	H	-0.764424	0.711339	0.000011
H156	H	-0.264424	1.211339	0.500011
H157	H	-0.896534	0.713288	0.000053
H158	H	-0.396534	1.213288	0.500053
H159	H	-0.733512	0.942233	-0.000004
H160	H	-0.233512	1.442233	0.499996
