data_functionalizedCrystal
_audit_creation_method	'MofGen! by Chris Wilmer'
_symmetry_space_group_name_H-M	'P1'
_symmetry_Int_Tables_number	1
_symmetry_cell_setting	triclinic
loop_
_symmetry_equiv_pos_as_xyz
  x,y,z
_cell_length_a	11.169417
_cell_length_b	10.686203
_cell_length_c	11.169409
_cell_angle_alpha	85.602654
_cell_angle_beta	90.019824
_cell_angle_gamma	94.364530
loop_
_atom_site_label
_atom_site_type_symbol
_atom_site_fract_x
_atom_site_fract_y
_atom_site_fract_z
Zn1	Zn	1.871610	0.502220	0.641984
Zn2	Zn	2.204943	0.835553	0.975318
Zn3	Zn	2.538276	1.168887	1.308651
Zn4	Zn	1.886899	0.713272	0.425938
Zn5	Zn	2.220233	1.046606	0.759271
Zn6	Zn	2.553566	1.379939	1.092605
Zn7	Zn	1.670901	0.502297	0.441313
Zn8	Zn	2.004234	0.835630	0.774646
Zn9	Zn	2.337568	1.168963	1.107980
Zn10	Zn	1.686296	0.713169	0.626590
Zn11	Zn	2.019629	1.046503	0.959924
Zn12	Zn	2.352963	1.379836	1.293257
O13	O	1.778927	0.607740	0.533956
O14	O	2.112260	0.941073	0.867290
O15	O	2.445593	1.274406	1.200623
O16	O	2.041588	0.530227	0.613333
O17	O	2.374922	0.863561	0.946666
O18	O	2.708255	1.196894	1.280000
O19	O	1.858203	0.685361	0.260022
O20	O	2.191536	1.018694	0.593355
O21	O	2.524870	1.352028	0.926689
O22	O	1.684684	0.325709	0.480810
O23	O	2.018017	0.659043	0.814143
O24	O	2.351350	0.992376	1.147476
O25	O	2.052822	0.685286	0.454605
O26	O	2.386155	1.018620	0.787938
O27	O	2.719488	1.351953	1.121271
O28	O	1.832143	0.325653	0.628242
O29	O	2.165477	0.658986	0.961575
O30	O	2.498810	0.992320	1.294908
O31	O	1.699510	0.530358	0.271318
O32	O	2.032843	0.863692	0.604652
O33	O	2.366176	1.197025	0.937985
O34	O	1.504993	0.530259	0.465883
O35	O	1.838326	0.863592	0.799216
O36	O	2.171659	1.196925	1.132549
O37	O	1.710922	0.685111	0.796588
O38	O	2.044256	1.018445	1.129921
O39	O	2.377589	1.351778	1.463254
O40	O	1.516303	0.685186	0.602005
O41	O	1.849637	1.018519	0.935338
O42	O	2.182970	1.351853	1.268672
O43	O	1.847071	0.530128	0.807898
O44	O	2.180405	0.863461	1.141231
O45	O	2.513738	1.196794	1.474564
O46	O	1.873131	0.889836	0.439678
O47	O	2.206464	1.223169	0.773011
O48	O	2.539797	1.556502	1.106344
O49	O	1.725748	0.889760	0.587096
O50	O	2.059082	1.223094	0.920430
O51	O	2.392415	1.556427	1.253763
C52	C	1.467100	0.607720	0.533942
C53	C	1.800434	0.941054	0.867276
C54	C	2.133767	1.274387	1.200609
C55	C	1.333702	0.607743	0.533963
C56	C	1.667035	0.941076	0.867296
C57	C	2.000369	1.274409	1.200629
C58	C	1.802802	0.935582	0.510074
C59	C	2.136135	1.268916	0.843408
C60	C	2.469468	1.602249	1.176741
C61	C	1.813126	1.075835	0.499898
C62	C	2.146459	1.409168	0.833231
C63	C	2.479792	1.742502	1.166564
C64	C	2.091970	0.607760	0.533971
C65	C	2.425304	0.941093	0.867304
C66	C	2.758637	1.274426	1.200638
C67	C	2.225371	0.607768	0.533977
C68	C	2.558704	0.941102	0.867311
C69	C	2.892038	1.274435	1.200644
C70	C	1.779008	0.607599	0.847009
C71	C	2.112342	0.940933	1.180342
C72	C	2.445675	1.274266	1.513676
C73	C	1.779043	0.607540	0.980414
C74	C	2.112377	0.940873	1.313747
C75	C	2.445710	1.274206	1.647080
C76	C	1.754979	1.278617	0.557971
C77	C	2.088312	1.611950	0.891304
C78	C	2.421646	1.945283	1.224637
C79	C	1.744744	1.138364	0.568236
C80	C	2.078078	1.471697	0.901570
C81	C	2.411411	1.805031	1.234903
C82	C	1.778907	0.607788	0.222128
C83	C	2.112241	0.941121	0.555461
C84	C	2.445574	1.274455	0.888795
C85	C	1.779079	0.607492	0.088750
C86	C	2.112412	0.940826	0.422084
C87	C	2.445746	1.274159	0.755417
H88	H	1.678303	1.084602	0.634531
H89	H	2.011636	1.417935	0.967865
H90	H	2.344970	1.751268	1.301198
H91	H	1.879563	1.129605	0.433591
H92	H	2.212896	1.462938	0.766924
H93	H	2.546230	1.796272	1.100257
