data_functionalizedCrystal
_audit_creation_method	'MofGen! by Chris Wilmer'
_symmetry_space_group_name_H-M	'P1'
_symmetry_Int_Tables_number	1
_symmetry_cell_setting	triclinic
loop_
_symmetry_equiv_pos_as_xyz
  x,y,z
_cell_length_a	19.288859
_cell_length_b	18.366186
_cell_length_c	19.288855
_cell_angle_alpha	90.008830
_cell_angle_beta	83.132984
_cell_angle_gamma	90.009917
loop_
_atom_site_label
_atom_site_type_symbol
_atom_site_fract_x
_atom_site_fract_y
_atom_site_fract_z
O1	O	-0.921352	-0.060568	-0.086629
O2	O	-0.588019	0.272765	0.246705
O3	O	-0.254686	0.606099	0.580038
O4	O	-0.719091	-0.060567	-0.098322
O5	O	-0.385757	0.272766	0.235011
O6	O	-0.052424	0.606100	0.568345
O7	O	-0.826070	-0.060558	0.008656
O8	O	-0.492736	0.272775	0.341989
O9	O	-0.159403	0.606109	0.675322
O10	O	-0.814374	-0.060577	-0.193606
O11	O	-0.481040	0.272756	0.139727
O12	O	-0.147707	0.606090	0.473060
O13	O	-0.826051	0.060541	0.008661
O14	O	-0.492718	0.393875	0.341994
O15	O	-0.159385	0.727208	0.675328
O16	O	-0.719073	0.060532	-0.098317
O17	O	-0.385739	0.393866	0.235017
O18	O	-0.052406	0.727199	0.568350
O19	O	-0.921334	0.060531	-0.086623
O20	O	-0.588001	0.393865	0.246710
O21	O	-0.254668	0.727198	0.580043
Zn22	Zn	-0.820201	0.079759	-0.092469
Zn23	Zn	-0.486867	0.413092	0.240864
Zn24	Zn	-0.153534	0.746426	0.574197
Zn25	Zn	-0.820224	-0.079795	-0.092476
Zn26	Zn	-0.486891	0.253539	0.240857
Zn27	Zn	-0.153558	0.586872	0.574191
O28	O	-0.814355	0.060522	-0.193601
O29	O	-0.481022	0.393856	0.139732
O30	O	-0.147689	0.727189	0.473066
C31	C	-0.693205	-0.000017	-0.097944
C32	C	-0.359872	0.333316	0.235390
C33	C	-0.026538	0.666650	0.568723
C34	C	-0.616101	-0.000016	-0.096816
C35	C	-0.282768	0.333317	0.236517
C36	C	0.050565	0.666650	0.569850
C37	C	-0.825685	-0.000007	0.034535
C38	C	-0.492352	0.333326	0.367868
C39	C	-0.159019	0.666659	0.701201
C40	C	-0.824559	-0.000005	0.111639
C41	C	-0.491226	0.333329	0.444972
C42	C	-0.157892	0.666662	0.778305
C43	C	-0.947220	-0.000020	-0.087002
C44	C	-0.613887	0.333313	0.246332
C45	C	-0.280553	0.666646	0.579665
C46	C	-1.024324	-0.000026	-0.088129
C47	C	-0.690990	0.333308	0.245204
C48	C	-0.357657	0.666641	0.578538
N49	N	-0.820189	0.188650	-0.092464
N50	N	-0.486856	0.521983	0.240869
N51	N	-0.153523	0.855317	0.574203
C52	C	-0.052059	-0.000022	-0.151960
C53	C	0.281275	0.333311	0.181373
C54	C	0.614608	0.666644	0.514707
C55	C	-0.124505	-0.000026	-0.153025
C56	C	0.208828	0.333307	0.180308
C57	C	0.542161	0.666640	0.513641
C58	C	-0.169214	-0.000019	-0.090256
C59	C	0.164119	0.333314	0.243078
C60	C	0.497452	0.666648	0.576411
C61	C	-0.141471	-0.000027	-0.026416
C62	C	0.191862	0.333307	0.306917
C63	C	0.525195	0.666640	0.640251
C64	C	-0.069026	-0.000030	-0.025353
C65	C	0.264307	0.333303	0.307981
C66	C	0.597641	0.666637	0.641314
C67	C	-0.290480	0.042414	-0.043441
C68	C	0.042854	0.375748	0.289893
C69	C	0.376187	0.709081	0.623226
C70	C	-0.362923	0.042422	-0.044507
C71	C	-0.029590	0.375756	0.288827
C72	C	0.303743	0.709089	0.622160
C73	C	-0.392660	-0.000012	-0.093533
C74	C	-0.059327	0.333321	0.239800
C75	C	0.274007	0.666655	0.573133
C76	C	-0.349942	-0.042445	-0.141505
C77	C	-0.016609	0.290889	0.191828
C78	C	0.316724	0.624222	0.525161
C79	C	-0.277497	-0.042448	-0.140442
C80	C	0.055836	0.290885	0.192891
C81	C	0.389170	0.624219	0.526225
C82	C	-0.247770	-0.000016	-0.091402
C83	C	0.085563	0.333317	0.241931
C84	C	0.418897	0.666651	0.575265
C85	C	-0.498949	-0.000014	-0.158524
C86	C	-0.165616	0.333320	0.174809
C87	C	0.167717	0.666653	0.508143
C88	C	-0.571397	-0.000022	-0.159587
C89	C	-0.238064	0.333311	0.173747
C90	C	0.095269	0.666644	0.507080
C91	C	-0.588362	-0.000015	-0.032976
C92	C	-0.255029	0.333318	0.300358
C93	C	0.078304	0.666652	0.633691
C94	C	-0.515915	-0.000014	-0.031915
C95	C	-0.182582	0.333319	0.301419
C96	C	0.150751	0.666653	0.634752
C97	C	-0.471213	-0.000010	-0.094691
C98	C	-0.137880	0.333323	0.238642
C99	C	0.195454	0.666657	0.571976
N100	N	-0.820241	-0.188686	-0.092476
N101	N	-0.486908	0.144648	0.240858
N102	N	-0.153575	0.477981	0.574191
C103	C	-0.867575	0.226754	-0.045118
C104	C	-0.534242	0.560088	0.288216
C105	C	-0.200908	0.893421	0.621549
C106	C	-0.867579	0.302982	-0.045114
C107	C	-0.534246	0.636316	0.288219
C108	C	-0.200913	0.969649	0.621552
C109	C	-0.820205	0.341103	-0.092470
C110	C	-0.486871	0.674436	0.240864
C111	C	-0.153538	1.007770	0.574197
C112	C	-0.772810	0.302989	-0.139820
C113	C	-0.439477	0.636323	0.193513
C114	C	-0.106144	0.969656	0.526847
C115	C	-0.772803	0.226763	-0.139817
C116	C	-0.439469	0.560096	0.193516
C117	C	-0.106136	0.893430	0.526850
C118	C	-0.810904	0.461857	-0.155758
C119	C	-0.477571	0.795191	0.177575
C120	C	-0.144238	1.128524	0.510909
C121	C	-0.810917	0.538082	-0.155762
C122	C	-0.477584	0.871416	0.177571
C123	C	-0.144250	1.204749	0.510905
C124	C	-0.820224	0.576210	-0.092478
C125	C	-0.486891	0.909544	0.240855
C126	C	-0.153558	1.242877	0.574188
C127	C	-0.829534	0.538104	-0.029189
C128	C	-0.496201	0.871438	0.304145
C129	C	-0.162868	1.204771	0.637478
C130	C	-0.829527	0.461878	-0.029186
C131	C	-0.496193	0.795211	0.304148
C132	C	-0.162860	1.128545	0.637481
C133	C	-0.820208	0.423758	-0.092478
C134	C	-0.486874	0.757091	0.240855
C135	C	-0.153541	1.090424	0.574189
C136	C	-0.867617	0.696970	-0.045125
C137	C	-0.534284	1.030303	0.288209
C138	C	-0.200951	1.363636	0.621542
C139	C	-0.867617	0.773199	-0.045121
C140	C	-0.534284	1.106532	0.288213
C141	C	-0.200950	1.439866	0.621546
C142	C	-0.772851	0.773204	-0.139832
C143	C	-0.439518	1.106538	0.193501
C144	C	-0.106185	1.439871	0.526835
C145	C	-0.772848	0.696977	-0.139830
C146	C	-0.439515	1.030310	0.193503
C147	C	-0.106182	1.363643	0.526837
C148	C	-0.820235	0.658864	-0.092477
C149	C	-0.486902	0.992197	0.240856
C150	C	-0.153568	1.325531	0.574189
C151	C	-0.824043	-0.066016	0.147847
C152	C	-0.490710	0.267318	0.481180
C153	C	-0.157377	0.600651	0.814513
C154	C	-0.822975	-0.066021	0.220293
C155	C	-0.489642	0.267313	0.553626
C156	C	-0.156308	0.600646	0.886959
C157	C	-0.822437	-0.000011	0.256530
C158	C	-0.489103	0.333323	0.589863
C159	C	-0.155770	0.666656	0.923197
C160	C	-0.822949	0.066009	0.220313
C161	C	-0.489615	0.399342	0.553646
C162	C	-0.156282	0.732676	0.886980
C163	C	-0.824010	0.066012	0.147867
C164	C	-0.490676	0.399345	0.481201
C165	C	-0.157343	0.732679	0.814534
C166	C	-0.861432	0.050557	0.376765
C167	C	-0.528098	0.383891	0.710098
C168	C	-0.194765	0.717224	1.043431
C169	C	-0.860375	0.050552	0.449209
C170	C	-0.527042	0.383885	0.782543
C171	C	-0.193708	0.717218	1.115876
C172	C	-0.819161	-0.000017	0.479976
C173	C	-0.485827	0.333316	0.813309
C174	C	-0.152494	0.666650	1.146643
C175	C	-0.779012	-0.050593	0.438290
C176	C	-0.445679	0.282741	0.771623
C177	C	-0.112346	0.616074	1.104957
C178	C	-0.780073	-0.050590	0.365844
C179	C	-0.446740	0.282744	0.699178
C180	C	-0.113407	0.616077	1.032511
C181	C	-0.821286	-0.000007	0.335085
C182	C	-0.487952	0.333327	0.668418
C183	C	-0.154619	0.666660	1.001752
C184	C	-0.817486	-0.066038	0.594738
C185	C	-0.484152	0.267295	0.928071
C186	C	-0.150819	0.600629	1.261405
C187	C	-0.816413	-0.066040	0.667185
C188	C	-0.483080	0.267293	1.000518
C189	C	-0.149746	0.600627	1.333851
C190	C	-0.816394	0.065992	0.667205
C191	C	-0.483060	0.399325	1.000538
C192	C	-0.149727	0.732658	1.333871
C193	C	-0.817459	0.065992	0.594758
C194	C	-0.484126	0.399325	0.928092
C195	C	-0.150793	0.732658	1.261425
C196	C	-0.818008	-0.000025	0.558530
C197	C	-0.484675	0.333308	0.891863
C198	C	-0.151342	0.666642	1.225196
C199	C	-0.814742	-0.000028	0.780520
C200	C	-0.481408	0.333305	1.113853
C201	C	-0.148075	0.666639	1.447187
C202	C	-0.815874	-0.000029	0.703417
C203	C	-0.482540	0.333304	1.036750
C204	C	-0.149207	0.666637	1.370084
H205	H	-0.015666	-0.000023	-0.203077
H206	H	0.317668	0.333311	0.130256
H207	H	0.651001	0.666644	0.463589
F208	F	-0.154030	-0.000022	-0.220966
F209	F	0.179303	0.333312	0.112367
F210	F	0.512637	0.666645	0.445701
F211	F	-0.600914	-0.000026	-0.227528
F212	F	-0.267581	0.333308	0.105805
F213	F	0.065753	0.666641	0.439138
F214	F	-0.737344	-0.104412	0.321481
F215	F	-0.404010	0.228922	0.654815
F216	F	-0.070677	0.562255	0.988148
F217	F	-0.735143	-0.104414	0.471027
F218	F	-0.401809	0.228920	0.804360
F219	F	-0.068476	0.562253	1.137694
F220	F	-0.815859	-0.136302	0.705719
F221	F	-0.482526	0.197031	1.039052
F222	F	-0.149193	0.530365	1.372386
H223	H	-0.177878	-0.000023	0.024691
H224	H	0.155455	0.333311	0.358025
H225	H	0.488789	0.666644	0.691358
F226	F	-0.818066	-0.136298	0.556178
F227	F	-0.484732	0.197036	0.889511
F228	F	-0.151399	0.530369	1.222844
F229	F	-0.918050	0.813754	0.005278
F230	F	-0.584716	1.147087	0.338611
F231	F	-0.251383	1.480421	0.671944
H232	H	-0.822508	0.119755	0.249822
H233	H	-0.489175	0.453088	0.583155
H234	H	-0.155842	0.786422	0.916488
F235	F	-0.635940	-0.000017	0.033829
F236	F	-0.302607	0.333317	0.367162
F237	F	0.030726	0.666650	0.700496
H238	H	-0.397698	0.076978	-0.005448
H239	H	-0.064365	0.410311	0.327885
H240	H	0.268968	0.743644	0.661218
H241	H	-0.242719	-0.077000	-0.179501
H242	H	0.090614	0.256334	0.153832
H243	H	0.423947	0.589667	0.487165
F244	F	-0.839445	0.578677	0.038168
F245	F	-0.506112	0.912010	0.371501
F246	F	-0.172779	1.245343	0.704834
F247	F	-0.815817	0.136245	0.705766
F248	F	-0.482484	0.469578	1.039099
F249	F	-0.149150	0.802912	1.372432
F250	F	-0.918016	0.343542	0.005281
F251	F	-0.584683	0.676876	0.338614
F252	F	-0.251350	1.010209	0.671947
H253	H	-0.893069	0.091731	0.483145
H254	H	-0.559735	0.425064	0.816479
H255	H	-0.226402	0.758397	1.149812
H256	H	-0.803341	0.569102	-0.207296
H257	H	-0.470007	0.902436	0.126037
H258	H	-0.136674	1.235769	0.459370
F259	F	-0.258843	0.087548	0.008771
F260	F	0.074490	0.420881	0.342104
F261	F	0.407823	0.754215	0.675438
H262	H	-0.824488	-0.119772	0.118353
H263	H	-0.491155	0.213561	0.451687
H264	H	-0.157822	0.546895	0.785020
H265	H	-0.906158	0.195725	-0.006558
H266	H	-0.572825	0.529059	0.326775
H267	H	-0.239492	0.862392	0.660108
H268	H	-0.817885	0.119745	0.565278
H269	H	-0.484552	0.453079	0.898612
H270	H	-0.151218	0.786412	1.231945
F271	F	-0.801048	0.421286	-0.223119
F272	F	-0.467714	0.754619	0.110214
F273	F	-0.134381	1.087953	0.443548
F274	F	-0.905315	0.104371	0.344030
F275	F	-0.571981	0.437704	0.677364
F276	F	-0.238648	0.771038	1.010697
F277	F	-0.824557	0.136273	0.109331
F278	F	-0.491224	0.469607	0.442664
F279	F	-0.157891	0.802940	0.775998
F280	F	-0.486397	-0.000019	0.036024
F281	F	-0.153063	0.333314	0.369357
F282	F	0.180270	0.666647	0.702691
F283	F	-0.918048	0.656406	0.005275
F284	F	-0.584714	0.989740	0.338608
F285	F	-0.251381	1.323073	0.671942
H286	H	-0.374151	-0.076997	-0.181429
H287	H	-0.040818	0.256336	0.151904
H288	H	0.292515	0.589670	0.485238
H289	H	-0.046446	-0.000033	0.026628
H290	H	0.286888	0.333300	0.359961
H291	H	0.620221	0.666634	0.693295
H292	H	-0.462550	-0.000012	-0.209640
H293	H	-0.129217	0.333322	0.123693
H294	H	0.204116	0.666655	0.457027
F295	F	-0.839429	0.421325	0.038170
F296	F	-0.506096	0.754659	0.371503
F297	F	-0.172762	1.087992	0.704837
F298	F	-0.722427	0.813772	-0.190227
F299	F	-0.389094	1.147105	0.143106
F300	F	-0.055761	1.480438	0.476440
H301	H	-0.734265	0.665950	-0.178387
H302	H	-0.400932	0.999283	0.154946
H303	H	-0.067599	1.332617	0.488280
H304	H	-0.734236	0.334031	-0.178376
H305	H	-0.400903	0.667364	0.154957
H306	H	-0.067569	1.000698	0.488290
H307	H	-0.734215	0.195738	-0.178373
H308	H	-0.400881	0.529071	0.154960
H309	H	-0.067548	0.862404	0.488294
F310	F	-0.822425	-0.136282	0.258835
F311	F	-0.489092	0.197052	0.592169
F312	F	-0.155759	0.530385	0.925502
