data_functionalizedCrystal
_audit_creation_method	'MofGen! by Chris Wilmer'
_symmetry_space_group_name_H-M	'P1'
_symmetry_Int_Tables_number	1
_symmetry_cell_setting	triclinic
loop_
_symmetry_equiv_pos_as_xyz
  x,y,z
_cell_length_a	10.654550
_cell_length_b	15.538191
_cell_length_c	9.130313
_cell_angle_alpha	90.002806
_cell_angle_beta	89.996220
_cell_angle_gamma	65.878499
loop_
_atom_site_label
_atom_site_type_symbol
_atom_site_fract_x
_atom_site_fract_y
_atom_site_fract_z
O1	O	1.606169	0.131911	-0.121900
O2	O	1.234815	0.144479	-0.121874
O3	O	1.492779	0.001538	-0.121899
O4	O	1.348205	0.274853	-0.121875
O5	O	1.492775	0.001542	0.121700
O6	O	1.234811	0.144483	0.121725
O7	O	1.606164	0.131915	0.121699
Cu8	Cu	1.420487	0.138200	0.143954
Cu9	Cu	1.420492	0.138195	-0.144129
O10	O	1.348200	0.274856	0.121724
C11	C	1.188446	0.143559	-0.000072
C12	C	1.050294	0.140798	-0.000063
C13	C	0.931464	0.224959	-0.000077
C14	C	0.801659	0.222359	-0.000103
C15	C	0.909528	0.051429	-0.000106
C16	C	1.039331	0.054030	-0.000070
C17	C	0.869186	0.323644	-0.000082
C18	C	0.739380	0.321045	-0.000107
C19	C	1.507903	-0.033457	-0.000105
C20	C	1.552959	-0.137736	-0.000123
C21	C	1.105338	-0.428451	-0.000061
C22	C	1.147707	-0.526440	-0.000061
C23	C	1.386021	-0.547326	-0.000078
C24	C	1.343672	-0.449337	-0.000085
C25	C	1.203329	-0.389906	-0.000075
C26	C	1.441663	-0.410792	-0.000099
C27	C	1.399317	-0.312812	-0.000099
C28	C	1.258980	-0.253375	-0.000085
C29	C	1.160983	-0.291926	-0.000075
C30	C	1.582005	-0.470224	-0.000099
C31	C	1.679996	-0.431680	-0.000113
C32	C	1.637651	-0.333697	-0.000123
C33	C	1.497314	-0.274261	-0.000109
C34	C	1.735648	-0.295147	-0.000133
C35	C	1.693302	-0.197166	-0.000133
C36	C	1.454968	-0.176280	-0.000109
C37	C	1.652533	0.132836	-0.000106
C38	C	1.790686	0.135597	-0.000125
C39	C	1.333076	0.309851	-0.000073
C40	C	1.288020	0.414130	-0.000065
N41	N	1.420493	0.138202	0.346577
N42	N	1.420499	0.138185	-0.346752
C43	C	1.534731	0.074930	0.423218
C44	C	1.534733	0.074918	0.576555
C45	C	1.306251	0.201461	0.576596
C46	C	1.306246	0.201467	0.423262
C47	C	1.666646	0.001874	0.423196
C48	C	1.666648	0.001863	0.576532
H49	H	0.680267	0.358226	-0.102057
C50	C	1.834370	-0.497063	-0.000125
N51	N	1.950647	-0.546310	-0.000140
H52	H	1.678951	-0.070316	0.381571
C53	C	1.180585	0.271046	0.660964
N54	N	1.085930	0.323460	0.724508
H55	H	1.668026	-0.066356	0.624076
H56	H	1.136082	-0.014503	-0.000038
C57	C	0.897454	-0.044011	-0.000122
N58	N	0.888362	-0.115898	-0.000137
C59	C	0.884442	0.375784	0.137654
N60	N	0.895934	0.415053	0.241396
C61	C	0.897529	0.366076	-0.142170
N62	N	0.918884	0.398026	-0.249199
C63	C	1.775390	0.032770	0.358933
N64	N	1.857297	0.056042	0.310530
H65	H	1.224505	-0.173594	-0.000076
H66	H	0.679765	0.350870	0.105064
H67	H	1.340687	-0.127888	-0.000112
C68	C	1.786801	0.023674	0.632755
N69	N	1.877272	0.040129	0.675100
H70	H	1.046702	-0.243534	-0.000078
C71	C	1.180639	0.271143	0.338962
N72	N	1.086051	0.323656	0.275468
H73	H	0.991057	-0.380059	-0.000064
H74	H	1.067900	-0.557817	-0.000028
H75	H	1.500288	-0.595727	-0.000080
H76	H	1.616479	-0.550006	-0.000112
H77	H	1.849915	-0.343549	-0.000127
H78	H	1.773097	-0.165783	-0.000143
