data_functionalizedCrystal
_audit_creation_method	'MofGen! by Chris Wilmer'
_symmetry_space_group_name_H-M	'P1'
_symmetry_Int_Tables_number	1
_symmetry_cell_setting	triclinic
loop_
_symmetry_equiv_pos_as_xyz
  x,y,z
_cell_length_a	13.033293
_cell_length_b	25.639239
_cell_length_c	13.032268
_cell_angle_alpha	82.858283
_cell_angle_beta	90.920818
_cell_angle_gamma	97.207729
loop_
_atom_site_label
_atom_site_type_symbol
_atom_site_fract_x
_atom_site_fract_y
_atom_site_fract_z
Zn1	Zn	1.498347	-0.162669	0.781445
Zn2	Zn	1.520037	-0.237808	0.609454
Zn3	Zn	1.348210	-0.159908	0.587621
Zn4	Zn	1.326273	-0.259604	0.759489
O5	O	1.423217	-0.204997	0.684502
O6	O	1.645149	-0.164670	0.776955
O7	O	1.515502	-0.217197	0.462652
O8	O	1.368229	-0.087106	0.613383
O9	O	1.661084	-0.219874	0.650595
O10	O	1.478535	-0.089135	0.755785
O11	O	1.389261	-0.159964	0.446611
O12	O	1.201375	-0.181099	0.592094
O13	O	1.330841	-0.257023	0.906308
O14	O	1.185258	-0.254345	0.718365
O15	O	1.457263	-0.185805	0.922438
O16	O	1.494231	-0.313867	0.629305
O17	O	1.351873	-0.329881	0.739535
C18	C	1.155999	-0.219788	0.650478
C19	C	1.041679	-0.226130	0.635947
C20	C	0.982814	-0.201700	0.692086
C21	C	0.864658	-0.208255	0.677069
C22	C	1.423050	-0.340846	0.684433
C23	C	1.423068	-0.398960	0.684450
C24	C	1.497500	-0.750964	0.627239
C25	C	1.497538	-0.805568	0.627258
O26	O	1.560650	-0.826704	0.578541
N27	N	1.423389	-0.841231	0.684593
C28	C	1.349203	-0.822289	0.741922
O29	O	1.286138	-0.857638	0.790692
C30	C	1.349170	-0.767687	0.741908
C31	C	1.423318	-0.732026	0.684561
C32	C	1.571642	-0.715304	0.569898
C33	C	1.571603	-0.660704	0.569877
C34	C	1.497421	-0.641766	0.627199
C35	C	1.423278	-0.677427	0.684541
C36	C	1.274990	-0.748747	0.799242
C37	C	1.274964	-0.694140	0.799224
C38	C	1.349112	-0.658479	0.741876
C39	C	1.349057	-0.603889	0.741842
N40	N	1.423206	-0.568225	0.684507
C41	C	1.497388	-0.587164	0.627185
C42	C	1.349279	-0.936957	0.741947
C43	C	1.349306	-0.991558	0.741956
C44	C	1.497642	-0.974832	0.627294
C45	C	1.497610	-0.920230	0.627280
C46	C	1.423428	-0.901293	0.684612
C47	C	1.497299	-0.472502	0.627147
C48	C	1.497250	-0.417899	0.627128
C49	C	1.348917	-0.434629	0.741795
C50	C	1.348962	-0.489228	0.741809
C51	C	1.423162	-0.508162	0.684483
O52	O	1.285980	-0.582714	0.790538
O53	O	1.560451	-0.551810	0.578434
C54	C	1.691478	-0.190149	0.718660
C55	C	1.805795	-0.183821	0.733215
C56	C	1.389186	-0.224153	0.952729
C57	C	1.374684	-0.232316	1.067032
C58	C	1.423410	-0.068618	0.684598
C59	C	1.423492	-0.010501	0.684638
C60	C	1.457175	-0.185875	0.417326
C61	C	1.471876	-0.177553	0.303049
C62	C	1.430769	-0.200719	1.125973
C63	C	1.415782	-0.209155	1.244110
H64	H	1.004601	-0.251897	0.576764
Cl65	Cl	1.664836	-0.615881	0.497797
H66	H	1.019893	-0.175931	0.751263
H67	H	0.827585	-0.234023	0.617882
H68	H	1.315564	-0.265611	1.104030
Cl69	Cl	1.590578	-0.496297	0.555076
Cl70	Cl	0.863025	-0.144029	0.824585
H71	H	1.557630	-0.388863	0.580426
Cl72	Cl	1.324504	-0.260566	1.301220
Cl73	Cl	1.255729	-0.534060	0.813880
H74	H	1.288516	-0.419201	0.788462
H75	H	1.632056	-0.730716	0.523220
H76	H	1.530988	-0.144251	1.266055
H77	H	1.557987	-0.891197	0.580584
H78	H	1.558048	-0.990262	0.580623
Cl79	Cl	1.256077	-1.036383	0.814039
H80	H	1.288863	-0.921542	0.788630
H81	H	1.214607	-0.777774	0.845935
H82	H	1.214557	-0.678725	0.845914
Cl83	Cl	1.522013	-0.149297	1.068854
