data_functionalizedCrystal
_audit_creation_method	'MofGen! by Chris Wilmer'
_symmetry_space_group_name_H-M	'P1'
_symmetry_Int_Tables_number	1
_symmetry_cell_setting	triclinic
loop_
_symmetry_equiv_pos_as_xyz
  x,y,z
_cell_length_a	25.427154
_cell_length_b	25.426324
_cell_length_c	25.422586
_cell_angle_alpha	60.006367
_cell_angle_beta	60.012446
_cell_angle_gamma	59.992398
loop_
_atom_site_label
_atom_site_type_symbol
_atom_site_fract_x
_atom_site_fract_y
_atom_site_fract_z
O1	O	0.072968	-0.768436	0.642532
O2	O	0.572968	-0.268436	1.142532
O3	O	0.027520	-0.598284	0.517710
O4	O	0.527520	-0.098284	1.017710
O5	O	0.135268	-0.705940	0.517611
O6	O	0.635268	-0.205940	1.017611
O7	O	-0.034780	-0.660780	0.642632
O8	O	0.465220	-0.160780	1.142632
O9	O	0.171018	-0.670200	0.553260
O10	O	0.671018	-0.170200	1.053260
O11	O	0.063270	-0.562544	0.553360
O12	O	0.563270	-0.062544	1.053360
O13	O	0.108718	-0.732696	0.678182
O14	O	0.608718	-0.232696	1.178182
Zn15	Zn	0.091670	-0.641945	0.621431
Zn16	Zn	0.591670	-0.141945	1.121431
Zn17	Zn	0.044568	-0.689034	0.574461
Zn18	Zn	0.544568	-0.189034	1.074461
O19	O	0.000970	-0.625039	0.678281
O20	O	0.500970	-0.125039	1.178281
N21	N	0.123818	-0.609812	0.653490
N22	N	0.623818	-0.109812	1.153490
N23	N	0.012426	-0.721173	0.542402
N24	N	0.512426	-0.221173	1.042402
C25	C	0.168482	-0.466269	0.698103
C26	C	0.668482	0.033731	1.198103
C27	C	0.168494	-0.565177	0.698095
C28	C	0.668494	-0.065177	1.198095
C29	C	0.193243	-0.540453	0.722807
C30	C	0.693243	-0.040453	1.222807
C31	C	0.301113	-0.521853	0.665993
C32	C	0.801113	-0.021853	1.165993
C33	C	0.368545	-0.544324	0.643486
C34	C	0.868545	-0.044324	1.143486
C35	C	0.368579	-0.653434	0.685090
C36	C	0.868579	-0.153434	1.185090
C37	C	0.301149	-0.630961	0.707599
C38	C	0.801149	-0.130961	1.207599
C39	C	0.184722	-0.432539	0.631812
C40	C	0.684722	0.067461	1.131812
C41	C	0.162210	-0.365100	0.609357
C42	C	0.662210	0.134900	1.109357
C43	C	0.107225	-0.365129	0.719489
C44	C	0.607225	0.134871	1.219489
C45	C	0.129737	-0.432567	0.741943
C46	C	0.629737	0.067433	1.241943
C47	C	0.102194	-0.548896	0.714421
C48	C	0.602194	-0.048896	1.214421
C49	C	0.079702	-0.571372	0.691949
C50	C	0.579702	-0.071372	1.191949
C51	C	0.189805	-0.626409	0.636839
C52	C	0.689805	-0.126409	1.136839
C53	C	0.212300	-0.603934	0.659303
C54	C	0.712300	-0.103934	1.159303
C55	C	0.102289	-0.548918	0.830735
C56	C	0.602289	-0.048918	1.330735
C57	C	0.079866	-0.571415	0.898171
C58	C	0.579866	-0.071415	1.398171
C59	C	0.190015	-0.626466	0.898104
C60	C	0.690015	-0.126466	1.398104
C61	C	0.212437	-0.603971	0.830666
C62	C	0.712437	-0.103971	1.330666
C63	C	0.168573	-0.565195	0.796984
C64	C	0.668573	-0.065195	1.296984
C65	C	0.267418	-0.565170	0.698047
C66	C	0.767418	-0.065170	1.198047
C67	C	-0.130981	-0.765617	0.497386
C68	C	0.369019	-0.265617	0.997386
C69	C	-0.032127	-0.765741	0.497606
C70	C	0.467873	-0.265741	0.997606
C71	C	-0.056804	-0.790430	0.472789
C72	C	0.443196	-0.290430	0.972789
C73	C	-0.075480	-0.898263	0.529507
C74	C	0.424520	-0.398263	1.029507
C75	C	-0.053057	-0.965702	0.552014
C76	C	0.446943	-0.465702	1.052014
C77	C	0.056052	-0.965829	0.510599
C78	C	0.556052	-0.465829	1.010599
C79	C	0.033627	-0.898392	0.488091
C80	C	0.533627	-0.398392	0.988091
C81	C	-0.164787	-0.781859	0.563659
C82	C	0.335213	-0.281859	1.063659
C83	C	-0.232219	-0.759299	0.586018
C84	C	0.267781	-0.259299	1.086018
C85	C	-0.232034	-0.704261	0.475827
C86	C	0.267966	-0.204261	0.975827
C87	C	-0.164602	-0.726821	0.453469
C88	C	0.335398	-0.226821	0.953469
C89	C	-0.048372	-0.699446	0.481299
C90	C	0.451628	-0.199446	0.981299
C91	C	-0.025938	-0.677008	0.503867
C92	C	0.474062	-0.177008	1.003867
C93	C	0.028987	-0.787155	0.559036
C94	C	0.528987	-0.287155	1.059036
C95	C	0.006552	-0.809596	0.536475
C96	C	0.506552	-0.309596	1.036475
C97	C	-0.048188	-0.699454	0.364860
C98	C	0.451812	-0.199454	0.864860
C99	C	-0.025608	-0.677017	0.297425
C100	C	0.474392	-0.177017	0.797425
C101	C	0.029406	-0.787170	0.297492
C102	C	0.529406	-0.287170	0.797492
C103	C	0.006827	-0.809605	0.364929
C104	C	0.506827	-0.309605	0.864929
C105	C	-0.031972	-0.765745	0.398611
C106	C	0.468028	-0.265745	0.898611
C107	C	-0.032140	-0.864611	0.497548
C108	C	0.467860	-0.364611	0.997548
N109	N	0.401319	-0.609788	0.653344
N110	N	0.901319	-0.109788	1.153344
O111	O	0.621664	-0.620517	0.494685
O112	O	1.121664	-0.120517	0.994685
O113	O	0.621901	-0.745740	0.664659
O114	O	1.121901	-0.245740	1.164659
O115	O	0.621803	-0.745452	0.556857
O116	O	1.121803	-0.245452	1.056857
O117	O	0.621762	-0.620805	0.602487
O118	O	1.121762	-0.120805	1.102487
O119	O	0.514676	-0.709815	0.592658
O120	O	1.014676	-0.209815	1.092658
O121	O	0.514774	-0.710104	0.700460
O122	O	1.014774	-0.210104	1.200460
O123	O	0.514537	-0.584881	0.530485
O124	O	1.014537	-0.084881	1.030485
Zn125	Zn	0.497647	-0.641834	0.621157
Zn126	Zn	0.997647	-0.141834	1.121157
Zn127	Zn	0.638791	-0.688787	0.573988
Zn128	Zn	1.138791	-0.188787	1.073988
O129	O	0.514635	-0.585169	0.638287
O130	O	1.014635	-0.085169	1.138287
N131	N	0.735119	-0.720834	0.541794
N132	N	1.235119	-0.220834	1.041794
N133	N	0.123794	-0.332357	0.653504
N134	N	0.623794	0.167643	1.153504
O135	O	-0.034774	-0.111885	0.642639
O136	O	0.465226	0.388115	1.142639
O137	O	0.135202	-0.111860	0.517412
O138	O	0.635202	0.388140	1.017412
O139	O	0.027364	-0.111888	0.517742
O140	O	0.527364	0.388112	1.017742
O141	O	0.073064	-0.111857	0.642310
O142	O	0.573064	0.388143	1.142310
O143	O	0.063120	-0.219026	0.553444
O144	O	0.563120	0.280974	1.053444
O145	O	0.170958	-0.218998	0.553115
O146	O	0.670958	0.281002	1.053115
O147	O	0.000983	-0.219022	0.678342
O148	O	0.500983	0.280978	1.178342
Zn149	Zn	0.091647	-0.236020	0.621397
Zn150	Zn	0.591647	0.263980	1.121397
Zn151	Zn	0.044537	-0.094862	0.574357
Zn152	Zn	0.544537	0.405138	1.074357
O153	O	0.108821	-0.218994	0.678013
O154	O	0.608821	0.281006	1.178013
N155	N	0.012383	0.001474	0.542251
N156	N	0.512383	0.501474	1.042251
N157	N	0.124036	-0.609854	0.930891
N158	N	0.624036	-0.109854	1.430891
O159	O	0.113202	-0.768401	1.151342
O160	O	0.613202	-0.268401	1.651342
O161	O	-0.011992	-0.598359	1.151385
O162	O	0.488008	-0.098359	1.651385
O163	O	-0.011700	-0.706176	1.151343
O164	O	0.488300	-0.206176	1.651343
O165	O	0.112910	-0.660584	1.151384
O166	O	0.612910	-0.160584	1.651384
O167	O	0.023980	-0.670446	1.044212
O168	O	0.523980	-0.170446	1.544212
O169	O	0.023689	-0.562630	1.044253
O170	O	0.523689	-0.062630	1.544253
O171	O	0.148882	-0.732671	1.044211
O172	O	0.648882	-0.232671	1.544211
Zn173	Zn	0.091951	-0.641977	1.027223
Zn174	Zn	0.591951	-0.141977	1.527223
Zn175	Zn	0.044940	-0.689053	1.168373
Zn176	Zn	0.544940	-0.189053	1.668373
O177	O	0.148590	-0.624854	1.044252
O178	O	0.648590	-0.124854	1.544252
N179	N	0.012853	-0.721183	1.264704
N180	N	0.512853	-0.221183	1.764704
C181	C	0.041135	-0.558973	0.518338
C182	C	0.541135	-0.058973	1.018338
C183	C	0.174567	-0.692292	0.518215
C184	C	0.674567	-0.192292	1.018215
C185	C	0.095103	-0.772007	0.677553
C186	C	0.595103	-0.272007	1.177553
C187	C	-0.038330	-0.638687	0.677677
C188	C	0.461670	-0.138687	1.177677
C189	C	0.568366	-0.745166	0.703974
C190	C	1.068366	-0.245166	1.203974
C191	C	0.568246	-0.744810	0.570474
C192	C	1.068246	-0.244810	1.070474
C193	C	0.568069	-0.585454	0.491172
C194	C	1.068069	-0.085454	0.991172
C195	C	0.568192	-0.585812	0.624671
C196	C	1.068192	-0.085812	1.124671
C197	C	0.174449	-0.165294	0.517975
C198	C	0.674449	0.334706	1.017975
C199	C	0.040949	-0.165460	0.518427
C200	C	0.540949	0.334540	1.018427
C201	C	-0.038309	-0.165456	0.677735
C202	C	0.461691	0.334544	1.177735
C203	C	0.095236	-0.165423	0.677328
C204	C	0.595236	0.334577	1.177328
C205	C	-0.011393	-0.559072	1.097824
C206	C	0.488607	-0.059072	1.597824
C207	C	-0.011024	-0.692583	1.097752
C208	C	0.488976	-0.192583	1.597752
C209	C	0.148283	-0.771958	1.097772
C210	C	0.648283	-0.271958	1.597772
C211	C	0.147922	-0.638440	1.097820
C212	C	0.647922	-0.138440	1.597820
H213	H	0.025889	-0.558152	0.925643
H214	H	0.525889	-0.058152	1.425643
H215	H	0.187590	-0.820792	1.097751
H216	H	0.687590	-0.320792	1.597751
H217	H	0.031425	-0.510094	0.479136
H218	H	0.531425	-0.010094	0.979136
C219	C	0.240258	-0.164878	0.464728
C220	C	0.740258	0.335122	0.964728
N221	N	0.289825	-0.164563	0.424622
N222	N	0.789825	0.335437	0.924622
C223	C	0.240549	-0.705293	0.465176
C224	C	0.740549	-0.205293	0.965176
N225	N	0.290247	-0.715086	0.425228
N226	N	0.790247	-0.215086	0.925228
H227	H	-0.087172	-0.629063	0.716934
H228	H	0.412828	-0.129063	1.216934
H229	H	0.568427	-0.784476	0.752793
H230	H	1.068427	-0.284476	1.252793
C231	C	-0.063889	-0.705735	1.097673
C232	C	0.436111	-0.205735	1.597673
N233	N	-0.103706	-0.715642	1.097612
N234	N	0.396294	-0.215642	1.597612
H235	H	0.568264	-0.783967	0.560707
H236	H	1.068264	-0.283967	1.060707
H237	H	0.187070	-0.628684	1.097824
H238	H	0.687070	-0.128684	1.597824
C239	C	0.237997	-0.669045	0.594173
C240	C	0.737997	-0.169045	1.094173
N241	N	0.274298	-0.701157	0.562034
N242	N	0.774298	-0.201157	1.062034
H243	H	0.066565	-0.517338	0.803314
H244	H	0.566565	-0.017338	1.303314
C245	C	-0.064492	-0.493096	1.097838
C246	C	0.435508	0.006904	1.597838
N247	N	-0.104487	-0.443403	1.097849
N248	N	0.395513	0.056597	1.597849
C249	C	0.238272	-0.669107	0.935146
C250	C	0.738272	-0.169107	1.435146
N251	N	0.274621	-0.701225	0.963047
N252	N	0.774621	-0.201225	1.463047
H253	H	0.031160	-0.165463	0.479291
H254	H	0.531160	0.334537	0.979291
C255	C	-0.269407	-0.777166	0.658925
C256	C	0.230593	-0.277166	1.158925
N257	N	-0.297417	-0.790626	0.713838
N258	N	0.202583	-0.290626	1.213838
H259	H	0.567992	-0.546139	0.442358
H260	H	1.067992	-0.046139	0.942358
C261	C	0.285356	-0.621880	0.793545
C262	C	0.785356	-0.121880	1.293545
N263	N	0.340279	-0.635369	0.765586
N264	N	0.840279	-0.135369	1.265586
H265	H	0.066522	-0.517340	0.746005
H266	H	0.566522	-0.017340	1.246005
H267	H	0.025716	-0.558101	0.705227
H268	H	0.525716	-0.058101	1.205227
C269	C	0.264085	-0.678617	0.742857
C270	C	0.764085	-0.178617	1.242857
N271	N	0.236169	-0.714512	0.769414
N272	N	0.736169	-0.214512	1.269414
H273	H	0.568183	-0.546658	0.634434
H274	H	1.068183	-0.046658	1.134434
H275	H	0.104814	-0.820885	0.716757
H276	H	0.604814	-0.320885	1.216757
C277	C	-0.104267	-0.165427	0.730835
C278	C	0.395733	0.334573	1.230835
N279	N	-0.153952	-0.165392	0.770825
N280	N	0.346048	0.334608	1.270825
C281	C	0.108456	-0.165415	0.730199
C282	C	0.608456	0.334585	1.230199
N283	N	0.118415	-0.165409	0.770023
N284	N	0.618415	0.334591	1.270023
C285	C	0.024425	-0.882524	0.554408
C286	C	0.524425	-0.382524	1.054408
N287	N	0.037889	-0.937453	0.567912
N288	N	0.537889	-0.437453	1.067912
H289	H	0.396045	-0.707006	0.692856
H290	H	0.896045	-0.207006	1.192856
C291	C	0.285233	-0.621856	0.641361
C292	C	0.785233	-0.121856	1.141361
N293	N	0.340165	-0.635362	0.627853
N294	N	0.840165	-0.135362	1.127853
C295	C	0.072076	-0.835421	0.260449
C296	C	0.572076	-0.335421	0.760449
N297	N	0.104219	-0.871767	0.232549
N298	N	0.604219	-0.371767	0.732549
C299	C	0.405609	-0.496671	0.608223
C300	C	0.905609	0.003329	1.108223
N301	N	0.433527	-0.460777	0.581659
N302	N	0.933527	0.039223	1.081659
H303	H	0.273654	-0.468282	0.658214
H304	H	0.773654	0.031718	1.158214
C305	C	-0.090871	-0.651200	0.401908
C306	C	0.409129	-0.151200	0.901908
N307	N	-0.123017	-0.614858	0.429812
N308	N	0.376983	-0.114858	0.929812
C309	C	0.180073	-0.327994	0.536429
C310	C	0.680073	0.172006	1.036429
N311	N	0.193531	-0.300047	0.481500
N312	N	0.693531	0.199953	0.981500
C313	C	0.064580	-0.328054	0.767715
C314	C	0.564580	0.171946	1.267715
N315	N	0.032446	-0.300130	0.804039
N316	N	0.532446	0.199870	1.304039
C317	C	0.227339	-0.469610	0.583586
C318	C	0.727339	0.030390	1.083586
N319	N	0.259438	-0.497532	0.547260
N320	N	0.759438	0.002468	1.047260
H321	H	0.116505	-0.460032	0.795926
H322	H	0.616505	0.039968	1.295926
H323	H	0.020039	-0.863588	0.392405
H324	H	0.520039	-0.363588	0.892405
C325	C	-0.043463	-0.604088	0.260309
C326	C	0.456537	-0.104088	0.760309
N327	N	-0.056913	-0.549159	0.232351
N328	N	0.443087	-0.049159	0.732351
H329	H	-0.039168	-0.623025	0.490592
H330	H	0.460832	-0.123025	0.990592
C331	C	0.081308	-0.861376	0.452938
C332	C	0.581308	-0.361376	0.952938
N333	N	0.117223	-0.833496	0.426462
N334	N	0.617223	-0.333496	0.926462
C335	C	0.128400	-1.002990	0.500199
C336	C	0.628400	-0.502990	1.000199
N337	N	0.182892	-1.030979	0.492363
N338	N	0.682892	-0.530979	0.992363
C339	C	-0.100737	-1.002718	0.587186
C340	C	0.399263	-0.502718	1.087186
N341	N	-0.136653	-1.030601	0.613683
N342	N	0.363347	-0.530601	1.113683
C343	C	0.071559	-0.835403	0.601765
C344	C	0.571559	-0.335403	1.101765
N345	N	0.103631	-0.871745	0.633943
N346	N	0.603631	-0.371745	1.133943
H347	H	-0.079862	-0.663733	0.449648
H348	H	0.420138	-0.163733	0.949648
H349	H	-0.137414	-0.813456	0.599420
H350	H	0.362586	-0.313456	1.099420
C351	C	-0.147827	-0.861110	0.539911
C352	C	0.352173	-0.361110	1.039911
N353	N	-0.202319	-0.833126	0.547746
N354	N	0.297681	-0.333126	1.047746
H355	H	-0.259410	-0.672678	0.440065
H356	H	0.240590	-0.172678	0.940065
H357	H	-0.137077	-0.713589	0.399501
H358	H	0.362923	-0.213589	0.899501
