data_functionalizedCrystal
_audit_creation_method	'MofGen! by Chris Wilmer'
_symmetry_space_group_name_H-M	'P1'
_symmetry_Int_Tables_number	1
_symmetry_cell_setting	triclinic
loop_
_symmetry_equiv_pos_as_xyz
  x,y,z
_cell_length_a	16.625547
_cell_length_b	16.625545
_cell_length_c	12.759393
_cell_angle_alpha	90.032830
_cell_angle_beta	90.026979
_cell_angle_gamma	90.025495
loop_
_atom_site_label
_atom_site_type_symbol
_atom_site_fract_x
_atom_site_fract_y
_atom_site_fract_z
Zn1	Zn	1.232680	-0.320964	0.594172
Zn2	Zn	1.232571	-0.455818	0.418485
Zn3	Zn	1.097837	-0.321003	0.418489
Zn4	Zn	1.097805	-0.455758	0.594104
O5	O	1.165224	-0.388386	0.506313
O6	O	1.345498	-0.338861	0.570894
O7	O	1.214666	-0.437976	0.271465
O8	O	1.115783	-0.208165	0.441824
O9	O	1.345418	-0.437938	0.441818
O10	O	1.214852	-0.208137	0.570898
O11	O	1.115677	-0.338928	0.271467
O12	O	0.985001	-0.338870	0.441758
O13	O	1.115729	-0.437836	0.741134
O14	O	0.984977	-0.437874	0.570781
O15	O	1.214821	-0.338803	0.741184
O16	O	1.214635	-0.568643	0.441751
O17	O	1.115623	-0.568598	0.570778
C18	C	0.955733	-0.388370	0.506263
C19	C	0.866112	-0.388383	0.506267
C20	C	0.793329	-0.388384	0.506280
C21	C	0.702021	-0.388389	0.506306
C22	C	0.629244	-0.388396	0.506333
C23	C	0.537930	-0.388402	0.506358
C24	C	1.165136	-0.597877	0.506280
C25	C	1.165172	-0.687498	0.506301
C26	C	1.165204	-0.760280	0.506321
C27	C	1.165250	-0.851589	0.506345
C28	C	1.165292	-0.924365	0.506358
C29	C	1.165338	-1.015679	0.506380
C30	C	1.375532	-0.388402	0.506363
C31	C	1.465153	-0.388409	0.506385
C32	C	1.165284	-0.388308	0.780346
C33	C	1.165310	-0.388275	0.897123
C34	C	1.165333	-0.178077	0.506369
C35	C	1.165380	-0.088456	0.506393
C36	C	1.165210	-0.388405	0.233345
C37	C	1.165340	-0.388211	0.116569
C38	C	1.216911	-0.336701	0.952013
C39	C	1.216924	-0.336666	1.061737
C40	C	1.113734	-0.439787	1.061672
C41	C	1.113716	-0.439817	0.951950
C42	C	1.245808	-0.241536	1.211724
C43	C	1.297422	-0.189968	1.266618
C44	C	1.376098	-0.177606	1.231038
C45	C	1.403177	-0.216823	1.140566
C46	C	1.351568	-0.268397	1.085678
C47	C	1.272880	-0.280743	1.121256
C48	C	1.084841	-0.534949	0.801961
C49	C	1.033235	-0.586527	0.747071
C50	C	0.954557	-0.598898	0.782648
C51	C	0.927481	-0.559695	0.873124
C52	C	0.979087	-0.508116	0.928013
C53	C	1.057764	-0.495745	0.892428
H54	H	1.373616	-0.300330	1.012021
O55	O	1.268217	-0.147656	1.364184
H56	H	1.204828	-0.164899	1.379692
O57	O	1.488043	-0.203503	1.102198
H58	H	1.519380	-0.161050	1.155561
O59	O	1.160942	-0.254861	1.250089
H60	H	1.150792	-0.218936	1.322225
H61	H	1.071730	-0.481753	1.106325
O62	O	1.272556	-0.281108	0.892882
H63	H	1.263884	-0.289798	0.807362
O64	O	1.431766	-0.121977	1.290228
H65	H	1.399718	-0.096780	1.359107
O66	O	1.062446	-0.628778	0.649463
H67	H	1.024323	-0.610982	0.581918
O68	O	0.898894	-0.654525	0.723440
H69	H	0.879587	-0.704250	0.775717
O70	O	0.949886	-0.465820	1.025592
H71	H	0.886503	-0.483079	1.041109
O72	O	0.842618	-0.573025	0.911504
H73	H	0.811280	-0.615468	0.858130
O74	O	1.169707	-0.521606	0.763591
H75	H	1.179869	-0.557544	0.691469
