data_functionalizedCrystal
_audit_creation_method	'MofGen! by Chris Wilmer'
_symmetry_space_group_name_H-M	'P1'
_symmetry_Int_Tables_number	1
_symmetry_cell_setting	triclinic
loop_
_symmetry_equiv_pos_as_xyz
  x,y,z
_cell_length_a	17.038272
_cell_length_b	10.723024
_cell_length_c	9.198806
_cell_angle_alpha	90.003648
_cell_angle_beta	89.996565
_cell_angle_gamma	92.210287
loop_
_atom_site_label
_atom_site_type_symbol
_atom_site_fract_x
_atom_site_fract_y
_atom_site_fract_z
O1	O	0.109720	-1.667337	-0.120885
O2	O	0.609720	-1.167337	0.379115
O3	O	0.120222	-1.305156	-0.120890
O4	O	0.620222	-0.805156	0.379110
O5	O	0.001144	-1.484094	-0.120876
O6	O	0.501144	-0.984094	0.379124
O7	O	0.228799	-1.488399	-0.120899
O8	O	0.728799	-0.988399	0.379101
O9	O	0.001144	-1.484079	0.120909
O10	O	0.501144	-0.984079	0.620909
O11	O	0.120222	-1.305141	0.120895
O12	O	0.620222	-0.805141	0.620895
O13	O	0.109720	-1.667322	0.120900
O14	O	0.609720	-1.167322	0.620900
Cu15	Cu	0.114971	-1.486230	0.142975
Cu16	Cu	0.614971	-0.986230	0.642975
Cu17	Cu	0.114971	-1.486248	-0.142964
Cu18	Cu	0.614971	-0.986248	0.357036
O19	O	0.228798	-1.488384	0.120886
O20	O	0.728798	-0.988384	0.620886
C21	C	-0.028006	-1.480171	0.000016
C22	C	0.471994	-0.980171	0.500016
C23	C	-0.114864	-1.468489	0.000016
C24	C	0.385136	-0.968489	0.500016
C25	C	0.119458	-1.258578	0.000002
C26	C	0.619458	-0.758578	0.500002
C27	C	0.117171	-1.119813	0.000000
C28	C	0.617171	-0.619813	0.500000
C29	C	0.110484	-1.713900	0.000005
C30	C	0.610484	-1.213900	0.500005
C31	C	0.112771	-1.852666	-0.000003
C32	C	0.612771	-1.352666	0.499997
C33	C	-0.164385	-1.575744	0.000019
C34	C	0.335615	-1.075744	0.500019
C35	C	-0.245996	-1.564760	0.000005
C36	C	0.254004	-1.064760	0.500005
C37	C	-0.278084	-1.446520	-0.000002
C38	C	0.221916	-0.946520	0.499998
C39	C	-0.228557	-1.339256	-0.000009
C40	C	0.271443	-0.839256	0.499991
C41	C	-0.146947	-1.350241	-0.000006
C42	C	0.353053	-0.850241	0.499994
C43	C	-0.524057	-1.407711	-0.000022
C44	C	-0.024057	-0.907711	0.499978
C45	C	-0.605673	-1.396734	-0.000021
C46	C	-0.105673	-0.896734	0.499979
C47	C	-0.623107	-1.622239	-0.000010
C48	C	-0.123107	-1.122239	0.499990
C49	C	-0.541495	-1.633214	0.000002
C50	C	-0.041495	-1.133214	0.500002
C51	C	-0.491974	-1.525950	-0.000013
C52	C	0.008026	-1.025950	0.499987
C53	C	-0.361504	-1.435289	-0.000011
C54	C	0.138496	-0.935289	0.499989
C55	C	-0.408556	-1.537182	-0.000014
C56	C	0.091444	-1.037182	0.499986
C57	C	0.257948	-1.492307	-0.000009
C58	C	0.757948	-0.992307	0.499991
C59	C	0.344806	-1.503989	-0.000018
C60	C	0.844806	-1.003989	0.499982
N61	N	0.114970	-1.486226	0.344089
N62	N	0.614970	-0.986226	0.844089
C63	C	0.183801	-1.050993	-0.000007
C64	C	0.683801	-0.550993	0.499993
C65	C	0.181440	-0.907571	-0.000009
C66	C	0.681440	-0.407571	0.499991
N67	N	0.114966	-1.486261	-0.344078
N68	N	0.614966	-0.986261	0.155922
C69	C	0.064752	-1.561337	0.416291
C70	C	0.564752	-1.061337	0.916291
C71	C	0.064749	-1.561356	0.583704
C72	C	0.564749	-1.061356	1.083704
H73	H	-0.138265	-1.672028	0.000033
H74	H	0.361735	-1.172028	0.500033
Br75	Br	0.186638	-1.379082	0.552449
Br76	Br	0.686638	-0.879082	1.052449
Br77	Br	-0.497952	-1.793689	-0.000035
Br78	Br	0.002048	-1.293689	0.499965
H79	H	-0.286314	-1.652100	0.000011
H80	H	0.213686	-1.152100	0.500011
Br81	Br	-0.690316	-1.767803	0.000010
Br82	Br	-0.190316	-1.267803	0.500010
Br83	Br	-0.649221	-1.236254	-0.000015
Br84	Br	-0.149221	-0.736254	0.499985
H85	H	0.238480	-0.848415	-0.000021
H86	H	0.738480	-0.348415	0.499979
Br87	Br	0.017690	-0.951247	-0.000009
Br88	Br	0.517690	-0.451247	0.499991
H89	H	-0.483747	-1.320369	-0.000034
H90	H	0.016253	-0.820369	0.499966
Br91	Br	-0.007106	-1.668162	0.312763
Br92	Br	0.492894	-1.168162	0.812763
H93	H	-0.254689	-1.242982	-0.000024
H94	H	0.245311	-0.742982	0.499976
Br95	Br	-0.079738	-1.204674	-0.000021
Br96	Br	0.420262	-0.704674	0.499979
H97	H	0.058378	-1.072552	-0.000031
H98	H	0.558378	-0.572552	0.499969
Br99	Br	-0.006908	-1.668553	0.687185
Br100	Br	0.493092	-1.168553	1.187185
H101	H	-0.382426	-1.633453	-0.000040
H102	H	0.117574	-1.133453	0.499960
Br103	Br	-0.405059	-1.274824	-0.000034
Br104	Br	0.094941	-0.774824	0.499966
H105	H	0.242594	-1.098254	-0.000005
H106	H	0.742594	-0.598254	0.499995
H107	H	0.157959	-1.421931	0.406212
H108	H	0.657959	-0.921931	0.906212
