data_functionalizedCrystal
_audit_creation_method	'MofGen! by Chris Wilmer'
_symmetry_space_group_name_H-M	'P1'
_symmetry_Int_Tables_number	1
_symmetry_cell_setting	triclinic
loop_
_symmetry_equiv_pos_as_xyz
  x,y,z
_cell_length_a	12.645331
_cell_length_b	12.759394
_cell_length_c	12.759387
_cell_angle_alpha	90.024156
_cell_angle_beta	89.971995
_cell_angle_gamma	90.000432
loop_
_atom_site_label
_atom_site_type_symbol
_atom_site_fract_x
_atom_site_fract_y
_atom_site_fract_z
Zn1	Zn	-1.620844	-0.418308	0.594264
Zn2	Zn	-1.620770	-0.594025	0.418605
Zn3	Zn	-1.443557	-0.418350	0.418578
Zn4	Zn	-1.443585	-0.593935	0.594221
O5	O	-1.532189	-0.506154	0.506417
O6	O	-1.769181	-0.441637	0.570991
O7	O	-1.597219	-0.570776	0.271580
O8	O	-1.467094	-0.271323	0.441889
O9	O	-1.769127	-0.570736	0.441935
O10	O	-1.597345	-0.271292	0.570965
O11	O	-1.467022	-0.441709	0.271560
O12	O	-1.295214	-0.441621	0.441848
O13	O	-1.467142	-0.570582	0.741248
O14	O	-1.295234	-0.570623	0.570892
O15	O	-1.597373	-0.441550	0.741279
O16	O	-1.597247	-0.741034	0.441894
O17	O	-1.467070	-0.740968	0.570918
C18	C	-1.256759	-0.506118	0.506363
C19	C	-1.138929	-0.506127	0.506365
C20	C	-1.093999	-0.424843	0.425312
C21	C	-0.971439	-0.424535	0.425579
C22	C	-0.971093	-0.476582	0.617255
C23	C	-1.093691	-0.475982	0.616759
C24	C	-1.093742	-0.617183	0.477553
C25	C	-0.971135	-0.616595	0.475138
C26	C	-1.532182	-0.779122	0.506427
C27	C	-1.532276	-0.895898	0.506467
C28	C	-1.532269	-0.506051	0.780450
C29	C	-1.532303	-0.506007	0.897227
C30	C	-0.808694	-0.506176	0.506451
C31	C	-0.926524	-0.506144	0.506412
C32	C	-1.532225	-0.232121	0.506429
C33	C	-1.532240	-0.115344	0.506435
C34	C	-1.396618	-0.115357	0.372019
C35	C	-1.328820	-0.060502	0.304814
C36	C	-1.328839	0.049220	0.304823
C37	C	-1.396661	0.104089	0.372047
C38	C	-1.464459	0.049235	0.439252
C39	C	-1.464435	-0.060489	0.439233
C40	C	-1.600074	0.049247	0.573672
C41	C	-1.600062	-0.060475	0.573659
C42	C	-1.667897	0.104117	0.640896
C43	C	-1.735702	0.049262	0.708097
C44	C	-1.735681	-0.060466	0.708084
C45	C	-1.667860	-0.115329	0.640864
C46	C	-1.532170	-0.506181	0.233449
C47	C	-1.532341	-0.505929	0.116673
C48	C	-1.667922	-0.371655	0.897280
C49	C	-1.735746	-0.304463	0.952167
C50	C	-1.735772	-0.304424	1.061889
C51	C	-1.667964	-0.371583	1.116726
C52	C	-1.600140	-0.438775	1.061838
C53	C	-1.600123	-0.438808	0.952114
C54	C	-1.464517	-0.573121	1.061786
C55	C	-1.464495	-0.573166	0.952064
C56	C	-1.396709	-0.640280	1.116623
C57	C	-1.328889	-0.707479	1.061736
C58	C	-1.328867	-0.707515	0.952007
C59	C	-1.396671	-0.640358	0.897177
H60	H	-0.942001	-0.638895	0.393562
H61	H	-1.790913	0.093943	0.762831
N62	N	-1.804936	-0.116479	0.776748
N63	N	-1.865476	-0.067472	0.836761
H64	H	-1.914389	-0.107026	0.885258
N65	N	-0.932776	-0.696589	0.543763
N66	N	-0.871668	-0.673392	0.617169
H67	H	-0.844577	-0.729885	0.665644
H68	H	-1.396664	-0.640386	0.807836
N69	N	-1.667937	0.216194	0.640916
N70	N	-1.728497	0.265168	0.700937
H71	H	-1.728531	0.344325	0.700953
N72	N	-1.667897	-0.371718	0.785202
N73	N	-1.690022	-0.453699	0.736234
H74	H	-1.690006	-0.453744	0.657077
H75	H	-1.790993	-0.249704	1.106578
H76	H	-1.122288	-0.394817	0.641115
N77	N	-1.396627	-0.227434	0.371985
N78	N	-1.418776	-0.276424	0.290028
H79	H	-1.418787	-0.355580	0.290000
H80	H	-1.124804	-0.343019	0.444194
N81	N	-1.667858	-0.227406	0.640834
N82	N	-1.689997	-0.276405	0.558879
H83	H	-1.689995	-0.355561	0.558856
N84	N	-1.130206	-0.693142	0.551610
N85	N	-1.189214	-0.665749	0.625317
H86	H	-1.214972	-0.719387	0.677624
N87	N	-1.259571	0.105242	0.236179
N88	N	-1.199016	0.056247	0.176170
H89	H	-1.150094	0.095811	0.127690
H90	H	-1.273598	-0.105189	0.250083
N91	N	-1.805023	-0.235879	0.896153
N92	N	-1.902843	-0.242870	0.908436
H93	H	-1.951770	-0.194432	0.868880
N94	N	-1.668005	-0.371531	1.228803
N95	N	-1.750706	-0.393483	1.277800
H96	H	-1.750736	-0.393445	1.356956
N97	N	-0.933638	-0.447683	0.322489
N98	N	-0.997801	-0.464177	0.249840
H99	H	-0.971111	-0.480524	0.177027
H100	H	-1.396731	-0.640240	1.205964
N101	N	-1.259630	-0.776056	1.117764
N102	N	-1.259653	-0.776002	1.215730
H103	H	-1.210738	-0.824436	1.255305
H104	H	-1.396661	0.193430	0.372058
N105	N	-1.259568	-0.776149	0.895961
N106	N	-1.199033	-0.836096	0.944939
H107	H	-1.150088	-0.884570	0.905361
H108	H	-1.124614	-0.644179	0.398075
H109	H	-1.123406	-0.443079	0.342862
H110	H	-1.123420	-0.532636	0.679240
N111	N	-0.934651	-0.321302	0.449567
N112	N	-0.999522	-0.249259	0.466171
H113	H	-0.973543	-0.176345	0.483113
H114	H	-0.942008	-0.533980	0.679318
H115	H	-0.940393	-0.396314	0.642041
