data_functionalizedCrystal
_audit_creation_method	'MofGen! by Chris Wilmer'
_symmetry_space_group_name_H-M	'P1'
_symmetry_Int_Tables_number	1
_symmetry_cell_setting	triclinic
loop_
_symmetry_equiv_pos_as_xyz
  x,y,z
_cell_length_a	10.685727
_cell_length_b	10.686203
_cell_length_c	10.685314
_cell_angle_alpha	89.693711
_cell_angle_beta	89.684520
_cell_angle_gamma	80.944145
loop_
_atom_site_label
_atom_site_type_symbol
_atom_site_fract_x
_atom_site_fract_y
_atom_site_fract_z
Zn1	Zn	-1.922070	0.711619	-0.806164
Zn2	Zn	-1.422070	1.211619	-0.306164
Zn3	Zn	-1.954166	0.907998	-0.582603
Zn4	Zn	-1.454166	1.407998	-0.082603
Zn5	Zn	-1.725716	0.679480	-0.582611
Zn6	Zn	-1.225716	1.179480	-0.082611
Zn7	Zn	-1.728192	0.905402	-0.776442
Zn8	Zn	-1.228192	1.405402	-0.276442
O9	O	-1.832536	0.801125	-0.686955
O10	O	-1.332536	1.301125	-0.186955
O11	O	-2.103074	0.752206	-0.788944
O12	O	-1.603074	1.252206	-0.288944
O13	O	-1.936258	0.865321	-0.407925
O14	O	-1.436258	1.365321	0.092075
O15	O	-1.737295	0.507009	-0.624708
O16	O	-1.237295	1.007009	-0.124708
O17	O	-2.126654	0.896485	-0.624695
O18	O	-1.626654	1.396485	-0.124695
O19	O	-1.881555	0.530622	-0.788951
O20	O	-1.381555	1.030622	-0.288951
O21	O	-1.768417	0.697430	-0.407930
O22	O	-1.268417	1.197430	0.092070
O23	O	-1.549299	0.694913	-0.595887
O24	O	-1.049299	1.194913	-0.095887
O25	O	-1.741514	0.892060	-0.955064
O26	O	-1.241514	1.392060	-0.455064
O27	O	-1.551118	0.860896	-0.738294
O28	O	-1.051118	1.360896	-0.238294
O29	O	-1.883956	0.749689	-0.976901
O30	O	-1.383956	1.249689	-0.476901
O31	O	-1.938658	1.084388	-0.595874
O32	O	-1.438658	1.584388	-0.095874
O33	O	-1.772636	1.082481	-0.738286
O34	O	-1.272636	1.582481	-0.238286
C35	C	-1.504380	0.774136	-0.663867
C36	C	-1.004380	1.274136	-0.163867
C37	C	-1.363994	0.762623	-0.654017
C38	C	-0.863994	1.262623	-0.154017
C39	C	-1.859431	1.129264	-0.663884
C40	C	-1.359431	1.629264	-0.163884
C41	C	-1.871049	1.269656	-0.654064
C42	C	-1.371049	1.769656	-0.154064
C43	C	-1.161974	0.828211	-0.710123
C44	C	-0.661974	1.328211	-0.210123
C45	C	-1.302361	0.839729	-0.719966
C46	C	-0.802361	1.339729	-0.219966
C47	C	-1.809431	0.824170	-1.012541
C48	C	-1.309431	1.324170	-0.512541
C49	C	-1.799585	0.833991	-1.151287
C50	C	-1.299585	1.333991	-0.651287
C51	C	-1.805555	1.471709	-0.710158
C52	C	-1.305555	1.971709	-0.210158
C53	C	-1.794024	1.331331	-0.720077
C54	C	-1.294024	1.831331	-0.220077
C55	C	-1.855617	0.778084	-0.362647
C56	C	-1.355617	1.278084	0.137353
C57	C	-1.865678	0.767928	-0.223944
C58	C	-1.365678	1.267928	0.276056
H59	H	-1.309360	0.687793	-0.590029
H60	H	-0.809360	1.187793	-0.090029
H61	H	-1.945878	1.324263	-0.590020
H62	H	-1.445878	1.824263	-0.090020
H63	H	-1.735464	0.898060	-1.195226
H64	H	-1.235464	1.398060	-0.695226
O65	O	-1.950620	0.683050	-1.165747
O66	O	-1.450620	1.183050	-0.665747
H67	H	-1.892999	0.609989	-1.106882
H68	H	-1.392999	1.109989	-0.606882
O69	O	-1.374726	0.938835	-0.804760
O70	O	-0.874726	1.438835	-0.304760
H71	H	-1.444056	1.003926	-0.748455
H72	H	-0.944056	1.503926	-0.248455
O73	O	-1.694903	1.259021	-0.804910
O74	O	-1.194903	1.759021	-0.304910
H75	H	-1.701037	1.156403	-0.799585
H76	H	-1.201037	1.656403	-0.299585
