data_functionalizedCrystal
_audit_creation_method	'MofGen! by Chris Wilmer'
_symmetry_space_group_name_H-M	'P1'
_symmetry_Int_Tables_number	1
_symmetry_cell_setting	triclinic
loop_
_symmetry_equiv_pos_as_xyz
  x,y,z
_cell_length_a	15.944493
_cell_length_b	19.188924
_cell_length_c	15.021413
_cell_angle_alpha	90.001940
_cell_angle_beta	89.993251
_cell_angle_gamma	83.308504
loop_
_atom_site_label
_atom_site_type_symbol
_atom_site_fract_x
_atom_site_fract_y
_atom_site_fract_z
O1	O	1.114220	0.089846	-0.074024
O2	O	0.869622	0.100990	-0.074029
O3	O	0.998983	-0.006221	-0.074016
O4	O	0.984860	0.197057	-0.074037
O5	O	0.998962	-0.006205	0.074048
O6	O	0.869601	0.101006	0.074035
O7	O	1.114200	0.089861	0.074040
Zn8	Zn	0.991897	0.095436	0.097546
Zn9	Zn	0.991924	0.095416	-0.097535
O10	O	0.984839	0.197073	0.074027
C11	C	0.838319	0.100543	0.000002
C12	C	0.745075	0.099177	0.000001
C13	C	0.509077	0.162284	-0.000006
C14	C	0.458637	0.128260	0.073004
C15	C	0.574364	0.096647	0.000003
C16	C	0.458662	0.128230	-0.072975
C17	C	0.409463	0.094207	0.000001
C18	C	0.525152	0.062641	0.073074
C19	C	0.525180	0.062620	-0.072971
C20	C	0.474773	0.028548	0.000057
C21	C	0.669358	0.098054	0.000005
C22	C	0.314472	0.092795	0.000005
C23	C	0.998516	-0.032225	0.000017
C24	C	0.997146	-0.109733	0.000019
C25	C	0.996518	-0.146142	-0.080691
C26	C	0.995219	-0.218968	-0.080698
C27	C	0.994565	-0.255384	0.000010
C28	C	0.995188	-0.218966	0.080731
C29	C	0.996479	-0.146141	0.080735
N30	N	1.040330	-0.374931	0.060080
N31	N	1.039106	-0.444112	0.060070
C32	C	0.990674	-0.474803	0.000001
N33	N	0.943523	-0.433700	-0.060071
N34	N	0.944751	-0.364512	-0.060064
C35	C	0.993164	-0.334351	0.000014
C36	C	0.988636	-0.590177	-0.080721
C37	C	0.987331	-0.663004	-0.080725
C38	C	0.987309	-0.663001	0.080706
C39	C	0.988605	-0.590175	0.080707
C40	C	0.989272	-0.553768	-0.000009
C41	C	1.145503	0.090309	0.000006
C42	C	1.238747	0.091675	0.000002
C43	C	0.985306	0.223077	-0.000008
C44	C	0.986676	0.300585	-0.000016
N45	N	0.991885	0.095449	0.230683
N46	N	0.991944	0.095397	-0.230673
C47	C	0.932059	0.145000	0.470361
C48	C	1.007911	0.158542	0.529695
C49	C	0.991907	0.095432	0.412290
C50	C	0.916076	0.081906	0.529698
C51	C	0.991921	0.095417	0.587714
C52	C	1.067796	0.109005	0.470318
C53	C	0.975911	0.032341	0.470316
C54	C	1.051817	0.045856	0.529623
C55	C	0.991897	0.095442	0.311233
C56	C	0.991939	0.095406	0.688770
H57	H	0.554075	0.034944	0.134860
O58	O	0.420155	0.164984	0.154758
H59	H	0.387916	0.127469	0.194884
O60	O	1.152770	0.124239	0.435927
H61	H	1.152086	0.124154	0.362040
H62	H	0.996987	-0.116497	0.146461
O63	O	0.529515	0.237169	0.000078
H64	H	0.469950	0.273419	0.000752
O65	O	0.865083	0.200565	0.435888
H66	H	0.865269	0.199750	0.362005
H67	H	0.459520	-0.028034	0.000105
O68	O	1.118930	-0.009679	0.563894
H69	H	1.181780	0.001713	0.539985
H70	H	0.429628	0.155956	-0.134691
H71	H	0.554239	0.034915	-0.134693
O72	O	1.025825	0.229196	0.564300
H73	H	0.976048	0.270259	0.540590
H74	H	0.997059	-0.116503	-0.146416
H75	H	0.962345	-0.020989	0.444213
O76	O	0.994543	-0.258252	-0.167752
H77	H	0.995227	-0.220701	-0.223877
H78	H	0.851941	0.070472	0.555783
H79	H	0.994653	-0.248620	0.146444
O80	O	0.989339	-0.550899	-0.167773
H81	H	0.988668	-0.588453	-0.223899
H82	H	0.986815	-0.692646	-0.146451
O83	O	0.986610	-0.702267	0.167760
H84	H	0.985613	-0.759026	0.154199
H85	H	0.989124	-0.560532	0.146430
