data_functionalizedCrystal
_audit_creation_method	'MofGen! by Chris Wilmer'
_symmetry_space_group_name_H-M	'P1'
_symmetry_Int_Tables_number	1
_symmetry_cell_setting	triclinic
loop_
_symmetry_equiv_pos_as_xyz
  x,y,z
_cell_length_a	29.839131
_cell_length_b	16.120542
_cell_length_c	16.120297
_cell_angle_alpha	89.872913
_cell_angle_beta	92.867727
_cell_angle_gamma	92.867415
loop_
_atom_site_label
_atom_site_type_symbol
_atom_site_fract_x
_atom_site_fract_y
_atom_site_fract_z
Zn1	Zn	-0.227649	-1.247314	-0.534556
Zn2	Zn	-0.299166	-1.254224	-0.395487
Zn3	Zn	-0.220053	-1.115308	-0.388473
Zn4	Zn	-0.298746	-1.108180	-0.527454
O5	O	-0.261404	-1.181256	-0.461492
O6	O	-0.240491	-1.364595	-0.522017
O7	O	-0.285668	-1.241671	-0.278192
O8	O	-0.158197	-1.132910	-0.407888
O9	O	-0.293034	-1.369672	-0.419844
O10	O	-0.163778	-1.229894	-0.515215
O11	O	-0.227544	-1.139610	-0.273038
O12	O	-0.227137	-0.997998	-0.401000
O13	O	-0.292319	-1.120761	-0.644761
O14	O	-0.284953	-0.992761	-0.503109
O15	O	-0.240084	-1.222982	-0.649979
O16	O	-0.361974	-1.234759	-0.412956
O17	O	-0.361666	-1.127461	-0.509911
C18	C	-0.255175	-0.965207	-0.450523
C19	C	-0.252522	-0.872779	-0.445850
C20	C	-0.378121	-1.181108	-0.461444
C21	C	-0.428056	-1.181119	-0.461454
C22	C	-0.275152	-0.659805	-0.485687
C23	C	-0.247682	-0.703558	-0.437318
C24	C	-0.250376	-0.797721	-0.442067
C25	C	-0.272459	-0.565633	-0.480939
C26	C	-0.737857	-1.237219	-0.411091
C27	C	-0.925533	-1.237320	-0.411128
O28	O	-0.949928	-1.284900	-0.368269
N29	N	-0.948852	-1.181425	-0.461564
C30	C	-0.925249	-1.125505	-0.511998
O31	O	-0.949390	-1.077972	-0.554904
C32	C	-0.737573	-1.125409	-0.511964
C33	C	-0.714257	-1.181302	-0.461519
C34	C	-0.714540	-1.293107	-0.360650
C35	C	-0.667623	-1.293079	-0.360638
C36	C	-0.644023	-1.237161	-0.411066
C37	C	-0.667340	-1.181273	-0.461507
C38	C	-0.713971	-1.069494	-0.562402
C39	C	-0.667049	-1.069476	-0.562391
C40	C	-0.643733	-1.125368	-0.511946
C41	C	-0.596824	-1.125326	-0.511923
N42	N	-0.573505	-1.181221	-0.461487
C43	C	-0.597105	-1.237138	-0.411059
C44	C	-1.023781	-1.125559	-0.512011
C45	C	-1.070700	-1.125582	-0.512018
C46	C	-1.070981	-1.237398	-0.411149
C47	C	-1.024062	-1.237370	-0.411138
C48	C	-1.000463	-1.181453	-0.461575
C49	C	-0.498577	-1.237073	-0.411036
C50	C	-0.451656	-1.237037	-0.411026
C51	C	-0.451379	-1.125224	-0.511898
C52	C	-0.498295	-1.125257	-0.511905
C53	C	-0.521893	-1.181188	-0.461472
O54	O	-0.572401	-1.077777	-0.554766
O55	O	-0.572957	-1.284677	-0.368173
C56	C	-0.784773	-1.237248	-0.411103
C57	C	-0.808090	-1.181359	-0.461543
C58	C	-0.784490	-1.125442	-0.511972
C59	C	-0.855008	-1.181382	-0.461551
C60	C	-0.878608	-1.237300	-0.411123
C61	C	-0.855290	-1.293194	-0.360687
C62	C	-0.808373	-1.293165	-0.360675
C63	C	-0.807809	-1.069547	-0.562408
C64	C	-0.854725	-1.069580	-0.562415
C65	C	-0.878325	-1.125498	-0.511987
C66	C	-0.144232	-1.181427	-0.461561
C67	C	-0.094300	-1.181499	-0.461590
C68	C	-0.267002	-1.170306	-0.678386
C69	C	-0.269388	-1.165639	-0.770812
C70	C	-0.267654	-0.398150	-0.472493
C71	C	-0.270311	-0.490578	-0.477151
C72	C	-0.273733	-1.157089	-0.940036
C73	C	-0.248944	-1.205587	-0.983809
C74	C	-0.251362	-1.200830	-1.077971
C75	C	-0.271316	-1.161845	-0.845866
C76	C	-0.255796	-1.192212	-0.245446
C77	C	-0.253288	-1.197040	-0.153027
H78	H	-0.222141	-0.670297	-0.392341
H79	H	-1.090204	-1.282928	-0.370089
C80	C	-0.309657	-0.704732	-0.546435
H81	H	-0.306965	-0.763044	-0.541687
H82	H	-0.304180	-0.687750	-0.601632
H83	H	-0.339117	-0.691136	-0.533448
H84	H	-0.432673	-1.282551	-0.369944
C85	C	-0.524527	-1.298590	-0.355555
H86	H	-0.503915	-1.331861	-0.325510
H87	H	-0.544669	-1.333206	-0.389226
H88	H	-0.541002	-1.268645	-0.317683
C89	C	-0.782731	-1.354653	-0.305191
H90	H	-0.803512	-1.387960	-0.275169
H91	H	-0.762601	-1.324703	-0.267311
H92	H	-0.766268	-1.389248	-0.338869
C93	C	-0.641981	-1.354570	-0.305158
H94	H	-0.662762	-1.387878	-0.275138
H95	H	-0.621850	-1.324623	-0.267278
H96	H	-0.625520	-1.389164	-0.338840
H97	H	-0.733750	-1.338647	-0.319585
H98	H	-1.005080	-1.282883	-0.370062
H99	H	-0.296769	-1.112000	-0.973277
C100	C	-1.096343	-1.064096	-0.567503
H101	H	-1.075564	-1.030799	-0.597539
H102	H	-1.112809	-1.029503	-0.533835
H103	H	-1.116471	-1.094059	-0.605383
H104	H	-0.732947	-1.023976	-0.603476
C105	C	-0.997828	-1.064038	-0.567486
H106	H	-1.018439	-1.030751	-0.597513
H107	H	-0.981350	-1.093966	-0.605360
H108	H	-0.977689	-1.029426	-0.533798
C109	C	-0.641093	-1.007967	-0.617874
H110	H	-0.661702	-0.974684	-0.647911
H111	H	-0.624616	-1.037906	-0.655739
H112	H	-0.620954	-0.973350	-0.584192
C113	C	-0.523945	-1.063777	-0.567392
H114	H	-0.503168	-1.030474	-0.597426
H115	H	-0.540415	-1.029189	-0.533728
H116	H	-0.544069	-1.093748	-0.605273
C117	C	-0.217825	-1.266511	-0.938911
H118	H	-0.202589	-1.296313	-0.978759
H119	H	-0.235203	-1.304392	-0.906867
H120	H	-0.196478	-1.236408	-0.903413
C121	C	-0.425416	-1.063727	-0.567375
H122	H	-0.446019	-1.030439	-0.597419
H123	H	-0.408940	-1.093679	-0.605234
H124	H	-0.405273	-1.029113	-0.533695
C125	C	-0.881253	-1.354703	-0.305215
H126	H	-0.860650	-1.387987	-0.275166
H127	H	-0.901394	-1.389306	-0.338901
H128	H	-0.897730	-1.324756	-0.267348
C129	C	-0.880369	-1.008096	-0.617911
H130	H	-0.859590	-0.974798	-0.647946
H131	H	-0.896838	-0.973503	-0.584249
H132	H	-0.900494	-1.038066	-0.655791
C133	C	-0.781855	-1.008028	-0.617875
H134	H	-0.802465	-0.974743	-0.647905
H135	H	-0.765374	-1.037954	-0.655747
H136	H	-0.761718	-0.973415	-0.584184
