data_functionalizedCrystal
_audit_creation_method	'MofGen! by Chris Wilmer'
_symmetry_space_group_name_H-M	'P1'
_symmetry_Int_Tables_number	1
_symmetry_cell_setting	triclinic
loop_
_symmetry_equiv_pos_as_xyz
  x,y,z
_cell_length_a	13.897449
_cell_length_b	13.897448
_cell_length_c	13.032268
_cell_angle_alpha	97.150371
_cell_angle_beta	82.839289
_cell_angle_gamma	89.979604
loop_
_atom_site_label
_atom_site_type_symbol
_atom_site_fract_x
_atom_site_fract_y
_atom_site_fract_z
Zn1	Zn	1.405368	0.453230	0.590923
Zn2	Zn	1.425755	0.594069	0.416191
Zn3	Zn	1.264555	0.432793	0.416193
Zn4	Zn	1.244040	0.614481	0.590873
O5	O	1.334929	0.523643	0.503545
O6	O	1.543052	0.471923	0.567765
O7	O	1.421489	0.555581	0.269961
O8	O	1.283288	0.300525	0.439393
O9	O	1.558030	0.575397	0.439389
O10	O	1.386743	0.315539	0.567767
O11	O	1.303056	0.437091	0.269962
O12	O	1.126854	0.456883	0.439345
O13	O	1.248322	0.610185	0.737110
O14	O	1.111782	0.590369	0.567681
O15	O	1.366850	0.491715	0.737147
O16	O	1.401596	0.731756	0.439341
O17	O	1.268091	0.746752	0.567679
C18	C	1.084319	0.523624	0.503509
C19	C	0.977104	0.523642	0.503518
C20	C	1.334853	0.774255	0.503527
C21	C	1.334904	0.881472	0.503554
C22	C	0.890033	0.523647	0.503535
C23	C	0.780796	0.523658	0.503567
C24	C	1.334990	1.077776	0.503629
C25	C	1.334939	0.968539	0.503591
C26	C	1.586518	0.523663	0.503582
C27	C	1.693730	0.523672	0.503598
C28	C	1.303024	0.555507	0.776105
C29	C	1.289427	0.569085	0.892253
C30	C	1.335020	1.272056	0.503598
C31	C	1.335034	1.164849	0.503652
C32	C	1.366767	0.491834	0.232046
C33	C	1.380550	0.477984	0.115898
C34	C	1.342010	0.516522	0.944054
C35	C	1.327959	0.530554	1.064100
H36	H	1.397428	0.461128	0.899529
C37	C	1.454588	0.404189	1.056669
C38	C	1.546942	0.428248	1.083158
C39	C	1.615163	0.360284	1.028623
H40	H	1.454335	0.404515	0.983860
H41	H	1.438477	0.341435	1.074534
H42	H	1.563049	0.490985	1.065287
H43	H	1.547227	0.427915	1.155958
H44	H	1.599052	0.297530	1.046488
H45	H	1.614901	0.360615	0.955817
H46	H	1.677832	0.376593	1.046596
H47	H	1.272528	0.585942	1.108620
H48	H	1.234000	0.624469	0.936778
