data_functionalizedCrystal
_audit_creation_method	'MofGen! by Chris Wilmer'
_symmetry_space_group_name_H-M	'P1'
_symmetry_Int_Tables_number	1
_symmetry_cell_setting	triclinic
loop_
_symmetry_equiv_pos_as_xyz
  x,y,z
_cell_length_a	25.639239
_cell_length_b	16.959455
_cell_length_c	16.959447
_cell_angle_alpha	89.985678
_cell_angle_beta	90.033631
_cell_angle_gamma	89.963769
loop_
_atom_site_label
_atom_site_type_symbol
_atom_site_fract_x
_atom_site_fract_y
_atom_site_fract_z
Zn1	Zn	-0.208183	-1.208278	0.446890
Zn2	Zn	0.291817	-0.708278	0.946890
Zn3	Zn	-0.295624	-1.208156	0.314704
Zn4	Zn	0.204376	-0.708156	0.814704
Zn5	Zn	-0.208199	-1.076107	0.314728
Zn6	Zn	0.291801	-0.576107	0.814728
Zn7	Zn	-0.295585	-1.076027	0.446843
Zn8	Zn	0.204415	-0.576027	0.946843
O9	O	-0.251898	-1.142142	0.380791
O10	O	0.248102	-0.642142	0.880791
O11	O	-0.219792	-1.318873	0.429366
O12	O	0.280208	-0.818873	0.929366
O13	O	-0.284050	-1.190622	0.204096
O14	O	0.215950	-0.690622	0.704096
O15	O	-0.135032	-1.093724	0.332289
O16	O	0.364968	-0.593724	0.832289
O17	O	-0.284034	-1.318783	0.332249
O18	O	0.215966	-0.818783	0.832249
O19	O	-0.135020	-1.190830	0.429389
O20	O	0.364980	-0.690830	0.929389
O21	O	-0.219820	-1.093606	0.204114
O22	O	0.280180	-0.593606	0.704114
O23	O	-0.219782	-0.965485	0.332243
O24	O	0.280218	-0.465485	0.832243
O25	O	-0.283967	-1.093588	0.557460
O26	O	0.216033	-0.593588	1.057460
O27	O	-0.283983	-0.965427	0.429308
O28	O	0.216017	-0.465427	0.929308
O29	O	-0.219754	-1.190753	0.557495
O30	O	0.280246	-0.690753	1.057495
O31	O	-0.368784	-1.190545	0.332203
O32	O	0.131216	-0.690545	0.832203
O33	O	-0.368755	-1.093470	0.429285
O34	O	0.131245	-0.593470	0.929285
C35	C	-0.251880	-0.936776	0.380773
C36	C	0.248120	-0.436776	0.880773
C37	C	-0.251886	-0.848919	0.380784
C38	C	0.248114	-0.348919	0.880784
C39	C	-0.387740	-1.142007	0.380753
C40	C	0.112260	-0.642007	0.880753
C41	C	-0.445854	-1.142022	0.380763
C42	C	0.054146	-0.642022	0.880763
C43	C	-0.251854	-1.142175	0.586960
C44	C	0.248146	-0.642175	1.086960
C45	C	-0.251836	-1.142189	0.674816
C46	C	0.248164	-0.642189	1.174816
C47	C	-0.697045	-1.091586	0.431326
C48	C	-0.197045	-0.591586	0.931326
C49	C	-0.642441	-1.091556	0.431317
C50	C	-0.142441	-0.591556	0.931317
O51	O	-0.614202	-1.048544	0.474280
O52	O	-0.114202	-0.548544	0.974280
N53	N	-0.615128	-1.142121	0.380805
N54	N	-0.115128	-0.642121	0.880805
C55	C	-0.642423	-1.192724	0.330304
C56	C	-0.142423	-0.692724	0.830304
O57	O	-0.614177	-1.235731	0.287340
O58	O	-0.114177	-0.735731	0.787340
C59	C	-0.697026	-1.192757	0.330318
C60	C	-0.197026	-0.692757	0.830318
C61	C	-0.724336	-1.142183	0.380828
C62	C	-0.224336	-0.642183	0.880828
C63	C	-0.724355	-1.041017	0.481832
C64	C	-0.224355	-0.541017	0.981832
C65	C	-0.778956	-1.041045	0.481840
C66	C	-0.278956	-0.541045	0.981840
C67	C	-0.806246	-1.091643	0.431342
C68	C	-0.306246	-0.591643	0.931342
C69	C	-0.778936	-1.142211	0.380836
C70	C	-0.278936	-0.642211	0.880836
C71	C	-0.724319	-1.243363	0.279822
C72	C	-0.224319	-0.743363	0.779822
C73	C	-0.778926	-1.243392	0.279841
C74	C	-0.278926	-0.743392	0.779841
C75	C	-0.806236	-1.192818	0.330350
C76	C	-0.306236	-0.692818	0.830350
C77	C	-0.860827	-1.192837	0.330345
C78	C	-0.360827	-0.692837	0.830345
N79	N	-0.888140	-1.142272	0.380857
N80	N	-0.388140	-0.642272	0.880857
C81	C	-0.860850	-1.091675	0.431355
C82	C	-0.360850	-0.591675	0.931355
C83	C	-0.527752	-1.192652	0.330280
C84	C	-0.027752	-0.692652	0.830280
C85	C	-0.473150	-1.192616	0.330262
C86	C	0.026850	-0.692616	0.830262
C87	C	-0.473172	-1.091450	0.431275
C88	C	0.026828	-0.591450	0.931275
C89	C	-0.527775	-1.091482	0.431289
C90	C	-0.027775	-0.591482	0.931289
C91	C	-0.555065	-1.142088	0.380792
C92	C	-0.055065	-0.642088	0.880792
C93	C	-0.975515	-1.091738	0.431368
C94	C	-0.475515	-0.591738	0.931368
C95	C	-1.030120	-1.091769	0.431369
C96	C	-0.530120	-0.591769	0.931369
C97	C	-1.030093	-1.192938	0.330359
C98	C	-0.530093	-0.692938	0.830359
C99	C	-0.975493	-1.192905	0.330354
C100	C	-0.475493	-0.692905	0.830354
C101	C	-0.948205	-1.142302	0.380865
C102	C	-0.448205	-0.642302	0.880865
O103	O	-0.889101	-1.235830	0.287406
O104	O	-0.389101	-0.735830	0.787406
O105	O	-0.889102	-1.048683	0.474320
O106	O	-0.389102	-0.548683	0.974320
C107	C	-0.115525	-1.142299	0.380847
C108	C	0.384475	-0.642299	0.880847
C109	C	-0.057411	-1.142366	0.380871
C110	C	0.442589	-0.642366	0.880871
C111	C	-0.251915	-1.348310	0.380810
C112	C	0.248085	-0.848310	0.880810
C113	C	-0.251923	-1.436167	0.380818
C114	C	0.248077	-0.936167	0.880818
C115	C	-0.218441	-0.477450	0.330356
C116	C	0.281559	0.022550	0.830356
C117	C	-0.285398	-0.477438	0.431272
C118	C	0.214602	0.022562	0.931272
C119	C	-0.285390	-0.559983	0.431268
C120	C	0.214610	-0.059983	0.931268
C121	C	-0.251908	-0.601266	0.380805
C122	C	0.248092	-0.101266	0.880805
C123	C	-0.218433	-0.560003	0.330348
C124	C	0.281567	-0.060003	0.830348
C125	C	-0.318868	-0.601253	0.481719
C126	C	0.181132	-0.101253	0.981719
C127	C	-0.318863	-0.683804	0.481715
C128	C	0.181137	-0.183804	0.981715
C129	C	-0.285377	-0.725088	0.431256
C130	C	0.214623	-0.225088	0.931256
C131	C	-0.251901	-0.683820	0.380797
C132	C	0.248099	-0.183820	0.880797
C133	C	-0.218418	-0.725103	0.330335
C134	C	0.281582	-0.225103	0.830335
C135	C	-0.184939	-0.683836	0.279879
C136	C	0.315061	-0.183836	0.779879
C137	C	-0.184948	-0.601288	0.279888
C138	C	0.315052	-0.101288	0.779888
C139	C	-0.285368	-0.807636	0.431247
C140	C	0.214632	-0.307636	0.931247
C141	C	-0.218411	-0.807656	0.330327
C142	C	0.281589	-0.307656	0.830327
C143	C	-0.251903	-1.142155	0.175425
C144	C	0.248097	-0.642155	0.675425
C145	C	-0.251774	-1.142294	0.087569
C146	C	0.248226	-0.642294	0.587569
C147	C	-0.285214	-1.091694	1.046276
C148	C	0.214786	-0.591694	1.546276
C149	C	-0.218348	-1.192873	1.046308
C150	C	0.281652	-0.692873	1.546308
C151	C	-0.218359	-1.192852	0.963762
C152	C	0.281641	-0.692852	1.463762
C153	C	-0.251799	-1.142252	0.922469
C154	C	0.248201	-0.642252	1.422469
C155	C	-0.285227	-1.091673	0.963723
C156	C	0.214773	-0.591673	1.463723
C157	C	-0.184935	-1.243435	0.922502
C158	C	0.315065	-0.743435	1.422502
C159	C	-0.184945	-1.243416	0.839951
C160	C	0.315055	-0.743416	1.339951
C161	C	-0.218382	-1.192812	0.798657
C162	C	0.281618	-0.692812	1.298657
C163	C	-0.251812	-1.142231	0.839916
C164	C	0.248188	-0.642231	1.339916
C165	C	-0.285251	-1.091631	0.798623
C166	C	0.214749	-0.591631	1.298623
C167	C	-0.318679	-1.041046	0.839880
C168	C	0.181321	-0.541046	1.339880
C169	C	-0.318665	-1.041069	0.922429
C170	C	0.181335	-0.541069	1.422429
C171	C	-0.218396	-1.192789	0.716109
C172	C	0.281604	-0.692789	1.216109
C173	C	-0.285265	-1.091611	0.716070
C174	C	0.214735	-0.591611	1.216070
H175	H	-1.052353	-1.050584	0.472502
H176	H	-0.552353	-0.550584	0.972502
H177	H	-0.346132	-0.567634	0.522797
H178	H	0.153868	-0.067634	1.022797
C179	C	-0.322193	-0.853026	0.486744
C180	C	0.177807	-0.353026	0.986744
N181	N	-0.349931	-0.887212	0.528550
N182	N	0.150069	-0.387212	1.028550
C183	C	-0.321978	-1.036047	1.091659
C184	C	0.178022	-0.536047	1.591659
N185	N	-0.349669	-0.994132	1.125842
N186	N	0.150331	-0.494132	1.625842
H187	H	-0.191182	-1.233977	0.682521
H188	H	0.308818	-0.733977	1.182521
H189	H	-0.157680	-0.717459	0.238789
H190	H	0.342320	-0.217459	0.738789
H191	H	-0.953303	-1.050534	0.472499
H192	H	-0.453303	-0.550534	0.972499
C193	C	-0.322228	-0.432024	0.486776
C194	C	0.177772	0.067976	0.986776
N195	N	-0.349968	-0.397815	0.528585
N196	N	0.150032	0.102185	1.028585
H197	H	-0.801187	-0.999862	0.522969
H198	H	-0.301187	-0.499862	1.022969
H199	H	-0.191126	-1.234073	1.079933
H200	H	0.308874	-0.734073	1.579933
H201	H	-0.157691	-0.567681	0.238809
H202	H	0.342309	-0.067681	0.738809
H203	H	-0.702091	-1.284545	0.238693
H204	H	-0.202091	-0.784545	0.738693
C205	C	-0.557766	-1.248316	0.274715
C206	C	-0.057766	-0.748316	0.774715
N207	N	-0.580369	-1.290240	0.232863
N208	N	-0.080369	-0.790240	0.732863
C209	C	-0.322051	-1.035944	0.670655
C210	C	0.177949	-0.535944	1.170655
N211	N	-0.349758	-0.994016	0.636448
N212	N	0.150242	-0.494016	1.136448
H213	H	-0.191181	-0.443847	0.289278
H214	H	0.308819	0.056153	0.789278
C215	C	-0.355689	-0.729189	0.537220
C216	C	0.144311	-0.229189	1.037220
N217	N	-0.383425	-0.763375	0.579028
N218	N	0.116575	-0.263375	1.079028
C219	C	-0.355461	-0.985388	0.794448
C220	C	0.144539	-0.485388	1.294448
N221	N	-0.383164	-0.943467	0.760225
N222	N	0.116836	-0.443467	1.260225
H223	H	-0.157713	-1.284635	0.956129
H224	H	0.342287	-0.784635	1.456129
C225	C	-0.557811	-1.035853	0.486858
C226	C	-0.057811	-0.535853	0.986858
N227	N	-0.580431	-0.993952	0.528717
N228	N	-0.080431	-0.493952	1.028717
C229	C	-0.694344	-0.985366	0.537404
C230	C	-0.194344	-0.485366	1.037404
N231	N	-0.671744	-0.943448	0.579267
N232	N	-0.171744	-0.443448	1.079267
H233	H	-0.450942	-1.050252	0.472395
H234	H	0.049058	-0.550252	0.972395
C235	C	-0.355428	-0.985426	0.967817
C236	C	0.144572	-0.485426	1.467817
N237	N	-0.383118	-0.943515	1.002008
N238	N	0.116882	-0.443515	1.502008
H239	H	-0.157726	-1.284606	0.806367
H240	H	0.342274	-0.784606	1.306367
H241	H	-1.052323	-1.234130	0.289242
H242	H	-0.552323	-0.734130	0.789242
C243	C	-0.443115	-1.248238	0.274684
C244	C	0.056885	-0.748238	0.774684
N245	N	-0.420495	-1.290136	0.232822
N246	N	0.079505	-0.790136	0.732822
H247	H	-0.801143	-1.284604	0.238722
H248	H	-0.301143	-0.784604	0.738722
H249	H	-0.191142	-0.841263	0.289238
H250	H	0.308858	-0.341263	0.789238
C251	C	-0.945451	-1.248541	0.274795
C252	C	-0.445451	-0.748541	0.774795
N253	N	-0.922827	-1.290456	0.232955
N254	N	-0.422827	-0.790456	0.732955
