data_functionalizedCrystal
_audit_creation_method	'MofGen! by Chris Wilmer'
_symmetry_space_group_name_H-M	'P1'
_symmetry_Int_Tables_number	1
_symmetry_cell_setting	triclinic
loop_
_symmetry_equiv_pos_as_xyz
  x,y,z
_cell_length_a	29.839125
_cell_length_b	12.594517
_cell_length_c	12.594516
_cell_angle_alpha	90.009410
_cell_angle_beta	89.986421
_cell_angle_gamma	89.997285
loop_
_atom_site_label
_atom_site_type_symbol
_atom_site_fract_x
_atom_site_fract_y
_atom_site_fract_z
Zn1	Zn	-0.253907	1.627194	-0.424008
Zn2	Zn	0.246093	2.127194	0.075992
Zn3	Zn	-0.178782	1.627119	-0.601965
Zn4	Zn	0.321218	2.127119	-0.101965
Zn5	Zn	-0.178802	1.449225	-0.423988
Zn6	Zn	0.321198	1.949225	0.076012
Zn7	Zn	-0.253896	1.449188	-0.601932
Zn8	Zn	0.246104	1.949188	-0.101932
O9	O	-0.216347	1.538181	-0.512973
O10	O	0.283653	2.038181	-0.012973
O11	O	-0.243938	1.776130	-0.447637
O12	O	0.256062	2.276130	0.052363
O13	O	-0.115918	1.603506	-0.578361
O14	O	0.384082	2.103506	-0.078361
O15	O	-0.188777	1.472879	-0.275045
O16	O	0.311223	1.972879	0.224955
O17	O	-0.188744	1.776075	-0.578381
O18	O	0.311256	2.276075	-0.078381
O19	O	-0.243957	1.603632	-0.275060
O20	O	0.256043	2.103632	0.224940
O21	O	-0.115932	1.472807	-0.447602
O22	O	0.384068	1.972807	0.052398
O23	O	-0.188767	1.300274	-0.447571
O24	O	0.311233	1.800274	0.052429
O25	O	-0.316765	1.472816	-0.578325
O26	O	0.183235	1.972816	-0.078325
O27	O	-0.243938	1.300247	-0.578306
O28	O	0.256062	1.800247	-0.078306
O29	O	-0.316773	1.603596	-0.447605
O30	O	0.183227	2.103596	0.052395
O31	O	-0.188734	1.603470	-0.750906
O32	O	0.311266	2.103470	-0.250906
O33	O	-0.243919	1.472744	-0.750882
O34	O	0.256081	1.972744	-0.250882
C35	C	-0.216354	1.261640	-0.512933
C36	C	0.283646	1.761640	-0.012933
C37	C	-0.216367	1.143335	-0.512942
C38	C	0.283633	1.643335	-0.012942
C39	C	-0.246317	1.074098	-0.584187
C40	C	0.253683	1.574098	-0.084187
C41	C	-0.257368	1.003281	-0.487149
C42	C	0.242632	1.503281	0.012851
C43	C	-0.205306	1.003353	-0.610060
C44	C	0.294694	1.503353	-0.110060
C45	C	-0.227440	1.074076	-0.415852
C46	C	0.272560	1.574076	0.084148
C47	C	-0.175359	1.074154	-0.538828
C48	C	0.324641	1.574154	-0.038828
C49	C	-0.186394	1.003369	-0.441723
C50	C	0.313606	1.503369	0.058277
C51	C	-0.333525	1.538210	-0.512964
C52	C	0.166475	2.038210	-0.012964
C53	C	-0.383460	1.538222	-0.512960
C54	C	0.116540	2.038222	-0.012960
C55	C	-0.693110	1.606391	-0.444716
C56	C	-0.193110	2.106391	0.055284
C57	C	-0.880783	1.606444	-0.444625
C58	C	-0.380783	2.106444	0.055375
O59	O	-0.905054	1.664324	-0.386702
O60	O	-0.405054	2.164324	0.113298
N61	N	-0.904245	1.538363	-0.512675
N62	N	-0.404245	2.038363	-0.012675
C63	C	-0.880785	1.470260	-0.580747
C64	C	-0.380785	1.970260	-0.080747
O65	O	-0.905047	1.412347	-0.638618
O66	O	-0.405047	1.912347	-0.138618
C67	C	-0.693113	1.470203	-0.580832
C68	C	-0.193113	1.970203	-0.080832
C69	C	-0.669654	1.538295	-0.512785
C70	C	-0.169654	2.038295	-0.012785
C71	C	-0.669651	1.674478	-0.376674
C72	C	-0.169651	2.174478	0.123326
C73	C	-0.622736	1.674468	-0.376701
C74	C	-0.122736	2.174468	0.123299
C75	C	-0.599279	1.606372	-0.444770
C76	C	-0.099279	2.106372	0.055230
C77	C	-0.622738	1.538285	-0.512813
C78	C	-0.122738	2.038285	-0.012813
C79	C	-0.669654	1.402094	-0.648898
C80	C	-0.169654	1.902094	-0.148898
C81	C	-0.622733	1.402084	-0.648911
C82	C	-0.122733	1.902084	-0.148911
C83	C	-0.599274	1.470177	-0.580865
C84	C	-0.099274	1.970177	-0.080865
C85	C	-0.552367	1.470180	-0.580909
C86	C	-0.052367	1.970180	-0.080909
N87	N	-0.528905	1.538260	-0.512860
N88	N	-0.028905	2.038260	-0.012860
C89	C	-0.552362	1.606356	-0.444790
C90	C	-0.052362	2.106356	0.055210
C91	C	-0.979316	1.470296	-0.580699
C92	C	-0.479316	1.970296	-0.080699
C93	C	-1.026234	1.470312	-0.580680
C94	C	-0.526234	1.970312	-0.080680
C95	C	-1.026229	1.606495	-0.444556
C96	C	-0.526229	2.106495	0.055444
C97	C	-0.979310	1.606484	-0.444582
C98	C	-0.479310	2.106484	0.055418
C99	C	-0.955854	1.538377	-0.512650
C100	C	-0.455854	2.038377	-0.012650
C101	C	-0.453836	1.606331	-0.444854
C102	C	0.046164	2.106331	0.055146
C103	C	-0.406916	1.606318	-0.444890
C104	C	0.093084	2.106318	0.055110
C105	C	-0.406925	1.470132	-0.581010
C106	C	0.093075	1.970132	-0.081010
C107	C	-0.453841	1.470148	-0.580978
C108	C	0.046159	1.970148	-0.080978
C109	C	-0.477295	1.538251	-0.512891
C110	C	0.022705	2.038251	-0.012891
O111	O	-0.528067	1.412321	-0.638794
O112	O	-0.028067	1.912321	-0.138794
O113	O	-0.528092	1.664244	-0.386911
O114	O	-0.028092	2.164244	0.113089
C115	C	-0.740026	1.606401	-0.444688
C116	C	-0.240026	2.106401	0.055312
C117	C	-0.763485	1.538315	-0.512730
C118	C	-0.263485	2.038315	-0.012730
C119	C	-0.740028	1.470219	-0.580800
C120	C	-0.240028	1.970219	-0.080800
C121	C	-0.810403	1.538330	-0.512710
C122	C	-0.310403	2.038330	-0.012710
C123	C	-0.833859	1.606426	-0.444641
C124	C	-0.333859	2.106426	0.055359
C125	C	-0.810398	1.674507	-0.376591
C126	C	-0.310398	2.174507	0.123409
C127	C	-0.763482	1.674497	-0.376619
C128	C	-0.263482	2.174497	0.123381
C129	C	-0.763490	1.402138	-0.648849
C130	C	-0.263490	1.902138	-0.148849
C131	C	-0.810405	1.402154	-0.648817
C132	C	-0.310405	1.902154	-0.148817
C133	C	-0.833862	1.470250	-0.580748
C134	C	-0.333862	1.970250	-0.080748
C135	C	-0.099624	1.538214	-0.512906
C136	C	0.400376	2.038214	-0.012906
C137	C	-0.049690	1.538408	-0.512610
C138	C	0.450310	2.038408	-0.012610
C139	C	-0.216333	1.538124	-0.789514
C140	C	0.283667	2.038124	-0.289514
C141	C	-0.216342	1.538197	-0.907820
C142	C	0.283658	2.038197	-0.407820
C143	C	-0.216340	1.815802	-0.513015
C144	C	0.283660	2.315802	-0.013015
C145	C	-0.216337	1.934108	-0.513032
C146	C	0.283663	2.434108	-0.013032
C147	C	-0.186379	1.609429	-1.047811
C148	C	0.313621	2.109429	-0.547811
C149	C	-0.175345	1.512303	-0.977112
C150	C	0.324655	2.012303	-0.477112
C151	C	-0.227356	1.635311	-0.976947
C152	C	0.272644	2.135311	-0.476947
C153	C	-0.205326	1.441129	-1.047906
C154	C	0.294674	1.941129	-0.547906
C155	C	-0.257356	1.564202	-1.047748
C156	C	0.242644	2.064202	-0.547748
C157	C	-0.246337	1.467009	-0.977081
C158	C	0.253663	1.967009	-0.477081
C159	C	-0.216371	1.538268	-0.235353
C160	C	0.283629	2.038268	0.264647
C161	C	-0.216381	1.538305	-0.117047
C162	C	0.283619	2.038305	0.382953
H163	H	-0.271677	1.105156	-0.644322
H164	H	0.228323	1.605156	-0.144322
H165	H	-0.292014	1.586188	-1.078801
H166	H	0.207986	2.086188	-0.578801
O167	O	-0.239676	1.744029	-0.935649
O168	O	0.260324	2.244029	-0.435649
H169	H	-0.273467	1.766074	-0.965146
H170	H	0.226533	2.266074	-0.465146
H171	H	-0.195988	1.359023	-1.078942
H172	H	0.304012	1.859023	-0.578942
H173	H	-0.195964	0.972281	-0.692153
H174	H	0.304036	1.472281	-0.192153
O175	O	-1.051536	1.679922	-0.371121
O176	O	-0.551536	2.179922	0.128879
H177	H	-1.072916	1.734061	-0.418746
H178	H	-0.572916	2.234061	0.081254
H179	H	-0.161054	0.972510	-0.381442
H180	H	0.338946	1.472510	0.118558
O181	O	-0.381613	1.679762	-0.371493
O182	O	0.118387	2.179762	0.128507
H183	H	-0.405809	1.727106	-0.324150
H184	H	0.094191	2.227106	0.175850
H185	H	-0.236822	1.105013	-0.333734
H186	H	0.263178	1.605013	0.166266
H187	H	-1.045330	1.414875	-0.636102
H188	H	-0.545330	1.914875	-0.136102
O189	O	-0.129425	1.483220	-0.935990
O190	O	0.370575	1.983220	-0.435990
H191	H	-0.106481	1.469531	-1.004008
H192	H	0.393519	1.969531	-0.504008
H193	H	-0.472926	1.661784	-0.389407
H194	H	0.027074	2.161784	0.110593
H195	H	-0.603638	1.346611	-0.704330
H196	H	-0.103638	1.846611	-0.204330
H197	H	-0.271693	1.406747	-0.946221
H198	H	0.228307	1.906747	-0.446221
H199	H	-0.140702	1.105308	-0.560719
H200	H	0.359298	1.605308	-0.060719
O201	O	-0.152769	1.689063	-1.088952
O202	O	0.347231	2.189063	-0.588952
H203	H	-0.170340	1.749800	-1.137359
H204	H	0.329660	2.249800	-0.637359
H205	H	-0.960223	1.414836	-0.636136
H206	H	-0.460223	1.914836	-0.136136
O207	O	-0.479143	1.396706	-0.654373
O208	O	0.020857	1.896706	-0.154373
H209	H	-0.500518	1.342576	-0.606704
H210	H	-0.000518	1.842576	-0.106704
H211	H	-0.292035	0.972151	-0.465287
H212	H	0.207965	1.472151	0.034713
O213	O	-0.738182	1.747940	-0.303225
O214	O	-0.238182	2.247940	0.196775
H215	H	-0.747189	1.729707	-0.219683
H216	H	-0.247189	2.229707	0.280317
H217	H	-0.688745	1.729930	-0.321237
H218	H	-0.188745	2.229930	0.178763
O219	O	-0.597436	1.747905	-0.303302
O220	O	-0.097436	2.247905	0.196698
H221	H	-0.621635	1.795245	-0.255965
H222	H	-0.121635	2.295245	0.244035
H223	H	-0.960213	1.661929	-0.389170
H224	H	-0.460213	2.161929	0.110830
O225	O	-0.694950	1.328637	-0.722278
O226	O	-0.194950	1.828637	-0.222278
H227	H	-0.670750	1.281278	-0.769593
H228	H	-0.170750	1.781278	-0.269593
H229	H	-0.387818	1.414693	-0.636434
H230	H	0.112182	1.914693	-0.136434
H231	H	-0.829504	1.729957	-0.321170
H232	H	-0.329504	2.229957	0.178830
H233	H	-0.829502	1.346707	-0.704239
H234	H	-0.329502	1.846707	-0.204239
O235	O	-0.738193	1.328653	-0.722235
O236	O	-0.238193	1.828653	-0.222235
H237	H	-0.762393	1.281311	-0.769535
H238	H	-0.262393	1.781311	-0.269535
