data_functionalizedCrystal
_audit_creation_method	'MofGen! by Chris Wilmer'
_symmetry_space_group_name_H-M	'P1'
_symmetry_Int_Tables_number	1
_symmetry_cell_setting	triclinic
loop_
_symmetry_equiv_pos_as_xyz
  x,y,z
_cell_length_a	10.654550
_cell_length_b	15.944551
_cell_length_c	9.730223
_cell_angle_alpha	89.997716
_cell_angle_beta	89.996251
_cell_angle_gamma	83.991820
loop_
_atom_site_label
_atom_site_type_symbol
_atom_site_fract_x
_atom_site_fract_y
_atom_site_fract_z
O1	O	1.666308	0.117973	-0.114406
O2	O	1.300684	0.129213	-0.114384
O3	O	1.493480	0.001376	-0.114384
O4	O	1.473511	0.245810	-0.114407
O5	O	1.493478	0.001379	0.114196
O6	O	1.300681	0.129216	0.114196
O7	O	1.666305	0.117976	0.114174
Zn8	Zn	1.483493	0.123597	0.150477
Zn9	Zn	1.483496	0.123592	-0.150687
O10	O	1.473509	0.245813	0.114173
C11	C	1.253895	0.128389	-0.000092
C12	C	1.114484	0.125920	-0.000083
C13	C	1.034024	0.201188	-0.000110
C14	C	0.903034	0.198863	-0.000134
C15	C	0.932975	0.045995	-0.000108
C16	C	1.063963	0.048321	-0.000075
C17	C	1.016737	0.289446	-0.000131
C18	C	0.885746	0.287121	-0.000154
C19	C	1.492650	-0.029921	-0.000093
C20	C	1.490165	-0.123182	-0.000092
C21	C	1.364720	-0.338765	-0.000104
C22	C	1.422971	-0.399443	0.112596
C23	C	1.485668	-0.293934	-0.000103
C24	C	1.423002	-0.399430	-0.112765
C25	C	1.481317	-0.458872	-0.000119
C26	C	1.543953	-0.353384	0.112691
C27	C	1.543967	-0.353364	-0.112772
C28	C	1.602306	-0.414024	-0.000045
C29	C	1.488172	-0.198917	-0.000092
C30	C	1.478822	-0.553887	-0.000119
C31	C	1.713094	0.118800	-0.000122
C32	C	1.852505	0.121269	-0.000140
C33	C	1.474339	0.277110	-0.000120
C34	C	1.476824	0.370371	-0.000130
N35	N	1.483500	0.123599	0.356013
N36	N	1.483499	0.123583	-0.356224
C37	C	1.568892	0.067012	0.427939
C38	C	1.568889	0.067002	0.571822
C39	C	1.398098	0.180173	0.571840
C40	C	1.398096	0.180178	0.427959
C41	C	1.667501	0.001676	0.427931
C42	C	1.667498	0.001666	0.571814
H43	H	1.045621	0.323965	0.095532
Cl44	Cl	1.165109	-0.046306	-0.000009
H45	H	1.328552	0.226248	0.369398
H46	H	1.646893	-0.062885	0.388884
H47	H	1.328563	0.226238	0.630434
Cl48	Cl	1.807862	0.033271	0.359008
Cl49	Cl	1.621597	-0.092522	0.640721
Cl50	Cl	0.820642	0.338457	-0.147858
H51	H	1.763823	0.016057	0.610857
Cl52	Cl	0.869453	-0.051553	-0.000099
Cl53	Cl	1.343992	-0.430945	0.259710
Cl54	Cl	1.071237	0.332831	-0.152498
H55	H	0.839729	0.313795	0.098527
Cl56	Cl	1.622870	-0.322067	0.259956
H57	H	1.702787	-0.446602	0.000013
Cl58	Cl	1.209723	-0.288237	0.000070
H59	H	1.595080	-0.332939	-0.208062
H60	H	1.371831	-0.419804	-0.208051
