data_functionalizedCrystal
_audit_creation_method	'MofGen! by Chris Wilmer'
_symmetry_space_group_name_H-M	'P1'
_symmetry_Int_Tables_number	1
_symmetry_cell_setting	triclinic
loop_
_symmetry_equiv_pos_as_xyz
  x,y,z
_cell_length_a	12.759401
_cell_length_b	13.897441
_cell_length_c	12.759399
_cell_angle_alpha	90.029233
_cell_angle_beta	89.984458
_cell_angle_gamma	89.981179
loop_
_atom_site_label
_atom_site_type_symbol
_atom_site_fract_x
_atom_site_fract_y
_atom_site_fract_z
Zn1	Zn	1.606254	-0.545341	0.418221
Zn2	Zn	1.606147	-0.384046	0.593931
Zn3	Zn	1.430556	-0.384065	0.418268
Zn4	Zn	1.430544	-0.545304	0.593860
O5	O	1.518375	-0.464689	0.506070
O6	O	1.753261	-0.523953	0.441539
O7	O	1.582814	-0.249067	0.570679
O8	O	1.453913	-0.405482	0.271241
O9	O	1.753182	-0.405450	0.570633
O10	O	1.582998	-0.523971	0.271206
O11	O	1.453808	-0.249081	0.441620
O12	O	1.283533	-0.405446	0.441551
O13	O	1.453892	-0.680291	0.570511
O14	O	1.283524	-0.523908	0.570557
O15	O	1.582986	-0.680318	0.441470
O16	O	1.582803	-0.405414	0.740943
O17	O	1.453788	-0.523890	0.740890
C18	C	1.245408	-0.464676	0.506052
C19	C	1.128631	-0.464693	0.506070
C20	C	1.073811	-0.526492	0.438972
C21	C	0.964087	-0.526498	0.438983
C22	C	0.964013	-0.402903	0.573198
C23	C	1.073735	-0.402893	0.573181
C24	C	0.814168	-0.561175	0.315146
C25	C	0.759344	-0.622989	0.248058
C26	C	0.795001	-0.717131	0.232048
C27	C	0.885480	-0.749478	0.283142
C28	C	0.940299	-0.687668	0.350238
C29	C	0.904643	-0.593513	0.366228
C30	C	1.223656	-0.368226	0.697019
C31	C	1.278476	-0.306421	0.764121
C32	C	1.242821	-0.212278	0.780141
C33	C	1.152339	-0.179935	0.729066
C34	C	1.097518	-0.241740	0.661963
C35	C	1.133181	-0.335882	0.645941
C36	C	1.518450	-0.716282	0.505977
C37	C	1.518482	-0.823496	0.505938
C38	C	1.518510	-1.019792	0.505867
C39	C	1.518491	-0.910559	0.505909
C40	C	1.792408	-0.464703	0.506089
C41	C	1.909185	-0.464709	0.506097
C42	C	1.518311	-0.464667	0.779037
C43	C	1.518379	-0.464690	0.895814
C44	C	1.518361	-0.214075	0.506087
C45	C	1.518533	-0.106861	0.505830
C46	C	1.518468	-0.464732	0.232037
C47	C	1.518508	-0.464751	0.115260
C48	C	1.585634	-0.403070	0.950668
C49	C	1.585702	-0.403102	1.060392
C50	C	1.451251	-0.526378	1.060398
C51	C	1.451189	-0.526349	0.950676
C52	C	1.709711	-0.368774	1.210269
C53	C	1.776956	-0.307139	1.265127
C54	C	1.793120	-0.213023	1.229584
C55	C	1.742024	-0.180523	1.139184
C56	C	1.674771	-0.242153	1.084332
C57	C	1.658626	-0.336282	1.119874
C58	C	1.327179	-0.560668	0.800797
C59	C	1.259919	-0.622294	0.745943
C60	C	1.243744	-0.716411	0.781484
C61	C	1.294822	-0.748908	0.871887
C62	C	1.362082	-0.687282	0.926742
C63	C	1.378258	-0.593165	0.891193
H64	H	1.023842	-0.215398	0.620375
H65	H	1.755182	-0.103880	1.110259
H66	H	1.218335	-0.595829	0.672327
C67	C	1.391635	-0.581149	1.228598
C68	C	1.377387	-0.594141	1.120706
H69	H	1.346026	-0.622980	1.265825
H70	H	1.462218	-0.595331	1.246505
H71	H	1.376307	-0.516328	1.246634
H72	H	1.392722	-0.658961	1.102669
H73	H	1.306788	-0.579966	1.102791
H74	H	1.123303	-0.103277	0.742115
H75	H	1.847875	-0.162839	1.274257
H76	H	1.287446	-0.161967	0.834812
H77	H	1.252702	-0.444883	0.683971
H78	H	1.118504	-0.576810	0.384322
C79	C	1.308314	-0.917574	0.833309
C80	C	1.277053	-0.852366	0.910962
H81	H	1.297346	-0.981445	0.857437
H82	H	1.268265	-0.907042	0.771631
H83	H	1.380539	-0.908468	0.818210
H84	H	1.204826	-0.861468	0.926056
H85	H	1.317101	-0.862903	0.972658
C86	C	0.857449	-0.900387	0.195864
C87	C	0.924669	-0.852967	0.265548
H88	H	0.881652	-0.964275	0.184997
H89	H	0.788725	-0.902002	0.224434
H90	H	0.856399	-0.867050	0.130896
H91	H	0.925713	-0.886300	0.330520
H92	H	0.993412	-0.851358	0.236982
H93	H	1.818559	-0.333609	1.338731
C94	C	1.481426	-0.802131	1.001007
C95	C	1.418250	-0.722999	1.026106
H96	H	1.516108	-0.824174	1.062347
H97	H	1.439053	-0.852297	0.973442
H98	H	1.531973	-0.783581	0.950220
H99	H	1.367697	-0.741551	1.076887
H100	H	1.460625	-0.672823	1.053686
H101	H	1.340352	-0.484032	0.771845
C102	C	1.069031	-0.744355	0.718584
C103	C	1.169820	-0.784168	0.721194
H104	H	1.023404	-0.786190	0.681362
H105	H	1.043989	-0.736223	0.788137
H106	H	1.071345	-0.683655	0.684464
H107	H	1.167507	-0.844865	0.755321
H108	H	1.194868	-0.792312	0.651628
C109	C	1.059462	-0.818907	0.378198
C110	C	1.039743	-0.723215	0.406407
H111	H	1.120860	-0.840849	0.412870
H112	H	1.001619	-0.857848	0.398068
H113	H	1.069297	-0.822915	0.304524
H114	H	1.029900	-0.719207	0.480081
H115	H	1.097600	-0.684263	0.386544
C116	C	0.795783	-0.348047	0.632826
C117	C	0.903667	-0.334984	0.646974
H118	H	0.758532	-0.306120	0.678380
H119	H	0.777807	-0.334041	0.562229
H120	H	0.777843	-0.412838	0.648292
H121	H	0.921608	-0.270195	0.631500
H122	H	0.921651	-0.348983	0.717587
C123	C	1.363402	-0.336044	0.928879
C124	C	1.377932	-0.341960	0.820287
H125	H	1.424798	-0.357984	0.963555
H126	H	1.350000	-0.271135	0.948005
H127	H	1.305561	-0.375014	0.948724
H128	H	1.435768	-0.302983	0.800441
H129	H	1.391346	-0.406879	0.801154
H130	H	1.640346	-0.352865	0.906002
H131	H	0.785135	-0.484514	0.328164
H132	H	1.633171	-0.215692	1.010729
C133	C	0.647802	-0.736807	0.116836
C134	C	0.734743	-0.785077	0.158299
H135	H	0.610606	-0.778750	0.071299
H136	H	0.603081	-0.716947	0.172305
H137	H	0.670761	-0.681997	0.078770
H138	H	0.711783	-0.839884	0.196371
H139	H	0.779472	-0.804951	0.102822
H140	H	0.685675	-0.596644	0.206457
H141	H	1.696566	-0.445414	1.239210
