data_functionalizedCrystal
_audit_creation_method	'MofGen! by Chris Wilmer'
_symmetry_space_group_name_H-M	'P1'
_symmetry_Int_Tables_number	1
_symmetry_cell_setting	triclinic
loop_
_symmetry_equiv_pos_as_xyz
  x,y,z
_cell_length_a	17.077404
_cell_length_b	17.077402
_cell_length_c	17.077396
_cell_angle_alpha	90.029784
_cell_angle_beta	90.023219
_cell_angle_gamma	90.019297
loop_
_atom_site_label
_atom_site_type_symbol
_atom_site_fract_x
_atom_site_fract_y
_atom_site_fract_z
Zn1	Zn	-1.200055	0.312583	-0.443913
Zn2	Zn	-1.199962	0.443858	-0.312644
Zn3	Zn	-1.068786	0.312602	-0.312653
Zn4	Zn	-1.068754	0.443803	-0.443860
O5	O	-1.134389	0.378212	-0.378268
O6	O	-1.309889	0.330012	-0.426519
O7	O	-1.182536	0.426478	-0.202799
O8	O	-1.086252	0.202753	-0.330091
O9	O	-1.309821	0.426459	-0.330077
O10	O	-1.182694	0.202739	-0.426528
O11	O	-1.086162	0.330044	-0.202805
O12	O	-0.958935	0.329991	-0.330039
O13	O	-1.086197	0.426365	-0.553714
O14	O	-0.958912	0.426383	-0.426436
O15	O	-1.182663	0.329959	-0.553753
O16	O	-1.182505	0.553698	-0.330024
O17	O	-1.086107	0.553657	-0.426427
C18	C	-0.930441	0.378184	-0.378233
C19	C	-0.843192	0.378191	-0.378236
C20	C	-0.467410	0.328082	-0.428573
C21	C	-0.549390	0.328079	-0.428567
C22	C	-0.590343	0.378211	-0.378270
C23	C	-0.549310	0.428354	-0.327982
C24	C	-0.467332	0.428361	-0.327993
C25	C	-0.720181	0.428336	-0.327962
C26	C	-0.802165	0.428329	-0.327950
C27	C	-0.802239	0.328054	-0.428537
C28	C	-0.720260	0.328061	-0.428547
C29	C	-0.679234	0.378204	-0.378258
C30	C	-1.134314	0.582159	-0.378236
C31	C	-1.134353	0.669409	-0.378249
C32	C	-1.134437	0.378154	-0.583012
C33	C	-1.134457	0.378129	-0.670262
C34	C	-0.339134	0.378232	-0.378295
C35	C	-0.426383	0.378220	-0.378287
C36	C	-1.134487	0.173467	-0.378316
C37	C	-1.134528	0.086217	-0.378337
C38	C	-1.184598	0.710394	-0.328106
C39	C	-1.184637	0.792375	-0.328126
C40	C	-1.134425	0.833369	-0.378286
C41	C	-1.084178	0.792378	-0.428435
C42	C	-1.084144	0.710399	-0.428418
C43	C	-1.084250	0.963248	-0.428464
C44	C	-1.084283	1.045232	-0.428480
C45	C	-1.184743	1.045224	-0.328172
C46	C	-1.184709	0.963245	-0.328156
C47	C	-1.134461	0.922260	-0.378304
C48	C	-1.184689	0.327926	-0.711274
C49	C	-1.184698	0.327900	-0.793254
C50	C	-1.134479	0.378081	-0.834221
C51	C	-1.084242	0.428287	-0.793204
C52	C	-1.084229	0.428308	-0.711225
C53	C	-1.084274	0.428239	-0.964074
C54	C	-1.084288	0.428219	-1.046058
C55	C	-1.184742	0.327831	-1.046104
C56	C	-1.184730	0.327853	-0.964125
C57	C	-1.134493	0.378059	-0.923112
C58	C	-1.134387	0.378212	-0.174320
C59	C	-1.134519	0.378016	-0.087070
H60	H	-0.835647	0.287225	-0.469483
H61	H	-1.043393	0.469079	-1.079411
H62	H	-1.225660	1.078598	-0.287343
H63	H	-1.043411	1.078607	-0.469339
F64	F	-1.030805	0.481673	-0.920427
F65	F	-1.030792	0.481691	-0.836806
F66	F	-1.030771	0.919630	-0.481840
F67	F	-1.238209	0.274398	-1.089752
F68	F	-1.030743	0.836008	-0.481823
F69	F	-0.423832	0.274720	-0.482103
H70	H	-1.043230	0.677029	-0.469251
H71	H	-1.225627	0.286995	-0.930771
H72	H	-0.582791	0.287254	-0.469518
F73	F	-0.676677	0.274702	-0.482075
H74	H	-0.835506	0.469153	-0.286996
H75	H	-0.582660	0.469175	-0.287032
H76	H	-0.686779	0.469171	-0.287014
H77	H	-1.225585	0.287065	-0.677924
F78	F	-1.238037	0.666773	-0.274713
F79	F	-0.423668	0.481730	-0.274476
F80	F	-1.238117	0.835991	-0.274759
F81	F	-1.238188	0.274494	-0.836899
H82	H	-1.043318	0.469181	-0.677834
H83	H	-1.225591	0.929868	-0.287308
