data_functionalizedCrystal
_audit_creation_method	'MofGen! by Chris Wilmer'
_symmetry_space_group_name_H-M	'P1'
_symmetry_Int_Tables_number	1
_symmetry_cell_setting	triclinic
loop_
_symmetry_equiv_pos_as_xyz
  x,y,z
_cell_length_a	15.944545
_cell_length_b	15.944551
_cell_length_c	11.295500
_cell_angle_alpha	85.401182
_cell_angle_beta	85.403637
_cell_angle_gamma	83.497455
loop_
_atom_site_label
_atom_site_type_symbol
_atom_site_fract_x
_atom_site_fract_y
_atom_site_fract_z
O1	O	1.119572	0.113349	-0.098951
O2	O	0.875022	0.126712	-0.098970
O3	O	1.003975	-0.002245	-0.098949
O4	O	0.990620	0.242306	-0.098972
O5	O	0.993867	-0.012341	0.099101
O6	O	0.864915	0.116616	0.099080
O7	O	1.109464	0.103253	0.099100
Cu8	Cu	0.986267	0.109013	0.117174
Cu9	Cu	0.998220	0.120952	-0.117044
O10	O	0.980512	0.232210	0.099079
C11	C	0.838675	0.121110	0.000053
C12	C	0.745429	0.119450	0.000045
C13	C	0.474795	0.034556	0.000066
C14	C	0.520393	0.070507	0.097714
C15	C	0.409784	0.113529	0.000066
C16	C	0.530339	0.080482	-0.097548
C17	C	0.574698	0.116434	0.000054
C18	C	0.454150	0.149454	0.097795
C19	C	0.464097	0.159423	-0.097555
C20	C	0.509661	0.195430	0.000118
C21	C	0.314781	0.111853	0.000074
C22	C	0.669697	0.118116	0.000055
C23	C	0.998366	-0.038587	0.000076
C24	C	0.996704	-0.131833	0.000077
C25	C	0.912801	-0.346687	0.000054
C26	C	0.946779	-0.412683	0.097708
C27	C	0.993697	-0.302558	0.000067
C28	C	0.956764	-0.402712	-0.097555
C29	C	0.990787	-0.467470	0.000053
C30	C	1.027694	-0.367331	0.097802
C31	C	1.037672	-0.357349	-0.097548
C32	C	1.071708	-0.423329	0.000130
C33	C	0.995371	-0.207557	0.000077
C34	C	0.989119	-0.562471	0.000052
C35	C	1.145812	0.108855	0.000074
C36	C	1.239058	0.110515	0.000074
C37	C	0.986120	0.268552	0.000051
C38	C	0.987783	0.361799	0.000042
N39	N	0.977866	0.100614	0.281910
C40	C	1.067081	0.189855	0.531200
C41	C	1.060739	0.183502	0.655863
C42	C	0.958844	0.081549	0.655903
C43	C	0.965186	0.087903	0.531240
C44	C	1.019306	0.142059	0.468892
C45	C	1.025643	0.148416	0.344226
C46	C	0.923753	0.046460	0.344269
C47	C	0.917411	0.040107	0.468932
N48	N	1.006621	0.129351	0.718219
H49	H	0.545111	0.032946	0.180275
C50	C	0.862383	-0.014849	0.660049
C51	C	0.857920	-0.019416	0.537468
H52	H	0.825648	-0.051592	0.702354
H53	H	0.918797	-0.031441	0.680514
H54	H	0.845714	0.041583	0.680413
H55	H	0.874594	-0.075848	0.517102
H56	H	0.801493	-0.002829	0.516994
C57	C	0.438674	0.142481	0.311445
C58	C	0.409579	0.188753	0.209372
H59	H	0.411161	0.166744	0.380326
H60	H	0.426541	0.085536	0.311163
H61	H	0.498051	0.143794	0.312077
H62	H	0.350203	0.187435	0.208735
H63	H	0.421705	0.245713	0.209653
H64	H	1.099644	0.222422	0.706589
C65	C	1.020860	-0.374688	0.311453
C66	C	1.068151	-0.346044	0.209382
H67	H	1.045838	-0.361549	0.380336
H68	H	0.964604	-0.347737	0.311165
H69	H	1.020078	-0.434207	0.312090
H70	H	1.068928	-0.286523	0.208741
H71	H	1.124422	-0.372992	0.209671
C72	C	1.122037	0.244869	0.340078
C73	C	1.126561	0.249385	0.462657
H74	H	1.158755	0.281626	0.297767
H75	H	1.138685	0.188454	0.319660
H76	H	1.065603	0.261480	0.319674
H77	H	1.182994	0.232769	0.483063
H78	H	1.109918	0.305813	0.483083
C79	C	0.784989	0.015362	0.305958
C80	C	0.871223	-0.006081	0.275789
H81	H	0.752557	-0.017068	0.263678
H82	H	0.773483	0.003827	0.389118
H83	H	0.770441	0.073869	0.285517
H84	H	0.885772	-0.064587	0.296239
H85	H	0.882734	0.005448	0.192610
C86	C	0.662503	0.043782	-0.208359
C87	C	0.575063	0.041126	-0.208990
H88	H	0.690110	0.019475	-0.277151
H89	H	0.674178	0.100899	-0.208494
H90	H	0.682525	0.012758	-0.139008
H91	H	0.555040	0.072154	-0.278337
H92	H	0.563382	-0.016001	-0.208866
C93	C	0.827091	-0.484225	0.174520
C94	C	0.894905	-0.445518	0.209149
H95	H	0.795067	-0.504496	0.243318
H96	H	0.792012	-0.444205	0.128554
H97	H	0.848207	-0.530234	0.128219
H98	H	0.873789	-0.399504	0.255443
H99	H	0.929990	-0.485540	0.255135
C100	C	0.784545	-0.320422	-0.101054
C101	C	0.822148	-0.301726	0.000171
H102	H	0.728579	-0.292669	-0.100971
H103	H	0.816698	-0.301453	-0.170495
H104	H	0.782844	-0.379823	-0.100332
H105	H	0.823854	-0.242325	-0.000555
H106	H	0.789987	-0.320690	0.069630
H107	H	0.459137	-0.033462	0.000167
H108	H	0.439364	0.196954	-0.180118
H109	H	0.525150	0.263493	0.000168
C110	C	1.199350	-0.450454	0.102539
C111	C	1.162427	-0.468109	0.000208
H112	H	1.255353	-0.478106	0.102592
H113	H	1.200856	-0.391113	0.103186
H114	H	1.166888	-0.470185	0.171238
H115	H	1.194885	-0.448373	-0.068491
H116	H	1.160926	-0.527463	-0.000450
H117	H	1.076072	-0.333011	-0.180106
H118	H	0.926750	-0.418580	-0.180120
H119	H	1.069706	0.192516	0.293465
H120	H	0.914791	0.037449	0.706688
