data_functionalizedCrystal
_audit_creation_method	'MofGen! by Chris Wilmer'
_symmetry_space_group_name_H-M	'P1'
_symmetry_Int_Tables_number	1
_symmetry_cell_setting	triclinic
loop_
_symmetry_equiv_pos_as_xyz
  x,y,z
_cell_length_a	23.532407
_cell_length_b	23.532357
_cell_length_c	22.010155
_cell_angle_alpha	89.998697
_cell_angle_beta	89.994271
_cell_angle_gamma	82.838519
loop_
_atom_site_label
_atom_site_type_symbol
_atom_site_fract_x
_atom_site_fract_y
_atom_site_fract_z
O1	O	0.755251	0.069129	-0.050494
O2	O	1.005251	0.319129	0.199506
O3	O	1.255251	0.569129	0.449506
O4	O	1.505251	0.819129	0.699506
O5	O	0.589386	0.079132	-0.050505
O6	O	0.839386	0.329132	0.199495
O7	O	1.089386	0.579132	0.449495
O8	O	1.339386	0.829132	0.699495
O9	O	0.677335	-0.008803	-0.050487
O10	O	0.927335	0.241197	0.199513
O11	O	1.177335	0.491197	0.449513
O12	O	1.427335	0.741197	0.699513
O13	O	0.667302	0.157064	-0.050512
O14	O	0.917302	0.407064	0.199488
O15	O	1.167302	0.657064	0.449488
O16	O	1.417302	0.907064	0.699488
O17	O	0.677319	-0.008790	0.050564
O18	O	0.927319	0.241210	0.300564
O19	O	1.177319	0.491210	0.550564
O20	O	1.427319	0.741210	0.800564
O21	O	0.589370	0.079146	0.050546
O22	O	0.839370	0.329146	0.300546
O23	O	1.089370	0.579146	0.550546
O24	O	1.339370	0.829146	0.800546
O25	O	0.755235	0.069142	0.050556
O26	O	1.005235	0.319142	0.300556
O27	O	1.255235	0.569142	0.550556
O28	O	1.505235	0.819142	0.800556
Cu29	Cu	0.672301	0.074145	0.059778
Cu30	Cu	0.922301	0.324145	0.309778
Cu31	Cu	1.172301	0.574145	0.559778
Cu32	Cu	1.422301	0.824145	0.809778
Cu33	Cu	0.672320	0.074129	-0.059726
Cu34	Cu	0.922320	0.324129	0.190274
Cu35	Cu	1.172320	0.574129	0.440274
Cu36	Cu	1.422320	0.824129	0.690274
O37	O	0.667286	0.157078	0.050538
O38	O	0.917286	0.407078	0.300538
O39	O	1.167286	0.657078	0.550538
O40	O	1.417286	0.907078	0.800538
C41	C	0.568162	0.078884	0.000019
C42	C	0.818162	0.328884	0.250019
C43	C	1.068162	0.578884	0.500019
C44	C	1.318162	0.828884	0.750019
C45	C	0.504945	0.078118	0.000016
C46	C	0.754945	0.328118	0.250016
C47	C	1.004945	0.578118	0.500016
C48	C	1.254945	0.828118	0.750016
C49	C	0.238788	0.022922	0.000041
C50	C	0.488788	0.272922	0.250041
C51	C	0.738788	0.522922	0.500041
C52	C	0.988788	0.772922	0.750041
C53	C	0.298188	0.023633	0.000041
C54	C	0.548188	0.273633	0.250041
C55	C	0.798188	0.523633	0.500041
C56	C	1.048188	0.773633	0.750041
O57	O	0.334940	-0.020154	0.000068
O58	O	0.584940	0.229846	0.250068
O59	O	0.834940	0.479846	0.500068
O60	O	1.084940	0.729846	0.750068
N61	N	0.320805	0.075911	0.000028
N62	N	0.570805	0.325911	0.250028
N63	N	0.820805	0.575911	0.500028
N64	N	1.070805	0.825911	0.750028
C65	C	0.284018	0.127480	0.000023
C66	C	0.534018	0.377480	0.250023
C67	C	0.784018	0.627480	0.500023
C68	C	1.034018	0.877480	0.750023
O69	O	0.308710	0.172012	0.000013
O70	O	0.558710	0.422012	0.250013
O71	O	0.808710	0.672012	0.500013
O72	O	1.058710	0.922012	0.750013
C73	C	0.224619	0.126768	0.000027
C74	C	0.474619	0.376768	0.250027
C75	C	0.724619	0.626768	0.500027
C76	C	0.974619	0.876768	0.750027
C77	C	0.202006	0.074487	0.000033
C78	C	0.452006	0.324487	0.250033
C79	C	0.702006	0.574487	0.500033
C80	C	0.952006	0.824487	0.750033
C81	C	0.216174	-0.029355	0.000048
C82	C	0.466174	0.220645	0.250048
C83	C	0.716174	0.470645	0.500048
C84	C	0.966174	0.720645	0.750048
C85	C	0.156778	-0.030066	0.000047
C86	C	0.406778	0.219934	0.250047
C87	C	0.656778	0.469934	0.500047
C88	C	0.906778	0.719934	0.750047
C89	C	0.119996	0.021499	0.000039
C90	C	0.369996	0.271499	0.250039
C91	C	0.619996	0.521499	0.500039
C92	C	0.869996	0.771499	0.750039
C93	C	0.142610	0.073776	0.000032
C94	C	0.392610	0.323776	0.250032
C95	C	0.642610	0.573776	0.500032
C96	C	0.892610	0.823776	0.750032
C97	C	0.187833	0.178337	0.000026
C98	C	0.437833	0.428337	0.250026
C99	C	0.687833	0.678337	0.500026
C100	C	0.937833	0.928337	0.750026
C101	C	0.128431	0.177620	0.000031
C102	C	0.378431	0.427620	0.250031
C103	C	0.628431	0.677620	0.500031
C104	C	0.878431	0.927620	0.750031
C105	C	0.105818	0.125339	0.000037
C106	C	0.355818	0.375339	0.250037
C107	C	0.605818	0.625339	0.500037
C108	C	0.855818	0.875339	0.750037
C109	C	0.046431	0.124630	0.000024
C110	C	0.296431	0.374630	0.250024
C111	C	0.546431	0.624630	0.500024
C112	C	0.796431	0.874630	0.750024
N113	N	0.023815	0.072353	0.000036
N114	N	0.273815	0.322353	0.250036
N115	N	0.523815	0.572353	0.500036
N116	N	0.773815	0.822353	0.750036
C117	C	0.060597	0.020787	0.000044
C118	C	0.310597	0.270787	0.250044
C119	C	0.560597	0.520787	0.500044
C120	C	0.810597	0.770787	0.750044
C121	C	0.408760	0.128971	0.000014
C122	C	0.658760	0.378971	0.250014
C123	C	0.908760	0.628971	0.500014
C124	C	1.158760	0.878971	0.750014
C125	C	0.468158	0.129684	0.000005
C126	C	0.718158	0.379684	0.250005
C127	C	0.968158	0.629684	0.500005
C128	C	1.218158	0.879684	0.750005
C129	C	0.482324	0.025837	0.000024
C130	C	0.732324	0.275837	0.250024
C131	C	0.982324	0.525837	0.500024
C132	C	1.232324	0.775837	0.750024
C133	C	0.422925	0.025125	0.000029
C134	C	0.672925	0.275125	0.250029
C135	C	0.922925	0.525125	0.500029
C136	C	1.172925	0.775125	0.750029
C137	C	0.386143	0.076694	0.000026
C138	C	0.636143	0.326694	0.250026
C139	C	0.886143	0.576694	0.500026
C140	C	1.136143	0.826694	0.750026
C141	C	-0.064140	0.019297	0.000041
C142	C	0.185860	0.269297	0.250041
C143	C	0.435860	0.519297	0.500041
C144	C	0.685860	0.769297	0.750041
C145	C	-0.123542	0.018591	0.000038
C146	C	0.126458	0.268591	0.250038
C147	C	0.376458	0.518591	0.500038
C148	C	0.626458	0.768591	0.750038
C149	C	-0.137702	0.122438	0.000022
C150	C	0.112298	0.372438	0.250022
C151	C	0.362298	0.622438	0.500022
C152	C	0.612298	0.872438	0.750022
C153	C	-0.078306	0.123145	0.000022
C154	C	0.171694	0.373145	0.250022
C155	C	0.421694	0.623145	0.500022
C156	C	0.671694	0.873145	0.750022
C157	C	-0.041525	0.071570	0.000034
C158	C	0.208475	0.321570	0.250034
C159	C	0.458475	0.571570	0.500034
C160	C	0.708475	0.821570	0.750034
O161	O	0.009644	0.168394	-0.000001
O162	O	0.259644	0.418394	0.249999
O163	O	0.509644	0.668394	0.499999
O164	O	0.759644	0.918394	0.749999
O165	O	0.035897	-0.023737	0.000062
O166	O	0.285897	0.226263	0.250062
O167	O	0.535897	0.476263	0.500062
O168	O	0.785897	0.726263	0.750062
C169	C	0.677076	-0.030013	0.000041
C170	C	0.927076	0.219987	0.250041
C171	C	1.177076	0.469987	0.500041
C172	C	1.427076	0.719987	0.750041
C173	C	0.676322	-0.093232	0.000046
C174	C	0.926322	0.156768	0.250046
C175	C	1.176322	0.406768	0.500046
C176	C	1.426322	0.656768	0.750046
C177	C	0.671594	-0.485250	-0.055069
C178	C	0.921594	-0.235250	0.194931
C179	C	1.171594	0.014750	0.444931
C180	C	1.421594	0.264750	0.694931
C181	C	0.670876	-0.544650	-0.055073
C182	C	0.920876	-0.294650	0.194927
C183	C	1.170876	-0.044650	0.444927
C184	C	1.420876	0.205350	0.694927
O185	O	0.670494	-0.575372	-0.101919
O186	O	0.920494	-0.325372	0.148081
O187	O	1.170494	-0.075372	0.398081
O188	O	1.420494	0.174628	0.648081
N189	N	0.670512	-0.574354	0.000009
N190	N	0.920512	-0.324354	0.250009
N191	N	1.170512	-0.074354	0.500009
N192	N	1.420512	0.175646	0.750009
C193	C	0.670859	-0.544654	0.055098
C194	C	0.920859	-0.294654	0.305098
C195	C	1.170859	-0.044654	0.555098
C196	C	1.420859	0.205346	0.805098
O197	O	0.670483	-0.575374	0.101949
O198	O	0.920483	-0.325374	0.351949
O199	O	1.170483	-0.075374	0.601949
O200	O	1.420483	0.174626	0.851949
C201	C	0.671572	-0.485255	0.055101
C202	C	0.921572	-0.235255	0.305101
C203	C	1.171572	0.014745	0.555101
C204	C	1.421572	0.264745	0.805101
C205	C	0.671942	-0.455555	0.000015
C206	C	0.921942	-0.205555	0.250015
C207	C	1.171942	0.044445	0.500015
C208	C	1.421942	0.294445	0.750015
C209	C	0.671963	-0.455550	-0.110150
C210	C	0.921963	-0.205550	0.139850
C211	C	1.171963	0.044450	0.389850
C212	C	1.421963	0.294450	0.639850
C213	C	0.672681	-0.396155	-0.110147
C214	C	0.922681	-0.146155	0.139853
C215	C	1.172681	0.103845	0.389853
C216	C	1.422681	0.353845	0.639853
C217	C	0.673030	-0.366460	-0.055062
C218	C	0.923030	-0.116460	0.194938
C219	C	1.173030	0.133540	0.444938
C220	C	1.423030	0.383540	0.694938
C221	C	0.672661	-0.396160	0.000019
C222	C	0.922661	-0.146160	0.250019
C223	C	1.172661	0.103840	0.500019
C224	C	1.422661	0.353840	0.750019
C225	C	0.671915	-0.455556	0.110189
C226	C	0.921915	-0.205556	0.360189
C227	C	1.171915	0.044444	0.610189
C228	C	1.421915	0.294444	0.860189
C229	C	0.672628	-0.396153	0.110187
C230	C	0.922628	-0.146153	0.360187
C231	C	1.172628	0.103847	0.610187
C232	C	1.422628	0.353847	0.860187
C233	C	0.672998	-0.366453	0.055102
C234	C	0.922998	-0.116453	0.305102
C235	C	1.172998	0.133547	0.555102
C236	C	1.422998	0.383547	0.805102
C237	C	0.673728	-0.307070	0.055107
C238	C	0.923728	-0.057070	0.305107
C239	C	1.173728	0.192930	0.555107
C240	C	1.423728	0.442930	0.805107
N241	N	0.674092	-0.277366	0.000025
N242	N	0.924092	-0.027366	0.250025
N243	N	1.174092	0.222634	0.500025
N244	N	1.424092	0.472634	0.750025
C245	C	0.673743	-0.307061	-0.055059
C246	C	0.923743	-0.057061	0.194941
C247	C	1.173743	0.192939	0.444941
C248	C	1.423743	0.442939	0.694941
C249	C	0.669361	-0.669396	0.055087
C250	C	0.919361	-0.419396	0.305087
C251	C	1.169361	-0.169396	0.555087
C252	C	1.419361	0.080604	0.805087
C253	C	0.668652	-0.728794	0.055085
C254	C	0.918652	-0.478794	0.305085
C255	C	1.168652	-0.228794	0.555085
C256	C	1.418652	0.021206	0.805085
C257	C	0.668668	-0.728785	-0.055086
C258	C	0.918668	-0.478785	0.194914
C259	C	1.168668	-0.228785	0.444914
C260	C	1.418668	0.021215	0.694914
C261	C	0.669381	-0.669386	-0.055083
C262	C	0.919381	-0.419386	0.194917
C263	C	1.169381	-0.169386	0.444917
C264	C	1.419381	0.080614	0.694917
C265	C	0.669725	-0.639692	0.000006
C266	C	0.919725	-0.389692	0.250006
C267	C	1.169725	-0.139692	0.500006
C268	C	1.419725	0.110308	0.750006
C269	C	0.675252	-0.182327	-0.055047
C270	C	0.925252	0.067673	0.194953
C271	C	1.175252	0.317673	0.444953
C272	C	1.425252	0.567673	0.694953
C273	C	0.675973	-0.122926	-0.055038
C274	C	0.925973	0.127074	0.194962
C275	C	1.175973	0.377074	0.444962
C276	C	1.425973	0.627074	0.694962
C277	C	0.675954	-0.122940	0.055132
C278	C	0.925954	0.127060	0.305132
C279	C	1.175954	0.377060	0.555132
C280	C	1.425954	0.627060	0.805132
C281	C	0.675236	-0.182336	0.055124
C282	C	0.925236	0.067664	0.305124
C283	C	1.175236	0.317664	0.555124
C284	C	1.425236	0.567664	0.805124
C285	C	0.674883	-0.212027	0.000029
C286	C	0.924883	0.037973	0.250029
C287	C	1.174883	0.287973	0.500029
C288	C	1.424883	0.537973	0.750029
O289	O	0.674109	-0.276309	0.101929
O290	O	0.924109	-0.026309	0.351929
O291	O	1.174109	0.223691	0.601929
O292	O	1.424109	0.473691	0.851929
O293	O	0.674112	-0.276333	-0.101902
O294	O	0.924112	-0.026333	0.148098
O295	O	1.174112	0.223667	0.398098
O296	O	1.424112	0.473667	0.648098
C297	C	0.776459	0.069390	0.000031
C298	C	1.026459	0.319390	0.250031
C299	C	1.276459	0.569390	0.500031
C300	C	1.526459	0.819390	0.750031
C301	C	0.839676	0.070156	0.000030
C302	C	1.089676	0.320156	0.250030
C303	C	1.339676	0.570156	0.500030
C304	C	1.589676	0.820156	0.750030
C305	C	0.667545	0.178288	0.000010
C306	C	0.917545	0.428288	0.250010
C307	C	1.167545	0.678288	0.500010
C308	C	1.417545	0.928288	0.750010
C309	C	0.668300	0.241506	0.000000
C310	C	0.918300	0.491506	0.250000
C311	C	1.168300	0.741506	0.500000
C312	C	1.418300	0.991506	0.750000
N313	N	0.672292	0.074156	0.143830
N314	N	0.922292	0.324156	0.393830
N315	N	1.172292	0.574156	0.643830
N316	N	1.422292	0.824156	0.893830
N317	N	0.672334	0.074114	-0.143779
N318	N	0.922334	0.324114	0.106221
N319	N	1.172334	0.574114	0.356221
N320	N	1.422334	0.824114	0.606221
C321	C	0.711266	0.035197	0.563618
C322	C	0.961266	0.285197	0.813618
C323	C	1.211266	0.535197	1.063618
C324	C	1.461266	0.785197	1.313618
C325	C	0.711269	0.035193	0.627225
C326	C	0.961269	0.285193	0.877225
C327	C	1.211269	0.535193	1.127225
C328	C	1.461269	0.785193	1.377225
O329	O	0.744383	0.002077	0.660123
O330	O	0.994383	0.252077	0.910123
O331	O	1.244383	0.502077	1.160123
O332	O	1.494383	0.752077	1.410123
N333	N	0.672320	0.074118	0.659037
N334	N	0.922320	0.324118	0.909037
N335	N	1.172320	0.574118	1.159037
N336	N	1.422320	0.824118	1.409037
C337	C	0.633362	0.113044	0.627238
C338	C	0.883362	0.363044	0.877238
C339	C	1.133362	0.613044	1.127238
C340	C	1.383362	0.863044	1.377238
O341	O	0.600233	0.146152	0.660138
O342	O	0.850233	0.396152	0.910138
O343	O	1.100233	0.646152	1.160138
O344	O	1.350233	0.896152	1.410138
C345	C	0.633357	0.113045	0.563632
C346	C	0.883357	0.363045	0.813632
C347	C	1.133357	0.613045	1.063632
C348	C	1.383357	0.863045	1.313632
C349	C	0.672312	0.074122	0.531823
C350	C	0.922312	0.324122	0.781823
C351	C	1.172312	0.574122	1.031823
C352	C	1.422312	0.824122	1.281823
C353	C	0.750218	-0.003723	0.531809
C354	C	1.000218	0.246277	0.781809
C355	C	1.250218	0.496277	1.031809
C356	C	1.500218	0.746277	1.281809
C357	C	0.750216	-0.003718	0.468205
C358	C	1.000216	0.246282	0.718205
C359	C	1.250216	0.496282	0.968205
C360	C	1.500216	0.746282	1.218205
C361	C	0.711262	0.035207	0.436411
C362	C	0.961262	0.285207	0.686411
C363	C	1.211262	0.535207	0.936411
C364	C	1.461262	0.785207	1.186411
C365	C	0.672310	0.074127	0.468220
C366	C	0.922310	0.324127	0.718220
C367	C	1.172310	0.574127	0.968220
C368	C	1.422310	0.824127	1.218220
C369	C	0.594397	0.151969	0.531834
C370	C	0.844397	0.401969	0.781834
C371	C	1.094397	0.651969	1.031834
C372	C	1.344397	0.901969	1.281834
C373	C	0.594395	0.151966	0.468224
C374	C	0.844395	0.401966	0.718224
C375	C	1.094395	0.651966	0.968224
C376	C	1.344395	0.901966	1.218224
C377	C	0.633350	0.113043	0.436415
C378	C	0.883350	0.363043	0.686415
C379	C	1.133350	0.613043	0.936415
C380	C	1.383350	0.863043	1.186415
C381	C	0.633354	0.113057	0.372822
C382	C	0.883354	0.363057	0.622822
C383	C	1.133354	0.613057	0.872822
C384	C	1.383354	0.863057	1.122822
N385	N	0.672303	0.074133	0.341010
N386	N	0.922303	0.324133	0.591010
N387	N	1.172303	0.574133	0.841010
N388	N	1.422303	0.824133	1.091010
C389	C	0.711257	0.035207	0.372805
C390	C	0.961257	0.285207	0.622805
C391	C	1.211257	0.535207	0.872805
C392	C	1.461257	0.785207	1.122805
C393	C	0.633374	0.113039	0.760816
C394	C	0.883374	0.363039	1.010816
C395	C	1.133374	0.613039	1.260816
C396	C	1.383374	0.863039	1.510816
C397	C	0.633382	0.113042	0.824422
C398	C	0.883382	0.363042	1.074422
C399	C	1.133382	0.613042	1.324422
C400	C	1.383382	0.863042	1.574422
C401	C	0.711288	0.035190	0.824404
C402	C	0.961288	0.285190	1.074404
C403	C	1.211288	0.535190	1.324404
C404	C	1.461288	0.785190	1.574404
C405	C	0.711283	0.035190	0.760797
C406	C	0.961283	0.285190	1.010797
C407	C	1.211283	0.535190	1.260797
C408	C	1.461283	0.785190	1.510797
C409	C	0.672323	0.074115	0.729004
C410	C	0.922323	0.324115	0.979004
C411	C	1.172323	0.574115	1.229004
C412	C	1.422323	0.824115	1.479004
C413	C	0.711250	0.035221	0.239233
C414	C	0.961250	0.285221	0.489233
C415	C	1.211250	0.535221	0.739233
C416	C	1.461250	0.785221	0.989233
C417	C	0.711246	0.035231	0.175625
C418	C	0.961246	0.285231	0.425625
C419	C	1.211246	0.535231	0.675625
C420	C	1.461246	0.785231	0.925625
C421	C	0.633338	0.113080	0.175648
C422	C	0.883338	0.363080	0.425648
C423	C	1.133338	0.613080	0.675648
C424	C	1.383338	0.863080	0.925648
C425	C	0.633344	0.113073	0.239251
C426	C	0.883344	0.363073	0.489251
C427	C	1.133344	0.613073	0.739251
C428	C	1.383344	0.863073	0.989251
C429	C	0.672302	0.074138	0.271042
C430	C	0.922302	0.324138	0.521042
C431	C	1.172302	0.574138	0.771042
C432	C	1.422302	0.824138	1.021042
O433	O	0.600255	0.146155	0.339884
O434	O	0.850255	0.396155	0.589884
O435	O	1.100255	0.646155	0.839884
O436	O	1.350255	0.896155	1.089884
O437	O	0.744376	0.002101	0.339898
O438	O	0.994376	0.252101	0.589898
O439	O	1.244376	0.502101	0.839898
O440	O	1.494376	0.752101	1.089898
H441	H	-0.141950	-0.023984	0.000041
H442	H	0.108050	0.226016	0.250041
H443	H	0.358050	0.476016	0.500041
H444	H	0.608050	0.726016	0.750041
H445	H	0.601666	0.144742	0.850316
H446	H	0.851666	0.394742	1.100316
H447	H	1.101666	0.644742	1.350316
H448	H	1.351666	0.894742	1.600316
H449	H	0.742973	0.003516	0.265111
H450	H	0.992973	0.253516	0.515111
H451	H	1.242973	0.503516	0.765111
H452	H	1.492973	0.753516	1.015111
Br453	Br	-0.014233	-0.050698	0.000057
Br454	Br	0.235767	0.199302	0.250057
Br455	Br	0.485767	0.449302	0.500057
Br456	Br	0.735767	0.699302	0.750057
Br457	Br	0.498840	0.200640	-0.000019
Br458	Br	0.748840	0.450640	0.249981
Br459	Br	0.998840	0.700640	0.499981
Br460	Br	1.248840	0.950640	0.749981
H461	H	0.743006	0.003494	0.850302
H462	H	0.993006	0.253494	1.100302
H463	H	1.243006	0.503494	1.350302
H464	H	1.493006	0.753494	1.600302
H465	H	0.669642	-0.645222	0.099950
H466	H	0.919642	-0.395222	0.349950
H467	H	1.169642	-0.145222	0.599950
H468	H	1.419642	0.104778	0.849950
Br469	Br	0.668163	-0.769096	0.129847
Br470	Br	0.918163	-0.519096	0.379847
Br471	Br	1.168163	-0.269096	0.629847
Br472	Br	1.418163	-0.019096	0.879847
Br473	Br	0.674773	-0.222613	-0.129819
Br474	Br	0.924773	0.027387	0.120181
Br475	Br	1.174773	0.277387	0.370181
Br476	Br	1.424773	0.527387	0.620181
Br477	Br	0.803083	-0.056547	0.425043
Br478	Br	1.053083	0.193453	0.675043
Br479	Br	1.303083	0.443453	0.925043
Br480	Br	1.553083	0.693453	1.175043
H481	H	0.138372	-0.072639	0.000054
H482	H	0.388372	0.177361	0.250054
H483	H	0.638372	0.427361	0.500054
H484	H	0.888372	0.677361	0.750054
Br485	Br	0.580499	0.165874	0.717674
Br486	Br	0.830499	0.415874	0.967674
Br487	Br	1.080499	0.665874	1.217674
Br488	Br	1.330499	0.915874	1.467674
H489	H	0.378815	0.170968	0.000007
H490	H	0.628815	0.420968	0.250007
H491	H	0.878815	0.670968	0.500007
H492	H	1.128815	0.920968	0.750007
Br493	Br	0.676429	-0.082629	0.129886
Br494	Br	0.926429	0.167371	0.379886
Br495	Br	1.176429	0.417371	0.629886
Br496	Br	1.426429	0.667371	0.879886
Br497	Br	0.764120	-0.017595	0.132458
Br498	Br	1.014120	0.232405	0.382458
Br499	Br	1.264120	0.482405	0.632458
Br500	Br	1.514120	0.732405	0.882458
Br501	Br	0.541526	0.204795	0.574990
Br502	Br	0.791526	0.454795	0.824990
Br503	Br	1.041526	0.704795	1.074990
Br504	Br	1.291526	0.954795	1.324990
Br505	Br	0.580475	0.165907	0.132488
Br506	Br	0.830475	0.415907	0.382488
Br507	Br	1.080475	0.665907	0.632488
Br508	Br	1.330475	0.915907	0.882488
Br509	Br	0.541515	0.204794	0.425080
Br510	Br	0.791515	0.454794	0.675080
Br511	Br	1.041515	0.704794	0.925080
Br512	Br	1.291515	0.954794	1.175080
H513	H	0.601628	0.144773	0.265150
H514	H	0.851628	0.394773	0.515150
H515	H	1.101628	0.644773	0.765150
H516	H	1.351628	0.894773	1.015150
H517	H	0.246117	-0.071348	0.000056
H518	H	0.496117	0.178652	0.250056
H519	H	0.746117	0.428652	0.500056
H520	H	0.996117	0.678652	0.750056
H521	H	0.671615	-0.479728	0.155045
H522	H	0.921615	-0.229728	0.405045
H523	H	1.171615	0.020272	0.655045
H524	H	1.421615	0.270272	0.905045
Br525	Br	0.532254	-0.044146	0.000032
Br526	Br	0.782254	0.205854	0.250032
Br527	Br	1.032254	0.455854	0.500032
Br528	Br	1.282254	0.705854	0.750032
Br529	Br	0.673094	-0.355857	0.184954
Br530	Br	0.923094	-0.105857	0.434954
Br531	Br	1.173094	0.144143	0.684954
Br532	Br	1.423094	0.394143	0.934954
Br533	Br	0.674747	-0.222646	0.129883
Br534	Br	0.924747	0.027354	0.379883
Br535	Br	1.174747	0.277354	0.629883
Br536	Br	1.424747	0.527354	0.879883
H537	H	0.404518	-0.017447	0.000034
H538	H	0.654518	0.232553	0.250034
H539	H	0.904518	0.482553	0.500034
H540	H	1.154518	0.732553	0.750034
H541	H	0.098485	0.219615	0.000032
H542	H	0.348485	0.469615	0.250032
H543	H	0.598485	0.719615	0.500032
H544	H	0.848485	0.969615	0.750032
Br545	Br	0.218507	0.249294	0.000016
Br546	Br	0.468507	0.499294	0.250016
Br547	Br	0.718507	0.749294	0.500016
Br548	Br	0.968507	0.999294	0.750016
Br549	Br	0.764153	-0.017636	0.717635
Br550	Br	1.014153	0.232364	0.967635
Br551	Br	1.264153	0.482364	1.217635
Br552	Br	1.514153	0.732364	1.467635
Br553	Br	-0.047615	0.194098	0.000004
Br554	Br	0.202385	0.444098	0.250004
Br555	Br	0.452385	0.694098	0.500004
Br556	Br	0.702385	0.944098	0.750004
Br557	Br	0.676479	-0.082623	-0.129802
Br558	Br	0.926479	0.167377	0.120198
Br559	Br	1.176479	0.417377	0.370198
Br560	Br	1.426479	0.667377	0.620198
Br561	Br	-0.187632	0.192416	0.000007
Br562	Br	0.062368	0.442416	0.250007
Br563	Br	0.312368	0.692416	0.500007
Br564	Br	0.562368	0.942416	0.750007
H565	H	0.672981	-0.371978	-0.155003
H566	H	0.922981	-0.121978	0.094997
H567	H	1.172981	0.128022	0.344997
H568	H	1.422981	0.378022	0.594997
H569	H	0.669681	-0.645208	-0.099938
H570	H	0.919681	-0.395208	0.150062
H571	H	1.169681	-0.145208	0.400062
H572	H	1.419681	0.104792	0.650062
Br573	Br	0.668191	-0.769096	-0.129844
Br574	Br	0.918191	-0.519096	0.120156
Br575	Br	1.168191	-0.269096	0.370156
Br576	Br	1.418191	-0.019096	0.620156
Br577	Br	0.671489	-0.495839	-0.184918
Br578	Br	0.921489	-0.245839	0.065082
Br579	Br	1.171489	0.004161	0.315082
Br580	Br	1.421489	0.254161	0.565082
Br581	Br	0.803090	-0.056558	0.574947
Br582	Br	1.053090	0.193442	0.824947
Br583	Br	1.303090	0.443442	1.074947
Br584	Br	1.553090	0.693442	1.324947
