data_functionalizedCrystal
_audit_creation_method	'MofGen! by Chris Wilmer'
_symmetry_space_group_name_H-M	'P1'
_symmetry_Int_Tables_number	1
_symmetry_cell_setting	triclinic
loop_
_symmetry_equiv_pos_as_xyz
  x,y,z
_cell_length_a	23.096457
_cell_length_b	19.377369
_cell_length_c	19.376995
_cell_angle_alpha	62.446887
_cell_angle_beta	75.503105
_cell_angle_gamma	48.636862
loop_
_atom_site_label
_atom_site_type_symbol
_atom_site_fract_x
_atom_site_fract_y
_atom_site_fract_z
Zr1	Zr	0.431910	0.779873	0.049325
O2	O	0.335629	0.928512	-0.037257
O3	O	0.480656	0.631235	0.056981
O4	O	0.484150	0.779877	-0.064497
O5	O	0.307504	0.779866	0.201527
O6	O	0.579431	0.779879	-0.064501
O7	O	0.332135	0.779870	0.084220
O8	O	0.573181	0.513986	0.152800
O9	O	0.313754	1.045759	-0.015774
O10	O	0.549319	0.692373	0.083060
O11	O	0.459830	0.692369	0.170608
O12	O	0.463944	0.867375	0.027584
O13	O	0.374455	0.867371	0.115131
Zr14	Zr	0.544588	0.779870	0.236409
Zr15	Zr	0.583873	0.779876	0.049318
Zr16	Zr	0.392626	0.779867	0.236415
Zr17	Zr	0.397022	0.966869	0.083588
Zr18	Zr	0.579476	0.592874	0.202146
O19	O	0.495843	0.928508	0.228753
O20	O	0.551700	0.928516	-0.037266
O21	O	0.279772	0.928503	0.228762
O22	O	0.640869	0.631231	0.322990
O23	O	0.696727	0.631239	0.056972
O24	O	0.424799	0.631227	0.322999
O25	O	0.668995	0.779877	0.084206
O26	O	0.492348	0.779866	0.350230
O27	O	0.397067	0.779864	0.350234
O28	O	0.644364	0.779873	0.201513
O29	O	0.434544	1.045762	-0.015779
O30	O	0.541955	0.513981	0.301512
O31	O	0.662744	0.513983	0.301507
O32	O	0.693970	0.513988	0.152795
O33	O	0.282528	1.045755	0.132938
O34	O	0.403318	1.045757	0.132933
O35	O	0.512555	0.692367	0.258149
O36	O	0.602044	0.692372	0.170602
O37	O	0.516669	0.867374	0.115126
O38	O	0.427180	0.867370	0.202673
C39	C	0.531889	0.545967	0.100009
C40	C	0.546700	0.466582	0.085463
C41	C	0.362099	0.205175	0.266366
C42	C	0.376100	0.130490	0.252761
C43	C	0.469520	0.130504	0.161368
C44	C	0.455529	0.205187	0.174968
C45	C	0.401817	0.242518	0.227468
C46	C	0.495248	0.242529	0.136070
C47	C	0.481255	0.317210	0.149667
C48	C	0.427544	0.354548	0.202162
C49	C	0.387825	0.317198	0.241065
C50	C	0.548956	0.205202	0.083567
C51	C	0.588674	0.242545	0.044669
C52	C	0.574686	0.317221	0.058269
C53	C	0.520975	0.354559	0.110764
C54	C	0.614405	0.354571	0.019367
C55	C	0.600412	0.429252	0.032963
C56	C	0.506982	0.429240	0.124361
C57	C	0.298168	0.779867	0.142875
C58	C	0.233656	0.779866	0.142877
C59	C	0.247917	0.688519	0.171827
C60	C	0.187301	0.688518	0.171831
C61	C	0.112427	0.779868	0.142868
C62	C	0.098167	0.871227	0.113918
C63	C	0.158782	0.871226	0.113923
N64	N	-0.007438	0.847867	0.080952
N65	N	-0.065016	0.847862	0.080948
C66	C	-0.070204	0.779877	0.142854
N67	N	-0.015630	0.711883	0.204761
N68	N	0.041955	0.711885	0.204762
C69	C	0.046696	0.779880	0.142860
C70	C	-0.121668	0.688523	0.171811
C71	C	-0.182287	0.688525	0.171818
C72	C	-0.271419	0.871237	0.113897
C73	C	-0.210801	0.871232	0.113899
C74	C	-0.135927	0.779872	0.142853
C75	C	0.678331	0.779875	0.142859
C76	C	0.742843	0.779877	0.142856
C77	C	0.537388	0.779878	-0.091155
C78	C	0.554065	0.779881	-0.170580
C79	C	0.444609	1.013776	0.185725
C80	C	0.429798	1.093161	0.200270
C81	C	0.630060	0.779884	-0.282529
C82	C	0.614382	0.779882	-0.207897
C83	C	0.509404	0.779876	-0.207884
C84	C	0.525074	0.779873	-0.282516
C85	C	0.585403	0.779878	-0.319832
C86	C	0.480417	0.779867	-0.319820
C87	C	0.496085	0.779869	-0.394446
C88	C	0.556409	0.779877	-0.431769
C89	C	0.601070	0.779880	-0.394459
C90	C	0.420086	0.779869	-0.282504
C91	C	0.375429	0.779862	-0.319808
C92	C	0.391099	0.779857	-0.394433
C93	C	0.451423	0.779866	-0.431756
C94	C	0.346438	0.779854	-0.431743
C95	C	0.362105	0.779857	-0.506370
C96	C	0.467090	0.779868	-0.506383
C97	C	0.439111	0.779864	0.376888
C98	C	0.422433	0.779862	0.456313
C99	C	0.721971	0.545971	0.100001
C100	C	0.801293	0.466587	0.085452
C101	C	0.482751	0.545960	0.334030
C102	C	0.480884	0.466573	0.398910
C103	C	0.672832	0.545964	0.334022
C104	C	0.735478	0.466578	0.398899
C105	C	0.303667	1.013779	-0.048289
C106	C	0.241021	1.093165	-0.113166
C107	C	0.254528	1.013772	0.185733
C108	C	0.175205	1.093155	0.200281
C109	C	0.493748	1.013783	-0.048297
C110	C	0.495614	1.093170	-0.113176
C111	C	0.811024	0.429309	0.032917
C112	C	0.885552	0.354730	0.019231
C113	C	0.950349	0.317426	0.058087
C114	C	0.940615	0.354712	0.110625
C115	C	0.866088	0.429295	0.124306
C116	C	0.507528	0.429291	0.475081
C117	C	0.505768	0.354709	0.536051
C118	C	0.477370	0.317404	0.520847
C119	C	0.450722	0.354693	0.444668
C120	C	0.452477	0.429279	0.383700
C121	C	0.811615	0.429300	0.383667
C122	C	0.870483	0.354718	0.444620
C123	C	0.853212	0.317412	0.520804
C124	C	0.777066	0.354698	0.536036
C125	C	0.718199	0.429282	0.475084
C126	C	0.164882	1.130452	-0.097932
C127	C	0.106010	1.205057	-0.158881
C128	C	0.123280	1.242367	-0.235064
C129	C	0.199427	1.205077	-0.250297
C130	C	0.258296	1.130479	-0.189347
C131	C	0.165475	1.130442	0.252810
C132	C	0.090947	1.205041	0.266479
C133	C	0.026151	1.242348	0.227621
C134	C	0.035884	1.205058	0.175086
C135	C	0.110411	1.130465	0.161414
C136	C	0.524019	1.130451	-0.097948
C137	C	0.525787	1.205034	-0.158904
C138	C	0.499144	1.242340	-0.235086
C139	C	0.470740	1.205052	-0.250313
C140	C	0.468978	1.130465	-0.189359
H141	H	0.318361	0.235572	0.309117
Br142	Br	0.002676	1.255647	-0.138190
H143	H	0.858175	0.459637	0.167089
Br144	Br	0.077756	1.255630	0.337780
H145	H	-0.222415	0.945617	0.090318
Br146	Br	0.412183	0.304054	0.424046
H147	H	0.569161	0.779884	-0.492536
H148	H	0.993383	0.324328	0.142257
Br149	Br	-0.162933	0.564543	0.211125
Br150	Br	0.546078	0.479897	0.495736
Br151	Br	0.548976	0.779855	-0.557024
H152	H	0.075337	1.303109	-0.284686
Br153	Br	0.753639	0.304057	0.639433
H154	H	0.545714	1.100088	-0.035921
H155	H	0.150806	1.100078	-0.035905
H156	H	0.213480	1.235465	-0.312332
Br157	Br	0.654313	0.479939	-0.019830
Br158	Br	0.898743	0.304141	-0.052070
H159	H	0.475945	0.256671	0.570498
H160	H	0.449049	1.235438	-0.312349
Br161	Br	0.682956	0.779867	-0.445101
Br162	Br	0.123603	1.079866	0.090123
H163	H	0.825693	0.459664	0.321638
H164	H	0.147163	0.945614	0.090350
H165	H	0.527471	0.324357	0.598074
H166	H	0.679190	0.779878	-0.312910
H167	H	0.218226	1.100072	0.284460
H168	H	0.308880	0.614127	0.195399
Br169	Br	0.933113	0.216188	0.603516
H170	H	0.445844	1.100119	-0.201769
Br171	Br	0.614870	0.479861	0.495770
H172	H	0.297314	0.779860	-0.401354
H173	H	0.430783	0.459624	0.321679
H174	H	1.011029	0.256695	0.046941
H175	H	0.932480	0.324368	0.432204
Br176	Br	0.361629	1.079878	-0.210037
H177	H	0.344087	0.347594	0.283815
H178	H	0.650752	0.779889	-0.177528
H179	H	-0.016883	1.235445	0.143451
Br180	Br	0.434093	0.479901	0.195619
H181	H	0.460282	0.779875	-0.177494
H182	H	0.416149	0.415361	0.213229
H183	H	0.037201	0.945606	0.090337
Br184	Br	-0.074989	1.343583	0.246185
H185	H	-0.060705	0.614132	0.195406
Br186	Br	0.501540	1.343567	-0.317801
Br187	Br	0.322185	0.079819	0.305552
Br188	Br	0.542408	0.079840	0.090117
H189	H	0.548915	1.235386	-0.146490
H190	H	0.407330	0.779872	-0.221739
Br191	Br	0.661562	0.191881	-0.026582
H192	H	0.560342	0.144398	0.072494
H193	H	0.325740	0.779853	-0.536744
Br194	Br	0.687285	0.303915	-0.051892
H195	H	0.198913	0.614130	0.195406
H196	H	0.326307	0.779862	-0.289417
Br197	Br	0.723099	0.479922	-0.019829
Br198	Br	-0.373030	0.995216	0.074600
