data_functionalizedCrystal
_audit_creation_method	'MofGen! by Chris Wilmer'
_symmetry_space_group_name_H-M	'P1'
_symmetry_Int_Tables_number	1
_symmetry_cell_setting	triclinic
loop_
_symmetry_equiv_pos_as_xyz
  x,y,z
_cell_length_a	15.944545
_cell_length_b	15.021413
_cell_length_c	15.944556
_cell_angle_alpha	89.992392
_cell_angle_beta	96.501229
_cell_angle_gamma	90.004532
loop_
_atom_site_label
_atom_site_type_symbol
_atom_site_fract_x
_atom_site_fract_y
_atom_site_fract_z
O1	O	1.114535	0.073998	-0.108295
O2	O	0.869985	0.074015	-0.121657
O3	O	0.998935	0.073974	0.007298
O4	O	0.985584	0.074039	-0.237251
O5	O	0.998914	-0.074090	0.007280
O6	O	0.869964	-0.074049	-0.121676
O7	O	1.114514	-0.074066	-0.108314
Zn8	Zn	0.992236	-0.097566	-0.114998
Zn9	Zn	0.992263	0.097515	-0.114973
O10	O	0.985564	-0.074025	-0.237269
C11	C	0.838680	-0.000015	-0.121113
C12	C	0.745434	-0.000010	-0.119452
N13	N	0.992223	-0.230704	-0.115014
C14	C	0.474799	-0.000042	-0.034559
C15	C	0.525372	-0.073037	-0.075497
C16	C	0.409790	-0.000027	-0.113532
C17	C	0.525372	0.072943	-0.075500
C18	C	0.574704	-0.000017	-0.116436
C19	C	0.459134	-0.073082	-0.154448
C20	C	0.459132	0.072963	-0.154440
C21	C	0.509671	-0.000049	-0.195436
C22	C	0.314788	-0.000034	-0.111856
C23	C	0.669703	-0.000017	-0.118118
C24	C	0.932588	-0.470368	-0.174615
C25	C	1.008489	-0.529703	-0.190920
C26	C	0.992245	-0.412311	-0.114993
C27	C	0.916365	-0.529718	-0.098706
C28	C	0.992259	-0.587735	-0.114974
C29	C	1.068184	-0.470339	-0.131336
C30	C	0.976010	-0.470349	-0.039089
C31	C	1.051966	-0.529657	-0.055362
C32	C	0.992236	-0.311253	-0.115005
C33	C	0.992277	-0.688790	-0.114961
C34	C	1.145818	-0.000034	-0.108858
C35	C	1.239065	-0.000033	-0.110519
C36	C	0.998369	-0.000065	0.038583
C37	C	0.996705	-0.000083	0.131829
N38	N	0.992282	0.230652	-0.114951
C39	C	0.911799	-0.000108	0.402458
C40	C	0.952740	0.072902	0.351883
C41	C	0.990769	-0.000117	0.467470
C42	C	0.952741	-0.073077	0.351892
C43	C	0.993681	-0.000102	0.302558
C44	C	1.031689	0.072953	0.418123
C45	C	1.031679	-0.073092	0.418136
C46	C	1.072678	-0.000064	0.367593
C47	C	0.989089	-0.000125	0.562472
C48	C	0.995367	-0.000088	0.207559
C49	C	0.986118	-0.000029	0.731445
C50	C	0.987748	-0.000137	0.638194
H51	H	0.459144	-0.000131	0.033453
H52	H	0.525165	-0.000074	-0.263500
O53	O	0.912944	-0.146773	0.317536
C54	C	0.837619	-0.281453	0.342803
C55	C	0.882686	-0.198043	0.381817
H56	H	0.813128	-0.322918	0.394753
H57	H	0.883895	-0.322778	0.309548
H58	H	0.782415	-0.260373	0.295208
H59	H	0.937887	-0.219044	0.429446
H60	H	0.836355	-0.156738	0.415019
H61	H	0.843785	-0.000035	0.418109
H62	H	0.962242	-0.444257	0.025072
H63	H	0.554293	-0.134766	-0.042152
O64	O	0.424632	-0.146763	-0.194146
C65	C	0.297483	-0.229406	-0.237164
C66	C	0.336449	-0.145934	-0.192176
H67	H	0.226181	-0.228754	-0.235601
H68	H	0.325327	-0.291578	-0.203738
H69	H	0.312097	-0.229652	-0.305518
H70	H	0.321850	-0.145602	-0.123821
H71	H	0.308604	-0.083800	-0.225668
O72	O	0.839735	-0.560726	-0.082375
C73	C	0.690251	-0.565805	-0.126832
C74	C	0.776980	-0.530618	-0.145408
H75	H	0.639493	-0.541493	-0.177792
H76	H	0.675849	-0.540345	-0.062647
H77	H	0.691218	-0.641690	-0.126333
H78	H	0.776078	-0.454736	-0.145952
H79	H	0.791348	-0.556147	-0.209580
H80	H	0.882188	-0.444336	-0.225076
O81	O	1.024744	-0.560771	-0.267544
C82	C	0.980282	-0.565768	-0.417029
C83	C	0.961770	-0.530546	-0.330301
H84	H	0.929388	-0.541330	-0.467793
H85	H	0.980700	-0.641656	-0.416145
H86	H	1.044507	-0.540343	-0.431359
H87	H	0.897543	-0.555905	-0.315917
H88	H	0.961407	-0.454659	-0.331229
O89	O	0.912830	0.146474	0.317387
C90	C	0.782986	0.229693	0.295716
C91	C	0.828082	0.146331	0.334804
H92	H	0.714464	0.229614	0.309798
H93	H	0.785109	0.229332	0.224488
H94	H	0.816026	0.291887	0.323975
H95	H	0.795076	0.084093	0.306611
H96	H	0.825966	0.146771	0.406032
H97	H	1.132375	-0.444366	-0.145180
H98	H	1.065024	0.134733	0.446938
O99	O	1.071424	-0.146664	0.452815
C100	C	1.114941	-0.228690	0.580219
C101	C	1.069937	-0.145312	0.541056
H102	H	1.113739	-0.227635	0.651565
H103	H	1.183177	-0.229340	0.565241
H104	H	1.081169	-0.290862	0.552828
H105	H	1.103639	-0.083097	0.568424
H106	H	1.001699	-0.144742	0.556027
O107	O	1.153895	0.000129	0.349160
C108	C	1.287274	0.077225	0.362336
C109	C	1.195311	0.077128	0.383248
H110	H	1.320790	0.139463	0.389902
H111	H	1.288014	0.076700	0.290926
H112	H	1.321116	0.015540	0.390752
H113	H	1.161413	0.138803	0.354887
H114	H	1.194631	0.077607	0.454666
H115	H	0.554298	0.134650	-0.042126
O116	O	0.424744	0.146672	-0.194181
C117	C	0.450115	0.282261	-0.268056
C118	C	0.489172	0.198826	-0.223064
H119	H	0.502185	0.324440	-0.291437
H120	H	0.415792	0.322849	-0.222078
H121	H	0.403436	0.261223	-0.324019
H122	H	0.535886	0.219785	-0.167105
H123	H	0.523442	0.158257	-0.269098
O124	O	1.112330	-0.560485	0.004713
C125	C	1.260489	-0.564997	0.055429
C126	C	1.192214	-0.530039	-0.012665
H127	H	1.325089	-0.540380	0.041413
H128	H	1.259761	-0.640887	0.055370
H129	H	1.247149	-0.539551	0.119959
H130	H	1.205507	-0.555420	-0.077228
H131	H	1.192958	-0.454150	-0.012531
