data_functionalizedCrystal
_audit_creation_method	'MofGen! by Chris Wilmer'
_symmetry_space_group_name_H-M	'P1'
_symmetry_Int_Tables_number	1
_symmetry_cell_setting	triclinic
loop_
_symmetry_equiv_pos_as_xyz
  x,y,z
_cell_length_a	16.109301
_cell_length_b	23.532357
_cell_length_c	14.586319
_cell_angle_alpha	90.009313
_cell_angle_beta	90.000787
_cell_angle_gamma	83.144886
loop_
_atom_site_label
_atom_site_type_symbol
_atom_site_fract_x
_atom_site_fract_y
_atom_site_fract_z
O1	O	1.102536	0.073204	0.076194
O2	O	1.602536	0.573204	0.576194
O3	O	0.860400	0.082314	0.076210
O4	O	1.360400	0.582314	0.576210
O5	O	0.988791	-0.005148	0.076182
O6	O	1.488791	0.494852	0.576182
O7	O	0.974145	0.160665	0.076221
O8	O	1.474145	0.660665	0.576221
O9	O	0.988782	-0.005149	-0.076298
O10	O	1.488782	0.494851	0.423702
O11	O	0.860391	0.082312	-0.076271
O12	O	1.360391	0.582312	0.423729
O13	O	1.102527	0.073202	-0.076287
O14	O	1.602527	0.573202	0.423713
Cu15	Cu	0.981458	0.077757	-0.090202
Cu16	Cu	1.481458	0.577757	0.409798
Cu17	Cu	0.981469	0.077759	0.090124
Cu18	Cu	1.481469	0.577759	0.590124
O19	O	0.974136	0.160664	-0.076260
O20	O	1.474136	0.660664	0.423740
C21	C	0.829424	0.081944	-0.000029
C22	C	1.329424	0.581944	0.499971
C23	C	0.737137	0.080838	-0.000024
C24	C	1.237137	0.580838	0.499976
C25	C	0.514464	0.130163	-0.000023
C26	C	1.014464	0.630163	0.499977
C27	C	0.427752	0.129119	-0.000029
C28	C	0.927752	0.629119	0.499971
C29	C	0.448470	0.025349	-0.000049
C30	C	0.948470	0.525349	0.499951
C31	C	0.535180	0.026394	-0.000050
C32	C	1.035180	0.526394	0.499950
C33	C	0.568175	0.078802	-0.000032
C34	C	1.068175	0.578802	0.499968
C35	C	0.394753	0.076714	-0.000037
C36	C	0.894753	0.576714	0.499963
C37	C	0.300736	0.075581	-0.000044
C38	C	0.800736	0.575581	0.499956
C39	C	0.662197	0.079935	-0.000027
C40	C	1.162197	0.579935	0.499973
C41	C	0.988421	-0.026367	-0.000061
C42	C	1.488421	0.473633	0.499939
C43	C	0.987319	-0.089589	-0.000069
C44	C	1.487319	0.410411	0.499931
C45	C	0.980409	-0.481625	0.083098
C46	C	1.480409	0.018375	0.583098
C47	C	0.979362	-0.541029	0.083103
C48	C	1.479362	-0.041029	0.583103
O49	O	0.978796	-0.571746	0.153791
O50	O	1.478796	-0.071746	0.653791
N51	N	0.978838	-0.570742	-0.000013
N52	N	1.478838	-0.070742	0.499987
C53	C	0.979353	-0.541049	-0.083140
C54	C	1.479353	-0.041049	0.416860
O55	O	0.978810	-0.571778	-0.153836
O56	O	1.478810	-0.071778	0.346164
C57	C	0.980394	-0.481646	-0.083144
C58	C	1.480394	0.018354	0.416856
C59	C	0.980926	-0.451936	-0.000023
C60	C	1.480926	0.048064	0.499977
C61	C	0.980941	-0.451915	0.166213
C62	C	1.480941	0.048085	0.666213
C63	C	0.981989	-0.392516	0.166207
C64	C	1.481989	0.107484	0.666207
C65	C	0.982506	-0.362827	0.083087
C66	C	1.482506	0.137173	0.583087
C67	C	0.981975	-0.392537	-0.000028
C68	C	1.481975	0.107463	0.499972
C69	C	0.980902	-0.451954	-0.166270
C70	C	1.480902	0.048046	0.333730
C71	C	0.981943	-0.392547	-0.166267
C72	C	1.481943	0.107453	0.333733
C73	C	0.982475	-0.362837	-0.083146
C74	C	1.482475	0.137163	0.416854
C75	C	0.983540	-0.303449	-0.083154
C76	C	1.483540	0.196551	0.416846
N77	N	0.984064	-0.273735	-0.000038
N78	N	1.484064	0.226265	0.499962
C79	C	0.983547	-0.303424	0.083082
C80	C	1.483547	0.196576	0.583082
C81	C	0.977165	-0.665799	-0.083124
C82	C	1.477165	-0.165799	0.416876
C83	C	0.976130	-0.725201	-0.083121
C84	C	1.476130	-0.225201	0.416879
C85	C	0.976138	-0.725176	0.083122
C86	C	1.476138	-0.225176	0.583122
C87	C	0.977179	-0.665773	0.083118
C88	C	1.477179	-0.165773	0.583118
C89	C	0.977689	-0.636085	-0.000008
C90	C	1.477689	-0.136085	0.499992
C91	C	0.985750	-0.178682	0.083064
C92	C	1.485750	0.321318	0.583064
C93	C	0.986802	-0.119278	0.083051
C94	C	1.486802	0.380722	0.583051
C95	C	0.986790	-0.119308	-0.083192
C96	C	1.486790	0.380692	0.416808
C97	C	0.985742	-0.178707	-0.083179
C98	C	1.485742	0.321293	0.416821
C99	C	0.985219	-0.208392	-0.000044
C100	C	1.485219	0.291608	0.499956
O101	O	0.984103	-0.272693	-0.153806
O102	O	1.484103	0.227307	0.346194
O103	O	0.984079	-0.272688	0.153767
O104	O	1.484079	0.227312	0.653767
C105	C	1.133503	0.073572	-0.000046
C106	C	1.633503	0.573572	0.499954
C107	C	1.225790	0.074678	-0.000046
C108	C	1.725790	0.574678	0.499954
C109	C	0.974507	0.181883	-0.000014
C110	C	1.474507	0.681883	0.499986
C111	C	0.975608	0.245105	0.000000
C112	C	1.475608	0.745105	0.500000
N113	N	0.981457	0.077756	-0.217034
N114	N	1.481457	0.577756	0.282966
C115	C	1.038327	0.039041	-0.452052
C116	C	1.538327	0.539041	0.047948
C117	C	1.038330	0.039039	-0.548033
C118	C	1.538330	0.539039	-0.048033
C119	C	0.924601	0.116473	-0.548019
C120	C	1.424601	0.616473	-0.048019
C121	C	0.924595	0.116471	-0.452039
C122	C	1.424595	0.616471	0.047961
C123	C	0.981463	0.077756	-0.404058
C124	C	1.481463	0.577756	0.095942
C125	C	0.981471	0.077756	-0.596019
C126	C	1.481471	0.577756	-0.096019
C127	C	0.981473	0.077755	-0.700086
C128	C	1.481473	0.577755	-0.200086
C129	C	0.981460	0.077756	-0.299985
C130	C	1.481460	0.577756	0.200015
N131	N	0.981477	0.077756	0.216956
N132	N	1.481477	0.577756	0.716956
H133	H	0.987238	-0.095091	0.150742
H134	H	1.487238	0.404909	0.650742
O135	O	0.987163	-0.090508	-0.163985
O136	O	1.487163	0.409492	0.336015
C137	C	0.915364	-0.065830	-0.306008
C138	C	1.415364	0.434170	0.193992
C139	C	0.914863	-0.098488	-0.214555
C140	C	1.414863	0.401512	0.285445
H141	H	0.856907	-0.072260	-0.346911
H142	H	1.356907	0.427740	0.153089
H143	H	0.973299	-0.082735	-0.347092
H144	H	1.473299	0.417265	0.152908
H145	H	0.916235	-0.018278	-0.291691
H146	H	1.416235	0.481722	0.208309
H147	H	0.913963	-0.146045	-0.228789
H148	H	1.413963	0.353955	0.271211
H149	H	0.856935	-0.081536	-0.173500
H150	H	1.356935	0.418464	0.326500
O151	O	0.375613	0.179027	0.000146
O152	O	0.875613	0.679027	0.500146
C153	C	0.331415	0.267416	0.079136
C154	C	0.831415	0.767416	0.579136
C155	C	0.390495	0.210908	0.079064
C156	C	0.890495	0.710908	0.579064
H157	H	0.343439	0.293213	0.142925
H158	H	0.843439	0.793213	0.642925
H159	H	0.263755	0.257704	0.079189
H160	H	0.763755	0.757704	0.579189
H161	H	0.343354	0.293182	0.015302
H162	H	0.843354	0.793182	0.515302
H163	H	0.378632	0.185114	0.142888
H164	H	0.878632	0.685114	0.642888
H165	H	0.458136	0.220660	0.078963
H166	H	0.958136	0.720660	0.578963
O167	O	0.546655	0.181021	0.000029
O168	O	1.046655	0.681021	0.500029
C169	C	0.671053	0.228623	-0.000014
C170	C	1.171053	0.728623	0.499986
C171	C	0.634712	0.170986	-0.000050
C172	C	1.134712	0.670986	0.499950
H173	H	0.742251	0.220529	-0.000098
H174	H	1.242251	0.720529	0.499902
H175	H	0.648954	0.254014	0.063818
H176	H	1.148954	0.754014	0.563818
H177	H	0.648846	0.254001	-0.063808
H178	H	1.148846	0.754001	0.436192
H179	H	0.656902	0.145562	0.063701
H180	H	1.156902	0.645562	0.563701
H181	H	0.656806	0.145638	-0.063924
H182	H	1.156806	0.645638	0.436076
H183	H	0.878285	0.147997	-0.412960
H184	H	1.378285	0.647997	0.087040
H185	H	0.578914	-0.015433	-0.000060
H186	H	1.078914	0.484567	0.499940
O187	O	0.869251	0.154024	-0.594590
O188	O	1.369251	0.654024	-0.094590
C189	C	0.724410	0.187388	-0.623923
C190	C	1.224410	0.687388	-0.123923
C191	C	0.787001	0.144820	-0.571142
C192	C	1.287001	0.644820	-0.071142
H193	H	0.657897	0.179970	-0.604971
H194	H	1.157897	0.679970	-0.104971
H195	H	0.734111	0.180740	-0.700778
H196	H	1.234111	0.680740	-0.200778
H197	H	0.734893	0.233001	-0.605049
H198	H	1.234893	0.733001	-0.105049
H199	H	0.776556	0.099190	-0.589940
H200	H	1.276556	0.599190	-0.089940
H201	H	0.777284	0.151518	-0.494301
H202	H	1.277284	0.651518	0.005699
H203	H	0.421595	-0.017321	-0.000069
H204	H	0.921595	0.482679	0.499931
O205	O	0.985267	-0.207427	0.163902
O206	O	1.485267	0.292573	0.663902
C207	C	0.985306	-0.201110	0.328790
C208	C	1.485306	0.298890	0.828790
C209	C	0.985879	-0.168489	0.237309
C210	C	1.485879	0.331511	0.737309
H211	H	0.985783	-0.169641	0.388164
H212	H	1.485783	0.330359	0.888164
H213	H	1.043015	-0.234139	0.333029
H214	H	1.543015	0.265861	0.833029
H215	H	0.926631	-0.223702	0.332897
H216	H	1.426631	0.276298	0.832897
H217	H	1.044515	-0.145862	0.233141
H218	H	1.544515	0.354138	0.733141
H219	H	0.928131	-0.135493	0.233109
H220	H	1.428131	0.364507	0.733109
H221	H	0.982420	-0.368331	0.233893
H222	H	1.482420	0.131669	0.733893
H223	H	0.980517	-0.476081	0.233903
H224	H	1.480517	0.023919	0.733903
H225	H	0.977611	-0.641587	0.150803
H226	H	1.477611	-0.141587	0.650803
O227	O	0.975519	-0.753948	0.163928
O228	O	1.475519	-0.253948	0.663928
C229	C	0.903139	-0.765669	0.305990
C230	C	1.403139	-0.265669	0.805990
C231	C	0.903744	-0.733029	0.214529
C232	C	1.403744	-0.233029	0.714529
H233	H	0.845105	-0.748777	0.346918
H234	H	1.345105	-0.248777	0.846918
H235	H	0.961498	-0.759200	0.347042
H236	H	1.461498	-0.259200	0.847042
H237	H	0.902341	-0.813228	0.291686
H238	H	1.402341	-0.313228	0.791686
H239	H	0.904512	-0.685460	0.228749
H240	H	1.404512	-0.185460	0.728749
H241	H	0.845389	-0.739546	0.173504
H242	H	1.345389	-0.239546	0.673504
O243	O	0.975471	-0.754016	-0.163892
O244	O	1.475471	-0.254016	0.336108
C245	C	0.903124	-0.765690	-0.305999
C246	C	1.403124	-0.265690	0.194001
C247	C	0.903765	-0.733028	-0.214545
C248	C	1.403765	-0.233028	0.285455
H249	H	0.845164	-0.748726	-0.346986
H250	H	1.345164	-0.248726	0.153014
H251	H	0.902231	-0.813250	-0.291792
H252	H	1.402231	-0.313250	0.208208
H253	H	0.961544	-0.759248	-0.346954
H254	H	1.461544	-0.259248	0.153046
H255	H	0.845355	-0.739423	-0.173544
H256	H	1.345355	-0.239423	0.326456
H257	H	0.904701	-0.685480	-0.228817
H258	H	1.404701	-0.185480	0.271183
O259	O	0.977525	-0.636923	-0.163855
O260	O	1.477525	-0.136923	0.336145
C261	C	0.906691	-0.563382	-0.260328
C262	C	1.406691	-0.063382	0.239672
C263	C	0.906172	-0.596044	-0.168881
C264	C	1.406172	-0.096044	0.331119
H265	H	0.849018	-0.530316	-0.264413
H266	H	1.349018	-0.030316	0.235587
H267	H	0.906086	-0.594797	-0.319763
H268	H	1.406086	-0.094797	0.180237
H269	H	0.965398	-0.540826	-0.264480
H270	H	1.465398	-0.040826	0.235520
H271	H	0.847475	-0.618602	-0.164640
H272	H	1.347475	-0.118602	0.335360
H273	H	0.906821	-0.564603	-0.109489
H274	H	1.406821	-0.064603	0.390511
H275	H	0.980470	-0.476133	-0.233957
H276	H	1.480470	0.023867	0.266043
H277	H	0.982346	-0.368376	-0.233960
H278	H	1.482346	0.131624	0.266040
H279	H	0.985316	-0.202899	-0.150863
H280	H	1.485316	0.297101	0.349137
H281	H	1.084632	0.007516	-0.412988
H282	H	1.584632	0.507516	0.087012
H283	H	1.084633	0.007514	-0.587107
H284	H	1.584633	0.507514	-0.087107
