data_functionalizedCrystal
_audit_creation_method	'MofGen! by Chris Wilmer'
_symmetry_space_group_name_H-M	'P1'
_symmetry_Int_Tables_number	1
_symmetry_cell_setting	triclinic
loop_
_symmetry_equiv_pos_as_xyz
  x,y,z
_cell_length_a	12.759401
_cell_length_b	11.169416
_cell_length_c	12.759393
_cell_angle_alpha	89.972430
_cell_angle_beta	89.979062
_cell_angle_gamma	90.011865
loop_
_atom_site_label
_atom_site_type_symbol
_atom_site_fract_x
_atom_site_fract_y
_atom_site_fract_z
Zn1	Zn	1.606298	-0.477700	-0.594041
Zn2	Zn	2.106298	0.022300	-0.094041
Zn3	Zn	1.606203	-0.678429	-0.418371
Zn4	Zn	2.106203	-0.178429	0.081629
Zn5	Zn	1.430597	-0.477764	-0.418377
Zn6	Zn	1.930597	0.022236	0.081623
Zn7	Zn	1.430602	-0.678345	-0.594008
Zn8	Zn	1.930602	-0.178345	-0.094008
O9	O	1.518425	-0.578060	-0.506199
O10	O	2.018425	-0.078060	-0.006199
O11	O	1.753307	-0.504336	-0.570750
O12	O	2.253307	-0.004336	-0.070750
O13	O	1.582866	-0.651872	-0.271350
O14	O	2.082866	-0.151872	0.228650
O15	O	1.453942	-0.309806	-0.441696
O16	O	1.953942	0.190194	0.058304
O17	O	1.753236	-0.651810	-0.441685
O18	O	2.253236	-0.151810	0.058315
O19	O	1.583029	-0.309759	-0.570756
O20	O	2.083029	0.190241	-0.070756
O21	O	1.453849	-0.504445	-0.271355
O22	O	1.953849	-0.004445	0.228645
O23	O	1.283577	-0.504363	-0.441663
O24	O	1.783577	-0.004363	0.058337
O25	O	1.453951	-0.651667	-0.741033
O26	O	1.953951	-0.151667	-0.241033
O27	O	1.283580	-0.651729	-0.570698
O28	O	1.783580	-0.151729	-0.070698
O29	O	1.583034	-0.504254	-0.741058
O30	O	2.083034	-0.004254	-0.241058
O31	O	1.582871	-0.846368	-0.441653
O32	O	2.082871	-0.346368	0.058347
O33	O	1.453858	-0.846306	-0.570692
O34	O	1.953858	-0.346306	-0.070692
C35	C	1.245458	-0.578045	-0.506178
C36	C	1.745458	-0.078045	-0.006178
C37	C	1.128681	-0.578068	-0.506194
C38	C	1.628681	-0.078068	-0.006194
C39	C	1.518383	-0.889884	-0.506191
C40	C	2.018383	-0.389884	-0.006191
C41	C	1.518462	-1.023284	-0.506223
C42	C	2.018462	-0.523284	-0.006223
C43	C	1.073849	-0.654918	-0.573277
C44	C	1.573849	-0.154918	-0.073277
C45	C	0.964125	-0.654923	-0.573298
C46	C	1.464125	-0.154923	-0.073298
C47	C	0.964075	-0.501223	-0.439144
C48	C	1.464075	-0.001223	0.060856
C49	C	1.073797	-0.501213	-0.439129
C50	C	1.573797	-0.001213	0.060871
C51	C	1.792458	-0.578075	-0.506221
C52	C	2.292458	-0.078075	-0.006221
C53	C	1.909235	-0.578082	-0.506230
C54	C	2.409235	-0.078082	-0.006230
C55	C	1.518504	-0.577944	-0.780233
C56	C	2.018504	-0.077944	-0.280233
C57	C	1.518537	-0.577895	-0.897009
C58	C	2.018537	-0.077895	-0.397009
C59	C	1.518495	-0.265017	-0.506230
C60	C	2.018495	0.234983	-0.006230
C61	C	1.518525	-0.131617	-0.506243
C62	C	2.018525	0.368383	-0.006243
C63	C	1.585756	-0.501125	-0.951886
C64	C	2.085756	-0.001125	-0.451886
C65	C	1.585773	-0.501073	-1.061610
C66	C	2.085773	-0.001073	-0.561610
C67	C	1.451351	-0.654573	-1.061571
C68	C	1.951351	-0.154573	-0.561571
C69	C	1.451329	-0.654617	-0.951849
C70	C	1.951329	-0.154617	-0.451849
C71	C	1.518407	-0.578088	-0.233232
C72	C	2.018407	-0.078088	0.266768
C73	C	1.518577	-0.577799	-0.116456
C74	C	2.018577	-0.077799	0.383544
H75	H	1.118532	-0.717495	-0.627889
H76	H	1.618532	-0.217495	-0.127889
H77	H	1.396584	-0.717132	-0.907168
H78	H	1.896584	-0.217132	-0.407168
O79	O	1.378867	-0.737318	-1.120726
O80	O	1.878867	-0.237318	-0.620726
H81	H	1.396848	-0.831524	-1.099655
H82	H	1.896848	-0.331524	-0.599655
O83	O	1.132934	-0.418320	-0.366760
O84	O	1.632934	0.081680	0.133240
H85	H	1.182947	-0.357308	-0.413864
H86	H	1.682947	0.142692	0.086136
O87	O	1.658232	-0.418371	-0.892732
O88	O	2.158232	0.081629	-0.392732
H89	H	1.704969	-0.364972	-0.949329
H90	H	2.204969	0.135028	-0.449329
H91	H	0.919375	-0.438653	-0.384540
H92	H	1.419375	0.061347	0.115460
H93	H	1.640508	-0.438557	-1.106286
H94	H	2.140508	0.061443	-0.606286
H95	H	0.919485	-0.717500	-0.627925
H96	H	1.419485	-0.217500	-0.127925
