data_functionalizedCrystal
_audit_creation_method	'MofGen! by Chris Wilmer'
_symmetry_space_group_name_H-M	'P1'
_symmetry_Int_Tables_number	1
_symmetry_cell_setting	triclinic
loop_
_symmetry_equiv_pos_as_xyz
  x,y,z
_cell_length_a	9.565339
_cell_length_b	14.044220
_cell_length_c	14.044220
_cell_angle_alpha	86.811123
_cell_angle_beta	89.991408
_cell_angle_gamma	90.002275
loop_
_atom_site_label
_atom_site_type_symbol
_atom_site_fract_x
_atom_site_fract_y
_atom_site_fract_z
O1	O	0.116264	1.277166	-0.230171
O2	O	0.116268	1.000494	-0.221866
O3	O	0.116252	1.134677	-0.087683
O4	O	0.116280	1.142983	-0.364354
O5	O	-0.116268	1.134669	-0.087669
O6	O	-0.116253	1.000486	-0.221852
O7	O	-0.116256	1.277157	-0.230158
Zn8	Zn	-0.153172	1.138820	-0.226003
Zn9	Zn	0.153183	1.138831	-0.226021
O10	O	-0.116240	1.142974	-0.364341
C11	C	0.000008	0.964868	-0.218223
C12	C	0.000009	0.858725	-0.207379
C13	C	-0.000008	1.131037	-0.052054
C14	C	-0.000010	1.120193	0.054088
N15	N	-0.362251	1.138819	-0.225991
C16	C	-0.546594	1.200309	-0.163368
C17	C	-0.453347	1.226874	-0.251002
C18	C	-0.453429	1.112297	-0.138367
C19	C	-0.546542	1.165451	-0.313707
C20	C	-0.546632	1.050832	-0.201013
C21	C	-0.453427	1.077365	-0.288707
N22	N	0.362263	1.138839	-0.226026
C23	C	0.000007	1.312783	-0.233800
C24	C	0.000015	1.418926	-0.244645
C25	C	0.000016	1.613264	-0.264471
C26	C	0.000008	1.664394	-0.187557
C27	C	0.000008	1.772530	-0.198588
C28	C	0.000016	1.505118	-0.253441
C29	C	0.000023	1.146614	-0.399969
C30	C	0.000034	1.157459	-0.506112
C31	C	0.000010	1.100366	0.248426
C32	C	0.000014	1.177281	0.299556
C33	C	0.000025	1.166249	0.407692
C34	C	-0.000001	1.111397	0.140280
H35	H	-0.587500	1.252344	-0.110462
H36	H	-0.587637	0.976434	-0.179839
O37	O	0.000078	1.619586	-0.099184
C38	C	0.000051	1.520027	-0.107696
H39	H	0.044062	1.503064	-0.180264
H40	H	0.067570	1.484611	-0.048955
H41	H	-0.111497	1.491899	-0.100750
H42	H	-0.412525	1.089857	-0.064249
H43	H	0.000107	1.251414	0.262117
H44	H	0.000025	1.650701	-0.338599
H45	H	0.000015	1.026239	0.285863
H46	H	-0.587273	1.187972	-0.387849
O47	O	-0.404519	1.315703	-0.276077
C48	C	-0.452007	1.380306	-0.209868
H49	H	-0.478204	1.339760	-0.139554
H50	H	-0.366719	1.434956	-0.197501
H51	H	-0.549496	1.418442	-0.239009
H52	H	-0.412778	1.025376	-0.341742
