data_functionalizedCrystal
_audit_creation_method	'MofGen! by Chris Wilmer'
_symmetry_space_group_name_H-M	'P1'
_symmetry_Int_Tables_number	1
_symmetry_cell_setting	triclinic
loop_
_symmetry_equiv_pos_as_xyz
  x,y,z
_cell_length_a	11.792254
_cell_length_b	10.268362
_cell_length_c	13.262508
_cell_angle_alpha	74.086956
_cell_angle_beta	84.321594
_cell_angle_gamma	90.004525
loop_
_atom_site_label
_atom_site_type_symbol
_atom_site_fract_x
_atom_site_fract_y
_atom_site_fract_z
O1	O	1.506620	0.057315	0.143924
O2	O	1.176252	0.052071	0.158737
O3	O	1.349750	0.108791	-0.001409
O4	O	1.333121	0.000595	0.304070
O5	O	1.349735	-0.107807	-0.001416
O6	O	1.176236	-0.164527	0.158730
O7	O	1.506604	-0.159283	0.143918
Cu8	Cu	1.341419	-0.181682	0.151323
Cu9	Cu	1.341437	0.074470	0.151331
O10	O	1.333106	-0.216003	0.304063
C11	C	1.133955	-0.055897	0.157800
C12	C	1.007947	-0.054907	0.155007
N13	N	1.341415	-0.361846	0.151317
C14	C	0.905615	-0.054098	0.152738
C15	C	0.777234	-0.053092	0.149901
C16	C	1.341431	-0.627521	0.151329
C17	C	1.341418	-0.479681	0.151325
C18	C	1.548901	-0.051312	0.144854
C19	C	1.674908	-0.052293	0.147647
C20	C	1.348811	0.014346	-0.040521
C21	C	1.346024	0.055628	-0.157051
N22	N	1.341450	0.254637	0.151329
C23	C	1.338129	-0.300293	-0.485558
C24	C	1.340739	-0.339080	-0.376071
C25	C	1.342061	-0.240407	-0.321311
C26	C	1.340772	-0.102939	-0.376048
C27	C	1.338153	-0.064148	-0.485545
C28	C	1.342084	-0.004262	-0.321298
C29	C	1.340795	0.133206	-0.376035
C30	C	1.338178	0.171991	-0.485521
C31	C	1.336856	0.073317	-0.540281
C32	C	1.344703	-0.043053	-0.211801
C33	C	1.344727	0.193092	-0.211787
C34	C	1.342117	0.231880	-0.321274
C35	C	1.334045	-0.121555	0.343175
C36	C	1.336832	-0.162828	0.459705
H37	H	1.345742	-0.154980	-0.167243
H38	H	1.341067	0.343808	-0.365857
H39	H	1.345795	0.273441	-0.167201
H40	H	1.344184	-0.271996	-0.232161
H41	H	1.341800	-0.451006	-0.331513
H42	H	1.337044	-0.380618	-0.530153
H43	H	1.334736	0.104892	-0.629435
H44	H	1.337118	0.283926	-0.530084
