data_functionalizedCrystal
_audit_creation_method	'MofGen! by Chris Wilmer'
_symmetry_space_group_name_H-M	'P1'
_symmetry_Int_Tables_number	1
_symmetry_cell_setting	triclinic
loop_
_symmetry_equiv_pos_as_xyz
  x,y,z
_cell_length_a	17.038275
_cell_length_b	17.038272
_cell_length_c	7.540329
_cell_angle_alpha	89.996404
_cell_angle_beta	89.997743
_cell_angle_gamma	91.110915
loop_
_atom_site_label
_atom_site_type_symbol
_atom_site_fract_x
_atom_site_fract_y
_atom_site_fract_z
O1	O	-1.048751	-0.170523	0.147521
O2	O	-0.715418	0.162810	0.480854
O3	O	-0.382084	0.496143	0.814188
O4	O	-0.820939	-0.167818	0.147517
O5	O	-0.487606	0.165515	0.480850
O6	O	-0.154273	0.498849	0.814183
O7	O	-0.933491	-0.055265	0.147505
O8	O	-0.600158	0.278068	0.480838
O9	O	-0.266825	0.611402	0.814171
O10	O	-0.936199	-0.283076	0.147533
O11	O	-0.602866	0.050257	0.480866
O12	O	-0.269532	0.383590	0.814200
O13	O	-0.933487	-0.055264	-0.147460
O14	O	-0.600154	0.278070	0.185873
O15	O	-0.266820	0.611403	0.519206
O16	O	-0.820935	-0.167817	-0.147448
O17	O	-0.487602	0.165516	0.185885
O18	O	-0.154269	0.498850	0.519218
O19	O	-1.048747	-0.170522	-0.147444
O20	O	-0.715413	0.162811	0.185889
O21	O	-0.382080	0.496144	0.519223
Cu22	Cu	-0.934841	-0.169169	-0.174379
Cu23	Cu	-0.601507	0.164164	0.158955
Cu24	Cu	-0.268174	0.497497	0.492288
Cu25	Cu	-0.934846	-0.169171	0.174452
Cu26	Cu	-0.601512	0.164162	0.507785
Cu27	Cu	-0.268179	0.497496	0.841118
O28	O	-0.936195	-0.283075	-0.147432
O29	O	-0.602862	0.050258	0.185901
O30	O	-0.269528	0.383591	0.519235
C31	C	-0.791645	-0.165355	0.000034
C32	C	-0.458311	0.167978	0.333367
C33	C	-0.124978	0.501312	0.666700
C34	C	-0.704361	-0.158008	0.000032
C35	C	-0.371028	0.175326	0.333365
C36	C	-0.037694	0.508659	0.666698
C37	C	-0.210935	-0.112871	0.000023
C38	C	0.122398	0.220462	0.333356
C39	C	0.455731	0.553796	0.666690
C40	C	-0.292947	-0.119781	0.000015
C41	C	0.040386	0.213553	0.333348
C42	C	0.373720	0.546886	0.666681
C43	C	-0.329347	-0.194154	0.000033
C44	C	0.003986	0.139179	0.333366
C45	C	0.337320	0.472513	0.666699
C46	C	-0.283730	-0.261622	0.000041
C47	C	0.049603	0.071711	0.333374
C48	C	0.382936	0.405044	0.666707
C49	C	-0.201720	-0.254712	0.000036
C50	C	0.131613	0.078621	0.333370
C51	C	0.464946	0.411954	0.666703
C52	C	-0.576734	-0.218566	0.000035
C53	C	-0.243401	0.114767	0.333369
C54	C	0.089932	0.448101	0.666702
C55	C	-0.658751	-0.225471	0.000045
C56	C	-0.325417	0.107862	0.333378
C57	C	0.007916	0.441195	0.666712
C58	C	-0.667962	-0.083629	0.000016
C59	C	-0.334628	0.249705	0.333349
C60	C	-0.001295	0.583038	0.666682
C61	C	-0.585949	-0.076725	0.000022
C62	C	-0.252616	0.256608	0.333355
C63	C	0.080717	0.589942	0.666689
C64	C	-0.540340	-0.144193	0.000021
C65	C	-0.207007	0.189140	0.333354
C66	C	0.126326	0.522473	0.666687
C67	C	-0.413176	-0.201218	0.000030
C68	C	-0.079843	0.132115	0.333363
C69	C	0.253491	0.465448	0.666696
C70	C	-0.456513	-0.137128	0.000011
C71	C	-0.123179	0.196205	0.333344
C72	C	0.210154	0.529538	0.666678
C73	C	-0.931026	-0.025972	0.000022
C74	C	-0.597693	0.307362	0.333356
C75	C	-0.264360	0.640695	0.666689
C76	C	-0.923678	0.061312	0.000023
C77	C	-0.590345	0.394645	0.333356
C78	C	-0.257011	0.727978	0.666689
C79	C	-0.078041	-0.172986	0.000038
C80	C	0.255292	0.160347	0.333371
C81	C	0.588625	0.493681	0.666705
C82	C	-0.165325	-0.180334	0.000036
C83	C	0.168008	0.152999	0.333370
C84	C	0.501342	0.486332	0.666703
C85	C	-0.938660	-0.312369	0.000054
C86	C	-0.605327	0.020965	0.333388
C87	C	-0.271993	0.354298	0.666721
C88	C	-0.946008	-0.399652	0.000065
C89	C	-0.612675	-0.066319	0.333399
C90	C	-0.279341	0.267015	0.666732
N91	N	-0.934843	-0.169168	-0.419727
N92	N	-0.601509	0.164165	-0.086394
N93	N	-0.268176	0.497498	0.246939
C94	C	-0.991142	0.106922	0.000022
C95	C	-0.657808	0.440255	0.333356
C96	C	-0.324475	0.773588	0.666689
C97	C	-0.984233	0.188934	0.000039
C98	C	-0.650900	0.522267	0.333372
C99	C	-0.317566	0.855600	0.666706
C100	C	-0.909860	0.225334	0.000044
C101	C	-0.576526	0.558667	0.333377
C102	C	-0.243193	0.892001	0.666710
C103	C	-0.842391	0.179718	0.000049
C104	C	-0.509058	0.513051	0.333383
C105	C	-0.175724	0.846384	0.666716
C106	C	-0.849301	0.097708	0.000045
C107	C	-0.515967	0.431041	0.333379
C108	C	-0.182634	0.764374	0.666712
C109	C	-0.885449	0.472722	0.000067
C110	C	-0.552116	0.806055	0.333401
C111	C	-0.218782	1.139388	0.666734
C112	C	-0.878544	0.554738	0.000066
C113	C	-0.545211	0.888071	0.333399
C114	C	-0.211878	1.221405	0.666733
C115	C	-1.020387	0.563948	0.000059
C116	C	-0.687054	0.897281	0.333392
C117	C	-0.353720	1.230615	0.666725
C118	C	-1.027290	0.481936	0.000044
C119	C	-0.693957	0.815269	0.333377
C120	C	-0.360623	1.148602	0.666711
C121	C	-0.959821	0.436327	0.000059
C122	C	-0.626488	0.769660	0.333393
C123	C	-0.293155	1.102994	0.666726
C124	C	-0.902796	0.309163	0.000055
C125	C	-0.569462	0.642496	0.333388
C126	C	-0.236129	0.975830	0.666722
C127	C	-0.966886	0.352499	0.000061
C128	C	-0.633553	0.685833	0.333394
C129	C	-0.300219	1.019166	0.666727
N130	N	-0.934849	-0.169166	0.419800
N131	N	-0.601516	0.164167	0.753133
N132	N	-0.268182	0.497501	1.086467
H133	H	-0.313374	-0.322179	0.000044
H134	H	0.019960	0.011154	0.333378
H135	H	0.353293	0.344488	0.666711
H136	H	-1.075316	0.601091	0.000050
H137	H	-0.741983	0.934425	0.333383
H138	H	-0.408649	1.267758	0.666716
H139	H	-0.426872	-0.076574	0.000016
H140	H	-0.093539	0.256760	0.333350
H141	H	0.239794	0.590093	0.666683
Cl142	Cl	-0.540196	0.016777	0.000063
Cl143	Cl	-0.206863	0.350110	0.333396
Cl144	Cl	0.126471	0.683444	0.666730
Cl145	Cl	-0.725303	0.001183	0.000003
Cl146	Cl	-0.391970	0.334516	0.333336
Cl147	Cl	-0.058637	0.667850	0.666670
Cl148	Cl	-0.704509	-0.318976	0.000065
Cl149	Cl	-0.371176	0.014357	0.333399
Cl150	Cl	-0.037843	0.347690	0.666732
H151	H	-0.817978	0.584372	0.000041
H152	H	-0.484644	0.917705	0.333375
H153	H	-0.151311	1.251039	0.666708
H154	H	-1.087853	0.452305	0.000040
H155	H	-0.754519	0.785638	0.333373
H156	H	-0.421186	1.118971	0.666707
Cl157	Cl	-0.809300	0.354930	0.000070
Cl158	Cl	-0.475967	0.688264	0.333403
Cl159	Cl	-0.142634	1.021597	0.666737
Cl160	Cl	-1.060380	0.306738	0.000064
Cl161	Cl	-0.727047	0.640071	0.333397
Cl162	Cl	-0.393714	0.973404	0.666731
H163	H	-0.539609	-0.273504	0.000043
H164	H	-0.206276	0.059829	0.333377
H165	H	0.127058	0.393163	0.666710
H166	H	-0.794364	0.060572	0.000046
H167	H	-0.461031	0.393906	0.333380
H168	H	-0.127698	0.727239	0.666713
Cl169	Cl	-0.144381	-0.339527	0.000041
Cl170	Cl	0.188952	-0.006194	0.333374
Cl171	Cl	0.522286	0.327139	0.666708
H172	H	-0.442822	-0.261774	0.000050
H173	H	-0.109489	0.071560	0.333383
H174	H	0.223845	0.404893	0.666716
Cl175	Cl	-1.084644	0.061170	-0.000002
Cl176	Cl	-0.751311	0.394503	0.333331
Cl177	Cl	-0.417978	0.727837	0.666665
H178	H	-1.039169	0.226066	0.000035
H179	H	-0.705836	0.559399	0.333368
H180	H	-0.372502	0.892733	0.666701
Cl181	Cl	-0.800630	0.415395	0.000091
Cl182	Cl	-0.467297	0.748729	0.333424
Cl183	Cl	-0.133963	1.082062	0.666758
H184	H	-0.781834	0.209361	0.000064
H185	H	-0.448501	0.542695	0.333398
H186	H	-0.115168	0.876028	0.666731
H187	H	-0.330080	-0.064844	-0.000004
H188	H	0.003253	0.268489	0.333330
H189	H	0.336587	0.601822	0.666663
Cl190	Cl	-0.165184	-0.019368	0.000007
Cl191	Cl	0.168149	0.313965	0.333340
Cl192	Cl	0.501483	0.647298	0.666674
