data_functionalizedCrystal
_audit_creation_method	'MofGen! by Chris Wilmer'
_symmetry_space_group_name_H-M	'P1'
_symmetry_Int_Tables_number	1
_symmetry_cell_setting	triclinic
loop_
_symmetry_equiv_pos_as_xyz
  x,y,z
_cell_length_a	17.038272
_cell_length_b	12.837943
_cell_length_c	11.295483
_cell_angle_alpha	85.461227
_cell_angle_beta	85.601740
_cell_angle_gamma	87.029752
loop_
_atom_site_label
_atom_site_type_symbol
_atom_site_fract_x
_atom_site_fract_y
_atom_site_fract_z
O1	O	-0.199825	1.400055	-0.098972
O2	O	0.300175	1.900055	0.401028
O3	O	-0.189717	1.097359	-0.098980
O4	O	0.310283	1.597359	0.401020
O5	O	-0.080821	1.246908	-0.098986
O6	O	0.419179	1.746908	0.401014
O7	O	-0.308721	1.250505	-0.098965
O8	O	0.191279	1.750505	0.401035
O9	O	-0.090369	1.233772	0.099065
O10	O	0.409631	1.733772	0.599065
O11	O	-0.199266	1.084222	0.099071
O12	O	0.300734	1.584222	0.599071
O13	O	-0.209373	1.386918	0.099080
O14	O	0.290627	1.886918	0.599080
Cu15	Cu	-0.205191	1.234370	0.117159
Cu16	Cu	0.294809	1.734370	0.617159
Cu17	Cu	-0.193899	1.249906	-0.117060
Cu18	Cu	0.306101	1.749906	0.382940
O19	O	-0.318269	1.237368	0.099086
O20	O	0.181731	1.737368	0.599086
C21	C	-0.191077	1.051869	0.000044
C22	C	0.308923	1.551869	0.500044
C23	C	-0.180894	0.935894	0.000040
C24	C	0.319106	1.435894	0.500040
C25	C	-0.303312	0.705729	0.000068
C26	C	0.196688	1.205729	0.500068
C27	C	-0.293748	0.596760	0.000065
C28	C	0.206252	1.096760	0.500065
C29	C	-0.152203	0.608984	0.000040
C30	C	0.347797	1.108984	0.500040
C31	C	-0.161767	0.717953	0.000043
C32	C	0.338233	1.217953	0.500043
C33	C	-0.237324	0.766322	0.000055
C34	C	0.262676	1.266322	0.500055
C35	C	-0.246887	0.875293	0.000049
C36	C	0.253113	1.375293	0.500049
C37	C	-0.105342	0.887514	0.000032
C38	C	0.394658	1.387514	0.500032
C39	C	-0.095778	0.778545	0.000029
C40	C	0.404222	1.278545	0.500029
C41	C	-0.342868	1.247209	0.000063
C42	C	0.157132	1.747209	0.500063
C43	C	-0.430391	1.256972	0.000071
C44	C	0.069609	1.756972	0.500071
C45	C	-0.473809	1.167332	0.000068
C46	C	0.026191	1.667332	0.500068
C47	C	-0.556044	1.176513	0.000053
C48	C	-0.056044	1.676513	0.500053
C49	C	-0.594861	1.275334	0.000050
C50	C	-0.094861	1.775334	0.500050
C51	C	-0.551437	1.364981	0.000050
C52	C	-0.051437	1.864981	0.500050
C53	C	-0.469202	1.355800	0.000056
C54	C	0.030798	1.855800	0.500056
C55	C	-0.843040	1.307771	0.000024
C56	C	-0.343040	1.807771	0.500024
C57	C	-0.925281	1.316945	0.000021
C58	C	-0.425281	1.816945	0.500021
C59	C	-0.929883	1.128476	0.000023
C60	C	-0.429883	1.628476	0.500023
C61	C	-0.847647	1.119303	0.000036
C62	C	-0.347647	1.619303	0.500036
C63	C	-0.804230	1.208950	0.000029
C64	C	-0.304230	1.708950	0.500029
C65	C	-0.678919	1.284721	0.000039
C66	C	-0.178919	1.784721	0.500039
C67	C	-0.720173	1.199564	0.000032
C68	C	-0.220173	1.699564	0.500032
C69	C	-0.056222	1.237068	0.000034
C70	C	0.443778	1.737068	0.500034
C71	C	0.031301	1.227305	0.000018
C72	C	0.531301	1.727305	0.500018
C73	C	-0.208013	1.432408	0.000053
C74	C	0.291987	1.932408	0.500053
C75	C	-0.218196	1.548384	0.000049
C76	C	0.281804	2.048384	0.500049
N77	N	-0.213133	1.223451	0.281896
N78	N	0.286867	1.723451	0.781896
N79	N	-0.185951	1.260833	-0.281796
N80	N	0.314049	1.760833	0.218204
C81	C	-0.128735	1.339433	0.531181
C82	C	0.371265	1.839433	1.031181
C83	C	-0.134743	1.331189	0.655845
C84	C	0.365257	1.831189	1.155845
C85	C	-0.231153	1.198714	0.655890
C86	C	0.268847	1.698714	1.155890
C87	C	-0.225145	1.206958	0.531226
C88	C	0.274855	1.706958	1.031226
C89	C	-0.173935	1.277321	0.468876
C90	C	0.326065	1.777321	0.968876
C91	C	-0.167931	1.285570	0.344209
C92	C	0.332069	1.785570	0.844209
C93	C	-0.264337	1.153090	0.344257
C94	C	0.235663	1.653090	0.844257
C95	C	-0.270345	1.144846	0.468921
C96	C	0.229655	1.644846	0.968921
H97	H	-0.034262	0.739147	0.000033
H98	H	0.465738	1.239147	0.500033
C99	C	-0.069096	0.555758	0.000039
C100	C	0.430904	1.055758	0.500039
N101	N	-0.006500	0.515667	0.000039
N102	N	0.493500	1.015667	0.500039
C103	C	-0.795293	1.406385	0.000044
C104	C	-0.295293	1.906385	0.500044
N105	N	-0.759328	1.480666	0.000067
N106	N	-0.259328	1.980666	0.500067
H107	H	-0.312037	1.087555	0.519701
H108	H	0.187963	1.587555	1.019701
H109	H	-0.347483	0.547429	0.000079
H110	H	0.152517	1.047429	0.500079
H111	H	-0.583048	1.445443	0.000049
H112	H	-0.083048	1.945443	0.500049
H113	H	-0.591392	1.103519	0.000047
H114	H	-0.091392	1.603519	0.500047
C115	C	-0.314061	1.084762	0.275712
C116	C	0.185939	1.584762	0.775712
N117	N	-0.351513	1.033301	0.224082
N118	N	0.148487	1.533301	0.724082
H119	H	-0.965242	1.055491	0.000027
H120	H	-0.465242	1.555491	0.500027
H121	H	-0.710534	1.365179	0.000076
H122	H	-0.210534	1.865179	0.500076
H123	H	-0.051609	0.936861	0.000014
H124	H	0.448391	1.436861	0.500014
H125	H	-0.442211	1.086860	0.000084
H126	H	0.057789	1.586860	0.500084
C127	C	-0.804955	1.010593	0.000037
C128	C	-0.304955	1.510593	0.500037
N129	N	-0.772800	0.928710	0.000042
N130	N	-0.272800	1.428710	0.500042
H131	H	-0.272841	1.141419	0.706672
H132	H	0.227159	1.641419	1.206672
C133	C	-0.386425	0.758938	0.000074
C134	C	0.113575	1.258938	0.500074
N135	N	-0.449026	0.799013	0.000080
N136	N	0.050974	1.299013	0.500080
H137	H	-0.956883	1.397421	0.000020
H138	H	-0.456883	1.897421	0.500020
C139	C	-0.677472	1.090863	0.000043
C140	C	-0.177472	1.590863	0.500043
N141	N	-0.645304	1.008988	0.000061
N142	N	-0.145304	1.508988	0.500061
C143	C	-0.111598	1.362967	0.275626
C144	C	0.388402	1.862967	0.775626
N145	N	-0.069163	1.421261	0.223972
N146	N	0.430837	1.921261	0.723972
H147	H	-0.308410	0.914673	0.000062
H148	H	0.191590	1.414673	0.500062
H149	H	-0.433852	1.428795	0.000053
H150	H	0.066148	1.928795	0.500053
H151	H	-0.097935	1.381766	0.706570
H152	H	0.402065	1.881766	1.206570
C153	C	-0.072408	1.416837	0.462592
C154	C	0.427592	1.916837	0.962592
N155	N	-0.029980	1.475138	0.410934
N156	N	0.470020	1.975138	0.910934
