data_functionalizedCrystal
_audit_creation_method	'MofGen! by Chris Wilmer'
_symmetry_space_group_name_H-M	'P1'
_symmetry_Int_Tables_number	1
_symmetry_cell_setting	triclinic
loop_
_symmetry_equiv_pos_as_xyz
  x,y,z
_cell_length_a	19.805405
_cell_length_b	19.805407
_cell_length_c	19.805399
_cell_angle_alpha	90.020409
_cell_angle_beta	90.029301
_cell_angle_gamma	90.028350
loop_
_atom_site_label
_atom_site_type_symbol
_atom_site_fract_x
_atom_site_fract_y
_atom_site_fract_z
Zn1	Zn	-0.269444	1.034736	0.382727
Zn2	Zn	0.063890	1.368069	0.716060
Zn3	Zn	0.397223	1.701402	1.049393
Zn4	Zn	-0.382632	1.034651	0.269535
Zn5	Zn	-0.049299	1.367984	0.602868
Zn6	Zn	0.284034	1.701317	0.936202
Zn7	Zn	-0.269466	0.921550	0.269550
Zn8	Zn	0.063867	1.254884	0.602883
Zn9	Zn	0.397200	1.588217	0.936216
Zn10	Zn	-0.382600	0.921514	0.382680
Zn11	Zn	-0.049267	1.254847	0.716013
Zn12	Zn	0.284067	1.588181	1.049347
O13	O	-0.326036	0.978113	0.326123
O14	O	0.007298	1.311446	0.659456
O15	O	0.340631	1.644779	0.992790
O16	O	-0.284463	1.129441	0.367725
O17	O	0.048871	1.462774	0.701058
O18	O	0.382204	1.796108	1.034392
O19	O	-0.367643	1.019627	0.174820
O20	O	-0.034310	1.352961	0.508154
O21	O	0.299023	1.686294	0.841487
O22	O	-0.174747	0.936616	0.284588
O23	O	0.158587	1.269949	0.617922
O24	O	0.491920	1.603282	0.951255
O25	O	-0.367622	1.129378	0.284564
O26	O	-0.034288	1.462712	0.617897
O27	O	0.299045	1.796045	0.951230
O28	O	-0.174730	1.019772	0.367739
O29	O	0.158603	1.353106	0.701072
O30	O	0.491936	1.686439	1.034406
O31	O	-0.284501	0.936533	0.174831
O32	O	0.048832	1.269866	0.508164
O33	O	0.382166	1.603200	0.841498
O34	O	-0.284470	0.826829	0.284543
O35	O	0.048864	1.160162	0.617877
O36	O	0.382197	1.493496	0.951210
O37	O	-0.367567	0.936553	0.477403
O38	O	-0.034233	1.269887	0.810736
O39	O	0.299100	1.603220	1.144070
O40	O	-0.367589	0.826802	0.367660
O41	O	-0.034255	1.160135	0.700993
O42	O	0.299078	1.493469	1.034326
O43	O	-0.284431	1.019737	0.477437
O44	O	0.048902	1.353070	0.810770
O45	O	0.382235	1.686404	1.144104
O46	O	-0.477345	1.019592	0.284518
O47	O	-0.144011	1.352925	0.617852
O48	O	0.189322	1.686258	0.951185
O49	O	-0.477321	0.936471	0.367646
O50	O	-0.143988	1.269804	0.700979
O51	O	0.189346	1.603137	1.034312
C52	C	-0.326029	0.802257	0.326098
C53	C	0.007305	1.135590	0.659432
C54	C	0.340638	1.468923	0.992765
C55	C	-0.326042	0.727025	0.326104
C56	C	0.007291	1.060358	0.659437
C57	C	0.340625	1.393691	0.992771
C58	C	-0.282816	0.265270	0.369517
C59	C	0.050518	0.598603	0.702851
C60	C	0.383851	0.931936	1.036184
C61	C	-0.282817	0.335958	0.369513
C62	C	0.050516	0.669291	0.702846
C63	C	0.383850	1.002625	1.036179
C64	C	-0.326046	0.371263	0.326145
C65	C	0.007287	0.704596	0.659478
C66	C	0.340621	1.037930	0.992811
C67	C	-0.369281	0.335876	0.282784
C68	C	-0.035948	0.669209	0.616117
C69	C	0.297385	1.002542	0.949450
C70	C	-0.369283	0.265188	0.282793
C71	C	-0.035950	0.598522	0.616126
C72	C	0.297384	0.931855	0.949459
C73	C	-0.369276	0.620949	0.282748
C74	C	-0.035943	0.954282	0.616081
C75	C	0.297391	1.287616	0.949415
C76	C	-0.369270	0.691641	0.282741
C77	C	-0.035936	1.024974	0.616074
C78	C	0.297397	1.358308	0.949408
C79	C	-0.282810	0.691719	0.369468
C80	C	0.050523	1.025052	0.702801
C81	C	0.383857	1.358385	1.036135
C82	C	-0.282812	0.621031	0.369477
C83	C	0.050522	0.954365	0.702810
C84	C	0.383855	1.287698	1.036143
C85	C	-0.326049	0.585650	0.326119
C86	C	0.007284	0.918984	0.659452
C87	C	0.340617	1.252317	0.992785
C88	C	-0.326048	0.509002	0.326125
C89	C	0.007285	0.842335	0.659459
C90	C	0.340618	1.175668	0.992792
C91	C	-0.326044	0.447910	0.326134
C92	C	0.007289	0.781243	0.659467
C93	C	0.340623	1.114577	0.992801
C94	C	-0.501892	0.978036	0.326090
C95	C	-0.168558	1.311370	0.659423
C96	C	0.164775	1.644703	0.992757
C97	C	-0.577124	0.978066	0.326099
C98	C	-0.243790	1.311399	0.659432
C99	C	0.089543	1.644732	0.992765
C100	C	-0.612458	1.021389	0.282860
C101	C	-0.279124	1.354722	0.616193
C102	C	0.054209	1.688056	0.949526
C103	C	-0.683146	1.021418	0.282875
C104	C	-0.349813	1.354751	0.616208
C105	C	-0.016479	1.688084	0.949541
C106	C	-0.718499	0.978119	0.326126
C107	C	-0.385166	1.311453	0.659459
C108	C	-0.051833	1.644786	0.992792
C109	C	-0.683160	0.934794	0.369370
C110	C	-0.349827	1.268128	0.702703
C111	C	-0.016494	1.601461	1.036036
C112	C	-0.612473	0.934769	0.369357
C113	C	-0.279140	1.268103	0.702691
C114	C	0.054194	1.601436	1.036024
C115	C	-0.968233	0.934894	0.369420
C116	C	-0.634900	1.268227	0.702753
C117	C	-0.301567	1.601561	1.036086
C118	C	-1.038926	0.934921	0.369427
C119	C	-0.705592	1.268254	0.702760
C120	C	-0.372259	1.601588	1.036094
C121	C	-1.038906	1.021542	0.282937
C122	C	-0.705573	1.354876	0.616270
C123	C	-0.372240	1.688209	0.949604
C124	C	-0.968219	1.021518	0.282925
C125	C	-0.634886	1.354851	0.616258
C126	C	-0.301553	1.688184	0.949592
C127	C	-0.932886	0.978195	0.326171
C128	C	-0.599553	1.311529	0.659504
C129	C	-0.266220	1.644862	0.992837
C130	C	-0.856238	0.978166	0.326155
C131	C	-0.522905	1.311499	0.659488
C132	C	-0.189571	1.644832	0.992822
C133	C	-0.795146	0.978145	0.326139
C134	C	-0.461813	1.311479	0.659472
C135	C	-0.128480	1.644812	0.992805
C136	C	-0.149493	0.978207	0.326171
C137	C	0.183840	1.311541	0.659504
C138	C	0.517174	1.644874	0.992837
C139	C	-0.074261	0.978248	0.326191
C140	C	0.259073	1.311581	0.659524
C141	C	0.592406	1.644915	0.992858
C142	C	-0.325993	0.978151	0.502666
C143	C	0.007340	1.311484	0.835999
C144	C	0.340674	1.644817	1.169332
C145	C	-0.325975	0.978167	0.577898
C146	C	0.007359	1.311500	0.911231
C147	C	0.340692	1.644833	1.244564
C148	C	-0.326043	1.154655	0.326148
C149	C	0.007290	1.487989	0.659481
C150	C	0.340624	1.821322	0.992814
C151	C	-0.326046	1.229887	0.326158
C152	C	0.007287	1.563221	0.659492
C153	C	0.340620	1.896554	0.992825
C154	C	-0.326029	0.978114	0.150267
C155	C	0.007304	1.311447	0.483600
C156	C	0.340637	1.644780	0.816934
C157	C	-0.325857	0.978229	0.075035
C158	C	0.007477	1.311562	0.408369
C159	C	0.340810	1.644895	0.741702
C160	C	-0.282684	1.021481	0.613261
C161	C	0.050649	1.354815	0.946594
C162	C	0.383983	1.688148	1.279927
C163	C	-0.282664	1.021488	0.683949
C164	C	0.050669	1.354822	1.017283
C165	C	0.384002	1.688155	1.350616
C166	C	-0.325939	0.978184	0.719273
C167	C	0.007394	1.311517	1.052607
C168	C	0.340727	1.644850	1.385940
C169	C	-0.369232	0.934864	0.683905
C170	C	-0.035899	1.268197	1.017239
C171	C	0.297435	1.601531	1.350572
C172	C	-0.369248	0.934854	0.613218
C173	C	-0.035914	1.268188	0.946551
C174	C	0.297419	1.601521	1.279885
C175	C	-0.369169	0.934902	0.968979
C176	C	-0.035836	1.268236	1.302312
C177	C	0.297498	1.601569	1.635645
C178	C	-0.369151	0.934917	1.039671
C179	C	-0.035818	1.268250	1.373004
C180	C	0.297515	1.601584	1.706338
C181	C	-0.282586	1.021536	1.039710
C182	C	0.050748	1.354870	1.373043
C183	C	0.384081	1.688203	1.706377
C184	C	-0.282601	1.021527	0.969023
C185	C	0.050732	1.354860	1.302356
C186	C	0.384065	1.688193	1.635689
C187	C	-0.325891	0.978205	0.933661
C188	C	0.007442	1.311538	1.266994
C189	C	0.340776	1.644872	1.600327
C190	C	-0.325911	0.978197	0.857012
C191	C	0.007422	1.311530	1.190346
C192	C	0.340756	1.644864	1.523679
C193	C	-0.325923	0.978194	0.795921
C194	C	0.007410	1.311528	1.129254
C195	C	0.340743	1.644861	1.462587
H196	H	-0.404481	0.592150	0.247441
H197	H	-0.071148	0.925483	0.580774
H198	H	0.262186	1.258817	0.914108
Br199	Br	-0.224131	0.739739	0.428314
Br200	Br	0.109203	1.073073	0.761648
Br201	Br	0.442536	1.406406	1.094981
Br202	Br	-0.223873	1.080303	0.921086
Br203	Br	0.109461	1.413636	1.254419
Br204	Br	0.442794	1.746970	1.587753
Br205	Br	-0.920291	0.876100	0.428111
Br206	Br	-0.586957	1.209433	0.761444
Br207	Br	-0.253624	1.542767	1.094778
H208	H	-0.404482	0.364626	0.247475
H209	H	-0.071148	0.697960	0.580809
H210	H	0.262185	1.031293	0.914142
H211	H	-0.404493	0.899576	0.584426
H212	H	-0.071159	1.232909	0.917760
H213	H	0.262174	1.566243	1.251093
H214	H	-0.404487	0.236381	0.247486
H215	H	-0.071154	0.569714	0.580820
H216	H	0.262180	0.903048	0.914153
Br217	Br	-0.731139	0.876037	0.428074
Br218	Br	-0.397805	1.209370	0.761407
Br219	Br	-0.064472	1.542704	1.094741
Br220	Br	-0.427918	0.876107	0.920996
Br221	Br	-0.094585	1.209441	1.254330
Br222	Br	0.238748	1.542774	1.587663
Br223	Br	-0.564485	1.080148	0.224152
Br224	Br	-0.231152	1.413481	0.557486
Br225	Br	0.102182	1.746815	0.890819
Br226	Br	-0.427959	0.876088	0.731844
Br227	Br	-0.094626	1.209422	1.065178
Br228	Br	0.238707	1.542755	1.398511
Br229	Br	-0.731097	1.080220	0.224195
Br230	Br	-0.397764	1.413553	0.557528
Br231	Br	-0.064430	1.746887	0.890861
Br232	Br	-0.920243	1.080280	0.224224
Br233	Br	-0.586910	1.413614	0.557557
Br234	Br	-0.253577	1.746947	0.890890
Br235	Br	-0.224139	0.217363	0.428372
Br236	Br	0.109194	0.550696	0.761705
Br237	Br	0.442528	0.884029	1.095038
H238	H	-1.067683	1.056820	0.247726
H239	H	-0.734349	1.390153	0.581060
H240	H	-0.401016	1.723487	0.914393
H241	H	-0.247414	1.056761	0.712739
H242	H	0.085919	1.390094	1.046072
H243	H	0.419252	1.723428	1.379405
Br244	Br	-1.086905	0.876155	0.428129
Br245	Br	-0.753572	1.209488	0.761462
Br246	Br	-0.420238	1.542821	1.094795
H247	H	-0.247446	1.056747	0.584505
H248	H	0.085887	1.390081	0.917838
H249	H	0.419220	1.723414	1.251172
H250	H	-0.247335	1.056809	1.068510
H251	H	0.085999	1.390142	1.401843
H252	H	0.419332	1.723475	1.735177
Br253	Br	-0.224139	0.573121	0.428332
Br254	Br	0.109194	0.906454	0.761666
Br255	Br	0.442528	1.239788	1.094999
H256	H	-0.404392	0.899650	1.068430
H257	H	-0.071059	1.232983	1.401763
H258	H	0.262274	1.566317	1.735097
H259	H	-0.404475	0.720384	0.247424
H260	H	-0.071142	1.053718	0.580758
H261	H	0.262192	1.387051	0.914091
Br262	Br	-0.224150	0.383975	0.428365
Br263	Br	0.109184	0.717308	0.761699
Br264	Br	0.442517	1.050641	1.095032
Br265	Br	-0.564519	0.875976	0.428046
Br266	Br	-0.231185	1.209309	0.761379
Br267	Br	0.102148	1.542642	1.094712
