data_functionalizedCrystal
_audit_creation_method	'MofGen! by Chris Wilmer'
_symmetry_space_group_name_H-M	'P1'
_symmetry_Int_Tables_number	1
_symmetry_cell_setting	triclinic
loop_
_symmetry_equiv_pos_as_xyz
  x,y,z
_cell_length_a	12.759401
_cell_length_b	12.759400
_cell_length_c	12.759393
_cell_angle_alpha	89.969553
_cell_angle_beta	89.980316
_cell_angle_gamma	90.012280
loop_
_atom_site_label
_atom_site_type_symbol
_atom_site_fract_x
_atom_site_fract_y
_atom_site_fract_z
Zn1	Zn	1.606267	-0.418229	-0.594023
Zn2	Zn	1.606166	-0.593948	-0.418346
Zn3	Zn	1.430569	-0.418281	-0.418359
Zn4	Zn	1.430562	-0.593864	-0.593984
O5	O	1.518391	-0.506080	-0.506178
O6	O	1.753274	-0.441552	-0.570730
O7	O	1.582833	-0.570702	-0.271327
O8	O	1.453920	-0.271253	-0.441682
O9	O	1.753200	-0.570652	-0.441661
O10	O	1.583005	-0.271215	-0.570742
O11	O	1.453822	-0.441640	-0.271336
O12	O	1.283547	-0.441559	-0.441645
O13	O	1.453909	-0.570509	-0.741010
O14	O	1.283542	-0.570559	-0.570676
O15	O	1.582998	-0.441471	-0.741039
O16	O	1.582826	-0.740958	-0.441624
O17	O	1.453811	-0.740896	-0.570664
C18	C	1.245423	-0.506056	-0.506158
C19	C	1.128647	-0.506071	-0.506174
C20	C	1.073756	-0.438812	-0.439111
C21	C	0.964032	-0.438837	-0.439125
C22	C	0.964099	-0.573383	-0.573273
C23	C	1.073821	-0.573362	-0.573254
C24	C	1.073717	-0.361130	-0.361665
C25	C	0.963993	-0.361155	-0.361678
C26	C	1.518336	-0.779048	-0.506161
C27	C	1.518408	-0.895824	-0.506189
C28	C	1.585589	-0.950587	-0.573446
C29	C	1.585638	-1.060311	-0.573471
C30	C	1.451322	-1.060500	-0.438975
C31	C	1.451269	-0.950778	-0.438956
C32	C	1.652728	-0.895633	-0.640680
C33	C	1.719915	-0.950396	-0.707941
C34	C	1.719964	-1.060120	-0.707966
C35	C	1.652826	-1.115081	-0.640731
C36	C	1.792424	-0.506106	-0.506199
C37	C	1.909201	-0.506116	-0.506207
C38	C	1.518464	-0.505974	-0.780211
C39	C	1.518496	-0.505929	-0.896988
C40	C	1.518475	-0.232047	-0.506218
C41	C	1.518510	-0.115271	-0.506235
C42	C	1.585722	-0.438733	-0.951867
C43	C	1.585747	-0.438695	-1.061591
C44	C	1.451316	-0.573059	-1.061548
C45	C	1.451287	-0.573091	-0.951826
C46	C	1.663337	-0.361162	-0.951892
C47	C	1.663362	-0.361124	-1.061616
C48	C	1.518378	-0.506110	-0.233211
C49	C	1.518550	-0.505859	-0.116434
H50	H	1.118508	-0.628141	-0.627853
Cl51	Cl	0.895167	-0.657976	-0.657593
Cl52	Cl	1.119631	-0.394614	-0.235973
H53	H	1.740610	-0.390332	-0.917858
H54	H	1.107767	-0.283867	-0.390941
Cl55	Cl	1.618260	-0.241826	-1.114190
Cl56	Cl	0.911382	-0.406008	-0.242268
H57	H	0.934227	-0.279815	-0.383613
H58	H	1.396662	-1.105259	-0.384235
Cl59	Cl	1.652645	-0.757695	-0.640679
Cl60	Cl	1.788992	-0.394757	-1.107603
H61	H	1.652859	-1.204426	-0.640769
H62	H	1.396563	-0.906190	-0.384190
H63	H	1.774571	-0.905640	-0.762688
H64	H	1.774662	-1.104704	-0.762742
H65	H	1.396541	-0.627805	-0.907148
H66	H	1.396595	-0.627737	-1.106211
H67	H	1.641566	-0.279797	-0.922134
