data_functionalizedCrystal
_audit_creation_method	'MofGen! by Chris Wilmer'
_symmetry_space_group_name_H-M	'P1'
_symmetry_Int_Tables_number	1
_symmetry_cell_setting	triclinic
loop_
_symmetry_equiv_pos_as_xyz
  x,y,z
_cell_length_a	18.101398
_cell_length_b	12.759399
_cell_length_c	12.759393
_cell_angle_alpha	90.032031
_cell_angle_beta	89.973031
_cell_angle_gamma	89.989617
loop_
_atom_site_label
_atom_site_type_symbol
_atom_site_fract_x
_atom_site_fract_y
_atom_site_fract_z
Zn1	Zn	1.132223	0.418336	-0.594217
Zn2	Zn	1.632223	0.918336	-0.094217
Zn3	Zn	1.132147	0.594055	-0.418536
Zn4	Zn	1.632147	1.094055	0.081464
Zn5	Zn	1.008376	0.418377	-0.418530
Zn6	Zn	1.508376	0.918377	0.081470
Zn7	Zn	1.008367	0.593959	-0.594151
Zn8	Zn	1.508367	1.093959	-0.094151
O9	O	1.070278	0.506182	-0.506359
O10	O	1.570278	1.006182	-0.006359
O11	O	1.235846	0.441669	-0.570942
O12	O	1.735846	0.941669	-0.070942
O13	O	1.115701	0.570808	-0.271514
O14	O	1.615701	1.070808	0.228486
O15	O	1.024840	0.271350	-0.441861
O16	O	1.524840	0.771350	0.058139
O17	O	1.235790	0.570769	-0.441870
O18	O	1.735790	1.070769	0.058130
O19	O	1.115829	0.271321	-0.570937
O20	O	1.615829	0.771321	-0.070937
O21	O	1.024767	0.441738	-0.271510
O22	O	1.524767	0.941738	0.228490
O23	O	0.904742	0.441645	-0.441797
O24	O	1.404742	0.941645	0.058203
O25	O	1.024824	0.570606	-0.741181
O26	O	1.524824	1.070606	-0.241181
O27	O	0.904735	0.570645	-0.570825
O28	O	1.404735	1.070645	-0.070825
O29	O	1.115821	0.441576	-0.741229
O30	O	1.615821	0.941576	-0.241229
O31	O	1.115692	0.741064	-0.441806
O32	O	1.615692	1.241064	0.058194
O33	O	1.024751	0.740993	-0.570830
O34	O	1.524751	1.240993	-0.070830
C35	C	0.877868	0.506139	-0.506304
C36	C	1.377868	1.006139	-0.006304
C37	C	0.795554	0.506146	-0.506305
C38	C	1.295554	1.006146	-0.006305
C39	C	1.070233	0.779149	-0.506335
C40	C	1.570233	1.279149	-0.006335
C41	C	1.070281	0.895926	-0.506360
C42	C	1.570281	1.395926	-0.006360
C43	C	1.070330	0.506076	-0.780392
C44	C	1.570330	1.006076	-0.280392
C45	C	1.070352	0.506030	-0.897169
C46	C	1.570352	1.006030	-0.397169
C47	C	0.496463	0.506212	-0.506393
C48	C	0.996463	1.006212	-0.006393
C49	C	0.527767	0.424643	-0.425609
C50	C	1.027767	0.924643	0.074391
C51	C	0.613385	0.424862	-0.425264
C52	C	1.113385	0.924862	0.074736
C53	C	0.644845	0.506178	-0.506350
C54	C	1.144845	1.006178	-0.006350
C55	C	0.613748	0.616855	-0.476103
C56	C	1.113748	1.116855	0.023897
C57	C	0.528103	0.616402	-0.475541
C58	C	1.028103	1.116402	0.024459
C59	C	0.528075	0.478067	-0.617615
C60	C	1.028075	0.978067	-0.117615
C61	C	0.613726	0.475602	-0.617008
C62	C	1.113726	0.975602	-0.117008
C63	C	0.728705	0.506166	-0.506327
C64	C	1.228705	1.006166	-0.006327
C65	C	0.412603	0.506231	-0.506414
C66	C	0.912603	1.006231	-0.006414
C67	C	1.263440	0.506225	-0.506414
C68	C	1.763440	1.006225	-0.006414
C69	C	1.345754	0.506244	-0.506438
C70	C	1.845754	1.006244	-0.006438
C71	C	1.070344	0.232149	-0.506406
C72	C	1.570344	0.732149	-0.006406
C73	C	1.070372	0.115372	-0.506426
C74	C	1.570372	0.615372	-0.006426
C75	C	1.117688	0.950790	-0.439253
C76	C	1.617688	1.450790	0.060747
C77	C	1.117736	1.060514	-0.439289
C78	C	1.617736	1.560514	0.060711
C79	C	1.022963	1.060501	-0.573539
C80	C	1.522963	1.560501	-0.073539
C81	C	1.022920	0.950778	-0.573509
C82	C	1.522920	1.450778	-0.073509
C83	C	1.023019	0.438811	-0.952028
C84	C	1.523019	0.938811	-0.452028
C85	C	1.023037	0.438779	-1.061752
C86	C	1.523037	0.938779	-0.561752
C87	C	1.117725	0.573188	-1.061748
C88	C	1.617725	1.073188	-0.561748
C89	C	1.117704	0.573225	-0.952026
C90	C	1.617704	1.073225	-0.452026
C91	C	1.070269	0.506212	-0.233391
C92	C	1.570269	1.006212	0.266609
C93	C	1.070391	0.505961	-0.116615
C94	C	1.570391	1.005961	0.383385
H95	H	0.507181	0.342321	-0.444358
H96	H	1.007181	0.842321	0.055642
N97	N	0.971987	0.366272	-1.120919
N98	N	1.471987	0.866272	-0.620919
H99	H	0.979181	0.376446	-1.198753
H100	H	1.479181	0.876446	-0.698753
H101	H	0.919090	0.382617	-1.101716
H102	H	1.419090	0.882617	-0.601716
H103	H	0.506219	0.443040	-0.343674
H104	H	1.006219	0.943040	0.156326
H105	H	1.156278	0.627894	-1.106426
H106	H	1.656278	1.127894	-0.606426
N107	N	0.641243	0.316152	-0.450366
N108	N	1.141243	0.816152	0.049634
H109	H	0.597887	0.267656	-0.461755
H110	H	1.097887	0.767656	0.038245
H111	H	0.672134	0.289519	-0.390103
H112	H	1.172134	0.789519	0.109897
N113	N	0.971872	1.119660	-0.645949
N114	N	1.471872	1.619660	-0.145949
H115	H	0.983336	1.100494	-0.721027
H116	H	1.483336	1.600494	-0.221027
H117	H	0.979112	1.197476	-0.635695
H118	H	1.479112	1.697476	-0.135695
H119	H	0.635165	0.641136	-0.395673
H120	H	1.135165	1.141136	0.104327
N121	N	1.168754	0.645735	-0.892847
N122	N	1.668754	1.145735	-0.392847
H123	H	1.198757	0.688292	-0.944247
H124	H	1.698757	1.188292	-0.444247
H125	H	1.203027	0.602995	-0.847339
H126	H	1.703027	1.102995	-0.347339
N127	N	0.640659	0.367721	-0.647217
N128	N	1.140659	0.867721	-0.147217
H129	H	0.670223	0.372285	-0.714211
H130	H	1.170223	0.872285	-0.214211
H131	H	0.596886	0.319884	-0.658150
H132	H	1.096886	0.819884	-0.158150
H133	H	0.507832	0.537478	-0.677807
H134	H	1.007832	1.037478	-0.177807
N135	N	0.640489	0.449501	-0.316099
N136	N	1.140489	0.949501	0.183901
H137	H	0.596800	0.460270	-0.268016
H138	H	1.096800	0.960270	0.231984
H139	H	0.671373	0.515391	-0.317835
H140	H	1.171373	1.015391	0.182165
H141	H	0.984315	0.906105	-0.628160
H142	H	1.484315	1.406105	-0.128160
H143	H	0.508093	0.640269	-0.394233
H144	H	1.008093	1.140269	0.105767
H145	H	1.156340	1.105179	-0.384645
H146	H	1.656340	1.605179	0.115355
H147	H	0.984462	0.384097	-0.907367
H148	H	1.484462	0.884097	-0.407367
H149	H	0.634126	0.679259	-0.533102
H150	H	1.134126	1.179259	-0.033102
N151	N	0.500656	0.699629	-0.550070
N152	N	1.000656	1.199629	-0.050070
H153	H	0.519340	0.684203	-0.623067
H154	H	1.019340	1.184203	-0.123067
H155	H	0.519389	0.770437	-0.526703
H156	H	1.019389	1.270437	-0.026703
N157	N	0.499507	0.373021	-0.654074
N158	N	0.999507	0.873021	-0.154074
H159	H	0.443811	0.375206	-0.658272
H160	H	0.943811	0.875206	-0.158272
H161	H	0.515135	0.316998	-0.602776
H162	H	1.015135	0.816998	-0.102776
N163	N	1.168779	0.891634	-0.366840
N164	N	1.668779	1.391634	0.133160
H165	H	1.203062	0.846039	-0.409576
H166	H	1.703062	1.346039	0.090424
H167	H	1.138635	0.846243	-0.318106
H168	H	1.638635	1.346243	0.181894
H169	H	0.635144	0.530682	-0.680424
H170	H	1.135144	1.030682	-0.180424
