data_functionalizedCrystal
_audit_creation_method	'MofGen! by Chris Wilmer'
_symmetry_space_group_name_H-M	'P1'
_symmetry_Int_Tables_number	1
_symmetry_cell_setting	triclinic
loop_
_symmetry_equiv_pos_as_xyz
  x,y,z
_cell_length_a	17.699083
_cell_length_b	19.288865
_cell_length_c	17.766277
_cell_angle_alpha	90.011603
_cell_angle_beta	90.003333
_cell_angle_gamma	83.209632
loop_
_atom_site_label
_atom_site_type_symbol
_atom_site_fract_x
_atom_site_fract_y
_atom_site_fract_z
O1	O	-1.003958	-0.087837	-0.062497
O2	O	-0.783563	-0.099265	-0.062523
O3	O	-0.900129	0.007572	-0.062495
O4	O	-0.887392	-0.194674	-0.062526
O5	O	-0.900108	0.007577	0.062694
O6	O	-0.783543	-0.099260	0.062665
O7	O	-1.003937	-0.087832	0.062691
Cu8	Cu	-0.893738	-0.093545	0.074109
Cu9	Cu	-0.893762	-0.093552	-0.073941
O10	O	-0.887372	-0.194668	0.062663
C11	C	-0.755356	-0.098853	0.000068
C12	C	-0.671340	-0.097624	0.000059
C13	C	-1.032144	-0.088244	0.000098
C14	C	-1.116160	-0.089472	0.000103
C15	C	-0.622631	-0.160335	0.000049
C16	C	-0.543689	-0.159177	0.000059
C17	C	-0.513458	-0.095307	0.000073
C18	C	-0.562174	-0.032591	0.000085
C19	C	-0.641114	-0.033750	0.000080
C20	C	-0.243817	-0.027915	0.000104
C21	C	-0.164871	-0.026761	0.000107
C22	C	-0.146393	-0.153342	0.000083
C23	C	-0.225333	-0.154501	0.000079
C24	C	-0.274041	-0.091785	0.000094
C25	C	-0.359639	-0.093042	0.000085
C26	C	-0.427862	-0.094049	0.000077
C27	C	-0.899709	0.033451	0.000102
C28	C	-0.898478	0.110556	0.000108
C29	C	-0.887792	-0.220548	0.000064
C30	C	-0.889022	-0.297653	0.000053
N31	N	-0.893727	-0.093540	0.178239
C32	C	-0.966874	0.155172	0.000120
C33	C	-0.965718	0.227620	0.000108
C34	C	-0.896163	0.255450	0.000099
C35	C	-0.827759	0.210825	0.000083
C36	C	-0.828916	0.138378	0.000088
C37	C	-0.841477	0.363804	0.043944
C38	C	-0.840323	0.436250	0.043944
C39	C	-0.892589	0.478900	0.000082
C40	C	-0.946024	0.449097	-0.043770
C41	C	-0.947182	0.376650	-0.043766
C42	C	-0.894900	0.334006	0.000094
C43	C	-0.959736	0.602073	0.000080
C44	C	-0.958578	0.674522	0.000063
C45	C	-0.820616	0.657725	0.000046
C46	C	-0.821777	0.585277	0.000055
C47	C	-0.891339	0.557456	0.000075
N48	N	-0.893780	-0.093551	-0.178071
C49	C	-0.945358	-0.046256	0.217639
C50	C	-0.945363	-0.046253	0.296441
C51	C	-0.893743	-0.093546	0.335840
C52	C	-0.842101	-0.140833	0.296431
C53	C	-0.842093	-0.140831	0.217630
C54	C	-0.883610	-0.156821	0.460667
C55	C	-0.883623	-0.156825	0.539466
C56	C	-0.893763	-0.093554	0.578886
C57	C	-0.903905	-0.030277	0.539498
C58	C	-0.903897	-0.030274	0.460697
C59	C	-0.893745	-0.093554	0.421286
C60	C	-0.945402	-0.046263	0.703732
C61	C	-0.945401	-0.046258	0.782535
C62	C	-0.842143	-0.140845	0.782524
C63	C	-0.842140	-0.140843	0.703722
C64	C	-0.893774	-0.093553	0.664331
H65	H	-0.647238	-0.212346	0.000037
N66	N	-0.693648	0.033891	0.000089
H67	H	-0.726815	0.036232	-0.046318
H68	H	-0.726760	0.036192	0.046527
H69	H	-0.987444	-0.007750	0.814615
H70	H	-0.283467	0.023152	0.000118
H71	H	-0.798914	0.329084	0.079665
N72	N	-0.529572	0.036299	0.000112
H73	H	-0.472172	0.027519	0.000113
H74	H	-0.547406	0.063738	-0.046290
N75	N	-0.745591	0.687725	0.000045
H76	H	-0.715642	0.671434	-0.046364
H77	H	-0.755292	0.740386	0.000073
H78	H	-0.766082	0.548950	0.000050
H79	H	-0.796810	0.460509	0.079647
H80	H	-0.140260	0.025253	0.000119
N81	N	-0.786399	-0.191834	0.175136
H82	H	-0.794942	-0.241123	0.188836
H83	H	-0.794253	-0.184598	0.119252
H84	H	-1.021416	0.263953	0.000114
H85	H	-0.771126	0.233489	0.000075
N86	N	-1.004805	0.344505	-0.091066
H87	H	-0.997605	0.292140	-0.084404
H88	H	-1.057827	0.363650	-0.074661
H89	H	-0.773219	0.102051	0.000079
N90	N	-1.001044	0.004750	0.175153
H91	H	-1.033753	0.034706	0.212075
H92	H	-0.972174	0.035427	0.142472
N93	N	-1.041898	0.125164	0.000141
H94	H	-1.085051	0.164425	0.000146
H95	H	-1.045394	0.095462	-0.046266
H96	H	-0.987409	-0.007747	0.328526
H97	H	-0.504033	-0.210242	0.000051
H98	H	-0.912161	0.021245	0.571592
N99	N	-0.914833	0.037968	0.418213
H100	H	-0.921259	0.078053	0.455136
H101	H	-0.868865	0.041970	0.385527
N102	N	-1.002405	0.495086	-0.091080
H103	H	-0.993564	0.545503	-0.084434
H104	H	-0.995541	0.481546	-0.145786
N105	N	-1.034759	0.572058	0.000098
H106	H	-1.077913	0.611318	0.000098
H107	H	-1.038251	0.542351	-0.046306
H108	H	-0.249942	-0.206510	0.000064
H109	H	-0.987443	-0.007754	0.671658
H110	H	-1.014276	0.710848	0.000068
N111	N	-0.786460	-0.191850	0.825007
H112	H	-0.794297	-0.184676	0.880906
H113	H	-0.795028	-0.241116	0.811220
H114	H	-0.875340	-0.208348	0.428578
H115	H	-0.800100	-0.179349	0.671640
H116	H	-0.875370	-0.208349	0.571530
H117	H	-0.800070	-0.179339	0.328514
H118	H	-0.106724	-0.204407	0.000074
