data_functionalizedCrystal
_audit_creation_method	'MofGen! by Chris Wilmer'
_symmetry_space_group_name_H-M	'P1'
_symmetry_Int_Tables_number	1
_symmetry_cell_setting	triclinic
loop_
_symmetry_equiv_pos_as_xyz
  x,y,z
_cell_length_a	10.654560
_cell_length_b	11.026607
_cell_length_c	9.482900
_cell_angle_alpha	101.363848
_cell_angle_beta	99.427357
_cell_angle_gamma	83.462348
loop_
_atom_site_label
_atom_site_type_symbol
_atom_site_fract_x
_atom_site_fract_y
_atom_site_fract_z
O1	O	0.511465	-1.633399	-0.120886
O2	O	0.451469	-1.279586	-0.120889
O3	O	0.300494	-1.464620	-0.120885
O4	O	0.662441	-1.448365	-0.120891
O5	O	0.331318	-1.427037	0.120907
O6	O	0.482293	-1.242003	0.120902
O7	O	0.542289	-1.595816	0.120905
Cu8	Cu	0.515106	-1.415478	0.142981
Cu9	Cu	0.478653	-1.459924	-0.142965
O10	O	0.693265	-1.410782	0.120900
C11	C	0.455813	-1.215490	0.000006
C12	C	0.422818	-1.080498	0.000005
C13	C	0.268848	-1.444633	0.000009
C14	C	0.128628	-1.441055	0.000002
C15	C	0.537945	-1.659912	0.000007
C16	C	0.570939	-1.794907	-0.000002
C17	C	-0.052200	-1.415543	0.131803
C18	C	0.079550	-1.418891	0.131804
C19	C	0.045946	-1.459859	-0.131810
C20	C	-0.085802	-1.456503	-0.131810
C21	C	-0.101268	-1.393390	0.263614
C22	C	-0.018596	-1.374583	0.395427
C23	C	0.113154	-1.377930	0.395428
C24	C	0.162232	-1.400086	0.263616
C25	C	0.724910	-1.430770	0.000004
C26	C	0.865129	-1.434350	0.000001
N27	N	0.540746	-1.384225	0.344100
C28	C	0.513922	-1.007463	0.000002
C29	C	0.479822	-0.867940	0.000001
N30	N	0.453005	-1.491187	-0.344085
C31	C	0.486207	-1.450698	0.416301
C32	C	0.507552	-1.424704	0.583718
H33	H	-0.208543	-1.390665	0.263628
H34	H	0.390500	-1.567340	0.593793
Cl35	Cl	-0.080294	-1.346714	0.561123
Cl36	Cl	0.389373	-1.567999	0.320391
Cl37	Cl	0.673324	-1.070388	0.000003
H38	H	0.603236	-1.308068	0.406229
Cl39	Cl	0.730351	-0.857820	0.000016
Cl40	Cl	0.217080	-1.354267	0.561131
H41	H	0.269511	-1.402789	0.263628
Cl42	Cl	0.107648	-1.487730	-0.297504
H43	H	0.570046	-1.348541	0.645841
Cl44	Cl	-0.189739	-1.480139	-0.297507
Cl45	Cl	0.320415	-0.805018	0.000014
H46	H	0.319572	-1.039739	-0.000031
