data_functionalizedCrystal
_audit_creation_method	'MofGen! by Chris Wilmer'
_symmetry_space_group_name_H-M	'P1'
_symmetry_Int_Tables_number	1
_symmetry_cell_setting	triclinic
loop_
_symmetry_equiv_pos_as_xyz
  x,y,z
_cell_length_a	18.215407
_cell_length_b	18.215404
_cell_length_c	18.215399
_cell_angle_alpha	89.972485
_cell_angle_beta	89.981439
_cell_angle_gamma	90.015559
loop_
_atom_site_label
_atom_site_type_symbol
_atom_site_fract_x
_atom_site_fract_y
_atom_site_fract_z
Zn1	Zn	-1.125077	0.293154	0.416093
Zn2	Zn	-1.124988	0.416225	0.293028
Zn3	Zn	-1.002010	0.293159	0.293043
Zn4	Zn	-1.001978	0.416166	0.416055
O5	O	-1.063513	0.354676	0.354555
O6	O	-1.228050	0.309503	0.399777
O7	O	-1.108651	0.399928	0.190045
O8	O	-1.018386	0.190174	0.309388
O9	O	-1.227984	0.399922	0.309362
O10	O	-1.108803	0.190171	0.399792
O11	O	-1.018299	0.309512	0.190057
O12	O	-0.899021	0.309454	0.309352
O13	O	-1.018331	0.399821	0.519045
O14	O	-0.898998	0.399826	0.399728
O15	O	-1.108772	0.309445	0.519072
O16	O	-1.108620	0.519202	0.309325
O17	O	-1.018245	0.519158	0.399713
C18	C	-0.872307	0.354634	0.354538
C19	C	-0.790508	0.354634	0.354548
C20	C	-1.063439	0.545882	0.354530
C21	C	-1.063475	0.627681	0.354543
C22	C	-1.063558	0.354625	0.546508
C23	C	-1.063577	0.354604	0.628307
C24	C	-0.525479	0.307659	0.401702
C25	C	-0.602338	0.307651	0.401701
C26	C	-0.602289	0.401669	0.307410
C27	C	-0.525431	0.401680	0.307416
C28	C	-0.487029	0.354671	0.354561
C29	C	-0.640745	0.354651	0.354554
C30	C	-0.724078	0.354643	0.354552
C31	C	-0.403690	0.354680	0.354564
C32	C	-0.255466	0.354706	0.354569
C33	C	-0.337265	0.354688	0.354567
C34	C	-1.110647	0.815874	0.307575
C35	C	-1.110681	0.892732	0.307597
C36	C	-1.016492	0.892727	0.401641
C37	C	-1.016462	0.815869	0.401622
C38	C	-1.063538	0.777445	0.354585
C39	C	-1.063603	0.931161	0.354625
C40	C	-1.063640	1.014494	0.354650
C41	C	-1.063503	0.694106	0.354562
C42	C	-1.063612	1.162723	0.354610
C43	C	-1.063667	1.080924	0.354667
C44	C	-1.063511	0.354674	0.163349
C45	C	-1.063635	0.354488	0.081550
C46	C	-1.110687	0.307501	0.816516
C47	C	-1.110695	0.307480	0.893375
C48	C	-1.016520	0.401593	0.893335
C49	C	-1.016508	0.401610	0.816478
C50	C	-1.063596	0.354565	0.778070
C51	C	-1.063616	0.354527	0.931786
C52	C	-1.063625	0.354504	1.015120
C53	C	-1.063586	0.354587	0.694731
H54	H	-0.633641	0.269370	0.440089
H55	H	-0.978156	0.439935	0.785174
C56	C	-0.483133	0.453394	0.255556
H57	H	-0.517011	0.481382	0.227470
H58	H	-0.453157	0.485497	0.283656
H59	H	-0.453143	0.425201	0.223540
C60	C	-1.162428	0.773605	0.255839
H61	H	-1.155658	0.722328	0.262553
H62	H	-1.211874	0.786158	0.266655
H63	H	-1.151685	0.786248	0.206384
C64	C	-0.483238	0.255961	0.453568
H65	H	-0.517149	0.227967	0.481648
H66	H	-0.453247	0.223863	0.425478
H67	H	-0.453268	0.284164	0.485589
C68	C	-0.644534	0.453367	0.255548
H69	H	-0.695815	0.446622	0.262290
H70	H	-0.631939	0.502830	0.266232
H71	H	-0.631918	0.442530	0.206119
H72	H	-1.149043	0.924018	0.269318
H73	H	-0.978164	0.924021	0.439935
H74	H	-1.149026	0.269192	0.785247
H75	H	-1.149040	0.269154	0.924675
C76	C	-0.964639	0.773595	0.453334
H77	H	-0.936600	0.807485	0.481343
H78	H	-0.992760	0.743570	0.485417
H79	H	-0.932578	0.743655	0.425139
C80	C	-0.964735	0.453344	0.935585
H81	H	-0.971491	0.446600	0.986866
H82	H	-0.915290	0.442571	0.922986
H83	H	-0.975488	0.502798	0.922977
