data_functionalizedCrystal
_audit_creation_method	'MofGen! by Chris Wilmer'
_symmetry_space_group_name_H-M	'P1'
_symmetry_Int_Tables_number	1
_symmetry_cell_setting	triclinic
loop_
_symmetry_equiv_pos_as_xyz
  x,y,z
_cell_length_a	12.827893
_cell_length_b	12.827892
_cell_length_c	10.685880
_cell_angle_alpha	94.339766
_cell_angle_beta	85.605454
_cell_angle_gamma	90.015552
loop_
_atom_site_label
_atom_site_type_symbol
_atom_site_fract_x
_atom_site_fract_y
_atom_site_fract_z
Zn1	Zn	1.642996	-0.461246	-0.713432
Zn2	Zn	1.629485	-0.622636	-0.502438
Zn3	Zn	1.454834	-0.447911	-0.502454
Zn4	Zn	1.468220	-0.635943	-0.713383
O5	O	1.548884	-0.541934	-0.607927
O6	O	1.787441	-0.482666	-0.685456
O7	O	1.595061	-0.588308	-0.325864
O8	O	1.479846	-0.303445	-0.530468
O9	O	1.777514	-0.601239	-0.530440
O10	O	1.618088	-0.313243	-0.685472
O11	O	1.466745	-0.459938	-0.325876
O12	O	1.310373	-0.472842	-0.530421
O13	O	1.502661	-0.623919	-0.889965
O14	O	1.320207	-0.610989	-0.685389
O15	O	1.631069	-0.495570	-0.890001
O16	O	1.608041	-0.770635	-0.530393
O17	O	1.489560	-0.780412	-0.685373
C18	C	1.277372	-0.541913	-0.607903
C19	C	1.161221	-0.541931	-0.607922
C20	C	1.548817	-0.813442	-0.607903
C21	C	1.548887	-0.929598	-0.607935
C22	C	1.114355	-0.483378	-0.684749
C23	C	0.994306	-0.483396	-0.684771
C24	C	1.617270	-0.986151	-0.684705
C25	C	1.617343	-1.106204	-0.684740
C26	C	1.821456	-0.541956	-0.607951
C27	C	1.937609	-0.541965	-0.607962
C28	C	1.569865	-0.562717	-0.937048
C29	C	1.578806	-0.571573	-1.077299
C30	C	1.548981	-0.269367	-0.607978
C31	C	1.549023	-0.153215	-0.607999
C32	C	1.528044	-0.521157	-0.280086
C33	C	1.519306	-0.512006	-0.139835
H34	H	0.953985	-0.433270	-0.750549
H35	H	1.490392	-0.970058	-0.542242
O36	O	1.450304	-0.443216	-1.075573
C37	C	1.377963	-0.497952	-0.999352
H38	H	1.413554	-0.575925	-0.979722
H39	H	1.303715	-0.512592	-1.050065
C40	C	1.307449	-0.336872	-0.898212
C41	C	1.351166	-0.432636	-0.874093
H42	H	1.290915	-0.296581	-0.820948
H43	H	1.356183	-0.299994	-0.949566
H44	H	1.245581	-0.349086	-0.940476
H45	H	1.413040	-0.420421	-0.831845
H46	H	1.302442	-0.469510	-0.822728
O47	O	1.687048	-1.164252	-0.763290
C48	C	1.632661	-1.232571	-0.844647
H49	H	1.550854	-1.200168	-0.852378
H50	H	1.626569	-1.312797	-0.805559
C51	C	1.792464	-1.282395	-0.966383
C52	C	1.691991	-1.242593	-0.975886
H53	H	1.829062	-1.288582	-1.047336
H54	H	1.829107	-1.236371	-0.911568
H55	H	1.787373	-1.349246	-0.933804
H56	H	1.697083	-1.175738	-1.008448
H57	H	1.655350	-1.288607	-1.030709
H58	H	1.112468	-0.592071	-0.542162
H59	H	0.977925	-0.592103	-0.542192
H60	H	1.490478	-1.104606	-0.542265
O61	O	1.687011	-0.937724	-0.762970
C62	C	1.671399	-0.828639	-0.745527
H63	H	1.631005	-0.807746	-0.648091
H64	H	1.620418	-0.802408	-0.820271
C65	C	1.827393	-0.798800	-0.876797
C66	C	1.777788	-0.773137	-0.757121
H67	H	1.893018	-0.764562	-0.883955
H68	H	1.837910	-0.872292	-0.888554
H69	H	1.784898	-0.776940	-0.939071
H70	H	1.820278	-0.795009	-0.694851
H71	H	1.767281	-0.699647	-0.745355
H72	H	1.636595	-0.629353	-1.131063
H73	H	1.163107	-0.433232	-0.750502
