data_functionalizedCrystal
_audit_creation_method	'MofGen! by Chris Wilmer'
_symmetry_space_group_name_H-M	'P1'
_symmetry_Int_Tables_number	1
_symmetry_cell_setting	triclinic
loop_
_symmetry_equiv_pos_as_xyz
  x,y,z
_cell_length_a	10.540539
_cell_length_b	17.699077
_cell_length_c	16.176319
_cell_angle_alpha	90.006860
_cell_angle_beta	90.004634
_cell_angle_gamma	83.903034
loop_
_atom_site_label
_atom_site_type_symbol
_atom_site_fract_x
_atom_site_fract_y
_atom_site_fract_z
O1	O	0.160484	1.005125	0.068732
O2	O	0.181376	0.784882	0.068735
O3	O	-0.013868	0.900028	0.068732
O4	O	0.355729	0.889979	0.068735
O5	O	-0.013881	0.900012	-0.068761
O6	O	0.181364	0.784866	-0.068758
O7	O	0.160472	1.005109	-0.068761
Cu8	Cu	0.170917	0.894986	-0.081314
Cu9	Cu	0.170932	0.895005	0.081288
O10	O	0.355717	0.889963	-0.068759
C11	C	0.180623	0.756672	-0.000011
C12	C	0.178381	0.672639	-0.000009
C13	C	0.177318	0.633156	-0.074958
C14	C	0.175191	0.554200	-0.074959
C15	C	0.174136	0.514727	-0.000010
C16	C	0.175196	0.554216	0.074944
C17	C	0.177314	0.633171	0.074944
C18	C	0.166654	0.235797	0.074946
C19	C	0.164540	0.156836	0.074940
C20	C	0.164531	0.156825	-0.074957
C21	C	0.166649	0.235781	-0.074957
C22	C	0.167701	0.275263	-0.000003
C23	C	0.170005	0.360877	-0.000003
C24	C	0.171842	0.429114	-0.000009
C25	C	-0.061164	0.899267	-0.000013
C26	C	-0.202070	0.897012	-0.000008
C27	C	-0.383914	0.810613	0.000302
C28	C	-0.237338	0.812898	-0.000008
C29	C	-0.264477	0.937482	-0.078524
C30	C	-0.410969	0.934611	-0.078590
C31	C	-0.411504	0.936340	0.077765
C32	C	-0.264536	0.937115	0.078803
C33	C	0.403012	0.890724	-0.000012
C34	C	0.543919	0.892979	-0.000011
C35	C	0.161226	1.033319	-0.000014
C36	C	0.163467	1.117352	-0.000010
N37	N	0.170906	0.894978	-0.195679
C38	C	0.084487	0.945981	-0.238945
C39	C	0.084485	0.945984	-0.325492
C40	C	0.170910	0.894989	-0.368772
C41	C	0.257333	0.843981	-0.325500
C42	C	0.257328	0.843974	-0.238955
C43	C	0.257357	0.844007	-0.674528
C44	C	0.257359	0.844019	-0.761080
C45	C	0.084515	0.946017	-0.761065
C46	C	0.084509	0.946010	-0.674520
C47	C	0.170927	0.895000	-0.631256
C48	C	0.170926	0.894996	-0.537412
C49	C	0.170918	0.894996	-0.462614
N50	N	0.170933	0.895019	0.195653
H51	H	0.163680	0.124699	0.135975
H52	H	-0.221367	0.909356	-0.136952
O53	O	-0.236730	1.010230	0.084420
C54	C	-0.072080	1.094278	0.095727
C55	C	-0.103409	1.011441	0.089368
H56	H	0.035707	1.095283	0.099747
H57	H	-0.109943	1.127210	0.038732
H58	H	-0.118833	1.121665	0.153473
H59	H	-0.056665	0.983987	0.031656
H60	H	-0.065573	0.978564	0.146404
O61	O	-0.469323	1.006821	-0.082890
C62	C	-0.442542	1.140167	-0.090507
C63	C	-0.376300	1.058431	-0.085653
H64	H	-0.367363	1.181917	-0.092725
H65	H	-0.503907	1.146764	-0.148624
H66	H	-0.505413	1.152331	-0.033701
H67	H	-0.313366	1.046212	-0.142417
H68	H	-0.315014	1.051874	-0.027501
H69	H	0.167507	0.267934	0.135977
H70	H	0.014115	0.987510	-0.203712
H71	H	0.163668	0.124670	-0.135988
H72	H	0.178187	0.665288	-0.135990
O73	O	-0.469376	1.008772	0.078445
C74	C	-0.668218	1.089613	0.082104
C75	C	-0.602835	1.007552	0.081366
H76	H	-0.776131	1.088654	0.084448
H77	H	-0.635556	1.120737	0.138681
H78	H	-0.641362	1.120203	0.023665
H79	H	-0.629661	0.976898	0.139766
H80	H	-0.635500	0.976485	0.024751
H81	H	0.174328	0.522072	0.135968
H82	H	0.014116	0.987514	-0.360718
H83	H	-0.194146	0.781054	0.056276
H84	H	0.167514	0.267915	-0.135988
O85	O	0.178409	0.671406	0.147823
C86	C	0.178127	0.663094	0.296506
C87	C	0.176918	0.619698	0.214028
H88	H	0.176895	0.621309	0.350054
H89	H	0.267937	0.693586	0.300309
H90	H	0.090343	0.706529	0.300208
H91	H	0.264641	0.576226	0.210270
H92	H	0.087051	0.589258	0.210260
O93	O	0.341357	0.794401	-0.802996
C94	C	0.512834	0.693248	-0.793882
C95	C	0.417763	0.749383	-0.746310
H96	H	0.574651	0.656847	-0.748073
H97	H	0.458166	0.655105	-0.834393
H98	H	0.576127	0.726278	-0.834409
H99	H	0.354446	0.716414	-0.705738
H100	H	0.472510	0.787525	-0.705851
H101	H	0.327724	0.802474	-0.639310
H102	H	0.014144	0.987551	-0.796300
O103	O	0.341330	0.794367	-0.367412
C104	C	0.512815	0.693220	-0.358285
C105	C	0.417736	0.749356	-0.310720
H106	H	0.574633	0.656824	-0.312470
H107	H	0.458155	0.655071	-0.398793
H108	H	0.576108	0.726249	-0.398813
H109	H	0.354419	0.716388	-0.270147
H110	H	0.472476	0.787504	-0.270264
H111	H	-0.243255	0.999252	-0.081444
O112	O	0.000289	0.995470	-0.632584
C113	C	-0.220619	1.038580	-0.606368
C114	C	-0.125313	0.982515	-0.653851
H115	H	-0.322188	1.028137	-0.623558
H116	H	-0.206027	1.029871	-0.537051
H117	H	-0.204184	1.099281	-0.623388
H118	H	-0.141690	0.921792	-0.636901
H119	H	-0.139928	0.991290	-0.723156
H120	H	-0.194999	0.780817	-0.056384
O121	O	-0.448321	0.903879	0.148822
C122	C	-0.381591	0.842164	0.276737
C123	C	-0.339724	0.878932	0.196315
H124	H	-0.293812	0.821970	0.315150
H125	H	-0.446207	0.885630	0.313585
H126	H	-0.435758	0.791620	0.260981
H127	H	-0.285505	0.929469	0.211997
H128	H	-0.275169	0.835418	0.159489
H129	H	-0.223130	0.907503	0.136887
H130	H	-0.411900	0.777392	0.056607
O131	O	-0.419446	0.771169	-0.066466
C132	C	-0.592091	0.721607	-0.139271
C133	C	-0.552027	0.766299	-0.063627
H134	H	-0.699279	0.717642	-0.136992
H135	H	-0.567437	0.752054	-0.198302
H136	H	-0.539186	0.661987	-0.138489
H137	H	-0.604909	0.825924	-0.064330
H138	H	-0.576655	0.735793	-0.004630
O139	O	0.174225	0.515958	-0.147838
C140	C	0.174381	0.524285	-0.296520
C141	C	0.175508	0.567683	-0.214041
H142	H	0.175390	0.566087	-0.350067
H143	H	0.262207	0.480887	-0.300320
H144	H	0.084611	0.493749	-0.300229
H145	H	0.265219	0.598264	-0.210276
H146	H	0.087622	0.611038	-0.210276
H147	H	-0.438625	0.904688	-0.137282
H148	H	0.327697	0.802442	-0.203729
