data_functionalizedCrystal
_audit_creation_method	'MofGen! by Chris Wilmer'
_symmetry_space_group_name_H-M	'P1'
_symmetry_Int_Tables_number	1
_symmetry_cell_setting	triclinic
loop_
_symmetry_equiv_pos_as_xyz
  x,y,z
_cell_length_a	14.044220
_cell_length_b	10.723024
_cell_length_c	9.198806
_cell_angle_alpha	89.997736
_cell_angle_beta	89.998828
_cell_angle_gamma	91.171626
loop_
_atom_site_label
_atom_site_type_symbol
_atom_site_fract_x
_atom_site_fract_y
_atom_site_fract_z
O1	O	1.259663	-0.301050	0.120731
O2	O	0.983623	-0.290187	0.120768
O3	O	1.128011	-0.114679	0.120743
O4	O	1.115276	-0.476557	0.120756
O5	O	1.128000	-0.114677	-0.121042
O6	O	0.983613	-0.290184	-0.121017
O7	O	1.259653	-0.301047	-0.121054
Cu8	Cu	1.121632	-0.295615	-0.143112
Cu9	Cu	1.121644	-0.295619	0.142826
O10	O	1.115265	-0.476555	-0.121029
C11	C	0.948273	-0.285430	-0.000120
C12	C	0.842955	-0.271245	-0.000106
N13	N	1.121630	-0.295613	-0.344226
C14	C	1.127079	-0.068086	-0.000147
C15	C	1.124306	0.070746	-0.000142
C16	C	0.650125	-0.245313	-0.000135
C17	C	0.593146	-0.345915	-0.000138
C18	C	0.485848	-0.331486	-0.000155
C19	C	0.757432	-0.259740	-0.000119
C20	C	1.295003	-0.305804	-0.000163
C21	C	1.400321	-0.319989	-0.000168
C22	C	1.116197	-0.523149	-0.000135
C23	C	1.118970	-0.661980	-0.000131
C24	C	1.205097	0.137646	-0.000151
C25	C	1.202234	0.281136	-0.000145
C26	C	1.182403	-0.221765	-0.583838
C27	C	1.182391	-0.221765	-0.416425
N28	N	1.121654	-0.295612	0.343940
H29	H	0.624947	-0.442880	-0.000128
F30	F	0.608560	-0.118582	-0.000144
F31	F	1.292639	0.356305	-0.000165
H32	H	1.053017	0.119700	-0.000123
H33	H	1.276386	0.088691	-0.000169
F34	F	1.028561	0.262858	-0.000132
H35	H	1.234427	-0.158545	-0.645943
F36	F	1.250370	-0.139118	-0.335250
H37	H	1.069638	-0.358840	-0.593953
F38	F	1.053639	-0.378251	-0.425393
