data_functionalizedCrystal
_audit_creation_method	'MofGen! by Chris Wilmer'
_symmetry_space_group_name_H-M	'P1'
_symmetry_Int_Tables_number	1
_symmetry_cell_setting	triclinic
loop_
_symmetry_equiv_pos_as_xyz
  x,y,z
_cell_length_a	23.196402
_cell_length_b	14.560438
_cell_length_c	14.560438
_cell_angle_alpha	60.000905
_cell_angle_beta	89.999011
_cell_angle_gamma	59.997804
loop_
_atom_site_label
_atom_site_type_symbol
_atom_site_fract_x
_atom_site_fract_y
_atom_site_fract_z
Zr1	Zr	0.555373	1.005254	-0.120526
O2	O	0.463318	1.196861	-0.267168
O3	O	0.583592	0.813652	-0.075575
O4	O	0.583589	1.005255	-0.267176
O5	O	0.463324	1.005255	0.075573
O6	O	0.678461	1.005252	-0.267179
O7	O	0.463321	1.005257	-0.075567
O8	O	0.678466	0.662507	0.075560
O9	O	0.463319	1.347999	-0.267165
O10	O	0.666429	0.892456	-0.056403
O11	O	0.595629	0.892457	0.056394
O12	O	0.595626	1.118046	-0.169191
O13	O	0.524826	1.118047	-0.056394
Zr14	Zr	0.706686	1.005244	0.120521
Zr15	Zr	0.706682	1.005248	-0.120531
Zr16	Zr	0.555376	1.005250	0.120526
Zr17	Zr	0.555373	1.246302	-0.120522
Zr18	Zr	0.706686	0.764196	0.120516
O19	O	0.678467	1.196846	0.075570
O20	O	0.678461	1.196852	-0.267175
O21	O	0.463324	1.196855	0.075577
O22	O	0.798740	0.813637	0.267163
O23	O	0.798735	0.813643	-0.075582
O24	O	0.583597	0.813646	0.267170
O25	O	0.798735	1.005243	-0.075579
O26	O	0.678470	1.005243	0.267170
O27	O	0.583598	1.005246	0.267174
O28	O	0.798737	1.005241	0.075562
O29	O	0.583590	1.347994	-0.267169
O30	O	0.678469	0.662504	0.267164
O31	O	0.798740	0.662499	0.267160
O32	O	0.798737	0.662502	0.075556
O33	O	0.463322	1.347996	-0.075561
O34	O	0.583593	1.347991	-0.075565
O35	O	0.666433	0.892452	0.169186
O36	O	0.737233	0.892451	0.056389
O37	O	0.666429	1.118041	-0.056399
O38	O	0.595629	1.118042	0.056398
C39	C	0.631029	0.703735	-0.000008
C40	C	0.631029	0.601404	-0.000010
C41	C	0.441764	1.005257	0.000004
C42	C	0.377529	1.005259	0.000006
C43	C	0.667984	0.553328	-0.058889
C44	C	0.667987	0.457168	-0.058879
C45	C	0.594073	0.457174	0.058891
C46	C	0.594075	0.553325	0.058887
C47	C	0.347355	1.005270	-0.083264
C48	C	0.287004	1.005259	-0.083264
C49	C	0.256821	1.005262	-0.000002
C50	C	0.287004	1.005244	0.083283
C51	C	0.347358	1.005242	0.083287
C52	C	0.137446	1.080945	0.025945
C53	C	0.077091	1.080955	0.025933
C54	C	0.070671	1.005261	-0.000008
C55	C	0.124608	0.929574	-0.025962
C56	C	0.184962	0.929572	-0.025958
C57	C	0.191377	1.005263	0.000003
C58	C	-0.024942	1.005257	-0.083283
C59	C	-0.085292	1.005237	-0.083275
C60	C	-0.085295	1.005236	0.083267
C61	C	-0.024942	1.005242	0.083264
C62	C	0.005229	1.005259	-0.000017
C63	C	0.820295	1.005241	-0.000009
C64	C	0.884530	1.005239	-0.000011
C65	C	0.631025	1.005254	-0.301522
C66	C	0.631023	1.005256	-0.403855
C67	C	0.631030	1.306763	0.000003
C68	C	0.631030	1.409094	0.000005
C69	C	0.594065	1.123009	-0.510806
C70	C	0.594073	1.123003	-0.606954
C71	C	0.667998	0.887480	-0.489189
C72	C	0.667994	0.887487	-0.393042
C73	C	0.631034	1.005244	0.301517
C74	C	0.631036	1.005242	0.403850
C75	C	0.820294	0.703727	-0.000015
C76	C	0.884529	0.601394	-0.000019
C77	C	0.631034	0.703730	0.301511
C78	C	0.631035	0.601397	0.403842
C79	C	0.820299	0.703722	0.301505
C80	C	0.884536	0.601387	0.403833
C81	C	0.441760	1.306776	-0.301510
C82	C	0.377523	1.409111	-0.403839
C83	C	0.441764	1.306771	0.000009
C84	C	0.377530	1.409104	0.000014
C85	C	0.631025	1.306768	-0.301516
C86	C	0.631023	1.409101	-0.403848
C87	C	0.877736	0.553339	-0.058907
C88	C	0.938085	0.457199	-0.058934
C89	C	1.005228	0.409109	-0.000064
C90	C	1.012020	0.457173	0.058826
C91	C	0.951671	0.553318	0.058845
C92	C	0.951665	0.553329	0.393009
C93	C	1.012028	0.457187	0.489149
C94	C	1.005259	0.409099	0.596112
C95	C	0.938123	0.457167	0.606934
C96	C	0.877762	0.553313	0.510795
C97	C	0.310394	1.457181	-0.393015
C98	C	0.250031	1.553352	-0.489154
C99	C	0.256799	1.601446	-0.596117
C100	C	0.323936	1.553372	-0.606939
C101	C	0.384297	1.457208	-0.510800
C102	C	0.384323	1.457169	0.058892
C103	C	0.323973	1.553335	0.058892
C104	C	0.256831	1.601429	0.000019
C105	C	0.250039	1.553361	-0.058867
C106	C	0.310388	1.457202	-0.058872
C107	C	0.667994	0.553317	0.510794
C108	C	0.667987	0.457173	0.606941
C109	C	0.594062	0.457196	0.489171
C110	C	0.594065	0.553344	0.393026
H111	H	0.698080	0.418025	-0.106822
H112	H	0.563979	1.218890	-0.694035
H113	H	0.329517	1.592456	0.106848
O114	O	1.084443	0.405283	0.122321
H115	H	1.090597	0.485977	0.088303
H116	H	0.207697	1.679727	0.000033
O117	O	0.254443	1.005302	-0.173099
H118	H	0.207406	1.005302	-0.159110
H119	H	0.823104	0.592430	0.519624
H120	H	0.304869	1.418029	-0.305929
H121	H	-0.109857	1.005238	-0.151081
O122	O	0.554230	0.605154	0.122426
H123	H	0.560454	0.680070	0.112548
O124	O	0.959001	0.605126	0.122383
H125	H	1.015830	0.555514	0.163323
H126	H	0.932623	0.417999	0.694035
O127	O	0.177619	1.605238	-0.122364
H128	H	0.136803	1.680167	-0.112451
O129	O	0.554203	0.405334	0.477529
H130	H	0.497397	0.486039	0.430855
O131	O	0.707864	0.760460	-0.477526
H132	H	0.701652	0.780235	-0.562349
H133	H	0.207643	1.679747	-0.674390
H134	H	0.698082	0.418032	0.694023
H135	H	0.304847	1.418071	-0.106815
H136	H	0.563986	0.418018	0.106842
O137	O	0.958973	0.605200	0.277648
H138	H	1.015798	0.555632	0.286291
H139	H	0.329438	1.592542	-0.694039
O140	O	0.177629	1.605167	-0.477454
H141	H	0.148358	1.711227	-0.518405
O142	O	0.554305	0.605048	0.277658
H143	H	0.528643	0.555408	0.286287
H144	H	1.054362	0.330821	-0.000088
O145	O	1.084434	0.405338	0.477465
H146	H	1.078993	0.454915	0.386934
H147	H	0.438955	1.418071	-0.519627
O148	O	0.805323	0.605210	-0.122425
H149	H	0.776053	0.586751	-0.062994
O150	O	0.930746	0.405373	-0.122453
H151	H	0.983986	0.330451	-0.112598
H152	H	0.438988	1.418018	0.106841
H153	H	0.371926	1.005233	0.151097
H154	H	0.698093	0.791592	-0.305952
O155	O	1.070366	0.305383	0.699802
H156	H	1.118180	0.280040	0.674294
O157	O	0.707862	0.605157	0.522451
H158	H	0.733556	0.555575	0.612978
H159	H	0.371920	1.005280	-0.151074
H160	H	0.698075	0.592469	-0.106845
H161	H	-0.000376	1.005241	0.151066
H162	H	0.119382	0.867942	-0.047092
O163	O	0.243140	0.847937	-0.053936
H164	H	0.228544	0.795292	-0.071970
H165	H	-0.109868	1.005231	0.151064
O166	O	0.007613	1.005253	-0.173089
H167	H	-0.023503	1.005236	-0.230983
O168	O	0.018948	1.162488	0.054027
H169	H	0.033568	1.215067	0.072127
H170	H	0.142691	1.142505	0.047163
H171	H	0.262427	1.005244	0.151077
O172	O	0.554191	1.250030	-0.522470
H173	H	0.560389	1.230257	-0.437647
