data_functionalizedCrystal
_audit_creation_method	'MofGen! by Chris Wilmer'
_symmetry_space_group_name_H-M	'P1'
_symmetry_Int_Tables_number	1
_symmetry_cell_setting	triclinic
loop_
_symmetry_equiv_pos_as_xyz
  x,y,z
_cell_length_a	11.026607
_cell_length_b	15.944551
_cell_length_c	9.482900
_cell_angle_alpha	99.334197
_cell_angle_beta	78.636152
_cell_angle_gamma	96.042377
loop_
_atom_site_label
_atom_site_type_symbol
_atom_site_fract_x
_atom_site_fract_y
_atom_site_fract_z
O1	O	1.629108	0.341447	-0.120915
O2	O	1.275798	0.301394	-0.120914
O3	O	1.462099	0.200605	-0.120901
O4	O	1.442807	0.442235	-0.120927
O5	O	1.424257	0.221183	0.120889
O6	O	1.237956	0.321972	0.120876
O7	O	1.591266	0.362024	0.120875
Cu8	Cu	1.411156	0.343877	0.142953
Cu9	Cu	1.455908	0.319541	-0.142992
O10	O	1.404965	0.462813	0.120862
C11	C	1.211666	0.304294	-0.000019
C12	C	1.076950	0.282267	-0.000019
C13	C	1.003151	0.343086	-0.000026
C14	C	0.863914	0.320322	-0.000026
C15	C	1.442377	0.179479	-0.000006
C16	C	1.439975	0.085870	-0.000005
C17	C	1.318759	-0.147313	-0.000025
C18	C	1.356391	-0.189675	0.119192
C19	C	1.435632	-0.085514	-0.000016
C20	C	1.393728	-0.209942	-0.119194
C21	C	1.431430	-0.251064	-0.000034
C22	C	1.473281	-0.126634	0.119299
C23	C	1.510618	-0.146907	-0.119194
C24	C	1.548331	-0.189236	0.000052
C25	C	1.438050	0.009855	-0.000005
C26	C	1.429020	-0.346429	-0.000034
C27	C	1.655399	0.359124	-0.000023
C28	C	1.790116	0.381150	-0.000033
C29	C	1.424688	0.483939	-0.000036
C30	C	1.427091	0.577547	-0.000046
N31	N	1.379688	0.360994	0.344071
N32	N	1.487386	0.302419	-0.344110
C33	C	1.446618	0.324584	0.416275
C34	C	1.420446	0.338834	0.583690
H35	H	1.043047	0.412009	-0.000025
H36	H	1.506881	-0.090590	0.220198
H37	H	1.645417	-0.207711	0.000119
C38	C	1.269342	-0.215161	0.253403
C39	C	1.175586	-0.274428	0.210767
C40	C	1.095376	-0.297931	0.334355
H41	H	1.233285	-0.166146	0.310021
H42	H	1.314591	-0.239933	0.309533
H43	H	1.130342	-0.249655	0.154660
H44	H	1.211605	-0.323456	0.154166
H45	H	1.140625	-0.322702	0.390485
H46	H	1.059329	-0.248911	0.390964
H47	H	1.031760	-0.338151	0.305443
C48	C	1.548717	0.268819	0.333491
C49	C	1.522976	0.186417	0.370352
C50	C	1.616998	0.135026	0.294094
H51	H	1.625966	0.292068	0.358267
H52	H	1.552694	0.266594	0.231971
H53	H	1.519013	0.188645	0.471850
H54	H	1.445745	0.163143	0.345573
H55	H	1.620974	0.132801	0.192573
H56	H	1.694240	0.158283	0.318876
H57	H	1.599540	0.079109	0.319083
H58	H	0.824028	0.251392	-0.000055
H59	H	1.575784	-0.127888	-0.219988
H60	H	1.037058	0.213341	-0.000048
H61	H	1.564064	0.260692	0.593771
H62	H	1.360054	-0.246072	-0.219990
C63	C	1.189458	-0.122417	-0.000181
C64	C	1.190823	-0.085884	-0.125206
C65	C	1.071733	-0.062950	-0.125404
H66	H	1.164234	-0.082367	0.083616
H67	H	1.132969	-0.171703	0.000671
H68	H	1.247293	-0.036604	-0.126045
H69	H	1.216024	-0.125920	-0.209023
H70	H	1.015245	-0.112236	-0.124552
H71	H	1.046520	-0.022902	-0.041601
H72	H	1.072641	-0.038167	-0.210238
C73	C	0.843153	0.473077	-0.000276
C74	C	0.823153	0.502340	-0.124662
C75	C	0.871974	0.587021	-0.124928
H76	H	0.929675	0.476284	-0.000351
H77	H	0.803293	0.507467	0.083992
H78	H	0.863016	0.467959	-0.208908
H79	H	0.736642	0.499154	-0.124613
H80	H	0.832114	0.621411	-0.040660
H81	H	0.958494	0.590220	-0.124999
H82	H	0.858401	0.606889	-0.209315
C83	C	1.318011	0.394335	0.666432
C84	C	1.204409	0.359719	0.629569
C85	C	1.110018	0.410814	0.705778
H86	H	1.335115	0.450296	0.641617
H87	H	1.313924	0.396501	0.767960
H88	H	1.208497	0.357562	0.528064
H89	H	1.187266	0.303764	0.654388
H90	H	1.105932	0.412981	0.807306
H91	H	1.127134	0.466773	0.680957
H92	H	1.032928	0.387331	0.680787
C93	C	1.277258	0.416492	0.426818
C94	C	1.163657	0.381876	0.389955
C95	C	1.069266	0.432972	0.466164
H96	H	1.294362	0.472453	0.402003
H97	H	1.273172	0.418659	0.528346
H98	H	1.167745	0.379719	0.288450
H99	H	1.146514	0.325921	0.414774
H100	H	1.065180	0.435139	0.567692
H101	H	1.086382	0.488930	0.441343
H102	H	0.992175	0.409488	0.441174
