data_functionalizedCrystal
_audit_creation_method	'MofGen! by Chris Wilmer'
_symmetry_space_group_name_H-M	'P1'
_symmetry_Int_Tables_number	1
_symmetry_cell_setting	triclinic
loop_
_symmetry_equiv_pos_as_xyz
  x,y,z
_cell_length_a	15.712078
_cell_length_b	15.625429
_cell_length_c	9.130307
_cell_angle_alpha	71.919555
_cell_angle_beta	89.989359
_cell_angle_gamma	101.022721
loop_
_atom_site_label
_atom_site_type_symbol
_atom_site_fract_x
_atom_site_fract_y
_atom_site_fract_z
O1	O	1.147477	0.494560	-0.384779
O2	O	0.895741	0.425905	-0.348247
O3	O	1.028337	0.331214	-0.297992
O4	O	1.014882	0.589250	-0.435034
O5	O	1.028332	0.331212	-0.054392
O6	O	0.895737	0.425902	-0.104646
O7	O	1.147473	0.494557	-0.141179
Cu8	Cu	1.021604	0.460229	-0.100670
Cu9	Cu	1.021609	0.460233	-0.388756
O10	O	1.014877	0.589248	-0.191434
C11	C	0.863522	0.414687	-0.220481
C12	C	0.767528	0.381257	-0.202700
C13	C	0.400765	0.665091	-0.353544
C14	C	0.310567	0.633657	-0.336886
C15	C	0.330998	0.476150	-0.253238
C16	C	0.421200	0.507571	-0.269896
C17	C	0.456076	0.602042	-0.320048
C18	C	0.476511	0.444521	-0.236400
C19	C	0.566705	0.475940	-0.253049
C20	C	0.601588	0.570408	-0.303195
C21	C	0.546271	0.633461	-0.336697
C22	C	0.441633	0.350050	-0.186237
C23	C	0.496943	0.287001	-0.152741
C24	C	0.587139	0.318419	-0.169401
C25	C	0.622023	0.412887	-0.219547
C26	C	0.642457	0.255366	-0.135898
C27	C	0.732652	0.286785	-0.152548
C28	C	0.712217	0.444306	-0.236196
C29	C	1.027726	0.297425	-0.158250
C30	C	1.025902	0.196744	-0.104786
C31	C	1.019892	-0.134384	-0.592825
C32	C	1.018175	-0.228990	-0.542541
C33	C	1.018170	-0.228979	-0.276985
C34	C	1.019892	-0.134371	-0.327247
C35	C	1.020752	-0.087081	-0.485168
C36	C	1.020752	-0.087067	-0.219590
C37	C	1.022469	0.007532	-0.269848
C38	C	1.023326	0.054828	-0.427762
C39	C	1.022469	0.007519	-0.535426
C40	C	1.019886	-0.134360	-0.061669
C41	C	1.020745	-0.087057	0.045987
C42	C	1.022468	0.007546	-0.004270
C43	C	1.023326	0.054842	-0.162185
C44	C	1.023326	0.054855	0.103393
C45	C	1.025043	0.149454	0.053135
C46	C	1.025043	0.149441	-0.212442
C47	C	1.179691	0.505774	-0.268948
C48	C	1.275686	0.539205	-0.286739
C49	C	1.015488	0.623037	-0.331179
C50	C	1.017312	0.723718	-0.384653
N51	N	1.021607	0.460229	0.101953
N52	N	1.021614	0.460228	-0.591376
C53	C	1.139068	0.376431	0.146417
C54	C	1.197805	0.334537	0.245313
C55	C	1.197813	0.334539	0.398645
C56	C	1.139078	0.376438	0.453084
C57	C	1.080341	0.418332	0.354188
C58	C	1.080341	0.418328	0.200853
C59	C	0.962877	0.502123	0.309728
C60	C	0.962871	0.502127	0.156392
C61	C	0.904142	0.544021	0.364166
C62	C	0.845408	0.585922	0.265266
C63	C	0.845402	0.585919	0.111925
C64	C	0.904135	0.544021	0.057496
H65	H	0.468534	0.210081	-0.111890
H66	H	1.023177	0.046026	-0.664022
C67	C	0.750586	0.548230	-0.291379
N68	N	0.779486	0.626503	-0.332939
H69	H	0.904139	0.544019	-0.067356
C70	C	1.017205	-0.281025	-0.660983
N71	N	1.016464	-0.320220	-0.750191
H72	H	0.797586	0.620028	0.309604
H73	H	1.022617	0.016336	0.231974
H74	H	1.139074	0.376435	0.021563
H75	H	1.245638	0.300421	0.479171
C76	C	0.292623	0.372233	-0.198074
N77	N	0.263720	0.293961	-0.156529
H78	H	0.904147	0.544016	0.489021
H79	H	1.020042	-0.125573	0.174568
C80	C	1.139075	0.376416	0.621766
N81	N	1.139069	0.376396	0.748822
H82	H	0.797569	0.620030	0.031412
C83	C	1.025993	0.201492	0.171563
N84	N	1.026708	0.240687	0.260766
H85	H	1.024714	0.131855	-0.468679
C86	C	0.604080	0.151450	-0.080720
N87	N	0.575175	0.073179	-0.039160
H88	H	1.245625	0.300421	0.200977
C89	C	0.584639	0.737385	-0.391881
N90	N	0.613539	0.815658	-0.433441
H91	H	0.675031	0.595988	-0.316744
H92	H	0.265534	0.685007	-0.364160
C93	C	0.439134	0.769016	-0.408727
N94	N	0.468034	0.847288	-0.450288
H95	H	0.368190	0.324472	-0.172665
H96	H	0.777688	0.235444	-0.125275
H97	H	1.025751	0.187949	-0.341038
H98	H	1.020600	-0.095876	-0.721421
C99	C	1.017221	-0.281009	-0.103275
N100	N	1.016508	-0.320197	0.027565
H101	H	1.018478	-0.211391	-0.020753
