data_functionalizedCrystal
_audit_creation_method	'MofGen! by Chris Wilmer'
_symmetry_space_group_name_H-M	'P1'
_symmetry_Int_Tables_number	1
_symmetry_cell_setting	triclinic
loop_
_symmetry_equiv_pos_as_xyz
  x,y,z
_cell_length_a	11.792241
_cell_length_b	9.065218
_cell_length_c	10.868271
_cell_angle_alpha	89.995547
_cell_angle_beta	90.001559
_cell_angle_gamma	95.395350
loop_
_atom_site_label
_atom_site_type_symbol
_atom_site_fract_x
_atom_site_fract_y
_atom_site_fract_z
O1	O	0.166426	-1.958842	0.102326
O2	O	0.666426	-1.458842	0.602326
O3	O	0.180077	-1.529429	0.102328
O4	O	0.680077	-1.029429	0.602328
O5	O	0.008139	-1.754556	0.102318
O6	O	0.508139	-1.254556	0.602318
O7	O	0.338364	-1.733715	0.102336
O8	O	0.838364	-1.233715	0.602336
O9	O	0.008144	-1.754536	-0.102326
O10	O	0.508144	-1.254536	0.397674
O11	O	0.180083	-1.529409	-0.102317
O12	O	0.680083	-1.029409	0.397683
O13	O	0.166431	-1.958822	-0.102319
O14	O	0.666431	-1.458822	0.397681
Zn15	Zn	0.173258	-1.744112	-0.134809
Zn16	Zn	0.673258	-1.244112	0.365191
Zn17	Zn	0.173251	-1.744139	0.134819
Zn18	Zn	0.673251	-1.244139	0.634819
O19	O	0.338370	-1.733695	-0.102309
O20	O	0.838370	-1.233695	0.397691
C21	C	-0.034156	-1.753237	-0.000004
C22	C	0.465844	-1.253237	0.499996
C23	C	-0.160192	-1.749319	-0.000002
C24	C	0.339808	-1.249319	0.499998
C25	C	0.178768	-1.474445	0.000006
C26	C	0.678768	-0.974445	0.500006
C27	C	0.174845	-1.310639	0.000006
C28	C	0.674845	-0.810639	0.500006
C29	C	0.167741	-2.013806	0.000006
C30	C	0.667741	-1.513806	0.500006
C31	C	0.171664	-2.177612	0.000014
C32	C	0.671664	-1.677612	0.500014
C33	C	-0.390944	-1.742113	0.000018
C34	C	0.109056	-1.242113	0.500018
C35	C	-0.262537	-1.746117	0.000007
C36	C	0.237463	-1.246117	0.500007
C37	C	0.380665	-1.735014	0.000016
C38	C	0.880665	-1.235014	0.500016
C39	C	0.506701	-1.738933	0.000023
C40	C	1.006701	-1.238933	0.500023
N41	N	0.173262	-1.744104	-0.318823
N42	N	0.673262	-1.244104	0.181177
C43	C	0.173263	-1.744116	-0.430161
C44	C	0.673263	-1.244116	0.069839
C45	C	0.173252	-1.744135	-0.569839
C46	C	0.673252	-1.244135	-0.069839
N47	N	0.173238	-1.744158	0.318833
N48	N	0.673238	-1.244158	0.818833
