data_functionalizedCrystal
_audit_creation_method	'MofGen! by Chris Wilmer'
_symmetry_space_group_name_H-M	'P1'
_symmetry_Int_Tables_number	1
_symmetry_cell_setting	triclinic
loop_
_symmetry_equiv_pos_as_xyz
  x,y,z
_cell_length_a	15.297475
_cell_length_b	16.120444
_cell_length_c	15.296720
_cell_angle_alpha	78.012939
_cell_angle_beta	88.382886
_cell_angle_gamma	83.688625
loop_
_atom_site_label
_atom_site_type_symbol
_atom_site_fract_x
_atom_site_fract_y
_atom_site_fract_z
Zn1	Zn	1.212923	-0.646918	0.755060
Zn2	Zn	1.712923	-0.146918	1.255060
Zn3	Zn	1.230696	-0.766608	0.613842
Zn4	Zn	1.730696	-0.266608	1.113842
Zn5	Zn	1.094722	-0.600222	0.581247
Zn6	Zn	1.594722	-0.100222	1.081247
Zn7	Zn	1.059433	-0.758438	0.734611
Zn8	Zn	1.559433	-0.258438	1.234611
O9	O	1.149444	-0.693046	0.671190
O10	O	1.649444	-0.193046	1.171190
O11	O	1.336421	-0.685757	0.758527
O12	O	1.836421	-0.185757	1.258527
O13	O	1.234865	-0.728414	0.486234
O14	O	1.734865	-0.228414	0.986234
O15	O	1.117732	-0.490111	0.599220
O16	O	1.617732	0.009889	1.099220
O17	O	1.349480	-0.773693	0.654774
O18	O	1.849480	-0.273693	1.154774
O19	O	1.204573	-0.524418	0.726921
O20	O	1.704573	-0.024418	1.226921
O21	O	1.134966	-0.606170	0.462287
O22	O	1.634966	-0.106170	0.962287
O23	O	0.968900	-0.598247	0.579391
O24	O	1.468900	-0.098247	1.079391
O25	O	1.057587	-0.759767	0.860608
O26	O	1.557587	-0.259767	1.360608
O27	O	0.942973	-0.714488	0.692068
O28	O	1.442973	-0.214488	1.192068
O29	O	1.170355	-0.677834	0.875632
O30	O	1.670355	-0.177834	1.375632
O31	O	1.200647	-0.881830	0.634945
O32	O	1.700647	-0.381830	1.134945
O33	O	1.074822	-0.875827	0.723674
O34	O	1.574822	-0.375827	1.223674
C35	C	0.924526	-0.650415	0.629974
C36	C	1.424526	-0.150415	1.129974
C37	C	0.828300	-0.632199	0.612363
C38	C	1.328300	-0.132199	1.112363
C39	C	0.503200	-0.823240	0.797059
C40	C	1.003200	-0.323240	1.297059
C41	C	0.593609	-0.840360	0.813602
C42	C	1.093609	-0.340360	1.313602
C43	C	0.652286	-0.788321	0.763294
C44	C	1.152286	-0.288321	1.263294
C45	C	0.620546	-0.719160	0.696439
C46	C	1.120546	-0.219160	1.196439
C47	C	0.530128	-0.702042	0.679889
C48	C	1.030128	-0.202042	1.179889
C49	C	0.679214	-0.667123	0.646125
C50	C	1.179214	-0.167123	1.146125
C51	C	0.647474	-0.597962	0.579269
C52	C	1.147474	-0.097962	1.079269
C53	C	0.557065	-0.580847	0.562723
C54	C	1.057065	-0.080847	1.062723
C55	C	0.498388	-0.632885	0.613031
C56	C	0.998388	-0.132885	1.113031
C57	C	0.769632	-0.684241	0.662675
C58	C	1.269632	-0.184241	1.162675
C59	C	0.796560	-0.563043	0.545505
C60	C	1.296560	-0.063043	1.045505
C61	C	0.706151	-0.545923	0.528961
C62	C	1.206151	-0.045923	1.028961
C63	C	1.135854	-0.908992	0.680651
C64	C	1.635854	-0.408992	1.180651
C65	C	1.130114	-1.001393	0.684743
C66	C	1.630114	-0.501393	1.184743
C67	C	1.179397	-1.214703	0.650194
C68	C	1.679397	-0.714703	1.150194
C69	C	1.119649	-1.170570	0.692225
C70	C	1.619649	-0.670570	1.192225
C71	C	1.125474	-1.076431	0.688060
C72	C	1.625474	-0.576431	1.188060
C73	C	1.173574	-1.308851	0.654357
C74	C	1.673574	-0.808851	1.154357
C75	C	1.375239	-0.735845	0.712568
C76	C	1.875239	-0.235845	1.212568
C77	C	1.471460	-0.754084	0.730200
C78	C	1.971460	-0.254084	1.230200
C79	C	1.108052	-0.723098	0.900980
C80	C	1.608052	-0.223098	1.400980
C81	C	1.090414	-0.735905	0.998902
C82	C	1.590414	-0.235905	1.498902
C83	C	1.163106	-0.476265	0.661716
C84	C	1.663106	0.023735	1.161716
C85	C	1.168929	-0.383886	0.657678
C86	C	1.668929	0.116114	1.157678
C87	C	1.190727	-0.663061	0.442301
C88	C	1.690727	-0.163061	0.942301
C89	C	1.208548	-0.650052	0.344399
C90	C	1.708548	-0.150052	0.844399
C91	C	1.275550	-0.601378	1.306221
C92	C	1.775550	-0.101378	1.806221
C93	C	1.292127	-0.589348	1.214218
C94	C	1.792127	-0.089348	1.714218
C95	C	1.241700	-0.625986	1.160385
C96	C	1.741700	-0.125986	1.660385
C97	C	1.174693	-0.674656	1.198562
C98	C	1.674693	-0.174656	1.698562
C99	C	1.158118	-0.686693	1.290575
C100	C	1.658118	-0.186693	1.790575
C101	C	1.124269	-0.711301	1.144739
C102	C	1.624269	-0.211301	1.644739
C103	C	1.057262	-0.759971	1.182917
C104	C	1.557262	-0.259971	1.682917
C105	C	1.040690	-0.772005	1.274920
C106	C	1.540690	-0.272005	1.774920
C107	C	1.091117	-0.735367	1.328753
C108	C	1.591117	-0.235367	1.828753
C109	C	1.140844	-0.699264	1.052727
C110	C	1.640844	-0.199264	1.552727
C111	C	1.023412	-0.784579	1.037081
C112	C	1.523412	-0.284579	1.537081
C113	C	1.006835	-0.796608	1.129083
C114	C	1.506835	-0.296608	1.629083
H115	H	0.795465	-0.740553	0.717110
H116	H	1.295465	-0.240553	1.217110
F117	F	1.251968	-1.171681	0.599074
F118	F	1.751968	-0.671681	1.099074
H119	H	1.195401	-0.659636	1.021652
H120	H	1.695401	-0.159636	1.521652
F121	F	0.672359	-0.472317	0.457811
F122	F	1.172359	0.027683	0.957811
H123	H	0.986135	-0.811643	1.306002
H124	H	1.486135	-0.311643	1.806002
F125	F	0.969744	-0.823579	0.979793
F126	F	1.469744	-0.323579	1.479793
H127	H	0.952277	-0.836236	1.160180
H128	H	1.452277	-0.336236	1.660180
F129	F	1.047070	-1.213592	0.743344
F130	F	1.547070	-0.713592	1.243344
F131	F	0.859004	-0.507658	0.491956
F132	F	1.359004	-0.007658	0.991956
H133	H	0.424768	-0.618949	0.599566
H134	H	0.924768	-0.118949	1.099566
H135	H	0.725901	-0.802265	0.776769
H136	H	1.225901	-0.302265	1.276769
F137	F	1.259344	-0.613180	1.062468
F138	F	1.759344	-0.113180	1.562468
F139	F	1.363439	-0.537553	1.173594
F140	F	1.863439	-0.037553	1.673594
H141	H	1.316605	-0.571559	1.350061
H142	H	1.816605	-0.071559	1.850061
F143	F	1.073480	-0.748171	1.426675
F144	F	1.573480	-0.248171	1.926675
H145	H	0.619446	-0.896673	0.868034
H146	H	1.119446	-0.396673	1.368034
H147	H	0.531227	-0.524538	0.508276
H148	H	1.031227	-0.024538	1.008276
F149	F	0.440751	-0.878628	0.850577
F150	F	0.940751	-0.378628	1.350577
