data_functionalizedCrystal
_audit_creation_method	'MofGen! by Chris Wilmer'
_symmetry_space_group_name_H-M	'P1'
_symmetry_Int_Tables_number	1
_symmetry_cell_setting	triclinic
loop_
_symmetry_equiv_pos_as_xyz
  x,y,z
_cell_length_a	12.837942
_cell_length_b	12.837943
_cell_length_c	11.295483
_cell_angle_alpha	85.461227
_cell_angle_beta	94.530417
_cell_angle_gamma	94.828940
loop_
_atom_site_label
_atom_site_type_symbol
_atom_site_fract_x
_atom_site_fract_y
_atom_site_fract_z
O1	O	0.265788	1.408689	-0.099003
O2	O	0.765788	1.908689	0.400997
O3	O	0.252345	1.105556	-0.099010
O4	O	0.752345	1.605556	0.400990
O5	O	0.107500	1.250401	-0.098999
O6	O	0.607500	1.750401	0.401001
O7	O	0.410633	1.263845	-0.099013
O8	O	0.910633	1.763845	0.400987
O9	O	0.120201	1.237676	0.099051
O10	O	0.620201	1.737676	0.599051
O11	O	0.265045	1.092832	0.099040
O12	O	0.765045	1.592832	0.599040
O13	O	0.278489	1.395965	0.099047
O14	O	0.778489	1.895965	0.599047
Cu15	Cu	0.272927	1.243237	0.117127
Cu16	Cu	0.772927	1.743237	0.617127
Cu17	Cu	0.257907	1.258285	-0.117090
Cu18	Cu	0.757907	1.758285	0.382910
O19	O	0.423333	1.251121	0.099037
O20	O	0.923333	1.751121	0.599037
C21	C	0.254153	1.060125	0.000014
C22	C	0.754153	1.560125	0.500014
C23	C	0.240609	0.943710	0.000012
C24	C	0.740609	1.443710	0.500012
C25	C	0.074781	1.239497	0.000025
C26	C	0.574781	1.739497	0.500025
C27	C	-0.041634	1.225953	0.000023
C28	C	0.458366	1.725953	0.500023
C29	C	0.403439	0.718835	0.000021
C30	C	0.903439	1.218835	0.500021
C31	C	0.390717	0.609453	0.000020
C32	C	0.890717	1.109453	0.500020
C33	C	0.202446	0.615561	0.000016
C34	C	0.702446	1.115561	0.500016
C35	C	0.215167	0.724943	0.000017
C36	C	0.715167	1.224943	0.500017
C37	C	0.315667	0.776576	0.000018
C38	C	0.815667	1.276576	0.500018
C39	C	0.328387	0.885961	0.000011
C40	C	0.828387	1.385961	0.500011
C41	C	0.140117	0.892066	0.000016
C42	C	0.640117	1.392066	0.500016
C43	C	0.127396	0.782684	0.000015
C44	C	0.627396	1.282684	0.500015
C45	C	-0.266509	1.388784	0.000002
C46	C	0.233491	1.888784	0.500002
C47	C	-0.375892	1.376062	-0.000000
C48	C	0.124108	1.876062	0.500000
C49	C	-0.369784	1.187791	0.000008
C50	C	0.130216	1.687791	0.500008
C51	C	-0.260402	1.200512	0.000010
C52	C	0.239598	1.700512	0.500010
C53	C	-0.208768	1.301011	0.000009
C54	C	0.291232	1.801011	0.500009
C55	C	-0.099383	1.313731	0.000020
C56	C	0.400617	1.813731	0.500020
C57	C	-0.093278	1.125461	0.000019
C58	C	0.406722	1.625461	0.500019
C59	C	-0.202660	1.112740	0.000017
C60	C	0.297340	1.612740	0.500017
C61	C	0.456052	1.262024	0.000010
C62	C	0.956052	1.762024	0.500010
C63	C	0.572467	1.275569	0.000004
C64	C	1.072467	1.775569	0.500004
N65	N	0.283491	1.232661	0.281863
N66	N	0.783491	1.732661	0.781863
C67	C	0.276680	1.441396	0.000021
C68	C	0.776680	1.941396	0.500021
C69	C	0.290224	1.557812	0.000015
C70	C	0.790224	2.057812	0.500015
N71	N	0.247335	1.268868	-0.281825
N72	N	0.747335	1.768868	0.218175
C73	C	0.171231	1.344996	0.531161
C74	C	0.671231	1.844996	1.031161
C75	C	0.179223	1.337012	0.655824
C76	C	0.679223	1.837012	1.155824
C77	C	0.307459	1.208702	0.655854
C78	C	0.807459	1.708702	1.155854
C79	C	0.299467	1.216687	0.531191
C80	C	0.799467	1.716687	1.031191
C81	C	0.231353	1.284837	0.468849
C82	C	0.731353	1.784837	0.968849
C83	C	0.223367	1.292826	0.344183
C84	C	0.723367	1.792826	0.844183
C85	C	0.351597	1.164512	0.344216
C86	C	0.851597	1.664512	0.844216
C87	C	0.359589	1.156528	0.468879
C88	C	0.859589	1.656528	0.968879
H89	H	0.410219	0.928000	0.000014
H90	H	0.910219	1.428000	0.500014
O91	O	0.114381	1.401909	0.723024
O92	O	0.614381	1.901909	1.223024
H93	H	0.062757	1.349183	0.779826
H94	H	0.562757	1.849183	1.279826
H95	H	0.362909	1.153209	0.706630
H96	H	0.862909	1.653209	1.206630
O97	O	0.416439	1.099614	0.277004
O98	O	0.916439	1.599614	0.777004
H99	H	0.468048	1.152346	0.220191
H100	H	0.968048	1.652346	0.720191
H101	H	0.167908	1.348320	0.293425
H102	H	0.667908	1.848320	0.793425
H103	H	-0.057344	1.395563	0.000023
H104	H	0.442656	1.895563	0.500023
H105	H	0.115777	1.400494	0.480401
H106	H	0.615777	1.900494	0.980401
H107	H	0.485269	0.760876	0.000020
H108	H	0.985269	1.260876	0.500020
H109	H	0.462191	0.562444	0.000025
H110	H	0.962191	1.062444	0.500025
H111	H	-0.224468	1.470613	0.000013
H112	H	0.275532	1.970613	0.500013
O113	O	0.094057	0.559862	0.000033
O114	O	0.594057	1.059862	0.500033
H115	H	0.099963	0.474101	0.000035
H116	H	0.599963	0.974101	0.500035
O117	O	0.433061	1.083032	0.536121
O118	O	0.933061	1.583032	1.036121
H119	H	0.428525	1.087592	0.633276
H120	H	0.928525	1.587592	1.133276
O121	O	0.019006	0.726985	0.000012
O122	O	0.519006	1.226985	0.500012
H123	H	-0.018516	0.744254	0.080736
H124	H	0.481484	1.244254	0.580736
H125	H	0.068646	0.939091	0.000006
H126	H	0.568646	1.439091	0.500006
H127	H	-0.422901	1.447536	-0.000010
H128	H	0.077099	1.947536	0.499990
H129	H	-0.411844	1.105969	-0.000004
H130	H	0.088156	1.605969	0.499996
H131	H	-0.046252	1.053990	0.000034
H132	H	0.453748	1.553990	0.500034
O133	O	-0.258350	1.004346	0.000034
O134	O	0.241650	1.504346	0.500034
H135	H	-0.344111	1.010243	0.000043
H136	H	0.155889	1.510243	0.500043
