data_functionalizedCrystal
_audit_creation_method	'MofGen! by Chris Wilmer'
_symmetry_space_group_name_H-M	'P1'
_symmetry_Int_Tables_number	1
_symmetry_cell_setting	triclinic
loop_
_symmetry_equiv_pos_as_xyz
  x,y,z
_cell_length_a	15.944499
_cell_length_b	15.944551
_cell_length_c	15.186229
_cell_angle_alpha	89.995303
_cell_angle_beta	89.994052
_cell_angle_gamma	83.488174
loop_
_atom_site_label
_atom_site_type_symbol
_atom_site_fract_x
_atom_site_fract_y
_atom_site_fract_z
O1	O	1.114550	0.108124	-0.073283
O2	O	0.869994	0.121526	-0.073274
O3	O	0.998950	-0.007451	-0.073271
O4	O	0.985594	0.237101	-0.073286
O5	O	0.998942	-0.007453	0.073186
O6	O	0.869986	0.121524	0.073184
O7	O	1.114541	0.108122	0.073174
Zn8	Zn	0.992262	0.114823	0.096432
Zn9	Zn	0.992274	0.114825	-0.096532
O10	O	0.985585	0.237099	0.073171
C11	C	0.838695	0.120976	-0.000044
C12	C	0.745447	0.119331	-0.000040
C13	C	0.998392	-0.038746	-0.000042
C14	C	0.996729	-0.131992	-0.000041
C15	C	0.453911	0.194263	-0.000058
C16	C	0.514944	0.155313	-0.072268
C17	C	0.409810	0.113355	-0.000060
C18	C	0.514922	0.155289	0.072127
C19	C	0.574719	0.116296	-0.000049
C20	C	0.469616	0.074382	-0.072330
C21	C	0.469587	0.074370	0.072131
C22	C	0.530603	0.035360	-0.000097
C23	C	0.314810	0.111663	-0.000067
C24	C	0.669718	0.117981	-0.000048
C25	C	0.912823	-0.346833	-0.000050
C26	C	0.951782	-0.407858	0.072161
C27	C	0.993722	-0.302717	-0.000048
C28	C	0.951810	-0.407840	-0.072235
C29	C	0.990811	-0.467629	-0.000058
C30	C	1.032703	-0.362514	0.072222
C31	C	1.032720	-0.362489	-0.072238
C32	C	1.071737	-0.423497	-0.000010
C33	C	0.995397	-0.207715	-0.000041
C34	C	0.989143	-0.562630	-0.000059
C35	C	1.145840	0.108672	-0.000058
C36	C	1.239089	0.110317	-0.000068
C37	C	0.986144	0.268394	-0.000060
C38	C	0.987806	0.361640	-0.000066
N39	N	0.992261	0.114821	0.228125
N40	N	0.992282	0.114821	-0.228224
C41	C	1.049382	0.057729	0.453849
C42	C	1.049384	0.057727	0.546039
C43	C	0.935155	0.171915	0.546045
C44	C	0.935149	0.171912	0.453857
C45	C	0.992267	0.114820	0.407761
C46	C	0.992276	0.114821	0.592139
C47	C	0.992278	0.114819	0.692095
C48	C	0.992264	0.114821	0.307799
H49	H	0.420581	0.261409	-0.000132
F50	F	1.110170	-0.003036	0.404794
F51	F	1.077388	-0.336398	0.152104
F52	F	1.159583	-0.466856	0.000038
F53	F	0.443286	0.029675	0.151933
F54	F	1.077411	-0.336183	-0.152040
F55	F	0.907071	-0.434091	-0.152023
F56	F	0.573976	-0.052480	-0.000143
H57	H	1.095891	0.011237	0.583560
H58	H	0.888651	0.218400	0.583585
H59	H	0.535046	0.189537	-0.133316
F60	F	0.443511	0.029687	-0.152210
H61	H	0.534994	0.189523	0.133173
F62	F	0.825053	-0.303282	0.000043
F63	F	0.907055	-0.434134	0.151959
F64	F	0.874353	0.232677	0.404803
