data_functionalizedCrystal
_audit_creation_method	'MofGen! by Chris Wilmer'
_symmetry_space_group_name_H-M	'P1'
_symmetry_Int_Tables_number	1
_symmetry_cell_setting	triclinic
loop_
_symmetry_equiv_pos_as_xyz
  x,y,z
_cell_length_a	17.077404
_cell_length_b	11.169416
_cell_length_c	17.077396
_cell_angle_alpha	90.021425
_cell_angle_beta	89.982940
_cell_angle_gamma	89.986686
loop_
_atom_site_label
_atom_site_type_symbol
_atom_site_fract_x
_atom_site_fract_y
_atom_site_fract_z
Zn1	Zn	1.200089	0.477781	-0.443890
Zn2	Zn	1.200024	0.678498	-0.312644
Zn3	Zn	1.068827	0.477829	-0.312638
Zn4	Zn	1.068811	0.678421	-0.443867
O5	O	1.134438	0.578132	-0.378260
O6	O	1.309927	0.504419	-0.426492
O7	O	1.182600	0.651931	-0.202796
O8	O	1.086272	0.309873	-0.330056
O9	O	1.309880	0.651885	-0.330066
O10	O	1.182710	0.309838	-0.426486
O11	O	1.086209	0.504500	-0.202792
O12	O	0.958978	0.504426	-0.330034
O13	O	1.086246	0.651754	-0.553717
O14	O	0.958967	0.651800	-0.426448
O15	O	1.182696	0.504344	-0.553734
O16	O	1.182585	0.846438	-0.330044
O17	O	1.086184	0.846381	-0.426453
C18	C	0.930490	0.578111	-0.378238
C19	C	0.843240	0.578130	-0.378247
C20	C	0.802265	0.654984	-0.428370
C21	C	0.720284	0.654987	-0.428382
C22	C	0.679281	0.578141	-0.378268
C23	C	0.720262	0.501278	-0.328144
C24	C	0.802241	0.501271	-0.328136
C25	C	0.549392	0.501302	-0.328163
C26	C	0.467407	0.501311	-0.328169
C27	C	0.467435	0.655018	-0.428409
C28	C	0.549414	0.655010	-0.428401
C29	C	0.590390	0.578149	-0.378275
C30	C	1.134397	0.889957	-0.378264
C31	C	1.134451	1.023357	-0.378292
C32	C	1.339182	0.578155	-0.378282
C33	C	1.426432	0.578165	-0.378291
C34	C	1.134492	1.265090	-0.378281
C35	C	1.134496	1.131690	-0.378311
C36	C	1.134477	0.578035	-0.583004
C37	C	1.134493	0.577994	-0.670254
C38	C	1.184755	0.654621	-1.046073
C39	C	1.184735	0.654656	-0.964093
C40	C	1.134544	0.577909	-0.923103
C41	C	1.084363	0.501130	-0.964098
C42	C	1.084380	0.501102	-1.046077
C43	C	1.084334	0.501192	-0.793228
C44	C	1.084318	0.501218	-0.711243
C45	C	1.184689	0.654746	-0.711244
C46	C	1.184706	0.654718	-0.793223
C47	C	1.134526	0.577938	-0.834212
C48	C	1.134444	0.578143	-0.174312
C49	C	1.134580	0.577846	-0.087063
H50	H	0.582752	0.438703	-0.287352
H51	H	1.225580	0.717207	-0.826594
N52	N	1.030178	0.418454	-0.667030
H53	H	0.998386	0.369818	-0.705434
H54	H	0.993842	0.467330	-0.633009
N55	N	0.846483	0.737879	-0.482419
H56	H	0.832242	0.719347	-0.538526
H57	H	0.904620	0.726181	-0.474742
H58	H	1.225548	0.717264	-0.677866
H59	H	1.043472	0.438669	-0.826599
H60	H	1.043493	0.438647	-0.930718
H61	H	0.686870	0.438704	-0.287343
N62	N	0.423244	0.737921	-0.482471
H63	H	0.461659	0.786611	-0.514211
H64	H	0.389214	0.793396	-0.450454
N65	N	1.030259	0.418300	-1.090291
H66	H	0.998461	0.369684	-1.051886
H67	H	1.062229	0.362752	-1.124316
N68	N	0.593643	0.737902	-0.482444
H69	H	0.555247	0.786594	-0.514200
H70	H	0.627678	0.689115	-0.518818
N71	N	0.676088	0.737896	-0.482431
H72	H	0.714504	0.786587	-0.514169
H73	H	0.642061	0.793368	-0.450409
H74	H	1.225630	0.717112	-1.079441
N75	N	0.423179	0.418429	-0.274120
H76	H	0.461575	0.369730	-0.242368
H77	H	0.389182	0.362962	-0.306140
H78	H	1.225583	0.717189	-0.930723
H79	H	0.835602	0.438682	-0.287325
