data_functionalizedCrystal
_audit_creation_method	'MofGen! by Chris Wilmer'
_symmetry_space_group_name_H-M	'P1'
_symmetry_Int_Tables_number	1
_symmetry_cell_setting	triclinic
loop_
_symmetry_equiv_pos_as_xyz
  x,y,z
_cell_length_a	12.837943
_cell_length_b	15.995350
_cell_length_c	11.892095
_cell_angle_alpha	93.891441
_cell_angle_beta	85.689438
_cell_angle_gamma	89.160657
loop_
_atom_site_label
_atom_site_type_symbol
_atom_site_fract_x
_atom_site_fract_y
_atom_site_fract_z
O1	O	1.382080	0.212847	-0.093972
O2	O	1.882080	0.712847	0.406028
O3	O	1.080275	0.202094	-0.093979
O4	O	1.580275	0.702094	0.406021
O5	O	1.239427	0.086241	-0.093975
O6	O	1.739427	0.586241	0.406025
O7	O	1.222927	0.328700	-0.093977
O8	O	1.722927	0.828700	0.406023
O9	O	1.226157	0.095884	0.094032
O10	O	1.726157	0.595884	0.594032
O11	O	1.067005	0.211737	0.094028
O12	O	1.567005	0.711737	0.594028
O13	O	1.368810	0.222490	0.094035
O14	O	1.868810	0.722490	0.594035
Zn15	Zn	1.215800	0.218644	0.123881
Zn16	Zn	1.715800	0.718644	0.623881
Zn17	Zn	1.233284	0.205939	-0.123826
Zn18	Zn	1.733284	0.705939	0.376174
O19	O	1.209657	0.338343	0.094030
O20	O	1.709657	0.838343	0.594030
C21	C	1.035019	0.203283	0.000023
C22	C	1.535019	0.703283	0.500023
C23	C	0.919942	0.192449	0.000020
C24	C	1.419942	0.692449	0.500020
C25	C	0.678983	0.322688	0.000035
C26	C	1.178983	0.822688	0.500035
C27	C	0.570857	0.312513	0.000033
C28	C	1.070857	0.812513	0.500033
C29	C	0.595563	0.161925	0.000023
C30	C	1.095563	0.661925	0.500023
C31	C	0.703688	0.172100	0.000025
C32	C	1.203688	0.672100	0.500025
C33	C	0.745394	0.252484	0.000029
C34	C	1.245394	0.752484	0.500029
C35	C	0.853523	0.262658	0.000023
C36	C	1.353523	0.762658	0.500023
C37	C	0.878225	0.112072	0.000020
C38	C	1.378225	0.612072	0.500020
C39	C	0.770100	0.101896	0.000018
C40	C	1.270100	0.601896	0.500018
C41	C	1.232110	0.059813	0.000027
C42	C	1.732110	0.559813	0.500027
C43	C	1.230066	-0.033301	0.000020
C44	C	1.730066	0.466699	0.500020
C45	C	1.222721	-0.371634	0.000024
C46	C	1.722721	0.128366	0.500024
C47	C	1.109405	-0.333265	-0.000400
C48	C	1.609405	0.166735	0.499600
C49	C	1.111421	-0.236390	0.000023
C50	C	1.611421	0.263610	0.500023
C51	C	1.226364	-0.203783	0.000021
C52	C	1.726364	0.296217	0.500021
C53	C	1.274693	-0.234893	0.107382
C54	C	1.774693	0.265107	0.607382
C55	C	1.271839	-0.331752	0.107472
C56	C	1.771839	0.168248	0.607472
C57	C	1.289271	-0.342889	-0.106327
C58	C	1.789271	0.157111	0.393673
C59	C	1.289344	-0.246018	-0.107746
C60	C	1.789344	0.253982	0.392254
C61	C	1.228429	-0.108921	0.000024
C62	C	1.728429	0.391079	0.500024
C63	C	1.220659	-0.466496	0.000029
C64	C	1.720659	0.033504	0.500029
C65	C	1.414066	0.221301	0.000030
C66	C	1.914066	0.721301	0.500030
C67	C	1.529143	0.232134	0.000025
C68	C	2.029143	0.732134	0.500025
C69	C	1.216974	0.364770	0.000026
C70	C	1.716974	0.864770	0.500026
C71	C	1.219020	0.457884	0.000025
C72	C	1.719020	0.957884	0.500025
N73	N	1.203876	0.227315	0.292935
N74	N	1.703876	0.727315	0.792935
N75	N	1.245217	0.197262	-0.292880
N76	N	1.745217	0.697262	0.207120
C77	C	1.328193	0.136877	0.529587
C78	C	1.828193	0.636877	1.029587
C79	C	1.319865	0.142945	0.647928
C80	C	1.819865	0.642945	1.147928
C81	C	1.178889	0.245514	0.647962
C82	C	1.678889	0.745514	1.147962
C83	C	1.187216	0.239446	0.529621
C84	C	1.687216	0.739446	1.029621
C85	C	1.261872	0.185127	0.470437
C86	C	1.761872	0.685127	0.970437
C87	C	1.270204	0.179064	0.352093
C88	C	1.770204	0.679064	0.852093
C89	C	1.129223	0.281628	0.352129
C90	C	1.629223	0.781628	0.852129
C91	C	1.120896	0.287696	0.470471
C92	C	1.620896	0.787696	0.970471
H93	H	0.561579	0.096485	0.000112
H94	H	1.061579	0.596485	0.500112
N95	N	0.725113	0.015202	0.000028
N96	N	1.225113	0.515202	0.500028
H97	H	0.646538	0.019407	0.000033
H98	H	1.146538	0.519407	0.500033
H99	H	0.754321	-0.019473	-0.069670
H100	H	1.254321	0.480527	0.430330
N101	N	1.381604	-0.365345	0.113963
N102	N	1.881604	0.134655	0.613963
H103	H	1.380606	-0.428466	0.114078
H104	H	1.880606	0.071534	0.614078
H105	H	1.427160	-0.348692	0.046482
H106	H	1.927160	0.151308	0.546482
N107	N	1.098361	0.304085	0.711805
N108	N	1.598361	0.804085	1.211805
H109	H	1.103149	0.300601	0.795749
H110	H	1.603149	0.800601	1.295749
H111	H	1.111784	0.363388	0.691130
H112	H	1.611784	0.863388	1.191130
N113	N	1.350724	0.120484	0.288254
N114	N	1.850724	0.620484	0.788254
H115	H	1.391472	0.090837	0.343688
H116	H	1.891472	0.590837	0.843688
H117	H	1.314495	0.077768	0.239161
H118	H	1.814495	0.577768	0.739161
H119	H	0.932310	0.054906	0.000008
H120	H	1.432310	0.554906	0.500008
N121	N	1.242697	-0.219582	-0.212959
N122	N	1.742697	0.280418	0.287041
H123	H	1.181028	-0.180407	-0.190921
H124	H	1.681028	0.319593	0.309079
H125	H	1.297097	-0.189954	-0.260604
H126	H	1.797097	0.310046	0.239396
H127	H	1.373869	0.103654	0.696085
H128	H	1.873869	0.603654	1.196085
H129	H	0.516788	0.369680	0.000041
H130	H	1.016788	0.869680	0.500041
H131	H	1.075223	0.320919	0.303956
H132	H	1.575223	0.820919	0.803956
H133	H	1.388987	0.092654	0.481399
H134	H	1.888987	0.592654	0.981399
H135	H	1.072907	-0.215422	-0.076937
H136	H	1.572907	0.284578	0.423063
N137	N	1.040373	0.346276	0.534307
N138	N	1.540373	0.846276	1.034307
H139	H	1.045158	0.342798	0.618252
H140	H	1.545158	0.842798	1.118252
H141	H	1.053806	0.405575	0.513622
H142	H	1.553806	0.905575	1.013622
N143	N	1.056581	-0.367829	-0.102376
N144	N	1.556581	0.132171	0.397624
H145	H	1.105587	-0.408698	-0.149291
H146	H	1.605587	0.091302	0.350709
H147	H	0.991038	-0.397533	-0.076661
H148	H	1.491038	0.102467	0.423339
H149	H	1.358857	-0.213825	0.111373
H150	H	1.858857	0.286175	0.611373
N151	N	0.898512	0.349352	0.000018
N152	N	1.398512	0.849352	0.500018
H153	H	0.840029	0.392281	0.000024
H154	H	1.340029	0.892281	0.500024
H155	H	0.937920	0.360427	0.069714
H156	H	1.437920	0.860427	0.569714
H157	H	1.061738	-0.208101	0.077113
H158	H	1.561738	0.291899	0.577113
H159	H	0.712940	0.388139	0.000037
H160	H	1.212940	0.888139	0.500037
H161	H	1.058900	-0.352531	0.076159
H162	H	1.558900	0.147469	0.576159
H163	H	1.230224	-0.205512	0.187277
H164	H	1.730224	0.294488	0.687277
N165	N	1.210338	-0.354859	0.213774
N166	N	1.710338	0.145141	0.713774
H167	H	1.185331	-0.302154	0.260134
H168	H	1.685331	0.197846	0.760134
H169	H	1.148188	-0.388960	0.192880
H170	H	1.648188	0.111040	0.692880
H171	H	1.257956	-0.370559	-0.187700
H172	H	1.757956	0.129441	0.312300
H173	H	1.373623	-0.224301	-0.114230
H174	H	1.873623	0.275699	0.385770
N175	N	1.400036	-0.376171	-0.107293
N176	N	1.900036	0.123829	0.392707
H177	H	1.407123	-0.409708	-0.039214
H178	H	1.907123	0.090292	0.460786
H179	H	1.417447	-0.413282	-0.178563
H180	H	1.917447	0.086718	0.321437
