data_functionalizedCrystal
_audit_creation_method	'MofGen! by Chris Wilmer'
_symmetry_space_group_name_H-M	'P1'
_symmetry_Int_Tables_number	1
_symmetry_cell_setting	triclinic
loop_
_symmetry_equiv_pos_as_xyz
  x,y,z
_cell_length_a	14.908520
_cell_length_b	13.032891
_cell_length_c	13.032268
_cell_angle_alpha	90.886842
_cell_angle_beta	99.985811
_cell_angle_gamma	86.523712
loop_
_atom_site_label
_atom_site_type_symbol
_atom_site_fract_x
_atom_site_fract_y
_atom_site_fract_z
Zn1	Zn	-0.608109	1.453333	-0.815711
Zn2	Zn	-0.742272	1.465117	-0.651425
Zn3	Zn	-0.570494	1.305984	-0.619794
Zn4	Zn	-0.737405	1.271727	-0.801271
O5	O	-0.664570	1.374040	-0.722050
O6	O	-0.643685	1.597496	-0.813199
O7	O	-0.705780	1.463276	-0.502526
O8	O	-0.449483	1.334935	-0.638589
O9	O	-0.742254	1.606154	-0.692498
O10	O	-0.477119	1.443192	-0.782528
O11	O	-0.579575	1.346362	-0.479288
O12	O	-0.574856	1.158840	-0.624587
O13	O	-0.733960	1.276549	-0.947889
O14	O	-0.697486	1.133671	-0.757917
O15	O	-0.638966	1.409974	-0.958498
O16	O	-0.867627	1.430058	-0.678497
O17	O	-0.864052	1.287976	-0.788588
C18	C	-0.631562	1.109281	-0.686253
C19	C	-0.617465	0.996011	-0.670965
C20	C	-0.657364	0.816020	-0.714238
C21	C	-0.671938	0.933090	-0.730037
C22	C	-0.898516	1.356603	-0.735434
C23	C	-0.998613	1.349232	-0.741207
C24	C	-1.190396	1.483451	-0.637541
C25	C	-1.284447	1.476529	-0.642962
C26	C	-1.280769	1.328471	-0.757476
C27	C	-1.186718	1.335393	-0.752054
C28	C	-1.141535	1.412884	-0.692084
C29	C	-1.047481	1.419801	-0.686657
C30	C	-1.043805	1.271749	-0.801176
C31	C	-1.137856	1.264827	-0.806597
C32	C	-0.429717	1.391570	-0.708641
C33	C	-0.329636	1.399041	-0.702926
C34	C	-0.697708	1.639833	-0.757988
C35	C	-0.711829	1.753098	-0.773302
C36	C	-0.690116	1.338126	-0.991762
C37	C	-0.701002	1.322821	-1.106698
C38	C	-0.658854	1.382014	-1.163189
C39	C	-0.670105	1.366198	-1.281980
C40	C	-0.639066	1.409878	-0.453392
C41	C	-0.627951	1.425399	-0.338469
H42	H	-1.010693	1.482896	-0.637824
C43	C	-0.598857	1.466296	-1.109729
H44	H	-0.599172	1.465875	-1.036901
H45	H	-0.538159	1.453571	-1.121908
H46	H	-0.622240	1.531450	-1.137389
H47	H	-0.745408	1.260429	-1.146278
C48	C	-0.730107	1.281911	-1.335431
H49	H	-0.755086	1.246820	-1.284584
H50	H	-0.778159	1.312391	-1.385080
H51	H	-0.694081	1.234508	-1.369592
C52	C	-0.567948	1.509684	-1.285015
H53	H	-0.568261	1.509264	-1.212187
H54	H	-0.507251	1.496955	-1.297197
H55	H	-0.591329	1.574838	-1.312676
H56	H	-0.599941	0.783218	-0.651978
C57	C	-0.749513	0.977382	-0.814158
H58	H	-0.781790	0.922724	-0.849171
H59	H	-0.790070	1.021265	-0.782336
H60	H	-0.724529	1.015470	-0.862879
C61	C	-0.539887	0.951722	-0.586846
H62	H	-0.507603	1.006380	-0.551845
H63	H	-0.564860	0.913626	-0.538129
H64	H	-0.499326	0.907845	-0.618679
C65	C	-0.789400	0.797394	-0.857419
H66	H	-0.821678	0.742736	-0.892431
H67	H	-0.829957	0.841278	-0.825597
H68	H	-0.764416	0.835482	-0.906140
H69	H	-1.324227	1.533993	-0.598550
H70	H	-1.317574	1.265387	-0.806308
C71	C	-1.140691	1.568682	-0.571575
H72	H	-1.183263	1.609720	-0.539869
H73	H	-1.094922	1.538438	-0.519112
H74	H	-1.113237	1.610485	-0.615057
C75	C	-1.187561	1.179590	-0.872553
H76	H	-1.250572	1.185568	-0.867966
H77	H	-1.180547	1.186318	-0.943162
H78	H	-1.162235	1.114288	-0.847204
C79	C	-0.990057	1.194125	-0.861179
H80	H	-0.927573	1.209347	-0.849368
H81	H	-0.995562	1.126554	-0.837624
H82	H	-1.013870	1.198602	-0.933569
