data_functionalizedCrystal
_audit_creation_method	'MofGen! by Chris Wilmer'
_symmetry_space_group_name_H-M	'P1'
_symmetry_Int_Tables_number	1
_symmetry_cell_setting	triclinic
loop_
_symmetry_equiv_pos_as_xyz
  x,y,z
_cell_length_a	17.077404
_cell_length_b	12.759399
_cell_length_c	12.759393
_cell_angle_alpha	90.030906
_cell_angle_beta	90.024604
_cell_angle_gamma	90.014220
loop_
_atom_site_label
_atom_site_type_symbol
_atom_site_fract_x
_atom_site_fract_y
_atom_site_fract_z
Zn1	Zn	-1.200121	0.418241	-0.594120
Zn2	Zn	-0.866788	0.751574	-0.260787
Zn3	Zn	-0.533455	1.084907	0.072547
Zn4	Zn	-1.200039	0.593956	-0.418439
Zn5	Zn	-0.866706	0.927289	-0.085105
Zn6	Zn	-0.533372	1.260623	0.248228
Zn7	Zn	-1.068846	0.418289	-0.418444
Zn8	Zn	-0.735513	0.751622	-0.085110
Zn9	Zn	-0.402179	1.084956	0.248223
Zn10	Zn	-1.068839	0.593875	-0.594065
Zn11	Zn	-0.735506	0.927209	-0.260731
Zn12	Zn	-0.402172	1.260542	0.072602
O13	O	-1.134461	0.506090	-0.506267
O14	O	-0.801128	0.839424	-0.172933
O15	O	-0.467795	1.172757	0.160400
O16	O	-1.309957	0.441563	-0.570836
O17	O	-0.976624	0.774896	-0.237503
O18	O	-0.643291	1.108230	0.095830
O19	O	-1.182605	0.570708	-0.271418
O20	O	-0.849271	0.904041	0.061915
O21	O	-0.515938	1.237374	0.395248
O22	O	-1.086297	0.271262	-0.441773
O23	O	-0.752964	0.604595	-0.108439
O24	O	-0.419631	0.937928	0.224894
O25	O	-1.309897	0.570661	-0.441764
O26	O	-0.976564	0.903994	-0.108431
O27	O	-0.643230	1.237327	0.224903
O28	O	-1.182745	0.271226	-0.570841
O29	O	-0.849412	0.604559	-0.237508
O30	O	-0.516078	0.937893	0.095825
O31	O	-1.086218	0.441646	-0.271422
O32	O	-0.752884	0.774979	0.061911
O33	O	-0.419551	1.108312	0.395245
O34	O	-0.958998	0.441567	-0.441719
O35	O	-0.625665	0.774901	-0.108386
O36	O	-0.292332	1.108234	0.224947
O37	O	-1.086285	0.570523	-0.741093
O38	O	-0.752952	0.903856	-0.407760
O39	O	-0.419619	1.237190	-0.074426
O40	O	-0.958993	0.570570	-0.570747
O41	O	-0.625660	0.903903	-0.237414
O42	O	-0.292326	1.237237	0.095919
O43	O	-1.182738	0.441485	-0.741134
O44	O	-0.849405	0.774818	-0.407800
O45	O	-0.516071	1.108151	-0.074467
O46	O	-1.182598	0.740966	-0.441711
O47	O	-0.849264	1.074300	-0.108377
O48	O	-0.515931	1.407633	0.224956
O49	O	-1.086206	0.740907	-0.570742
O50	O	-0.752872	1.074240	-0.237409
O51	O	-0.419539	1.407574	0.095924
C52	C	-0.930514	0.506066	-0.506228
C53	C	-0.597180	0.839399	-0.172895
C54	C	-0.263847	1.172733	0.160438
C55	C	-0.843264	0.506081	-0.506237
C56	C	-0.509930	0.839414	-0.172904
C57	C	-0.176597	1.172747	0.160430
C58	C	-0.802291	0.573353	-0.573312
C59	C	-0.468958	0.906686	-0.239979
C60	C	-0.135625	1.240019	0.093354
C61	C	-0.720311	0.573353	-0.573325
C62	C	-0.386978	0.906686	-0.239992
C63	C	-0.053644	1.240019	0.093341
C64	C	-0.679304	0.506086	-0.506257
C65	C	-0.345971	0.839419	-0.172924
C66	C	-0.012638	1.172752	0.160410
C67	C	-0.720282	0.438806	-0.439179
C68	C	-0.386949	0.772140	-0.105846
C69	C	-0.053616	1.105473	0.227488
C70	C	-0.802261	0.438802	-0.439172
C71	C	-0.468928	0.772135	-0.105839
C72	C	-0.135595	1.105468	0.227495
C73	C	-0.549412	0.438822	-0.439196
C74	C	-0.216079	0.772156	-0.105863
C75	C	0.117254	1.105489	0.227470
C76	C	-0.467428	0.438828	-0.439202
C77	C	-0.134094	0.772161	-0.105868
C78	C	0.199239	1.105495	0.227465
C79	C	-0.467462	0.573374	-0.573350
C80	C	-0.134129	0.906707	-0.240016
C81	C	0.199205	1.240040	0.093317
C82	C	-0.549441	0.573369	-0.573343
C83	C	-0.216108	0.906702	-0.240009
C84	C	0.117226	1.240036	0.093324
C85	C	-0.590413	0.506091	-0.506263
C86	C	-0.257080	0.839424	-0.172930
C87	C	0.076253	1.172757	0.160404
C88	C	-1.134413	0.779058	-0.506243
C89	C	-0.801080	1.112391	-0.172910
C90	C	-0.467747	1.445724	0.160424
C91	C	-1.134464	0.895834	-0.506268
C92	C	-0.801131	1.229168	-0.172934
C93	C	-0.467798	1.562501	0.160399
C94	C	-1.134520	0.505989	-0.780300
C95	C	-0.801187	0.839323	-0.446967
C96	C	-0.467853	1.172656	-0.113634
C97	C	-1.134545	0.505946	-0.897077
C98	C	-0.801212	0.839280	-0.563744
C99	C	-0.467878	1.172613	-0.230410
C100	C	-0.339206	0.506109	-0.506294
C101	C	-0.005872	0.839442	-0.172961
C102	C	0.327461	1.172776	0.160372
C103	C	-0.426455	0.506100	-0.506277
C104	C	-0.093122	0.839433	-0.172943
C105	C	0.240211	1.172767	0.160390
C106	C	-1.134531	0.232057	-0.506314
C107	C	-0.801198	0.565390	-0.172980
C108	C	-0.467864	0.898724	0.160353
C109	C	-1.134561	0.115280	-0.506334
C110	C	-0.801227	0.448614	-0.173000
C111	C	-0.467894	0.781947	0.160333
C112	C	-1.184713	0.950692	-0.439157
C113	C	-0.851380	1.284026	-0.105824
C114	C	-0.518046	1.617359	0.227509
C115	C	-1.184764	1.060416	-0.439193
C116	C	-0.851430	1.393750	-0.105859
C117	C	-0.518097	1.727083	0.227474
C118	C	-1.084310	1.060415	-0.573452
C119	C	-0.750977	1.393748	-0.240118
C120	C	-0.417643	1.727081	0.093215
C121	C	-1.084264	0.950693	-0.573421
C122	C	-0.750931	1.284026	-0.240088
C123	C	-0.417597	1.617359	0.093246
C124	C	-1.184772	0.438746	-0.951962
C125	C	-0.851438	0.772079	-0.618628
C126	C	-0.518105	1.105412	-0.285295
C127	C	-1.184785	0.438700	-1.061686
C128	C	-0.851452	0.772034	-0.728353
C129	C	-0.518118	1.105367	-0.395019
C130	C	-1.084343	0.573066	-1.061631
C131	C	-0.751010	0.906399	-0.728298
C132	C	-0.417676	1.239732	-0.394964
C133	C	-1.084326	0.573105	-0.951909
C134	C	-0.750993	0.906438	-0.618575
C135	C	-0.417660	1.239772	-0.285242
C136	C	-1.134448	0.506115	-0.233299
C137	C	-0.801115	0.839448	0.100034
C138	C	-0.467781	1.172782	0.433367
C139	C	-1.134575	0.505862	-0.116523
C140	C	-0.801242	0.839195	0.216810
C141	C	-0.467908	1.172529	0.550143
H142	H	-0.835673	0.628133	-0.627924
H143	H	-0.502340	0.961466	-0.294590
H144	H	-0.169007	1.294800	0.038743
Br145	Br	-0.605017	0.347513	-0.348161
Br146	Br	-0.271684	0.680847	-0.014827
Br147	Br	0.061649	1.014180	0.318506
Br148	Br	-1.016195	0.664209	-1.136052
Br149	Br	-0.682862	0.997542	-0.802718
Br150	Br	-0.349528	1.330875	-0.469385
H151	H	-0.434042	0.384041	-0.384601
H152	H	-0.100709	0.717374	-0.051268
H153	H	0.232624	1.050707	0.282065
H154	H	-1.043420	0.627827	-0.907220
H155	H	-0.710087	0.961160	-0.573887
H156	H	-0.376753	1.294494	-0.240554
H157	H	-0.686955	0.628133	-0.627944
H158	H	-0.353622	0.961467	-0.294610
H159	H	-0.020288	1.294800	0.038723
Br160	Br	-0.605093	0.664671	-0.664355
Br161	Br	-0.271760	0.998005	-0.331021
Br162	Br	0.061574	1.331338	0.002312
H163	H	-0.434098	0.628151	-0.627972
H164	H	-0.100765	0.961484	-0.294638
H165	H	0.232568	1.294818	0.038695
H166	H	-1.225661	0.384058	-0.907321
H167	H	-0.892328	0.717391	-0.573988
H168	H	-0.558994	1.050724	-0.240654
H169	H	-1.043437	1.105094	-0.628124
H170	H	-0.710104	1.438427	-0.294790
H171	H	-0.376771	1.771760	0.038543
Br172	Br	-0.664631	0.347504	-0.348166
Br173	Br	-0.331298	0.680837	-0.014833
Br174	Br	0.002035	1.014170	0.318500
H175	H	-0.835620	0.384016	-0.384558
H176	H	-0.502287	0.717350	-0.051225
H177	H	-0.168953	1.050683	0.282109
H178	H	-1.225591	0.906029	-0.384479
H179	H	-0.892257	1.239362	-0.051145
H180	H	-0.558924	1.572696	0.282188
H181	H	-1.043345	0.906024	-0.628075
H182	H	-0.710012	1.239358	-0.294742
H183	H	-0.376679	1.572691	0.038591
H184	H	-1.225682	1.105077	-0.384546
H185	H	-0.892349	1.438410	-0.051213
H186	H	-0.559016	1.771743	0.282121
Br187	Br	-1.252958	0.347503	-1.136169
Br188	Br	-0.919625	0.680836	-0.802835
Br189	Br	-0.586292	1.014169	-0.469502
