data_functionalizedCrystal
_audit_creation_method	'MofGen! by Chris Wilmer'
_symmetry_space_group_name_H-M	'P1'
_symmetry_Int_Tables_number	1
_symmetry_cell_setting	triclinic
loop_
_symmetry_equiv_pos_as_xyz
  x,y,z
_cell_length_a	12.759401
_cell_length_b	16.959447
_cell_length_c	12.759399
_cell_angle_alpha	90.028084
_cell_angle_beta	89.983359
_cell_angle_gamma	89.983737
loop_
_atom_site_label
_atom_site_type_symbol
_atom_site_fract_x
_atom_site_fract_y
_atom_site_fract_z
Zn1	Zn	1.606215	-0.446907	0.418202
Zn2	Zn	1.606119	-0.314734	0.593909
Zn3	Zn	1.430528	-0.314746	0.418249
Zn4	Zn	1.430504	-0.446874	0.593844
O5	O	1.518341	-0.380815	0.506051
O6	O	1.753223	-0.429383	0.441517
O7	O	1.582796	-0.204125	0.570654
O8	O	1.453883	-0.332297	0.271222
O9	O	1.753153	-0.332276	0.570608
O10	O	1.582960	-0.429395	0.271187
O11	O	1.453790	-0.204134	0.441598
O12	O	1.283504	-0.332265	0.441535
O13	O	1.453843	-0.557489	0.570498
O14	O	1.283486	-0.429338	0.570544
O15	O	1.582937	-0.557514	0.441454
O16	O	1.582773	-0.332244	0.740921
O17	O	1.453750	-0.429326	0.740874
C18	C	1.245374	-0.380800	0.506038
C19	C	1.128597	-0.380812	0.506058
C20	C	1.073754	-0.431278	0.573335
C21	C	0.964030	-0.431294	0.573339
C22	C	0.964003	-0.330369	0.438786
C23	C	1.073725	-0.330358	0.438777
C24	C	1.518398	-0.586984	0.505964
C25	C	1.518422	-0.674840	0.505926
C26	C	1.451347	-1.046327	0.438622
C27	C	1.585682	-1.046305	0.573010
C28	C	1.585664	-0.963759	0.573034
C29	C	1.518485	-0.922493	0.505853
C30	C	1.451324	-0.963773	0.438647
C31	C	1.652815	-0.922473	0.640246
C32	C	1.652799	-0.839922	0.640274
C33	C	1.585625	-0.798655	0.573087
C34	C	1.518462	-0.839940	0.505877
C35	C	1.451284	-0.798674	0.438696
C36	C	1.384126	-0.839958	0.371480
C37	C	1.384150	-0.922506	0.371459
C38	C	1.585600	-0.716106	0.573108
C39	C	1.451261	-0.716120	0.438720
C40	C	1.792375	-0.380832	0.506065
C41	C	1.909151	-0.380838	0.506071
C42	C	1.518277	-0.380797	0.779018
C43	C	1.518346	-0.380816	0.895795
C44	C	1.518346	-0.175449	0.506062
C45	C	1.518525	-0.087593	0.505804
C46	C	1.518435	-0.380851	0.232018
C47	C	1.518475	-0.380866	0.115241
C48	C	1.585605	-0.330323	0.950647
C49	C	1.585672	-0.330349	1.060371
C50	C	1.451212	-0.431365	1.060382
C51	C	1.451151	-0.431342	0.950660
H52	H	1.396560	-0.682528	0.384007
H53	H	1.118428	-0.472363	0.628117
O54	O	1.651078	-1.086303	0.638215
C55	C	1.829780	-1.111612	0.689171
C56	C	1.755833	-1.066247	0.615275
H57	H	1.914491	-1.095426	0.670636
H58	H	1.811387	-1.095348	0.773909
H59	H	1.818199	-1.177699	0.677626
H60	H	1.767373	-1.000150	0.626726
H61	H	1.774245	-1.082577	0.530564
O62	O	1.650675	-0.675966	0.638505
C63	C	1.664723	-0.582696	0.780332
C64	C	1.590902	-0.628119	0.706349
H65	H	1.616427	-0.543988	0.835187
H66	H	1.712719	-0.626331	0.828428
H67	H	1.719689	-0.544098	0.732091
H68	H	1.535872	-0.666718	0.754509
H69	H	1.542979	-0.584441	0.658250
H70	H	1.118379	-0.289262	0.383986
O71	O	0.910918	-0.480341	0.638793
C72	C	0.922532	-0.580475	0.772209
C73	C	0.982810	-0.524952	0.698152
H74	H	0.980630	-0.616569	0.820204
H75	H	0.871156	-0.544157	0.827156
H76	H	0.871171	-0.621843	0.724030
H77	H	1.034228	-0.483573	0.746246
H78	H	1.034120	-0.561319	0.643202
H79	H	1.707497	-0.956078	0.694954
O80	O	1.318804	-0.962646	0.306326
C81	C	1.177036	-1.055882	0.292166
C82	C	1.250957	-1.010455	0.366044
H83	H	1.122178	-1.094559	0.340417
H84	H	1.128940	-1.012250	0.244166
H85	H	1.225325	-1.094511	0.237206
H86	H	1.202748	-0.971825	0.421067
H87	H	1.299057	-1.054130	0.413971
H88	H	1.396671	-1.079944	0.383894
O89	O	1.650892	-0.281302	1.113801
C90	C	1.665285	-0.174665	1.237833
C91	C	1.591282	-0.230145	1.177388
H92	H	1.617119	-0.133279	1.289240
H93	H	1.720167	-0.211019	1.289154
H94	H	1.713363	-0.138587	1.179786
H95	H	1.543135	-0.266235	1.235359
H96	H	1.536469	-0.193746	1.126051
H97	H	0.919312	-0.289291	0.384010
O98	O	1.318967	-0.799746	0.306257
C99	C	1.259356	-0.672575	0.246805
C100	C	1.333216	-0.718019	0.320701
H101	H	1.270835	-0.606491	0.258473
H102	H	1.277842	-0.688755	0.162058
H103	H	1.174649	-0.688845	0.265229
H104	H	1.417948	-0.701774	0.302372
H105	H	1.314640	-0.701836	0.405426
O106	O	1.718139	-0.799945	0.705590
C107	C	1.851348	-0.808642	0.838921
C108	C	1.777417	-0.854015	0.764992
H109	H	1.899278	-0.852338	0.886982
H110	H	1.906361	-0.770035	0.790744
H111	H	1.803073	-0.769955	0.893820
H112	H	1.825607	-0.892746	0.710078
H113	H	1.722401	-0.892573	0.813234
H114	H	1.640320	-0.289183	0.905979
H115	H	1.396503	-0.472500	1.105066
O116	O	1.385712	-0.480419	0.897532
C117	C	1.252400	-0.580652	0.909112
C118	C	1.326428	-0.525099	0.969409
H119	H	1.204465	-0.616802	0.967198
H120	H	1.197395	-0.544354	0.857853
H121	H	1.300597	-0.621967	0.857633
H122	H	1.278316	-0.483773	1.020945
H123	H	1.381436	-0.561446	1.020602
