data_functionalizedCrystal
_audit_creation_method	'MofGen! by Chris Wilmer'
_symmetry_space_group_name_H-M	'P1'
_symmetry_Int_Tables_number	1
_symmetry_cell_setting	triclinic
loop_
_symmetry_equiv_pos_as_xyz
  x,y,z
_cell_length_a	16.120490
_cell_length_b	13.031981
_cell_length_c	16.120256
_cell_angle_alpha	94.686373
_cell_angle_beta	89.870193
_cell_angle_gamma	93.935019
loop_
_atom_site_label
_atom_site_type_symbol
_atom_site_fract_x
_atom_site_fract_y
_atom_site_fract_z
Zn1	Zn	1.197361	-0.522910	0.478982
Zn2	Zn	1.447361	-0.272910	0.728982
Zn3	Zn	1.697361	-0.022910	0.978982
Zn4	Zn	1.947361	0.227090	1.228982
Zn5	Zn	1.188577	-0.687181	0.322471
Zn6	Zn	1.438577	-0.437181	0.572471
Zn7	Zn	1.688577	-0.187181	0.822471
Zn8	Zn	1.938577	0.062819	1.072471
Zn9	Zn	1.067022	-0.505458	0.334756
Zn10	Zn	1.317022	-0.255458	0.584756
Zn11	Zn	1.567022	-0.005458	0.834756
Zn12	Zn	1.817022	0.244542	1.084756
Zn13	Zn	1.042624	-0.686226	0.454545
Zn14	Zn	1.292624	-0.436226	0.704545
Zn15	Zn	1.542624	-0.186226	0.954545
Zn16	Zn	1.792624	0.063774	1.204545
O17	O	1.123896	-0.600444	0.397688
O18	O	1.373896	-0.350444	0.647688
O19	O	1.623896	-0.100444	0.897688
O20	O	1.873896	0.149556	1.147688
O21	O	1.311825	-0.552404	0.463305
O22	O	1.561825	-0.302404	0.713305
O23	O	1.811825	-0.052404	0.963305
O24	O	2.061825	0.197596	1.213305
O25	O	1.178987	-0.656171	0.208468
O26	O	1.428987	-0.406171	0.458468
O27	O	1.678987	-0.156171	0.708468
O28	O	1.928987	0.093829	0.958468
O29	O	1.098198	-0.363372	0.369256
O30	O	1.348198	-0.113372	0.619256
O31	O	1.598198	0.136628	0.869256
O32	O	1.848198	0.386628	1.119256
O33	O	1.305371	-0.673094	0.348317
O34	O	1.555371	-0.423094	0.598317
O35	O	1.805371	-0.173094	0.848317
O36	O	2.055371	0.076906	1.098317
O37	O	1.193957	-0.376194	0.475218
O38	O	1.443957	-0.126194	0.725218
O39	O	1.693957	0.123806	0.975218
O40	O	1.943957	0.373806	1.225218
O41	O	1.089681	-0.522660	0.217494
O42	O	1.339681	-0.272660	0.467494
O43	O	1.589681	-0.022660	0.717494
O44	O	1.839681	0.227340	0.967494
O45	O	0.948157	-0.521733	0.345562
O46	O	1.198157	-0.271733	0.595562
O47	O	1.448157	-0.021733	0.845562
O48	O	1.698157	0.228267	1.095562
O49	O	1.056616	-0.671466	0.573419
O50	O	1.306616	-0.421466	0.823419
O51	O	1.556616	-0.171466	1.073419
O52	O	1.806616	0.078534	1.323419
O53	O	0.930232	-0.654543	0.433570
O54	O	1.180232	-0.404543	0.683570
O55	O	1.430232	-0.154543	0.933570
O56	O	1.680232	0.095457	1.183570
O57	O	1.170300	-0.551478	0.591373
O58	O	1.420300	-0.301478	0.841373
O59	O	1.670300	-0.051478	1.091373
O60	O	1.920300	0.198522	1.341373
O61	O	1.155330	-0.831455	0.324622
O62	O	1.405330	-0.581455	0.574622
O63	O	1.655330	-0.331455	0.824622
O64	O	1.905330	-0.081455	1.074622
O65	O	1.048099	-0.830753	0.421657
O66	O	1.298099	-0.580753	0.671657
O67	O	1.548099	-0.330753	0.921657
O68	O	1.798099	-0.080753	1.171657
C69	C	1.098135	-0.868548	0.369174
C70	C	1.348135	-0.618548	0.619174
C71	C	1.598135	-0.368548	0.869174
C72	C	1.848135	-0.118548	1.119174
C73	C	1.087188	-0.983251	0.357006
C74	C	1.337188	-0.733251	0.607006
C75	C	1.587188	-0.483251	0.857006
C76	C	1.837188	-0.233251	1.107006
C77	C	0.909213	-0.586142	0.388248
C78	C	1.159213	-0.336142	0.638248
C79	C	1.409213	-0.086142	0.888248
C80	C	1.659213	0.163858	1.138248
C81	C	0.817367	-0.580049	0.384226
C82	C	1.067367	-0.330049	0.634226
C83	C	1.317367	-0.080049	0.884226
C84	C	1.567367	0.169951	1.134226
C85	C	1.129652	-1.040651	0.404057
C86	C	1.379652	-0.790651	0.654057
C87	C	1.629652	-0.540651	0.904057
C88	C	1.879652	-0.290651	1.154057
C89	C	1.118339	-1.159202	0.391483
C90	C	1.368339	-0.909202	0.641483
C91	C	1.618339	-0.659202	0.891483
C92	C	1.868339	-0.409202	1.141483
C93	C	0.599425	-0.632038	0.418552
C94	C	0.849425	-0.382038	0.668552
C95	C	1.099425	-0.132038	0.918552
C96	C	1.349425	0.117962	1.168552
C97	C	0.649206	-0.568935	0.376881
C98	C	0.899206	-0.318935	0.626881
C99	C	1.149206	-0.068935	0.876881
C100	C	1.399206	0.181065	1.126881
C101	C	0.742779	-0.575121	0.380969
C102	C	0.992779	-0.325121	0.630969
C103	C	1.242779	-0.075121	0.880969
C104	C	1.492779	0.174879	1.130969
C105	C	0.505843	-0.625854	0.414465
C106	C	0.755843	-0.375854	0.664465
C107	C	1.005843	-0.125854	0.914465
C108	C	1.255843	0.124146	1.164465
C109	C	1.339417	-0.614802	0.407166
C110	C	1.589417	-0.364802	0.657166
C111	C	1.839417	-0.114802	0.907166
C112	C	2.089417	0.135198	1.157166
C113	C	1.431260	-0.620921	0.411205
C114	C	1.681260	-0.370921	0.661205
C115	C	1.931260	-0.120921	0.911205
C116	C	2.181260	0.129079	1.161205
C117	C	1.111716	-0.613312	0.613217
C118	C	1.361716	-0.363312	0.863217
C119	C	1.611716	-0.113312	1.113217
C120	C	1.861716	0.136688	1.363217
C121	C	1.106526	-0.618796	0.705062
C122	C	1.356526	-0.368796	0.955062
C123	C	1.606526	-0.118796	1.205062
C124	C	1.856526	0.131204	1.455062
C125	C	1.149779	-0.331295	0.426333
C126	C	1.399779	-0.081295	0.676333
C127	C	1.649779	0.168705	0.926333
C128	C	1.899779	0.418705	1.176333
C129	C	1.160809	-0.216600	0.438540
C130	C	1.410809	0.033400	0.688540
C131	C	1.660809	0.283400	0.938540
C132	C	1.910809	0.533400	1.188540
C133	C	1.136083	-0.587554	0.183009
C134	C	1.386083	-0.337554	0.433009
C135	C	1.636083	-0.087554	0.683009
C136	C	1.886083	0.162446	0.933009
C137	C	1.141462	-0.581790	0.091202
C138	C	1.391462	-0.331790	0.341202
C139	C	1.641462	-0.081790	0.591202
C140	C	1.891462	0.168210	0.841202
C141	C	1.150964	-0.571820	0.923036
C142	C	1.400964	-0.321820	1.173036
C143	C	1.650964	-0.071820	1.423036
C144	C	1.900964	0.178180	1.673036
C145	C	1.097026	-0.628763	0.873223
C146	C	1.347026	-0.378763	1.123223
C147	C	1.597026	-0.128763	1.373223
C148	C	1.847026	0.121237	1.623223
C149	C	1.102313	-0.623216	0.779650
C150	C	1.352313	-0.373216	1.029650
C151	C	1.602313	-0.123216	1.279650
C152	C	1.852313	0.126784	1.529650
C153	C	1.145678	-0.577366	1.016618
C154	C	1.395678	-0.327366	1.266618
C155	C	1.645678	-0.077366	1.516618
C156	C	1.895678	0.172634	1.766618
H157	H	1.174379	-1.002028	0.453652
H158	H	1.424379	-0.752028	0.703652
H159	H	1.674379	-0.502028	0.953652
H160	H	1.924379	-0.252028	1.203652
Br161	Br	1.043772	-1.223564	0.308826
Br162	Br	1.293772	-0.973564	0.558826
Br163	Br	1.543772	-0.723564	0.808826
Br164	Br	1.793772	-0.473564	1.058826
H165	H	1.046873	-0.681674	0.900854
H166	H	1.296873	-0.431674	1.150854
H167	H	1.546873	-0.181674	1.400854
H168	H	1.796873	0.068326	1.650854
H169	H	1.205539	-1.177980	0.488138
H170	H	1.455539	-0.927980	0.738138
H171	H	1.705539	-0.677980	0.988138
H172	H	1.955539	-0.427980	1.238138
Br173	Br	1.234533	-0.483608	0.876987
Br174	Br	1.484533	-0.233608	1.126987
Br175	Br	1.734533	0.016392	1.376987
Br176	Br	1.984533	0.266392	1.626987
H177	H	1.042454	-1.021876	0.307419
H178	H	1.292454	-0.771876	0.557419
H179	H	1.542454	-0.521876	0.807419
H180	H	1.792454	-0.271876	1.057419
Br181	Br	0.603116	-0.471151	0.312298
Br182	Br	0.853116	-0.221151	0.562298
Br183	Br	1.103116	0.028849	0.812298
Br184	Br	1.353116	0.278849	1.062298
H185	H	0.627080	-0.690704	0.457295
H186	H	0.877080	-0.440704	0.707295
H187	H	1.127080	-0.190704	0.957295
H188	H	1.377080	0.059296	1.207295
