data_functionalizedCrystal
_audit_creation_method	'MofGen! by Chris Wilmer'
_symmetry_space_group_name_H-M	'P1'
_symmetry_Int_Tables_number	1
_symmetry_cell_setting	triclinic
loop_
_symmetry_equiv_pos_as_xyz
  x,y,z
_cell_length_a	21.395362
_cell_length_b	14.908520
_cell_length_c	21.395355
_cell_angle_alpha	93.280325
_cell_angle_beta	89.956060
_cell_angle_gamma	93.337688
loop_
_atom_site_label
_atom_site_type_symbol
_atom_site_fract_x
_atom_site_fract_y
_atom_site_fract_z
Zn1	Zn	0.943513	-0.358891	-0.368965
Zn2	Zn	1.276847	-0.025558	-0.035632
Zn3	Zn	1.610180	0.307775	0.297702
Zn4	Zn	0.937386	-0.509736	-0.270231
Zn5	Zn	1.270719	-0.176403	0.063102
Zn6	Zn	1.604053	0.156930	0.396435
Zn7	Zn	0.838727	-0.358933	-0.264168
Zn8	Zn	1.172060	-0.025600	0.069165
Zn9	Zn	1.505393	0.307733	0.402499
Zn10	Zn	0.832667	-0.509755	-0.374937
Zn11	Zn	1.166000	-0.176422	-0.041603
Zn12	Zn	1.499334	0.156912	0.291730
O13	O	0.888073	-0.434329	-0.319575
O14	O	1.221407	-0.100996	0.013758
O15	O	1.554740	0.232338	0.347091
O16	O	1.030380	-0.378876	-0.355906
O17	O	1.363713	-0.045543	-0.022573
O18	O	1.697046	0.287791	0.310761
O19	O	0.924270	-0.489742	-0.181749
O20	O	1.257604	-0.156409	0.151584
O21	O	1.590937	0.176925	0.484917
O22	O	0.857727	-0.232679	-0.273033
O23	O	1.191060	0.100654	0.060301
O24	O	1.524394	0.433987	0.393634
O25	O	1.025878	-0.489701	-0.283367
O26	O	1.359211	-0.156368	0.049966
O27	O	1.692544	0.176966	0.383300
O28	O	0.934713	-0.232649	-0.350027
O29	O	1.268047	0.100685	-0.016693
O30	O	1.601380	0.434018	0.316640
O31	O	0.851786	-0.378948	-0.177295
O32	O	1.185119	-0.045614	0.156039
O33	O	1.518452	0.287719	0.489372
O34	O	0.750244	-0.378966	-0.278823
O35	O	1.083577	-0.045632	0.054510
O36	O	1.416911	0.287701	0.387843
O37	O	0.847399	-0.489733	-0.461822
O38	O	1.180733	-0.156399	-0.128489
O39	O	1.514066	0.176934	0.204845
O40	O	0.745792	-0.489773	-0.360205
O41	O	1.079125	-0.156440	-0.026871
O42	O	1.412459	0.176893	0.306462
O43	O	0.928838	-0.378894	-0.457435
O44	O	1.262171	-0.045561	-0.124101
O45	O	1.595504	0.287773	0.209232
O46	O	0.918395	-0.635987	-0.289157
O47	O	1.251728	-0.302654	0.044176
O48	O	1.585061	0.030679	0.377509
O49	O	0.841458	-0.636001	-0.366084
O50	O	1.174791	-0.302668	-0.032751
O51	O	1.508125	0.030666	0.300583
C52	C	0.725284	-0.434377	-0.319504
C53	C	1.058617	-0.101043	0.013829
C54	C	1.391950	0.232290	0.347162
C55	C	0.655641	-0.434419	-0.319490
C56	C	0.988974	-0.101086	0.013843
C57	C	1.322307	0.232248	0.347177
C58	C	0.878621	-0.668729	-0.328940
C59	C	1.211954	-0.335396	0.004393
C60	C	1.545287	-0.002062	0.337726
C61	C	0.874634	-0.769006	-0.332968
C62	C	1.207968	-0.435673	0.000366
C63	C	1.541301	-0.102339	0.333699
C64	C	0.620623	-0.492193	-0.361808
C65	C	0.953956	-0.158860	-0.028475
C66	C	1.287289	0.174474	0.304858
C67	C	0.555188	-0.492171	-0.361835
C68	C	0.888522	-0.158838	-0.028502
C69	C	1.221855	0.174496	0.304831
C70	C	0.524774	-0.434384	-0.319533
C71	C	0.858107	-0.101051	0.013800
C72	C	1.191440	0.232283	0.347134
C73	C	0.559800	-0.376599	-0.277212
C74	C	0.893133	-0.043265	0.056122
C75	C	1.226467	0.290068	0.389455
C76	C	0.625234	-0.376616	-0.277190
C77	C	0.958567	-0.043283	0.056143
C78	C	1.291900	0.290050	0.389477
C79	C	0.421340	-0.427116	-0.262837
C80	C	0.754673	-0.093783	0.070497
C81	C	1.088006	0.239550	0.403830
C82	C	0.355907	-0.427105	-0.262858
C83	C	0.689240	-0.093772	0.070476
C84	C	1.022574	0.239561	0.403809
C85	C	0.322956	-0.434325	-0.319600
C86	C	0.656289	-0.100992	0.013733
C87	C	0.989622	0.232341	0.347067
C88	C	0.355444	-0.441575	-0.376324
C89	C	0.688777	-0.108242	-0.042991
C90	C	1.022110	0.225091	0.290343
C91	C	0.420877	-0.441593	-0.376302
C92	C	0.754210	-0.108259	-0.042969
C93	C	1.087544	0.225074	0.290364
C94	C	0.453823	-0.434358	-0.319552
C95	C	0.787156	-0.101025	0.013781
C96	C	1.120489	0.232308	0.347115
C97	C	0.216986	-0.492079	-0.361951
C98	C	0.550319	-0.158745	-0.028618
C99	C	0.883653	0.174588	0.304716
C100	C	0.151550	-0.492050	-0.361979
C101	C	0.484884	-0.158717	-0.028646
C102	C	0.818217	0.174617	0.304688
C103	C	0.156163	-0.376483	-0.277350
C104	C	0.489497	-0.043149	0.055983
C105	C	0.822830	0.290184	0.389317
C106	C	0.221598	-0.376506	-0.277327
C107	C	0.554931	-0.043173	0.056006
C108	C	0.888264	0.290160	0.389339
C109	C	0.252005	-0.434309	-0.319627
C110	C	0.585338	-0.100976	0.013706
C111	C	0.918672	0.232358	0.347039
C112	C	0.947340	-0.957362	-0.260497
C113	C	1.280673	-0.624029	0.072837
C114	C	1.614007	-0.290696	0.406170
C115	C	0.943596	-1.051582	-0.264279
C116	C	1.276930	-0.718248	0.069055
C117	C	1.610263	-0.384915	0.402388
C118	C	0.863407	-1.051666	-0.344317
C119	C	1.196741	-0.718332	-0.010983
C120	C	1.530074	-0.384999	0.322350
C121	C	0.867151	-0.957446	-0.340535
C122	C	1.200484	-0.624113	-0.007201
C123	C	1.533817	-0.290780	0.326132
C124	C	0.909118	-0.910298	-0.298623
C125	C	1.242451	-0.576965	0.034711
C126	C	1.575785	-0.243631	0.368044
C127	C	0.912858	-0.816077	-0.294838
C128	C	1.246191	-0.482744	0.038496
C129	C	1.579524	-0.149410	0.371829
C130	C	0.832672	-0.816163	-0.374879
C131	C	1.166006	-0.482830	-0.041545
C132	C	1.499339	-0.149496	0.291788
C133	C	0.828929	-0.910382	-0.378661
C134	C	1.162262	-0.577049	-0.045327
C135	C	1.495595	-0.243716	0.288006
C136	C	1.051498	-0.434282	-0.319647
C137	C	1.384832	-0.100948	0.013687
C138	C	1.718165	0.232385	0.347020
C139	C	1.121141	-0.434262	-0.319677
C140	C	1.454474	-0.100928	0.013656
C141	C	1.787807	0.232405	0.346990
C142	C	0.888126	-0.434311	-0.482998
C143	C	1.221459	-0.100977	-0.149665
C144	C	1.554793	0.232356	0.183669
C145	C	0.888148	-0.434303	-0.552639
C146	C	1.221482	-0.100970	-0.219306
C147	C	1.554815	0.232364	0.114028
C148	C	0.897580	-0.199014	-0.310187
C149	C	1.230913	0.134319	0.023146
C150	C	1.564246	0.467653	0.356479
C151	C	0.901631	-0.098737	-0.306187
C152	C	1.234964	0.234597	0.027147
C153	C	1.568297	0.567930	0.360480
C154	C	0.930552	-0.376587	-0.583068
C155	C	1.263885	-0.043253	-0.249735
C156	C	1.597218	0.290080	0.083598
C157	C	0.930553	-0.376548	-0.648502
C158	C	1.263886	-0.043215	-0.315169
C159	C	1.597219	0.290119	0.018164
C160	C	0.888156	-0.434242	-0.683505
C161	C	1.221489	-0.100908	-0.350171
C162	C	1.554822	0.232425	-0.016838
C163	C	0.845745	-0.491962	-0.653068
C164	C	1.179078	-0.158628	-0.319734
C165	C	1.512411	0.174705	0.013599
C166	C	0.845741	-0.491992	-0.587635
C167	C	1.179074	-0.158659	-0.254301
C168	C	1.512408	0.174674	0.079032
C169	C	0.879933	-0.515477	-0.790423
C170	C	1.213266	-0.182143	-0.457090
C171	C	1.546599	0.151190	-0.123757
C172	C	0.879941	-0.515447	-0.855855
C173	C	1.213274	-0.182114	-0.522522
C174	C	1.546607	0.151219	-0.189189
C175	C	0.888164	-0.434146	-0.885322
C176	C	1.221497	-0.100813	-0.551988
C177	C	1.554830	0.232520	-0.218655
C178	C	0.896392	-0.352872	-0.849348
C179	C	1.229725	-0.019538	-0.516015
C180	C	1.563058	0.313795	-0.182682
C181	C	0.896388	-0.352902	-0.783915
C182	C	1.229721	-0.019569	-0.450582
C183	C	1.563055	0.313764	-0.117249
C184	C	0.888155	-0.434214	-0.754456
C185	C	1.221488	-0.100881	-0.421123
C186	C	1.554821	0.232452	-0.087789
C187	C	0.930570	-0.376383	-0.986702
C188	C	1.263903	-0.043050	-0.653369
C189	C	1.597237	0.290284	-0.320035
C190	C	0.930566	-0.376343	-1.052137
C191	C	1.263900	-0.043009	-0.718804
C192	C	1.597233	0.290324	-0.385470
C193	C	0.845761	-0.491764	-1.056701
C194	C	1.179095	-0.158431	-0.723368
C195	C	1.512428	0.174902	-0.390035
C196	C	0.845762	-0.491797	-0.991267
C197	C	1.179095	-0.158463	-0.657934
C198	C	1.512429	0.174870	-0.324601
C199	C	0.888170	-0.434107	-0.956272
C200	C	1.221503	-0.100774	-0.622938
C201	C	1.554836	0.232559	-0.289605
C202	C	0.888059	-0.434282	-0.156786
C203	C	1.221393	-0.100949	0.176548
C204	C	1.554726	0.232385	0.509881
C205	C	0.888169	-0.434036	-0.087135
C206	C	1.221502	-0.100702	0.246198
C207	C	1.554835	0.232631	0.579532
H208	H	0.645376	-0.539259	-0.396253
H209	H	0.978709	-0.205926	-0.062920
H210	H	1.312043	0.127407	0.270414
H211	H	0.965081	-0.329544	-0.673283
H212	H	1.298415	0.003790	-0.339949
H213	H	1.631748	0.337123	-0.006616
F214	F	0.456403	-0.419433	-0.202439
F215	F	0.789736	-0.086100	0.130894
F216	F	1.123069	0.247233	0.464227
F217	F	0.975707	-0.314920	-1.084522
F218	F	1.309040	0.018413	-0.751189
F219	F	1.642374	0.351746	-0.417856
F220	F	0.784269	-0.960571	-0.423266
F221	F	1.117603	-0.627237	-0.089933
F222	F	1.450936	-0.293904	0.243401
H223	H	0.328616	-0.447453	-0.422529
H224	H	0.661949	-0.114120	-0.089196
H225	H	0.995283	0.219214	0.244137
F226	F	0.791984	-0.766067	-0.415451
F227	F	1.125318	-0.432734	-0.082118
F228	F	1.458651	-0.099400	0.251216
F229	F	0.258868	-0.315017	-0.232284
F230	F	0.592201	0.018317	0.101049
F231	F	0.925535	0.351650	0.434382
F232	F	0.975684	-0.315184	-0.545827
F233	F	1.309017	0.018149	-0.212494
F234	F	1.642350	0.351482	0.120840
F235	F	0.517912	-0.553664	-0.406878
F236	F	0.851246	-0.220331	-0.073545
F237	F	1.184579	0.113002	0.259788
H238	H	0.811235	-0.538731	-1.085199
H239	H	1.144568	-0.205397	-0.751866
H240	H	1.477902	0.127936	-0.418533
H241	H	0.811236	-0.538801	-0.966492
H242	H	1.144569	-0.205468	-0.633158
H243	H	1.477903	0.127866	-0.299825
H244	H	0.903086	-0.286726	-0.754629
H245	H	1.236419	0.046607	-0.421295
H246	H	1.569753	0.379941	-0.087962
F247	F	0.527430	-0.315095	-0.232193
F248	F	0.860764	0.018239	0.101140
F249	F	1.194097	0.351572	0.434474
H250	H	0.903089	-0.286669	-0.873338
H251	H	1.236422	0.046665	-0.540005
H252	H	1.569755	0.379998	-0.206672
F253	F	0.871189	-0.601946	-0.894135
F254	F	1.204522	-0.268613	-0.560801
F255	F	1.537856	0.064720	-0.227468
F256	F	0.975701	-0.314982	-0.949455
F257	F	1.309034	0.018351	-0.616121
F258	F	1.642367	0.351684	-0.282788
F259	F	0.871194	-0.602016	-0.759070
F260	F	1.204528	-0.268683	-0.425736
F261	F	1.537861	0.064650	-0.092403
F262	F	0.662504	-0.315122	-0.232147
F263	F	0.995837	0.018211	0.101186
F264	F	1.329170	0.351545	0.434519
F265	F	0.800621	-0.553360	-0.690320
F266	F	1.133955	-0.220027	-0.356987
F267	F	1.467288	0.113306	-0.023654
H268	H	0.241745	-0.539140	-0.396397
H269	H	0.575078	-0.205807	-0.063064
H270	H	0.908412	0.127526	0.270269
F271	F	0.957520	-0.765899	-0.250229
F272	F	1.290853	-0.432566	0.083104
F273	F	1.624186	-0.099233	0.416437
F274	F	0.321337	-0.419389	-0.202488
F275	F	0.654670	-0.086056	0.130846
F276	F	0.988004	0.247277	0.464179
H277	H	0.447326	-0.447493	-0.422489
H278	H	0.780660	-0.114160	-0.089156
H279	H	1.113993	0.219173	0.244178
H280	H	0.981507	-0.918973	-0.226366
H281	H	1.314840	-0.585640	0.106968
H282	H	1.648173	-0.252307	0.440301
H283	H	0.811208	-0.538991	-0.562859
H284	H	1.144541	-0.205657	-0.229526
H285	H	1.477875	0.127676	0.103807
H286	H	0.123040	-0.539095	-0.396443
H287	H	0.456373	-0.205762	-0.063110
H288	H	0.789706	0.127572	0.270223
F289	F	0.818754	-1.101860	-0.388926
F290	F	1.152087	-0.768526	-0.055593
F291	F	1.485421	-0.435193	0.277741
F292	F	0.123799	-0.314976	-0.232331
F293	F	0.457132	0.018357	0.101002
F294	F	0.790465	0.351690	0.434335
F295	F	0.984279	-1.101668	-0.223701
F296	F	1.317612	-0.768334	0.109632
F297	F	1.650945	-0.435001	0.442966
