data_functionalizedCrystal
_audit_creation_method	'MofGen! by Chris Wilmer'
_symmetry_space_group_name_H-M	'P1'
_symmetry_Int_Tables_number	1
_symmetry_cell_setting	triclinic
loop_
_symmetry_equiv_pos_as_xyz
  x,y,z
_cell_length_a	9.065218
_cell_length_b	9.065215
_cell_length_c	9.730223
_cell_angle_alpha	89.996553
_cell_angle_beta	89.996641
_cell_angle_gamma	85.015291
loop_
_atom_site_label
_atom_site_type_symbol
_atom_site_fract_x
_atom_site_fract_y
_atom_site_fract_z
O1	O	1.960397	0.216357	-0.114290
O2	O	1.531112	0.234103	-0.114292
O3	O	1.754630	0.010587	-0.114285
O4	O	1.736879	0.439873	-0.114297
O5	O	1.754615	0.010581	0.114295
O6	O	1.531097	0.234097	0.114288
O7	O	1.960382	0.216350	0.114290
Zn8	Zn	1.745737	0.225223	0.150581
Zn9	Zn	1.745757	0.225231	-0.150583
O10	O	1.736864	0.439866	0.114283
C11	C	1.476118	0.232394	-0.000002
C12	C	1.312275	0.227295	-0.000003
C13	C	1.752917	-0.044403	0.000003
C14	C	1.747819	-0.208246	-0.000001
C15	C	2.015376	0.218059	-0.000003
C16	C	2.179219	0.223159	-0.000012
C17	C	1.738576	0.494856	-0.000009
C18	C	1.743674	0.658699	-0.000014
N19	N	1.745735	0.225216	0.356117
N20	N	1.745770	0.225226	-0.356120
C21	C	1.844743	0.126286	0.428046
C22	C	1.844758	0.126286	0.571929
C23	C	1.646752	0.324161	0.571941
C24	C	1.646731	0.324152	0.428061
H25	H	1.925377	0.045727	0.630490
H26	H	1.566099	0.404713	0.369493
O27	O	1.550651	0.420471	0.641676
C28	C	1.576589	0.566876	0.606517
H29	H	1.633450	0.567481	0.502042
H30	H	1.650645	0.613545	0.687477
C31	C	1.358236	0.662198	0.728196
C32	C	1.428062	0.662943	0.599872
H33	H	1.266620	0.721460	0.724102
H34	H	1.340763	0.563563	0.751888
H35	H	1.419965	0.701086	0.795649
H36	H	1.366342	0.624039	0.532425
H37	H	1.445521	0.761574	0.576169
H38	H	1.925356	0.045724	0.369473
