data_functionalizedCrystal
_audit_creation_method	'MofGen! by Chris Wilmer'
_symmetry_space_group_name_H-M	'P1'
_symmetry_Int_Tables_number	1
_symmetry_cell_setting	triclinic
loop_
_symmetry_equiv_pos_as_xyz
  x,y,z
_cell_length_a	19.121308
_cell_length_b	18.215404
_cell_length_c	18.215399
_cell_angle_alpha	90.027515
_cell_angle_beta	87.580143
_cell_angle_gamma	87.587527
loop_
_atom_site_label
_atom_site_type_symbol
_atom_site_fract_x
_atom_site_fract_y
_atom_site_fract_z
Zn1	Zn	-1.073686	0.340925	-0.368118
Zn2	Zn	-0.573686	0.840925	0.131882
Zn3	Zn	-1.073601	0.463993	-0.245056
Zn4	Zn	-0.573601	0.963993	0.254944
Zn5	Zn	-0.956240	0.335705	-0.250316
Zn6	Zn	-0.456240	0.835705	0.249684
Zn7	Zn	-0.956209	0.458710	-0.373329
Zn8	Zn	-0.456209	0.958710	0.126671
O9	O	-1.014934	0.399833	-0.309205
O10	O	-0.514934	0.899833	0.190795
O11	O	-1.171955	0.361646	-0.347412
O12	O	-0.671955	0.861646	0.152588
O13	O	-1.058009	0.447001	-0.142771
O14	O	-0.558009	0.947001	0.357229
O15	O	-0.971868	0.233415	-0.265963
O16	O	-0.471868	0.733415	0.234037
O17	O	-1.171892	0.452063	-0.256999
O18	O	-0.671892	0.952063	0.243001
O19	O	-1.058155	0.237251	-0.352511
O20	O	-0.558155	0.737251	0.147489
O21	O	-0.971785	0.352749	-0.146635
O22	O	-0.471785	0.852749	0.353365
O23	O	-0.857956	0.347626	-0.271016
O24	O	-0.357956	0.847626	0.228984
O25	O	-0.971816	0.443059	-0.475621
O26	O	-0.471816	0.943059	0.024379
O27	O	-0.857933	0.437998	-0.361394
O28	O	-0.357933	0.937998	0.138606
O29	O	-1.058125	0.356523	-0.471793
O30	O	-0.558125	0.856523	0.028207
O31	O	-1.057980	0.566274	-0.262052
O32	O	-0.557980	1.066274	0.237948
O33	O	-0.971733	0.562393	-0.356294
O34	O	-0.471733	1.062393	0.143706
C35	C	-0.832462	0.391673	-0.317341
C36	C	-0.332462	0.891673	0.182659
C37	C	-0.754399	0.388200	-0.320840
C38	C	-0.254399	0.888200	0.179160
C39	C	-0.312895	0.366139	-0.343025
C40	C	0.187105	0.866139	0.156975
C41	C	-0.386243	0.369417	-0.339734
C42	C	0.113757	0.869417	0.160266
C43	C	-0.422876	0.418053	-0.290939
C44	C	0.077124	0.918053	0.209061
C45	C	-0.386156	0.463421	-0.245437
C46	C	0.113844	0.963421	0.254563
C47	C	-0.312810	0.460147	-0.248733
C48	C	0.187190	0.960147	0.251267
C49	C	-0.644333	0.430293	-0.278634
C50	C	-0.144333	0.930293	0.221366
C51	C	-0.717685	0.433562	-0.275340
C52	C	-0.217685	0.933562	0.224660
C53	C	-0.717767	0.339559	-0.369638
C54	C	-0.217767	0.839559	0.130362
C55	C	-0.644419	0.336286	-0.372926
C56	C	-0.144419	0.836286	0.127074
C57	C	-0.607706	0.381656	-0.327427
C58	C	-0.107706	0.881656	0.172573
C59	C	-0.497849	0.421402	-0.287572
C60	C	0.002151	0.921402	0.212428
C61	C	-0.532734	0.378310	-0.330798
C62	C	-0.032734	0.878310	0.169202
C63	C	-0.198119	0.408022	-0.301029
C64	C	0.301881	0.908022	0.198971
C65	C	-0.276181	0.411502	-0.297525
C66	C	0.223819	0.911502	0.202475
C67	C	-1.014863	0.591036	-0.309183
C68	C	-0.514863	1.091036	0.190817
C69	C	-1.014897	0.672837	-0.309195
C70	C	-0.514897	1.172837	0.190805
C71	C	-1.014977	0.399784	-0.501156
C72	C	-0.514977	0.899784	-0.001156
C73	C	-1.014995	0.399764	-0.582954
C74	C	-0.514995	0.899764	-0.082954
C75	C	-1.059915	0.863032	-0.260215
C76	C	-0.559915	1.363032	0.239785
C77	C	-1.059947	0.939892	-0.260236
C78	C	-0.559947	1.439892	0.239764
C79	C	-0.970061	0.935887	-0.358296
C80	C	-0.470061	1.435887	0.141704
C81	C	-0.970032	0.859029	-0.358278
C82	C	-0.470032	1.359029	0.141722
C83	C	-1.014958	0.822603	-0.309234
C84	C	-0.514958	1.322603	0.190766
C85	C	-1.015019	0.976322	-0.309272
C86	C	-0.515019	1.476322	0.190728
C87	C	-1.015055	1.059657	-0.309294
C88	C	-0.515055	1.559657	0.190706
C89	C	-1.014924	0.739262	-0.309212
C90	C	-0.514924	1.239262	0.190788
C91	C	-1.015029	1.207884	-0.309256
C92	C	-0.515029	1.707884	0.190744
C93	C	-1.015080	1.126088	-0.309311
C94	C	-0.515080	1.626088	0.190689
C95	C	-1.059952	0.354661	-0.769155
C96	C	-0.559952	0.854661	-0.269155
C97	C	-1.059961	0.354640	-0.846013
C98	C	-0.559961	0.854640	-0.346013
C99	C	-0.970087	0.444755	-0.849989
C100	C	-0.470087	0.944755	-0.349989
C101	C	-0.970076	0.444771	-0.773132
C102	C	-0.470076	0.944771	-0.273132
C103	C	-1.015012	0.399726	-0.732717
C104	C	-0.515012	0.899726	-0.232717
C105	C	-1.015032	0.399688	-0.886432
C106	C	-0.515032	0.899688	-0.386432
C107	C	-1.015041	0.399665	-0.969766
C108	C	-0.515041	0.899665	-0.469766
C109	C	-1.015003	0.399747	-0.649378
C110	C	-0.515003	0.899747	-0.149378
C111	C	-1.014932	0.399831	-0.117999
C112	C	-0.514932	0.899831	0.382001
C113	C	-1.015050	0.399650	-0.036195
C114	C	-0.515050	0.899650	0.463805
H115	H	-0.416133	0.332480	-0.376787
H116	H	0.083867	0.832480	0.123213
H117	H	-0.933423	0.826109	-0.398199
H118	H	-0.433423	1.326109	0.101801
F119	F	-0.922268	0.492695	-0.893008
F120	F	-0.422268	0.992695	-0.393008
F121	F	-1.107776	0.306718	-0.726145
F122	F	-0.607776	0.806718	-0.226145
H123	H	-0.933483	0.965554	-0.398225
H124	H	-0.433483	1.465554	0.101775
F125	F	-1.107797	0.306681	-0.884790
F126	F	-0.607797	0.806681	-0.384790
F127	F	-1.107798	0.982917	-0.208065
F128	F	-0.607798	1.482917	0.291935
F129	F	-0.605437	0.284522	-0.424862
F130	F	-0.105437	0.784522	0.075138
F131	F	-0.756845	0.291278	-0.418060
F132	F	-0.256845	0.791278	0.081940
F133	F	-0.922239	0.492734	-0.734350
F134	F	-0.422239	0.992734	-0.234350
H135	H	-0.614450	0.467235	-0.241583
H136	H	-0.114450	0.967235	0.258417
H137	H	-0.747509	0.473171	-0.235604
H138	H	-0.247509	0.973171	0.264396
F139	F	-0.273915	0.314369	-0.394955
F140	F	0.226085	0.814369	0.105045
H141	H	-0.415988	0.503024	-0.205710
H142	H	0.084012	1.003024	0.294290
H143	H	-1.096497	0.833376	-0.220281
H144	H	-0.596497	1.333376	0.279719
F145	F	-0.273736	0.508433	-0.200310
F146	F	0.226264	1.008433	0.299690
F147	F	-0.536842	0.473162	-0.235640
F148	F	-0.036842	0.973162	0.264360
F149	F	-0.493746	0.326552	-0.382731
F150	F	0.006254	0.826552	0.117269
