data_functionalizedCrystal
_audit_creation_method	'MofGen! by Chris Wilmer'
_symmetry_space_group_name_H-M	'P1'
_symmetry_Int_Tables_number	1
_symmetry_cell_setting	triclinic
loop_
_symmetry_equiv_pos_as_xyz
  x,y,z
_cell_length_a	19.288864
_cell_length_b	15.995350
_cell_length_c	18.366186
_cell_angle_alpha	89.995992
_cell_angle_beta	89.977106
_cell_angle_gamma	83.314311
loop_
_atom_site_label
_atom_site_type_symbol
_atom_site_fract_x
_atom_site_fract_y
_atom_site_fract_z
O1	O	0.921624	0.104451	-0.060780
O2	O	0.719400	0.118542	-0.060729
O3	O	0.826040	-0.010412	-0.060755
O4	O	0.814984	0.233405	-0.060754
O5	O	0.826022	-0.010418	0.060344
O6	O	0.719382	0.118535	0.060370
O7	O	0.921606	0.104445	0.060320
Zn8	Zn	0.820491	0.111489	0.079572
Zn9	Zn	0.820515	0.111498	-0.079982
O10	O	0.814966	0.233399	0.060346
C11	C	0.693513	0.118085	-0.000173
C12	C	0.616406	0.116724	-0.000154
C13	C	0.825574	-0.041608	-0.000207
C14	C	0.824203	-0.134553	-0.000211
C15	C	0.571906	0.192388	-0.000165
C16	C	0.499456	0.191110	-0.000173
C17	C	0.471508	0.114163	-0.000185
C18	C	0.516018	0.038489	-0.000170
C19	C	0.588467	0.039769	-0.000155
C20	C	0.363096	0.053676	-0.042636
C21	C	0.290648	0.052398	-0.042656
C22	C	0.248053	0.110209	-0.000229
C23	C	0.277912	0.169312	0.042208
C24	C	0.350361	0.170593	0.042224
C25	C	0.392951	0.112765	-0.000201
C26	C	0.124993	0.184492	-0.000248
C27	C	0.052542	0.183210	-0.000251
C28	C	0.069106	0.030587	-0.000255
C29	C	0.141556	0.031871	-0.000244
C30	C	0.169495	0.108826	-0.000244
C31	C	0.819282	-0.472282	-0.000207
C32	C	0.743335	-0.424562	-0.000460
C33	C	0.744706	-0.327877	-0.000187
C34	C	0.821723	-0.304731	-0.000209
C35	C	0.859173	-0.345953	0.068934
C36	C	0.857265	-0.442582	0.068992
C37	C	0.858854	-0.442939	-0.068721
C38	C	0.858836	-0.345993	-0.069635
C39	C	0.823107	-0.210039	-0.000208
C40	C	0.817901	-0.566975	-0.000203
C41	C	0.947492	0.104902	-0.000238
C42	C	1.024600	0.106263	-0.000262
C43	C	0.815432	0.264595	-0.000204
C44	C	0.816802	0.357540	-0.000206
N45	N	0.820480	0.111483	0.188463
N46	N	0.820531	0.111497	-0.188873
C47	C	0.867715	0.054410	0.226552
C48	C	0.867720	0.054407	0.302780
C49	C	0.820495	0.111490	0.340916
C50	C	0.773250	0.168567	0.302818
C51	C	0.773243	0.168564	0.226591
C52	C	0.811395	0.187781	0.461678
C53	C	0.811407	0.187785	0.537903
C54	C	0.820515	0.111500	0.576023
C55	C	0.829624	0.035208	0.537909
C56	C	0.829617	0.035204	0.461683
C57	C	0.820498	0.111500	0.423571
C58	C	0.867758	0.054419	0.696767
C59	C	0.867757	0.054414	0.772996
C60	C	0.773292	0.168582	0.773033
C61	C	0.773289	0.168579	0.696805
C62	C	0.820525	0.111499	0.658677
H63	H	0.463217	0.252727	-0.000180
C64	C	0.635496	-0.308392	0.063890
C65	C	0.704688	-0.290111	0.066863
H66	H	0.610794	-0.285083	0.105291
H67	H	0.613963	-0.284819	0.020890
H68	H	0.634808	-0.367677	0.063486
H69	H	0.705376	-0.230826	0.067262
H70	H	0.726227	-0.313682	0.109875
H71	H	0.734798	0.215044	0.333872
C72	C	0.931562	-0.573804	0.073321
C73	C	0.932533	-0.486407	0.073224
H74	H	0.978028	-0.600855	0.075934
H75	H	0.905838	-0.589517	0.114214
H76	H	0.910170	-0.590311	0.029873
H77	H	0.953920	-0.469899	0.116675
H78	H	0.958267	-0.470688	0.032327
C79	C	0.796795	-0.373622	-0.178701
C80	C	0.821932	-0.308997	-0.138693
H81	H	0.774009	-0.350775	-0.221332
H82	H	0.834672	-0.414045	-0.192085
H83	H	0.764646	-0.399865	-0.149821
H84	H	0.854085	-0.282758	-0.167572
H85	H	0.784050	-0.268559	-0.125311
C86	C	0.101346	0.335224	-0.000237
C87	C	0.155710	0.269078	-0.000236
H88	H	0.120310	0.387443	-0.000225
H89	H	0.073457	0.331555	-0.042469
H90	H	0.073411	0.331539	0.041991
H91	H	0.183643	0.272760	-0.042468
H92	H	0.183611	0.272748	0.042000
C93	C	0.854948	0.319815	0.438164
C94	C	0.801393	0.271638	0.419774
H95	H	0.848776	0.371578	0.412290
H96	H	0.853641	0.330739	0.489008
H97	H	0.898746	0.289802	0.425653
H98	H	0.757595	0.301647	0.432290
H99	H	0.802693	0.260716	0.368919
C100	C	0.962326	0.036028	0.611065
C101	C	0.919723	-0.008298	0.654881
H102	H	0.994424	-0.002684	0.585221
H103	H	0.934200	0.069985	0.577448
H104	H	0.987258	0.070836	0.640816
H105	H	0.894788	-0.043102	0.625130
H106	H	0.947853	-0.042269	0.688502
H107	H	0.829941	-0.460783	0.120694
C108	C	-0.038507	0.270304	-0.062524
C109	C	0.003623	0.266387	-0.000265
H110	H	-0.068709	0.321653	-0.062529
H111	H	-0.009876	0.267631	-0.104740
H112	H	-0.065515	0.224290	-0.062516
H113	H	0.030636	0.312398	-0.000275
H114	H	-0.025011	0.269069	0.041963
H115	H	0.906220	0.007934	0.804009
C116	C	0.961089	-0.058440	0.234179
C117	C	0.919630	-0.008341	0.184643
H118	H	0.993135	-0.097183	0.208303
H119	H	0.986074	-0.023659	0.263888
H120	H	0.932175	-0.088464	0.263932
H121	H	0.948544	0.021688	0.154893
H122	H	0.894644	-0.043125	0.154920
C123	C	0.732451	0.313641	0.203131
C124	C	0.721323	0.231309	0.184719
H125	H	0.700400	0.352377	0.177276
H126	H	0.725691	0.321804	0.253979
H127	H	0.778806	0.322580	0.190612
H128	H	0.674969	0.222367	0.197242
H129	H	0.728077	0.223142	0.133859
C130	C	0.678777	0.187045	0.858799
C131	C	0.721379	0.231328	0.814943
H132	H	0.646730	0.225783	0.884677
H133	H	0.653795	0.152275	0.829077
H134	H	0.706917	0.153055	0.892393
H135	H	0.693240	0.265314	0.781345
H136	H	0.746363	0.266113	0.844668
H137	H	0.397772	0.006598	-0.077190
H138	H	0.243232	0.216387	0.076757
C139	C	0.681796	-0.377723	-0.109354
C140	C	0.702364	-0.449421	-0.067395
H141	H	0.656507	-0.393077	-0.150682
H142	H	0.652973	-0.338026	-0.080945
H143	H	0.721963	-0.353451	-0.124904
H144	H	0.662197	-0.473690	-0.051841
H145	H	0.731188	-0.489132	-0.095810
H146	H	0.493259	-0.024162	-0.000189
H147	H	0.624700	-0.021848	-0.000146
H148	H	0.715267	-0.299341	-0.049751
H149	H	0.915001	-0.330843	-0.073826
C150	C	0.679923	0.281433	0.704500
C151	C	0.721372	0.231326	0.654933
H152	H	0.647873	0.320173	0.678648
H153	H	0.654944	0.246657	0.734245
H154	H	0.708844	0.311460	0.734215
H155	H	0.692452	0.201293	0.625221
H156	H	0.746354	0.266105	0.625175
C157	C	0.786063	-0.096828	0.438263
C158	C	0.839613	-0.048657	0.419796
H159	H	0.792229	-0.148600	0.412402
H160	H	0.787379	-0.107735	0.489110
H161	H	0.742262	-0.066820	0.425788
H162	H	0.883414	-0.078663	0.432276
H163	H	0.838304	-0.037752	0.368937
H164	H	0.594649	0.255051	-0.000166
C165	C	0.643601	-0.486817	0.042684
C166	C	0.702527	-0.450859	0.066123
H167	H	0.618414	-0.503058	0.083791
H168	H	0.614579	-0.446878	0.014722
H169	H	0.657852	-0.534912	0.013651
H170	H	0.688276	-0.402760	0.095152
H171	H	0.731555	-0.490801	0.094097
C172	C	0.736811	0.315829	0.561397
C173	C	0.801392	0.271645	0.579791
H174	H	0.730627	0.367600	0.587259
H175	H	0.735506	0.326739	0.510550
H176	H	0.700501	0.283117	0.573919
H177	H	0.837702	0.304355	0.567264
H178	H	0.802702	0.260739	0.630650
H179	H	0.915755	-0.332041	0.071489
H180	H	0.833147	-0.317476	0.120403
C181	C	0.934040	-0.573532	-0.072002
C182	C	0.934445	-0.486102	-0.069381
H183	H	0.980704	-0.600180	-0.072410
H184	H	0.910398	-0.591499	-0.030486
H185	H	0.910752	-0.588211	-0.114896
H186	H	0.957728	-0.471423	-0.026484
H187	H	0.958097	-0.468128	-0.110901
H188	H	0.834031	-0.463382	-0.121128
H189	H	0.906186	0.007929	0.333798
C190	C	0.904222	-0.092837	0.561358
C191	C	0.839645	-0.048649	0.579808
H192	H	0.910413	-0.144600	0.587232
H193	H	0.905516	-0.103761	0.510514
H194	H	0.940534	-0.060120	0.573828
H195	H	0.803332	-0.081364	0.567333
H196	H	0.838345	-0.037727	0.630663
H197	H	0.046352	-0.032065	-0.000310
C198	C	0.150648	-0.119114	-0.000258
C199	C	0.190475	-0.051303	-0.000244
H200	H	0.180851	-0.170463	-0.000261
H201	H	0.122025	-0.116444	0.041964
H202	H	0.122067	-0.116429	-0.042496
H203	H	0.219053	-0.053984	0.041998
H204	H	0.219110	-0.053974	-0.042470
H205	H	0.266342	0.004277	-0.077214
C206	C	0.330505	0.286021	0.126117
C207	C	0.383185	0.235546	0.088877
H208	H	0.350772	0.326114	0.154924
H209	H	0.299129	0.314474	0.092001
H210	H	0.305896	0.251703	0.156693
H211	H	0.407791	0.269863	0.058297
H212	H	0.414573	0.207091	0.122997
