data_functionalizedCrystal
_audit_creation_method	'MofGen! by Chris Wilmer'
_symmetry_space_group_name_H-M	'P1'
_symmetry_Int_Tables_number	1
_symmetry_cell_setting	triclinic
loop_
_symmetry_equiv_pos_as_xyz
  x,y,z
_cell_length_a	16.109301
_cell_length_b	10.868271
_cell_length_c	16.109301
_cell_angle_alpha	90.006558
_cell_angle_beta	83.461481
_cell_angle_gamma	90.001598
loop_
_atom_site_label
_atom_site_type_symbol
_atom_site_fract_x
_atom_site_fract_y
_atom_site_fract_z
O1	O	1.103132	0.102248	0.106868
O2	O	1.436465	0.435582	0.440201
O3	O	1.769798	0.768915	0.773534
O4	O	0.861070	0.102268	0.120167
O5	O	1.194403	0.435602	0.453500
O6	O	1.527736	0.768935	0.786834
O7	O	0.988750	0.102245	-0.007514
O8	O	1.322084	0.435579	0.325820
O9	O	1.655417	0.768912	0.659153
O10	O	0.975451	0.102271	0.234548
O11	O	1.308784	0.435605	0.567882
O12	O	1.642118	0.768938	0.901215
O13	O	0.988740	-0.102399	-0.007519
O14	O	1.322073	0.230934	0.325815
O15	O	1.655406	0.564267	0.659148
O16	O	0.861059	-0.102376	0.120162
O17	O	1.194392	0.230957	0.453495
O18	O	1.527726	0.564290	0.786829
O19	O	1.103121	-0.102396	0.106863
O20	O	1.436454	0.230937	0.440196
O21	O	1.769788	0.564270	0.773529
Zn22	Zn	0.982088	-0.134878	0.113512
Zn23	Zn	1.315422	0.198455	0.446845
Zn24	Zn	1.648755	0.531789	0.780178
Zn25	Zn	0.982102	0.134750	0.113518
Zn26	Zn	1.315436	0.468083	0.446851
Zn27	Zn	1.648769	0.801417	0.780185
O28	O	0.975440	-0.102373	0.234543
O29	O	1.308774	0.230960	0.567877
O30	O	1.642107	0.564293	0.901210
C31	C	0.830090	-0.000051	0.119626
C32	C	1.163423	0.333282	0.452959
C33	C	1.496756	0.666615	0.786292
C34	C	0.737794	-0.000044	0.118011
C35	C	1.071128	0.333289	0.451344
C36	C	1.404461	0.666622	0.784677
N37	N	0.982085	-0.318892	0.113507
N38	N	1.315418	0.014441	0.446840
N39	N	1.648752	0.347775	0.780173
C40	C	0.515522	-0.000051	0.190018
C41	C	0.848855	0.333283	0.523352
C42	C	1.182188	0.666616	0.856685
C43	C	0.428801	-0.000059	0.188494
C44	C	0.762135	0.333275	0.521828
C45	C	1.095468	0.666608	0.855161
C46	C	0.448676	-0.000070	0.037006
C47	C	0.782009	0.333263	0.370339
C48	C	1.115342	0.666597	0.703672
C49	C	0.535394	-0.000071	0.038530
C50	C	0.868728	0.333263	0.371864
C51	C	1.202061	0.666596	0.705197
C52	C	0.568815	-0.000055	0.115039
C53	C	0.902148	0.333278	0.448373
C54	C	1.235482	0.666612	0.781706
C55	C	0.395376	-0.000062	0.111990
C56	C	0.728709	0.333271	0.445324
C57	C	1.062042	0.666604	0.778657
C58	C	0.301350	-0.000071	0.110337
C59	C	0.634683	0.333262	0.443671
C60	C	0.968016	0.666596	0.777004
C61	C	0.662847	-0.000048	0.116693
C62	C	0.996180	0.333285	0.450026
C63	C	1.329514	0.666618	0.783359
C64	C	0.982098	-0.569898	0.113516
C65	C	1.315431	-0.236565	0.446850
C66	C	1.648765	0.096769	0.780183
C67	C	0.982088	-0.430221	0.113513
C68	C	1.315421	-0.096887	0.446847
C69	C	1.648755	0.236446	0.780180
C70	C	1.134101	-0.000074	0.107404
C71	C	1.467435	0.333260	0.440737
C72	C	1.800768	0.666593	0.774071
C73	C	1.226397	-0.000073	0.109019
C74	C	1.559730	0.333261	0.442352
C75	C	1.893063	0.666594	0.775686
C76	C	0.988206	-0.000078	-0.038491
C77	C	1.321540	0.333256	0.294842
C78	C	1.654873	0.666589	0.628176
C79	C	0.986591	-0.000079	-0.130786
C80	C	1.319925	0.333254	0.202547
C81	C	1.653258	0.666587	0.535880
N82	N	0.982112	0.318764	0.113516
N83	N	1.315446	0.652098	0.446850
N84	N	1.648779	0.985431	0.780183
C85	C	1.058599	-0.000066	-0.353059
C86	C	1.391932	0.333268	-0.019725
C87	C	1.725266	0.666601	0.313608
C88	C	1.057075	-0.000055	-0.439779
C89	C	1.390408	0.333278	-0.106446
C90	C	1.723742	0.666611	0.226888
C91	C	0.905586	-0.000048	-0.419905
C92	C	1.238919	0.333286	-0.086571
C93	C	1.572253	0.666619	0.246762
C94	C	0.907111	-0.000049	-0.333186
C95	C	1.240444	0.333284	0.000147
C96	C	1.573778	0.666618	0.333481
C97	C	0.983620	-0.000064	-0.299766
C98	C	1.316953	0.333269	0.033568
C99	C	1.650287	0.666602	0.366901
C100	C	0.980571	-0.000053	-0.473205
C101	C	1.313904	0.333281	-0.139871
C102	C	1.647238	0.666614	0.193462
C103	C	0.978918	-0.000042	-0.567231
C104	C	1.312251	0.333292	-0.233897
C105	C	1.645585	0.666625	0.099436
C106	C	0.985273	-0.000073	-0.205734
C107	C	1.318607	0.333260	0.127600
C108	C	1.651940	0.666594	0.460933
C109	C	0.975984	-0.000048	0.265521
C110	C	1.309318	0.333286	0.598854
C111	C	1.642651	0.666619	0.932187
C112	C	0.977600	-0.000038	0.357816
C113	C	1.310933	0.333295	0.691149
C114	C	1.644266	0.666629	1.024483
H115	H	0.542730	-0.000047	0.252317
H116	H	0.876063	0.333286	0.585650
H117	H	1.209396	0.666620	0.918983
H118	H	1.118130	-0.000054	-0.483168
H119	H	1.451464	0.333280	-0.149834
H120	H	1.784797	0.666613	0.183499
F121	F	0.413100	-0.000082	-0.044416
F122	F	0.746433	0.333252	0.288917
F123	F	1.079766	0.666585	0.622251
H124	H	0.578788	-0.000078	-0.022530
H125	H	0.912122	0.333256	0.310803
H126	H	1.245455	0.666589	0.644136
H127	H	0.846050	-0.000044	-0.289792
H128	H	1.179384	0.333289	0.043541
H129	H	1.512717	0.666622	0.376874
F130	F	0.372086	-0.000056	0.268298
F131	F	0.705419	0.333277	0.601631
F132	F	1.038753	0.666610	0.934964
F133	F	0.824164	-0.000031	-0.455481
F134	F	1.157498	0.333302	-0.122148
F135	F	1.490831	0.666636	0.211186
F136	F	1.140026	-0.000080	-0.317493
F137	F	1.473360	0.333253	0.015840
F138	F	1.806693	0.666586	0.349173
