data_functionalizedCrystal
_audit_creation_method	'MofGen! by Chris Wilmer'
_symmetry_space_group_name_H-M	'P1'
_symmetry_Int_Tables_number	1
_symmetry_cell_setting	triclinic
loop_
_symmetry_equiv_pos_as_xyz
  x,y,z
_cell_length_a	15.995350
_cell_length_b	11.792241
_cell_length_c	10.868271
_cell_angle_alpha	90.005281
_cell_angle_beta	90.002051
_cell_angle_gamma	96.157105
loop_
_atom_site_label
_atom_site_type_symbol
_atom_site_fract_x
_atom_site_fract_y
_atom_site_fract_z
O1	O	1.111649	-0.146296	-0.102141
O2	O	0.867956	-0.164362	-0.102183
O3	O	0.995716	0.009891	-0.102152
O4	O	0.983889	-0.320549	-0.102172
O5	O	0.995706	0.009898	0.102492
O6	O	0.867946	-0.164355	0.102462
O7	O	1.111639	-0.146289	0.102504
Zn8	Zn	0.989790	-0.155321	0.134974
Zn9	Zn	0.989804	-0.155330	-0.134654
O10	O	0.983878	-0.320542	0.102473
C11	C	0.836753	-0.163612	0.000134
C12	C	0.743792	-0.161372	0.000118
C13	C	1.142842	-0.147040	0.000184
C14	C	1.235803	-0.149279	0.000192
C15	C	0.994968	0.052179	0.000170
C16	C	0.992745	0.178174	0.000168
C17	C	1.573587	-0.157320	0.000142
C18	C	1.526716	-0.281419	0.000597
C19	C	1.430016	-0.279180	0.000149
C20	C	1.406008	-0.153331	0.000168
C21	C	1.446797	-0.092124	-0.116693
C22	C	1.543447	-0.095242	-0.116804
C23	C	1.543815	-0.092672	0.115916
C24	C	1.446870	-0.092701	0.117473
C25	C	1.311300	-0.151071	0.000178
C26	C	1.668295	-0.159577	0.000124
C27	C	0.984627	-0.362830	0.000149
C28	C	0.986850	-0.488825	0.000142
N29	N	0.989787	-0.155314	0.318989
C30	C	0.988655	0.408852	0.000147
C31	C	0.990927	0.280486	0.000158
N32	N	0.989814	-0.155328	-0.318668
C33	C	0.989800	-0.155328	0.569995
C34	C	0.989790	-0.155324	0.430317
H35	H	1.401819	-0.327298	0.083915
C36	C	1.392655	-0.344610	-0.113219
C37	C	1.343292	-0.283142	-0.209708
C38	C	1.305933	-0.348572	-0.323084
C39	C	1.317938	-0.475470	-0.339972
C40	C	1.367303	-0.536945	-0.243480
C41	C	1.404662	-0.471515	-0.130103
H42	H	1.334403	-0.189198	-0.197209
H43	H	1.269389	-0.303064	-0.394514
H44	H	1.290283	-0.523905	-0.423900
H45	H	1.376192	-0.630888	-0.255978
H46	H	1.441205	-0.517023	-0.058673
C47	C	1.425490	0.031248	0.127098
C48	C	1.459252	0.106632	0.235684
C49	C	1.437840	0.230568	0.245330
C50	C	1.382666	0.279121	0.146390
C51	C	1.348901	0.203736	0.037795
C52	C	1.370313	0.079799	0.028150
H53	H	1.500098	0.070691	0.308933
H54	H	1.462835	0.286373	0.325719
H55	H	1.366816	0.370867	0.153530
H56	H	1.308055	0.239677	-0.035453
H57	H	1.345318	0.023995	-0.052240
C58	C	1.571816	-0.147474	0.235571
C59	C	1.541930	-0.273219	0.264095
C60	C	1.569930	-0.328034	0.383744
C61	C	1.627816	-0.257104	0.474869
C62	C	1.657705	-0.131352	0.446347
C63	C	1.629705	-0.076537	0.326699
H64	H	1.499076	-0.325732	0.196637
H65	H	1.547804	-0.421124	0.404857
H66	H	1.648543	-0.297681	0.563440
H67	H	1.700559	-0.078839	0.513806
H68	H	1.651831	0.016553	0.305586
H69	H	1.545482	-0.331019	0.084392
C70	C	1.553464	-0.348127	-0.112006
C71	C	1.646428	-0.367270	-0.129768
C72	C	1.673174	-0.433968	-0.242380
C73	C	1.606957	-0.481524	-0.337229
C74	C	1.513986	-0.462383	-0.319470
C75	C	1.487240	-0.395684	-0.206859
H76	H	1.695451	-0.332066	-0.059552
H77	H	1.741997	-0.448138	-0.255526
H78	H	1.626756	-0.530898	-0.420591
H79	H	1.464963	-0.497587	-0.389686
H80	H	1.418417	-0.381515	-0.193713
C81	C	1.586460	0.027838	-0.123977
C82	C	1.532833	0.128646	-0.129592
C83	C	1.575841	0.251722	-0.136773
C84	C	1.672476	0.273991	-0.138340
C85	C	1.726108	0.173179	-0.132725
C86	C	1.683100	0.050103	-0.125543
H87	H	1.461293	0.112164	-0.128433
H88	H	1.536138	0.326349	-0.140930
H89	H	1.704313	0.365099	-0.143656
H90	H	1.797648	0.189661	-0.133884
H91	H	1.722803	-0.024524	-0.121387
H92	H	1.561942	-0.139883	-0.204166
C93	C	1.427144	0.032778	-0.122561
C94	C	1.455761	0.115793	-0.017656
C95	C	1.436106	0.240694	-0.023522
C96	C	1.387834	0.282581	-0.134293
C97	C	1.359214	0.199565	-0.239207
C98	C	1.378869	0.074663	-0.233341
H99	H	1.491498	0.084787	0.064351
H100	H	1.457293	0.302148	0.054143
H101	H	1.373284	0.375041	-0.138636
H102	H	1.323477	0.230571	-0.321214
H103	H	1.357682	0.013210	-0.311006
H104	H	1.575157	-0.001172	0.116705
H105	H	1.418577	-0.134613	-0.203659
H106	H	1.419782	-0.137394	0.203925
