data_functionalizedCrystal
_audit_creation_method	'MofGen! by Chris Wilmer'
_symmetry_space_group_name_H-M	'P1'
_symmetry_Int_Tables_number	1
_symmetry_cell_setting	triclinic
loop_
_symmetry_equiv_pos_as_xyz
  x,y,z
_cell_length_a	8.559649
_cell_length_b	8.559649
_cell_length_c	22.610064
_cell_angle_alpha	90.008223
_cell_angle_beta	90.005625
_cell_angle_gamma	110.221336
loop_
_atom_site_label
_atom_site_type_symbol
_atom_site_fract_x
_atom_site_fract_y
_atom_site_fract_z
O1	O	2.126851	0.055013	-0.049179
O2	O	1.651366	-0.028768	-0.049180
O3	O	1.930999	0.250865	-0.049179
O4	O	1.847218	-0.224620	-0.049180
O5	O	1.931040	0.250914	0.049190
O6	O	1.651407	-0.028719	0.049189
O7	O	2.126892	0.055062	0.049190
Zn8	Zn	1.889156	0.013180	0.064808
Zn9	Zn	1.889102	0.013114	-0.064798
O10	O	1.847259	-0.224571	0.049189
C11	C	1.591077	-0.035093	0.000004
C12	C	1.411378	-0.053992	0.000003
N13	N	1.889068	0.013082	-0.153250
C14	C	1.937369	0.311198	0.000005
C15	C	1.956268	0.490898	0.000001
C16	C	2.187180	0.061387	0.000005
C17	C	2.366879	0.080286	0.000001
C18	C	1.840889	-0.284904	0.000004
C19	C	1.821990	-0.464604	0.000003
C20	C	1.765126	-0.110510	-0.438099
C21	C	1.765117	-0.110523	-0.376179
O22	O	1.659691	-0.215694	-0.344161
N23	N	1.889110	0.013099	-0.345203
C24	C	2.013129	0.136733	-0.376149
O25	O	2.118595	0.241882	-0.344115
C26	C	2.013144	0.136738	-0.438068
C27	C	1.889133	0.013117	-0.469041
C28	C	1.641127	-0.234122	-0.469072
C29	C	1.641135	-0.234107	-0.530988
C30	C	1.765142	-0.110479	-0.561930
C31	C	1.889141	0.013133	-0.530957
C32	C	2.137169	0.260364	-0.469013
C33	C	2.137173	0.260358	-0.530936
C34	C	2.013163	0.136737	-0.561910
C35	C	2.013157	0.136776	-0.623815
N36	N	1.889164	0.013153	-0.654791
C37	C	1.765157	-0.110474	-0.623849
C38	C	2.013091	0.136712	-0.246116
C39	C	2.013071	0.136715	-0.184198
C40	C	1.765060	-0.110544	-0.184232
C41	C	1.765074	-0.110539	-0.246151
C42	C	1.889098	0.013089	-0.277092
C43	C	1.765182	-0.110431	-0.753876
C44	C	1.765197	-0.110401	-0.815797
C45	C	2.013212	0.136852	-0.815758
C46	C	2.013193	0.136828	-0.753842
C47	C	1.889170	0.013172	-0.722903
O48	O	2.118533	0.241889	-0.655872
O49	O	1.659722	-0.215618	-0.655890
N50	N	1.889204	0.013227	0.153260
H51	H	2.312000	-0.183411	-0.000001
F52	F	2.145644	0.267951	-0.848699
H53	H	2.466268	0.209714	0.000000
F54	F	1.652825	0.405504	0.000004
H55	H	2.085696	0.590286	0.000007
H56	H	1.664207	-0.211069	-0.841014
H57	H	1.664193	-0.211125	-0.728693
F58	F	1.509154	-0.365686	-0.563946
F59	F	1.509132	-0.365716	-0.436150
F60	F	1.633088	-0.242114	-0.279109
H61	H	1.664088	-0.211210	-0.159028
F62	F	2.145041	0.268306	-0.151240
H63	H	2.114083	0.237398	-0.271305
H64	H	2.238149	0.361027	-0.443804
F65	F	2.269183	0.391941	-0.563863
H66	H	2.114160	0.237505	-0.728623
