data_functionalizedCrystal
_audit_creation_method	'MofGen! by Chris Wilmer'
_symmetry_space_group_name_H-M	'P1'
_symmetry_Int_Tables_number	1
_symmetry_cell_setting	triclinic
loop_
_symmetry_equiv_pos_as_xyz
  x,y,z
_cell_length_a	19.077105
_cell_length_b	15.297327
_cell_length_c	19.077271
_cell_angle_alpha	78.476752
_cell_angle_beta	89.912562
_cell_angle_gamma	97.818066
loop_
_atom_site_label
_atom_site_type_symbol
_atom_site_fract_x
_atom_site_fract_y
_atom_site_fract_z
Zn1	Zn	0.996981	-0.436368	0.496838
Zn2	Zn	0.981313	-0.581310	0.398074
Zn3	Zn	0.885922	-0.424249	0.373065
Zn4	Zn	0.859184	-0.580803	0.510760
O5	O	0.930850	-0.505682	0.444684
O6	O	1.092493	-0.460879	0.488376
O7	O	0.973291	-0.555616	0.295797
O8	O	0.918401	-0.299679	0.373192
O9	O	1.080981	-0.567367	0.415815
O10	O	0.999996	-0.308583	0.464127
O11	O	0.903208	-0.440224	0.277424
O12	O	0.784785	-0.439732	0.386691
O13	O	0.872831	-0.566503	0.607872
O14	O	0.765141	-0.554752	0.487854
O15	O	0.974070	-0.460388	0.597644
O16	O	0.947365	-0.707420	0.429314
O17	O	0.857638	-0.707047	0.512104
C18	C	0.749659	-0.495872	0.436070
C19	C	0.672141	-0.491698	0.432405
C20	C	0.625505	-0.549705	0.483293
C21	C	0.552670	-0.545771	0.479851
C22	C	0.526472	-0.483834	0.425517
C23	C	0.573114	-0.425821	0.374626
C24	C	0.645948	-0.429751	0.378071
C25	C	0.309739	-0.465645	0.409572
C26	C	0.236898	-0.461722	0.406129
C27	C	0.216459	-0.581671	0.511356
C28	C	0.289295	-0.585599	0.514794
C29	C	0.335931	-0.527583	0.463905
N30	N	0.452023	-0.479814	0.421995
N31	N	0.410379	-0.531600	0.467430
C32	C	0.897918	-0.739952	0.474950
C33	C	0.883893	-0.840178	0.487924
C34	C	1.031370	-1.123362	0.352209
C35	C	1.044547	-1.029195	0.340015
C36	C	1.004385	-0.981936	0.376991
C37	C	0.951042	-1.028854	0.426163
C38	C	0.937860	-1.123030	0.438354
C39	C	0.910875	-0.981604	0.463137
C40	C	0.857532	-1.028521	0.512309
C41	C	0.844352	-1.122688	0.524498
C42	C	0.884515	-1.169947	0.487521
C43	C	0.924058	-0.887427	0.450946
C44	C	0.830548	-0.887095	0.537091
C45	C	0.817370	-0.981262	0.549285
C46	C	1.112748	-0.515531	0.453332
C47	C	1.190262	-0.519729	0.457017
C48	C	0.922216	-0.514741	0.629134
C49	C	0.918537	-0.518601	0.707736
C50	C	0.963929	-0.270500	0.414317
C51	C	0.978025	-0.170280	0.401376
C52	C	0.969515	-0.465168	0.739339
C53	C	0.966050	-0.468791	0.813193
C54	C	0.911609	-0.525852	0.855443
C55	C	0.860625	-0.579287	0.823834
C56	C	0.864088	-0.575659	0.749981
C57	C	0.895598	-0.542624	1.076890
C58	C	0.892140	-0.546250	1.150749
C59	C	0.997564	-0.435753	1.140102
C60	C	1.001024	-0.432133	1.066248
C61	C	0.950039	-0.485564	1.034646
N62	N	0.908067	-0.529559	0.930933
N63	N	0.953579	-0.481852	0.959156
C64	C	0.939441	-0.496679	1.260954
C65	C	0.943118	-0.492817	1.182352
H66	H	0.178481	-0.628903	0.552787
H67	H	0.873790	-1.246626	0.497449
H68	H	0.797843	-0.848617	0.567199
C69	C	0.758689	-1.032883	0.603367
N70	N	0.714489	-1.071765	0.644100
H71	H	0.800910	-1.160885	0.564528
C72	C	1.053637	-0.376971	1.174869
N73	N	1.095871	-0.332689	1.201055
C74	C	0.832246	-0.609022	1.197222
N75	N	0.787136	-0.656299	1.232226
C76	C	0.208084	-0.393582	0.346355
N77	N	0.186380	-0.342263	0.301335
H78	H	1.013849	-0.418705	0.704944
C79	C	1.075535	-1.175352	0.311533
N80	N	1.108801	-1.214512	0.280891
H81	H	0.514701	-0.593008	0.521289
H82	H	0.967489	-0.849235	0.410910
C83	C	0.839510	-0.601398	1.042137
N84	N	0.797261	-0.645667	1.015958
C85	C	1.022131	-0.410012	0.847953
N86	N	1.064375	-0.365737	0.874133
C87	C	1.060908	-0.369352	1.019777
N88	N	1.106013	-0.322063	0.984775
H89	H	0.822570	-0.619160	0.724250
C90	C	0.654315	-0.617842	0.543066
N91	N	0.676013	-0.669162	0.588090
C92	C	0.318106	-0.653739	0.574563
N93	N	0.339806	-0.705067	0.619580
H94	H	0.347701	-0.418411	0.368130
C95	C	0.544294	-0.357687	0.314858
N96	N	0.522587	-0.306370	0.269839
C97	C	0.697248	-0.365941	0.322089
N98	N	0.735887	-0.317875	0.279921
H99	H	0.816296	-0.625744	0.858240
H100	H	1.015117	-0.905261	0.367060
H101	H	1.087978	-0.990998	0.299979
