data_functionalizedCrystal
_audit_creation_method	'MofGen! by Chris Wilmer'
_symmetry_space_group_name_H-M	'P1'
_symmetry_Int_Tables_number	1
_symmetry_cell_setting	triclinic
loop_
_symmetry_equiv_pos_as_xyz
  x,y,z
_cell_length_a	16.625547
_cell_length_b	14.909229
_cell_length_c	14.908308
_cell_angle_alpha	96.748174
_cell_angle_beta	86.726217
_cell_angle_gamma	93.261674
loop_
_atom_site_label
_atom_site_type_symbol
_atom_site_fract_x
_atom_site_fract_y
_atom_site_fract_z
Zn1	Zn	1.225219	0.389848	0.532733
Zn2	Zn	1.239814	0.532481	0.390125
Zn3	Zn	1.097746	0.381151	0.381378
Zn4	Zn	1.097679	0.541152	0.541423
O5	O	1.165114	0.461158	0.461415
O6	O	1.339987	0.408780	0.513840
O7	O	1.227104	0.505138	0.262304
O8	O	1.108576	0.255651	0.394158
O9	O	1.350709	0.513572	0.409067
O10	O	1.202230	0.262041	0.505358
O11	O	1.122728	0.393956	0.255877
O12	O	0.984905	0.402364	0.402585
O13	O	1.108461	0.528350	0.666931
O14	O	0.984856	0.519916	0.520169
O15	O	1.202165	0.417188	0.660547
O16	O	1.227039	0.660285	0.417493
O17	O	1.122613	0.666655	0.528651
C18	C	0.955625	0.461138	0.461371
C19	C	0.866004	0.461152	0.461375
C20	C	0.793221	0.461155	0.461386
C21	C	0.701912	0.461161	0.461409
C22	C	0.629135	0.461171	0.461433
C23	C	0.537820	0.461178	0.461455
C24	C	1.176423	0.696311	0.474984
C25	C	1.181334	0.796912	0.480819
C26	C	1.093138	0.979445	0.375886
C27	C	1.097749	1.073969	0.381365
C28	C	1.195171	1.080484	0.497253
C29	C	1.190560	0.985960	0.491773
C30	C	1.139541	0.935444	0.431089
C31	C	1.134926	0.840919	0.425614
C32	C	1.232351	0.847436	0.541497
C33	C	1.236962	0.941959	0.546976
C34	C	1.375422	0.461179	0.461459
C35	C	1.465043	0.461188	0.461478
C36	C	1.153677	0.474707	0.697499
C37	C	1.148804	0.480480	0.798104
C38	C	1.153735	1.225089	0.447821
C39	C	1.148763	1.124491	0.442048
C40	C	1.176550	0.447597	0.226245
C41	C	1.181568	0.441568	0.125626
C42	C	1.237215	0.375555	0.980504
C43	C	1.232638	0.380977	1.075031
C44	C	1.135069	0.496740	1.081687
C45	C	1.139646	0.491318	0.987160
C46	C	1.190722	0.430725	0.936572
C47	C	1.195302	0.425308	0.842043
C48	C	1.097729	0.541066	0.848701
C49	C	1.093152	0.546488	0.943228
H50	H	1.093381	0.799790	0.376204
H51	H	1.270496	0.336050	1.110797
H52	H	1.236892	0.375971	0.800855
O53	O	1.043424	0.605249	0.992326
C54	C	0.963233	0.584162	0.968055
H55	H	0.956941	0.510367	0.937900
H56	H	0.947150	0.629540	0.915978
C57	C	0.913587	0.690150	1.089658
C58	C	0.905859	0.599512	1.052629
H59	H	0.878195	0.699622	1.141826
H60	H	0.967614	0.704360	1.106009
H61	H	0.900186	0.727955	1.046253
H62	H	0.919269	0.561710	1.096030
H63	H	0.851833	0.585296	1.036288
H64	H	1.278807	0.326222	0.939314
O65	O	1.043686	0.930269	0.316894
C66	C	1.089794	0.872234	0.255297
H67	H	1.148633	0.859840	0.286460
H68	H	1.103726	0.904829	0.190343
C69	C	0.969592	0.796773	0.195385
C70	C	1.041856	0.781545	0.233662
H71	H	0.940021	0.740833	0.182035
H72	H	0.938527	0.835874	0.236881
H73	H	0.981212	0.823938	0.141261
H74	H	1.030234	0.754391	0.287791
H75	H	1.072917	0.742437	0.192175
H76	H	1.093485	0.546072	1.122893
H77	H	1.278503	0.983102	0.596382
H78	H	1.270133	0.811600	0.586449
H79	H	1.059873	0.585992	0.812921
H80	H	1.236714	1.121630	0.546653
O81	O	1.052590	1.116570	0.327707
C82	C	1.006590	1.051709	0.272956
H83	H	0.998687	0.986446	0.306119
H84	H	1.039009	1.037711	0.203666
C85	C	0.932932	1.168084	0.221220
C86	C	0.923219	1.087929	0.261956
H87	H	0.881506	1.190427	0.214430
H88	H	0.963925	1.211783	0.258104
H89	H	0.959950	1.156408	0.163482
H90	H	0.896211	1.099608	0.319697
H91	H	0.892220	1.044233	0.225081
