data_functionalizedCrystal
_audit_creation_method	'MofGen! by Chris Wilmer'
_symmetry_space_group_name_H-M	'P1'
_symmetry_Int_Tables_number	1
_symmetry_cell_setting	triclinic
loop_
_symmetry_equiv_pos_as_xyz
  x,y,z
_cell_length_a	15.297327
_cell_length_b	17.077404
_cell_length_c	17.077396
_cell_angle_alpha	90.019699
_cell_angle_beta	99.647268
_cell_angle_gamma	80.295941
loop_
_atom_site_label
_atom_site_type_symbol
_atom_site_fract_x
_atom_site_fract_y
_atom_site_fract_z
Zn1	Zn	-0.359233	-1.145942	-0.497910
Zn2	Zn	0.140767	-0.645942	0.002090
Zn3	Zn	-0.510106	-1.123122	-0.389349
Zn4	Zn	-0.010106	-0.623122	0.110651
Zn5	Zn	-0.359257	-1.014670	-0.366661
Zn6	Zn	0.140743	-0.514670	0.133339
Zn7	Zn	-0.510044	-0.991924	-0.520563
Zn8	Zn	-0.010044	-0.491924	-0.020563
O9	O	-0.434660	-1.068914	-0.443621
O10	O	0.065340	-0.568914	0.056379
O11	O	-0.379263	-1.252759	-0.483524
O12	O	0.120737	-0.752759	0.016476
O13	O	-0.490131	-1.108705	-0.276498
O14	O	0.009869	-0.608705	0.223502
O15	O	-0.233007	-1.051153	-0.365095
O16	O	0.266993	-0.551153	0.134905
O17	O	-0.490109	-1.235994	-0.403765
O18	O	0.009891	-0.735994	0.096235
O19	O	-0.232990	-1.147598	-0.461523
O20	O	0.267010	-0.647598	0.038477
O21	O	-0.379303	-1.029026	-0.259829
O22	O	0.120697	-0.529026	0.240171
O23	O	-0.379243	-0.901808	-0.387061
O24	O	0.120757	-0.401808	0.112939
O25	O	-0.490003	-1.012386	-0.627400
O26	O	0.009997	-0.512386	-0.127400
O27	O	-0.490026	-0.885097	-0.500133
O28	O	0.009974	-0.385097	-0.000133
O29	O	-0.379203	-1.125542	-0.610756
O30	O	0.120797	-0.625542	-0.110756
O31	O	-0.636344	-1.086649	-0.425731
O32	O	-0.136344	-0.586649	0.074269
O33	O	-0.636299	-0.990259	-0.522133
O34	O	-0.136299	-0.490259	-0.022133
C35	C	-0.434631	-0.864971	-0.443594
C36	C	0.065369	-0.364971	0.056406
C37	C	-0.434640	-0.777720	-0.443604
C38	C	0.065360	-0.277720	0.056396
C39	C	-0.377025	-0.745445	-0.485226
C40	C	0.122975	-0.245445	0.014774
C41	C	-0.377029	-0.663464	-0.485228
C42	C	0.122971	-0.163464	0.014772
C43	C	-0.434654	-0.613758	-0.443613
C44	C	0.065346	-0.113758	0.056387
C45	C	-0.492272	-0.646039	-0.401987
C46	C	0.007728	-0.146039	0.098013
C47	C	-0.492262	-0.728019	-0.401980
C48	C	0.007738	-0.228019	0.098020
C49	C	-0.492289	-0.475166	-0.402005
C50	C	0.007711	0.024834	0.097995
C51	C	-0.492300	-0.393180	-0.402012
C52	C	0.007700	0.106820	0.097988
C53	C	-0.377056	-0.410611	-0.485253
C54	C	0.122944	0.089389	0.014747
C55	C	-0.377046	-0.492591	-0.485246
C56	C	0.122954	0.007409	0.014754
C57	C	-0.434666	-0.524866	-0.443621
C58	C	0.065334	-0.024866	0.056379
C59	C	-0.669055	-1.033531	-0.478869
C60	C	-0.169055	-0.533531	0.021131
C61	C	-0.769331	-1.018465	-0.493975
C62	C	-0.269331	-0.518465	0.006025
C63	C	-1.051960	-1.176914	-0.335925
C64	C	-0.551960	-0.676914	0.164075
C65	C	-0.957746	-1.191068	-0.321729
C66	C	-0.457746	-0.691068	0.178271
C67	C	-0.910637	-1.147919	-0.364789
C68	C	-0.410637	-0.647919	0.135211
C69	C	-0.957752	-1.090612	-0.422048
C70	C	-0.457752	-0.590612	0.077952
C71	C	-1.051975	-1.076452	-0.436242
C72	C	-0.551975	-0.576452	0.063758
C73	C	-0.910653	-1.047457	-0.465106
C74	C	-0.410653	-0.547457	0.034894
C75	C	-0.957767	-0.990151	-0.522365
C76	C	-0.457767	-0.490151	-0.022365
C77	C	-1.051981	-0.975993	-0.536557
C78	C	-0.551981	-0.475993	-0.036557
C79	C	-1.099089	-1.019143	-0.493496
C80	C	-0.599089	-0.519143	0.006504
C81	C	-0.816430	-1.061617	-0.450912
C82	C	-0.316430	-0.561617	0.049088
C83	C	-0.816445	-0.961156	-0.551229
C84	C	-0.316445	-0.461156	-0.051229
C85	C	-0.910659	-0.947001	-0.565426
C86	C	-0.410659	-0.447001	-0.065426
C87	C	-0.199349	-1.104458	-0.408252
C88	C	0.300651	-0.604458	0.091748
C89	C	-0.099074	-1.119604	-0.393179
C90	C	0.400926	-0.619604	0.106821
C91	C	-0.434594	-1.068972	-0.648355
C92	C	0.065406	-0.568972	-0.148355
C93	C	-0.434565	-1.068996	-0.735601
C94	C	0.065435	-0.568996	-0.235601
C95	C	-0.434686	-0.273655	-0.443641
C96	C	0.065314	0.226345	0.056359
C97	C	-0.434685	-0.360905	-0.443634
C98	C	0.065315	0.139095	0.056366
C99	C	-0.376867	-1.127919	-0.767925
C100	C	0.123133	-0.627919	-0.267925
C101	C	-0.376837	-1.127933	-0.849901
C102	C	0.123163	-0.627933	-0.349901
C103	C	-0.434510	-1.069027	-0.899552
C104	C	0.065490	-0.569027	-0.399552
C105	C	-0.492211	-1.010098	-0.867222
C106	C	0.007789	-0.510098	-0.367222
C107	C	-0.492236	-1.010082	-0.785247
C108	C	0.007764	-0.510082	-0.285247
C109	C	-0.492157	-1.010138	-1.038084
C110	C	0.007843	-0.510138	-0.538084
C111	C	-0.492134	-1.010155	-1.120065
C112	C	0.007866	-0.510155	-0.620065
C113	C	-0.376758	-1.127990	-1.102738
C114	C	0.123242	-0.627990	-0.602738
C115	C	-0.376782	-1.127973	-1.020763
C116	C	0.123218	-0.627973	-0.520763
C117	C	-0.434485	-1.069045	-0.988439
C118	C	0.065515	-0.569045	-0.488439
C119	C	-0.434661	-1.068912	-0.239673
C120	C	0.065339	-0.568912	0.260327
C121	C	-0.434435	-1.069078	-0.152390
C122	C	0.065565	-0.569078	0.347610
H123	H	-0.539224	-0.352711	-0.368126
H124	H	-0.039224	0.147289	0.131874
H125	H	-0.329905	-1.175890	-0.727505
H126	H	0.170095	-0.675890	-0.227505
H127	H	-0.778090	-0.926018	-0.586291
H128	H	-0.278090	-0.426018	-0.086291
F129	F	-0.810367	-1.163153	-0.349847
F130	F	-0.310367	-0.663153	0.150153
F131	F	-0.766298	-1.122605	-0.389974
F132	F	-0.266298	-0.622605	0.110026
F133	F	-0.315457	-1.190670	-0.884304
F134	F	0.184543	-0.690670	-0.384304
F135	F	-0.553596	-0.593137	-0.357692
F136	F	-0.053596	-0.093137	0.142308
H137	H	-1.090339	-0.929321	-0.583172
H138	H	-0.590339	-0.429321	-0.083172
H139	H	-1.090324	-1.212035	-0.300867
H140	H	-0.590324	-0.712035	0.199133
H141	H	-0.539178	-0.754296	-0.368087
H142	H	-0.039178	-0.254296	0.131913
F143	F	-0.553569	-0.947418	-1.003684
F144	F	-0.053569	-0.447418	-0.503684
H145	H	-0.949033	-0.900341	-0.612047
H146	H	-0.449033	-0.400341	-0.112047
H147	H	-0.330128	-0.533059	-0.519138
H148	H	0.169872	-0.033059	-0.019138
F149	F	-0.315708	-0.629118	-0.529529
F150	F	0.184292	-0.129118	-0.029529
F151	F	-0.315405	-1.190672	-0.967923
F152	F	0.184595	-0.690672	-0.467923
F153	F	-0.553509	-0.947455	-1.172905
F154	F	-0.053509	-0.447455	-0.672905
H155	H	-0.329773	-1.175970	-1.129060
H156	H	0.170227	-0.675970	-0.629060
H157	H	-1.175806	-1.007623	-0.505054
H158	H	-0.675806	-0.507623	-0.005054
H159	H	-0.539167	-0.962133	-0.907654
H160	H	-0.039167	-0.462133	-0.407654
F161	F	-0.553645	-0.947366	-0.750845
F162	F	-0.053645	-0.447366	-0.250845
F163	F	-0.907610	-1.252061	-0.260797
F164	F	-0.407610	-0.752061	0.239203
H165	H	-0.330138	-0.384329	-0.519144
H166	H	0.169862	0.115671	-0.019144
F167	F	-0.315695	-0.798338	-0.529523
F168	F	0.184305	-0.298338	-0.029523
H169	H	-0.539207	-0.501441	-0.368106
H170	H	-0.039207	-0.001441	0.131894
