data_functionalizedCrystal
_audit_creation_method	'MofGen! by Chris Wilmer'
_symmetry_space_group_name_H-M	'P1'
_symmetry_Int_Tables_number	1
_symmetry_cell_setting	triclinic
loop_
_symmetry_equiv_pos_as_xyz
  x,y,z
_cell_length_a	23.532407
_cell_length_b	23.532407
_cell_length_c	10.268362
_cell_angle_alpha	89.990068
_cell_angle_beta	90.000752
_cell_angle_gamma	82.848678
loop_
_atom_site_label
_atom_site_type_symbol
_atom_site_fract_x
_atom_site_fract_y
_atom_site_fract_z
O1	O	0.755260	0.069135	-0.108151
O2	O	0.589396	0.079138	-0.108191
O3	O	0.677329	-0.008795	-0.108146
O4	O	0.667326	0.157069	-0.108196
O5	O	0.677322	-0.008798	0.108455
O6	O	0.589389	0.079135	0.108410
O7	O	0.755252	0.069132	0.108450
Cu8	Cu	0.672320	0.074133	0.128207
Cu9	Cu	0.672329	0.074137	-0.127948
O10	O	0.667319	0.157065	0.108405
C11	C	0.568176	0.078882	0.000105
C12	C	0.504959	0.078116	0.000090
C13	C	0.105856	0.125350	0.000135
C14	C	0.046456	0.124638	0.000143
O15	O	0.009711	0.168424	0.000177
N16	N	0.023830	0.072362	0.000157
C17	C	0.060607	0.020794	0.000176
O18	O	0.035908	-0.023737	0.000189
C19	C	0.120006	0.021506	0.000177
C20	C	0.142629	0.073785	0.000150
C21	C	0.128479	0.177625	0.000110
C22	C	0.187876	0.178336	0.000099
C23	C	0.224649	0.126772	0.000114
C24	C	0.202025	0.074496	0.000139
C25	C	0.156783	-0.030062	0.000205
C26	C	0.216185	-0.029345	0.000207
C27	C	0.238808	0.022934	0.000180
C28	C	0.298194	0.023643	0.000143
N29	N	0.320820	0.075920	0.000130
C30	C	0.284048	0.127484	0.000115
C31	C	-0.064135	0.019302	0.000175
C32	C	-0.123533	0.018589	0.000165
C33	C	-0.137680	0.122434	0.000135
C34	C	-0.078281	0.123146	0.000136
C35	C	-0.041509	0.071578	0.000162
C36	C	0.408784	0.128974	0.000092
C37	C	0.468186	0.129680	0.000076
C38	C	0.482329	0.025836	0.000112
C39	C	0.422932	0.025129	0.000121
C40	C	0.386160	0.076702	0.000116
O41	O	0.334974	-0.020119	0.000115
O42	O	0.308755	0.172007	0.000119
C43	C	0.677071	-0.030013	0.000158
C44	C	0.676305	-0.093230	0.000168
C45	C	0.723539	-0.492333	0.000108
C46	C	0.722827	-0.551733	0.000098
O47	O	0.766613	-0.588478	0.000060
N48	N	0.670551	-0.574359	0.000086
C49	C	0.618983	-0.537582	0.000071
O50	O	0.574452	-0.562281	0.000059
C51	C	0.619695	-0.478182	0.000072
C52	C	0.671974	-0.455560	0.000097
C53	C	0.775814	-0.469710	0.000131
C54	C	0.776525	-0.410313	0.000144
C55	C	0.724961	-0.373540	0.000133
C56	C	0.672685	-0.396164	0.000109
C57	C	0.568127	-0.441406	0.000048
C58	C	0.568844	-0.382004	0.000047
C59	C	0.621123	-0.359381	0.000072
C60	C	0.621832	-0.299995	0.000111
N61	N	0.674109	-0.277368	0.000122
C62	C	0.725673	-0.314141	0.000133
C63	C	0.617491	-0.662324	0.000067
C64	C	0.616778	-0.721722	0.000076
C65	C	0.720623	-0.735869	0.000100
C66	C	0.721335	-0.676470	0.000101
C67	C	0.669767	-0.639698	0.000079
C68	C	0.727163	-0.189405	0.000161
C69	C	0.727869	-0.130003	0.000179
C70	C	0.624025	-0.115860	0.000148
C71	C	0.623318	-0.175257	0.000137
C72	C	0.674891	-0.212029	0.000139
O73	O	0.578070	-0.263215	0.000143
O74	O	0.770196	-0.289433	0.000128
C75	C	0.776472	0.069388	0.000151
C76	C	0.839689	0.070154	0.000157
C77	C	0.667577	0.178283	0.000098
C78	C	0.668343	0.241500	0.000080
N79	N	0.672317	0.074130	0.308373
N80	N	0.672335	0.074136	-0.308114
C81	C	0.672326	0.074136	0.574044
C82	C	0.672319	0.074134	0.426206
H83	H	0.206289	0.220908	0.000077
O84	O	0.490256	0.180417	-0.000017
C85	C	0.550569	0.169994	0.000002
H86	H	0.564762	0.125468	-0.040982
H87	H	0.568618	0.203423	-0.062911
H88	H	0.567096	0.172662	0.103909
H89	H	-0.059867	0.165717	0.000122
O90	O	-0.173327	0.172578	0.000076
C91	C	-0.140628	0.218877	0.000096
H92	H	-0.096212	0.204171	-0.040916
H93	H	-0.162745	0.254985	-0.062791
H94	H	-0.136484	0.234913	0.104007
H95	H	0.575496	-0.632386	0.000061
H96	H	-0.141947	-0.023982	0.000167
O97	O	0.251824	-0.079493	0.000167
C98	C	0.219114	-0.125783	0.000223
H99	H	0.174697	-0.111065	-0.040781
H100	H	0.241219	-0.161892	-0.062653
H101	H	0.214976	-0.141824	0.104144
H102	H	0.762610	-0.765821	0.000104
H103	H	0.763906	-0.658056	0.000120
H104	H	0.580748	-0.193677	0.000152
O105	O	0.573922	-0.080158	0.000360
C106	C	0.542141	-0.090381	0.112502
H107	H	0.572315	-0.110857	0.190930
H108	H	0.519058	-0.048109	0.150141
H109	H	0.509353	-0.120443	0.087120
O110	O	0.401047	-0.025704	0.000188
C111	C	0.446245	-0.071063	0.000153
H112	H	0.486514	-0.055334	0.041144
H113	H	0.434036	-0.107585	0.063051
H114	H	0.454731	-0.086948	-0.103759
O115	O	0.092844	0.227771	0.000033
C116	C	0.125562	0.274056	0.000046
H117	H	0.169977	0.259331	-0.040947
H118	H	0.103460	0.310166	-0.062861
H119	H	0.129705	0.290098	0.103952
O120	O	0.565944	-0.743599	0.000008
C121	C	0.520589	-0.698398	0.000037
H122	H	0.536324	-0.658129	-0.040958
H123	H	0.484070	-0.710600	-0.062861
H124	H	0.504697	-0.689915	0.103948
H125	H	0.817806	-0.499645	0.000135
H126	H	-0.034198	-0.022693	0.000185
O127	O	0.517292	-0.463277	-0.000040
C128	C	0.471940	-0.418073	-0.000026
H129	H	0.487682	-0.377805	-0.041017
H130	H	0.435423	-0.430272	-0.062934
H131	H	0.456043	-0.409587	0.103881
H132	H	0.526850	-0.352066	0.000028
H133	H	0.138375	-0.072634	0.000228
H134	H	0.512280	-0.016146	0.000119
H135	H	0.770443	-0.111587	0.000202
H136	H	0.769159	-0.219337	0.000157
O137	O	0.373151	0.179124	0.000019
C138	C	0.405867	0.225410	0.000024
H139	H	0.450281	0.210687	-0.040977
H140	H	0.383762	0.261519	-0.062880
H141	H	0.410013	0.241452	0.103929
H142	H	0.819097	-0.391900	0.000159
