data_functionalizedCrystal
_audit_creation_method	'MofGen! by Chris Wilmer'
_symmetry_space_group_name_H-M	'P1'
_symmetry_Int_Tables_number	1
_symmetry_cell_setting	triclinic
loop_
_symmetry_equiv_pos_as_xyz
  x,y,z
_cell_length_a	12.645330
_cell_length_b	16.120530
_cell_length_c	12.645323
_cell_angle_alpha	87.080466
_cell_angle_beta	89.975130
_cell_angle_gamma	87.113442
loop_
_atom_site_label
_atom_site_type_symbol
_atom_site_fract_x
_atom_site_fract_y
_atom_site_fract_z
Zn1	Zn	-0.504324	1.274613	-0.681531
Zn2	Zn	-0.681606	1.274520	-0.504265
Zn3	Zn	-0.495361	1.135188	-0.495296
Zn4	Zn	-0.672543	1.135173	-0.672507
O5	O	-0.588458	1.204873	-0.588400
O6	O	-0.535384	1.391267	-0.665546
O7	O	-0.656942	1.256004	-0.354726
O8	O	-0.348206	1.153728	-0.520024
O9	O	-0.665632	1.391199	-0.535310
O10	O	-0.354790	1.256163	-0.656850
O11	O	-0.520109	1.153638	-0.348137
O12	O	-0.511321	1.018519	-0.511274
O13	O	-0.650186	1.153703	-0.822053
O14	O	-0.641496	1.018509	-0.641469
O15	O	-0.526596	1.256149	-0.828683
O16	O	-0.828748	1.255990	-0.526559
O17	O	-0.822089	1.153613	-0.650166
C18	C	-0.574453	0.988264	-0.574420
C19	C	-0.568487	0.895597	-0.568464
C20	C	-0.557570	0.725934	-0.557600
C21	C	-0.619425	0.684653	-0.619278
C22	C	-0.613350	0.590247	-0.613233
C23	C	-0.563643	0.820349	-0.563643
C24	C	-0.863884	1.204813	-0.588381
C25	C	-0.981717	1.204863	-0.588413
C26	C	-1.145154	1.140723	-0.666444
C27	C	-1.022573	1.140395	-0.666159
C28	C	-1.024776	1.181077	-0.475160
C29	C	-1.147349	1.180685	-0.475633
C30	C	-1.154509	1.293181	-0.622756
C31	C	-1.031867	1.292640	-0.625164
C32	C	-0.311958	1.204957	-0.588443
C33	C	-0.194131	1.204993	-0.588462
C34	C	-0.588380	1.204935	-0.864909
C35	C	-0.588347	1.204961	-0.982741
C36	C	-0.602519	1.422329	-0.602435
C37	C	-0.608511	1.514996	-0.608416
C38	C	-0.665699	1.140314	-1.146121
C39	C	-0.666113	1.140483	-1.023572
C40	C	-0.624337	1.292806	-1.032918
C41	C	-0.624825	1.292452	-1.155494
C42	C	-0.474603	1.182593	-1.148498
C43	C	-0.475149	1.180634	-1.025766
C44	C	-0.588463	1.204860	-0.312969
C45	C	-0.588208	1.204996	-0.195148
H46	H	-0.500058	0.690377	-0.500259
Cl47	Cl	-0.753304	1.321766	-1.201559
Cl48	Cl	-0.984279	1.251055	-0.382612
Cl49	Cl	-0.977496	1.163368	-0.795539
H50	H	-0.750216	1.155272	-0.995211
Cl51	Cl	-0.708221	0.739551	-0.707821
Cl52	Cl	-0.380592	1.248065	-0.982849
Cl53	Cl	-1.192037	1.163482	-0.796234
Cl54	Cl	-1.186408	1.040416	-0.631113
Cl55	Cl	-0.970912	1.039454	-0.630393
H56	H	-0.416800	1.229704	-1.180546
Cl57	Cl	-0.988651	1.320339	-0.753892
H58	H	-0.442903	1.119652	-1.175349
H59	H	-1.171878	1.116219	-0.447241
Cl60	Cl	-0.989564	1.370468	-0.544562
Cl61	Cl	-0.971165	1.082580	-0.430713
H62	H	-1.179897	1.225465	-0.415244
Cl63	Cl	-1.204059	1.367113	-0.535190
H64	H	-0.749272	1.154958	-1.177883
Cl65	Cl	-1.204289	1.326681	-0.748557
H66	H	-0.642935	1.075343	-0.989275
H67	H	-0.642691	1.074980	-1.171387
H68	H	-0.571142	1.342279	-1.188381
H69	H	-0.569931	1.342291	-1.006970
Cl70	Cl	-0.751522	1.322629	-0.987462
Cl71	Cl	-0.433406	1.080819	-0.974425
