data_functionalizedCrystal
_audit_creation_method	'MofGen! by Chris Wilmer'
_symmetry_space_group_name_H-M	'P1'
_symmetry_Int_Tables_number	1
_symmetry_cell_setting	triclinic
loop_
_symmetry_equiv_pos_as_xyz
  x,y,z
_cell_length_a	14.519709
_cell_length_b	16.109302
_cell_length_c	14.586319
_cell_angle_alpha	89.994552
_cell_angle_beta	89.997598
_cell_angle_gamma	96.429037
loop_
_atom_site_label
_atom_site_type_symbol
_atom_site_fract_x
_atom_site_fract_y
_atom_site_fract_z
O1	O	-0.118543	1.103336	-0.076269
O2	O	-0.133295	0.861299	-0.076260
O3	O	0.008333	0.988735	-0.076273
O4	O	-0.260171	0.975900	-0.076256
O5	O	0.008335	0.988726	0.076208
O6	O	-0.133292	0.861290	0.076221
O7	O	-0.118541	1.103327	0.076212
Cu8	Cu	-0.125917	0.982308	0.090139
Cu9	Cu	-0.125919	0.982318	-0.090187
O10	O	-0.260169	0.975891	0.076225
C11	C	-0.132696	0.830319	-0.000019
C12	C	-0.130904	0.738021	-0.000016
C13	C	-0.126760	0.525668	0.083092
C14	C	-0.125066	0.438945	0.083089
C15	C	-0.125073	0.438965	-0.083154
C16	C	-0.126760	0.525687	-0.083150
C17	C	-0.127608	0.569036	-0.000024
C18	C	-0.124228	0.395590	-0.000032
C19	C	-0.122391	0.301562	-0.000036
C20	C	-0.129442	0.663071	-0.000020
C21	C	-0.294528	0.976494	-0.000013
C22	C	-0.396906	0.978286	-0.000007
C23	C	-0.771788	0.984885	-0.000044
C24	C	-0.667484	0.983053	-0.000033
C25	C	-0.584350	0.981586	-0.000025
C26	C	-0.480039	0.979753	-0.000016
C27	C	0.042693	0.988132	-0.000037
C28	C	0.145070	0.986340	-0.000049
C29	C	-0.119140	1.134307	-0.000031
C30	C	-0.120932	1.226605	-0.000040
N31	N	-0.125914	0.982306	0.216971
N32	N	-0.125914	0.982326	-0.217019
C33	C	-0.063222	1.038754	0.451972
C34	C	-0.063220	1.038756	0.547953
C35	C	-0.188609	0.925873	0.547974
C36	C	-0.188606	0.925867	0.451994
C37	C	-0.125914	0.982312	0.403996
C38	C	-0.125914	0.982320	0.595956
C39	C	-0.125913	0.982323	0.700024
C40	C	-0.125914	0.982309	0.299922
H41	H	-0.124384	0.403660	-0.150832
H42	H	-0.012173	1.084713	0.412893
H43	H	-0.124376	0.403638	0.150770
C44	C	-0.126609	0.517002	-0.247482
C45	C	-0.127697	0.573363	-0.174519
H46	H	-0.127190	0.546437	-0.303885
H47	H	-0.072207	0.489439	-0.244035
H48	H	-0.179702	0.476913	-0.244015
H49	H	-0.074600	0.613448	-0.177981
H50	H	-0.182104	0.600939	-0.177968
C51	C	0.060710	1.150341	0.538285
C52	C	0.005688	1.100802	0.600688
H53	H	0.103250	1.188650	0.570843
H54	H	0.093895	1.115686	0.500856
H55	H	0.022299	1.180296	0.500844
H56	H	0.044099	1.070842	0.638124
H57	H	-0.027499	1.135461	0.638132
C58	C	-0.207883	0.613947	0.179558
C59	C	-0.127682	0.573317	0.174463
H60	H	-0.208450	0.643358	0.235972
H61	H	-0.208625	0.652188	0.130066
H62	H	-0.260966	0.573847	0.176107
H63	H	-0.074599	0.613418	0.177907
H64	H	-0.126931	0.535073	0.223969
C65	C	-0.244297	0.875766	0.695114
C66	C	-0.257527	0.863839	0.600737
H67	H	-0.286851	0.837472	0.727684
H68	H	-0.182753	0.866643	0.710842
H69	H	-0.254330	0.931270	0.710821
H70	H	-0.247487	0.808336	0.585029
H71	H	-0.319085	0.872955	0.585003
C72	C	-0.312560	0.814289	0.461648
C73	C	-0.257524	0.863824	0.399252
H74	H	-0.355106	0.775991	0.429085
H75	H	-0.274165	0.784330	0.499087
H76	H	-0.345745	0.848954	0.499079
H77	H	-0.224334	0.829160	0.361825
H78	H	-0.295924	0.893785	0.361797
