data_functionalizedCrystal
_audit_creation_method	'MofGen! by Chris Wilmer'
_symmetry_space_group_name_H-M	'P1'
_symmetry_Int_Tables_number	1
_symmetry_cell_setting	triclinic
loop_
_symmetry_equiv_pos_as_xyz
  x,y,z
_cell_length_a	16.992694
_cell_length_b	16.992695
_cell_length_c	15.455313
_cell_angle_alpha	92.847427
_cell_angle_beta	87.142206
_cell_angle_gamma	90.668223
loop_
_atom_site_label
_atom_site_type_symbol
_atom_site_fract_x
_atom_site_fract_y
_atom_site_fract_z
O1	O	1.054080	0.163694	-0.072023
O2	O	0.825681	0.161862	-0.072048
O3	O	0.938965	0.048579	-0.072029
O4	O	0.940797	0.276978	-0.072042
O5	O	0.932485	0.055028	0.072232
O6	O	0.819202	0.168312	0.072213
O7	O	1.047601	0.170144	0.072238
Cu8	Cu	0.932809	0.169817	0.085398
Cu9	Cu	0.940473	0.162189	-0.085207
O10	O	0.934317	0.283428	0.072219
C11	C	0.793081	0.162731	0.000079
C12	C	0.705597	0.155702	0.000070
C13	C	0.659607	0.223520	0.000066
C14	C	0.577405	0.216911	0.000079
C15	C	0.541197	0.142484	0.000088
C16	C	0.587193	0.074661	0.000094
C17	C	0.669393	0.081271	0.000088
C18	C	0.295881	0.115091	0.000113
C19	C	0.213676	0.108486	0.000116
C20	C	0.203893	0.250737	0.000103
C21	C	0.286095	0.257340	0.000091
C22	C	0.332084	0.189517	0.000102
N23	N	0.457174	0.135727	0.000098
N24	N	0.416105	0.196275	0.000098
C25	C	0.933369	0.022443	0.000102
C26	C	0.926341	-0.065041	0.000101
C27	C	0.994158	-0.111032	0.000109
C28	C	0.987550	-0.193233	0.000100
C29	C	0.913123	-0.229442	0.000089
C30	C	0.845300	-0.183445	0.000078
C31	C	0.851910	-0.101246	0.000081
C32	C	0.885729	-0.474757	0.000074
C33	C	0.879124	-0.556962	0.000074
C34	C	1.021375	-0.566744	0.000094
C35	C	1.027977	-0.484543	0.000102
C36	C	0.960155	-0.438554	0.000087
N37	N	0.906366	-0.313464	0.000082
N38	N	0.966913	-0.354533	0.000087
C39	C	1.080201	0.169275	0.000109
C40	C	1.167685	0.176304	0.000113
C41	C	0.939913	0.309563	0.000087
C42	C	0.946942	0.397047	0.000082
N43	N	0.927425	0.175181	0.205392
N44	N	0.945863	0.156819	-0.205202
C45	C	0.975571	0.127074	0.250795
C46	C	0.971507	0.131139	0.341602
C47	C	0.919301	0.183315	0.387005
C48	C	0.871149	0.231424	0.341596
C49	C	0.875210	0.227355	0.250791
C50	C	0.901772	0.200858	0.658584
C51	C	0.897717	0.204926	0.749395
C52	C	0.998074	0.104639	0.749395
C53	C	1.002133	0.100578	0.658588
C54	C	0.953979	0.148684	0.613187
N55	N	0.915147	0.187473	0.479825
N56	N	0.958129	0.144522	0.520369
H57	H	0.333316	0.059864	0.000122
H58	H	0.706838	0.026046	0.000090
H59	H	1.010711	0.091966	0.378568
F60	F	0.548655	-0.004550	0.000110
H61	H	0.830503	-0.437322	0.000061
H62	H	0.796685	-0.063801	0.000073
F63	F	0.324625	0.336555	0.000077
F64	F	0.766089	-0.221984	0.000056
F65	F	0.698135	0.302736	0.000050
H66	H	1.044644	0.058092	0.621622
F67	F	1.107194	-0.446014	0.000092
H68	H	1.037278	0.065473	0.786369
F69	F	1.031141	0.071545	0.202482
F70	F	0.154943	0.322913	0.000093
H71	H	1.054764	-0.081557	0.000124
F72	F	0.815582	0.286951	0.389918
H73	H	0.862564	0.240030	0.621625
F74	F	0.799905	-0.595496	0.000066
F75	F	0.823964	0.278555	0.202472
H76	H	0.539963	0.272136	0.000075
F77	F	0.175141	0.029268	0.000142
F78	F	0.842149	0.260464	0.797711
H79	H	1.076591	-0.604197	0.000106
F80	F	1.059731	-0.242176	0.000111
