data_functionalizedCrystal
_audit_creation_method	'MofGen! by Chris Wilmer'
_symmetry_space_group_name_H-M	'P1'
_symmetry_Int_Tables_number	1
_symmetry_cell_setting	triclinic
loop_
_symmetry_equiv_pos_as_xyz
  x,y,z
_cell_length_a	19.805407
_cell_length_b	19.805405
_cell_length_c	19.805399
_cell_angle_alpha	89.973385
_cell_angle_beta	89.982197
_cell_angle_gamma	90.024042
loop_
_atom_site_label
_atom_site_type_symbol
_atom_site_fract_x
_atom_site_fract_y
_atom_site_fract_z
Zn1	Zn	1.034734	-0.269527	-0.382692
Zn2	Zn	1.534734	0.230473	0.117308
Zn3	Zn	1.034648	-0.382716	-0.269506
Zn4	Zn	1.534648	0.117284	0.230494
Zn5	Zn	0.921549	-0.269541	-0.269520
Zn6	Zn	1.421549	0.230459	0.230480
Zn7	Zn	0.921512	-0.382674	-0.382656
Zn8	Zn	1.421512	0.117326	0.117344
O9	O	0.978111	-0.326115	-0.326094
O10	O	1.478111	0.173885	0.173906
O11	O	1.129439	-0.284554	-0.367687
O12	O	1.629439	0.215446	0.132313
O13	O	1.019625	-0.367726	-0.174791
O14	O	1.519625	0.132274	0.325209
O15	O	0.936615	-0.174822	-0.284554
O16	O	1.436615	0.325178	0.215446
O17	O	1.129376	-0.367713	-0.284529
O18	O	1.629376	0.132287	0.215471
O19	O	1.019771	-0.174813	-0.367701
O20	O	1.519771	0.325187	0.132299
O21	O	0.936531	-0.284576	-0.174802
O22	O	1.436531	0.215424	0.325198
O23	O	0.826827	-0.284536	-0.284519
O24	O	1.326827	0.215464	0.215481
O25	O	0.936551	-0.367642	-0.477378
O26	O	1.436551	0.132358	0.022622
O27	O	0.826800	-0.367655	-0.367639
O28	O	1.326800	0.132345	0.132361
O29	O	1.019735	-0.284514	-0.477404
O30	O	1.519735	0.215486	0.022596
O31	O	1.019589	-0.477427	-0.284494
O32	O	1.519589	0.022573	0.215506
O33	O	0.936468	-0.477396	-0.367625
O34	O	1.436468	0.022604	0.132375
C35	C	0.802255	-0.326093	-0.326077
C36	C	1.302255	0.173907	0.173923
C37	C	0.727023	-0.326101	-0.326086
C38	C	1.227023	0.173899	0.173914
C39	C	0.691712	-0.282876	-0.369452
C40	C	1.191712	0.217124	0.130548
C41	C	0.621024	-0.282880	-0.369455
C42	C	1.121024	0.217120	0.130545
C43	C	0.585647	-0.326112	-0.326094
C44	C	1.085647	0.173888	0.173906
C45	C	0.620963	-0.369338	-0.282724
C46	C	1.120963	0.130662	0.217276
C47	C	0.691650	-0.369330	-0.282718
C48	C	1.191650	0.130670	0.217282
C49	C	0.335890	-0.369368	-0.282744
C50	C	0.835890	0.130632	0.217256
C51	C	0.265197	-0.369374	-0.282755
C52	C	0.765197	0.130626	0.217245
C53	C	0.265263	-0.282918	-0.369481
C54	C	0.765263	0.217082	0.130519
C55	C	0.335950	-0.282910	-0.369476
C56	C	0.835950	0.217090	0.130524
C57	C	0.371260	-0.326134	-0.326103
C58	C	0.871260	0.173866	0.173897
C59	C	0.447908	-0.326128	-0.326099
C60	C	0.947908	0.173872	0.173901
C61	C	0.509000	-0.326121	-0.326100
C62	C	1.009000	0.173879	0.173900
C63	C	0.978034	-0.501971	-0.326069
C64	C	1.478034	-0.001971	0.173931
C65	C	0.978063	-0.577203	-0.326081
C66	C	1.478063	-0.077203	0.173919
C67	C	1.021337	-0.612483	-0.369410
C68	C	1.521337	-0.112483	0.130590
C69	C	1.021361	-0.683172	-0.369422
C70	C	1.521361	-0.183172	0.130578
C71	C	0.978114	-0.718578	-0.326103
C72	C	1.478114	-0.218578	0.173897
C73	C	0.934835	-0.683292	-0.282772
C74	C	1.434835	-0.183292	0.217228
C75	C	0.934808	-0.612605	-0.282763
C76	C	1.434808	-0.112605	0.217237
C77	C	0.934944	-0.968366	-0.282807
C78	C	1.434944	-0.468366	0.217193
C79	C	0.934976	-1.039058	-0.282817
C80	C	1.434976	-0.539058	0.217183
C81	C	1.021497	-1.038932	-0.369466
C82	C	1.521497	-0.538932	0.130534
C83	C	1.021470	-0.968245	-0.369457
C84	C	1.521470	-0.468245	0.130543
C85	C	0.978189	-0.932965	-0.326129
C86	C	1.478189	-0.432965	0.173871
C87	C	0.978162	-0.856317	-0.326117
C88	C	1.478162	-0.356317	0.173883
C89	C	0.978144	-0.795225	-0.326111
C90	C	1.478144	-0.295225	0.173889
C91	C	1.154653	-0.326136	-0.326111
C92	C	1.654653	0.173864	0.173889
C93	C	1.229885	-0.326146	-0.326118
C94	C	1.729885	0.173854	0.173882
C95	C	0.978149	-0.326072	-0.502636
C96	C	1.478149	0.173928	-0.002636
C97	C	0.978165	-0.326054	-0.577868
C98	C	1.478165	0.173946	-0.077868
C99	C	0.978207	-0.149572	-0.326133
C100	C	1.478207	0.350428	0.173867
C101	C	0.978247	-0.074340	-0.326150
C102	C	1.478247	0.425660	0.173850
C103	C	1.021480	-0.282766	-0.613227
C104	C	1.521480	0.217234	-0.113227
C105	C	1.021487	-0.282747	-0.683916
C106	C	1.521487	0.217253	-0.183916
C107	C	0.978182	-0.326018	-0.719244
C108	C	1.478182	0.173982	-0.219244
C109	C	0.934862	-0.369308	-0.683880
C110	C	1.434862	0.130692	-0.183880
C111	C	0.934852	-0.369323	-0.613193
C112	C	1.434852	0.130677	-0.113193
C113	C	0.934900	-0.369244	-0.968954
C114	C	1.434900	0.130756	-0.468954
C115	C	0.934915	-0.369227	-1.039646
C116	C	1.434915	0.130773	-0.539646
C117	C	1.021535	-0.282668	-1.039677
C118	C	1.521535	0.217332	-0.539677
C119	C	1.021525	-0.282684	-0.968989
C120	C	1.521525	0.217316	-0.468989
C121	C	0.978203	-0.325970	-0.933632
C122	C	1.478203	0.174030	-0.433632
C123	C	0.978195	-0.325990	-0.856983
C124	C	1.478195	0.174010	-0.356983
C125	C	0.978193	-0.326002	-0.795891
C126	C	1.478193	0.173998	-0.295891
C127	C	0.978112	-0.326108	-0.150238
C128	C	1.478112	0.173892	0.349762
C129	C	0.978227	-0.325936	-0.075006
C130	C	1.478227	0.174064	0.424994
H131	H	0.236396	-0.404580	-0.247443
H132	H	0.736396	0.095420	0.252557
H133	H	1.056807	-0.247420	-1.068473
H134	H	1.556807	0.252580	-0.568473
O135	O	0.227181	-0.236285	-0.416255
O136	O	0.727181	0.263715	0.083745
H137	H	0.172084	-0.243543	-0.408970
H138	H	0.672084	0.256457	0.091030
O139	O	0.582811	-0.415964	-0.235950
O140	O	1.082811	0.084036	0.264050
H141	H	0.550611	-0.450449	-0.266183
H142	H	1.050611	0.049551	0.233817
H143	H	0.899704	-0.939647	-0.247527
H144	H	1.399704	-0.439647	0.252473
O145	O	0.373970	-0.415983	-0.235964
O146	O	0.873970	0.084017	0.264036
H147	H	0.337493	-0.446048	-0.205819
H148	H	0.837493	0.053952	0.294181
H149	H	0.899600	-0.404538	-0.712650
H150	H	1.399600	0.095462	-0.212650
H151	H	1.056791	-0.247450	-0.940229
H152	H	1.556791	0.252550	-0.440229
O153	O	0.888197	-0.721475	-0.236037
O154	O	1.388197	-0.221475	0.263963
H155	H	0.895494	-0.776556	-0.243313
H156	H	1.395494	-0.276556	0.256687
O157	O	0.374101	-0.236276	-0.416242
O158	O	0.874101	0.263724	0.083758
H159	H	0.406307	-0.266608	-0.450628
H160	H	0.906307	0.233392	0.049372
O161	O	0.888126	-0.416002	-0.575050
O162	O	1.388126	0.083998	-0.075050
H163	H	0.858014	-0.446090	-0.611490
H164	H	1.358014	0.053910	-0.111490
O165	O	1.067990	-0.574301	-0.416130
O166	O	1.567990	-0.074301	0.083870
H167	H	1.037668	-0.542094	-0.450534
H168	H	1.537668	-0.042094	0.049466
O169	O	0.888140	-0.574547	-0.236025
O170	O	1.388140	-0.074547	0.263975
H171	H	0.858078	-0.611041	-0.205898
H172	H	1.358078	-0.111041	0.294102
H173	H	1.056604	-0.711894	-0.404700
H174	H	1.556604	-0.211894	0.095300
O175	O	0.729868	-0.236243	-0.416216
O176	O	1.229868	0.263757	0.083784
H177	H	0.693435	-0.206182	-0.446365
H178	H	1.193435	0.293818	0.053635
O179	O	0.888198	-0.415892	-1.077754
O180	O	1.388198	0.084108	-0.577754
H181	H	0.858065	-0.445989	-1.041293
H182	H	1.358065	0.054011	-0.541293
H183	H	1.056737	-1.067665	-0.404747
H184	H	1.556737	-0.567665	0.095253
H185	H	0.592277	-0.247684	-0.404769
H186	H	1.092277	0.252316	0.095231
O187	O	0.888325	-1.077242	-0.236090
O188	O	1.388325	-0.577242	0.263910
H189	H	0.918653	-1.109435	-0.201679
H190	H	1.418653	-0.609435	0.298321
H191	H	1.056746	-0.247532	-0.584468
H192	H	1.556746	0.252468	-0.084468
H193	H	0.720399	-0.404528	-0.247405
H194	H	1.220399	0.095472	0.252595
H195	H	1.056688	-0.939419	-0.404730
H196	H	1.556688	-0.439419	0.095270
H197	H	1.056760	-0.247500	-0.712702
H198	H	1.556760	0.252500	-0.212702
H199	H	0.899635	-0.404501	-0.940174
H200	H	1.399635	0.095499	-0.440174
