data_functionalizedCrystal
_audit_creation_method	'MofGen! by Chris Wilmer'
_symmetry_space_group_name_H-M	'P1'
_symmetry_Int_Tables_number	1
_symmetry_cell_setting	triclinic
loop_
_symmetry_equiv_pos_as_xyz
  x,y,z
_cell_length_a	14.971491
_cell_length_b	19.288874
_cell_length_c	13.448316
_cell_angle_alpha	89.992874
_cell_angle_beta	89.991393
_cell_angle_gamma	83.378230
loop_
_atom_site_label
_atom_site_type_symbol
_atom_site_fract_x
_atom_site_fract_y
_atom_site_fract_z
O1	O	1.186459	0.090534	-0.082736
O2	O	1.686459	0.590534	0.417264
O3	O	0.926002	0.101370	-0.082728
O4	O	1.426002	0.601370	0.417272
O5	O	1.063752	-0.005153	-0.082724
O6	O	1.563752	0.494847	0.417276
O7	O	1.048709	0.197057	-0.082740
O8	O	1.548709	0.697057	0.417260
O9	O	1.063735	-0.005160	0.082659
O10	O	1.563735	0.494840	0.582659
O11	O	0.925984	0.101363	0.082655
O12	O	1.425984	0.601363	0.582655
O13	O	1.186442	0.090527	0.082648
O14	O	1.686442	0.590527	0.582648
Cu15	Cu	1.056212	0.095945	0.097753
Cu16	Cu	1.556212	0.595945	0.597753
Cu17	Cu	1.056232	0.095953	-0.097833
Cu18	Cu	1.556232	0.595953	0.402167
O19	O	1.048692	0.197051	0.082644
O20	O	1.548692	0.697051	0.582644
C21	C	0.892671	0.100881	-0.000035
C22	C	1.392671	0.600881	0.499965
C23	C	0.793382	0.099427	-0.000033
C24	C	1.293382	0.599427	0.499967
C25	C	0.365719	0.093156	-0.090206
C26	C	0.865719	0.593156	0.409794
C27	C	0.459012	0.094520	-0.090202
C28	C	0.959012	0.594520	0.409798
C29	C	0.505645	0.095203	-0.000048
C30	C	1.005645	0.595203	0.499952
C31	C	0.458981	0.094515	0.090108
C32	C	0.958981	0.594515	0.590108
C33	C	0.365691	0.093146	0.090104
C34	C	0.865691	0.593146	0.590104
C35	C	0.653428	0.097371	0.090112
C36	C	1.153428	0.597371	0.590112
C37	C	0.746724	0.098741	0.090117
C38	C	1.246724	0.598741	0.590117
C39	C	0.746749	0.098745	-0.090194
C40	C	1.246749	0.598745	0.409806
C41	C	0.653459	0.097376	-0.090199
C42	C	1.153459	0.597376	0.409801
C43	C	0.606801	0.096689	-0.000042
C44	C	1.106801	0.596689	0.499958
C45	C	1.063258	-0.031034	-0.000033
C46	C	1.563258	0.468966	0.499967
C47	C	1.061800	-0.108142	-0.000033
C48	C	1.561800	0.391858	0.499967
C49	C	1.051327	-0.663750	0.090094
C50	C	1.551327	-0.163750	0.590094
C51	C	1.052687	-0.591297	0.090099
C52	C	1.552687	-0.091297	0.590099
C53	C	1.053380	-0.555060	-0.000050
C54	C	1.553380	-0.055060	0.499950
C55	C	1.052691	-0.591279	-0.090212
C56	C	1.552691	-0.091279	0.409788
C57	C	1.051322	-0.663729	-0.090215
C58	C	1.551322	-0.163729	0.409785
C59	C	1.107943	-0.445548	-0.069116
C60	C	1.607943	0.054452	0.430884
C61	C	1.109317	-0.373100	-0.069110
C62	C	1.609317	0.126900	0.430890
C63	C	1.057597	-0.331600	-0.000046
C64	C	1.557597	0.168400	0.499954
C65	C	1.004515	-0.362559	0.069029
C66	C	1.504515	0.137441	0.569029
C67	C	1.003147	-0.435009	0.069026
C68	C	1.503147	0.064991	0.569026
C69	C	1.054864	-0.476501	-0.000058
C70	C	1.554864	0.023499	0.499942
C71	C	1.059754	-0.216829	0.090116
C72	C	1.559754	0.283171	0.590116
C73	C	1.061108	-0.144375	0.090118
C74	C	1.561108	0.355625	0.590118
C75	C	1.061122	-0.144359	-0.090196
C76	C	1.561122	0.355641	0.409804
C77	C	1.059759	-0.216811	-0.090195
C78	C	1.559759	0.283189	0.409805
C79	C	1.059079	-0.253042	-0.000036
C80	C	1.559079	0.246958	0.499964
C81	C	1.219773	0.091016	-0.000047
C82	C	1.719773	0.591016	0.499953
C83	C	1.319062	0.092470	-0.000056
C84	C	1.819062	0.592470	0.499944
C85	C	1.049186	0.222932	-0.000050
C86	C	1.549186	0.722932	0.499950
C87	C	1.050643	0.300040	-0.000056
C88	C	1.550643	0.800040	0.499944
N89	N	1.056204	0.095939	0.235317
N90	N	1.556204	0.595939	0.735317
N91	N	1.056247	0.095953	-0.235397
N92	N	1.556247	0.595953	0.264603
C93	C	1.117218	0.048790	0.287359
C94	C	1.617218	0.548790	0.787359
C95	C	1.117224	0.048789	0.391462
C96	C	1.617224	0.548789	0.891462
C97	C	1.056218	0.095942	0.443522
C98	C	1.556218	0.595942	0.943522
C99	C	0.995197	0.143093	0.391472
C100	C	1.495197	0.643093	0.891472
C101	C	0.995188	0.143090	0.287371
C102	C	1.495188	0.643090	0.787371
C103	C	0.995222	0.143098	0.608452
C104	C	1.495222	0.643098	1.108452
C105	C	0.995232	0.143102	0.712561
C106	C	1.495232	0.643102	1.212561
C107	C	1.117258	0.048797	0.712544
C108	C	1.617258	0.548797	1.212544
C109	C	1.117249	0.048794	0.608442
C110	C	1.617249	0.548794	1.108442
C111	C	1.056229	0.095946	0.556400
C112	C	1.556229	0.595946	1.056400
H113	H	0.327757	0.092605	-0.163620
H114	H	0.827757	0.592605	0.336380
N115	N	1.050568	-0.702822	0.187334
N116	N	1.550568	-0.202822	0.687334
H117	H	1.049593	-0.754214	0.173657
H118	H	1.549593	-0.254214	0.673657
H119	H	1.106238	-0.695749	0.226707
H120	H	1.606238	-0.195749	0.726707
H121	H	1.053227	-0.561807	0.163512
H122	H	1.553227	-0.061807	0.663512
N123	N	0.509339	0.095251	-0.187434
N124	N	1.009339	0.595251	0.312566
H125	H	0.465641	0.094613	-0.244546
H126	H	0.965641	0.594613	0.255454
H127	H	0.540629	0.138841	-0.191370
H128	H	1.040629	0.638841	0.308630
N129	N	1.053381	-0.552168	-0.187425
N130	N	1.553381	-0.052168	0.312575
H131	H	1.109367	-0.527673	-0.191470
H132	H	1.609367	-0.027673	0.308530
H133	H	1.052686	-0.586122	-0.244505
H134	H	1.552686	-0.086122	0.255495
N135	N	1.163719	-0.490304	-0.143620
N136	N	1.663719	0.009696	0.356380
H137	H	1.197557	-0.459700	-0.187372
H138	H	1.697557	0.040300	0.312628
H139	H	1.207899	-0.524877	-0.107230
H140	H	1.707899	-0.024877	0.392770
N141	N	0.929402	0.193949	0.447626
N142	N	1.429402	0.693949	0.947626
H143	H	0.939500	0.243260	0.429491
H144	H	1.439500	0.743260	0.929491
H145	H	0.865983	0.185806	0.429512
H146	H	1.365983	0.685806	0.929512
N147	N	1.050600	-0.702789	-0.187454
N148	N	1.550600	-0.202789	0.312546
H149	H	1.049632	-0.754184	-0.173775
H150	H	1.549632	-0.254184	0.326225
H151	H	0.995405	-0.684542	-0.226820
H152	H	1.495405	-0.184542	0.273180
H153	H	0.945554	0.181498	0.754942
H154	H	1.445554	0.681498	1.254942
N155	N	0.603156	0.096638	-0.187431
N156	N	1.103156	0.596638	0.312569
H157	H	0.611971	0.139899	-0.226855
H158	H	1.111971	0.639899	0.273145
H159	H	0.626845	0.053823	-0.226758
H160	H	1.126845	0.553823	0.273242
H161	H	0.784742	0.099305	-0.163603
H162	H	1.284742	0.599305	0.336397
H163	H	1.152544	-0.347899	-0.125350
H164	H	1.652544	0.152101	0.374650
N165	N	0.797025	0.099476	0.187351
N166	N	1.297025	0.599476	0.687351
H167	H	0.753314	0.098827	0.244465
H168	H	1.253314	0.598827	0.744465
H169	H	0.843156	0.057019	0.191274
H170	H	1.343156	0.557019	0.691274
H171	H	1.166900	0.010396	0.244979
H172	H	1.666900	0.510396	0.744979
N173	N	0.929376	0.193939	0.231234
N174	N	1.429376	0.693939	0.731234
H175	H	0.890730	0.223811	0.280008
H176	H	1.390730	0.723811	0.780008
H177	H	0.963484	0.224691	0.188021
H178	H	1.463484	0.724691	0.688021
N179	N	1.183063	-0.002040	0.447595
N180	N	1.683063	0.497960	0.947595
H181	H	1.221722	-0.031900	0.398819
H182	H	1.721722	0.468100	0.898819
H183	H	1.222481	0.024634	0.490750
H184	H	1.722481	0.524634	0.990750
N185	N	1.061843	-0.105315	0.187355
N186	N	1.561843	0.394685	0.687355
H187	H	1.061208	-0.139264	0.244466
H188	H	1.561208	0.360736	0.744466
H189	H	1.117846	-0.080836	0.191271
H190	H	1.617846	0.419164	0.691271
N191	N	0.603105	0.096625	0.187352
N192	N	1.103105	0.596625	0.687352
H193	H	0.646886	0.096775	0.244462
H194	H	1.146886	0.596775	0.744462
H195	H	0.557405	0.139334	0.191577
H196	H	1.057405	0.639334	0.691577
H197	H	0.496958	0.095067	0.163513
H198	H	0.996958	0.595067	0.663513
H199	H	1.059194	-0.246329	0.163529
H200	H	1.559194	0.253671	0.663529
H201	H	0.959926	-0.460213	0.125269
H202	H	1.459926	0.039787	0.625269
H203	H	0.945530	0.181492	0.566083
H204	H	1.445530	0.681492	1.066083
H205	H	1.166928	0.010403	0.566056
H206	H	1.666928	0.510403	1.066056
H207	H	0.327702	0.092595	0.163513
H208	H	0.827702	0.592595	0.663513
N209	N	0.948727	-0.317811	0.143527
N210	N	1.448727	0.182189	0.643527
H211	H	0.957641	-0.267216	0.133047
H212	H	1.457641	0.232784	0.633047
H213	H	0.883142	-0.323898	0.134280
H214	H	1.383142	0.176102	0.634280
N215	N	1.061857	-0.105284	-0.187432
N216	N	1.561857	0.394716	0.312568
H217	H	1.062824	-0.053892	-0.173753
H218	H	1.562824	0.446108	0.326247
H219	H	1.117056	-0.123525	-0.226809
H220	H	1.617056	0.376475	0.273191
N221	N	1.059103	-0.255880	-0.187429
N222	N	1.559103	0.244120	0.312571
H223	H	1.059775	-0.221935	-0.244539
H224	H	1.559775	0.278065	0.255461
H225	H	1.113999	-0.291501	-0.191300
H226	H	1.613999	0.208499	0.308700
N227	N	1.183076	-0.002060	0.768667
N228	N	1.683076	0.497940	1.268667
H229	H	1.173825	0.005093	0.842514
H230	H	1.673825	0.505093	1.342514
H231	H	1.172948	-0.051349	0.750483
H232	H	1.672948	0.448651	1.250483
