data_functionalizedCrystal
_audit_creation_method	'MofGen! by Chris Wilmer'
_symmetry_space_group_name_H-M	'P1'
_symmetry_Int_Tables_number	1
_symmetry_cell_setting	triclinic
loop_
_symmetry_equiv_pos_as_xyz
  x,y,z
_cell_length_a	14.853567
_cell_length_b	10.540539
_cell_length_c	13.330367
_cell_angle_alpha	89.997527
_cell_angle_beta	89.995418
_cell_angle_gamma	84.080211
loop_
_atom_site_label
_atom_site_type_symbol
_atom_site_fract_x
_atom_site_fract_y
_atom_site_fract_z
O1	O	1.197288	0.165727	-0.083349
O2	O	0.934938	0.185470	-0.083366
O3	O	1.072099	-0.009174	-0.083356
O4	O	1.060128	0.360371	-0.083359
O5	O	1.072079	-0.009178	0.083491
O6	O	0.934918	0.185465	0.083481
O7	O	1.197268	0.165723	0.083498
Cu8	Cu	1.066092	0.175594	0.098724
Cu9	Cu	1.066115	0.175599	-0.098592
O10	O	1.060108	0.360367	0.083488
C11	C	0.901335	0.184573	0.000055
C12	C	0.801236	0.181892	0.000049
C13	C	0.387998	0.054938	0.000072
C14	C	0.368000	0.286179	0.000069
C15	C	0.462048	0.288700	0.000066
C16	C	0.519075	0.174338	0.000065
C17	C	0.482055	0.057455	0.000066
C18	C	0.499075	0.405580	0.000054
C19	C	0.593129	0.408105	0.000050
C20	C	0.650158	0.293742	0.000056
C21	C	0.613132	0.176855	0.000058
C22	C	0.670159	0.062493	0.000057
C23	C	0.633135	-0.054396	0.000067
C24	C	0.539084	-0.056908	0.000072
C25	C	0.744209	0.296254	0.000050
C26	C	0.764216	0.065010	0.000050
C27	C	1.071191	-0.056469	0.000066
C28	C	1.068505	-0.197388	0.000060
C29	C	0.965588	-0.379682	-0.000321
C30	C	0.968311	-0.233094	0.000055
C31	C	1.116712	-0.259578	0.095341
C32	C	1.113292	-0.406085	0.095421
C33	C	1.115353	-0.406621	-0.094315
C34	C	1.116276	-0.259649	-0.095575
C35	C	1.230872	0.166620	0.000074
C36	C	1.330971	0.169300	0.000074
C37	C	1.061016	0.407662	0.000064
C38	C	1.063702	0.548580	0.000063
N39	N	1.066081	0.175589	0.237505
N40	N	1.066133	0.175593	-0.237374
C41	C	1.005378	0.261753	0.710124
C42	C	1.126877	0.089435	0.710101
C43	C	1.126867	0.089431	0.605082
C44	C	1.066112	0.175591	0.552580
C45	C	1.005368	0.261754	0.605096
C46	C	1.187616	0.003277	0.552559
C47	C	1.187609	0.003271	0.447534
C48	C	1.126849	0.089426	0.395029
C49	C	1.066102	0.175592	0.447552
C50	C	1.005347	0.261752	0.395049
C51	C	0.944594	0.347913	0.447570
C52	C	0.944608	0.347909	0.552591
C53	C	1.126836	0.089430	0.290008
C54	C	1.005337	0.261753	0.290021
H55	H	0.508930	-0.152072	0.000104
C56	C	1.214968	-0.228024	-0.103339
N57	N	1.289308	-0.204208	-0.109177
H58	H	0.926162	-0.409458	0.067619
C59	C	0.347271	-0.073633	0.000083
N60	N	0.316594	-0.170474	0.000090
H61	H	1.237086	-0.066866	0.595309
C62	C	1.071446	-0.201544	0.191127
N63	N	1.037346	-0.157835	0.263270
H64	H	1.176304	0.019284	0.247250
C65	C	1.210637	-0.471963	0.101282
N66	N	1.283956	-0.521576	0.105703
C67	C	0.877767	0.442687	0.389804
N68	N	0.827434	0.514068	0.346290
C69	C	0.826939	-0.060801	0.000049
N70	N	0.874182	-0.155562	0.000047
C71	C	0.305268	0.411970	0.000071
N72	N	0.258013	0.506721	0.000077
H73	H	0.452638	0.498687	0.000045
C74	C	0.877781	0.442672	0.610371
N75	N	0.827447	0.514044	0.653896
C76	C	0.938547	0.356517	0.767896
N77	N	0.888208	0.427892	0.811412
H78	H	0.774350	0.391423	0.000044
C79	C	0.633846	0.536684	0.000055
N80	N	0.664515	0.633530	0.000065
C81	C	0.917058	-0.174968	-0.092213
N82	N	0.878448	-0.131193	-0.161709
H83	H	0.679579	-0.147509	0.000058
C84	C	0.912121	-0.417742	-0.092622
N85	N	0.871848	-0.446421	-0.162144
H86	H	0.955860	0.331911	0.247280
C87	C	1.213119	-0.471504	-0.095180
N88	N	1.286753	-0.520382	-0.095824
C89	C	0.916687	-0.176113	0.092477
N90	N	0.877804	-0.133196	0.162095
C91	C	1.216109	-0.230448	0.100150
N92	N	1.290974	-0.208496	0.103774
C93	C	1.071553	-0.448756	-0.191877
N94	N	1.038552	-0.480490	-0.265356
H95	H	1.077648	-0.433894	0.166641
C96	C	1.068670	-0.203852	-0.190803
N97	N	1.032805	-0.161829	-0.262527
C98	C	1.193704	-0.005335	0.767857
N99	N	1.244038	-0.076723	0.811363
C100	C	1.254431	-0.091517	0.389771
N101	N	1.304758	-0.162917	0.346263
