data_functionalizedCrystal
_audit_creation_method	'MofGen! by Chris Wilmer'
_symmetry_space_group_name_H-M	'P1'
_symmetry_Int_Tables_number	1
_symmetry_cell_setting	triclinic
loop_
_symmetry_equiv_pos_as_xyz
  x,y,z
_cell_length_a	14.044220
_cell_length_b	12.503572
_cell_length_c	12.837942
_cell_angle_alpha	93.896304
_cell_angle_beta	85.991091
_cell_angle_gamma	93.835250
loop_
_atom_site_label
_atom_site_type_symbol
_atom_site_fract_x
_atom_site_fract_y
_atom_site_fract_z
O1	O	1.285429	0.089203	-0.246491
O2	O	1.618763	0.422537	0.086843
O3	O	1.952096	0.755870	0.420176
O4	O	1.008640	0.089230	-0.237395
O5	O	1.341974	0.422564	0.095939
O6	O	1.675307	0.755897	0.429272
O7	O	1.140897	0.089211	-0.090473
O8	O	1.474230	0.422544	0.242861
O9	O	1.807564	0.755878	0.576194
O10	O	1.153173	0.089223	-0.393413
O11	O	1.486506	0.422556	-0.060079
O12	O	1.819839	0.755890	0.273254
O13	O	1.130952	-0.089430	-0.101542
O14	O	1.464286	0.243904	0.231791
O15	O	1.797619	0.577237	0.565124
O16	O	0.998696	-0.089410	-0.248464
O17	O	1.332029	0.243923	0.084869
O18	O	1.665362	0.577257	0.418202
O19	O	1.275485	-0.089437	-0.257560
O20	O	1.608818	0.243896	0.075773
O21	O	1.942151	0.577229	0.409107
Cu22	Cu	1.136182	-0.105735	-0.254023
Cu23	Cu	1.469515	0.227598	0.079310
Cu24	Cu	1.802849	0.560932	0.412644
Cu25	Cu	1.147943	0.105528	-0.240932
Cu26	Cu	1.481276	0.438861	0.092401
Cu27	Cu	1.814610	0.772195	0.425735
O28	O	1.143228	-0.089418	-0.404482
O29	O	1.476561	0.243916	-0.071149
O30	O	1.809895	0.577249	0.262185
C31	C	0.967994	-0.000086	-0.238948
C32	C	1.301327	0.333247	0.094385
C33	C	1.634661	0.666580	0.427718
C34	C	0.861696	-0.000076	-0.227074
C35	C	1.195030	0.333257	0.106260
C36	C	1.528363	0.666591	0.439593
C37	C	0.667073	-0.000098	-0.205366
C38	C	1.000406	0.333235	0.127967
C39	C	1.333740	0.666569	0.461300
C40	C	0.617047	-0.000099	-0.289583
C41	C	0.950380	0.333234	0.043750
C42	C	1.283713	0.666567	0.377083
C43	C	0.508751	-0.000112	-0.277505
C44	C	0.842085	0.333222	0.055828
C45	C	1.175418	0.666555	0.389161
C46	C	0.775378	-0.000086	-0.217443
C47	C	1.108711	0.333248	0.115890
C48	C	1.442045	0.666581	0.449224
N49	N	1.127917	-0.254326	-0.263230
N50	N	1.461251	0.079007	0.070103
N51	N	1.794584	0.412341	0.403436
C52	C	1.115760	-0.473439	-0.276784
C53	C	1.449093	-0.140106	0.056550
C54	C	1.782426	0.193227	0.389883
C55	C	1.168369	-0.526774	-0.218167
C56	C	1.501703	-0.193441	0.115166
C57	C	1.835036	0.139892	0.448500
C58	C	1.161605	-0.648697	-0.225708
C59	C	1.494938	-0.315363	0.107625
C60	C	1.828271	0.017970	0.440958
C61	C	1.122523	-0.351506	-0.269244
C62	C	1.455857	-0.018173	0.064090
C63	C	1.789190	0.315161	0.397423
C64	C	1.316131	-0.000118	-0.256006
C65	C	1.649464	0.333215	0.077327
C66	C	1.982798	0.666549	0.410660
C67	C	1.422429	-0.000121	-0.267881
C68	C	1.755762	0.333212	0.065453
C69	C	2.089096	0.666545	0.398786
C70	C	1.131778	-0.000108	-0.057003
C71	C	1.465111	0.333225	0.276330
C72	C	1.798445	0.666558	0.609663
C73	C	1.119411	-0.000105	0.059217
C74	C	1.452744	0.333228	0.392551
C75	C	1.786077	0.666561	0.725884
N76	N	1.156215	0.254119	-0.231717
N77	N	1.489548	0.587453	0.101616
N78	N	1.822881	0.920786	0.434950
C79	C	1.152347	-0.000096	-0.437951
C80	C	1.485680	0.333237	-0.104618
C81	C	1.819014	0.666571	0.228715
C82	C	1.164715	-0.000092	-0.554172
C83	C	1.498048	0.333241	-0.220838
C84	C	1.831381	0.666575	0.112495
C85	C	1.268090	-0.000098	0.286428
C86	C	1.601424	0.333236	0.619761
C87	C	1.934757	0.666569	0.953095
C88	C	1.256475	-0.000095	0.395628
C89	C	1.589808	0.333239	0.728962
C90	C	1.923141	0.666572	1.062295
C91	C	1.084565	-0.000089	0.386820
C92	C	1.417898	0.333244	0.720154
C93	C	1.751232	0.666578	1.053487
C94	C	1.096181	-0.000092	0.277620
C95	C	1.429514	0.333241	0.610954
C96	C	1.762847	0.666575	0.944287
C97	C	1.187946	-0.000098	0.227428
C98	C	1.521279	0.333236	0.560761
C99	C	1.854613	0.666569	0.894095
C100	C	1.199561	-0.000108	0.118225
C101	C	1.532894	0.333225	0.451559
C102	C	1.866227	0.666558	0.784892
C103	C	1.027652	-0.000095	0.109420
C104	C	1.360985	0.333238	0.442753
C105	C	1.694319	0.666572	0.776087
C106	C	1.016036	-0.000092	0.218620
C107	C	1.349370	0.333241	0.551953
C108	C	1.682703	0.666575	0.885287
H109	H	0.628572	-0.000107	-0.124201
H110	H	0.961905	0.333226	0.209132
H111	H	1.295239	0.666560	0.542466
H112	H	1.065643	-0.519339	-0.332627
H113	H	1.398977	-0.186006	0.000706
H114	H	1.732310	0.147327	0.334039
H115	H	0.962392	-0.000104	0.061370
H116	H	1.295726	0.333230	0.394703
H117	H	1.629059	0.666563	0.728036
H118	H	0.941324	-0.000083	0.259502
H119	H	1.274657	0.333250	0.592835
H120	H	1.607990	0.666584	0.926169
O121	O	1.298534	-0.000112	0.064091
O122	O	1.631868	0.333221	0.397424
O123	O	1.965201	0.666555	0.730757
H124	H	1.293150	-0.000124	-0.021757
H125	H	1.626484	0.333209	0.311577
H126	H	1.959817	0.666543	0.644910
O127	O	1.367059	-0.000103	0.232281
O128	O	1.700392	0.333231	0.565614
O129	O	2.033725	0.666564	0.898947
H130	H	1.420839	-0.000097	0.291655
H131	H	1.754172	0.333236	0.624988
H132	H	2.087506	0.666569	0.958321
O133	O	0.668036	-0.000092	-0.397110
O134	O	1.001369	0.333241	-0.063777
O135	O	1.334703	0.666575	0.269556
H136	H	0.651624	0.072716	-0.435655
H137	H	0.984958	0.406049	-0.102322
H138	H	1.318291	0.739382	0.231011
H139	H	1.218490	-0.480869	-0.162321
H140	H	1.551824	-0.147536	0.171012
H141	H	1.885157	0.185798	0.504346
H142	H	1.321737	-0.000091	0.443663
H143	H	1.655070	0.333242	0.776996
H144	H	1.988404	0.666576	1.110329
O145	O	0.985594	-0.000090	0.440962
O146	O	1.318928	0.333243	0.774296
O147	O	1.652261	0.666576	1.107629
H148	H	0.990986	-0.000095	0.526807
H149	H	1.324320	0.333238	0.860141
H150	H	1.657653	0.666571	1.193474
