data_functionalizedCrystal
_audit_creation_method	'MofGen! by Chris Wilmer'
_symmetry_space_group_name_H-M	'P1'
_symmetry_Int_Tables_number	1
_symmetry_cell_setting	triclinic
loop_
_symmetry_equiv_pos_as_xyz
  x,y,z
_cell_length_a	15.995350
_cell_length_b	15.944551
_cell_length_c	14.472310
_cell_angle_alpha	89.997979
_cell_angle_beta	89.990621
_cell_angle_gamma	83.495557
loop_
_atom_site_label
_atom_site_type_symbol
_atom_site_fract_x
_atom_site_fract_y
_atom_site_fract_z
O1	O	1.111003	0.108264	-0.076765
O2	O	0.867228	0.121634	-0.076784
O3	O	0.995772	-0.007326	-0.076765
O4	O	0.982458	0.237224	-0.076783
O5	O	0.995739	-0.007319	0.076917
O6	O	0.867195	0.121641	0.076898
O7	O	1.110969	0.108272	0.076917
Cu8	Cu	0.989079	0.114957	0.090940
Cu9	Cu	0.989118	0.114948	-0.090807
O10	O	0.982425	0.237232	0.076899
C11	C	0.836017	0.121085	0.000055
C12	C	0.743066	0.119428	0.000048
C13	C	0.405318	0.113477	0.000067
C14	C	0.452747	0.021634	0.000417
C15	C	0.549438	0.023291	0.000064
C16	C	0.572879	0.116429	0.000058
C17	C	0.531813	0.161724	-0.087701
C18	C	0.435178	0.159417	-0.087768
C19	C	0.434801	0.161323	0.086997
C20	C	0.531746	0.161302	0.088150
C21	C	0.667577	0.118102	0.000050
C22	C	0.310620	0.111806	0.000069
C23	C	0.995203	-0.038616	0.000076
C24	C	0.993546	-0.131862	0.000076
C25	C	0.909908	-0.346714	0.000057
C26	C	0.948730	-0.407730	0.075834
C27	C	0.990548	-0.302588	0.000069
C28	C	0.948782	-0.407721	-0.075684
C29	C	0.987647	-0.467501	0.000058
C30	C	1.029393	-0.362376	0.075909
C31	C	1.029433	-0.362360	-0.075678
C32	C	1.068315	-0.423358	0.000119
C33	C	0.992217	-0.207586	0.000076
C34	C	0.985984	-0.562502	0.000057
C35	C	1.142181	0.108821	0.000077
C36	C	1.235131	0.110478	0.000078
C37	C	0.982995	0.268522	0.000056
C38	C	0.984652	0.361768	0.000049
N39	N	0.989058	0.114963	0.218771
N40	N	0.989146	0.114936	-0.218638
C41	C	0.989117	0.114945	0.592862
C42	C	0.920105	0.183717	0.553686
C43	C	0.920264	0.183968	0.446598
C44	C	0.989087	0.114954	0.407271
C45	C	1.076453	0.134096	0.446114
C46	C	1.076065	0.134585	0.553235
C47	C	0.971543	0.026826	0.553396
C48	C	0.969539	0.027414	0.446269
C49	C	0.989075	0.114957	0.302383
C50	C	0.989135	0.114943	0.697750
H51	H	0.402934	0.226847	-0.091755
C52	C	0.902633	-0.434893	0.162372
N53	N	0.867907	-0.455350	0.227549
H54	H	1.135309	-0.456521	0.000167
H55	H	0.854954	0.172500	0.579470
H56	H	0.433165	-0.014912	-0.062167
C57	C	1.147491	0.068229	0.411696
N58	N	1.200996	0.018617	0.385770
C59	C	0.935431	0.272309	0.411959
N60	N	0.946860	0.338849	0.385869
C61	C	0.832528	0.168576	0.411120
N62	N	0.766440	0.156987	0.384402
H63	H	0.560200	0.130258	-0.153010
C64	C	1.096969	0.221409	0.586974
N65	N	1.112708	0.286810	0.612381
C66	C	0.427695	-0.027960	0.085439
N67	N	0.408818	-0.065315	0.149479
C68	C	1.097869	0.219931	0.409866
N69	N	1.113994	0.284587	0.382570
C70	C	0.887327	0.001977	0.589924
N71	N	0.823891	-0.016730	0.617437
C72	C	0.410459	0.114776	-0.176383
N73	N	0.391846	0.081147	-0.243128
C74	C	0.819484	-0.301705	0.000153
N75	N	0.751379	-0.267801	0.000231
C76	C	0.568597	0.116606	0.175861
N77	N	0.596351	0.082934	0.241923
H78	H	0.577307	-0.012561	-0.062951
H79	H	0.905272	0.012886	0.420882
C80	C	0.902705	-0.434858	-0.162230
N81	N	0.867994	-0.455293	-0.227413
H82	H	0.931173	0.248741	0.580592
H83	H	0.545943	0.230150	-0.090969
C84	C	0.407046	0.120758	0.176862
N85	N	0.386142	0.090195	0.244545
C86	C	1.147543	0.069511	0.588245
N87	N	1.201389	0.020508	0.614611
C88	C	0.552521	0.253054	0.095317
N89	N	0.568173	0.322163	0.100713
C90	C	0.391895	0.252802	0.087796
N91	N	0.359573	0.321700	0.088391
C92	C	1.075411	-0.335370	0.162555
N93	N	1.110067	-0.315027	0.227817
C94	C	1.033048	-0.044964	0.410128
N95	N	1.080894	-0.099477	0.382915
H96	H	1.063526	-0.342235	-0.139740
H97	H	1.021870	-0.024352	0.578730
H98	H	0.577851	-0.012314	0.062974
