data_functionalizedCrystal
_audit_creation_method	'MofGen! by Chris Wilmer'
_symmetry_space_group_name_H-M	'P1'
_symmetry_Int_Tables_number	1
_symmetry_cell_setting	triclinic
loop_
_symmetry_equiv_pos_as_xyz
  x,y,z
_cell_length_a	10.654551
_cell_length_b	10.654551
_cell_length_c	7.088929
_cell_angle_alpha	83.718726
_cell_angle_beta	96.264733
_cell_angle_gamma	84.485316
loop_
_atom_site_label
_atom_site_type_symbol
_atom_site_fract_x
_atom_site_fract_y
_atom_site_fract_z
O1	O	1.655064	0.189199	-0.158950
O2	O	1.289585	0.206005	-0.158958
O3	O	1.480727	0.014863	-0.158955
O4	O	1.463922	0.380341	-0.158953
O5	O	1.506271	-0.010740	0.159021
O6	O	1.315129	0.180402	0.159017
O7	O	1.680608	0.163597	0.159025
Cu8	Cu	1.500201	0.169662	0.188055
Cu9	Cu	1.469992	0.199940	-0.187988
O10	O	1.489466	0.354738	0.159022
C11	C	1.255559	0.191969	0.000029
C12	C	1.116115	0.188277	0.000025
C13	C	0.933508	0.169103	0.173355
C14	C	1.064528	0.172584	0.173356
C15	C	1.036673	0.200504	-0.173318
C16	C	0.905654	0.197032	-0.173317
C17	C	0.881929	0.153396	0.346698
C18	C	0.961362	0.141172	0.520042
C19	C	1.092383	0.144652	0.520043
C20	C	1.143970	0.160357	0.346699
C21	C	1.492264	-0.044736	0.000029
C22	C	1.488571	-0.184178	0.000016
C23	C	1.472915	-0.235734	-0.173310
C24	C	1.469435	-0.366756	-0.173301
C25	C	1.497274	-0.394654	0.173374
C26	C	1.500744	-0.263634	0.173363
C27	C	1.460741	-0.156278	-0.346657
C28	C	1.445086	-0.207834	-0.519996
C29	C	1.441606	-0.338855	-0.519987
C30	C	1.453782	-0.418320	-0.346639
C31	C	1.714634	0.177632	0.000035
C32	C	1.854076	0.181325	0.000026
C33	C	1.477928	0.414338	0.000035
C34	C	1.481621	0.553781	0.000035
N35	N	1.521457	0.148365	0.452543
N36	N	1.448746	0.221226	-0.452476
H37	H	0.840978	0.206988	-0.314457
F38	F	1.619972	0.049679	0.559269
H39	H	1.450929	-0.525003	-0.346646
F40	F	1.091582	0.217211	-0.357789
H41	H	1.250655	0.163205	0.346714
H42	H	1.463576	-0.049593	-0.346683
F43	F	1.424931	-0.393719	-0.704466
H44	H	1.373390	0.296731	0.465876
H45	H	1.507188	-0.459365	0.314505
F46	F	0.742488	0.149693	0.346711
H47	H	1.435161	-0.143123	-0.661129
H48	H	1.513466	-0.221654	0.314499
H49	H	0.919350	0.128396	0.661171
H50	H	1.157053	0.134712	0.661187
