data_functionalizedCrystal
_audit_creation_method	'MofGen! by Chris Wilmer'
_symmetry_space_group_name_H-M	'P1'
_symmetry_Int_Tables_number	1
_symmetry_cell_setting	triclinic
loop_
_symmetry_equiv_pos_as_xyz
  x,y,z
_cell_length_a	27.731993
_cell_length_b	12.996460
_cell_length_c	14.519709
_cell_angle_alpha	90.001234
_cell_angle_beta	83.150269
_cell_angle_gamma	89.994634
loop_
_atom_site_label
_atom_site_type_symbol
_atom_site_fract_x
_atom_site_fract_y
_atom_site_fract_z
O1	O	0.641469	0.085292	0.109485
O2	O	1.141469	0.585292	0.609485
O3	O	0.500752	0.085355	0.126223
O4	O	1.000752	0.585355	0.626223
O5	O	0.574842	0.085313	-0.016451
O6	O	1.074842	0.585313	0.483549
O7	O	0.567380	0.085335	0.252159
O8	O	1.067380	0.585335	0.752159
O9	O	0.574832	-0.085821	-0.016443
O10	O	1.074832	0.414179	0.483557
O11	O	0.500743	-0.085778	0.126231
O12	O	1.000743	0.414222	0.626231
O13	O	0.641460	-0.085842	0.109494
O14	O	1.141460	0.414158	0.609494
Cu15	Cu	0.571100	-0.101436	0.117863
Cu16	Cu	1.071100	0.398564	0.617863
Cu17	Cu	0.571112	0.100950	0.117853
Cu18	Cu	1.071112	0.600950	0.617853
O19	O	0.567370	-0.085799	0.252167
O20	O	1.067370	0.414201	0.752167
C21	C	0.482738	-0.000204	0.125883
C22	C	0.982738	0.499796	0.625883
C23	C	0.429077	-0.000180	0.124849
C24	C	0.929077	0.499820	0.624849
N25	N	0.571096	-0.243783	0.117869
N26	N	1.071096	0.256217	0.617869
C27	C	0.045886	0.093055	0.117345
C28	C	0.545886	0.593055	0.617345
C29	C	0.247562	0.093083	0.121289
C30	C	0.747562	0.593083	0.621289
O31	O	0.273642	0.172420	0.121758
O32	O	0.773642	0.672420	0.621758
N33	N	0.272780	-0.000200	0.121787
N34	N	0.772780	0.499800	0.621787
C35	C	0.247576	-0.093497	0.121293
C36	C	0.747576	0.406503	0.621293
O37	O	0.273653	-0.172839	0.121797
O38	O	0.773653	0.327161	0.621797
C39	C	0.045901	-0.093524	0.117342
C40	C	0.545901	0.406476	0.617342
C41	C	0.020685	-0.000235	0.116854
C42	C	0.520685	0.499765	0.616854
C43	C	0.020671	0.186336	0.116856
C44	C	0.520671	0.686336	0.616856
C45	C	-0.029746	0.186328	0.115875
C46	C	0.470254	0.686328	0.615875
C47	C	-0.054947	0.093039	0.115384
C48	C	0.445053	0.593039	0.615384
C49	C	-0.029731	-0.000243	0.115873
C50	C	0.470269	0.499757	0.615873
C51	C	0.020698	-0.186819	0.116842
C52	C	0.520698	0.313181	0.616842
C53	C	-0.029724	-0.186818	0.115852
C54	C	0.470276	0.313182	0.615852
C55	C	-0.054939	-0.093529	0.115363
C56	C	0.445061	0.406471	0.615363
C57	C	-0.105348	-0.093540	0.114401
C58	C	0.394652	0.406460	0.614401
N59	N	-0.130566	-0.000257	0.113903
N60	N	0.369434	0.499743	0.613903
C61	C	-0.105365	0.093032	0.114394
C62	C	0.394635	0.593032	0.614394
C63	C	0.353458	-0.093476	0.123368
C64	C	0.853458	0.406524	0.623368
C65	C	0.403876	-0.093469	0.124357
C66	C	0.903876	0.406531	0.624357
C67	C	0.403860	0.093111	0.124352
C68	C	0.903860	0.593111	0.624352
C69	C	0.353440	0.093103	0.123369
C70	C	0.853440	0.593103	0.623369
C71	C	0.328240	-0.000193	0.122870
C72	C	0.828240	0.499807	0.622870
C73	C	-0.211243	0.093008	0.112336
C74	C	0.288757	0.593008	0.612336
C75	C	-0.261664	0.092992	0.111359
C76	C	0.238336	0.592992	0.611359
C77	C	-0.261643	-0.093587	0.111360
C78	C	0.238357	0.406413	0.611360
C79	C	-0.211227	-0.093572	0.112341
C80	C	0.288773	0.406428	0.612341
C81	C	-0.186028	-0.000265	0.112826
C82	C	0.313972	0.499735	0.612826
O83	O	-0.131459	-0.172836	0.113921
O84	O	0.368541	0.327164	0.613921
O85	O	-0.131449	0.172363	0.113869
O86	O	0.368551	0.672363	0.613869
C87	C	0.096303	0.093063	0.118326
C88	C	0.596303	0.593063	0.618326
C89	C	0.121518	-0.000219	0.118815
C90	C	0.621518	0.499781	0.618815
C91	C	0.096317	-0.093508	0.118324
C92	C	0.596317	0.406492	0.618324
C93	C	0.171936	-0.000212	0.119805
C94	C	0.671936	0.499788	0.619805
C95	C	0.197137	0.093077	0.120296
C96	C	0.697137	0.593077	0.620296
C97	C	0.171920	0.186360	0.119798
C98	C	0.671920	0.686360	0.619798
C99	C	0.121504	0.186352	0.118817
C100	C	0.621504	0.686352	0.618817
C101	C	0.121535	-0.186791	0.118822
C102	C	0.621535	0.313209	0.618822
C103	C	0.171951	-0.186775	0.119804
C104	C	0.671951	0.313225	0.619804
C105	C	0.197152	-0.093486	0.120295
C106	C	0.697152	0.406514	0.620295
C107	C	0.571098	-0.336889	0.117872
C108	C	1.071098	0.163111	0.617872
C109	C	0.571103	-0.453694	0.117865
C110	C	1.071103	0.046306	0.617865
C111	C	0.571109	-0.546792	0.117855
C112	C	1.071109	-0.046792	0.617855
C113	C	0.571114	-0.663605	0.117850
C114	C	1.071114	-0.163605	0.617850
C115	C	0.659474	-0.000280	0.109833
C116	C	1.159474	0.499720	0.609833
C117	C	0.713135	-0.000297	0.110867
C118	C	1.213135	0.499703	0.610867
C119	C	0.574489	-0.000254	-0.050800
C120	C	1.074489	0.499746	0.449200
C121	C	0.573447	-0.000254	-0.153163
C122	C	1.073447	0.499746	0.346837
N123	N	0.571120	0.243297	0.117839
N124	N	1.071120	0.743297	0.617839
C125	C	0.569611	-0.000226	-0.527991
C126	C	1.069611	0.499774	-0.027991
C127	C	0.570676	-0.000234	-0.423702
C128	C	1.070676	0.499766	0.076298
C129	C	0.571529	-0.000241	-0.340580
C130	C	1.071529	0.499759	0.159420
C131	C	0.572594	-0.000247	-0.236285
C132	C	1.072594	0.499753	0.263715
C133	C	0.567723	-0.000230	0.286516
C134	C	1.067723	0.499770	0.786516
C135	C	0.568765	-0.000223	0.388879
C136	C	1.068765	0.499777	0.888879
H137	H	-0.282192	0.168962	0.110964
H138	H	0.217808	0.668962	0.610964
H139	H	0.192476	-0.262748	0.120209
H140	H	0.692476	0.237252	0.620209
H141	H	0.041220	-0.262785	0.117237
H142	H	0.541220	0.237215	0.617237
H143	H	-0.050239	-0.262792	0.115454
H144	H	0.449761	0.237208	0.615454
H145	H	-0.282171	-0.169541	0.110963
H146	H	0.217829	0.330459	0.610963
H147	H	-0.190696	-0.169535	0.112757
H148	H	0.309304	0.330465	0.612757
C149	C	0.166852	0.370795	0.119703
C150	C	0.666852	0.870795	0.619703
C151	C	0.199627	0.288907	0.120342
C152	C	0.699627	0.788907	0.620342
H153	H	0.183960	0.434098	0.120042
H154	H	0.683960	0.934098	0.620042
H155	H	0.150831	0.366916	0.065524
H156	H	0.650831	0.866916	0.565524
H157	H	0.143543	0.366915	0.173122
H158	H	0.643543	0.866915	0.673122
H159	H	0.222934	0.292784	0.066919
H160	H	0.722934	0.792784	0.566919
H161	H	0.215656	0.292788	0.174526
H162	H	0.715656	0.792788	0.674526
C163	C	-0.081079	0.294559	0.035452
C164	C	0.418921	0.794559	0.535452
C165	C	-0.057460	0.288872	0.115326
C166	C	0.442540	0.788872	0.615326
H167	H	-0.098188	0.357867	0.035116
H168	H	0.401812	0.857867	0.535116
H169	H	-0.057766	0.290676	-0.017950
H170	H	0.442234	0.790676	0.482050
H171	H	-0.103306	0.238999	0.035031
H172	H	0.396694	0.738999	0.535031
H173	H	-0.035230	0.344428	0.115744
H174	H	0.464770	0.844428	0.615744
H175	H	-0.080776	0.292765	0.168742
H176	H	0.419224	0.792765	0.668742
H177	H	0.424387	0.169071	0.124755
H178	H	0.924387	0.669071	0.624755
C179	C	0.358548	-0.277901	0.123486
C180	C	0.858548	0.222099	0.623486
C181	C	0.325762	-0.196037	0.122833
C182	C	0.825762	0.303963	0.622833
H183	H	0.341450	-0.341216	0.123165
H184	H	0.841450	0.158784	0.623165
H185	H	0.381855	-0.274020	0.070074
H186	H	0.881855	0.225980	0.570074
H187	H	0.374571	-0.273993	0.177672
H188	H	0.874571	0.226007	0.677672
H189	H	0.309742	-0.199940	0.068643
H190	H	0.809742	0.300060	0.568643
H191	H	0.302447	-0.199920	0.176249
H192	H	0.802447	0.300080	0.676249
H193	H	-0.190732	0.168987	0.112732
H194	H	0.309268	0.668987	0.612732
H195	H	0.041184	0.262308	0.117253
H196	H	0.541184	0.762308	0.617253
H197	H	0.101021	-0.262760	0.118418
H198	H	0.601021	0.237240	0.618418
H199	H	0.100978	0.262318	0.118419
H200	H	0.600978	0.762318	0.618419
H201	H	0.332913	0.169067	0.122971
H202	H	0.832913	0.669067	0.622971
C203	C	0.465951	-0.201713	0.046166
C204	C	0.965951	0.298287	0.546166
C205	C	0.431590	-0.196014	0.124904
C206	C	0.931590	0.303986	0.624904
H207	H	0.483061	-0.265021	0.046504
H208	H	0.983061	0.234979	0.546504
H209	H	0.449925	-0.197838	-0.008007
H210	H	0.949925	0.302162	0.491993
H211	H	0.488177	-0.146153	0.046612
H212	H	0.988177	0.353847	0.546612
H213	H	0.409362	-0.251571	0.124454
H214	H	0.909362	0.248429	0.624454
H215	H	0.447617	-0.199899	0.179090
H216	H	0.947617	0.300101	0.679090
