data_functionalizedCrystal
_audit_creation_method	'MofGen! by Chris Wilmer'
_symmetry_space_group_name_H-M	'P1'
_symmetry_Int_Tables_number	1
_symmetry_cell_setting	triclinic
loop_
_symmetry_equiv_pos_as_xyz
  x,y,z
_cell_length_a	15.995300
_cell_length_b	15.995350
_cell_length_c	15.455425
_cell_angle_alpha	92.984706
_cell_angle_beta	93.001191
_cell_angle_gamma	83.482091
loop_
_atom_site_label
_atom_site_type_symbol
_atom_site_fract_x
_atom_site_fract_y
_atom_site_fract_z
O1	O	1.114285	0.110982	0.072157
O2	O	0.870504	0.124353	0.072152
O3	O	0.999058	-0.004222	0.072154
O4	O	0.985731	0.239556	0.072155
O5	O	0.992503	-0.010735	-0.072106
O6	O	0.863948	0.117840	-0.072108
O7	O	1.107730	0.104469	-0.072103
Cu8	Cu	0.985241	0.110560	-0.085278
Cu9	Cu	0.992993	0.118262	0.085327
O10	O	0.979175	0.233043	-0.072105
C11	C	0.836031	0.120551	0.000021
C12	C	0.743078	0.118916	0.000019
C13	C	0.572895	0.115897	0.000026
C14	C	0.525429	0.207445	0.000024
C15	C	0.428756	0.205789	0.000354
C16	C	0.405339	0.112925	0.000031
C17	C	0.450208	0.071217	0.082248
C18	C	0.546844	0.073537	0.082315
C19	C	0.539668	0.064774	-0.081742
C20	C	0.442675	0.064734	-0.082820
C21	C	0.310644	0.111241	0.000037
C22	C	0.667591	0.117578	0.000025
C23	C	0.995230	-0.038673	0.000025
C24	C	0.993578	-0.131623	0.000030
C25	C	0.987646	-0.469369	0.000027
C26	C	0.896106	-0.421904	0.000349
C27	C	0.897744	-0.325229	0.000024
C28	C	0.990588	-0.301809	0.000029
C29	C	1.032003	-0.346614	-0.082348
C30	C	1.029700	-0.443252	-0.082417
C31	C	1.039046	-0.436204	0.081634
C32	C	1.039074	-0.339210	0.082723
C33	C	0.992256	-0.207112	0.000028
C34	C	0.985980	-0.564067	0.000023
C35	C	1.142203	0.108271	0.000030
C36	C	1.235156	0.109906	0.000038
C37	C	0.983004	0.267494	0.000025
C38	C	0.984656	0.360444	0.000026
N39	N	0.979794	0.105142	-0.205271
C40	C	0.949726	0.074934	-0.749270
C41	C	0.953840	0.079064	-0.658463
C42	C	1.006670	0.131938	-0.613068
C43	C	1.055396	0.180678	-0.658485
C44	C	1.051286	0.176544	-0.749290
C45	C	1.024410	0.149748	-0.341493
C46	C	1.028514	0.153881	-0.250681
C47	C	0.926959	0.052265	-0.250666
C48	C	0.922850	0.048138	-0.341473
C49	C	0.971579	0.096876	-0.386881
N50	N	1.010874	0.136162	-0.520249
N51	N	0.967379	0.092646	-0.479698
N52	N	0.998447	0.123673	0.205320
H53	H	0.541242	0.241574	-0.058925
Br54	Br	0.860832	-0.013877	-0.189036
H55	H	1.100074	-0.332638	-0.085407
H56	H	0.906702	0.031884	-0.786223
H57	H	1.011950	-0.453920	0.144071
H58	H	0.914169	0.039373	-0.621494
H59	H	0.862197	-0.437762	0.059423
Br60	Br	1.090537	0.215897	-0.403107
H61	H	0.567967	0.109056	0.144006
Br62	Br	1.100241	0.225618	-0.189074
Br63	Br	0.376847	0.260847	-0.097850
Br64	Br	1.141446	-0.497308	-0.088651
H65	H	0.579277	0.006471	0.085827
H66	H	0.557336	0.092100	-0.144077
H67	H	0.879832	0.005082	-0.378427
Br68	Br	0.975087	-0.303918	-0.184532
Br69	Br	0.989123	-0.288658	0.184312
Br70	Br	0.830773	-0.459356	-0.097266
Br71	Br	0.426926	-0.042282	0.086964
Br72	Br	1.152299	-0.313246	0.091029
H73	H	0.424613	0.105129	0.143664
H74	H	1.098415	0.223725	-0.621517
Br75	Br	1.117415	0.242685	-0.810919
Br76	Br	0.392502	0.115436	-0.184203
H77	H	0.403602	0.244001	0.059634
Br78	Br	0.562566	0.272286	0.098144
H79	H	0.427100	-0.003195	-0.088028
Br80	Br	1.151596	-0.489118	0.082566
H81	H	0.571413	-0.002758	-0.082533
H82	H	0.864930	-0.294134	0.059074
Br83	Br	0.970149	-0.478384	-0.185055
Br84	Br	0.833696	-0.283217	-0.098566
