data_functionalizedCrystal
_audit_creation_method	'MofGen! by Chris Wilmer'
_symmetry_space_group_name_H-M	'P1'
_symmetry_Int_Tables_number	1
_symmetry_cell_setting	triclinic
loop_
_symmetry_equiv_pos_as_xyz
  x,y,z
_cell_length_a	19.288862
_cell_length_b	15.186229
_cell_length_c	19.288865
_cell_angle_alpha	89.991032
_cell_angle_beta	83.135763
_cell_angle_gamma	89.979995
loop_
_atom_site_label
_atom_site_type_symbol
_atom_site_fract_x
_atom_site_fract_y
_atom_site_fract_z
O1	O	-0.921348	0.073578	-0.086639
O2	O	-0.719087	0.073507	-0.098329
O3	O	-0.826062	0.073527	0.008646
O4	O	-0.814373	0.073558	-0.193615
O5	O	-0.826055	-0.072930	0.008648
O6	O	-0.719080	-0.072950	-0.098328
O7	O	-0.921341	-0.072879	-0.086637
Zn8	Zn	-0.820210	-0.096168	-0.092482
Zn9	Zn	-0.820219	0.096796	-0.092484
O10	O	-0.814366	-0.072899	-0.193613
C11	C	-0.693207	0.000269	-0.097953
C12	C	-0.616104	0.000241	-0.096824
C13	C	-0.571407	0.000262	-0.159593
C14	C	-0.498960	0.000267	-0.158533
C15	C	-0.471213	0.000269	-0.094701
C16	C	-0.515919	0.000243	-0.031924
C17	C	-0.588364	0.000229	-0.032986
C18	C	-0.362953	0.051594	-0.044523
C19	C	-0.290508	0.051613	-0.043464
C20	C	-0.247767	0.000307	-0.091423
C21	C	-0.277477	-0.051006	-0.140453
C22	C	-0.349923	-0.051020	-0.141515
C23	C	-0.392659	0.000283	-0.093542
C24	C	-0.124514	0.000333	-0.153046
C25	C	-0.052066	0.000332	-0.151983
C26	C	-0.069026	0.000317	-0.025373
C27	C	-0.141473	0.000309	-0.026438
C28	C	-0.169212	0.000321	-0.090276
N29	N	-0.820208	-0.227861	-0.092481
C30	C	-0.867593	-0.453574	-0.045128
C31	C	-0.867595	-0.545764	-0.045126
C32	C	-0.772836	-0.545791	-0.139836
C33	C	-0.772831	-0.453603	-0.139834
C34	C	-0.820213	-0.407497	-0.092480
C35	C	-0.820221	-0.591875	-0.092481
C36	C	-0.820223	-0.691831	-0.092480
C37	C	-0.820211	-0.307535	-0.092481
C38	C	0.052779	0.000345	-0.087016
C39	C	-0.024324	0.000333	-0.088151
C40	C	-0.825683	0.000296	0.034523
C41	C	-0.824554	0.000288	0.111627
N42	N	-0.820226	0.228488	-0.092481
C43	C	-0.814746	0.000334	-0.219490
C44	C	-0.815875	0.000348	-0.296594
C45	C	-0.887322	0.000306	0.156324
C46	C	-0.886261	0.000319	0.228771
C47	C	-0.822429	0.000297	0.256518
C48	C	-0.759652	0.000284	0.211811
C49	C	-0.760715	0.000279	0.139366
C50	C	-0.772247	-0.051021	0.364805
C51	C	-0.771187	-0.051022	0.437250
C52	C	-0.819149	0.000316	0.479963
C53	C	-0.868183	0.051643	0.450225
C54	C	-0.869245	0.051638	0.377780
C55	C	-0.821269	0.000303	0.335072
C56	C	-0.880771	0.000349	0.603216
C57	C	-0.879708	0.000368	0.675664
C58	C	-0.753098	0.000325	0.658703
C59	C	-0.754163	0.000315	0.586257
C60	C	-0.818001	0.000323	0.558518
H61	H	-0.493322	0.000256	0.020048
H62	H	-0.015674	0.000344	-0.203099
H63	H	-0.374110	-0.092805	-0.181435
C64	C	-0.721367	-0.595967	-0.191139
C65	C	-0.678982	-0.648943	-0.154249
C66	C	-0.631568	-0.695185	-0.201488
H67	H	-0.693079	-0.555423	-0.219360
H68	H	-0.746247	-0.631959	-0.219979
H69	H	-0.654105	-0.612955	-0.125421
H70	H	-0.707251	-0.689504	-0.126030
H71	H	-0.656447	-0.731177	-0.230328
H72	H	-0.603285	-0.654635	-0.229707
H73	H	-0.602809	-0.731141	-0.176466
H74	H	-0.734246	-0.416085	-0.178394
H75	H	-0.939304	0.000315	0.133744
C76	C	-0.954487	0.000290	0.277195
C77	C	-1.010620	0.000277	0.237396
C78	C	-1.073480	0.000238	0.281978
H79	H	-0.956809	0.051350	0.305818
H80	H	-0.956733	-0.050802	0.305805
H81	H	-1.008376	0.051364	0.208799
H82	H	-1.008322	-0.050779	0.208775
H83	H	-1.075726	-0.050854	0.310588
H84	H	-1.075795	0.051299	0.310599
H85	H	-1.111574	0.000221	0.254982
H86	H	-0.046435	0.000373	0.026600
H87	H	-0.593988	0.000273	-0.211575
H88	H	-0.909169	0.093432	0.353570
H89	H	-0.906173	-0.416037	-0.006569
H90	H	-0.907238	0.093447	0.485002
C91	C	-0.720129	-0.106851	0.318554
C92	C	-0.676977	-0.151819	0.360102
C93	C	-0.628964	-0.203259	0.317522
H94	H	-0.692432	-0.069957	0.286521
H95	H	-0.744533	-0.148150	0.293526
H96	H	-0.652575	-0.110525	0.385119
H97	H	-0.704654	-0.188728	0.392134
H98	H	-0.653368	-0.244558	0.292494
H99	H	-0.601272	-0.166359	0.285491
H100	H	-0.599683	-0.233782	0.345707
H101	H	-0.906175	-0.583278	-0.006567
H102	H	-0.462561	0.000281	-0.209648
H103	H	-0.932752	0.000360	0.580630
C104	C	-0.718059	-0.106862	0.469588
C105	C	-0.753006	-0.167589	0.515939
C106	C	-0.704085	-0.219048	0.545734
H107	H	-0.689585	-0.069970	0.494141
H108	H	-0.689646	-0.137483	0.433800
H109	H	-0.781406	-0.136970	0.551722
H110	H	-0.781476	-0.204500	0.491403
H111	H	-0.675673	-0.249669	0.509946
H112	H	-0.675615	-0.182149	0.570283
H113	H	-0.727790	-0.260262	0.577182
C114	C	-0.947935	0.000344	0.724081
C115	C	-1.004066	0.000325	0.684278
C116	C	-1.066928	0.000290	0.728856
H117	H	-0.950259	0.051407	0.752701
H118	H	-0.950183	-0.050746	0.752694
H119	H	-1.001819	0.051409	0.655677
H120	H	-1.001765	-0.050734	0.655659
H121	H	-1.069176	-0.050800	0.757469
H122	H	-1.069244	0.051354	0.757473
H123	H	-1.105019	0.000269	0.701856
H124	H	-0.701124	0.000311	0.681294
H125	H	-0.709600	0.000265	0.102973
H126	H	-0.703050	0.000295	0.549863
C127	C	-0.690327	0.000442	0.241894
C128	C	-0.652409	0.075791	0.219161
C129	C	-0.588545	0.075977	0.246866
H130	H	-0.664403	-0.050579	0.226563
H131	H	-0.698655	0.000493	0.291445
H132	H	-0.644079	0.075732	0.169621
H133	H	-0.678312	0.126823	0.234491
H134	H	-0.596873	0.076028	0.296416
H135	H	-0.562627	0.024953	0.231533
H136	H	-0.562812	0.127104	0.231451
H137	H	-0.242678	-0.092785	-0.179506
H138	H	-0.147101	0.000329	-0.205027
H139	H	-0.266324	0.093400	-0.003543
C140	C	-0.189890	0.000342	0.041787
C141	C	-0.150087	0.000367	0.097917
C142	C	-0.194665	0.000406	0.160780
H143	H	-0.218500	-0.050723	0.044105
H144	H	-0.218513	0.051430	0.044041
H145	H	-0.121476	-0.050716	0.095665
H146	H	-0.121479	0.051427	0.095623
H147	H	-0.223288	0.051494	0.163034
H148	H	-0.223273	-0.050659	0.163090
H149	H	-0.167666	0.000431	0.198871
C150	C	-0.409311	0.107463	0.007470
C151	C	-0.390509	0.196150	-0.001437
C152	C	-0.433204	0.247641	0.046436
H153	H	-0.403625	0.089541	0.053635
H154	H	-0.456717	0.100164	-0.000188
H155	H	-0.343114	0.203444	0.006226
H156	H	-0.396198	0.214098	-0.047592
H157	H	-0.480610	0.240342	0.038778
H158	H	-0.427515	0.229711	0.092598
H159	H	-0.420457	0.307821	0.040395
H160	H	-0.624757	0.000212	0.018129
