data_functionalizedCrystal
_audit_creation_method	'MofGen! by Chris Wilmer'
_symmetry_space_group_name_H-M	'P1'
_symmetry_Int_Tables_number	1
_symmetry_cell_setting	triclinic
loop_
_symmetry_equiv_pos_as_xyz
  x,y,z
_cell_length_a	13.897448
_cell_length_b	13.897449
_cell_length_c	11.169409
_cell_angle_alpha	89.972648
_cell_angle_beta	90.035576
_cell_angle_gamma	89.982380
loop_
_atom_site_label
_atom_site_type_symbol
_atom_site_fract_x
_atom_site_fract_y
_atom_site_fract_z
Zn1	Zn	-0.383939	-1.474715	0.678757
Zn2	Zn	0.116061	-0.974715	1.178757
Zn3	Zn	-0.545274	-1.474605	0.478062
Zn4	Zn	-0.045274	-0.974605	0.978062
Zn5	Zn	-0.383995	-1.313400	0.478065
Zn6	Zn	0.116005	-0.813400	0.978065
Zn7	Zn	-0.545193	-1.313386	0.678681
Zn8	Zn	-0.045193	-0.813386	1.178681
O9	O	-0.464600	-1.394027	0.578391
O10	O	0.035400	-0.894027	1.078391
O11	O	-0.405351	-1.609682	0.652165
O12	O	0.094649	-1.109682	1.152165
O13	O	-0.523938	-1.453181	0.310113
O14	O	-0.023938	-0.953181	0.810113
O15	O	-0.249006	-1.334851	0.504720
O16	O	0.250994	-0.834851	1.004720
O17	O	-0.523883	-1.609601	0.504716
O18	O	-0.023883	-1.109601	1.004716
O19	O	-0.248964	-1.453368	0.652167
O20	O	0.251036	-0.953368	1.152167
O21	O	-0.405446	-1.334745	0.310115
O22	O	0.094554	-0.834745	0.810115
O23	O	-0.405368	-1.178417	0.504646
O24	O	0.094632	-0.678417	1.004646
O25	O	-0.523745	-1.334826	0.846641
O26	O	-0.023745	-0.834826	1.346641
O27	O	-0.523799	-1.178406	0.652038
O28	O	-0.023799	-0.678406	1.152038
O29	O	-0.405272	-1.453354	0.846697
O30	O	0.094728	-0.953354	1.346697
O31	O	-0.680245	-1.453167	0.504642
O32	O	-0.180245	-0.953167	1.004642
O33	O	-0.680185	-1.334720	0.652036
O34	O	-0.180185	-0.834720	1.152036
C35	C	-0.464581	-1.143412	0.578335
C36	C	0.035419	-0.643412	1.078335
C37	C	-0.464597	-1.036198	0.578339
C38	C	0.035403	-0.536198	1.078339
C39	C	-0.464598	-0.949129	0.578354
C40	C	0.035402	-0.449129	1.078354
C41	C	-0.464603	-0.839896	0.578384
C42	C	0.035397	-0.339896	1.078384
C43	C	-0.715215	-1.393956	0.578356
C44	C	-0.215215	-0.893956	1.078356
C45	C	-0.822428	-1.394014	0.578382
C46	C	-0.322428	-0.894014	1.078382
C47	C	-1.018723	-1.394116	0.578457
C48	C	-0.518723	-0.894116	1.078457
C49	C	-0.909491	-1.394057	0.578419
C50	C	-0.409491	-0.894057	1.078419
C51	C	-0.213007	-1.394124	0.578452
C52	C	0.286993	-0.894124	1.078452
C53	C	-0.105793	-1.394165	0.578478
C54	C	0.394207	-0.894165	1.078478
C55	C	-0.464493	-1.394101	0.891434
C56	C	0.035507	-0.894101	1.391434
C57	C	-0.464447	-1.394132	1.024834
C58	C	0.035553	-0.894132	1.524834
C59	C	-0.464616	-0.645620	0.578434
C60	C	0.035384	-0.145620	1.078434
C61	C	-0.464612	-0.752833	0.578415
C62	C	0.035388	-0.252833	1.078415
C63	C	-0.464637	-1.394008	0.266566
C64	C	0.035363	-0.894008	0.766566
C65	C	-0.464411	-1.394164	0.133167
C66	C	0.035589	-0.894164	0.633167
