data_functionalizedCrystal
_audit_creation_method	'MofGen! by Chris Wilmer'
_symmetry_space_group_name_H-M	'P1'
_symmetry_Int_Tables_number	1
_symmetry_cell_setting	triclinic
loop_
_symmetry_equiv_pos_as_xyz
  x,y,z
_cell_length_a	14.971482
_cell_length_b	8.597275
_cell_length_c	13.448316
_cell_angle_alpha	97.697178
_cell_angle_beta	89.993798
_cell_angle_gamma	84.477551
loop_
_atom_site_label
_atom_site_type_symbol
_atom_site_fract_x
_atom_site_fract_y
_atom_site_fract_z
O1	O	1.188611	0.204502	-0.065154
O2	O	0.928409	0.229001	-0.063059
O3	O	1.063633	-0.011704	-0.083678
O4	O	1.053387	0.445207	-0.044536
O5	O	1.063616	-0.011718	0.081705
O6	O	0.928392	0.228986	0.102323
O7	O	1.188594	0.204487	0.100229
Cu8	Cu	1.058491	0.216735	0.116377
Cu9	Cu	1.058512	0.216753	-0.079207
O10	O	1.053370	0.445192	0.120847
C11	C	0.895067	0.227899	0.019538
C12	C	0.795743	0.224619	0.019255
C13	C	1.062525	-0.070184	-0.005998
C14	C	1.059239	-0.244415	-0.020930
C15	C	0.749076	0.223066	0.109273
C16	C	0.655753	0.219959	0.109008
C17	C	0.609097	0.218416	0.018724
C18	C	0.655770	0.219964	-0.071302
C19	C	0.749093	0.223060	-0.071036
C20	C	0.461256	0.213515	-0.071848
C21	C	0.367926	0.210422	-0.072113
C22	C	0.367916	0.210414	0.108197
C23	C	0.461238	0.213510	0.108462
C24	C	0.507905	0.215061	0.018436
C25	C	1.221936	0.205589	0.017629
C26	C	1.321260	0.208869	0.017906
C27	C	1.054478	0.503672	0.043165
C28	C	1.057764	0.677903	0.058090
N29	N	1.058483	0.216722	0.253940
N30	N	1.058527	0.216754	-0.216772
C31	C	1.118380	0.110182	0.296854
C32	C	1.118385	0.110181	0.400957
C33	C	1.058498	0.216728	0.462145
C34	C	0.998595	0.323273	0.419224
C35	C	0.998586	0.323266	0.315122
C36	C	0.998620	0.323284	0.636205
C37	C	0.998630	0.323294	0.740314
C38	C	1.118419	0.110199	0.722040
C39	C	1.118410	0.110191	0.617938
C40	C	1.058508	0.216739	0.575024
H41	H	0.617763	0.218668	0.182308
H42	H	0.787088	0.224328	-0.144339
H43	H	1.057990	-0.311201	-0.100003
H44	H	0.617776	0.218697	-0.144813
O45	O	0.940524	0.427002	0.594579
C46	C	0.890458	0.699754	0.586127
C47	C	0.956309	0.582466	0.633328
H48	H	0.903184	0.825471	0.617452
H49	H	0.900739	0.681583	0.501213
H50	H	0.818649	0.679021	0.604823
H51	H	1.028144	0.603126	0.614709
H52	H	0.945950	0.600665	0.718230
H53	H	1.059022	-0.255305	0.137168
H54	H	1.167193	0.023444	0.756986
H55	H	0.949863	0.410054	0.790129
H56	H	1.167151	0.023425	0.247041
H57	H	0.499223	0.214776	0.181980
O58	O	0.322607	0.209174	0.195696
C59	C	0.285116	0.344031	0.361381
C60	C	0.336462	0.345644	0.262341
H61	H	0.296315	0.454337	0.415298
H62	H	0.210386	0.341643	0.345747
H63	H	0.310687	0.234839	0.396446
H64	H	0.310966	0.454820	0.227225
H65	H	0.411184	0.347949	0.278038
H66	H	1.167157	0.023427	0.435897
O67	O	0.940381	0.426557	0.478752
C68	C	0.818498	0.459616	0.599104
C69	C	0.884385	0.342471	0.531755
H70	H	0.773196	0.391679	0.641958
H71	H	0.857754	0.538116	0.654616
H72	H	0.775724	0.535794	0.550533
H73	H	0.927175	0.266189	0.580245
H74	H	0.845075	0.264080	0.476236
H75	H	0.329941	0.209167	-0.145630
H76	H	1.167179	0.023440	0.568119
H77	H	0.949811	0.410020	0.280183
H78	H	0.499249	0.214779	-0.145157
O79	O	0.794261	0.224488	0.197059
C80	C	0.784384	0.224229	0.375880
C81	C	0.733108	0.222586	0.276530
H82	H	0.734962	0.222726	0.440161
H83	H	0.835284	0.115901	0.371175
H84	H	0.820870	0.335403	0.389861
H85	H	0.696569	0.111485	0.262488
H86	H	0.682260	0.330990	0.281283
