data_functionalizedCrystal
_audit_creation_method	'MofGen! by Chris Wilmer'
_symmetry_space_group_name_H-M	'P1'
_symmetry_Int_Tables_number	1
_symmetry_cell_setting	triclinic
loop_
_symmetry_equiv_pos_as_xyz
  x,y,z
_cell_length_a	29.839134
_cell_length_b	12.759394
_cell_length_c	12.759387
_cell_angle_alpha	89.976172
_cell_angle_beta	90.035254
_cell_angle_gamma	90.004610
loop_
_atom_site_label
_atom_site_type_symbol
_atom_site_fract_x
_atom_site_fract_y
_atom_site_fract_z
Zn1	Zn	-0.686880	-0.418428	-0.594507
Zn2	Zn	-0.686851	-0.594144	-0.418848
Zn3	Zn	-0.611751	-0.418456	-0.418794
Zn4	Zn	-0.611761	-0.594042	-0.594437
O5	O	-0.649311	-0.506268	-0.506647
O6	O	-0.749744	-0.441768	-0.571257
O7	O	-0.676872	-0.570893	-0.271820
O8	O	-0.621725	-0.271432	-0.442110
O9	O	-0.749722	-0.570866	-0.442201
O10	O	-0.676922	-0.271411	-0.571205
O11	O	-0.621697	-0.441816	-0.271780
O12	O	-0.548885	-0.441717	-0.442042
O13	O	-0.621743	-0.570692	-0.741468
O14	O	-0.548893	-0.570720	-0.571086
O15	O	-0.676932	-0.441669	-0.741519
O16	O	-0.676882	-0.741152	-0.442134
O17	O	-0.621714	-0.741077	-0.571138
C18	C	-0.532588	-0.506211	-0.506552
C19	C	-0.482654	-0.506212	-0.506536
C20	C	-0.649308	-0.779235	-0.506657
C21	C	-0.649348	-0.896012	-0.506697
C22	C	-0.126050	-0.438989	-0.439554
C23	C	-0.313723	-0.438962	-0.439503
O24	O	-0.337974	-0.381722	-0.382478
N25	N	-0.337209	-0.506227	-0.506578
C26	C	-0.313773	-0.573499	-0.573676
O27	O	-0.338055	-0.630704	-0.630734
C28	C	-0.126101	-0.573520	-0.573731
C29	C	-0.102618	-0.506258	-0.506644
C30	C	-0.102567	-0.371732	-0.372473
C31	C	-0.055652	-0.371743	-0.372482
C32	C	-0.032219	-0.439012	-0.439572
C33	C	-0.055702	-0.506269	-0.506653
C34	C	-0.102666	-0.640785	-0.640833
C35	C	-0.055745	-0.640783	-0.640843
C36	C	-0.032262	-0.573521	-0.573756
C37	C	0.014646	-0.573549	-0.573752
N38	N	0.038131	-0.506284	-0.506677
C39	C	0.014698	-0.439015	-0.439587
C40	C	-0.412304	-0.573485	-0.573641
C41	C	-0.459221	-0.573481	-0.573626
C42	C	-0.459169	-0.438943	-0.439454
C43	C	-0.412250	-0.438952	-0.439465
C44	C	-0.388818	-0.506220	-0.506566
C45	C	0.113224	-0.439045	-0.439611
C46	C	0.160144	-0.439065	-0.439623
C47	C	0.160087	-0.573600	-0.573798
C48	C	0.113171	-0.573584	-0.573783
C49	C	0.089741	-0.506298	-0.506686
O50	O	0.038925	-0.630751	-0.630756
O51	O	0.038988	-0.381803	-0.382554
C52	C	-0.172966	-0.438977	-0.439544
C53	C	-0.196449	-0.506235	-0.506625
C54	C	-0.173016	-0.573504	-0.573715
C55	C	-0.243367	-0.506231	-0.506610
C56	C	-0.266799	-0.438962	-0.439520
C57	C	-0.243314	-0.371697	-0.372445
C58	C	-0.196398	-0.371709	-0.372454
C59	C	-0.196502	-0.640769	-0.640791
C60	C	-0.243417	-0.640753	-0.640775
C61	C	-0.266850	-0.573484	-0.573685
C62	C	0.233511	-0.506321	-0.506725
C63	C	0.183576	-0.506334	-0.506713
C64	C	-0.649342	-0.506166	-0.780680
C65	C	-0.649355	-0.506123	-0.897457
C66	C	-0.649326	-0.232234	-0.506659
C67	C	-0.649333	-0.115458	-0.506665
C68	C	-0.591859	-0.115459	-0.372229
C69	C	-0.563128	-0.060600	-0.305013
C70	C	-0.563137	0.049122	-0.305023
C71	C	-0.591878	0.103986	-0.372257
C72	C	-0.620609	0.049126	-0.439472
C73	C	-0.620599	-0.060598	-0.439453
C74	C	-0.678079	0.049128	-0.573912
C75	C	-0.678074	-0.060593	-0.573899
C76	C	-0.706820	0.103992	-0.641146
C77	C	-0.735554	0.049133	-0.708358
C78	C	-0.735545	-0.060596	-0.708345
C79	C	-0.706805	-0.115453	-0.641114
C80	C	-0.706853	-0.371698	-1.116954
C81	C	-0.735581	-0.304542	-1.062119
C82	C	-0.735569	-0.304577	-0.952397
C83	C	-0.706825	-0.371777	-0.897508
C84	C	-0.678096	-0.438933	-0.952343
C85	C	-0.678111	-0.438888	-1.062068
C86	C	-0.620626	-0.573279	-0.952293
C87	C	-0.620636	-0.573240	-1.062014
C88	C	-0.591883	-0.640479	-0.897404
C89	C	-0.563151	-0.707631	-0.952239
C90	C	-0.563165	-0.707593	-1.061968
C91	C	-0.591908	-0.640396	-1.116850
C92	C	-0.649306	-0.506293	-0.233679
C93	C	-0.649380	-0.506040	-0.116903
H94	H	0.094153	-0.384250	-0.384979
H95	H	-0.539740	0.093789	-0.250294
C96	C	-0.706867	-0.371654	-1.237645
H97	H	-0.728101	-0.322021	-1.262480
H98	H	-0.677880	-0.353465	-1.262447
H99	H	-0.714639	-0.439451	-1.262465
C100	C	-0.591926	-0.640355	-1.237540
H101	H	-0.613161	-0.590724	-1.262372
H102	H	-0.562940	-0.622167	-1.262351
H103	H	-0.599698	-0.708154	-1.262356
H104	H	-0.758963	-0.249895	-0.907750
H105	H	-0.393133	-0.384178	-0.384840
C106	C	0.185869	-0.647584	-0.647597
H107	H	0.217174	-0.637942	-0.637998
H108	H	0.178183	-0.718161	-0.632123
H109	H	0.178160	-0.632272	-0.718212
H110	H	-0.706796	-0.204794	-0.641094
C111	C	-0.767194	-0.230622	-1.122497
H112	H	-0.763085	-0.240207	-1.195697
H113	H	-0.797377	-0.246013	-1.104540
H114	H	-0.760617	-0.160032	-1.104512
H115	H	-0.706821	-0.371808	-0.808167
H116	H	-0.177283	-0.316936	-0.317826
C117	C	-0.531565	-0.781468	-1.122283
H118	H	-0.535690	-0.771830	-1.195492
H119	H	-0.501379	-0.766089	-1.104277
H120	H	-0.538140	-0.852070	-1.104300
H121	H	-0.262533	-0.695535	-0.695404
H122	H	-0.591877	-0.640507	-0.808063
H123	H	-0.591878	0.193327	-0.372268
C124	C	0.185973	-0.365069	-0.365830
H125	H	0.165295	-0.324998	-0.325882
H126	H	0.204287	-0.405204	-0.319991
H127	H	0.204265	-0.319337	-0.406102
C128	C	-0.029827	-0.297742	-0.298698
H129	H	-0.050507	-0.257675	-0.258754
H130	H	-0.011510	-0.337867	-0.252856
H131	H	-0.011537	-0.252007	-0.338973
H132	H	-0.121641	-0.316947	-0.317840
H133	H	-0.539753	-0.762345	-0.907540
H134	H	-0.478255	-0.384171	-0.384826
C135	C	-0.485048	-0.647476	-0.647415
H136	H	-0.464368	-0.687528	-0.687377
H137	H	-0.503341	-0.693209	-0.607157
H138	H	-0.503361	-0.607330	-0.693256
H139	H	-0.393230	-0.628266	-0.628285
C140	C	-0.767165	0.109483	-0.782304
H141	H	-0.763055	0.182685	-0.772682
H142	H	-0.760597	0.091524	-0.852886
H143	H	-0.797350	0.091484	-0.766946
H144	H	-0.121778	-0.695558	-0.695462
H145	H	-0.758938	-0.105256	-0.763089
H146	H	-0.036669	-0.695558	-0.695489
C147	C	-0.269096	-0.297700	-0.298652
H148	H	-0.300400	-0.307328	-0.308268
H149	H	-0.261390	-0.312986	-0.228035
H150	H	-0.261408	-0.227124	-0.314151
C151	C	0.087339	-0.647575	-0.647571
H152	H	0.108016	-0.687636	-0.687530
H153	H	0.069042	-0.693300	-0.607313
H154	H	0.069030	-0.607423	-0.693414
H155	H	-0.591854	-0.204801	-0.372206
C156	C	-0.170732	-0.714788	-0.714574
H157	H	-0.191442	-0.754852	-0.754505
H158	H	-0.152435	-0.674681	-0.760429
H159	H	-0.152426	-0.760525	-0.674296
C160	C	-0.706830	0.224683	-0.641155
H161	H	-0.685607	0.249500	-0.591489
H162	H	-0.699069	0.249535	-0.708946
H163	H	-0.735825	0.249473	-0.623015
H164	H	-0.539727	-0.105282	-0.250274
