data_functionalizedCrystal
_audit_creation_method	'MofGen! by Chris Wilmer'
_symmetry_space_group_name_H-M	'P1'
_symmetry_Int_Tables_number	1
_symmetry_cell_setting	triclinic
loop_
_symmetry_equiv_pos_as_xyz
  x,y,z
_cell_length_a	13.897449
_cell_length_b	18.101395
_cell_length_c	13.897441
_cell_angle_alpha	89.969302
_cell_angle_beta	89.979267
_cell_angle_gamma	90.032384
loop_
_atom_site_label
_atom_site_type_symbol
_atom_site_fract_x
_atom_site_fract_y
_atom_site_fract_z
Zn1	Zn	1.474613	-0.294781	-0.545380
Zn2	Zn	1.807946	0.038553	-0.212047
Zn3	Zn	2.141279	0.371886	0.121286
Zn4	Zn	1.474469	-0.418636	-0.384082
Zn5	Zn	1.807802	-0.085303	-0.050748
Zn6	Zn	2.141136	0.248030	0.282585
Zn7	Zn	1.313302	-0.294816	-0.384099
Zn8	Zn	1.646635	0.038517	-0.050766
Zn9	Zn	1.979969	0.371851	0.282568
Zn10	Zn	1.313246	-0.418588	-0.545334
Zn11	Zn	1.646579	-0.085254	-0.212001
Zn12	Zn	1.979913	0.248079	0.121332
O13	O	1.393907	-0.356705	-0.464724
O14	O	1.727241	-0.023372	-0.131390
O15	O	2.060574	0.309961	0.201943
O16	O	1.609575	-0.311216	-0.523996
O17	O	1.942909	0.022117	-0.190663
O18	O	2.276242	0.355451	0.142671
O19	O	1.453053	-0.402246	-0.249102
O20	O	1.786386	-0.068913	0.084231
O21	O	2.119720	0.264420	0.417565
O22	O	1.334784	-0.191178	-0.405520
O23	O	1.668117	0.142155	-0.072186
O24	O	2.001450	0.475488	0.261147
O25	O	1.609470	-0.402212	-0.405490
O26	O	1.942803	-0.068879	-0.072157
O27	O	2.276136	0.264454	0.261176
O28	O	1.453298	-0.191152	-0.524013
O29	O	1.786631	0.142181	-0.190679
O30	O	2.119965	0.475514	0.142654
O31	O	1.334644	-0.311276	-0.249115
O32	O	1.667978	0.022057	0.084218
O33	O	2.001311	0.355391	0.417552
O34	O	1.178313	-0.311229	-0.405475
O35	O	1.511646	0.022104	-0.072142
O36	O	1.844979	0.355438	0.261192
O37	O	1.334688	-0.402129	-0.680322
O38	O	1.668022	-0.068796	-0.346989
O39	O	2.001355	0.264537	-0.013655
O40	O	1.178272	-0.402164	-0.523934
O41	O	1.511605	-0.068830	-0.190600
O42	O	1.844938	0.264503	0.142733
O43	O	1.453244	-0.311169	-0.680356
O44	O	1.786577	0.022164	-0.347023
O45	O	2.119910	0.355498	-0.013689
O46	O	1.452999	-0.522263	-0.405445
O47	O	1.786332	-0.188929	-0.072112
O48	O	2.119665	0.144404	0.261221
O49	O	1.334549	-0.522227	-0.523917
O50	O	1.667882	-0.188894	-0.190584
O51	O	2.001215	0.144440	0.142750
C52	C	1.143293	-0.356695	-0.464702
C53	C	1.476626	-0.023362	-0.131368
C54	C	1.809960	0.309971	0.201965
C55	C	1.036079	-0.356709	-0.464715
C56	C	1.369412	-0.023376	-0.131382
C57	C	1.702746	0.309958	0.201951
C58	C	0.839784	-0.356712	-0.464741
C59	C	1.173117	-0.023378	-0.131407
C60	C	1.506451	0.309955	0.201926
C61	C	0.949016	-0.356708	-0.464724
C62	C	1.282350	-0.023374	-0.131390
C63	C	1.615683	0.309959	0.201943
C64	C	1.393778	-0.549116	-0.464695
C65	C	1.727112	-0.215782	-0.131362
C66	C	2.060445	0.117551	0.201971
C67	C	1.393811	-0.631430	-0.464716
C68	C	1.727145	-0.298097	-0.131382
C69	C	2.060478	0.035237	0.201951
C70	C	1.394023	-0.930521	-0.464767
C71	C	1.727356	-0.597187	-0.131434
C72	C	2.060690	-0.263854	0.201899
C73	C	1.319670	-0.899204	-0.539492
C74	C	1.653004	-0.565871	-0.206158
C75	C	1.986337	-0.232537	0.127175
C76	C	1.319317	-0.813586	-0.539258
C77	C	1.652650	-0.480253	-0.205925
C78	C	1.985984	-0.146919	0.127409
C79	C	1.393918	-0.782138	-0.464743
C80	C	1.727251	-0.448805	-0.131409
C81	C	2.060585	-0.115472	0.201924
C82	C	1.366392	-0.813295	-0.363084
C83	C	1.699725	-0.479961	-0.029750
C84	C	2.033059	-0.146628	0.303583
C85	C	1.365913	-0.898940	-0.363531
C86	C	1.699246	-0.565607	-0.030198
C87	C	2.032579	-0.232273	0.303136
C88	C	1.496064	-0.898862	-0.490807
C89	C	1.829398	-0.565528	-0.157474
C90	C	2.162731	-0.232195	0.175859
C91	C	1.495464	-0.813210	-0.493037
C92	C	1.828798	-0.479877	-0.159703
C93	C	2.162131	-0.146544	0.173630
C94	C	1.393860	-0.698279	-0.464722
C95	C	1.727194	-0.364945	-0.131389
C96	C	2.060527	-0.031612	0.201944
C97	C	1.394078	-1.014380	-0.464781
C98	C	1.727412	-0.681047	-0.131448
C99	C	2.060745	-0.347714	0.201886
C100	C	1.645500	-0.356716	-0.464746
C101	C	1.978834	-0.023382	-0.131413
C102	C	2.312167	0.309951	0.201920
C103	C	1.752714	-0.356720	-0.464756
C104	C	2.086048	-0.023387	-0.131423
C105	C	2.419381	0.309947	0.201911
C106	C	1.393976	-0.356640	-0.716317
C107	C	1.727309	-0.023306	-0.382984
C108	C	2.060642	0.310027	-0.049650
C109	C	1.394005	-0.356612	-0.823531
C110	C	1.727338	-0.023279	-0.490198
C111	C	2.060672	0.310055	-0.156864
C112	C	1.394063	-0.163543	-0.464773
C113	C	1.727397	0.169790	-0.131440
C114	C	2.060730	0.503123	0.201893
C115	C	1.394130	-0.081229	-0.464795
C116	C	1.727463	0.252104	-0.131461
C117	C	2.060796	0.585438	0.201872
C118	C	1.394031	-0.356562	-1.019826
C119	C	1.727365	-0.023228	-0.686493
C120	C	2.060698	0.310105	-0.353160
C121	C	1.394014	-0.356592	-0.910594
C122	C	1.727347	-0.023258	-0.577260
C123	C	2.060680	0.310075	-0.243927
C124	C	1.393895	-0.356717	-0.214109
C125	C	1.727228	-0.023384	0.119224
C126	C	2.060561	0.309950	0.452557
C127	C	1.394052	-0.356536	-0.106896
C128	C	1.727386	-0.023203	0.226437
C129	C	2.060719	0.310130	0.559771
H130	H	1.336539	-0.792518	-0.614637
H131	H	1.669872	-0.459185	-0.281304
H132	H	2.003206	-0.125851	0.052030
H133	H	1.521159	-0.920406	-0.563673
H134	H	1.854492	-0.587072	-0.230340
H135	H	2.187826	-0.253739	0.102993
C136	C	1.574267	-0.784291	-0.424877
C137	C	1.907600	-0.450958	-0.091544
C138	C	2.240934	-0.117625	0.241789
H139	H	1.634798	-0.803938	-0.443664
H140	H	1.968131	-0.470605	-0.110330
H141	H	2.301464	-0.137271	0.223003
H142	H	1.560171	-0.799199	-0.360856
H143	H	1.893504	-0.465865	-0.027523
H144	H	2.226837	-0.132532	0.305810
H145	H	1.576457	-0.731891	-0.428072
H146	H	1.909791	-0.398558	-0.094739
H147	H	2.243124	-0.065224	0.238594
C148	C	1.266687	-0.784423	-0.332753
C149	C	1.600020	-0.451089	0.000581
C150	C	1.933354	-0.117756	0.333914
H151	H	1.241702	-0.753390	-0.381897
H152	H	1.575035	-0.420057	-0.048564
H153	H	1.908368	-0.086724	0.284769
H154	H	1.272454	-0.757092	-0.274706
H155	H	1.605788	-0.423759	0.058627
H156	H	1.939121	-0.090425	0.391960
H157	H	1.224384	-0.824982	-0.322963
H158	H	1.557717	-0.491648	0.010370
H159	H	1.891050	-0.158315	0.343703
C160	C	1.265147	-0.926023	-0.333742
C161	C	1.598480	-0.592690	-0.000409
C162	C	1.931813	-0.259357	0.332925
H163	H	1.224887	-0.884683	-0.321486
H164	H	1.558221	-0.551350	0.011847
H165	H	1.891554	-0.218017	0.345180
H166	H	1.270081	-0.955279	-0.277194
H167	H	1.603414	-0.621945	0.056139
H168	H	1.936748	-0.288612	0.389473
H169	H	1.238295	-0.954806	-0.384185
H170	H	1.571628	-0.621473	-0.050851
H171	H	1.904961	-0.288140	0.282482
H172	H	1.336722	-0.919748	-0.615115
H173	H	1.670055	-0.586414	-0.281781
H174	H	2.003388	-0.253081	0.051552
C175	C	1.523511	-0.785707	-0.594107
C176	C	1.856845	-0.452374	-0.260774
C177	C	2.190178	-0.119040	0.072559
H178	H	1.584999	-0.804696	-0.610817
H179	H	1.918333	-0.471363	-0.277484
H180	H	2.251666	-0.138029	0.055850
H181	H	1.525644	-0.733253	-0.594335
H182	H	1.858977	-0.399920	-0.261002
H183	H	2.192310	-0.066587	0.072331
H184	H	1.477192	-0.802219	-0.639532
H185	H	1.810526	-0.468886	-0.306199
H186	H	2.143859	-0.135552	0.027135
C187	C	1.218112	-0.928358	-0.516483
C188	C	1.551445	-0.595025	-0.183150
C189	C	1.884779	-0.261691	0.150183
H190	H	1.220826	-0.959530	-0.461534
H191	H	1.554159	-0.626197	-0.128201
H192	H	1.887493	-0.292864	0.205133
H193	H	1.194416	-0.955600	-0.569865
H194	H	1.527749	-0.622266	-0.236532
H195	H	1.861082	-0.288933	0.096802
H196	H	1.176442	-0.887924	-0.503834
H197	H	1.509775	-0.554591	-0.170501
H198	H	1.843109	-0.221257	0.162832
C199	C	1.217145	-0.785989	-0.515956
C200	C	1.550478	-0.452656	-0.182623
C201	C	1.883812	-0.119323	0.150711
H202	H	1.216577	-0.733508	-0.515743
H203	H	1.549910	-0.400174	-0.182410
H204	H	1.883244	-0.066841	0.150923
H205	H	1.198276	-0.803787	-0.454461
H206	H	1.531610	-0.470453	-0.121128
H207	H	1.864943	-0.137120	0.212205
H208	H	1.173545	-0.803641	-0.563304
H209	H	1.506879	-0.470307	-0.229970
H210	H	1.840212	-0.136974	0.103363
C211	C	1.435878	-0.926934	-0.285743
C212	C	1.769211	-0.593601	0.047590
C213	C	2.102544	-0.260267	0.380924
H214	H	1.464462	-0.885962	-0.254004
H215	H	1.797795	-0.552628	0.079329
H216	H	2.131129	-0.219295	0.412663
H217	H	1.484660	-0.956043	-0.314944
H218	H	1.817993	-0.622710	0.018390
H219	H	2.151326	-0.289376	0.351723
H220	H	1.401659	-0.956057	-0.240274
H221	H	1.734992	-0.622724	0.093059
H222	H	2.068326	-0.289390	0.426393
C223	C	1.437239	-0.785777	-0.285815
C224	C	1.770572	-0.452443	0.047518
C225	C	2.103905	-0.119110	0.380852
H226	H	1.484344	-0.754965	-0.314936
H227	H	1.817677	-0.421632	0.018397
H228	H	2.151011	-0.088298	0.351730
H229	H	1.467905	-0.826888	-0.256428
H230	H	1.801238	-0.493554	0.076905
H231	H	2.134571	-0.160221	0.410238
H232	H	1.403172	-0.758484	-0.238417
H233	H	1.736505	-0.425151	0.094916
H234	H	2.069838	-0.091817	0.428249
H235	H	1.551460	-0.919113	-0.436383
H236	H	1.884793	-0.585780	-0.103050
H237	H	2.218126	-0.252446	0.230284
