data_functionalizedCrystal
_audit_creation_method	'MofGen! by Chris Wilmer'
_symmetry_space_group_name_H-M	'P1'
_symmetry_Int_Tables_number	1
_symmetry_cell_setting	triclinic
loop_
_symmetry_equiv_pos_as_xyz
  x,y,z
_cell_length_a	21.295418
_cell_length_b	16.120484
_cell_length_c	16.120297
_cell_angle_alpha	84.385569
_cell_angle_beta	92.858291
_cell_angle_gamma	87.057675
loop_
_atom_site_label
_atom_site_type_symbol
_atom_site_fract_x
_atom_site_fract_y
_atom_site_fract_z
Zn1	Zn	0.929946	0.356428	-0.489852
Zn2	Zn	0.929866	0.489118	-0.357163
Zn3	Zn	0.830299	0.349398	-0.350056
Zn4	Zn	0.819029	0.496197	-0.496838
O5	O	0.877285	0.422785	-0.423477
O6	O	1.018023	0.374009	-0.472302
O7	O	0.921342	0.464679	-0.239260
O8	O	0.848268	0.233364	-0.362702
O9	O	1.017965	0.471496	-0.374815
O10	O	0.921478	0.238529	-0.465410
O11	O	0.848191	0.362028	-0.234039
O12	O	0.740716	0.368892	-0.369476
O13	O	0.829059	0.483561	-0.612871
O14	O	0.732436	0.476745	-0.477316
O15	O	0.910549	0.380873	-0.607739
O16	O	0.910414	0.607024	-0.381589
O17	O	0.828982	0.612225	-0.484207
C18	C	0.713736	0.422824	-0.423383
C19	C	0.643767	0.422862	-0.423364
C20	C	0.868482	0.639953	-0.434445
C21	C	0.864773	0.732860	-0.439166
C22	C	0.868555	0.433791	-0.641479
C23	C	0.864835	0.438481	-0.734379
C24	C	0.606605	0.479088	-0.479440
C25	C	0.540862	0.479069	-0.479476
C26	C	0.512283	0.422833	-0.423422
C27	C	0.549453	0.366597	-0.367342
C28	C	0.615195	0.366612	-0.367313
N29	N	0.412215	0.412594	-0.349988
N30	N	0.349763	0.412585	-0.350018
C31	C	0.314207	0.422784	-0.423508
N32	N	0.343462	0.433009	-0.496969
N33	N	0.405920	0.433022	-0.496938
C34	C	0.440998	0.422810	-0.423448
C35	C	0.205759	0.478992	-0.479628
C36	C	0.140015	0.478968	-0.479666
C37	C	0.148607	0.366500	-0.367524
C38	C	0.214350	0.366520	-0.367494
C39	C	0.242922	0.422771	-0.423545
C40	C	1.041473	0.422747	-0.423572
C41	C	1.111440	0.422730	-0.423612
C42	C	0.886139	0.204770	-0.412484
C43	C	0.889912	0.111865	-0.407800
C44	C	0.858003	0.902963	-0.447801
C45	C	0.896679	0.941768	-0.399167
C46	C	0.892912	1.036419	-0.403972
C47	C	0.861769	0.808303	-0.442997
C48	C	0.858021	0.447025	-0.904466
C49	C	0.896684	0.398295	-0.943327
C50	C	0.892892	0.403049	-1.037970
C51	C	0.861811	0.442272	-0.809815
C52	C	0.886020	0.411762	-0.206320
C53	C	0.889871	0.406837	-0.113409
H54	H	0.510599	0.524854	-0.525143
N55	N	0.810393	0.953102	-0.507726
H56	H	0.832984	0.991228	-0.548302
H57	H	0.781206	0.987613	-0.475447
N58	N	0.944287	0.891624	-0.339232
H59	H	0.940263	0.830136	-0.344250
H60	H	0.936318	0.903860	-0.280284
H61	H	0.822076	0.492312	-0.942272
H62	H	0.629864	0.524890	-0.525082
N63	N	0.117786	0.305847	-0.307067
H64	H	0.131056	0.315723	-0.247974
H65	H	0.131163	0.246835	-0.317197
H66	H	0.526180	0.320808	-0.321704
H67	H	0.229023	0.524791	-0.525273
N68	N	0.655281	0.305960	-0.306834
H69	H	0.627204	0.270326	-0.271332
H70	H	0.682698	0.337970	-0.269799
N71	N	0.099930	0.539617	-0.540148
H72	H	0.128008	0.575254	-0.575645
H73	H	0.072419	0.576510	-0.508016
H74	H	0.932631	0.353004	-0.905519
N75	N	0.254437	0.305872	-0.307017
H76	H	0.226358	0.270240	-0.271513
H77	H	0.281856	0.337878	-0.269982
