data_functionalizedCrystal
_audit_creation_method	'MofGen! by Chris Wilmer'
_symmetry_space_group_name_H-M	'P1'
_symmetry_Int_Tables_number	1
_symmetry_cell_setting	triclinic
loop_
_symmetry_equiv_pos_as_xyz
  x,y,z
_cell_length_a	17.640112
_cell_length_b	13.897448
_cell_length_c	17.640968
_cell_angle_alpha	78.768361
_cell_angle_beta	92.139080
_cell_angle_gamma	101.242525
loop_
_atom_site_label
_atom_site_type_symbol
_atom_site_fract_x
_atom_site_fract_y
_atom_site_fract_z
Zn1	Zn	1.247780	-0.027714	-0.195080
Zn2	Zn	1.222024	-0.226719	-0.068097
Zn3	Zn	1.095117	-0.090459	-0.093726
Zn4	Zn	1.120765	-0.214022	-0.220679
O5	O	1.171421	-0.139729	-0.144395
O6	O	1.350631	-0.033168	-0.156796
O7	O	1.183677	-0.240217	0.034777
O8	O	1.115413	0.052860	-0.107183
O9	O	1.331709	-0.179376	-0.063502
O10	O	1.227574	0.098958	-0.181648
O11	O	1.090439	-0.140107	0.015947
O12	O	0.992251	-0.127795	-0.132005
O13	O	1.159126	-0.157736	-0.323556
O14	O	1.011094	-0.218577	-0.225277
O15	O	1.252444	-0.020856	-0.304749
O16	O	1.208547	-0.360031	-0.088325
O17	O	1.134152	-0.350703	-0.200426
C18	C	0.974119	-0.178617	-0.184201
C19	C	0.889716	-0.195272	-0.201248
C20	C	0.563040	-0.013187	-0.014898
C21	C	0.483732	-0.028853	-0.030926
C22	C	0.503374	-0.123604	-0.127883
C23	C	0.582686	-0.107942	-0.111865
C24	C	0.612512	-0.052734	-0.055371
C25	C	0.632158	-0.147488	-0.152339
C26	C	0.711462	-0.131831	-0.136319
C27	C	0.741294	-0.076628	-0.079826
C28	C	0.691816	-0.037077	-0.039352
C29	C	0.602329	-0.202701	-0.208829
C30	C	0.651801	-0.242247	-0.249302
C31	C	0.731108	-0.226585	-0.233287
C32	C	0.760940	-0.171382	-0.176794
C33	C	0.780586	-0.266136	-0.273761
C34	C	0.859889	-0.250480	-0.257742
C35	C	0.840244	-0.155726	-0.160774
C36	C	1.171362	-0.390361	-0.144385
C37	C	1.171411	-0.497561	-0.144391
C38	C	1.171500	-0.693826	-0.144423
C39	C	1.171449	-0.584610	-0.144408
C40	C	1.369495	-0.100689	-0.104435
C41	C	1.453902	-0.084053	-0.087406
C42	C	1.211519	-0.080881	-0.342478
C43	C	1.228606	-0.055803	-0.426890
C44	C	1.171506	0.111891	-0.144419
C45	C	1.171541	0.219116	-0.144429
C46	C	1.041904	-0.329658	-0.753462
C47	C	1.057976	-0.306079	-0.832776
C48	C	1.155140	-0.163558	-0.813183
C49	C	1.139073	-0.187123	-0.733866
C50	C	1.082455	-0.270175	-0.704012
C51	C	1.179624	-0.127639	-0.684416
C52	C	1.163562	-0.151206	-0.605106
C53	C	1.106948	-0.234255	-0.575246
C54	C	1.066393	-0.293741	-0.624702
C55	C	1.236246	-0.044592	-0.714271
C56	C	1.276797	0.014891	-0.664821
C57	C	1.260731	-0.008670	-0.585510
C58	C	1.204117	-0.091720	-0.555650
C59	C	1.301286	0.050815	-0.536054
C60	C	1.285224	0.027249	-0.456744
C61	C	1.188055	-0.115286	-0.476339
C62	C	1.131524	-0.198270	0.052926
C63	C	1.114584	-0.223047	0.137366
H64	H	0.900171	-0.282681	-0.290700
O65	O	0.818304	-0.061537	-0.064137
C66	C	0.830033	-0.102549	0.014036
H67	H	0.777955	-0.162912	0.036251
H68	H	0.837452	-0.041164	0.049684
C69	C	0.967135	-0.074589	-0.006023
C70	C	0.903175	-0.148735	0.021261
H71	H	1.012253	-0.103075	-0.001564
H72	H	0.959234	-0.046955	-0.058689
H73	H	0.973307	-0.023441	0.023688
H74	H	0.896998	-0.199874	-0.008456
H75	H	0.911076	-0.176379	0.073922
O76	O	1.251973	-0.021754	-0.791288
C77	C	1.330115	-0.024290	-0.803093
H78	H	1.352236	-0.073748	-0.751052
H79	H	1.365889	0.054670	-0.810525
C80	C	1.310098	-0.006168	-0.940168
C81	C	1.337265	-0.066920	-0.876252
H82	H	1.314511	-0.032460	-0.985298
H83	H	1.257453	-0.004456	-0.932216
H84	H	1.339913	0.059628	-0.946351
H85	H	1.307445	-0.132711	-0.870065
H86	H	1.389906	-0.068645	-0.884205
O87	O	0.474276	-0.177168	-0.182759
C88	C	0.393668	-0.182532	-0.188206
H89	H	0.377819	-0.117545	-0.165619
H90	H	0.362950	-0.256155	-0.152238
C91	C	0.387988	-0.256543	-0.300996
C92	C	0.368523	-0.176720	-0.273261
H93	H	0.372475	-0.252963	-0.353461
H94	H	0.442294	-0.252933	-0.297325
H95	H	0.362388	-0.317888	-0.271015
H96	H	0.394130	-0.115379	-0.303235
H97	H	0.314220	-0.180320	-0.276938
O98	O	1.091481	-0.257129	-0.498176
C99	C	1.158878	-0.275459	-0.456984
H100	H	1.211883	-0.236774	-0.493857
H101	H	1.157612	-0.359367	-0.442583
C102	C	1.097509	-0.281907	-0.336343
C103	C	1.162611	-0.234386	-0.381629
H104	H	1.099811	-0.256576	-0.289858
H105	H	1.052101	-0.269561	-0.364094
H106	H	1.096461	-0.351827	-0.324350
H107	H	1.163653	-0.164469	-0.393628
H108	H	1.208020	-0.246719	-0.353878
H109	H	1.020271	-0.361351	-0.600397
H110	H	1.322898	0.082510	-0.689139
H111	H	0.443455	0.003362	0.002031
H112	H	1.141933	-0.182896	-0.452035
H113	H	1.347390	0.118430	-0.560372
H114	H	0.537754	-0.215447	-0.221869
O115	O	0.986917	-0.410411	-0.724575
C116	C	0.954557	-0.457855	-0.785227
H117	H	0.997098	-0.438245	-0.835494
H118	H	0.898588	-0.431419	-0.805291
C119	C	0.885095	-0.595966	-0.694736
C120	C	0.937349	-0.571887	-0.756473
H121	H	0.874477	-0.666307	-0.676999
H122	H	0.906894	-0.564001	-0.653873
H123	H	0.838461	-0.573929	-0.711465
H124	H	0.983985	-0.593913	-0.739741
H125	H	0.915557	-0.603859	-0.797333
O126	O	1.018693	-0.363929	-0.880828
C127	C	1.071198	-0.404061	-0.917992
H128	H	1.126164	-0.405342	-0.882019
H129	H	1.085997	-0.355853	-0.977572
C130	C	0.966799	-0.509720	-0.970881
C131	C	1.034307	-0.511300	-0.926695
H132	H	0.944043	-0.575868	-0.976253
H133	H	0.931425	-0.482679	-0.945846
H134	H	0.979142	-0.469541	-1.020526
H135	H	1.021962	-0.551468	-0.877048
H136	H	1.069678	-0.538350	-0.951722
O137	O	1.210080	-0.082782	-0.842112
C138	C	1.189574	0.004337	-0.826109
H139	H	1.148720	-0.016529	-0.774417
H140	H	1.159581	0.042392	-0.878630
C141	C	1.313055	0.101908	-0.870997
C142	C	1.262883	0.076281	-0.807504
H143	H	1.358275	0.146289	-0.859524
H144	H	1.326870	0.043216	-0.881781
H145	H	1.288052	0.133615	-0.914759
H146	H	1.287883	0.044564	-0.763746
H147	H	1.249074	0.134970	-0.796712
H148	H	0.627505	-0.287201	-0.295297
H149	H	0.756288	-0.311095	-0.319753
O150	O	1.324659	0.085161	-0.408816
C151	C	1.378087	0.163505	-0.452170
H152	H	1.358437	0.177517	-0.514984
H153	H	1.437459	0.142053	-0.448960
C154	C	1.406928	0.241921	-0.341862
C155	C	1.382789	0.259137	-0.419010
H156	H	1.409832	0.300911	-0.321406
H157	H	1.370935	0.189138	-0.312652
H158	H	1.456402	0.224043	-0.339197
H159	H	1.333312	0.277003	-0.421673
H160	H	1.418774	0.311926	-0.448220
H161	H	0.864532	-0.110752	-0.114783
H162	H	0.587328	0.031786	0.031094
O163	O	0.720743	0.016408	0.015629
C164	C	0.686005	-0.030835	0.087427
H165	H	0.663391	-0.113359	0.086959
H166	H	0.635974	0.005963	0.097915
C167	C	0.773966	0.080683	0.152896
C168	C	0.746197	-0.020676	0.152323
H169	H	0.811092	0.086953	0.192927
H170	H	0.797368	0.112515	0.104524
H171	H	0.732267	0.111337	0.161633
H172	H	0.787893	-0.051325	0.143576
H173	H	0.722803	-0.052513	0.200695
