data_functionalizedCrystal
_audit_creation_method	'MofGen! by Chris Wilmer'
_symmetry_space_group_name_H-M	'P1'
_symmetry_Int_Tables_number	1
_symmetry_cell_setting	triclinic
loop_
_symmetry_equiv_pos_as_xyz
  x,y,z
_cell_length_a	11.169417
_cell_length_b	11.169416
_cell_length_c	11.169409
_cell_angle_alpha	90.027704
_cell_angle_beta	90.021683
_cell_angle_gamma	90.011020
loop_
_atom_site_label
_atom_site_type_symbol
_atom_site_fract_x
_atom_site_fract_y
_atom_site_fract_z
Zn1	Zn	-1.834948	0.477744	-0.678641
Zn2	Zn	-1.834831	0.678484	-0.477974
Zn3	Zn	-1.634234	0.477810	-0.477969
Zn4	Zn	-1.634235	0.678380	-0.678612
O5	O	-1.734562	0.578105	-0.578299
O6	O	-2.002882	0.504389	-0.652036
O7	O	-1.808172	0.651936	-0.310023
O8	O	-1.660907	0.309852	-0.504598
O9	O	-2.002796	0.651872	-0.504607
O10	O	-1.808371	0.309803	-0.652031
O11	O	-1.660794	0.504502	-0.310020
O12	O	-1.466284	0.504400	-0.504570
O13	O	-1.660910	0.651694	-0.846566
O14	O	-1.466285	0.651758	-0.651982
O15	O	-1.808372	0.504287	-0.846587
O16	O	-1.808173	0.846420	-0.504579
O17	O	-1.660796	0.846344	-0.651988
C18	C	-1.422737	0.578076	-0.578273
C19	C	-1.289337	0.578092	-0.578291
C20	C	-1.734505	0.889929	-0.578307
C21	C	-1.734590	1.023329	-0.578351
C22	C	-1.047604	0.578124	-0.578316
C23	C	-1.181004	0.578107	-0.578299
C24	C	-1.734654	0.577971	-0.891342
C25	C	-1.734693	0.577915	-1.024742
C26	C	-1.734643	1.265062	-0.578333
C27	C	-1.734657	1.131662	-0.578389
C28	C	-1.734539	0.578151	-0.266474
C29	C	-1.734732	0.577869	-0.133075
