data_functionalizedCrystal
_audit_creation_method	'MofGen! by Chris Wilmer'
_symmetry_space_group_name_H-M	'P1'
_symmetry_Int_Tables_number	1
_symmetry_cell_setting	triclinic
loop_
_symmetry_equiv_pos_as_xyz
  x,y,z
_cell_length_a	25.639239
_cell_length_b	21.395362
_cell_length_c	21.395355
_cell_angle_alpha	90.043940
_cell_angle_beta	89.980666
_cell_angle_gamma	89.945436
loop_
_atom_site_label
_atom_site_type_symbol
_atom_site_fract_x
_atom_site_fract_y
_atom_site_fract_z
Zn1	Zn	-0.207990	-0.957825	-0.354582
Zn2	Zn	0.125344	-0.624491	-0.021249
Zn3	Zn	0.458677	-0.291158	0.312085
Zn4	Zn	-0.295409	-0.957713	-0.249803
Zn5	Zn	0.037924	-0.624379	0.083530
Zn6	Zn	0.371257	-0.291046	0.416864
Zn7	Zn	-0.208014	-0.853040	-0.249783
Zn8	Zn	0.125319	-0.519706	0.083550
Zn9	Zn	0.458653	-0.186373	0.416883
Zn10	Zn	-0.295420	-0.852994	-0.354508
Zn11	Zn	0.037913	-0.519661	-0.021174
Zn12	Zn	0.371246	-0.186328	0.312159
O13	O	-0.251708	-0.905393	-0.302169
O14	O	0.081625	-0.572060	0.031164
O15	O	0.414958	-0.238726	0.364498
O16	O	-0.219571	-1.045488	-0.340722
O17	O	0.113762	-0.712154	-0.007389
O18	O	0.447095	-0.378821	0.325944
O19	O	-0.283822	-0.943800	-0.162122
O20	O	0.049511	-0.610466	0.171211
O21	O	0.382845	-0.277133	0.504544
O22	O	-0.134846	-0.867006	-0.263708
O23	O	0.198488	-0.533672	0.069625
O24	O	0.531821	-0.200339	0.402959
O25	O	-0.283798	-1.045405	-0.263742
O26	O	0.049535	-0.712072	0.069592
O27	O	0.382868	-0.378739	0.402925
O28	O	-0.134828	-0.943991	-0.340703
O29	O	0.198506	-0.610657	-0.007370
O30	O	0.531839	-0.277324	0.325964
O31	O	-0.219613	-0.866897	-0.162108
O32	O	0.113720	-0.533564	0.171225
O33	O	0.447054	-0.200230	0.504559
O34	O	-0.219623	-0.765356	-0.263636
O35	O	0.113710	-0.432022	0.069697
O36	O	0.447043	-0.098689	0.403031
O37	O	-0.283817	-0.866928	-0.442196
O38	O	0.049517	-0.533595	-0.108862
O39	O	0.382850	-0.200262	0.224471
O40	O	-0.283840	-0.765322	-0.340576
O41	O	0.049493	-0.431989	-0.007243
O42	O	0.382826	-0.098656	0.326090
O43	O	-0.219582	-0.943947	-0.442250
O44	O	0.113751	-0.610613	-0.108917
O45	O	0.447085	-0.277280	0.224417
O46	O	-0.368576	-0.943756	-0.263669
O47	O	-0.035243	-0.610422	0.069664
O48	O	0.298091	-0.277089	0.402997
O49	O	-0.368584	-0.866820	-0.340596
O50	O	-0.035251	-0.533486	-0.007262
O51	O	0.298083	-0.200153	0.326071
C52	C	-0.251736	-0.742605	-0.302096
C53	C	0.081597	-0.409272	0.031237
C54	C	0.414931	-0.075939	0.364570
C55	C	-0.251760	-0.672964	-0.302080
C56	C	0.081573	-0.339631	0.031253
C57	C	0.414906	-0.006297	0.364587
C58	C	-0.387551	-0.905288	-0.302140
C59	C	-0.054218	-0.571954	0.031193
C60	C	0.279116	-0.238621	0.364526
C61	C	-0.445665	-0.905300	-0.302149
C62	C	-0.112332	-0.571966	0.031184
C63	C	0.221002	-0.238633	0.364518
C64	C	-0.251698	-0.905445	-0.465592
C65	C	0.081636	-0.572112	-0.132259
C66	C	0.414969	-0.238778	0.201074
C67	C	-0.251693	-0.905467	-0.535234
C68	C	0.081640	-0.572134	-0.201900
C69	C	0.414973	-0.238800	0.131433
C70	C	-0.806011	-0.945558	-0.262182
C71	C	-0.472678	-0.612225	0.071151
C72	C	-0.139345	-0.278891	0.404485
C73	C	-0.860616	-0.945582	-0.262190
C74	C	-0.527282	-0.612249	0.071143
C75	C	-0.193949	-0.278916	0.404476
O76	O	-0.888838	-0.979702	-0.228177
O77	O	-0.555505	-0.646369	0.105156
O78	O	-0.222171	-0.313035	0.438489
N79	N	-0.887947	-0.905503	-0.302211
N80	N	-0.554614	-0.572170	0.031123
N81	N	-0.221281	-0.238836	0.364456
C82	C	-0.860672	-0.865401	-0.342230
C83	C	-0.527339	-0.532068	-0.008896
C84	C	-0.194005	-0.198735	0.324437
O85	O	-0.888934	-0.831313	-0.376271
O86	O	-0.555601	-0.497980	-0.042938
O87	O	-0.222267	-0.164647	0.290396
C88	C	-0.806069	-0.865381	-0.342224
C89	C	-0.472735	-0.532047	-0.008891
C90	C	-0.139402	-0.198714	0.324443
C91	C	-0.778740	-0.905458	-0.302196
C92	C	-0.445406	-0.572125	0.031137
C93	C	-0.112073	-0.238791	0.364470
C94	C	-0.778682	-0.985633	-0.222158
C95	C	-0.445349	-0.652299	0.111175
C96	C	-0.112016	-0.318966	0.444508
C97	C	-0.724082	-0.985608	-0.222149
C98	C	-0.390748	-0.652274	0.111184
C99	C	-0.057415	-0.318941	0.444517
C100	C	-0.696810	-0.945508	-0.262164
C101	C	-0.363477	-0.612174	0.071170
C102	C	-0.030144	-0.278841	0.404503
C103	C	-0.724139	-0.905433	-0.302187
C104	C	-0.390806	-0.572099	0.031146
C105	C	-0.057473	-0.238766	0.364479
C106	C	-0.778794	-0.825282	-0.382246
C107	C	-0.445461	-0.491949	-0.048912
C108	C	-0.112128	-0.158616	0.284421
C109	C	-0.724187	-0.825266	-0.382237
C110	C	-0.390854	-0.491932	-0.048903
C111	C	-0.057521	-0.158599	0.284430
C112	C	-0.696858	-0.865343	-0.342209
C113	C	-0.363525	-0.532010	-0.008876
C114	C	-0.030192	-0.198676	0.324457
C115	C	-0.642267	-0.865308	-0.342193
C116	C	-0.308934	-0.531974	-0.008860
C117	C	0.024399	-0.198641	0.324474
N118	N	-0.614935	-0.905387	-0.302173
N119	N	-0.281602	-0.572054	0.031161
N120	N	0.051731	-0.238720	0.364494
C121	C	-0.642207	-0.945487	-0.262158
C122	C	-0.308874	-0.612154	0.071175
C123	C	0.024460	-0.278820	0.404509
C124	C	-0.975343	-0.865448	-0.342239
C125	C	-0.642009	-0.532115	-0.008906
C126	C	-0.308676	-0.198782	0.324427
C127	C	-1.029945	-0.865465	-0.342242
C128	C	-0.696612	-0.532132	-0.008909
C129	C	-0.363278	-0.198799	0.324424
C130	C	-1.029885	-0.945648	-0.262204
C131	C	-0.696551	-0.612314	0.071130
C132	C	-0.363218	-0.278981	0.404463
C133	C	-0.975281	-0.945627	-0.262198
C134	C	-0.641948	-0.612294	0.071135
C135	C	-0.308615	-0.278960	0.404469
C136	C	-0.948011	-0.905528	-0.302219
C137	C	-0.614678	-0.572194	0.031114
C138	C	-0.281344	-0.238861	0.364448
C139	C	-0.527542	-0.945430	-0.262142
C140	C	-0.194209	-0.612097	0.071192
C141	C	0.139125	-0.278764	0.404525
C142	C	-0.472937	-0.945400	-0.262134
C143	C	-0.139603	-0.612066	0.071199
C144	C	0.193730	-0.278733	0.404532
C145	C	-0.473002	-0.865220	-0.342175
C146	C	-0.139668	-0.531887	-0.008842
C147	C	0.193665	-0.198554	0.324492
C148	C	-0.527602	-0.865248	-0.342180
C149	C	-0.194269	-0.531915	-0.008847
C150	C	0.139065	-0.198582	0.324486
C151	C	-0.554871	-0.905358	-0.302162
C152	C	-0.221538	-0.572025	0.031172
C153	C	0.111796	-0.238692	0.364505
O154	O	-0.614010	-0.831207	-0.376190
O155	O	-0.280677	-0.497874	-0.042857
O156	O	0.052657	-0.164540	0.290476
O157	O	-0.613939	-0.979575	-0.228128
O158	O	-0.280605	-0.646242	0.105205
O159	O	0.052728	-0.312908	0.438539
C160	C	-0.115335	-0.905516	-0.302212
C161	C	0.217998	-0.572182	0.031122
C162	C	0.551331	-0.238849	0.364455
C163	C	-0.057221	-0.905568	-0.302230
C164	C	0.276112	-0.572235	0.031104
C165	C	0.609445	-0.238901	0.364437
C166	C	-0.251681	-1.068816	-0.302242
C167	C	0.081652	-0.735483	0.031091
C168	C	0.414986	-0.402150	0.364424
C169	C	-0.251669	-1.138458	-0.302274
C170	C	0.081664	-0.805124	0.031060
C171	C	0.414997	-0.471791	0.364393
C172	C	-0.285243	-0.640250	-0.342083
C173	C	0.048091	-0.306916	-0.008750
C174	C	0.381424	0.026417	0.324584
C175	C	-0.285230	-0.574814	-0.342111
C176	C	0.048104	-0.241481	-0.008778
C177	C	0.381437	0.091852	0.324556
C178	C	-0.251740	-0.542096	-0.302125
C179	C	0.081593	-0.208762	0.031209
C180	C	0.414926	0.124571	0.364542
C181	C	-0.218252	-0.574818	-0.262119
C182	C	0.115082	-0.241484	0.071214
C183	C	0.448415	0.091849	0.404548
C184	C	-0.218262	-0.640252	-0.262097
C185	C	0.115071	-0.306918	0.071237
C186	C	0.448405	0.026415	0.404570
C187	C	-0.247528	-0.438372	-0.245720
C188	C	0.085805	-0.105038	0.087614
C189	C	0.419138	0.228295	0.420947
C190	C	-0.247522	-0.372939	-0.245741
C191	C	0.085811	-0.039605	0.087593
C192	C	0.419145	0.293728	0.420926
C193	C	-0.251706	-0.340275	-0.302194
C194	C	0.081627	-0.006942	0.031139
C195	C	0.414960	0.326392	0.364473
C196	C	-0.255908	-0.373052	-0.358627
C197	C	0.077425	-0.039719	-0.025294
C198	C	0.410759	0.293614	0.308039
C199	C	-0.255918	-0.438486	-0.358605
C200	C	0.077415	-0.105153	-0.025272
C201	C	0.410749	0.228180	0.308062
C202	C	-0.251725	-0.471143	-0.302145
C203	C	0.081608	-0.137810	0.031189
C204	C	0.414941	0.195523	0.364522
C205	C	-0.285176	-0.236608	-0.342231
C206	C	0.048157	0.096725	-0.008897
C207	C	0.381490	0.430058	0.324436
C208	C	-0.285160	-0.171172	-0.342260
C209	C	0.048174	0.162162	-0.008926
C210	C	0.381507	0.495495	0.324407
C211	C	-0.218185	-0.171176	-0.262262
C212	C	0.115149	0.162157	0.071071
C213	C	0.448482	0.495490	0.404405
C214	C	-0.218198	-0.236612	-0.262239
C215	C	0.115135	0.096722	0.071095
C216	C	0.448468	0.430055	0.404428
C217	C	-0.251697	-0.269324	-0.302222
C218	C	0.081636	0.064010	0.031111
C219	C	0.414970	0.397343	0.364445
C220	C	-0.218245	-0.945569	-0.567976
C221	C	0.115089	-0.612236	-0.234643
C222	C	0.448422	-0.278902	0.098690
C223	C	-0.218222	-0.945568	-0.633412
C224	C	0.115111	-0.612235	-0.300078
C225	C	0.448444	-0.278901	0.033255
C226	C	-0.251658	-0.905472	-0.666102
C227	C	0.081676	-0.572139	-0.332769
C228	C	0.415009	-0.238805	0.000565
C229	C	-0.285108	-0.865362	-0.633352
C230	C	0.048225	-0.532029	-0.300018
C231	C	0.381558	-0.198696	0.033315
C232	C	-0.285126	-0.865360	-0.567917
C233	C	0.048207	-0.532027	-0.234584
C234	C	0.381540	-0.198693	0.098749
C235	C	-0.298736	-0.900488	-0.769765
C236	C	0.034597	-0.567155	-0.436432
C237	C	0.367931	-0.233821	-0.103098
C238	C	-0.298719	-0.900495	-0.835198
C239	C	0.034614	-0.567162	-0.501865
C240	C	0.367947	-0.233828	-0.168531
C241	C	-0.251602	-0.905476	-0.867923
C242	C	0.081731	-0.572143	-0.534590
C243	C	0.415064	-0.238809	-0.201256
C244	C	-0.204501	-0.910463	-0.835207
C245	C	0.128832	-0.577130	-0.501873
C246	C	0.462166	-0.243796	-0.168540
C247	C	-0.204519	-0.910461	-0.769773
C248	C	0.128814	-0.577127	-0.436439
C249	C	0.462148	-0.243794	-0.103106
C250	C	-0.251642	-0.905470	-0.737054
C251	C	0.081691	-0.572137	-0.403721
C252	C	0.415025	-0.238803	-0.070388
C253	C	-0.218127	-0.945579	-0.971618
C254	C	0.115207	-0.612246	-0.638285
C255	C	0.448540	-0.278912	-0.304951
C256	C	-0.218103	-0.945574	-1.037055
C257	C	0.115230	-0.612240	-0.703721
C258	C	0.448563	-0.278907	-0.370388
C259	C	-0.284994	-0.865371	-1.036993
C260	C	0.048339	-0.532038	-0.703660
C261	C	0.381672	-0.198705	-0.370327
C262	C	-0.285013	-0.865373	-0.971558
C263	C	0.048320	-0.532040	-0.638225
C264	C	0.381654	-0.198707	-0.304891
C265	C	-0.251580	-0.905480	-0.938874
C266	C	0.081753	-0.572147	-0.605541
C267	C	0.415087	-0.238814	-0.272208
C268	C	-0.251681	-0.905377	-0.139381
C269	C	0.081652	-0.572044	0.193952
C270	C	0.414985	-0.238710	0.527285
C271	C	-0.251538	-0.905476	-0.069741
C272	C	0.081795	-0.572143	0.263593
C273	C	0.415128	-0.238810	0.596926
H274	H	-0.450687	-0.978036	-0.229537
H275	H	-0.117354	-0.644702	0.103796
H276	H	0.215980	-0.311369	0.437130
H277	H	-0.190984	-0.548174	-0.229563
H278	H	0.142350	-0.214840	0.103770
H279	H	0.475683	0.118493	0.437104
H280	H	-0.312450	-0.263244	-0.374791
H281	H	0.020883	0.070089	-0.041457
H282	H	0.354217	0.403423	0.291876
C283	C	-0.442998	-0.821119	-0.386195
C284	C	-0.109665	-0.487786	-0.052862
C285	C	0.223668	-0.154452	0.280472
H286	H	-0.467092	-0.797251	-0.410035
H287	H	-0.133759	-0.463917	-0.076702
H288	H	0.199575	-0.130584	0.256632
H289	H	-0.421663	-0.845074	-0.413515
H290	H	-0.088330	-0.511740	-0.080182
H291	H	0.245003	-0.178407	0.253151
H292	H	-0.421734	-0.793818	-0.362191
H293	H	-0.088401	-0.460485	-0.028858
H294	H	0.244932	-0.127152	0.304475
C295	C	-1.059890	-0.989756	-0.218186
C296	C	-0.726557	-0.656422	0.115147
C297	C	-0.393224	-0.323089	0.448481
H298	H	-1.096323	-0.984028	-0.223928
H299	H	-0.762990	-0.650694	0.109405
H300	H	-0.429657	-0.317361	0.442738
H301	H	-1.050969	-0.980602	-0.176076
H302	H	-0.717635	-0.647269	0.157258
H303	H	-0.384302	-0.313936	0.490591
H304	H	-1.050897	-1.031849	-0.227408
H305	H	-0.717564	-0.698516	0.105925
H306	H	-0.384230	-0.365183	0.439259
C307	C	-0.181344	-0.989683	-0.935663
C308	C	0.151989	-0.656350	-0.602330
C309	C	0.485323	-0.323017	-0.268997
H310	H	-0.161413	-1.013559	-0.964538
H311	H	0.171921	-0.680226	-0.631205
H312	H	0.505254	-0.346893	-0.297871
H313	H	-0.201343	-1.016967	-0.910156
H314	H	0.131991	-0.683634	-0.576823
H315	H	0.465324	-0.350300	-0.243489
H316	H	-0.158575	-0.965727	-0.910122
H317	H	0.174758	-0.632393	-0.576789
H318	H	0.508092	-0.299060	-0.243455
H319	H	-0.549855	-0.832616	-0.374776
H320	H	-0.216521	-0.499283	-0.041442
H321	H	0.116812	-0.165949	0.291891
C322	C	-0.152713	-0.915938	-0.733784
C323	C	0.180620	-0.582605	-0.400451
C324	C	0.513953	-0.249272	-0.067117
H325	H	-0.159475	-0.915227	-0.690128
H326	H	0.173858	-0.581894	-0.356795
H327	H	0.507192	-0.248560	-0.023461
H328	H	-0.130723	-0.881875	-0.744482
H329	H	0.202610	-0.548542	-0.411149
H330	H	0.535943	-0.215208	-0.077815
H331	H	-0.135985	-0.954101	-0.744533
H332	H	0.197348	-0.620768	-0.411199
H333	H	0.530682	-0.287434	-0.077866
H334	H	-0.166134	-0.914520	-0.861850
H335	H	0.167199	-0.581187	-0.528516
H336	H	0.500532	-0.247853	-0.195183
C337	C	-0.181466	-0.989680	-0.532028
C338	C	0.151867	-0.656346	-0.198694
C339	C	0.485201	-0.323013	0.134639
H340	H	-0.161539	-1.013559	-0.560903
H341	H	0.171795	-0.680226	-0.227570
H342	H	0.505128	-0.346893	0.105763
H343	H	-0.201467	-1.016960	-0.506519
H344	H	0.131866	-0.683626	-0.173186
H345	H	0.465199	-0.350293	0.160147
H346	H	-0.158692	-0.965728	-0.506487
H347	H	0.174641	-0.632395	-0.173154
H348	H	0.507974	-0.299062	0.160180
H349	H	-0.549738	-0.978093	-0.229556
H350	H	-0.216404	-0.644760	0.103777
H351	H	0.116929	-0.311427	0.437111
C352	C	-0.808675	-1.029737	-0.178131
C353	C	-0.475342	-0.696404	0.155202
C354	C	-0.142009	-0.363071	0.488535
H355	H	-0.845111	-1.024018	-0.183860
H356	H	-0.511777	-0.690685	0.149474
H357	H	-0.178444	-0.357351	0.482807
H358	H	-0.799743	-1.020575	-0.136026
H359	H	-0.466409	-0.687242	0.197307
H360	H	-0.133076	-0.353909	0.530640
H361	H	-0.799678	-1.071831	-0.187350
H362	H	-0.466345	-0.738497	0.145983
H363	H	-0.133012	-0.405164	0.479317
H364	H	-0.312519	-0.666880	-0.374642
H365	H	0.020814	-0.333547	-0.041308
H366	H	0.354148	-0.000213	0.292025
C367	C	-0.322031	-0.538821	-0.386152
C368	C	0.011302	-0.205488	-0.052819
C369	C	0.344636	0.127845	0.280514
H370	H	-0.341975	-0.567675	-0.409971
H371	H	-0.008641	-0.234342	-0.076637
H372	H	0.324692	0.098991	0.256696
H373	H	-0.302032	-0.513371	-0.413491
H374	H	0.031301	-0.180038	-0.080158
H375	H	0.364634	0.153295	0.253175
H376	H	-0.344789	-0.513220	-0.362171
H377	H	-0.011456	-0.179887	-0.028838
H378	H	0.321878	0.153447	0.304495
H379	H	-0.701834	-1.018244	-0.189557
H380	H	-0.368500	-0.684910	0.143776
H381	H	-0.035167	-0.351577	0.477109
H382	H	-1.052192	-0.832824	-0.374831
H383	H	-0.718858	-0.499491	-0.041497
H384	H	-0.385525	-0.166158	0.291836
H385	H	-0.953033	-0.978262	-0.229605
H386	H	-0.619700	-0.644928	0.103729
H387	H	-0.286367	-0.311595	0.437062
C388	C	-0.321888	-0.821257	-0.669305
C389	C	0.011446	-0.487924	-0.335972
C390	C	0.344779	-0.154591	-0.002639
H391	H	-0.341809	-0.797369	-0.640430
H392	H	-0.008476	-0.464036	-0.307097
H393	H	0.324857	-0.130703	0.026236
H394	H	-0.344658	-0.845204	-0.694848
H395	H	-0.011325	-0.511871	-0.361515
H396	H	0.322008	-0.178538	-0.028181
H397	H	-0.301881	-0.793975	-0.694811
H398	H	0.031452	-0.460642	-0.361478
H399	H	0.364785	-0.127309	-0.028145
C400	C	-0.321929	-0.821255	-0.531899
C401	C	0.011405	-0.487922	-0.198566
C402	C	0.344738	-0.154588	0.134768
H403	H	-0.341842	-0.797377	-0.560738
H404	H	-0.008509	-0.464044	-0.227404
H405	H	0.324825	-0.130711	0.105929
H406	H	-0.301945	-0.793973	-0.506348
H407	H	0.031388	-0.460639	-0.173014
H408	H	0.364722	-0.127306	0.160319
H409	H	-0.344714	-0.845212	-0.506397
H410	H	-0.011380	-0.511878	-0.173064
H411	H	0.321953	-0.178545	0.160270
H412	H	-0.953142	-0.832790	-0.374827
H413	H	-0.619808	-0.499456	-0.041494
H414	H	-0.286475	-0.166123	0.291839
H415	H	-0.312424	-0.144537	-0.374839
H416	H	0.020910	0.188796	-0.041505
H417	H	0.354243	0.522130	0.291828
H418	H	-0.190982	-0.978222	-0.660076
H419	H	0.142352	-0.644889	-0.326743
H420	H	0.475685	-0.311556	0.006591
C421	C	-0.181308	-0.989688	-1.073072
C422	C	0.152025	-0.656355	-0.739738
C423	C	0.485358	-0.323022	-0.406405
H424	H	-0.161405	-1.013577	-1.044232
H425	H	0.171929	-0.680243	-0.710899
H426	H	0.505262	-0.346910	-0.377566
H427	H	-0.158522	-0.965746	-1.098580
H428	H	0.174812	-0.632413	-0.765246
H429	H	0.508145	-0.299079	-0.431913
H430	H	-0.201303	-1.016970	-1.098618
H431	H	0.132030	-0.683636	-0.765284
H432	H	0.465364	-0.350303	-0.431951
C433	C	-0.181433	-0.676242	-0.218091
C434	C	0.151901	-0.342908	0.115243
C435	C	0.485234	-0.009575	0.448576
H436	H	-0.186234	-0.719897	-0.223806
H437	H	0.147099	-0.386564	0.109527
H438	H	0.480433	-0.053231	0.442860
H439	H	-0.189028	-0.665460	-0.175980
H440	H	0.144305	-0.332127	0.157353
H441	H	0.477639	0.001206	0.490687
H442	H	-0.146311	-0.665578	-0.227347
H443	H	0.187022	-0.332245	0.105987
H444	H	0.520356	0.001088	0.439320
C445	C	-0.350567	-0.895009	-0.733771
C446	C	-0.017233	-0.561676	-0.400438
C447	C	0.316100	-0.228342	-0.067104
H448	H	-0.343832	-0.895716	-0.690116
H449	H	-0.010498	-0.562382	-0.356782
H450	H	0.322835	-0.229049	-0.023449
H451	H	-0.372551	-0.929073	-0.744519
H452	H	-0.039217	-0.595740	-0.411186
H453	H	0.294116	-0.262406	-0.077852
H454	H	-0.367288	-0.856847	-0.744467
H455	H	-0.033954	-0.523514	-0.411133
H456	H	0.299379	-0.190180	-0.077800
C457	C	-0.808844	-0.781201	-0.426281
C458	C	-0.475511	-0.447868	-0.092948
C459	C	-0.142178	-0.114534	0.240386
H460	H	-0.784775	-0.757326	-0.450113
H461	H	-0.451441	-0.423993	-0.116780
H462	H	-0.118108	-0.090659	0.216553
H463	H	-0.830186	-0.753916	-0.402292
H464	H	-0.496853	-0.420582	-0.068959
H465	H	-0.163519	-0.087249	0.264374
H466	H	-0.830106	-0.805170	-0.453617
H467	H	-0.496772	-0.471837	-0.120284
H468	H	-0.163439	-0.138503	0.213049
C469	C	-0.321776	-0.821270	-1.072945
C470	C	0.011557	-0.487937	-0.739612
C471	C	0.344891	-0.154604	-0.406278
H472	H	-0.316978	-0.827018	-1.116605
H473	H	0.016355	-0.493685	-0.783272
H474	H	0.349688	-0.160351	-0.449939
H475	H	-0.314139	-0.779178	-1.062192
H476	H	0.019195	-0.445845	-0.728858
H477	H	0.352528	-0.112511	-0.395525
H478	H	-0.356908	-0.830417	-1.062226
H479	H	-0.023574	-0.497084	-0.728892
H480	H	0.309759	-0.163750	-0.395559
C481	C	-0.181372	-0.272602	-0.218231
C482	C	0.151961	0.060732	0.115102
C483	C	0.485294	0.394065	0.448435
H484	H	-0.186172	-0.316257	-0.223948
H485	H	0.147162	0.017076	0.109385
H486	H	0.480495	0.350409	0.442718
H487	H	-0.188969	-0.261822	-0.176121
H488	H	0.144365	0.071512	0.157213
H489	H	0.477698	0.404845	0.490546
H490	H	-0.146251	-0.261936	-0.227486
H491	H	0.187083	0.071397	0.105847
H492	H	0.520416	0.404731	0.439180
H493	H	-0.259338	-0.465171	-0.404555
H494	H	0.073996	-0.131838	-0.071222
H495	H	0.407329	0.201496	0.262111
C496	C	-0.181340	-0.135194	-0.218285
C497	C	0.151993	0.198140	0.115048
C498	C	0.485326	0.531473	0.448381
H499	H	-0.186129	-0.091537	-0.224027
H500	H	0.147204	0.241796	0.109306
H501	H	0.480538	0.575129	0.442639
H502	H	-0.146226	-0.145980	-0.227533
H503	H	0.187107	0.187353	0.105800
H504	H	0.520441	0.520686	0.439133
H505	H	-0.188940	-0.145855	-0.176163
H506	H	0.144393	0.187478	0.157171
H507	H	0.477727	0.520811	0.490504
C508	C	-0.321811	-0.821265	-0.935539
C509	C	0.011523	-0.487932	-0.602206
C510	C	0.344856	-0.154599	-0.268873
H511	H	-0.341723	-0.797388	-0.964379
H512	H	-0.008390	-0.464054	-0.631045
H513	H	0.324943	-0.130721	-0.297712
H514	H	-0.301822	-0.793984	-0.909993
H515	H	0.031511	-0.460650	-0.576660
H516	H	0.364845	-0.127317	-0.243327
H517	H	-0.344597	-0.845215	-0.910032
H518	H	-0.011263	-0.511882	-0.576699
H519	H	0.322070	-0.178549	-0.243365
C520	C	-0.260509	-0.337131	-0.420729
C521	C	0.072824	-0.003798	-0.087396
C522	C	0.406158	0.329535	0.245937
H523	H	-0.259895	-0.293467	-0.412664
H524	H	0.073438	0.039866	-0.079330
H525	H	0.406772	0.373200	0.254003
H526	H	-0.292365	-0.347831	-0.440692
H527	H	0.040969	-0.014498	-0.107359
H528	H	0.374302	0.318835	0.225974
H529	H	-0.232097	-0.347927	-0.447141
H530	H	0.101236	-0.014593	-0.113808
H531	H	0.434569	0.318740	0.219526
H532	H	-0.337072	-0.896438	-0.861831
H533	H	-0.003739	-0.563105	-0.528497
H534	H	0.329595	-0.229771	-0.195164
H535	H	-0.701986	-0.792613	-0.414829
H536	H	-0.368653	-0.459279	-0.081495
H537	H	-0.035320	-0.125946	0.251838
C538	C	-0.242899	-0.336890	-0.183668
C539	C	0.090434	-0.003556	0.149665
C540	C	0.423767	0.329777	0.482999
H541	H	-0.240399	-0.365713	-0.150044
H542	H	0.092935	-0.032380	0.183289
H543	H	0.426268	0.300954	0.516622
H544	H	-0.272852	-0.311317	-0.178099
H545	H	0.060481	0.022017	0.155235
H546	H	0.393815	0.355350	0.488568
H547	H	-0.212586	-0.311407	-0.184562
H548	H	0.120747	0.021927	0.148771
H549	H	0.454081	0.355260	0.482104
H550	H	-0.244119	-0.464961	-0.199746
H551	H	0.089215	-0.131628	0.133588
H552	H	0.422548	0.201706	0.466921
