data_functionalizedCrystal
_audit_creation_method	'MofGen! by Chris Wilmer'
_symmetry_space_group_name_H-M	'P1'
_symmetry_Int_Tables_number	1
_symmetry_cell_setting	triclinic
loop_
_symmetry_equiv_pos_as_xyz
  x,y,z
_cell_length_a	19.077105
_cell_length_b	19.077068
_cell_length_c	17.077404
_cell_angle_alpha	87.715807
_cell_angle_beta	92.304871
_cell_angle_gamma	90.115316
loop_
_atom_site_label
_atom_site_type_symbol
_atom_site_fract_x
_atom_site_fract_y
_atom_site_fract_z
Zn1	Zn	1.062898	-0.323111	0.505866
Zn2	Zn	1.058108	-0.440587	0.379640
Zn3	Zn	0.945415	-0.318370	0.369144
Zn4	Zn	0.940633	-0.435852	0.505394
O5	O	1.001764	-0.379480	0.440011
O6	O	1.160594	-0.342660	0.493712
O7	O	1.043156	-0.424372	0.268400
O8	O	0.965006	-0.220668	0.383085
O9	O	1.157074	-0.428969	0.400974
O10	O	1.051320	-0.224151	0.483534
O11	O	0.960361	-0.334580	0.260689
O12	O	0.846450	-0.329989	0.382627
O13	O	0.956856	-0.420899	0.615304
O14	O	0.842937	-0.416303	0.482730
O15	O	1.046683	-0.338069	0.615650
O16	O	1.038519	-0.538290	0.400517
O17	O	0.952211	-0.534811	0.492908
C18	C	0.819198	-0.372118	0.431489
C19	C	0.741095	-0.368985	0.427863
C20	C	0.994345	-0.562048	0.447818
C21	C	0.991236	-0.640153	0.451188
C22	C	0.702588	-0.412520	0.478201
C23	C	0.629202	-0.409567	0.474797
C24	C	0.594324	-0.363083	0.421050
C25	C	0.632836	-0.319543	0.370710
C26	C	0.706220	-0.322493	0.374118
C27	C	0.375042	-0.349431	0.405280
C28	C	0.301652	-0.346487	0.401874
C29	C	0.298023	-0.436510	0.505963
C30	C	0.371409	-0.439459	0.509363
C31	C	0.409915	-0.395917	0.459025
N32	N	0.519312	-0.360065	0.417568
N33	N	0.484926	-0.398931	0.462512
C34	C	1.034746	-0.678637	0.404711
C35	C	1.031825	-0.752026	0.407885
C36	C	0.985391	-0.786929	0.457532
C37	C	0.941879	-0.748441	0.504014
C38	C	0.944803	-0.675053	0.500843
C39	C	0.971825	-1.006222	0.472170
C40	C	0.968902	-1.079614	0.475335
C41	C	1.058850	-1.083194	0.379207
C42	C	1.061767	-1.009805	0.376038
C43	C	1.018258	-0.971323	0.422523
N44	N	0.982403	-0.861944	0.460775
N45	N	1.021250	-0.896310	0.419283
C46	C	1.185043	-0.386872	0.448566
C47	C	1.263145	-0.390021	0.452212
C48	C	1.001770	-0.379485	0.644756
C49	C	1.001773	-0.379487	0.732006
C50	C	1.009231	-0.196201	0.432191
C51	C	1.012413	-0.118098	0.428859
C52	C	1.048540	-0.336364	0.773177
C53	C	1.048535	-0.336363	0.855158
C54	C	1.001764	-0.379489	0.895965
C55	C	0.954992	-0.422613	0.854787
C56	C	0.954995	-0.422610	0.772808
C57	C	0.954990	-0.422618	1.025657
C58	C	0.954988	-0.422622	1.107642
C59	C	1.048530	-0.336370	1.108007
C60	C	1.048533	-0.336367	1.026028
C61	C	1.001761	-0.379493	0.984856
C62	C	1.001753	-0.379494	1.236063
C63	C	1.001755	-0.379499	1.148814
H64	H	0.730980	-0.450375	0.521965
H65	H	0.266664	-0.471959	0.546946
Br66	Br	0.891507	-0.481143	1.163022
H67	H	1.086628	-0.301248	0.739958
Br68	Br	1.097761	-0.631275	0.337322
H69	H	0.597853	-0.445019	0.515787
Br70	Br	0.418739	-0.502551	0.582303
Br71	Br	0.254317	-0.283404	0.328919
H72	H	1.099578	-0.981388	0.335611
H73	H	1.086612	-0.301255	1.141533
H74	H	1.094274	-1.114534	0.341363
Br75	Br	0.878866	-0.795809	0.571400
Br76	Br	0.427290	-0.290334	0.336968
Br77	Br	0.912777	-0.954005	0.535258
Br78	Br	1.112039	-0.277871	0.911034
H79	H	0.931098	-1.108031	0.515778
H80	H	0.604432	-0.281691	0.326951
H81	H	0.909374	-0.643721	0.538691
H82	H	0.737572	-0.287038	0.333131
H83	H	0.916893	-0.457724	0.992136
H84	H	1.086621	-0.301255	0.992805
H85	H	0.916908	-0.457724	0.888018
Br86	Br	1.090882	-0.804251	0.344811
H87	H	0.916905	-0.457718	0.739286
