data_functionalizedCrystal
_audit_creation_method	'MofGen! by Chris Wilmer'
_symmetry_space_group_name_H-M	'P1'
_symmetry_Int_Tables_number	1
_symmetry_cell_setting	triclinic
loop_
_symmetry_equiv_pos_as_xyz
  x,y,z
_cell_length_a	6.817900
_cell_length_b	12.200863
_cell_length_c	27.923559
_cell_angle_alpha	95.832878
_cell_angle_beta	98.965071
_cell_angle_gamma	107.143441
loop_
_atom_site_label
_atom_site_type_symbol
_atom_site_fract_x
_atom_site_fract_y
_atom_site_fract_z
V1	V	-3.995454	-0.160345	-0.151318
O2	O	-3.964522	0.006026	-0.148387
O3	O	-3.965498	-0.316322	-0.150332
O4	O	-3.925044	-0.158615	-0.217291
O5	O	-4.005256	-0.152772	-0.080964
V6	V	-4.479544	-0.140358	-0.142897
O7	O	-4.255469	-0.204187	-0.169790
O8	O	-4.669727	-0.096515	-0.124426
O9	O	-4.286293	0.015619	-0.143883
O10	O	-4.627872	-0.306728	-0.145829
O11	O	-4.587139	-0.147930	-0.213251
O12	O	-4.326747	-0.142087	-0.076925
C13	C	-3.815698	-0.354322	-0.147957
C14	C	-3.872345	-0.481840	-0.147591
C15	C	-3.976020	-0.715310	-0.146924
C16	C	-3.918320	-0.585391	-0.147295
C17	C	-3.764094	-0.153150	-0.233370
C18	C	-3.787932	-0.152768	-0.287303
C19	C	-3.986181	-0.255661	-0.628721
C20	C	-4.075890	-0.254292	-0.831429
O21	O	-4.130241	-0.343521	-0.863562
N22	N	-4.036931	-0.148995	-0.849812
C23	C	-3.975553	-0.044032	-0.817515
O24	O	-3.944495	0.045561	-0.837803
C25	C	-3.885860	-0.045402	-0.614808
C26	C	-3.924803	-0.150706	-0.596428
C27	C	-4.025123	-0.360956	-0.610339
C28	C	-4.002685	-0.361297	-0.559665
C29	C	-3.941307	-0.256342	-0.527372
C30	C	-3.902366	-0.151046	-0.545753
C31	C	-3.824498	0.059560	-0.582513
C32	C	-3.802082	0.059208	-0.531833
C33	C	-3.841025	-0.046096	-0.513452
C34	C	-3.818550	-0.046432	-0.462786
N35	N	-3.857509	-0.151730	-0.444403
C36	C	-3.918888	-0.256685	-0.476696
C37	C	-4.022643	-0.043320	-0.923940
C38	C	-4.045063	-0.042977	-0.974616
C39	C	-4.145402	-0.253238	-0.988526
C40	C	-4.122967	-0.253580	-0.937849
C41	C	-4.061602	-0.148618	-0.905556
C42	C	-3.871762	-0.257392	-0.370275
C43	C	-3.849310	-0.257723	-0.319596
C44	C	-3.748984	-0.047463	-0.305691
C45	C	-3.771423	-0.047131	-0.356365
C46	C	-3.832823	-0.152105	-0.388657
O47	O	-3.764231	0.042749	-0.430625
O48	O	-3.949980	-0.346266	-0.456399
C49	C	-4.008619	-0.255320	-0.679395
C50	C	-3.969678	-0.150024	-0.697776
C51	C	-3.908299	-0.045069	-0.665483
C52	C	-3.992097	-0.149682	-0.748453
C53	C	-4.053475	-0.254637	-0.780746
C54	C	-4.092434	-0.359934	-0.762362
C55	C	-4.069997	-0.360275	-0.711688
C56	C	-3.869340	0.060228	-0.683867
C57	C	-3.891779	0.060561	-0.734541
C58	C	-3.953158	-0.044394	-0.766834
C59	C	-4.099437	0.053614	-0.146257
C60	C	-4.022026	0.181131	-0.146626
C61	C	-4.151041	-0.147556	-0.060843
C62	C	-4.106441	-0.147932	-0.006909
H63	H	-3.881020	-0.343478	-0.304634
H64	H	-3.792767	0.145310	-0.597468
H65	H	-4.034411	-0.447047	-0.544705
C66	C	-3.729517	0.067099	-0.376400
C67	C	-3.911209	0.067987	-0.407420
C68	C	-3.872699	0.173188	-0.425888
H69	H	-3.689822	0.129656	-0.349960
H70	H	-3.619853	0.075290	-0.394334
H71	H	-4.020838	0.059809	-0.389487
H72	H	-3.950932	0.005453	-0.433868
H73	H	-3.763034	0.181379	-0.443822
H74	H	-3.833001	0.235737	-0.399445
H75	H	-3.995962	0.173801	-0.446941
H76	H	-4.101712	-0.446025	-0.696727
H77	H	-4.195375	-0.338697	-1.014828
H78	H	-3.972672	0.042158	-0.897651
H79	H	-4.075109	-0.446428	-0.636628
H80	H	-4.154679	-0.339327	-0.922887
C81	C	-3.938331	-0.371481	-0.405249
C82	C	-3.967569	-0.463754	-0.378295
C83	C	-4.028852	-0.568866	-0.410495
H84	H	-4.065630	-0.379574	-0.426898
H85	H	-3.832737	-0.372105	-0.423722
H86	H	-4.073155	-0.463132	-0.359830
H87	H	-3.840296	-0.455699	-0.356648
H88	H	-3.923258	-0.569490	-0.428968
H89	H	-4.156147	-0.576947	-0.432143
H90	H	-4.048679	-0.631485	-0.392211
H91	H	-3.752118	0.144682	-0.505542
C92	C	-3.682465	0.066360	-0.270546
C93	C	-3.671217	0.043507	-0.222234
C94	C	-3.609987	0.148331	-0.189845
H95	H	-3.549083	0.113384	-0.274347
H96	H	-3.781974	0.105936	-0.277541
H97	H	-3.571712	0.003949	-0.215241
H98	H	-3.804575	-0.003500	-0.218417
H99	H	-3.709496	0.187907	-0.196840
H100	H	-3.476609	0.195347	-0.193650
H101	H	-3.602366	0.132839	-0.157062
H102	H	-4.142403	-0.445392	-0.788664
C103	C	-4.002764	0.071473	-0.994475
C104	C	-3.944272	0.163304	-0.955342
C105	C	-3.905328	0.268754	-0.973615
H106	H	-3.892967	0.079829	-1.012367
H107	H	-4.125849	0.072361	-1.015519
H108	H	-3.821201	0.162418	-0.934307
H109	H	-4.054041	0.154987	-0.937447
H110	H	-4.028413	0.269642	-0.994659
H111	H	-3.795535	0.277098	-0.991507
H112	H	-3.865656	0.331073	-0.947067
C113	C	-3.849497	0.175018	-0.754400
C114	C	-3.791001	0.266850	-0.715267
C115	C	-3.752084	0.372298	-0.733540
H116	H	-3.739710	0.183379	-0.772294
H117	H	-3.972593	0.175901	-0.775441
H118	H	-3.667920	0.265969	-0.694234
H119	H	-3.900761	0.258527	-0.697368
H120	H	-3.875180	0.373181	-0.754581
H121	H	-3.642300	0.380648	-0.751435
H122	H	-3.712409	0.434618	-0.706992
H123	H	-3.819365	0.145697	-0.657578
