data_functionalizedCrystal
_audit_creation_method	'MofGen! by Chris Wilmer'
_symmetry_space_group_name_H-M	'P1'
_symmetry_Int_Tables_number	1
_symmetry_cell_setting	triclinic
loop_
_symmetry_equiv_pos_as_xyz
  x,y,z
_cell_length_a	17.699077
_cell_length_b	23.532357
_cell_length_c	16.176319
_cell_angle_alpha	89.987656
_cell_angle_beta	89.993140
_cell_angle_gamma	83.054434
loop_
_atom_site_label
_atom_site_type_symbol
_atom_site_fract_x
_atom_site_fract_y
_atom_site_fract_z
O1	O	1.003699	0.072006	-0.068746
O2	O	0.783270	0.081379	-0.068751
O3	O	0.900151	-0.006222	-0.068731
O4	O	0.886818	0.159607	-0.068765
O5	O	0.900135	-0.006228	0.068762
O6	O	0.783254	0.081374	0.068742
O7	O	1.003683	0.072000	0.068748
Cu8	Cu	0.893467	0.076686	0.081299
Cu9	Cu	0.893486	0.076693	-0.081303
O10	O	0.886802	0.159601	0.068728
C11	C	0.755067	0.081041	-0.000005
C12	C	0.671054	0.080035	-0.000006
C13	C	0.631580	0.079558	0.074942
C14	C	0.552643	0.078604	0.074943
C15	C	0.513180	0.078131	-0.000005
C16	C	0.552659	0.078606	-0.074959
C17	C	0.631596	0.079556	-0.074959
C18	C	0.234316	0.074774	-0.074960
C19	C	0.155374	0.073825	-0.074954
C20	C	0.155363	0.073821	0.074943
C21	C	0.234300	0.074771	0.074943
C22	C	0.273773	0.075244	-0.000011
C23	C	0.359366	0.076277	-0.000011
C24	C	0.427587	0.077101	-0.000005
C25	C	0.899810	-0.027443	0.000018
C26	C	0.898807	-0.090664	0.000026
C27	C	0.892521	-0.482690	-0.074967
C28	C	0.891568	-0.542092	-0.074971
O29	O	0.891057	-0.572808	-0.138711
N30	N	0.891086	-0.571808	-0.000025
C31	C	0.891551	-0.542118	0.074931
O32	O	0.891053	-0.572847	0.138679
C33	C	0.892498	-0.482716	0.074935
C34	C	0.892987	-0.453004	-0.000016
C35	C	0.893009	-0.452978	-0.149912
C36	C	0.893964	-0.393581	-0.149907
C37	C	0.894430	-0.363894	-0.074956
C38	C	0.893942	-0.393606	-0.000011
C39	C	0.892957	-0.453026	0.149890
C40	C	0.893904	-0.393620	0.149888
C41	C	0.894393	-0.363909	0.074936
C42	C	0.895363	-0.304522	0.074944
N43	N	0.895844	-0.274807	-0.000002
C44	C	0.895378	-0.304493	-0.074953
C45	C	0.889559	-0.666865	0.074917
C46	C	0.888617	-0.726266	0.074914
C47	C	0.888633	-0.726237	-0.074989
C48	C	0.889580	-0.666835	-0.074985
C49	C	0.890040	-0.637149	-0.000029
C50	C	0.897383	-0.179753	-0.074936
C51	C	0.898341	-0.120350	-0.074925
C52	C	0.898321	-0.120384	0.074978
C53	C	0.897367	-0.179782	0.074967
C54	C	0.896896	-0.209465	0.000003
O55	O	0.895872	-0.273769	0.138652
O56	O	0.895866	-0.273755	-0.138689
C57	C	1.031886	0.072338	-0.000000
C58	C	1.115899	0.073344	-0.000005
C59	C	0.887143	0.180822	-0.000023
C60	C	0.888146	0.244043	-0.000036
N61	N	0.893460	0.076681	0.195664
N62	N	0.893500	0.076693	-0.195668
C63	C	0.945230	0.037907	0.238937
C64	C	0.945234	0.037907	0.325484
C65	C	0.893470	0.076683	0.368757
C66	C	0.841694	0.115459	0.325478
C67	C	0.841688	0.115457	0.238932
C68	C	0.841720	0.115470	0.674506
C69	C	0.841733	0.115471	0.761058
C70	C	0.945266	0.037920	0.761058
C71	C	0.945260	0.037917	0.674513
C72	C	0.893481	0.076691	0.631241
C73	C	0.893477	0.076690	0.537397
C74	C	0.893478	0.076687	0.462599
H75	H	0.266446	0.075156	-0.135992
C76	C	0.891433	-0.544080	0.216469
C77	C	0.892380	-0.485672	0.232280
H78	H	0.891070	-0.564231	0.267338
H79	H	0.847155	-0.549394	0.185649
H80	H	0.935440	-0.558229	0.185707
H81	H	0.848370	-0.471521	0.263037
H82	H	0.936663	-0.480355	0.263113
H83	H	0.987389	0.006333	0.360717
C84	C	0.739387	0.192131	0.683211
C85	C	0.784812	0.158094	0.626950
H86	H	0.704257	0.218449	0.653847
H87	H	0.712354	0.168451	0.716981
H88	H	0.770744	0.212586	0.716952
H89	H	0.753455	0.137637	0.593212
H90	H	0.811847	0.181777	0.593165
H91	H	0.520523	0.078217	-0.135983
H92	H	0.663705	0.079948	0.135974
H93	H	0.799544	0.147030	0.360715
H94	H	0.799530	0.147030	0.203700
C95	C	0.893771	-0.399618	0.298062
C96	C	0.894403	-0.360990	0.232284
H97	H	0.894081	-0.379474	0.348928
H98	H	0.849262	-0.418379	0.294929
H99	H	0.937548	-0.427195	0.294945
H100	H	0.850623	-0.333417	0.235398
H101	H	0.938916	-0.342221	0.235418
C102	C	1.047597	-0.038746	0.683208
C103	C	1.002157	-0.004709	0.626948
H104	H	1.082718	-0.065065	0.653843
H105	H	1.074640	-0.015065	0.716945
H106	H	1.016248	-0.059198	0.716983
H107	H	1.033506	0.015747	0.593178
H108	H	0.975112	-0.028393	0.593197
H109	H	0.889977	-0.642647	-0.136017
H110	H	0.520509	0.078206	0.135974
C111	C	1.047567	-0.038755	0.247640
C112	C	1.002130	-0.004719	0.191376
H113	H	1.082691	-0.065074	0.218277
H114	H	1.074608	-0.015073	0.281377
H115	H	1.016217	-0.059207	0.281413
H116	H	1.033480	0.015736	0.157607
H117	H	0.975087	-0.028404	0.157624
H118	H	0.987425	0.006346	0.796299
H119	H	0.663734	0.079946	-0.135990
C120	C	0.226360	0.074665	0.223115
C121	C	0.277678	0.075289	0.157328
H122	H	0.253142	0.074979	0.273976
H123	H	0.189543	0.107492	0.219995
H124	H	0.201602	0.041094	0.219996
H125	H	0.302432	0.108861	0.160443
H126	H	0.314508	0.042458	0.160450
C127	C	0.897446	-0.173842	0.223139
C128	C	0.896833	-0.212445	0.157353
H129	H	0.897106	-0.194004	0.274001
H130	H	0.941962	-0.155087	0.220026
H131	H	0.853677	-0.146258	0.220012
H132	H	0.940606	-0.240026	0.160477
H133	H	0.852313	-0.231209	0.160467
C134	C	0.163311	0.073912	-0.223134
C135	C	0.111995	0.073300	-0.157344
H136	H	0.136529	0.073584	-0.273993
H137	H	0.188067	0.107478	-0.220032
H138	H	0.200132	0.041080	-0.220001
H139	H	0.075177	0.106133	-0.160473
H140	H	0.087227	0.039730	-0.160447
H141	H	0.888230	-0.750453	0.135947
H142	H	0.898741	-0.096162	-0.135962
H143	H	0.799578	0.147048	0.796289
H144	H	0.123215	0.073434	0.135974
H145	H	0.888250	-0.750417	-0.136017
C146	C	0.889455	-0.672871	0.223091
C147	C	0.890076	-0.634238	0.157317
H148	H	0.889778	-0.652730	0.273959
H149	H	0.844946	-0.691630	0.219966
H150	H	0.933231	-0.700447	0.219960
H151	H	0.846297	-0.606664	0.160444
H152	H	0.934590	-0.615470	0.160442
H153	H	0.896995	-0.203913	-0.135979
C154	C	0.893871	-0.399535	-0.298075
C155	C	0.894488	-0.360925	-0.232297
H156	H	0.894187	-0.379376	-0.348941
H157	H	0.937642	-0.427108	-0.294957
H158	H	0.849357	-0.418299	-0.294942
H159	H	0.939006	-0.342164	-0.235426
H160	H	0.850712	-0.333342	-0.235416
H161	H	0.898704	-0.096204	0.136000
H162	H	0.892627	-0.477142	-0.210949
