data_functionalizedCrystal
_audit_creation_method	'MofGen! by Chris Wilmer'
_symmetry_space_group_name_H-M	'P1'
_symmetry_Int_Tables_number	1
_symmetry_cell_setting	triclinic
loop_
_symmetry_equiv_pos_as_xyz
  x,y,z
_cell_length_a	14.971482
_cell_length_b	19.288865
_cell_length_c	13.448316
_cell_angle_alpha	89.988163
_cell_angle_beta	89.993798
_cell_angle_gamma	83.374428
loop_
_atom_site_label
_atom_site_type_symbol
_atom_site_fract_x
_atom_site_fract_y
_atom_site_fract_z
O1	O	1.186460	0.090505	-0.082691
O2	O	0.926001	0.101347	-0.082697
O3	O	1.063757	-0.005180	-0.082674
O4	O	1.048704	0.197032	-0.082714
O5	O	1.063739	-0.005186	0.082710
O6	O	0.925984	0.101341	0.082687
O7	O	1.186443	0.090499	0.082693
Cu8	Cu	1.056212	0.095919	0.097791
Cu9	Cu	1.056232	0.095927	-0.097795
O10	O	1.048687	0.197026	0.082670
C11	C	0.892670	0.100860	-0.000006
C12	C	0.793381	0.099408	-0.000007
C13	C	0.746730	0.098721	0.090145
C14	C	0.653439	0.097346	0.090146
C15	C	0.606800	0.096663	-0.000006
C16	C	0.653457	0.097348	-0.090164
C17	C	0.746747	0.098718	-0.090165
C18	C	0.459010	0.094494	-0.090157
C19	C	0.365713	0.093125	-0.090158
C20	C	0.365703	0.093121	0.090153
C21	C	0.458993	0.094492	0.090153
C22	C	0.505643	0.095178	-0.000006
C23	C	1.063264	-0.031061	0.000021
C24	C	1.061810	-0.108169	0.000030
C25	C	1.142639	-0.152603	0.000036
C26	C	1.141273	-0.225054	0.000021
C27	C	1.059073	-0.253069	0.000018
C28	C	0.978234	-0.208626	0.000006
C29	C	0.979602	-0.136176	0.000011
C30	C	0.994449	-0.361569	0.057947
C31	C	0.993084	-0.434018	0.057947
C32	C	1.054850	-0.476528	-0.000004
C33	C	1.117996	-0.446583	-0.057943
C34	C	1.119364	-0.374133	-0.057938
C35	C	1.057581	-0.331628	0.000011
C36	C	1.134203	-0.599523	-0.000016
C37	C	1.132834	-0.671975	-0.000038
C38	C	0.969793	-0.655545	-0.000043
C39	C	0.971165	-0.583094	-0.000031
C40	C	1.053372	-0.555088	-0.000013
C41	C	1.219774	0.090986	-0.000001
C42	C	1.319063	0.092438	-0.000006
C43	C	1.049180	0.222907	-0.000027
C44	C	1.050634	0.300015	-0.000042
N45	N	1.056204	0.095913	0.235355
N46	N	1.056247	0.095927	-0.235359
C47	C	1.117221	0.048762	0.287406
C48	C	1.117226	0.048762	0.391509
C49	C	1.056219	0.095916	0.443560
C50	C	0.995195	0.143069	0.391502
C51	C	0.995186	0.143066	0.287400
C52	C	0.995220	0.143074	0.608482
C53	C	0.995230	0.143078	0.712590
C54	C	1.117260	0.048770	0.712590
C55	C	1.117251	0.048767	0.608489
C56	C	1.056229	0.095921	0.556438
H57	H	1.209578	-0.129805	0.000048
H58	H	0.327742	0.092570	-0.163567
H59	H	0.784697	0.099282	0.163557
H60	H	0.615463	0.096774	0.163557
H61	H	0.496990	0.095053	-0.163575
N62	N	1.228455	-0.272991	0.000026
H63	H	1.280739	-0.244256	0.000036
H64	H	1.231423	-0.303418	0.061335
H65	H	0.905345	-0.546915	-0.000031
N66	N	0.509299	0.095238	0.187385
H67	H	0.465592	0.094596	0.244501
H68	H	0.555436	0.052783	0.191322
H69	H	0.615476	0.096787	-0.163567
N70	N	0.929439	0.193942	0.768735
H71	H	0.890778	0.223812	0.719967
H72	H	0.890016	0.167303	0.811955
H73	H	0.327715	0.092563	0.163564
N74	N	0.797068	0.099454	-0.187399
H75	H	0.753368	0.098814	-0.244511
H76	H	0.828350	0.143046	-0.191340
N77	N	1.220018	-0.719904	-0.000035
H78	H	1.272299	-0.691165	-0.000019
H79	H	1.222987	-0.750334	0.061272
N80	N	0.892417	-0.088248	0.000027
H81	H	0.905758	-0.038101	0.000039
H82	H	0.856581	-0.097308	-0.061283
H83	H	1.166904	0.010367	0.245033
N84	N	0.929391	0.193923	0.447645
H85	H	0.963447	0.224724	0.490815
H86	H	0.890748	0.223745	0.398812
N87	N	1.187463	-0.341832	-0.120425
H88	H	1.226387	-0.379751	-0.157140
H89	H	1.155119	-0.308447	-0.169912
H90	H	1.168291	-0.481194	-0.105134
H91	H	1.201142	-0.576719	-0.000006
H92	H	0.902865	-0.678354	-0.000050
N93	N	1.183048	-0.002091	0.552342
H94	H	1.222533	0.024503	0.509131
H95	H	1.221645	-0.031953	0.601171
H96	H	1.166910	0.010368	0.433888
N97	N	0.889572	-0.238831	0.000004
H98	H	0.885376	-0.268516	-0.061304
H99	H	0.885414	-0.268498	0.061353
N100	N	0.927822	-0.315720	0.120449
H101	H	0.887618	-0.345683	0.157157
H102	H	0.961297	-0.288984	0.169943
H103	H	0.941663	-0.458393	0.105119
H104	H	1.166947	0.010375	0.754976
N105	N	0.929409	0.193933	0.552336
H106	H	0.889912	0.167339	0.509164
H107	H	0.890824	0.223797	0.601165
H108	H	0.945499	0.181460	0.245022
