data_functionalizedCrystal
_audit_creation_method	'MofGen! by Chris Wilmer'
_symmetry_space_group_name_H-M	'P1'
_symmetry_Int_Tables_number	1
_symmetry_cell_setting	triclinic
loop_
_symmetry_equiv_pos_as_xyz
  x,y,z
_cell_length_a	12.811438
_cell_length_b	10.654551
_cell_length_c	11.295483
_cell_angle_alpha	94.137679
_cell_angle_beta	91.289945
_cell_angle_gamma	84.264433
loop_
_atom_site_label
_atom_site_type_symbol
_atom_site_fract_x
_atom_site_fract_y
_atom_site_fract_z
O1	O	1.390271	0.173527	0.051142
O2	O	1.087142	0.189131	0.018400
O3	O	1.245675	-0.001383	0.035523
O4	O	1.231737	0.364040	0.034019
O5	O	1.231751	0.015324	0.232070
O6	O	1.073217	0.205838	0.214947
O7	O	1.376347	0.190234	0.247689
Cu8	Cu	1.223510	0.199561	0.249264
Cu9	Cu	1.239978	0.179803	0.016825
O10	O	1.217813	0.380747	0.230566
C11	C	1.041365	0.196097	0.112481
C12	C	0.925710	0.191946	0.099989
C13	C	1.237690	-0.039832	0.133683
C14	C	1.234628	-0.179288	0.133345
C15	C	0.770286	0.176990	-0.024743
C16	C	0.878955	0.180888	-0.013015
C17	C	0.863788	0.199103	0.201272
C18	C	0.755120	0.195205	0.189544
C19	C	0.708372	0.184150	0.076533
C20	C	0.599701	0.180261	0.064806
C21	C	0.584537	0.198467	0.279093
C22	C	0.693206	0.202365	0.290821
C23	C	1.240781	-0.253912	0.026054
C24	C	1.237894	-0.384943	0.025747
C25	C	1.222704	-0.366714	0.240033
C26	C	1.225584	-0.235684	0.240337
C27	C	1.249825	-0.197516	-0.080939
C28	C	1.255980	-0.272141	-0.188238
C29	C	1.253093	-0.403173	-0.188544
C30	C	1.244051	-0.459578	-0.081551
C31	C	1.422124	0.183268	0.153605
C32	C	1.537779	0.187418	0.166090
C33	C	1.225799	0.419196	0.132403
C34	C	1.228861	0.558651	0.132734
N35	N	1.211936	0.213458	0.412750
N36	N	1.251561	0.165897	-0.146661
C37	C	1.334881	0.065795	0.675319
C38	C	1.326142	0.076305	0.799039
C39	C	1.185712	0.244982	0.783911
C40	C	1.194452	0.234471	0.660191
C41	C	1.269040	0.144876	0.605900
C42	C	1.277784	0.134373	0.482179
C43	C	1.137351	0.303043	0.467053
C44	C	1.128611	0.313553	0.590773
H45	H	0.561640	0.171265	-0.027214
C46	C	0.516423	0.206342	0.390504
N47	N	0.465118	0.212276	0.474417
C48	C	1.398569	-0.010695	0.875395
N49	N	1.453123	-0.076230	0.932907
H50	H	1.252179	-0.090825	-0.080701
H51	H	1.124978	0.317920	0.828131
H52	H	1.083741	0.367440	0.410518
H53	H	1.395621	-0.007149	0.631115
C54	C	0.718861	0.164838	-0.149055
N55	N	0.680129	0.155684	-0.242690
C56	C	0.947057	0.173012	-0.124428
N57	N	0.998351	0.167077	-0.208348
C58	C	0.915220	0.211360	0.325574
N59	N	0.953956	0.220633	0.419199
H60	H	0.731283	0.211361	0.382831
C61	C	1.265926	-0.210092	-0.305924
N62	N	1.273419	-0.163358	-0.394567
C63	C	1.259896	-0.485262	-0.306571
N64	N	1.265039	-0.547092	-0.395470
C65	C	1.046561	0.412094	0.650507
N66	N	0.984759	0.486316	0.695497
H67	H	1.241686	-0.566272	-0.081811
H68	H	1.215343	-0.412650	0.327141
H69	H	1.220551	-0.174919	0.327700
C70	C	1.359829	0.035814	0.422460
N71	N	1.421624	-0.038428	0.377483
