data_functionalizedCrystal
_audit_creation_method	'MofGen! by Chris Wilmer'
_symmetry_space_group_name_H-M	'P1'
_symmetry_Int_Tables_number	1
_symmetry_cell_setting	triclinic
loop_
_symmetry_equiv_pos_as_xyz
  x,y,z
_cell_length_a	27.732048
_cell_length_b	27.732048
_cell_length_c	13.448316
_cell_angle_alpha	89.988441
_cell_angle_beta	89.998727
_cell_angle_gamma	82.642655
loop_
_atom_site_label
_atom_site_type_symbol
_atom_site_fract_x
_atom_site_fract_y
_atom_site_fract_z
O1	O	0.640929	0.057518	-0.082574
O2	O	0.974262	0.390851	0.250759
O3	O	1.307595	0.724185	0.584092
O4	O	0.500135	0.066264	-0.082606
O5	O	0.833468	0.399597	0.250727
O6	O	1.166802	0.732930	0.584061
O7	O	0.574905	-0.008506	-0.082570
O8	O	0.908238	0.324827	0.250763
O9	O	1.241571	0.658161	0.584096
O10	O	0.566159	0.132288	-0.082610
O11	O	0.899492	0.465621	0.250723
O12	O	1.232826	0.798954	0.584057
O13	O	0.574895	-0.008510	0.082814
O14	O	0.908229	0.324823	0.416147
O15	O	1.241562	0.658156	0.749480
O16	O	0.500126	0.066259	0.082778
O17	O	0.833459	0.399592	0.416111
O18	O	1.166792	0.732926	0.749445
O19	O	0.640919	0.057514	0.082810
O20	O	0.974253	0.390847	0.416143
O21	O	1.307586	0.724180	0.749476
Cu22	Cu	0.570522	0.061886	0.097895
Cu23	Cu	0.903855	0.395219	0.431228
Cu24	Cu	1.237188	0.728553	0.764561
Cu25	Cu	0.570533	0.061891	-0.097691
Cu26	Cu	0.903866	0.395225	0.235642
Cu27	Cu	1.237199	0.728558	0.568976
O28	O	0.566150	0.132283	0.082774
O29	O	0.899483	0.465616	0.416107
O30	O	1.232816	0.798950	0.749440
C31	C	0.482124	0.066078	0.000082
C32	C	0.815457	0.399411	0.333416
C33	C	1.148790	0.732744	0.666749
C34	C	0.428469	0.065525	0.000071
C35	C	0.761802	0.398858	0.333404
C36	C	1.095135	0.732192	0.666738
C37	C	0.089654	0.106229	0.000103
C38	C	0.422987	0.439562	0.333436
C39	C	0.756320	0.772895	0.666769
C40	C	-0.112006	0.104178	0.000112
C41	C	0.221327	0.437511	0.333445
C42	C	0.554661	0.770844	0.666779
O43	O	-0.143262	0.141398	0.000145
O44	O	0.190072	0.474732	0.333478
O45	O	0.523405	0.808065	0.666811
N46	N	-0.131130	0.059843	0.000123
N47	N	0.202204	0.393176	0.333456
N48	N	0.535537	0.726509	0.666789
C49	C	-0.099835	0.016017	0.000138
C50	C	0.233498	0.349350	0.333471
C51	C	0.566832	0.682684	0.666804
O52	O	-0.120728	-0.021740	0.000157
O53	O	0.212605	0.311593	0.333491
O54	O	0.545938	0.644927	0.666824
C55	C	0.101824	0.018068	0.000135
C56	C	0.435157	0.351402	0.333469
C57	C	0.768490	0.684735	0.666802
C58	C	0.120944	0.062407	0.000115
C59	C	0.454278	0.395740	0.333448
C60	C	0.787611	0.729073	0.666781
C61	C	0.108775	0.150563	0.000083
C62	C	0.442108	0.483897	0.333416
C63	C	0.775442	0.817230	0.666750
C64	C	0.159187	0.151075	0.000075
C65	C	0.492520	0.484409	0.333408
C66	C	0.825853	0.817742	0.666742
C67	C	0.190477	0.107253	0.000087
C68	C	0.523811	0.440587	0.333420
C69	C	0.857144	0.773920	0.666754
C70	C	0.171356	0.062919	0.000107
C71	C	0.504690	0.396252	0.333440
C72	C	0.838023	0.729585	0.666773
C73	C	0.133117	-0.025757	0.000157
C74	C	0.466451	0.307577	0.333491
C75	C	0.799784	0.640910	0.666824
C76	C	0.183535	-0.025240	0.000159
C77	C	0.516868	0.308094	0.333493
C78	C	0.850201	0.641427	0.666826
C79	C	0.202655	0.019098	0.000139
C80	C	0.535989	0.352432	0.333472
C81	C	0.869322	0.685765	0.666805
C82	C	0.253059	0.019609	0.000111
C83	C	0.586392	0.352942	0.333444
C84	C	0.919725	0.686276	0.666778
N85	N	0.272183	0.063944	0.000100
N86	N	0.605516	0.397277	0.333433
N87	N	0.938849	0.730611	0.666767
C88	C	0.240892	0.107766	0.000088
C89	C	0.574225	0.441100	0.333422
C90	C	0.907559	0.774433	0.666755
C91	C	-0.205709	0.014943	0.000137
C92	C	0.127624	0.348276	0.333470
C93	C	0.460957	0.681610	0.666804
C94	C	-0.256124	0.014430	0.000136
C95	C	0.077210	0.347763	0.333469
C96	C	0.410543	0.681097	0.666802
C97	C	-0.268291	0.102591	0.000112
C98	C	0.065042	0.435924	0.333445
C99	C	0.398376	0.769258	0.666779
C100	C	-0.217876	0.103104	0.000106
C101	C	0.115458	0.436437	0.333439
C102	C	0.448791	0.769770	0.666773
C103	C	-0.186585	0.059278	0.000126
C104	C	0.146748	0.392612	0.333460
C105	C	0.480081	0.725945	0.666793
C106	C	0.346761	0.108839	0.000071
C107	C	0.680094	0.442172	0.333404
C108	C	1.013428	0.775505	0.666738
C109	C	0.397178	0.109347	0.000059
C110	C	0.730511	0.442681	0.333392
C111	C	1.063845	0.776014	0.666726
C112	C	0.409341	0.021186	0.000088
C113	C	0.742674	0.354520	0.333421
C114	C	1.076008	0.687853	0.666755
C115	C	0.358929	0.020678	0.000095
C116	C	0.692262	0.354011	0.333428
C117	C	1.025595	0.687344	0.666761
C118	C	0.327639	0.064508	0.000090
C119	C	0.660973	0.397841	0.333423
C120	C	0.994306	0.731175	0.666756
O121	O	0.284343	-0.017592	0.000090
O122	O	0.617676	0.315741	0.333423
O123	O	0.951009	0.649075	0.666756
O124	O	0.261794	0.145518	0.000091
O125	O	0.595128	0.478851	0.333424
O126	O	0.928461	0.812184	0.666757
C127	C	0.039242	0.105716	0.000110
C128	C	0.372575	0.439050	0.333444
C129	C	0.705908	0.772383	0.666777
C130	C	0.020120	0.061382	0.000130
C131	C	0.353454	0.394715	0.333463
C132	C	0.686787	0.728049	0.666797
C133	C	0.051411	0.017560	0.000142
C134	C	0.384744	0.350893	0.333475
C135	C	0.718078	0.684226	0.666809
C136	C	-0.030294	0.060869	0.000129
C137	C	0.303039	0.394202	0.333462
C138	C	0.636373	0.727536	0.666796
C139	C	-0.061585	0.104691	0.000117
C140	C	0.271749	0.438025	0.333450
C141	C	0.605082	0.771358	0.666784
C142	C	-0.042461	0.149026	0.000106
C143	C	0.290872	0.482360	0.333440
C144	C	0.624206	0.815693	0.666773
C145	C	0.007951	0.149539	0.000098
C146	C	0.341284	0.482872	0.333432
C147	C	0.674618	0.816205	0.666765
C148	C	0.032287	-0.026775	0.000153
C149	C	0.365621	0.306558	0.333486
C150	C	0.698954	0.639891	0.666819
C151	C	-0.018125	-0.027284	0.000159
C152	C	0.315208	0.306049	0.333493
C153	C	0.648541	0.639383	0.666826
C154	C	-0.049416	0.016538	0.000148
C155	C	0.283917	0.349871	0.333481
C156	C	0.617251	0.683205	0.666814
C157	C	0.574716	-0.026515	0.000124
C158	C	0.908050	0.306818	0.333458
C159	C	1.241383	0.640152	0.666791
C160	C	0.574164	-0.080170	0.000132
C161	C	0.907497	0.253163	0.333466
C162	C	1.240830	0.586497	0.666799
C163	C	0.614867	-0.418985	0.000091
C164	C	0.948201	-0.085652	0.333424
C165	C	1.281534	0.247682	0.666757
C166	C	0.612816	-0.620645	0.000076
C167	C	0.946150	-0.287311	0.333410
C168	C	1.279483	0.046022	0.666743
O169	O	0.650037	-0.651900	0.000041
O170	O	0.983370	-0.318567	0.333374
O171	O	1.316704	0.014766	0.666708
N172	N	0.568481	-0.639768	0.000067
N173	N	0.901814	-0.306435	0.333401
N174	N	1.235148	0.026898	0.666734
C175	C	0.524656	-0.608474	0.000055
C176	C	0.857989	-0.275140	0.333389
C177	C	1.191322	0.058193	0.666722
O178	O	0.486899	-0.629367	0.000037
O179	O	0.820232	-0.296033	0.333370
O180	O	1.153565	0.037300	0.666704
C181	C	0.526707	-0.406815	0.000062
C182	C	0.860040	-0.073482	0.333396
C183	C	1.193374	0.259852	0.666729
C184	C	0.571045	-0.387694	0.000082
C185	C	0.904378	-0.054361	0.333415
C186	C	1.237712	0.278972	0.666748
C187	C	0.659202	-0.399864	0.000109
C188	C	0.992535	-0.066530	0.333442
C189	C	1.325868	0.266803	0.666775
C190	C	0.659714	-0.349452	0.000118
C191	C	0.993047	-0.016118	0.333451
C192	C	1.326381	0.317215	0.666784
C193	C	0.615892	-0.318161	0.000109
C194	C	0.949225	0.015172	0.333442
C195	C	1.282559	0.348506	0.666775
C196	C	0.571557	-0.337282	0.000091
C197	C	0.904891	-0.003949	0.333424
C198	C	1.238224	0.329384	0.666757
C199	C	0.482882	-0.375521	0.000043
C200	C	0.816215	-0.042188	0.333377
C201	C	1.149549	0.291145	0.666710
C202	C	0.483399	-0.325104	0.000043
C203	C	0.816732	0.008229	0.333376
C204	C	1.150066	0.341563	0.666709
C205	C	0.527737	-0.305983	0.000062
C206	C	0.861070	0.027350	0.333395
C207	C	1.194404	0.360683	0.666728
C208	C	0.528247	-0.255580	0.000091
C209	C	0.861581	0.077754	0.333424
C210	C	1.194914	0.411087	0.666757
N211	N	0.572583	-0.236456	0.000100
N212	N	0.905916	0.096877	0.333433
N213	N	1.239249	0.430211	0.666766
C214	C	0.616405	-0.267747	0.000109
C215	C	0.949738	0.065587	0.333442
C216	C	1.283072	0.398920	0.666775
C217	C	0.523582	-0.714348	0.000053
C218	C	0.856915	-0.381014	0.333387
C219	C	1.190248	-0.047681	0.666720
C220	C	0.523069	-0.764762	0.000053
C221	C	0.856402	-0.431429	0.333387
C222	C	1.189735	-0.098096	0.666720
C223	C	0.611230	-0.776930	0.000073
C224	C	0.944563	-0.443596	0.333406
C225	C	1.277896	-0.110263	0.666739
C226	C	0.611742	-0.726514	0.000080
C227	C	0.945075	-0.393181	0.333413
C228	C	1.278409	-0.059848	0.666746
C229	C	0.567917	-0.695224	0.000062
C230	C	0.901250	-0.361891	0.333396
C231	C	1.234583	-0.028557	0.666729
C232	C	0.617477	-0.161878	0.000128
C233	C	0.950811	0.171456	0.333462
C234	C	1.284144	0.504789	0.666795
C235	C	0.617986	-0.111461	0.000141
C236	C	0.951319	0.221873	0.333475
C237	C	1.284652	0.555206	0.666808
C238	C	0.529825	-0.099298	0.000117
C239	C	0.863158	0.234036	0.333450
C240	C	1.196492	0.567369	0.666784
C241	C	0.529316	-0.149710	0.000109
C242	C	0.862650	0.183623	0.333443
C243	C	1.195983	0.516957	0.666776
C244	C	0.573147	-0.180999	0.000111
C245	C	0.906480	0.152334	0.333445
C246	C	1.239813	0.485667	0.666778
O247	O	0.491047	-0.224296	0.000115
O248	O	0.824380	0.109038	0.333448
O249	O	1.157713	0.442371	0.666781
O250	O	0.654156	-0.246844	0.000105
O251	O	0.987490	0.086489	0.333438
O252	O	1.320823	0.419823	0.666771
C253	C	0.614355	-0.469397	0.000082
C254	C	0.947688	-0.136064	0.333415
C255	C	1.281022	0.197270	0.666748
C256	C	0.570021	-0.488518	0.000064
C257	C	0.903354	-0.155185	0.333397
C258	C	1.236687	0.178148	0.666730
C259	C	0.526198	-0.457228	0.000055
C260	C	0.859532	-0.123894	0.333388
C261	C	1.192865	0.209439	0.666721
C262	C	0.569508	-0.538933	0.000064
C263	C	0.902841	-0.205599	0.333397
C264	C	1.236174	0.127734	0.666730
C265	C	0.613330	-0.570223	0.000073
C266	C	0.946663	-0.236890	0.333406
C267	C	1.279996	0.096443	0.666739
C268	C	0.657665	-0.551100	0.000082
C269	C	0.990998	-0.217766	0.333415
C270	C	1.324332	0.115567	0.666748
C271	C	0.658177	-0.500688	0.000091
C272	C	0.991511	-0.167354	0.333424
C273	C	1.324844	0.165979	0.666757
C274	C	0.481863	-0.476351	0.000046
C275	C	0.815197	-0.143018	0.333379
C276	C	1.148530	0.190315	0.666712
C277	C	0.481355	-0.526764	0.000038
C278	C	0.814688	-0.193430	0.333371
C279	C	1.148021	0.139903	0.666704
C280	C	0.525177	-0.558054	0.000047
C281	C	0.858510	-0.224721	0.333380
C282	C	1.191843	0.108612	0.666713
C283	C	0.658931	0.057699	0.000119
C284	C	0.992264	0.391033	0.333453
C285	C	1.325598	0.724366	0.666786
C286	C	0.712586	0.058252	0.000124
C287	C	1.045919	0.391586	0.333457
C288	C	1.379252	0.724919	0.666791
C289	C	0.566338	0.150292	0.000077
C290	C	0.899671	0.483626	0.333410
C291	C	1.233005	0.816959	0.666744
C292	C	0.566891	0.203947	0.000062
C293	C	0.900224	0.537280	0.333396
C294	C	1.233557	0.870614	0.666729
N295	N	0.570518	0.061882	0.235459
N296	N	0.903851	0.395215	0.568792
N297	N	1.237184	0.728549	0.902126
N298	N	0.570541	0.061891	-0.235255
N299	N	0.903874	0.395225	0.098078
N300	N	1.237207	0.728558	0.431411
C301	C	0.603636	0.028787	0.287515
C302	C	0.936969	0.362121	0.620848
C303	C	1.270302	0.695454	0.954182
C304	C	0.603639	0.028787	0.391618
C305	C	0.936972	0.362120	0.724952
C306	C	1.270305	0.695454	1.058285
C307	C	0.570525	0.061884	0.443663
C308	C	0.903859	0.395217	0.776997
C309	C	1.237192	0.728550	1.110330
C310	C	0.537404	0.094980	0.391600
C311	C	0.870737	0.428313	0.724933
C312	C	1.204071	0.761646	1.058267
C313	C	0.537399	0.094978	0.287499
C314	C	0.870732	0.428311	0.620832
C315	C	1.204066	0.761644	0.954165
C316	C	0.537417	0.094983	0.608580
C317	C	0.870751	0.428316	0.941913
C318	C	1.204084	0.761650	1.275247
C319	C	0.537423	0.094986	0.712689
C320	C	0.870756	0.428319	1.046022
C321	C	1.204089	0.761653	1.379355
C322	C	0.603657	0.028792	0.712700
C323	C	0.936990	0.362126	1.046033
C324	C	1.270324	0.695459	1.379366
C325	C	0.603652	0.028790	0.608598
C326	C	0.936985	0.362123	0.941932
C327	C	1.270319	0.695457	1.275265
C328	C	0.570531	0.061887	0.556542
C329	C	0.903864	0.395220	0.889875
C330	C	1.237198	0.728554	1.223209
H331	H	0.434827	-0.014492	0.000094
H332	H	0.768160	0.318841	0.333427
H333	H	1.101494	0.652174	0.666761
H334	H	0.510440	0.121926	0.433981
H335	H	0.843774	0.455260	0.767314
H336	H	1.177107	0.788593	1.100648
H337	H	0.630602	0.001838	0.245147
H338	H	0.963935	0.335172	0.578480
H339	H	1.297269	0.668505	0.911813
O340	O	0.340408	-0.022421	-0.000028
O341	O	0.673741	0.310913	0.333305
O342	O	1.007074	0.644246	0.666638
C343	C	0.356413	-0.049104	-0.085691
C344	C	0.689746	0.284230	0.247643
C345	C	1.023080	0.617563	0.580976
H346	H	0.391285	-0.036198	-0.114262
H347	H	0.724619	0.297136	0.219072
H348	H	1.057952	0.630469	0.552405
H349	H	0.363705	-0.089412	-0.066416
H350	H	0.697038	0.243921	0.266917
H351	H	1.030372	0.577255	0.600251
H352	H	0.327192	-0.043279	-0.145662
H353	H	0.660525	0.290054	0.187671
H354	H	0.993858	0.623387	0.521005
H355	H	0.446777	-0.391080	0.000022
H356	H	0.780111	-0.057747	0.333355
H357	H	1.113444	0.275586	0.666688
O358	O	0.438311	-0.545391	-0.000114
O359	O	0.771644	-0.212058	0.333219
O360	O	1.104978	0.121276	0.666553
C361	C	0.435378	-0.574164	-0.085791
C362	C	0.768711	-0.240831	0.247542
C363	C	1.102045	0.092502	0.580875
H364	H	0.473575	-0.587001	-0.114330
H365	H	0.806908	-0.253667	0.219003
H366	H	1.140242	0.079666	0.552336
H367	H	0.416354	-0.607040	-0.066549
H368	H	0.749687	-0.273707	0.266785
H369	H	1.083021	0.059626	0.600118
H370	H	0.413833	-0.551720	-0.145774
H371	H	0.747166	-0.218386	0.187559
H372	H	1.080500	0.114947	0.520893
O373	O	0.702827	-0.330962	0.000084
O374	O	1.036160	0.002371	0.333417
O375	O	1.369494	0.335705	0.666750
C376	C	0.741390	-0.369399	0.000113
C377	C	1.074724	-0.036065	0.333447
C378	C	1.408057	0.297268	0.666780
H379	H	0.728097	-0.403546	-0.031200
H380	H	1.061430	-0.070212	0.302133
H381	H	1.394764	0.263121	0.635467
H382	H	0.772372	-0.359089	-0.047897
H383	H	1.105705	-0.025756	0.285437
H384	H	1.439038	0.307577	0.618770
H385	H	0.754885	-0.376641	0.079458
H386	H	1.088219	-0.043308	0.412792
H387	H	1.421552	0.290025	0.746125
O388	O	0.177676	0.194189	0.000111
O389	O	0.511010	0.527522	0.333444
O390	O	0.844343	0.860855	0.666778
C391	C	0.139240	0.232752	0.000080
C392	C	0.472573	0.566085	0.333414
C393	C	0.805907	0.899418	0.666747
H394	H	0.105089	0.219455	0.031390
H395	H	0.438423	0.552788	0.364724
H396	H	0.771756	0.886122	0.698057
H397	H	0.149544	0.263728	0.048094
H398	H	0.482877	0.597061	0.381427
H399	H	0.816211	0.930395	0.714760
H400	H	0.132006	0.246256	-0.079264
H401	H	0.465340	0.579589	0.254069
H402	H	0.798673	0.912922	0.587402
O403	O	0.660022	-0.192316	0.000268
O404	O	0.993355	0.141017	0.333601
O405	O	1.326688	0.474351	0.666934
C406	C	0.662366	-0.221843	0.085932
C407	C	0.995700	0.111490	0.419265
C408	C	1.329033	0.444823	0.752598
H409	H	0.624017	-0.224123	0.114472
H410	H	0.957350	0.109210	0.447806
H411	H	1.290684	0.442544	0.781139
H412	H	0.680670	-0.259866	0.066671
H413	H	1.014003	0.073468	0.400004
H414	H	1.347337	0.406801	0.733338
H415	H	0.684308	-0.205419	0.145920
H416	H	1.017641	0.127915	0.479253
H417	H	1.350974	0.461248	0.812587
H418	H	0.117558	-0.061861	0.000175
H419	H	0.450892	0.271472	0.333509
H420	H	0.784225	0.604805	0.666842
H421	H	0.630617	0.001843	0.566223
H422	H	0.963951	0.335176	0.899557
H423	H	1.297284	0.668509	1.232890
O424	O	-0.199245	0.146142	0.000222
O425	O	0.134088	0.479475	0.333555
O426	O	0.467421	0.812809	0.666889
C427	C	-0.170460	0.149085	0.085889
C428	C	0.162873	0.482418	0.419222
C429	C	0.496206	0.815751	0.752555
H430	H	-0.157622	0.110891	0.114461
H431	H	0.175712	0.444224	0.447794
H432	H	0.509045	0.777557	0.781128
H433	H	-0.137586	0.168104	0.066619
H434	H	0.195747	0.501438	0.399952
H435	H	0.529081	0.834771	0.733285
H436	H	-0.192896	0.170638	0.145857
H437	H	0.140438	0.503971	0.479190
H438	H	0.473771	0.837305	0.812523
H439	H	0.510430	0.121926	0.245115
H440	H	0.843764	0.455259	0.578449
H441	H	1.177097	0.788592	0.911782
H442	H	0.694282	-0.485125	0.000106
H443	H	1.027615	-0.151791	0.333439
H444	H	1.360949	0.181542	0.666772
O445	O	0.654854	-0.708023	0.000044
O446	O	0.988188	-0.374690	0.333377
O447	O	1.321521	-0.041356	0.666711
C448	C	0.693419	-0.746458	0.000080
C449	C	1.026753	-0.413124	0.333413
C450	C	1.360086	-0.079791	0.666747
H451	H	0.680128	-0.780607	-0.031228
H452	H	1.013462	-0.447273	0.302105
H453	H	1.346795	-0.113940	0.635439
H454	H	0.724400	-0.736148	-0.047932
H455	H	1.057734	-0.402815	0.285401
H456	H	1.391067	-0.069481	0.618735
H457	H	0.706914	-0.753697	0.079426
H458	H	1.040248	-0.420363	0.412759
H459	H	1.373581	-0.087030	0.746093
H460	H	0.693347	-0.576585	0.000093
H461	H	1.026680	-0.243252	0.333427
H462	H	1.360013	0.090081	0.666760
O463	O	0.440794	-0.294758	-0.000105
O464	O	0.774127	0.038575	0.333228
O465	O	1.107461	0.371909	0.666562
C466	C	0.413866	-0.303359	-0.085783
C467	C	0.747200	0.029975	0.247550
C468	C	1.080533	0.363308	0.580884
H469	H	0.426033	-0.341689	-0.114340
H470	H	0.759366	-0.008356	0.218994
H471	H	1.092700	0.324978	0.552327
H472	H	0.373522	-0.299522	-0.066534
H473	H	0.706856	0.033812	0.266799
H474	H	1.040189	0.367145	0.600132
H475	H	0.420269	-0.275820	-0.145755
H476	H	0.753602	0.057513	0.187579
H477	H	1.086936	0.390846	0.520912
H478	H	0.494146	-0.073812	0.000113
H479	H	0.827480	0.259522	0.333447
H480	H	1.160813	0.592855	0.666780
O481	O	0.415670	0.152462	0.000086
O482	O	0.749004	0.485795	0.333419
O483	O	1.082337	0.819129	0.666752
C484	C	0.377238	0.191029	0.000055
C485	C	0.710571	0.524362	0.333389
C486	C	1.043904	0.857696	0.666722
H487	H	0.343086	0.177738	0.031375
H488	H	0.676420	0.511071	0.364708
H489	H	1.009753	0.844404	0.698042
H490	H	0.387547	0.222006	0.048060
H491	H	0.720881	0.555339	0.381393
H492	H	1.054214	0.888672	0.714727
H493	H	0.370002	0.204530	-0.079291
H494	H	0.703335	0.537863	0.254043
H495	H	1.036669	0.871197	0.587376
H496	H	0.321291	0.144530	0.000070
H497	H	0.654624	0.477863	0.333403
H498	H	0.987957	0.811196	0.666737
O499	O	0.635878	-0.003377	0.763107
O500	O	0.969212	0.329956	1.096441
O501	O	1.302545	0.663290	1.429774
C502	C	0.665099	-0.032594	0.694848
C503	C	0.998432	0.300739	1.028182
C504	C	1.331765	0.634073	1.361515
H505	H	0.665488	-0.012779	0.620631
H506	H	0.998822	0.320554	0.953964
H507	H	1.332155	0.653888	1.287298
H508	H	0.703758	-0.040228	0.724919
H509	H	1.037091	0.293105	1.058252
H510	H	1.370424	0.626438	1.391585
H511	H	0.649679	-0.068399	0.683799
H512	H	0.983012	0.264934	1.017133
H513	H	1.316346	0.598268	1.350466
O514	O	0.078335	0.193105	-0.000068
O515	O	0.411668	0.526438	0.333266
O516	O	0.745002	0.859771	0.666599
C517	C	0.048822	0.195456	-0.085740
C518	C	0.382155	0.528789	0.247593
C519	C	0.715489	0.862122	0.580926
H520	H	0.046545	0.157108	-0.114276
H521	H	0.379878	0.490441	0.219057
H522	H	0.713211	0.823775	0.552391
H523	H	0.010797	0.213760	-0.066493
H524	H	0.344131	0.547094	0.266840
H525	H	0.677464	0.880427	0.600174
H526	H	0.065258	0.217399	-0.145727
H527	H	0.398591	0.550732	0.187606
H528	H	0.731925	0.884065	0.520939
O529	O	0.701743	-0.430305	0.000251
O530	O	1.035076	-0.096971	0.333584
O531	O	1.368409	0.236362	0.666918
C532	C	0.704088	-0.459829	0.085920
C533	C	1.037421	-0.126495	0.419253
C534	C	1.370754	0.206838	0.752587
H535	H	0.665738	-0.462108	0.114462
H536	H	0.999072	-0.128774	0.447796
H537	H	1.332405	0.204559	0.781129
H538	H	0.722392	-0.497852	0.066665
H539	H	1.055725	-0.164518	0.399999
H540	H	1.389059	0.168815	0.733332
H541	H	0.726029	-0.443402	0.145905
H542	H	1.059362	-0.110068	0.479238
H543	H	1.392696	0.223265	0.812572
O544	O	0.213978	-0.067781	0.000042
O545	O	0.547312	0.265552	0.333376
O546	O	0.880645	0.598885	0.666709
C547	C	0.243494	-0.070129	-0.085627
C548	C	0.576827	0.263204	0.247706
C549	C	0.910161	0.596537	0.581039
H550	H	0.245765	-0.031781	-0.114199
H551	H	0.579098	0.301552	0.219134
H552	H	0.912432	0.634885	0.552468
H553	H	0.281521	-0.088427	-0.066361
H554	H	0.614854	0.244906	0.266972
H555	H	0.948187	0.578240	0.600305
H556	H	0.227065	-0.092078	-0.145594
H557	H	0.560398	0.241255	0.187739
H558	H	0.893731	0.574589	0.521072
O559	O	0.635862	-0.003374	0.442031
O560	O	0.969195	0.329959	0.775364
O561	O	1.302528	0.663292	1.108698
C562	C	0.665083	-0.032590	0.373772
C563	C	0.998416	0.300743	0.707105
C564	C	1.331750	0.634077	1.040439
H565	H	0.665469	-0.012776	0.299553
H566	H	0.998803	0.320557	0.632886
H567	H	1.332136	0.653890	0.966220
H568	H	0.703743	-0.040220	0.403840
H569	H	1.037077	0.293113	0.737173
H570	H	1.370410	0.626447	1.070506
H571	H	0.649667	-0.068397	0.362728
H572	H	0.983000	0.264936	0.696061
H573	H	1.316334	0.598269	1.029394
O574	O	0.505292	0.127200	0.558055
O575	O	0.838626	0.460533	0.891388
O576	O	1.171959	0.793866	1.224721
C577	C	0.512785	0.174998	0.583484
C578	C	0.846118	0.508331	0.916818
C579	C	1.179452	0.841665	1.250151
H580	H	0.551484	0.174967	0.612094
H581	H	0.884817	0.508300	0.945428
H582	H	1.218150	0.841633	1.278761
H583	H	0.507042	0.199295	0.515011
H584	H	0.840375	0.532628	0.848345
H585	H	1.173708	0.865962	1.181678
H586	H	0.485889	0.189383	0.643908
H587	H	0.819222	0.522717	0.977242
H588	H	1.152556	0.856050	1.310575
O589	O	0.661028	-0.092830	0.000023
O590	O	0.994361	0.240503	0.333356
O591	O	1.327694	0.573836	0.666689
C592	C	0.663973	-0.064032	-0.085638
C593	C	0.997306	0.269301	0.247695
C594	C	1.330640	0.602635	0.581028
H595	H	0.625780	-0.051190	-0.114201
H596	H	0.959113	0.282143	0.219133
H597	H	1.292447	0.615477	0.552466
H598	H	0.682991	-0.031160	-0.066366
H599	H	1.016324	0.302173	0.266968
H600	H	1.349658	0.635507	0.600301
H601	H	0.685529	-0.086458	-0.145615
H602	H	1.018863	0.246875	0.187718
H603	H	1.352196	0.580209	0.521051
H604	H	-0.033688	-0.063392	0.000169
H605	H	0.299645	0.269941	0.333502
H606	H	0.632979	0.603275	0.666835
H607	H	-0.293777	0.138273	0.000102
H608	H	0.039557	0.471606	0.333436
H609	H	0.372890	0.804939	0.666769
H610	H	-0.271687	-0.021674	0.000137
H611	H	0.061646	0.311659	0.333471
H612	H	0.394980	0.644992	0.666804
H613	H	0.493213	-0.165279	0.000121
H614	H	0.826546	0.168055	0.333455
H615	H	1.159879	0.501388	0.666788
H616	H	0.446177	-0.450879	0.000036
H617	H	0.779510	-0.117545	0.333369
H618	H	1.112844	0.215788	0.666703
H619	H	0.510458	0.121936	0.755059
H620	H	0.843791	0.455270	1.088392
H621	H	1.177125	0.788603	1.421725
H622	H	-0.180236	-0.020747	0.000153
H623	H	0.153097	0.312586	0.333487
H624	H	0.486430	0.645920	0.666820
O625	O	0.480011	-0.783357	0.000220
O626	O	0.813344	-0.450023	0.333553
O627	O	1.146678	-0.116690	0.666887
C628	C	0.477071	-0.812173	0.085857
C629	C	0.810405	-0.478839	0.419191
C630	C	1.143738	-0.145506	0.752524
H631	H	0.502236	-0.800442	0.145735
H632	H	0.835570	-0.467109	0.479069
H633	H	1.168903	-0.133776	0.812402
H634	H	0.438077	-0.807361	0.114594
H635	H	0.771410	-0.474028	0.447927
H636	H	1.104744	-0.140695	0.781261
H637	H	0.488522	-0.852014	0.066493
H638	H	0.821856	-0.518681	0.399826
H639	H	1.155189	-0.185347	0.733160
H640	H	0.023514	0.185643	0.000083
H641	H	0.356847	0.518977	0.333416
H642	H	0.690181	0.852310	0.666749
O643	O	-0.072911	0.191564	-0.000038
O644	O	0.260423	0.524898	0.333296
O645	O	0.593756	0.858231	0.666629
C646	C	-0.102430	0.193911	-0.085700
C647	C	0.230903	0.527244	0.247633
C648	C	0.564236	0.860577	0.580967
H649	H	-0.104694	0.155563	-0.114248
H650	H	0.228640	0.488896	0.219085
H651	H	0.561973	0.822229	0.552419
H652	H	-0.140459	0.212199	-0.066435
H653	H	0.192874	0.545532	0.266899
H654	H	0.526208	0.878866	0.600232
H655	H	-0.086009	0.215867	-0.145685
H656	H	0.247324	0.549201	0.187648
H657	H	0.580657	0.882534	0.520982
H658	H	0.646911	-0.802415	0.000080
H659	H	0.980245	-0.469082	0.333414
H660	H	1.313578	-0.135749	0.666747
O661	O	0.062611	-0.069391	0.000117
O662	O	0.395944	0.263942	0.333450
O663	O	0.729277	0.597276	0.666783
C664	C	0.034915	-0.108627	0.000154
C665	C	0.368248	0.224706	0.333488
C666	C	0.701581	0.558040	0.666821
H667	H	-0.002807	-0.096062	-0.031151
H668	H	0.330527	0.237271	0.302183
H669	H	0.663860	0.570604	0.635516
H670	H	0.053730	-0.139308	-0.047859
H671	H	0.387063	0.194026	0.285474
H672	H	0.720397	0.527359	0.618807
H673	H	0.031425	-0.122239	0.079501
H674	H	0.364759	0.211094	0.412834
H675	H	0.698092	0.544428	0.746167
O676	O	0.480962	-0.684024	0.000090
O677	O	0.814296	-0.350691	0.333423
O678	O	1.147629	-0.017358	0.666756
C679	C	0.441727	-0.711721	0.000060
C680	C	0.775060	-0.378387	0.333394
C681	C	1.108393	-0.045054	0.666727
H682	H	0.454290	-0.749444	0.031369
H683	H	0.787623	-0.416111	0.364703
H684	H	1.120956	-0.082777	0.698036
H685	H	0.411042	-0.692909	0.048074
H686	H	0.744376	-0.359576	0.381408
H687	H	1.077709	-0.026242	0.714741
H688	H	0.428121	-0.715205	-0.079284
H689	H	0.761454	-0.381872	0.254049
H690	H	1.094787	-0.048538	0.587383
