data_functionalizedCrystal
_audit_creation_method	'MofGen! by Chris Wilmer'
_symmetry_space_group_name_H-M	'P1'
_symmetry_Int_Tables_number	1
_symmetry_cell_setting	triclinic
loop_
_symmetry_equiv_pos_as_xyz
  x,y,z
_cell_length_a	25.639242
_cell_length_b	29.839131
_cell_length_c	25.639233
_cell_angle_alpha	89.980415
_cell_angle_beta	89.977834
_cell_angle_gamma	90.036947
loop_
_atom_site_label
_atom_site_type_symbol
_atom_site_fract_x
_atom_site_fract_y
_atom_site_fract_z
Zn1	Zn	0.799215	-0.178962	-0.295739
Zn2	Zn	1.299215	0.321038	0.204261
Zn3	Zn	0.799134	-0.254076	-0.208302
Zn4	Zn	1.299134	0.245924	0.291698
Zn5	Zn	0.711791	-0.178955	-0.208303
Zn6	Zn	1.211791	0.321045	0.291697
Zn7	Zn	0.711732	-0.254059	-0.295692
Zn8	Zn	1.211732	0.245941	0.204308
O9	O	0.755468	-0.216513	-0.252009
O10	O	1.255468	0.283487	0.247991
O11	O	0.872370	-0.188935	-0.284160
O12	O	1.372370	0.311065	0.215840
O13	O	0.787539	-0.244115	-0.135137
O14	O	1.287539	0.255885	0.364863
O15	O	0.723447	-0.116089	-0.219922
O16	O	1.223447	0.383911	0.280078
O17	O	0.872310	-0.244122	-0.219920
O18	O	1.372310	0.255878	0.280080
O19	O	0.787677	-0.116094	-0.284161
O20	O	1.287677	0.383906	0.215839
O21	O	0.723369	-0.188924	-0.135138
O22	O	1.223369	0.311076	0.364862
O23	O	0.638618	-0.188908	-0.219876
O24	O	1.138618	0.311092	0.280124
O25	O	0.723346	-0.244093	-0.368864
O26	O	1.223346	0.255907	0.131136
O27	O	0.638575	-0.244087	-0.284081
O28	O	1.138575	0.255913	0.215919
O29	O	0.787619	-0.188919	-0.368898
O30	O	1.287619	0.311081	0.131102
O31	O	0.787482	-0.316941	-0.219875
O32	O	1.287482	0.183059	0.280125
O33	O	0.723268	-0.316929	-0.284080
O34	O	1.223268	0.183071	0.215920
C35	C	0.619626	-0.216495	-0.251974
C36	C	1.119626	0.283505	0.248026
C37	C	0.561512	-0.216499	-0.251971
C38	C	1.061512	0.283501	0.248029
C39	C	0.201135	-0.245293	-0.285409
C40	C	0.701135	0.254707	0.214591
C41	C	0.146531	-0.245295	-0.285417
C42	C	0.646531	0.254705	0.214583
O43	O	0.118282	-0.269755	-0.313817
O44	O	0.618282	0.230245	0.186183
N45	N	0.119229	-0.216525	-0.252043
N46	N	0.619229	0.283475	0.247957
C47	C	0.146535	-0.187748	-0.218663
C48	C	0.646535	0.312252	0.281337
O49	O	0.118299	-0.163276	-0.190277
O50	O	0.618299	0.336724	0.309723
C51	C	0.201138	-0.187743	-0.218658
C52	C	0.701138	0.312257	0.281342
C53	C	0.228437	-0.216518	-0.252030
C54	C	0.728437	0.283482	0.247970
C55	C	0.228434	-0.274065	-0.318778
C56	C	0.728434	0.225935	0.181222
C57	C	0.283034	-0.274063	-0.318769
C58	C	0.783034	0.225937	0.181231
C59	C	0.310336	-0.245288	-0.285390
C60	C	0.810336	0.254712	0.214610
C61	C	0.283037	-0.216516	-0.252021
C62	C	0.783037	0.283484	0.247979
C63	C	0.228443	-0.158963	-0.185281
C64	C	0.728443	0.341037	0.314719
C65	C	0.283050	-0.158961	-0.185279
C66	C	0.783050	0.341039	0.314721
C67	C	0.310349	-0.187736	-0.218651
C68	C	0.810349	0.312264	0.281349
C69	C	0.364940	-0.187739	-0.218633
C70	C	0.864940	0.312261	0.281367
N71	N	0.392241	-0.216509	-0.252006
N72	N	0.892241	0.283491	0.247994
C73	C	0.364939	-0.245283	-0.285385
C74	C	0.864939	0.254717	0.214615
C75	C	0.031864	-0.187759	-0.218677
C76	C	0.531864	0.312241	0.281323
C77	C	-0.022738	-0.187766	-0.218679
C78	C	0.477262	0.312234	0.281321
C79	C	-0.022739	-0.245313	-0.285434
C80	C	0.477261	0.254687	0.214566
C81	C	0.031865	-0.245308	-0.285429
C82	C	0.531865	0.254692	0.214571
C83	C	0.059166	-0.216529	-0.252051
C84	C	0.559166	0.283471	0.247949
C85	C	0.479604	-0.245277	-0.285363
C86	C	0.979604	0.254723	0.214637
C87	C	0.534210	-0.245273	-0.285350
C88	C	1.034210	0.254727	0.214650
C89	C	0.534206	-0.187724	-0.218597
C90	C	1.034206	0.312276	0.281403
C91	C	0.479605	-0.187729	-0.218609
C92	C	0.979605	0.312271	0.281391
C93	C	0.452306	-0.216507	-0.251996
C94	C	0.952306	0.283493	0.248004
O95	O	0.393223	-0.163290	-0.190249
O96	O	0.893223	0.336710	0.309751
O97	O	0.393182	-0.269746	-0.313771
O98	O	0.893182	0.230254	0.186229
C99	C	0.755374	-0.333236	-0.251983
C100	C	1.255374	0.166764	0.248017
C101	C	0.755381	-0.383170	-0.251990
C102	C	1.255381	0.116830	0.248010
C103	C	0.788965	-0.692807	-0.218627
C104	C	1.288965	-0.192807	0.281373
C105	C	0.789030	-0.880480	-0.218647
C106	C	1.289030	-0.380480	0.281353
O107	O	0.817509	-0.904740	-0.190260
O108	O	1.317509	-0.404740	0.309740
N109	N	0.755577	-0.903955	-0.252049
N110	N	1.255577	-0.403955	0.247951
C111	C	0.722108	-0.880509	-0.285450
C112	C	1.222108	-0.380509	0.214550
O113	O	0.693659	-0.904782	-0.313865
O114	O	1.193659	-0.404782	0.186135
C115	C	0.722046	-0.692837	-0.285432
C116	C	1.222046	-0.192837	0.214568
C117	C	0.755498	-0.669364	-0.252024
C118	C	1.255498	-0.169364	0.247976
C119	C	0.822415	-0.669335	-0.185222
C120	C	1.322415	-0.169335	0.314778
C121	C	0.822396	-0.622419	-0.185215
C122	C	1.322396	-0.122419	0.314785
C123	C	0.788928	-0.598976	-0.218613
C124	C	1.288928	-0.098976	0.281387
C125	C	0.755479	-0.622449	-0.252018
C126	C	1.255479	-0.122449	0.247982
C127	C	0.688580	-0.669391	-0.318836
C128	C	1.188580	-0.169391	0.181164
C129	C	0.688568	-0.622470	-0.318829
C130	C	1.188568	-0.122470	0.181171
C131	C	0.722020	-0.598998	-0.285422
C132	C	1.222020	-0.098998	0.214578
C133	C	0.721993	-0.552090	-0.285409
C134	C	1.221993	-0.052090	0.214591
N135	N	0.755446	-0.528615	-0.252007
N136	N	1.255446	-0.028615	0.247993
C137	C	0.788914	-0.552058	-0.218609
C138	C	1.288914	-0.052058	0.281391
C139	C	0.722141	-0.979039	-0.285457
C140	C	1.222141	-0.479039	0.214543
C141	C	0.722156	-1.025957	-0.285461
C142	C	1.222156	-0.525957	0.214539
C143	C	0.789079	-1.025925	-0.218658
C144	C	1.289079	-0.525925	0.281342
C145	C	0.789062	-0.979007	-0.218652
C146	C	1.289062	-0.479007	0.281348
C147	C	0.755595	-0.955565	-0.252055
C148	C	1.255595	-0.455565	0.247945
C149	C	0.788872	-0.453533	-0.218597
C150	C	1.288872	0.046467	0.281403
C151	C	0.788849	-0.406613	-0.218592
C152	C	1.288849	0.093387	0.281408
C153	C	0.721928	-0.406649	-0.285396
C154	C	1.221928	0.093351	0.214604
C155	C	0.721949	-0.453564	-0.285400
C156	C	1.221949	0.046436	0.214600
C157	C	0.755425	-0.477005	-0.251999
C158	C	1.255425	0.022995	0.248001
O159	O	0.693533	-0.527802	-0.313784
O160	O	1.193533	-0.027802	0.186216
O161	O	0.817366	-0.527777	-0.190207
O162	O	1.317366	-0.027777	0.309793
C163	C	0.788984	-0.739723	-0.218633
C164	C	1.288984	-0.239723	0.281367
C165	C	0.755535	-0.763195	-0.252038
C166	C	1.255535	-0.263195	0.247962
C167	C	0.722067	-0.739752	-0.285436
C168	C	1.222067	-0.239752	0.214564
C169	C	0.755549	-0.810113	-0.252042
C170	C	1.255549	-0.310113	0.247958
C171	C	0.789017	-0.833556	-0.218644
C172	C	1.289017	-0.333556	0.281356
C173	C	0.822470	-0.810081	-0.185242
C174	C	1.322470	-0.310081	0.314758
C175	C	0.822451	-0.763166	-0.185235
C176	C	1.322451	-0.263166	0.314765
C177	C	0.688614	-0.763227	-0.318838
C178	C	1.188614	-0.263227	0.181162
C179	C	0.688635	-0.810143	-0.318841
C180	C	1.188635	-0.310143	0.181159
C181	C	0.722102	-0.833585	-0.285443
C182	C	1.222102	-0.333585	0.214557
C183	C	0.891841	-0.216531	-0.252045
C184	C	1.391841	0.283469	0.247955
C185	C	0.949955	-0.216539	-0.252060
C186	C	1.449955	0.283461	0.247940
C187	C	0.755485	-0.216505	-0.388382
C188	C	1.255485	0.283495	0.111618
C189	C	0.755492	-0.216502	-0.446496
C190	C	1.255492	0.283498	0.053504
C191	C	0.755577	-0.099335	-0.252047
C192	C	1.255577	0.400665	0.247953
C193	C	0.755624	-0.049400	-0.252063
C194	C	1.255624	0.450600	0.247937
C195	C	0.789002	-0.187687	-0.806883
C196	C	1.289002	0.312313	-0.306883
C197	C	0.789008	-0.187675	-0.861488
C198	C	1.289008	0.312325	-0.361488
O199	O	0.817457	-0.163229	-0.889744
O200	O	1.317457	0.336771	-0.389744
N201	N	0.755550	-0.216396	-0.888779
N202	N	1.255550	0.283604	-0.388779
C203	C	0.722079	-0.245129	-0.861463
C204	C	1.222079	0.254871	-0.361463
O205	O	0.693621	-0.269558	-0.889691
O206	O	1.193621	0.230442	-0.389691
C207	C	0.722071	-0.245139	-0.806860
C208	C	1.222071	0.254861	-0.306860
C209	C	0.755535	-0.216419	-0.779571
C210	C	1.255535	0.283581	-0.279571
C211	C	0.822463	-0.158969	-0.779594
C212	C	1.322463	0.341031	-0.279594
C213	C	0.822457	-0.158982	-0.724994
C214	C	1.322457	0.341018	-0.224994
C215	C	0.788990	-0.187714	-0.697682
C216	C	1.288990	0.312286	-0.197682
C217	C	0.755529	-0.216432	-0.724971
C218	C	1.255529	0.283568	-0.224971
C219	C	0.688598	-0.273869	-0.779545
C220	C	1.188598	0.226131	-0.279545
C221	C	0.688592	-0.273876	-0.724938
C222	C	1.188592	0.226124	-0.224938
C223	C	0.722056	-0.245156	-0.697650
C224	C	1.222056	0.254844	-0.197650
C225	C	0.722056	-0.245176	-0.643058
C226	C	1.222056	0.254824	-0.143058
N227	N	0.755514	-0.216455	-0.615767
N228	N	1.255514	0.283545	-0.115767
C229	C	0.788981	-0.187723	-0.643079
C230	C	1.288981	0.312277	-0.143079
C231	C	0.722100	-0.245106	-0.976134
C232	C	1.222100	0.254894	-0.476134
C233	C	0.722110	-0.245099	-1.030736
C234	C	1.222110	0.254901	-0.530736
C235	C	0.789039	-0.187644	-1.030757
C236	C	1.289039	0.312356	-0.530757
C237	C	0.789030	-0.187653	-0.976153
C238	C	1.289030	0.312347	-0.476153
C239	C	0.755558	-0.216384	-0.948843
C240	C	1.255558	0.283616	-0.448843
C241	C	0.788967	-0.187753	-0.528414
C242	C	1.288967	0.312247	-0.028414
C243	C	0.788959	-0.187770	-0.473808
C244	C	1.288959	0.312230	0.026192
C245	C	0.722029	-0.245223	-0.473793
C246	C	1.222029	0.254777	0.026207
C247	C	0.722038	-0.245208	-0.528393
C248	C	1.222038	0.254792	-0.028393
C249	C	0.755509	-0.216470	-0.555702
C250	C	1.255509	0.283530	-0.055702
O251	O	0.693620	-0.269609	-0.614767
O252	O	1.193620	0.230391	-0.114767
O253	O	0.817430	-0.163295	-0.614845
O254	O	1.317430	0.336705	-0.114845
C255	C	0.755482	-0.216488	-0.116167
C256	C	1.255482	0.283512	0.383833
C257	C	0.755576	-0.216365	-0.058053
C258	C	1.255576	0.283635	0.441947
H259	H	0.816089	-0.387503	-0.191385
H260	H	1.316089	0.112497	0.308615
O261	O	0.854999	-0.832789	-0.152750
O262	O	1.354999	-0.332789	0.347250
C263	C	0.884535	-0.802015	-0.123272
C264	C	1.384535	-0.302015	0.376728
H265	H	0.863112	-0.768587	-0.121428
H266	H	1.363112	-0.268587	0.378572
H267	H	0.924228	-0.796986	-0.142463
H268	H	1.424228	-0.296986	0.357537
C269	C	0.918429	-0.861406	-0.069906
C270	C	1.418429	-0.361406	0.430094
C271	C	0.892116	-0.820350	-0.067637
C272	C	1.392116	-0.320350	0.432363
H273	H	0.923108	-0.872716	-0.035588
H274	H	1.423108	-0.372716	0.464412
H275	H	0.898532	-0.882139	-0.089767
H276	H	1.398532	-0.382139	0.410233
H277	H	0.951504	-0.857209	-0.085901
H278	H	1.451504	-0.357209	0.414099
H279	H	0.859039	-0.824548	-0.051648
H280	H	1.359039	-0.324548	0.448352
H281	H	0.912008	-0.799618	-0.047771
H282	H	1.412008	-0.299618	0.452229
H283	H	0.661390	-0.829250	-0.346045
H284	H	1.161390	-0.329250	0.153955
O285	O	0.656049	-0.740528	-0.351296
O286	O	1.156049	-0.240528	0.148704
C287	C	0.626540	-0.771313	-0.380784
C288	C	1.126540	-0.271313	0.119216
H289	H	0.624766	-0.804767	-0.359368
H290	H	1.124766	-0.304767	0.140632
H291	H	0.645657	-0.776271	-0.420516
H292	H	1.145657	-0.276271	0.079484
C293	C	0.573056	-0.711966	-0.414554
C294	C	1.073056	-0.211966	0.085446
C295	C	0.570873	-0.753053	-0.388249
C296	C	1.070873	-0.253053	0.111751
H297	H	0.538719	-0.700702	-0.419162
H298	H	1.038719	-0.200702	0.080838
H299	H	0.592938	-0.691224	-0.394689
H300	H	1.092938	-0.191224	0.105311
H301	H	0.588989	-0.716103	-0.447662
H302	H	1.088989	-0.216103	0.052338
H303	H	0.554946	-0.748915	-0.355140
H304	H	1.054946	-0.248915	0.144860
H305	H	0.550987	-0.773793	-0.408109
H306	H	1.050987	-0.273793	0.091891
H307	H	0.661337	-0.688495	-0.346038
H308	H	1.161337	-0.188495	0.153962
H309	H	0.849691	-0.744058	-0.158032
H310	H	1.349691	-0.244058	0.341968
H311	H	0.694912	-1.045065	-0.312660
H312	H	1.194912	-0.545065	0.187340
H313	H	0.556445	-0.164298	-0.191419
H314	H	1.056445	0.335702	0.308581
O315	O	0.821495	-0.159742	-1.057374
O316	O	1.321495	0.340258	-0.557374
C317	C	0.814329	-0.165900	-1.111419
C318	C	1.314329	0.334100	-0.611419
H319	H	0.773968	-0.180613	-1.118857
H320	H	1.273968	0.319387	-0.618857
H321	H	0.845324	-0.189821	-1.126923
H322	H	1.345324	0.310179	-0.626923
C323	C	0.868723	-0.102369	-1.130325
C324	C	1.368723	0.397631	-0.630325
C325	C	0.819150	-0.120436	-1.139462
C326	C	1.319150	0.379564	-0.639462
H327	H	0.871699	-0.074325	-1.147625
H328	H	1.371699	0.425675	-0.647625
H329	H	0.873552	-0.098220	-1.093914
H330	H	1.373552	0.401780	-0.593914
H331	H	0.894546	-0.122307	-1.143246
H332	H	1.394546	0.377693	-0.643246
H333	H	0.793328	-0.100501	-1.126536
H334	H	1.293328	0.399499	-0.626536
H335	H	0.814316	-0.124580	-1.175871
H336	H	1.314316	0.375420	-0.675871
H337	H	0.305256	-0.297494	-0.345945
H338	H	0.805256	0.202506	0.154055
O339	O	0.689487	-0.273124	-0.554824
O340	O	1.189487	0.226876	-0.054824
C341	C	0.659959	-0.298496	-0.519006
C342	C	1.159959	0.201504	-0.019006
H343	H	0.658165	-0.280105	-0.480082
H344	H	1.158165	0.219895	0.019918
H345	H	0.679074	-0.332620	-0.513204
H346	H	1.179074	0.167380	-0.013204
C347	C	0.606512	-0.327547	-0.588102
C348	C	1.106512	0.172453	-0.088102
C349	C	0.604304	-0.304957	-0.540297
C350	C	1.104304	0.195043	-0.040297
H351	H	0.572182	-0.331534	-0.601236
H352	H	1.072182	0.168466	-0.101236
H353	H	0.626406	-0.310455	-0.612234
H354	H	1.126406	0.189545	-0.112234
H355	H	0.622443	-0.355981	-0.583260
H356	H	1.122443	0.144019	-0.083260
H357	H	0.588379	-0.276521	-0.545140
H358	H	1.088379	0.223479	-0.045140
H359	H	0.584406	-0.322044	-0.516166
H360	H	1.084406	0.177956	-0.016166
H361	H	0.694842	-0.268504	-0.953901
H362	H	1.194842	0.231496	-0.453901
O363	O	0.821517	-0.159931	-0.447274
O364	O	1.321517	0.340069	0.052726
C365	C	0.855253	-0.185513	-0.415683
C366	C	1.355253	0.314487	0.084317
H367	H	0.858460	-0.220893	-0.432134
H368	H	1.358460	0.279107	0.067866
H369	H	0.839078	-0.187069	-0.374297
H370	H	1.339078	0.312931	0.125703
C371	C	0.905682	-0.120110	-0.394652
C372	C	1.405682	0.379890	0.105348
C373	C	0.909625	-0.163563	-0.414860
C374	C	1.409625	0.336437	0.085140
H375	H	0.939221	-0.106569	-0.394142
H376	H	1.439221	0.393431	0.105858
H377	H	0.882953	-0.102874	-0.415934
H378	H	1.382953	0.397126	0.084066
H379	H	0.892201	-0.121412	-0.360165
H380	H	1.392201	0.378588	0.139835
H381	H	0.923100	-0.162259	-0.449348
H382	H	1.423100	0.337741	0.050652
H383	H	0.932358	-0.180798	-0.393583
H384	H	1.432358	0.319202	0.106417
O385	O	0.821530	-0.159824	-0.554856
O386	O	1.321530	0.340176	-0.054856
C387	C	0.851050	-0.134475	-0.519052
C388	C	1.351050	0.365525	-0.019052
H389	H	0.852832	-0.152889	-0.480130
H390	H	1.352832	0.347111	0.019870
H391	H	0.831937	-0.100354	-0.513241
H392	H	1.331937	0.399646	-0.013241
C393	C	0.904520	-0.105388	-0.588175
C394	C	1.404520	0.394612	-0.088175
C395	C	0.906712	-0.128006	-0.540371
C396	C	1.406712	0.371994	-0.040371
H397	H	0.938854	-0.101395	-0.601325
H398	H	1.438854	0.398605	-0.101325
H399	H	0.884631	-0.122464	-0.612297
H400	H	1.384631	0.377536	-0.112297
H401	H	0.888590	-0.076955	-0.583326
H402	H	1.388590	0.423045	-0.083326
H403	H	0.922636	-0.156440	-0.545222
H404	H	1.422636	0.343560	-0.045222
H405	H	0.926605	-0.110934	-0.516250
H406	H	1.426605	0.389066	-0.016250
H407	H	0.694783	-0.268617	-0.451545
H408	H	1.194783	0.231383	0.048455
H409	H	0.849671	-0.688417	-0.158025
H410	H	1.349671	-0.188417	0.341975
H411	H	0.816301	-0.959898	-0.191448
H412	H	1.316301	-0.459898	0.308552
O413	O	0.560646	-0.273240	-0.317820
O414	O	1.060646	0.226760	0.182180
C415	C	0.524835	-0.298643	-0.347273
C416	C	1.024835	0.201357	0.152727
H417	H	0.485927	-0.280245	-0.349127
H418	H	0.985927	0.219755	0.150873
H419	H	0.518993	-0.332739	-0.328056
H420	H	1.018993	0.167261	0.171944
C421	C	0.593956	-0.327786	-0.400627
C422	C	1.093956	0.172214	0.099373
C423	C	0.546170	-0.305187	-0.402907
C424	C	1.046170	0.194813	0.097093
H425	H	0.607117	-0.331825	-0.434944
H426	H	1.107117	0.168175	0.065056
H427	H	0.618083	-0.310673	-0.380783
H428	H	1.118083	0.189327	0.119217
H429	H	0.589081	-0.356197	-0.384610
H430	H	1.089081	0.143803	0.115390
H431	H	0.551046	-0.276775	-0.418918
H432	H	1.051046	0.223225	0.081082
H433	H	0.522044	-0.322295	-0.422756
H434	H	1.022044	0.177705	0.077244
H435	H	0.849637	-0.603311	-0.158013
H436	H	1.349637	-0.103311	0.341987
H437	H	0.054088	-0.268739	-0.312604
H438	H	0.554088	0.231261	0.187396
H439	H	0.206210	-0.297497	-0.345962
H440	H	0.706210	0.202503	0.154038
O441	O	0.453035	-0.273255	-0.317722
O442	O	0.953035	0.226745	0.182278
C443	C	0.421425	-0.302245	-0.287900
C444	C	0.921425	0.197755	0.212100
H445	H	0.413225	-0.286349	-0.248314
H446	H	0.913225	0.213651	0.251686
H447	H	0.442449	-0.335526	-0.282076
H448	H	0.942449	0.164474	0.217924
C449	C	0.379644	-0.329951	-0.365284
C450	C	0.879644	0.170049	0.134716
C451	C	0.369570	-0.310426	-0.316666
C452	C	0.869570	0.189574	0.183334
H453	H	0.347658	-0.334999	-0.383029
H454	H	0.847658	0.165001	0.116971
H455	H	0.400941	-0.310421	-0.385376
H456	H	0.900941	0.189579	0.114624
H457	H	0.397165	-0.357683	-0.360424
H458	H	0.897165	0.142317	0.139576
H459	H	0.352055	-0.282692	-0.321527
H460	H	0.852055	0.217308	0.178473
H461	H	0.348268	-0.329951	-0.296576
H462	H	0.848268	0.170049	0.203424
O463	O	0.309592	-0.130957	-0.152926
O464	O	0.809592	0.369043	0.347074
C465	C	0.341223	-0.101983	-0.182747
C466	C	0.841223	0.398017	0.317253
H467	H	0.324796	-0.099263	-0.223936
H468	H	0.824796	0.400737	0.276064
H469	H	0.382598	-0.115871	-0.184508
H470	H	0.882598	0.384129	0.315492
C471	C	0.362250	-0.058589	-0.106715
C472	C	0.862250	0.441411	0.393285
C473	C	0.342072	-0.055244	-0.157303
C474	C	0.842072	0.444756	0.342697
H475	H	0.362776	-0.029758	-0.091019
H476	H	0.862776	0.470242	0.408981
H477	H	0.340942	-0.078109	-0.086623
H478	H	0.840942	0.421891	0.413377
H479	H	0.396728	-0.070164	-0.108189
H480	H	0.896728	0.429836	0.391811
H481	H	0.307592	-0.043675	-0.155827
H482	H	0.807592	0.456325	0.344173
H483	H	0.363375	-0.035720	-0.177394
H484	H	0.863375	0.464280	0.322606
H485	H	0.206226	-0.135532	-0.158104
H486	H	0.706226	0.364468	0.341896
O487	O	0.854977	-0.131037	-0.698570
O488	O	1.354977	0.368963	-0.198570
C489	C	0.884521	-0.105686	-0.734395
C490	C	1.384521	0.394314	-0.234395
H491	H	0.863109	-0.104126	-0.773311
H492	H	1.363109	0.395874	-0.273311
H493	H	0.924217	-0.122139	-0.740210
H494	H	1.424217	0.377861	-0.240210
C495	C	0.918394	-0.059789	-0.665304
C496	C	1.418394	0.440211	-0.165304
C497	C	0.892093	-0.057871	-0.713100
C498	C	1.392093	0.442129	-0.213100
H499	H	0.923068	-0.030295	-0.652168
H500	H	1.423068	0.469705	-0.152168
H501	H	0.898492	-0.076869	-0.641168
H502	H	1.398492	0.423131	-0.141168
H503	H	0.951471	-0.073502	-0.670157
H504	H	1.451471	0.426498	-0.170157
H505	H	0.859015	-0.044163	-0.708246
H506	H	1.359015	0.455837	-0.208246
H507	H	0.911991	-0.040787	-0.737235
H508	H	1.411991	0.459213	-0.237235
H509	H	0.661347	-0.297256	-0.801754
H510	H	1.161347	0.202744	-0.301754
O511	O	0.821405	-0.476229	-0.186100
O512	O	1.321405	0.023771	0.313900
C513	C	0.850929	-0.445443	-0.156628
C514	C	1.350929	0.054557	0.343372
H515	H	0.829498	-0.412019	-0.154797
H516	H	1.329498	0.087981	0.345203
H517	H	0.890624	-0.440411	-0.175814
H518	H	1.390624	0.059589	0.324186
C519	C	0.884830	-0.504814	-0.103237
C520	C	1.384830	-0.004814	0.396763
C521	C	0.858506	-0.463763	-0.100985
C522	C	1.358506	0.036237	0.399015
H523	H	0.889506	-0.516115	-0.068914
H524	H	1.389506	-0.016115	0.431086
H525	H	0.864941	-0.525556	-0.123094
H526	H	1.364941	-0.025556	0.376906
H527	H	0.917906	-0.500616	-0.119228
H528	H	1.417906	-0.000616	0.380772
H529	H	0.825428	-0.467963	-0.085000
H530	H	1.325428	0.032037	0.415000
H531	H	0.878390	-0.443022	-0.081124
H532	H	1.378390	0.056978	0.418876
H533	H	0.816330	-1.045021	-0.191464
H534	H	1.316330	-0.545021	0.308536
O535	O	0.689558	-0.273015	-1.057161
O536	O	1.189558	0.226985	-0.557161
C537	C	0.660031	-0.298384	-1.021339
C538	C	1.160031	0.201616	-0.521339
H539	H	0.658237	-0.279988	-0.982418
H540	H	1.158237	0.220012	-0.482418
H541	H	0.679146	-0.332507	-1.015532
H542	H	1.179146	0.167493	-0.515532
C543	C	0.606583	-0.327442	-1.090430
C544	C	1.106583	0.172558	-0.590430
C545	C	0.604376	-0.304847	-1.042629
C546	C	1.104376	0.195153	-0.542629
H547	H	0.572253	-0.331431	-1.103563
H548	H	1.072253	0.168569	-0.603563
H549	H	0.626477	-0.310353	-1.114565
H550	H	1.126477	0.189647	-0.614565
H551	H	0.622515	-0.355876	-1.085585
H552	H	1.122515	0.144124	-0.585585
H553	H	0.588451	-0.276412	-1.047476
H554	H	1.088451	0.223588	-0.547476
H555	H	0.584478	-0.321932	-1.018495
H556	H	1.084478	0.178068	-0.518495
H557	H	-0.044978	-0.268742	-0.312615
H558	H	0.455022	0.231258	0.187385
O559	O	0.656084	-0.599748	-0.351351
O560	O	1.156084	-0.099748	0.148649
C561	C	0.667493	-0.611176	-0.403474
C562	C	1.167493	-0.111176	0.096526
H563	H	0.687604	-0.645224	-0.404580
H564	H	1.187604	-0.145224	0.095420
H565	H	0.694353	-0.584741	-0.421108
H566	H	1.194353	-0.084741	0.078892
C567	C	0.591803	-0.571556	-0.433736
C568	C	1.091803	-0.071556	0.066264
C569	C	0.616500	-0.613377	-0.435095
C570	C	1.116500	-0.113377	0.064905
H571	H	0.560350	-0.572912	-0.453243
H572	H	1.060350	-0.072912	0.046757
H573	H	0.584118	-0.563855	-0.398621
H574	H	1.084118	-0.063855	0.101379
H575	H	0.614192	-0.549532	-0.448430
H576	H	1.114192	-0.049532	0.051570
H577	H	0.594114	-0.635399	-0.420396
H578	H	1.094114	-0.135399	0.079604
H579	H	0.624181	-0.621082	-0.470210
H580	H	1.124181	-0.121082	0.029790
H581	H	0.694712	-0.472677	-0.312605
H582	H	1.194712	0.027323	0.187395
H583	H	0.849716	-0.135570	-0.801826
H584	H	1.349716	0.364430	-0.301826
H585	H	-0.044960	-0.164338	-0.191499
H586	H	0.455040	0.335662	0.308501
O587	O	0.821551	-0.159710	-0.949728
O588	O	1.321551	0.340290	-0.449728
C589	C	0.851100	-0.134361	-0.985550
C590	C	1.351100	0.365639	-0.485550
H591	H	0.829690	-0.132799	-1.024468
H592	H	1.329690	0.367201	-0.524468
H593	H	0.890794	-0.150817	-0.991364
H594	H	1.390794	0.349183	-0.491364
C595	C	0.884974	-0.088467	-0.916456
C596	C	1.384974	0.411533	-0.416456
C597	C	0.858676	-0.086546	-0.964254
C598	C	1.358676	0.413454	-0.464254
H599	H	0.889649	-0.058974	-0.903320
H600	H	1.389649	0.441026	-0.403320
H601	H	0.865068	-0.105547	-0.892322
H602	H	1.365068	0.394453	-0.392322
H603	H	0.918049	-0.102183	-0.921307
H604	H	1.418049	0.397817	-0.421307
H605	H	0.825598	-0.072836	-0.959402
H606	H	1.325598	0.427164	-0.459402
H607	H	0.878576	-0.069463	-0.988388
H608	H	1.378576	0.430537	-0.488388
H609	H	0.694887	-0.959956	-0.312658
H610	H	1.194887	-0.459956	0.187342
O611	O	0.058302	-0.159792	-0.186196
O612	O	0.558302	0.340208	0.313804
C613	C	0.022491	-0.134395	-0.156752
C614	C	0.522491	0.365605	0.343248
H615	H	-0.016444	-0.152800	-0.154914
H616	H	0.483556	0.347200	0.345086
H617	H	0.016714	-0.100299	-0.175969
H618	H	0.516714	0.399701	0.324031
C619	C	0.091590	-0.105246	-0.103372
C620	C	0.591590	0.394754	0.396628
C621	C	0.043771	-0.127852	-0.101111
C622	C	0.543771	0.372148	0.398889
H623	H	0.104717	-0.101207	-0.069050
H624	H	0.604717	0.398793	0.430950
H625	H	0.115717	-0.122354	-0.123209
H626	H	0.615717	0.377646	0.376791
H627	H	0.086770	-0.076835	-0.119388
H628	H	0.586770	0.423165	0.380612
H629	H	0.048593	-0.156265	-0.085101
H630	H	0.548593	0.343735	0.414899
H631	H	0.019645	-0.110749	-0.081269
H632	H	0.519645	0.389251	0.418731
O633	O	0.656065	-0.301834	-0.698490
O634	O	1.156065	0.198166	-0.198490
C635	C	0.626528	-0.327172	-0.734290
C636	C	1.126528	0.172828	-0.234290
H637	H	0.647945	-0.328714	-0.773219
H638	H	1.147945	0.171286	-0.273219
H639	H	0.586832	-0.310719	-0.740083
H640	H	1.086832	0.189281	-0.240083
C641	C	0.592649	-0.373100	-0.665166
C642	C	1.092649	0.126900	-0.165166
C643	C	0.618956	-0.374997	-0.712979
C644	C	1.118956	0.125003	-0.212979
H645	H	0.587976	-0.402599	-0.652020
H646	H	1.087976	0.097401	-0.152020
H647	H	0.612547	-0.356028	-0.641047
H648	H	1.112547	0.143972	-0.141047
H649	H	0.559571	-0.359386	-0.670001
H650	H	1.059571	0.140614	-0.170001
H651	H	0.652035	-0.388705	-0.708143
H652	H	1.152035	0.111295	-0.208143
H653	H	0.599063	-0.392072	-0.737097
H654	H	1.099063	0.107928	-0.237097
H655	H	0.457377	-0.164299	-0.191433
H656	H	0.957377	0.335701	0.308567
H657	H	0.694677	-0.387554	-0.312587
H658	H	1.194677	0.112446	0.187413
