data_functionalizedCrystal
_audit_creation_method	'MofGen! by Chris Wilmer'
_symmetry_space_group_name_H-M	'P1'
_symmetry_Int_Tables_number	1
_symmetry_cell_setting	triclinic
loop_
_symmetry_equiv_pos_as_xyz
  x,y,z
_cell_length_a	11.792254
_cell_length_b	15.944493
_cell_length_c	10.268362
_cell_angle_alpha	90.000590
_cell_angle_beta	89.995475
_cell_angle_gamma	83.836821
loop_
_atom_site_label
_atom_site_type_symbol
_atom_site_fract_x
_atom_site_fract_y
_atom_site_fract_z
O1	O	1.505919	0.115182	-0.108281
O2	O	1.175479	0.127036	-0.108282
O3	O	1.349757	-0.001128	-0.108292
O4	O	1.331641	0.243346	-0.108271
O5	O	1.349742	-0.001133	0.108309
O6	O	1.175464	0.127031	0.108319
O7	O	1.505904	0.115177	0.108320
Cu8	Cu	1.340682	0.121103	0.128097
Cu9	Cu	1.340700	0.121110	-0.128059
O10	O	1.331626	0.243341	0.108330
C11	C	1.133187	0.126287	0.000018
C12	C	1.007193	0.124052	0.000017
C13	C	0.904872	0.122236	0.000011
C14	C	0.776504	0.119965	0.000010
C15	C	1.349009	-0.032429	0.000003
C16	C	1.346789	-0.125687	-0.000014
C17	C	1.449373	-0.360981	0.000011
C18	C	1.394061	-0.411798	-0.106784
C19	C	1.342676	-0.296427	0.000002
C20	C	1.394021	-0.411779	0.106767
C21	C	1.338711	-0.461355	0.000023
C22	C	1.287392	-0.346016	-0.106881
C23	C	1.287368	-0.345994	0.106766
C24	C	1.231977	-0.396778	-0.000055
C25	C	1.344963	-0.201417	-0.000011
C26	C	1.336415	-0.556362	0.000027
C27	C	1.548196	0.115926	0.000017
C28	C	1.674190	0.118161	0.000010
C29	C	1.332374	0.274642	0.000033
C30	C	1.334594	0.367900	0.000041
N31	N	1.340678	0.121098	0.308263
N32	N	1.340713	0.121108	-0.308225
C33	C	1.340694	0.121108	0.573933
C34	C	1.340682	0.121105	0.426095
H35	H	1.439127	-0.440536	-0.197072
O36	O	1.559059	-0.341935	0.000034
C37	C	1.739942	-0.355129	0.111431
C38	C	1.615765	-0.376778	0.111578
H39	H	1.785818	-0.383275	0.201620
H40	H	1.785301	-0.382338	0.020319
H41	H	1.740611	-0.283687	0.112284
H42	H	1.614991	-0.448209	0.110772
H43	H	1.570458	-0.349510	0.202683
H44	H	1.140000	-0.412662	-0.000114
O45	O	1.233776	-0.311752	-0.214684
C46	C	1.175701	-0.184864	-0.335603
C47	C	1.236460	-0.223560	-0.213474
H48	H	1.177829	-0.113554	-0.334652
H49	H	1.220877	-0.212524	-0.426540
H50	H	1.083332	-0.199871	-0.335987
H51	H	1.328830	-0.208567	-0.212964
H52	H	1.191195	-0.195899	-0.122593
H53	H	1.439097	-0.440508	0.197048
O54	O	1.233816	-0.311738	0.214613
C55	C	1.229491	-0.306566	0.449112
C56	C	1.290250	-0.345412	0.327072
H57	H	1.275079	-0.333789	0.540065
H58	H	1.231042	-0.235204	0.447642
H59	H	1.137307	-0.321989	0.449969
H60	H	1.382458	-0.330054	0.326135
H61	H	1.288607	-0.416765	0.328588
