data_functionalizedCrystal
_audit_creation_method	'MofGen! by Chris Wilmer'
_symmetry_space_group_name_H-M	'P1'
_symmetry_Int_Tables_number	1
_symmetry_cell_setting	triclinic
loop_
_symmetry_equiv_pos_as_xyz
  x,y,z
_cell_length_a	16.959455
_cell_length_b	16.959454
_cell_length_c	12.759393
_cell_angle_alpha	89.970360
_cell_angle_beta	89.978003
_cell_angle_gamma	90.019503
loop_
_atom_site_label
_atom_site_type_symbol
_atom_site_fract_x
_atom_site_fract_y
_atom_site_fract_z
Zn1	Zn	1.208441	-0.314655	-0.594056
Zn2	Zn	1.708441	0.185345	-0.094056
Zn3	Zn	1.208346	-0.446854	-0.418379
Zn4	Zn	1.708346	0.053146	0.081621
Zn5	Zn	1.076252	-0.314693	-0.418388
Zn6	Zn	1.576252	0.185307	0.081612
Zn7	Zn	1.076234	-0.446794	-0.594013
Zn8	Zn	1.576234	0.053206	-0.094013
O9	O	1.142318	-0.380749	-0.506209
O10	O	1.642318	0.119251	-0.006209
O11	O	1.319039	-0.332201	-0.570766
O12	O	1.819039	0.167799	-0.070766
O13	O	1.190792	-0.429364	-0.271359
O14	O	1.690792	0.070636	0.228641
O15	O	1.093835	-0.204077	-0.441713
O16	O	1.593835	0.295923	0.058287
O17	O	1.318970	-0.429328	-0.441697
O18	O	1.818970	0.070672	0.058303
O19	O	1.190953	-0.204049	-0.570775
O20	O	1.690953	0.295951	-0.070775
O21	O	1.093743	-0.332265	-0.271366
O22	O	1.593743	0.167735	0.228634
O23	O	0.965639	-0.332207	-0.441671
O24	O	1.465639	0.167793	0.058329
O25	O	1.093803	-0.429225	-0.741040
O26	O	1.593803	0.070775	-0.241040
O27	O	0.965625	-0.429261	-0.570701
O28	O	1.465625	0.070739	-0.070701
O29	O	1.190935	-0.332143	-0.741071
O30	O	1.690935	0.167857	-0.241071
O31	O	1.190774	-0.557457	-0.441655
O32	O	1.690774	-0.057457	0.058345
O33	O	1.093712	-0.557413	-0.570693
O34	O	1.593712	-0.057413	-0.070693
C35	C	0.936952	-0.380732	-0.506183
C36	C	1.436952	0.119268	-0.006183
C37	C	0.849095	-0.380744	-0.506197
C38	C	1.349095	0.119256	-0.006197
C39	C	0.807784	-0.431241	-0.438901
C40	C	1.307784	0.068759	0.061099
C41	C	0.807854	-0.330253	-0.573501
C42	C	1.307854	0.169747	-0.073501
C43	C	0.725308	-0.330259	-0.573514
C44	C	1.225308	0.169741	-0.073514
C45	C	0.683996	-0.380756	-0.506218
C46	C	1.183996	0.119244	-0.006218
C47	C	0.725230	-0.431247	-0.438909
C48	C	1.225230	0.068753	0.061091
C49	C	0.684068	-0.279763	-0.640814
C50	C	1.184068	0.220237	-0.140814
C51	C	0.601517	-0.279767	-0.640828
C52	C	1.101517	0.220233	-0.140828
C53	C	0.560203	-0.330269	-0.573536
C54	C	1.060203	0.169731	-0.073536
C55	C	0.601442	-0.380762	-0.506226
C56	C	1.101442	0.119238	-0.006226
C57	C	0.560131	-0.431259	-0.438930
C58	C	1.060131	0.068741	0.061070
C59	C	0.601368	-0.481757	-0.371624
C60	C	1.101368	0.018243	0.128376
C61	C	0.683917	-0.481749	-0.371617
C62	C	1.183917	0.018251	0.128383
C63	C	0.477655	-0.330278	-0.573543
C64	C	0.977655	0.169722	-0.073543
C65	C	0.477577	-0.431265	-0.438938
C66	C	0.977577	0.068735	0.061062
C67	C	1.142252	-0.586115	-0.506191
C68	C	1.642252	-0.086115	-0.006191
C69	C	1.142296	-0.673972	-0.506218
C70	C	1.642296	-0.173972	-0.006218
C71	C	1.091851	-1.045455	-0.573391
C72	C	1.591851	-0.545455	-0.073391
C73	C	1.193006	-1.045441	-0.439133
C74	C	1.693006	-0.545441	0.060867
C75	C	1.192978	-0.962895	-0.439124
C76	C	1.692978	-0.462895	0.060876
C77	C	1.142385	-0.921625	-0.506248
C78	C	1.642385	-0.421625	-0.006248
C79	C	1.091820	-0.962901	-0.573382
C80	C	1.591820	-0.462901	-0.073382
C81	C	1.243536	-0.921612	-0.371983
C82	C	1.743536	-0.421612	0.128017
C83	C	1.243510	-0.839062	-0.371970
C84	C	1.743510	-0.339062	0.128030
C85	C	1.192921	-0.797790	-0.439101
C86	C	1.692921	-0.297790	0.060899
C87	C	1.142355	-0.839071	-0.506238
C88	C	1.642355	-0.339071	-0.006238
C89	C	1.091762	-0.797802	-0.573362
C90	C	1.591762	-0.297802	-0.073362
C91	C	1.041199	-0.839081	-0.640506
C92	C	1.541199	-0.339081	-0.140506
C93	C	1.041231	-0.921630	-0.640512
C94	C	1.541231	-0.421630	-0.140512
C95	C	1.192889	-0.715242	-0.439094
C96	C	1.692889	-0.215242	0.060906
C97	C	1.091731	-0.715248	-0.573352
C98	C	1.591731	-0.215248	-0.073352
C99	C	1.348486	-0.380767	-0.506235
C100	C	1.848486	0.119233	-0.006235
C101	C	1.436343	-0.380775	-0.506247
C102	C	1.936343	0.119225	-0.006247
C103	C	1.142377	-0.380673	-0.780242
C104	C	1.642377	0.119327	-0.280242
C105	C	1.142403	-0.380641	-0.897019
C106	C	1.642403	0.119359	-0.397019
C107	C	1.142406	-0.174581	-0.506250
C108	C	1.642406	0.325419	-0.006250
C109	C	1.142444	-0.086724	-0.506267
C110	C	1.642444	0.413276	-0.006267
C111	C	1.192983	-0.330082	-0.951899
C112	C	1.692983	0.169918	-0.451899
C113	C	1.192996	-0.330048	-1.061623
C114	C	1.692996	0.169952	-0.561623
C115	C	1.091847	-0.431138	-1.061577
C116	C	1.591847	0.068862	-0.561577
C117	C	1.091830	-0.431168	-0.951855
C118	C	1.591830	0.068832	-0.451855
C119	C	1.142305	-0.380768	-0.233241
C120	C	1.642305	0.119232	0.266759
C121	C	1.142433	-0.380577	-0.116465
C122	C	1.642433	0.119423	0.383535
H123	H	0.567721	-0.522869	-0.316827
H124	H	1.067721	-0.022869	0.183173
H125	H	1.000065	-0.955247	-0.695175
H126	H	1.500065	-0.455247	-0.195175
H127	H	0.567948	-0.238650	-0.695634
H128	H	1.067948	0.261350	-0.195634
H129	H	1.050686	-1.079068	-0.628061
H130	H	1.550686	-0.579068	-0.128061
O131	O	0.728396	-0.536198	-0.299015
O132	O	1.228396	-0.036198	0.200985
H133	H	0.766022	-0.576444	-0.345940
H134	H	1.266022	-0.076444	0.154060
H135	H	1.234160	-0.288938	-0.907255
H136	H	1.734160	0.211062	-0.407255
O137	O	1.247584	-1.089962	-0.366768
O138	O	1.747584	-0.589962	0.133232
H139	H	1.212252	-1.127634	-0.313280
H140	H	1.712252	-0.627634	0.186720
H141	H	1.050674	-0.472277	-1.106239
H142	H	1.550674	0.027723	-0.606239
O143	O	1.247555	-0.275522	-1.120820
O144	O	1.747555	0.224478	-0.620820
H145	H	1.282720	-0.240400	-1.064251
H146	H	1.782720	0.259600	-0.564251
O147	O	1.298095	-0.966127	-0.299586
O148	O	1.798095	-0.466127	0.200414
H149	H	1.333242	-0.923557	-0.252888
H150	H	1.833242	-0.423557	0.247112
H151	H	1.050636	-0.472338	-0.907171
H152	H	1.550636	0.027662	-0.407171
H153	H	0.444083	-0.289157	-0.628335
H154	H	0.944083	0.210843	-0.128335
H155	H	1.050535	-0.681651	-0.628017
H156	H	1.550535	-0.181651	-0.128017
H157	H	0.443947	-0.472390	-0.384141
H158	H	0.943947	0.027610	0.115859
H159	H	0.717710	-0.238648	-0.695598
H160	H	1.217710	0.261352	-0.195598
O161	O	0.852256	-0.485697	-0.366300
O162	O	1.352256	0.014303	0.133700
H163	H	0.889875	-0.525948	-0.413228
H164	H	1.389875	-0.025948	0.086772
O165	O	0.852405	-0.275787	-0.646080
O166	O	1.352405	0.224213	-0.146080
H167	H	0.916735	-0.284266	-0.634768
H168	H	1.416735	0.215734	-0.134768
O169	O	0.986632	-0.794568	-0.712905
O170	O	1.486632	-0.294568	-0.212905
H171	H	0.995110	-0.730233	-0.701615
H172	H	1.495110	-0.230233	-0.201615
H173	H	1.284682	-0.805457	-0.317300
H174	H	1.784682	-0.305457	0.182700
H175	H	1.234053	-0.681636	-0.384422
H176	H	1.734053	-0.181636	0.115578
