data_functionalizedCrystal
_audit_creation_method	'MofGen! by Chris Wilmer'
_symmetry_space_group_name_H-M	'P1'
_symmetry_Int_Tables_number	1
_symmetry_cell_setting	triclinic
loop_
_symmetry_equiv_pos_as_xyz
  x,y,z
_cell_length_a	15.297327
_cell_length_b	12.827893
_cell_length_c	12.827885
_cell_angle_alpha	90.019272
_cell_angle_beta	99.642715
_cell_angle_gamma	80.293436
loop_
_atom_site_label
_atom_site_type_symbol
_atom_site_fract_x
_atom_site_fract_y
_atom_site_fract_z
Zn1	Zn	-0.359117	-1.525601	-0.662774
Zn2	Zn	-0.510002	-1.495216	-0.518254
Zn3	Zn	-0.359161	-1.350834	-0.488057
Zn4	Zn	-0.509935	-1.320562	-0.692941
O5	O	-0.434554	-1.423053	-0.590506
O6	O	-0.379142	-1.667805	-0.643616
O7	O	-0.490040	-1.476016	-0.368022
O8	O	-0.232910	-1.399403	-0.485971
O9	O	-0.489997	-1.645481	-0.537438
O10	O	-0.232878	-1.527804	-0.614335
O11	O	-0.379217	-1.369939	-0.345836
O12	O	-0.379152	-1.200584	-0.515222
O13	O	-0.489883	-1.347808	-0.835166
O14	O	-0.489925	-1.178343	-0.665749
O15	O	-0.379077	-1.498450	-0.813003
O16	O	-0.636239	-1.446662	-0.566689
O17	O	-0.636189	-1.318345	-0.695031
C18	C	-0.434537	-1.151547	-0.590483
C19	C	-0.434551	-1.035391	-0.590502
C20	C	-0.668948	-1.375950	-0.637433
C21	C	-0.769223	-1.355894	-0.657544
C22	C	-0.434468	-1.423142	-0.863059
C23	C	-0.434431	-1.423180	-0.979205
C24	C	-1.051858	-1.566825	-0.447130
C25	C	-0.957645	-1.585667	-0.428230
C26	C	-0.910535	-1.528226	-0.485557
C27	C	-0.957647	-1.451938	-0.561787
C28	C	-1.051869	-1.433088	-0.580683
C29	C	-0.910546	-1.394489	-0.619110
C30	C	-0.957658	-1.318201	-0.695340
C31	C	-1.051871	-1.299355	-0.714233
C32	C	-1.098981	-1.356796	-0.656906
C33	C	-0.816324	-1.413339	-0.600214
C34	C	-0.816335	-1.279602	-0.733767
C35	C	-0.910548	-1.260760	-0.752667
C36	C	-0.199245	-1.470370	-0.543419
C37	C	-0.098970	-1.490533	-0.523353
C38	C	-0.434572	-1.695620	-0.590531
C39	C	-0.434580	-1.811771	-0.590541
C40	C	-0.489451	-0.972611	-0.664907
C41	C	-0.489467	-0.852558	-0.664929
C42	C	-0.379590	-1.497731	-1.020021
C43	C	-0.379551	-1.497772	-1.140063
C44	C	-0.434575	-1.423038	-0.319001
C45	C	-0.434358	-1.423254	-0.202805
H46	H	-0.777973	-1.475453	-0.538147
H47	H	-0.481315	-1.359428	-1.167670
Cl48	Cl	-1.111096	-1.203445	-0.810061
Cl49	Cl	-0.757118	-1.207379	-0.805833
H50	H	-0.536437	-1.007743	-0.728595
Cl51	Cl	-0.307120	-1.596211	-0.936765
Cl52	Cl	-0.361994	-0.981162	-0.492177
Cl53	Cl	-0.506873	-1.324673	-1.062456
H54	H	-0.332602	-1.561601	-1.175206
H55	H	-1.175698	-1.341461	-0.672293
Cl56	Cl	-0.562042	-0.769272	-0.763279
Cl57	Cl	-0.362012	-0.895049	-0.492178
H58	H	-0.833822	-1.543571	-0.470163
Cl59	Cl	-0.898425	-1.681578	-0.332413
Cl60	Cl	-0.969785	-1.164857	-0.848495
H61	H	-1.090224	-1.613579	-0.400457
