data_functionalizedCrystal
_audit_creation_method	'MofGen! by Chris Wilmer'
_symmetry_space_group_name_H-M	'P1'
_symmetry_Int_Tables_number	1
_symmetry_cell_setting	triclinic
loop_
_symmetry_equiv_pos_as_xyz
  x,y,z
_cell_length_a	17.699083
_cell_length_b	9.065218
_cell_length_c	8.140239
_cell_angle_alpha	90.001686
_cell_angle_beta	89.996690
_cell_angle_gamma	84.149450
loop_
_atom_site_label
_atom_site_type_symbol
_atom_site_fract_x
_atom_site_fract_y
_atom_site_fract_z
O1	O	-1.005529	-0.186555	-0.136376
O2	O	-0.785340	-0.210827	-0.136429
O3	O	-0.899986	0.016086	-0.136398
O4	O	-0.890883	-0.413468	-0.136407
O5	O	-0.899979	0.016089	0.136829
O6	O	-0.785333	-0.210824	0.136798
O7	O	-1.005522	-0.186553	0.136851
Zn8	Zn	-0.895427	-0.198688	0.180205
Zn9	Zn	-0.895435	-0.198691	-0.179783
O10	O	-0.890877	-0.413466	0.136820
C11	C	-0.757133	-0.209956	0.000177
C12	C	-0.673094	-0.207347	0.000157
C13	C	-0.899108	0.071048	0.000212
C14	C	-0.896492	0.234814	0.000204
C15	C	-1.033729	-0.187423	0.000240
C16	C	-1.117768	-0.190033	0.000250
C17	C	-0.625512	-0.340540	0.000155
C18	C	-0.546550	-0.338080	0.000176
C19	C	-0.515171	-0.202425	0.000188
C20	C	-0.562759	-0.069221	0.000195
C21	C	-0.641720	-0.071683	0.000186
C22	C	-0.244319	-0.059289	0.000236
C23	C	-0.165352	-0.056838	0.000241
C24	C	-0.149148	-0.325686	0.000226
C25	C	-0.228109	-0.328148	0.000217
C26	C	-0.275691	-0.194946	0.000233
C27	C	-0.361311	-0.197615	0.000213
C28	C	-0.429552	-0.199754	0.000196
C29	C	-0.891755	-0.468428	0.000206
C30	C	-0.894370	-0.632193	0.000203
N31	N	-0.895427	-0.198685	0.425888
N32	N	-0.895441	-0.198683	-0.425466
H33	H	-0.651054	-0.451006	0.000144
H34	H	-0.283051	0.049173	0.000250
H35	H	-0.537205	0.041232	0.000228
O36	O	-0.102957	-0.455124	-0.000063
C37	C	-0.064973	-0.684198	-0.141583
C38	C	-0.117311	-0.537657	-0.141470
H39	H	-0.076571	-0.750982	-0.255880
H40	H	-0.003132	-0.659233	-0.141673
H41	H	-0.076505	-0.750914	-0.027195
H42	H	-0.105847	-0.470869	-0.255838
H43	H	-0.179135	-0.562727	-0.141294
O44	O	-0.134780	0.074854	0.000481
C45	C	-0.055071	0.233679	0.142103
C46	C	-0.089629	0.084486	0.142021
H47	H	-0.018572	0.241529	0.256543
H48	H	-0.018456	0.241579	0.027837
H49	H	-0.102654	0.328437	0.142037
H50	H	-0.042096	-0.010357	0.142145
H51	H	-0.126264	0.076715	0.256277
O52	O	-0.687835	0.057837	0.000106
C53	C	-0.695579	0.324768	0.000213
C54	C	-0.643268	0.178193	0.000257
H55	H	-0.659568	0.422114	0.000370
H56	H	-0.732932	0.330438	-0.114163
H57	H	-0.732974	0.330255	0.114527
H58	H	-0.605827	0.172608	-0.113980
H59	H	-0.605967	0.172584	0.114709
H60	H	-0.507811	-0.446539	0.000172
H61	H	-0.253653	-0.438612	0.000200
