data_functionalizedCrystal
_audit_creation_method	'MofGen! by Chris Wilmer'
_symmetry_space_group_name_H-M	'P1'
_symmetry_Int_Tables_number	1
_symmetry_cell_setting	triclinic
loop_
_symmetry_equiv_pos_as_xyz
  x,y,z
_cell_length_a	14.971486
_cell_length_b	17.699092
_cell_length_c	13.448316
_cell_angle_alpha	89.995078
_cell_angle_beta	89.998199
_cell_angle_gamma	83.450248
loop_
_atom_site_label
_atom_site_type_symbol
_atom_site_fract_x
_atom_site_fract_y
_atom_site_fract_z
O1	O	1.186612	0.098633	-0.082574
O2	O	1.686612	0.598633	0.417426
O3	O	0.926171	0.110444	-0.082600
O4	O	1.426171	0.610444	0.417400
O5	O	1.063746	-0.005632	-0.082584
O6	O	1.563746	0.494368	0.417416
O7	O	1.049037	0.214709	-0.082590
O8	O	1.549037	0.714709	0.417410
O9	O	1.063729	-0.005639	0.082800
O10	O	1.563729	0.494361	0.582800
O11	O	0.926154	0.110437	0.082783
O12	O	1.426154	0.610437	0.582783
O13	O	1.186595	0.098626	0.082810
O14	O	1.686595	0.598626	0.582810
Cu15	Cu	1.056373	0.104531	0.097898
Cu16	Cu	1.556373	0.604531	0.597898
Cu17	Cu	1.056393	0.104539	-0.097688
Cu18	Cu	1.556393	0.604539	0.402312
O19	O	1.049020	0.214702	0.082794
O20	O	1.549020	0.714702	0.582794
C21	C	0.892840	0.109913	0.000088
C22	C	1.392840	0.609913	0.500088
C23	C	0.793548	0.108330	0.000078
C24	C	1.293548	0.608330	0.500078
C25	C	0.736091	0.176521	0.000077
C26	C	1.236091	0.676521	0.500077
C27	C	0.642797	0.175030	0.000092
C28	C	1.142797	0.675030	0.500092
C29	C	0.606961	0.105345	0.000101
C30	C	1.106961	0.605345	0.500101
C31	C	0.664426	0.037148	0.000104
C32	C	1.164426	0.537148	0.500104
C33	C	0.757719	0.038641	0.000096
C34	C	1.257719	0.538641	0.500096
C35	C	0.469974	0.034042	0.000118
C36	C	0.969974	0.534042	0.500118
C37	C	0.376675	0.032549	0.000124
C38	C	0.876675	0.532549	0.500124
C39	C	0.355052	0.170431	0.000114
C40	C	0.855052	0.670431	0.500114
C41	C	0.448345	0.171923	0.000106
C42	C	0.948345	0.671923	0.500106
C43	C	0.505803	0.103726	0.000108
C44	C	1.005803	0.603726	0.500108
C45	C	1.063209	-0.033834	0.000106
C46	C	1.563209	0.466166	0.500106
C47	C	1.061624	-0.117855	0.000102
C48	C	1.561624	0.382145	0.500102
C49	C	1.060891	-0.157321	-0.090050
C50	C	1.560891	0.342679	0.409950
C51	C	1.059396	-0.236267	-0.090052
C52	C	1.559396	0.263733	0.409948
C53	C	1.058641	-0.275748	0.000100
C54	C	1.558641	0.224252	0.500100
C55	C	1.059371	-0.236277	0.090259
C56	C	1.559371	0.263723	0.590259
C57	C	1.060860	-0.157331	0.090259
C58	C	1.560860	0.342669	0.590259
C59	C	1.053367	-0.554657	0.090260
C60	C	1.553367	-0.054657	0.590260
C61	C	1.051881	-0.633608	0.090252
C62	C	1.551881	-0.133608	0.590252
C63	C	1.051904	-0.633593	-0.090051
C64	C	1.551904	-0.133593	0.409949
C65	C	1.053392	-0.554647	-0.090051
C66	C	1.553392	-0.054647	0.409949
C67	C	1.054118	-0.515182	0.000107
C68	C	1.554118	-0.015182	0.500107
C69	C	1.055737	-0.429579	0.000108
C70	C	1.555737	0.070421	0.500108
C71	C	1.057028	-0.361350	0.000101
C72	C	1.557028	0.138650	0.500101
C73	C	1.219926	0.099158	0.000119
C74	C	1.719926	0.599158	0.500119
C75	C	1.319218	0.100741	0.000123
C76	C	1.819218	0.600741	0.500123
C77	C	1.049557	0.242904	0.000101
C78	C	1.549557	0.742904	0.500101
C79	C	1.051142	0.326926	0.000099
C80	C	1.551142	0.826926	0.500099
N81	N	1.056365	0.104524	0.235462
N82	N	1.556365	0.604524	0.735462
N83	N	1.056408	0.104540	-0.235252
N84	N	1.556408	0.604540	0.264748
C85	C	1.117302	0.053147	0.287510
C86	C	1.617302	0.553147	0.787510
C87	C	1.117307	0.053146	0.391613
C88	C	1.617307	0.553146	0.891613
C89	C	1.056380	0.104527	0.443667
C90	C	1.556380	0.604527	0.943667
C91	C	0.995437	0.155907	0.391612
C92	C	1.495437	0.655907	0.891612
C93	C	0.995427	0.155904	0.287510
C94	C	1.495427	0.655904	0.787510
C95	C	0.995461	0.155912	0.608592
C96	C	1.495461	0.655912	1.108592
C97	C	0.995471	0.155917	0.712700
C98	C	1.495471	0.655917	1.212700
C99	C	1.117341	0.053155	0.712694
C100	C	1.617341	0.553155	1.212694
C101	C	1.117332	0.053151	0.608593
C102	C	1.617332	0.553151	1.108593
C103	C	1.056390	0.104533	0.556545
C104	C	1.556390	0.604533	1.056545
H105	H	0.477518	0.228666	0.000090
H106	H	0.977518	0.728666	0.500090
H107	H	1.054011	-0.522506	-0.163462
H108	H	1.554011	-0.022506	0.336538
F109	F	1.054128	-0.512664	0.186214
F110	F	1.554128	-0.012664	0.686214
F111	F	1.182162	-0.001536	0.447006
F112	F	1.682162	0.498464	0.947006
F113	F	0.338539	-0.041617	0.000158
F114	F	0.838539	0.458383	0.500158
H115	H	1.058751	-0.268428	0.163662
H116	H	1.558751	0.231572	0.663662
H117	H	1.061511	-0.125182	-0.163462
H118	H	1.561511	0.374818	0.336538
H119	H	0.635242	-0.019590	0.000125
H120	H	1.135242	0.480410	0.500125
F121	F	1.051076	-0.675625	0.186209
F122	F	1.551076	-0.175625	0.686209
H123	H	0.945824	0.197740	0.434000
H124	H	1.445824	0.697740	0.934000
F125	F	1.182182	-0.001529	0.553193
F126	F	1.682182	0.498471	1.053193
H127	H	1.166920	0.011310	0.245134
H128	H	1.666920	0.511310	0.745134
F129	F	1.058617	-0.278266	-0.186004
F130	F	1.558617	0.221734	0.313996
H131	H	1.061444	-0.125198	0.163670
H132	H	1.561444	0.374802	0.663670
H133	H	0.516755	-0.021492	0.000121
H134	H	1.016755	0.478508	0.500121
F135	F	1.182201	-0.001527	0.768091
F136	F	1.682201	0.498473	1.268091
F137	F	1.051128	-0.675600	-0.186007
F138	F	1.551128	-0.175600	0.313993
F139	F	0.930622	0.210603	0.768092
F140	F	1.430622	0.710603	1.268092
H141	H	0.945805	0.197740	0.245134
H142	H	1.445805	0.697740	0.745134
F143	F	0.774220	0.250690	0.000062
F144	F	1.274220	0.750690	0.500062
F145	F	0.581650	0.247609	0.000087
F146	F	1.081650	0.747609	0.500087
H147	H	0.804500	-0.016888	0.000096
H148	H	1.304500	0.483112	0.500096
H149	H	0.308265	0.225959	0.000117
H150	H	0.808265	0.725959	0.500117
H151	H	0.945833	0.197750	0.566218
H152	H	1.445833	0.697750	1.066218
