data_functionalizedCrystal
_audit_creation_method	'MofGen! by Chris Wilmer'
_symmetry_space_group_name_H-M	'P1'
_symmetry_Int_Tables_number	1
_symmetry_cell_setting	triclinic
loop_
_symmetry_equiv_pos_as_xyz
  x,y,z
_cell_length_a	14.853566
_cell_length_b	14.853576
_cell_length_c	9.130313
_cell_angle_alpha	90.001717
_cell_angle_beta	90.000343
_cell_angle_gamma	83.636449
loop_
_atom_site_label
_atom_site_type_symbol
_atom_site_fract_x
_atom_site_fract_y
_atom_site_fract_z
O1	O	1.196368	0.117696	0.121699
O2	O	0.933908	0.131718	0.121723
O3	O	1.072145	-0.006522	0.121705
O4	O	1.058131	0.255936	0.121717
O5	O	1.072136	-0.006522	-0.121894
O6	O	0.933899	0.131719	-0.121876
O7	O	1.196359	0.117696	-0.121900
Cu8	Cu	1.065128	0.124708	-0.144130
Cu9	Cu	1.065139	0.124707	0.143953
O10	O	1.058122	0.255937	-0.121882
C11	C	0.900315	0.131084	-0.000074
C12	C	0.800231	0.129180	-0.000065
C13	C	1.071504	-0.040110	-0.000093
C14	C	1.069597	-0.140194	-0.000088
C15	C	1.068704	-0.187209	0.132704
C16	C	1.068705	-0.187222	-0.132876
C17	C	1.066918	-0.281256	-0.132877
C18	C	1.066026	-0.328271	-0.000084
C19	C	1.066920	-0.281252	0.132708
C20	C	1.066033	-0.328283	-0.265667
C21	C	1.064247	-0.422323	-0.265672
C22	C	1.063348	-0.469339	-0.132878
C23	C	1.064241	-0.422314	-0.000080
C24	C	1.063349	-0.469329	0.132712
C25	C	1.064236	-0.422305	0.265512
C26	C	1.066021	-0.328268	0.265502
C27	C	1.061563	-0.563376	-0.132869
C28	C	1.061565	-0.563373	0.132716
C29	C	0.377051	0.121129	0.132695
C30	C	0.377063	0.121130	-0.132886
C31	C	0.471097	0.122918	-0.132881
C32	C	0.518112	0.123812	-0.000086
C33	C	0.471094	0.122919	0.132704
C34	C	0.518121	0.123820	-0.265669
C35	C	0.612161	0.125608	-0.265670
C36	C	0.659179	0.126496	-0.132873
C37	C	0.612155	0.125603	-0.000078
C38	C	0.659170	0.126497	0.132717
C39	C	0.612149	0.125597	0.265514
C40	C	0.518112	0.123808	0.265500
C41	C	0.753216	0.128286	-0.132859
C42	C	0.753213	0.128287	0.132726
C43	C	1.229952	0.118331	-0.000100
C44	C	1.330036	0.120235	-0.000100
C45	C	1.058763	0.289525	-0.000081
C46	C	1.060670	0.389608	-0.000076
N47	N	1.065127	0.124708	-0.346753
C48	C	1.126364	0.063509	-0.576751
C49	C	1.126357	0.063515	-0.423414
C50	C	1.003907	0.185905	-0.423437
C51	C	1.003919	0.185903	-0.576771
C52	C	1.187592	0.002307	-0.653404
C53	C	1.248814	-0.058890	-0.576731
C54	C	1.248806	-0.058884	-0.423394
C55	C	1.187577	0.002318	-0.346731
N56	N	1.065147	0.124700	0.346576
H57	H	1.060831	-0.601645	0.240854
O58	O	0.326334	0.120154	0.275913
H59	H	0.352338	0.059093	0.339571
H60	H	0.479818	0.123073	0.373616
O61	O	1.187565	0.002321	-0.181344
H62	H	1.254926	0.016859	-0.140899
O63	O	1.063269	-0.473016	0.408739
H64	H	1.061876	-0.546304	0.386420
H65	H	1.066766	-0.289997	-0.373779
H66	H	1.060844	-0.601659	-0.240992
O67	O	1.069677	-0.136520	-0.276098
H68	H	1.009091	-0.085723	-0.282461
H69	H	1.069423	-0.148917	0.240826
H70	H	1.066747	-0.289973	0.373621
H71	H	0.791496	0.129028	-0.240981
H72	H	1.063524	-0.460602	-0.373805
O73	O	0.803922	0.129255	0.275956
H74	H	0.755424	0.128335	0.368287
O75	O	0.937848	0.251892	-0.340760
H76	H	0.948113	0.241601	-0.221256
O77	O	1.187606	0.002298	-0.818788
H78	H	1.134747	0.055128	-0.859227
O79	O	1.314861	-0.124889	-0.659407
H80	H	1.303296	-0.195191	-0.629968
O81	O	1.314827	-0.124888	-0.340686
H82	H	1.385124	-0.113289	-0.370105
H83	H	0.650440	0.126331	0.373636
H84	H	0.954071	0.235731	-0.639198
O85	O	0.326575	0.120335	-0.276332
H86	H	0.336891	0.182143	-0.339670
O87	O	0.467306	0.123733	-0.408884
H88	H	0.393978	0.122645	-0.386574
O89	O	0.662874	0.126596	-0.408890
H90	H	0.614381	0.125677	-0.501230
