data_functionalizedCrystal
_audit_creation_method	'MofGen! by Chris Wilmer'
_symmetry_space_group_name_H-M	'P1'
_symmetry_Int_Tables_number	1
_symmetry_cell_setting	triclinic
loop_
_symmetry_equiv_pos_as_xyz
  x,y,z
_cell_length_a	18.215407
_cell_length_b	18.215405
_cell_length_c	21.395355
_cell_angle_alpha	90.019851
_cell_angle_beta	90.021756
_cell_angle_gamma	90.022344
loop_
_atom_site_label
_atom_site_type_symbol
_atom_site_fract_x
_atom_site_fract_y
_atom_site_fract_z
Zn1	Zn	1.125107	-0.293119	0.354209
Zn2	Zn	1.375107	-0.043119	0.604209
Zn3	Zn	1.625107	0.206881	0.854209
Zn4	Zn	1.875107	0.456881	1.104209
Zn5	Zn	1.125005	-0.416168	0.249429
Zn6	Zn	1.375005	-0.166168	0.499429
Zn7	Zn	1.625005	0.083832	0.749429
Zn8	Zn	1.875005	0.333832	0.999429
Zn9	Zn	1.002029	-0.293114	0.249451
Zn10	Zn	1.252029	-0.043114	0.499451
Zn11	Zn	1.502029	0.206886	0.749451
Zn12	Zn	1.752029	0.456886	0.999451
Zn13	Zn	1.002006	-0.416143	0.354174
Zn14	Zn	1.252006	-0.166143	0.604174
Zn15	Zn	1.502006	0.083857	0.854174
Zn16	Zn	1.752006	0.333857	1.104174
O17	O	1.063537	-0.354636	0.301816
O18	O	1.313537	-0.104636	0.551816
O19	O	1.563537	0.145364	0.801816
O20	O	1.813537	0.395364	1.051816
O21	O	1.228078	-0.309454	0.340315
O22	O	1.478078	-0.059454	0.590315
O23	O	1.728078	0.190546	0.840315
O24	O	1.978078	0.440546	1.090315
O25	O	1.108659	-0.399852	0.161754
O26	O	1.358659	-0.149852	0.411754
O27	O	1.608659	0.100148	0.661754
O28	O	1.858659	0.350148	0.911754
O29	O	1.018408	-0.190131	0.263371
O30	O	1.268408	0.059869	0.513371
O31	O	1.518408	0.309869	0.763371
O32	O	1.768408	0.559869	1.013371
O33	O	1.228003	-0.399858	0.263334
O34	O	1.478003	-0.149858	0.513334
O35	O	1.728003	0.100142	0.763334
O36	O	1.978003	0.350142	1.013334
O37	O	1.108833	-0.190134	0.340336
O38	O	1.358833	0.059866	0.590336
O39	O	1.608833	0.309866	0.840336
O40	O	1.858833	0.559866	1.090336
O41	O	1.018310	-0.309445	0.161770
O42	O	1.268310	-0.059445	0.411770
O43	O	1.518310	0.190555	0.661770
O44	O	1.768310	0.440555	0.911770
O45	O	0.899042	-0.309422	0.263337
O46	O	1.149042	-0.059422	0.513337
O47	O	1.399042	0.190578	0.763337
O48	O	1.649042	0.440578	1.013337
O49	O	1.018368	-0.399816	0.441857
O50	O	1.268368	-0.149816	0.691857
O51	O	1.518368	0.100184	0.941857
O52	O	1.768368	0.350184	1.191857
O53	O	0.899024	-0.399811	0.340277
O54	O	1.149024	-0.149811	0.590277
O55	O	1.399024	0.100189	0.840277
O56	O	1.649024	0.350189	1.090277
O57	O	1.108810	-0.309431	0.441882
O58	O	1.358810	-0.059431	0.691882
O59	O	1.608810	0.190569	0.941882
O60	O	1.858810	0.440569	1.191882
O61	O	1.108636	-0.519149	0.263300
O62	O	1.358636	-0.269149	0.513300
O63	O	1.608636	-0.019149	0.763300
O64	O	1.858636	0.230851	1.013300
O65	O	1.018269	-0.519131	0.340256
O66	O	1.268269	-0.269131	0.590256
O67	O	1.518269	-0.019131	0.840256
O68	O	1.768269	0.230869	1.090256
C69	C	0.872331	-0.354614	0.301806
C70	C	1.122331	-0.104614	0.551806
C71	C	1.372331	0.145386	0.801806
C72	C	1.622331	0.395386	1.051806
C73	C	0.790532	-0.354622	0.301817
C74	C	1.040532	-0.104622	0.551817
C75	C	1.290532	0.145378	0.801817
C76	C	1.540532	0.395378	1.051817
C77	C	0.525484	-0.401779	0.341823
C78	C	0.775484	-0.151779	0.591823
C79	C	1.025484	0.098221	0.841823
C80	C	1.275484	0.348221	1.091823
C81	C	0.602343	-0.401773	0.341820
C82	C	0.852343	-0.151773	0.591820
C83	C	1.102343	0.098227	0.841820
C84	C	1.352343	0.348227	1.091820
C85	C	0.602331	-0.307510	0.261819
C86	C	0.852331	-0.057510	0.511819
C87	C	1.102331	0.192490	0.761819
C88	C	1.352331	0.442490	1.011819
C89	C	0.525473	-0.307520	0.261819
C90	C	0.775473	-0.057520	0.511819
C91	C	1.025473	0.192480	0.761819
C92	C	1.275473	0.442480	1.011819
C93	C	0.487052	-0.354654	0.301825
C94	C	0.737052	-0.104654	0.551825
C95	C	0.987052	0.145346	0.801825
C96	C	1.237052	0.395346	1.051825
C97	C	0.640768	-0.354637	0.301822
C98	C	0.890768	-0.104637	0.551822
C99	C	1.140768	0.145363	0.801822
C100	C	1.390768	0.395363	1.051822
C101	C	0.724102	-0.354630	0.301818
C102	C	0.974102	-0.104630	0.551818
C103	C	1.224102	0.145370	0.801818
C104	C	1.474102	0.395370	1.051818
C105	C	0.403713	-0.354662	0.301828
C106	C	0.653713	-0.104662	0.551828
C107	C	0.903713	0.145338	0.801828
C108	C	1.153713	0.395338	1.051828
C109	C	1.063459	-0.545842	0.301786
C110	C	1.313459	-0.295842	0.551786
C111	C	1.563459	-0.045842	0.801786
C112	C	1.813459	0.204158	1.051786
C113	C	1.063493	-0.627641	0.301794
C114	C	1.313493	-0.377641	0.551794
C115	C	1.563493	-0.127641	0.801794
C116	C	1.813493	0.122359	1.051794
C117	C	1.110658	-0.815820	0.261796
C118	C	1.360658	-0.565820	0.511796
C119	C	1.610658	-0.315820	0.761796
C120	C	1.860658	-0.065820	1.011796
C121	C	1.110691	-0.892679	0.261812
C122	C	1.360691	-0.642679	0.511812
C123	C	1.610691	-0.392679	0.761812
C124	C	1.860691	-0.142679	1.011812
C125	C	1.016510	-0.892700	0.341880
C126	C	1.266510	-0.642700	0.591880
C127	C	1.516510	-0.392700	0.841880
C128	C	1.766510	-0.142700	1.091880
C129	C	1.016481	-0.815843	0.341868
C130	C	1.266481	-0.565843	0.591868
C131	C	1.516481	-0.315843	0.841868
C132	C	1.766481	-0.065843	1.091868
C133	C	1.063554	-0.777405	0.301822
C134	C	1.313554	-0.527405	0.551822
C135	C	1.563554	-0.277405	0.801822
C136	C	1.813554	-0.027405	1.051822
C137	C	1.063616	-0.931121	0.301850
C138	C	1.313616	-0.681121	0.551850
C139	C	1.563616	-0.431121	0.801850
C140	C	1.813616	-0.181121	1.051850
C141	C	1.063651	-1.014454	0.301867
C142	C	1.313651	-0.764454	0.551867
C143	C	1.563651	-0.514454	0.801867
C144	C	1.813651	-0.264454	1.051867
C145	C	1.063520	-0.694066	0.301806
C146	C	1.313520	-0.444066	0.551806
C147	C	1.563520	-0.194066	0.801806
C148	C	1.813520	0.055934	1.051806
C149	C	1.255490	-0.354659	0.301826
C150	C	1.505490	-0.104659	0.551826
C151	C	1.755490	0.145341	0.801826
C152	C	2.005490	0.395341	1.051826
C153	C	1.337289	-0.354669	0.301830
C154	C	1.587289	-0.104669	0.551830
C155	C	1.837289	0.145331	0.801830
C156	C	2.087289	0.395331	1.051830
C157	C	1.063598	-0.354621	0.465239
C158	C	1.313598	-0.104621	0.715239
C159	C	1.563598	0.145379	0.965239
C160	C	1.813598	0.395379	1.215239
C161	C	1.063624	-0.354615	0.534880
C162	C	1.313624	-0.104615	0.784880
C163	C	1.563624	0.145385	1.034880
C164	C	1.813624	0.395385	1.284880
C165	C	1.063635	-0.162683	0.301860
C166	C	1.313635	0.087317	0.551860
C167	C	1.563635	0.337317	0.801860
C168	C	1.813635	0.587317	1.051860
C169	C	1.063677	-0.080884	0.301878
C170	C	1.313677	0.169116	0.551878
C171	C	1.563677	0.419116	0.801878
C172	C	1.813677	0.669116	1.051878
C173	C	1.063518	-0.354598	0.139028
C174	C	1.313518	-0.104598	0.389028
C175	C	1.563518	0.145402	0.639028
C176	C	1.813518	0.395402	0.889028
C177	C	1.063635	-0.354397	0.069387
C178	C	1.313635	-0.104397	0.319387
C179	C	1.563635	0.145603	0.569387
C180	C	1.813635	0.395603	0.819387
C181	C	1.110715	-0.307549	0.567608
C182	C	1.360715	-0.057549	0.817608
C183	C	1.610715	0.192451	1.067608
C184	C	1.860715	0.442451	1.317608
C185	C	1.110714	-0.307518	0.633043
C186	C	1.360714	-0.057518	0.883043
C187	C	1.610714	0.192482	1.133043
C188	C	1.860714	0.442482	1.383043
C189	C	1.063630	-0.354565	0.665749
C190	C	1.313630	-0.104565	0.915749
C191	C	1.563630	0.145435	1.165749
C192	C	1.813630	0.395435	1.415749
C193	C	1.016529	-0.401634	0.633013
C194	C	1.266529	-0.151634	0.883013
C195	C	1.516529	0.098366	1.133013
C196	C	1.766529	0.348366	1.383013
C197	C	1.016526	-0.401659	0.567579
C198	C	1.266526	-0.151659	0.817579
C199	C	1.516526	0.098341	1.067579
C200	C	1.766526	0.348341	1.317579
C201	C	1.057792	-0.420829	0.769413
C202	C	1.307792	-0.170829	1.019413
C203	C	1.557792	0.079171	1.269413
C204	C	1.807792	0.329171	1.519413
C205	C	1.057800	-0.420805	0.834846
C206	C	1.307800	-0.170805	1.084846
C207	C	1.557800	0.079195	1.334846
C208	C	1.807800	0.329195	1.584846
C209	C	1.063634	-0.354487	0.867570
C210	C	1.313634	-0.104487	1.117570
C211	C	1.563634	0.145513	1.367570
C212	C	1.813634	0.395513	1.617570
C213	C	1.069476	-0.288191	0.834852
C214	C	1.319476	-0.038191	1.084852
C215	C	1.569476	0.211809	1.334852
C216	C	1.819476	0.461809	1.584852
C217	C	1.069473	-0.288216	0.769418
C218	C	1.319473	-0.038216	1.019418
C219	C	1.569473	0.211784	1.269418
C220	C	1.819473	0.461784	1.519418
C221	C	1.063627	-0.354542	0.736701
C222	C	1.313627	-0.104542	0.986701
C223	C	1.563627	0.145458	1.236701
C224	C	1.813627	0.395458	1.486701
C225	C	1.110727	-0.307383	0.971250
C226	C	1.360727	-0.057383	1.221250
C227	C	1.610727	0.192617	1.471250
C228	C	1.860727	0.442617	1.721250
C229	C	1.110721	-0.307350	1.036686
C230	C	1.360721	-0.057350	1.286686
C231	C	1.610721	0.192650	1.536686
C232	C	1.860721	0.442650	1.786686
C233	C	1.016540	-0.401473	1.036655
C234	C	1.266540	-0.151473	1.286655
C235	C	1.516540	0.098527	1.536655
C236	C	1.766540	0.348527	1.786655
C237	C	1.016542	-0.401499	0.971220
C238	C	1.266542	-0.151499	1.221220
C239	C	1.516542	0.098501	1.471220
C240	C	1.766542	0.348501	1.721220
C241	C	1.063639	-0.354455	0.938521
C242	C	1.313639	-0.104455	1.188521
C243	C	1.563639	0.145545	1.438521
C244	C	1.813639	0.395545	1.688521
H245	H	0.633622	-0.269134	0.229249
H246	H	0.883622	-0.019134	0.479249
H247	H	1.133622	0.230866	0.729249
H248	H	1.383622	0.480866	0.979249
H249	H	1.052844	-0.474819	0.742775
H250	H	1.302844	-0.224819	0.992775
H251	H	1.552844	0.025181	1.242775
H252	H	1.802844	0.275181	1.492775
H253	H	1.074228	-0.234189	0.861494
H254	H	1.324228	0.015811	1.111494
H255	H	1.574228	0.265811	1.361494
H256	H	1.824228	0.515811	1.611494
H257	H	0.978124	-0.784563	0.374464
H258	H	1.228124	-0.534563	0.624464
H259	H	1.478124	-0.284563	0.874464
H260	H	1.728124	-0.034563	1.124464
N261	N	0.965733	-0.934155	0.385066
N262	N	1.215733	-0.684155	0.635066
N263	N	1.465733	-0.434155	0.885066
N264	N	1.715733	-0.184155	1.135066
H265	H	0.995631	-0.966005	0.414130
H266	H	1.245631	-0.716005	0.664130
H267	H	1.495631	-0.466005	0.914130
H268	H	1.745631	-0.216005	1.164130
H269	H	0.931666	-0.966040	0.359536
H270	H	1.181666	-0.716040	0.609536
H271	H	1.431666	-0.466040	0.859536
H272	H	1.681666	-0.216040	1.109536
H273	H	0.978190	-0.439937	0.659646
H274	H	1.228190	-0.189937	0.909646
H275	H	1.478190	0.060063	1.159646
H276	H	1.728190	0.310063	1.409646
H277	H	1.149065	-0.269242	0.540988
H278	H	1.399065	-0.019242	0.790988
H279	H	1.649065	0.230758	1.040988
H280	H	1.899065	0.480758	1.290988
N281	N	1.161436	-0.774358	0.218616
N282	N	1.411436	-0.524358	0.468616
N283	N	1.661436	-0.274358	0.718616
N284	N	1.911436	-0.024358	0.968616
H285	H	1.131538	-0.742511	0.189550
H286	H	1.381538	-0.492511	0.439550
H287	H	1.631538	-0.242511	0.689550
H288	H	1.881538	0.007489	0.939550
H289	H	1.191273	-0.810404	0.193306
H290	H	1.441273	-0.560404	0.443306
H291	H	1.691273	-0.310404	0.693306
H292	H	1.941273	-0.060404	0.943306
N293	N	1.161507	-0.256752	0.668353
N294	N	1.411507	-0.006752	0.918353
N295	N	1.661507	0.243248	1.168353
N296	N	1.911507	0.493248	1.418353
H297	H	1.191341	-0.226954	0.637709
H298	H	1.441341	0.023046	0.887709
H299	H	1.691341	0.273046	1.137709
H300	H	1.941341	0.523046	1.387709
H301	H	1.195545	-0.286709	0.695510
H302	H	1.445545	-0.036709	0.945510
H303	H	1.695545	0.213291	1.195510
H304	H	1.945545	0.463291	1.445510
H305	H	0.494181	-0.269144	0.229245
H306	H	0.744181	-0.019144	0.479245
H307	H	0.994181	0.230856	0.729245
H308	H	1.244181	0.480856	0.979245
N309	N	1.161494	-0.934106	0.218635
N310	N	1.411494	-0.684106	0.468635
N311	N	1.661494	-0.434106	0.718635
N312	N	1.911494	-0.184106	0.968635
H313	H	1.131615	-0.966037	0.189583
H314	H	1.381615	-0.716037	0.439583
H315	H	1.631615	-0.466037	0.689583
H316	H	1.881615	-0.216037	0.939583
H317	H	1.195589	-0.965908	0.244170
H318	H	1.445589	-0.715908	0.494170
H319	H	1.695589	-0.465908	0.744170
H320	H	1.945589	-0.215908	0.994170
H321	H	1.149067	-0.269020	1.063332
H322	H	1.399067	-0.019020	1.313332
H323	H	1.649067	0.230980	1.563332
H324	H	1.899067	0.480980	1.813332
H325	H	0.978195	-0.439772	1.063283
H326	H	1.228195	-0.189772	1.313283
H327	H	1.478195	0.060228	1.563283
H328	H	1.728195	0.310228	1.813283
H329	H	1.074228	-0.234236	0.742782
H330	H	1.324228	0.015764	0.992782
H331	H	1.574228	0.265764	1.242782
H332	H	1.824228	0.515764	1.492782
N333	N	0.484049	-0.452624	0.384965
N334	N	0.734049	-0.202624	0.634965
N335	N	0.984049	0.047376	0.884965
N336	N	1.234049	0.297376	1.134965
H337	H	0.452141	-0.486688	0.359450
H338	H	0.702141	-0.236688	0.609450
H339	H	0.952141	0.013312	0.859450
H340	H	1.202141	0.263312	1.109450
H341	H	0.452223	-0.422721	0.414040
H342	H	0.702223	-0.172721	0.664040
H343	H	0.952223	0.077279	0.914040
H344	H	1.202223	0.327279	1.164040
N345	N	0.643790	-0.452605	0.384961
N346	N	0.893790	-0.202605	0.634961
N347	N	1.143790	0.047395	0.884961
N348	N	1.393790	0.297395	1.134961
H349	H	0.630440	-0.441249	0.429745
H350	H	0.880440	-0.191249	0.679745
H351	H	1.130440	0.058751	0.929745
H352	H	1.380440	0.308751	1.179745
H353	H	0.698297	-0.445429	0.378838
H354	H	0.948297	-0.195429	0.628838
H355	H	1.198297	0.054571	0.878838
H356	H	1.448297	0.304571	1.128838
H357	H	1.149072	-0.269073	0.944625
H358	H	1.399072	-0.019073	1.194625
H359	H	1.649072	0.230927	1.444625
H360	H	1.899072	0.480927	1.694625
H361	H	0.978200	-0.439829	0.944573
H362	H	1.228200	-0.189829	1.194573
H363	H	1.478200	0.060171	1.444573
H364	H	1.728200	0.310171	1.694573
N365	N	1.051505	-0.492305	0.870132
N366	N	1.301505	-0.242305	1.120132
N367	N	1.551505	0.007695	1.370132
N368	N	1.801505	0.257695	1.620132
H369	H	1.047799	-0.534320	0.839474
H370	H	1.297799	-0.284320	1.089474
H371	H	1.547799	-0.034320	1.339474
H372	H	1.797799	0.215680	1.589474
H373	H	1.006163	-0.491227	0.897269
H374	H	1.256163	-0.241227	1.147269
H375	H	1.506163	0.008773	1.397269
H376	H	1.756163	0.258773	1.647269
N377	N	0.965723	-0.452414	0.532276
N378	N	1.215723	-0.202414	0.782276
N379	N	1.465723	0.047586	1.032276
N380	N	1.715723	0.297586	1.282276
H381	H	0.935888	-0.482209	0.562921
H382	H	1.185888	-0.232209	0.812921
H383	H	1.435888	0.017791	1.062921
H384	H	1.685888	0.267791	1.312921
H385	H	0.995651	-0.486490	0.505132
H386	H	1.245651	-0.236490	0.755132
H387	H	1.495651	0.013510	1.005132
H388	H	1.745651	0.263510	1.255132
