data_functionalizedCrystal
_audit_creation_method	'MofGen! by Chris Wilmer'
_symmetry_space_group_name_H-M	'P1'
_symmetry_Int_Tables_number	1
_symmetry_cell_setting	triclinic
loop_
_symmetry_equiv_pos_as_xyz
  x,y,z
_cell_length_a	12.759395
_cell_length_b	16.120484
_cell_length_c	12.759387
_cell_angle_alpha	87.136424
_cell_angle_beta	90.020509
_cell_angle_gamma	92.926975
loop_
_atom_site_label
_atom_site_type_symbol
_atom_site_fract_x
_atom_site_fract_y
_atom_site_fract_z
Zn1	Zn	1.584987	-0.331828	0.615167
Zn2	Zn	1.575935	-0.471265	0.448379
Zn3	Zn	1.409282	-0.331874	0.439506
Zn4	Zn	1.400339	-0.471205	0.624015
O5	O	1.492636	-0.401543	0.531767
O6	O	1.730807	-0.350331	0.593052
O7	O	1.553783	-0.452818	0.300184
O8	O	1.440121	-0.215202	0.455392
O9	O	1.724157	-0.452774	0.470514
O10	O	1.569211	-0.215169	0.584449
O11	O	1.431344	-0.350408	0.293665
O12	O	1.261075	-0.350350	0.463971
O13	O	1.424878	-0.452673	0.769859
O14	O	1.254504	-0.452717	0.599529
O15	O	1.560539	-0.350273	0.763359
O16	O	1.545111	-0.587922	0.479094
O17	O	1.416101	-0.587879	0.608132
C18	C	1.219669	-0.401533	0.531748
C19	C	1.102891	-0.401549	0.531766
C20	C	1.096077	-0.508315	0.672716
C21	C	1.037808	-0.561705	0.743194
C22	C	0.928086	-0.561715	0.743207
C23	C	0.876630	-0.508328	0.672737
C24	C	0.934899	-0.454938	0.602259
C25	C	1.044623	-0.454935	0.602251
C26	C	0.941713	-0.348169	0.461316
C27	C	1.051436	-0.348161	0.461296
C28	C	0.890258	-0.294781	0.390846
C29	C	0.948526	-0.241394	0.320361
C30	C	1.058255	-0.241387	0.320350
C31	C	1.109704	-0.294771	0.390818
C32	C	1.478681	-0.618150	0.545559
C33	C	1.472808	-0.710816	0.551495
C34	C	1.462090	-0.880477	0.562353
C35	C	1.523370	-0.921768	0.501198
C36	C	1.517406	-1.016173	0.507239
C37	C	1.468052	-0.786063	0.556313
C38	C	1.766669	-0.401554	0.531786
C39	C	1.883445	-0.401558	0.531794
C40	C	1.492720	-0.401461	0.805795
C41	C	1.492756	-0.401426	0.922570
C42	C	1.506673	-0.184090	0.517944
C43	C	1.512655	-0.091424	0.512053
C44	C	1.492616	-0.401564	0.258801
C45	C	1.492798	-0.401364	0.142012
C46	C	1.634028	-0.294805	0.915821
C47	C	1.704680	-0.241481	0.967306
C48	C	1.704707	-0.241451	1.077026
C49	C	1.634074	-0.294748	1.135263
C50	C	1.563422	-0.348071	1.083777
C51	C	1.563404	-0.348098	0.974055
C52	C	1.422147	-0.454688	1.090526
C53	C	1.422123	-0.454723	0.980807
C54	C	1.351514	-0.507985	1.148763
C55	C	1.280866	-0.561313	1.097278
C56	C	1.280842	-0.561342	0.987551
C57	C	1.351472	-0.508047	0.929321
H58	H	1.079716	-0.605170	0.800571
C59	C	0.769566	-0.294795	0.390856
H60	H	0.742231	-0.334244	0.442913
H61	H	0.748208	-0.241017	0.405718
H62	H	0.743800	-0.309150	0.323935
C63	C	0.863991	-0.620405	0.820774
H64	H	0.910346	-0.652191	0.862752
H65	H	0.823282	-0.588528	0.864575
H66	H	0.818812	-0.656707	0.782855
H67	H	0.787289	-0.508334	0.672763
C68	C	0.891925	-0.182676	0.242856
H69	H	0.818234	-0.190329	0.252958
H70	H	0.913523	-0.126675	0.254780
H71	H	0.909085	-0.194813	0.173004
C72	C	1.122342	-0.182655	0.242825
H73	H	1.075979	-0.150868	0.200859
H74	H	1.167502	-0.146369	0.280779
H75	H	1.163070	-0.214499	0.198992
H76	H	1.199045	-0.294773	0.390812
H77	H	1.634094	-0.294711	1.224602
C78	C	1.600263	-0.873749	0.424308
H79	H	1.594217	-0.815678	0.430264
H80	H	1.669980	-0.887895	0.440602
H81	H	1.584002	-0.888039	0.354607
H82	H	1.634022	-0.294832	0.826481
C83	C	1.385163	-0.928496	0.639197
H84	H	1.391192	-0.986566	0.633215
H85	H	1.401372	-0.914224	0.708910
H86	H	1.315455	-0.914338	0.622854
C87	C	1.782374	-0.182862	0.903246
H88	H	1.772250	-0.190520	0.830527
H89	H	1.770631	-0.126839	0.917665
H90	H	1.852181	-0.195076	0.922017
C91	C	1.782423	-0.182799	1.133663
H92	H	1.824490	-0.151065	1.083270
H93	H	1.744594	-0.146460	1.174156
H94	H	1.826147	-0.214695	1.178494
H95	H	1.351537	-0.507953	1.238102
H96	H	1.223356	-0.604699	1.144702
H97	H	1.223298	-0.604756	0.945638
H98	H	1.351463	-0.508069	0.839981
H99	H	1.185418	-0.508318	0.672704
