data_functionalizedCrystal
_audit_creation_method	'MofGen! by Chris Wilmer'
_symmetry_space_group_name_H-M	'P1'
_symmetry_Int_Tables_number	1
_symmetry_cell_setting	triclinic
loop_
_symmetry_equiv_pos_as_xyz
  x,y,z
_cell_length_a	25.639242
_cell_length_b	19.077078
_cell_length_c	19.076919
_cell_angle_alpha	85.531530
_cell_angle_beta	87.727009
_cell_angle_gamma	92.323835
loop_
_atom_site_label
_atom_site_type_symbol
_atom_site_fract_x
_atom_site_fract_y
_atom_site_fract_z
Zn1	Zn	0.778183	-0.296781	0.409993
Zn2	Zn	1.111517	0.036552	0.743326
Zn3	Zn	1.444850	0.369885	1.076659
Zn4	Zn	0.778116	-0.409935	0.296833
Zn5	Zn	1.111450	-0.076601	0.630166
Zn6	Zn	1.444783	0.256732	0.963499
Zn7	Zn	0.694414	-0.292055	0.292106
Zn8	Zn	1.027747	0.041278	0.625439
Zn9	Zn	1.361081	0.374612	0.958773
Zn10	Zn	0.687063	-0.414620	0.414658
Zn11	Zn	1.020396	-0.081286	0.747991
Zn12	Zn	1.353730	0.252047	1.081325
O13	O	0.734444	-0.353348	0.353397
O14	O	1.067777	-0.020014	0.686731
O15	O	1.401111	0.313319	1.020064
O16	O	0.851338	-0.311809	0.395007
O17	O	1.184672	0.021525	0.728341
O18	O	1.518005	0.354858	1.061674
O19	O	0.770061	-0.390359	0.197559
O20	O	1.103395	-0.057025	0.530893
O21	O	1.436728	0.276308	0.864226
O22	O	0.708630	-0.194033	0.303813
O23	O	1.041964	0.139300	0.637147
O24	O	1.375297	0.472633	0.970480
O25	O	0.851289	-0.394942	0.311869
O26	O	1.184622	-0.061609	0.645203
O27	O	1.517956	0.271725	0.978536
O28	O	0.770175	-0.197506	0.390424
O29	O	1.103509	0.135827	0.723757
O30	O	1.436842	0.469161	1.057091
O31	O	0.708566	-0.303753	0.194087
O32	O	1.041899	0.029580	0.527420
O33	O	1.375232	0.362913	0.860753
O34	O	0.620275	-0.308296	0.308337
O35	O	0.953608	0.025037	0.641671
O36	O	1.286941	0.358370	0.975004
O37	O	0.696102	-0.402927	0.512685
O38	O	1.029435	-0.069594	0.846019
O39	O	1.362769	0.263740	1.179352
O40	O	0.614874	-0.398344	0.398376
O41	O	0.948208	-0.065011	0.731709
O42	O	1.281541	0.268323	1.065042
O43	O	0.763048	-0.316352	0.509258
O44	O	1.096381	0.016982	0.842591
O45	O	1.429714	0.350315	1.175924
O46	O	0.762934	-0.509205	0.316393
O47	O	1.096267	-0.175871	0.649727
O48	O	1.429600	0.157462	0.983060
O49	O	0.696037	-0.512647	0.402959
O50	O	1.029371	-0.179313	0.736292
O51	O	1.362704	0.154020	1.069626
C52	C	0.728694	-0.536505	0.360711
C53	C	1.062028	-0.203171	0.694044
C54	C	1.395361	0.130162	1.027377
C55	C	0.726282	-0.614861	0.363863
C56	C	1.059615	-0.281528	0.697196
C57	C	1.392948	0.051805	1.030530
C58	C	0.598604	-0.353316	0.353350
C59	C	0.931937	-0.019983	0.686684
C60	C	1.265271	0.313351	1.020017
C61	C	0.540490	-0.353320	0.353347
C62	C	0.873823	-0.019987	0.686681
C63	C	1.207157	0.313347	1.020014
C64	C	0.708974	-1.056122	0.386498
C65	C	1.042307	-0.722788	0.719831
C66	C	1.375641	-0.389455	1.053164
C67	C	0.711241	-0.982497	0.383528
C68	C	1.044574	-0.649164	0.716861
C69	C	1.377908	-0.315830	1.050195
C70	C	0.747228	-0.943873	0.337005
C71	C	1.080561	-0.610540	0.670339
C72	C	1.413895	-0.277206	1.003672
C73	C	0.780954	-0.978877	0.293455
C74	C	1.114287	-0.645544	0.626788
C75	C	1.447620	-0.312211	0.960121
C76	C	0.778689	-1.052501	0.296428
C77	C	1.112022	-0.719167	0.629762
C78	C	1.445355	-0.385834	0.963095
C79	C	0.757742	-0.723489	0.323286
C80	C	1.091075	-0.390155	0.656619
C81	C	1.424409	-0.056822	0.989953
C82	C	0.760004	-0.649860	0.320314
C83	C	1.093337	-0.316527	0.653647
C84	C	1.426670	0.016806	0.986981
C85	C	0.690291	-0.653485	0.410389
C86	C	1.023625	-0.320152	0.743722
C87	C	1.356958	0.013181	1.077055
C88	C	0.688027	-0.727110	0.413355
C89	C	1.021361	-0.393776	0.746689
C90	C	1.354694	-0.060443	1.080022
C91	C	0.721755	-0.762108	0.369807
C92	C	1.055088	-0.428774	0.703141
C93	C	1.388421	-0.095441	1.036474
N94	N	0.749545	-0.868617	0.333967
N95	N	1.082879	-0.535284	0.667301
N96	N	1.416212	-0.201950	1.000634
N97	N	0.719440	-0.837363	0.372849
N98	N	1.052773	-0.504029	0.706183
N99	N	1.386106	-0.170696	1.039516
C100	C	0.292097	-0.306388	0.306589
C101	C	0.625431	0.026946	0.639923
C102	C	0.958764	0.360279	0.973256
C103	C	0.346702	-0.306381	0.306580
C104	C	0.680035	0.026952	0.639913
C105	C	1.013369	0.360286	0.973247
O106	O	0.377323	-0.266434	0.266783
O107	O	0.710656	0.066899	0.600116
O108	O	1.043989	0.400233	0.933450
N109	N	0.371215	-0.353330	0.353383
N110	N	0.704548	-0.019997	0.686717
N111	N	1.037881	0.313336	1.020050
C112	C	0.341119	-0.400285	0.400204
C113	C	0.674453	-0.066952	0.733537
C114	C	1.007786	0.266382	1.066870
O115	O	0.366983	-0.440218	0.440013
O116	O	0.700316	-0.106885	0.773347
O117	O	1.033650	0.226449	1.106680
C118	C	0.286515	-0.400288	0.400216
C119	C	0.619849	-0.066954	0.733549
C120	C	0.953182	0.266379	1.066883
C121	C	0.262006	-0.353340	0.353405
C122	C	0.595339	-0.020007	0.686738
C123	C	0.928673	0.313327	1.020071
C124	C	0.267588	-0.259443	0.259782
C125	C	0.600921	0.073890	0.593116
C126	C	0.934254	0.407223	0.926449
C127	C	0.212987	-0.259451	0.259791
C128	C	0.546320	0.073882	0.593124
C129	C	0.879653	0.407215	0.926458
C130	C	0.182895	-0.306404	0.306606
C131	C	0.516229	0.026930	0.639940
C132	C	0.849562	0.360263	0.973273
C133	C	0.207405	-0.353348	0.353413
C134	C	0.540738	-0.020015	0.686746
C135	C	0.874072	0.313319	1.020080
C136	C	0.256421	-0.447238	0.447039
C137	C	0.589755	-0.113905	0.780373
C138	C	0.923088	0.219428	1.113706
C139	C	0.201814	-0.447237	0.447048
C140	C	0.535147	-0.113904	0.780381
C141	C	0.868481	0.219430	1.113714
C142	C	0.177304	-0.400289	0.400236
C143	C	0.510638	-0.066956	0.733570
C144	C	0.843971	0.266377	1.066903
C145	C	0.122713	-0.400308	0.400237
C146	C	0.456046	-0.066975	0.733570
C147	C	0.789379	0.266358	1.066904
N148	N	0.098200	-0.353359	0.353434
N149	N	0.431534	-0.020026	0.686767
N150	N	0.764867	0.313308	1.020100
C151	C	0.128291	-0.306407	0.306618
C152	C	0.461625	0.026927	0.639952
C153	C	0.794958	0.360260	0.973285
C154	C	0.455791	-0.400274	0.400176
C155	C	0.789124	-0.066941	0.733509
C156	C	1.122458	0.266392	1.066842
C157	C	0.510394	-0.400275	0.400161
C158	C	0.843727	-0.066942	0.733494
C159	C	1.177060	0.266391	1.066827
C160	C	0.515973	-0.306370	0.306538
C161	C	0.849306	0.026963	0.639871
C162	C	1.182640	0.360296	0.973204
C163	C	0.461369	-0.306373	0.306550
C164	C	0.794702	0.026960	0.639883
C165	C	1.128036	0.360293	0.973216
C166	C	0.431279	-0.353325	0.353372
C167	C	0.764612	-0.019992	0.686706
C168	C	1.097945	0.313342	1.020039
C169	C	0.013625	-0.306427	0.306639
C170	C	0.346958	0.026906	0.639973
C171	C	0.680292	0.360239	0.973306
C172	C	-0.040981	-0.306441	0.306650
C173	C	0.292352	0.026892	0.639983
C174	C	0.625686	0.360225	0.973317
C175	C	-0.046555	-0.400344	0.400275
C176	C	0.286778	-0.067010	0.733609
C177	C	0.620111	0.266323	1.066942
C178	C	0.008046	-0.400332	0.400262
C179	C	0.341379	-0.066999	0.733596
C180	C	0.674713	0.266334	1.066929
C181	C	0.038135	-0.353368	0.353442
C182	C	0.371469	-0.020035	0.686775
C183	C	0.704802	0.313298	1.020109
O184	O	0.092059	-0.440233	0.440016
O185	O	0.425392	-0.106900	0.773349
O186	O	0.758725	0.226434	1.106682
O187	O	0.102421	-0.266474	0.266822
O188	O	0.435754	0.066859	0.600155
O189	O	0.769087	0.400193	0.933489
C190	C	0.870815	-0.353380	0.353445
C191	C	1.204148	-0.020047	0.686778
C192	C	1.537481	0.313287	1.020112
C193	C	0.928928	-0.353394	0.353465
C194	C	1.262261	-0.020060	0.686799
C195	C	1.595594	0.313273	1.020132
C196	C	0.728762	-0.360689	0.537265
C197	C	1.062096	-0.027356	0.870598
C198	C	1.395429	0.305978	1.203931
C199	C	0.726341	-0.363818	0.615618
C200	C	1.059674	-0.030484	0.948951
C201	C	1.393008	0.302849	1.282285
C202	C	0.740230	-0.169476	0.346071
C203	C	1.073564	0.163857	0.679404
C204	C	1.406897	0.497191	1.012738
C205	C	0.742696	-0.091121	0.342949
C206	C	1.076029	0.242213	0.676282
C207	C	1.409363	0.575546	1.009615
C208	C	0.740136	-0.345984	0.170243
C209	C	1.073469	-0.012651	0.503577
C210	C	1.406802	0.320683	0.836910
C211	C	0.742664	-0.342657	0.091883
C212	C	1.075998	-0.009324	0.425216
C213	C	1.409331	0.324010	0.758549
C214	C	0.760057	-0.320214	0.650645
C215	C	1.093390	0.013119	0.983978
C216	C	1.426723	0.346452	1.317312
C217	C	0.757775	-0.323151	0.724266
C218	C	1.091109	0.010182	1.057600
C219	C	1.424442	0.343515	1.390933
C220	C	0.721781	-0.369695	0.762859
C221	C	1.055114	-0.036362	1.096192
C222	C	1.388447	0.296971	1.429526
C223	C	0.688061	-0.413300	0.727827
C224	C	1.021395	-0.079967	1.061160
C225	C	1.354728	0.253366	1.394494
C226	C	0.690340	-0.410359	0.654207
C227	C	1.023674	-0.077026	0.987540
C228	C	1.357007	0.256307	1.320874
C229	C	0.711224	-0.383321	0.983230
C230	C	1.044558	-0.049988	1.316564
C231	C	1.377891	0.283346	1.649897
C232	C	0.708949	-0.386260	1.056855
C233	C	1.042282	-0.052927	1.390189
C234	C	1.375615	0.280407	1.723522
C235	C	0.778662	-0.296110	1.053290
C236	C	1.111996	0.037224	1.386623
C237	C	1.445329	0.370557	1.719956
C238	C	0.780940	-0.293176	0.979669
C239	C	1.114274	0.040157	1.313002
C240	C	1.447607	0.373491	1.646335
C241	C	0.747219	-0.336778	0.944643
C242	C	1.080553	-0.003445	1.277976
C243	C	1.413886	0.329889	1.611309
N244	N	0.719449	-0.372700	0.838112
N245	N	1.052782	-0.039367	1.171445
N246	N	1.386116	0.293967	1.504778
N247	N	0.749549	-0.333769	0.869391
N248	N	1.082882	-0.000436	1.202724
N249	N	1.416216	0.332897	1.536058
H250	H	0.679670	-1.087564	0.424382
H251	H	1.013003	-0.754231	0.757716
H252	H	1.346337	-0.420898	1.091049
N253	N	0.798887	-0.270020	0.609025
N254	N	1.132220	0.063313	0.942359
N255	N	1.465553	0.396647	1.275692
H256	H	0.795219	-0.274776	0.557072
H257	H	1.128553	0.058557	0.890405
H258	H	1.461886	0.391890	1.223738
H259	H	0.835479	-0.281527	0.622356
H260	H	1.168813	0.051807	0.955689
H261	H	1.502146	0.385140	1.289022
H262	H	-0.060934	-0.268210	0.268529
H263	H	0.272400	0.065124	0.601862
H264	H	0.605733	0.398457	0.935195
H265	H	0.785204	-0.751975	0.287823
H266	H	1.118537	-0.418642	0.621157
H267	H	1.451870	-0.085308	0.954490
H268	H	0.658717	-0.758552	0.451231
H269	H	0.992050	-0.425219	0.784564
H270	H	1.325384	-0.091886	1.117897
N271	N	0.815030	-0.249082	1.091067
N272	N	1.148364	0.084251	1.424400
N273	N	1.481697	0.417584	1.757733
H274	H	0.808126	-0.258005	1.143561
H275	H	1.141459	0.075328	1.476894
H276	H	1.474793	0.408661	1.810227
H277	H	0.808874	-0.198220	1.076188
H278	H	1.142208	0.135113	1.409521
H279	H	1.475541	0.468446	1.742855
N280	N	0.046076	-0.255782	0.256138
N281	N	0.379410	0.077551	0.589471
N282	N	0.712743	0.410885	0.922804
H283	H	0.068873	-0.224296	0.283526
H284	H	0.402207	0.109037	0.616860
H285	H	0.735540	0.442371	0.950193
H286	H	0.022225	-0.226095	0.226499
H287	H	0.355558	0.107238	0.559833
H288	H	0.688891	0.440571	0.893166
N289	N	0.670126	-0.436466	1.098483
N290	N	1.003459	-0.103132	1.431817
N291	N	1.336792	0.230201	1.765150
H292	H	0.649109	-0.463641	1.065124
H293	H	0.982442	-0.130308	1.398458
H294	H	1.315775	0.203025	1.731791
H295	H	0.645891	-0.408983	1.127879
H296	H	0.979224	-0.075650	1.461212
H297	H	1.312558	0.257683	1.794546
N298	N	0.186563	-0.208798	0.209309
N299	N	0.519896	0.124535	0.542643
N300	N	0.853230	0.457869	0.875976
H301	H	0.164054	-0.177321	0.236716
H302	H	0.497388	0.156013	0.570049
H303	H	0.830721	0.489346	0.903383
H304	H	0.164040	-0.236126	0.177741
H305	H	0.497374	0.097208	0.511074
H306	H	0.830707	0.430541	0.844408
H307	H	0.810258	-0.947426	0.255577
H308	H	1.143591	-0.614092	0.588911
H309	H	1.476925	-0.280759	0.922244
H310	H	0.806150	-1.080996	0.260968
H311	H	1.139483	-0.747663	0.594301
H312	H	1.472817	-0.414329	0.927635
H313	H	0.789310	-0.618416	0.282427
H314	H	1.122643	-0.285082	0.615760
H315	H	1.455977	0.048251	0.949093
N316	N	0.674849	-0.430357	0.945478
N317	N	1.008183	-0.097024	1.278811
N318	N	1.341516	0.236310	1.612145
H319	H	0.696005	-0.461818	0.916241
H320	H	1.029338	-0.128485	1.249574
H321	H	1.362671	0.204848	1.582907
H322	H	0.652468	-0.400439	0.913825
H323	H	0.985801	-0.067105	1.247159
H324	H	1.319134	0.266228	1.580492
N325	N	0.794130	-0.276109	0.762046
N326	N	1.127463	0.057225	1.095379
N327	N	1.460797	0.390558	1.428712
H328	H	0.817277	-0.246176	0.726426
H329	H	1.150611	0.087157	1.059760
H330	H	1.483944	0.420491	1.393093
H331	H	0.816479	-0.306018	0.793754
H332	H	1.149812	0.027315	1.127087
H333	H	1.483145	0.360649	1.460420
H334	H	0.658752	-0.451195	0.759255
H335	H	0.992085	-0.117862	1.092588
H336	H	1.325418	0.215472	1.425922
N337	N	0.653980	-0.457390	0.616419
N338	N	0.987313	-0.124056	0.949753
N339	N	1.320647	0.209277	1.283086
H340	H	0.631600	-0.427512	0.584724
H341	H	0.964933	-0.094178	0.918058
H342	H	1.298266	0.239155	1.251391
H343	H	0.630865	-0.487317	0.652078
H344	H	0.964198	-0.153984	0.985411
H345	H	1.297531	0.179350	1.318745
H346	H	0.292083	-0.221205	0.221659
H347	H	0.625416	0.112128	0.554993
H348	H	0.958749	0.445462	0.888326
H349	H	0.810253	-0.255277	0.948251
H350	H	1.143586	0.078057	1.281584
H351	H	1.476919	0.411390	1.614918
H352	H	0.683782	-0.954001	0.418990
H353	H	1.017116	-0.620668	0.752323
H354	H	1.350449	-0.287335	1.085656
H355	H	0.662832	-0.624983	0.445844
H356	H	0.996166	-0.291650	0.779178
H357	H	1.329499	0.041684	1.112511
H358	H	0.540483	-0.268138	0.268419
H359	H	0.873817	0.065196	0.601753
H360	H	1.207150	0.398529	0.935086
N361	N	0.434936	-0.255738	0.256061
N362	N	0.768269	0.077595	0.589395
N363	N	1.101602	0.410929	0.922728
H364	H	0.462289	-0.225997	0.226403
H365	H	0.795622	0.107336	0.559737
H366	H	1.128956	0.440669	0.893070
H367	H	0.412422	-0.224304	0.283511
H368	H	0.745756	0.109029	0.616844
H369	H	1.079089	0.442362	0.950177
N370	N	0.536822	-0.450923	0.450642
N371	N	0.870155	-0.117590	0.783976
N372	N	1.203489	0.215744	1.117309
H373	H	0.526114	-0.442066	0.500594
H374	H	0.859447	-0.108733	0.833927
H375	H	1.192781	0.224601	1.167261
H376	H	0.575974	-0.443777	0.443478
H377	H	0.909307	-0.110444	0.776812
H378	H	1.242640	0.222889	1.110145
N379	N	0.423336	-0.450928	0.450669
N380	N	0.756670	-0.117594	0.784003
N381	N	1.090003	0.215739	1.117336
H382	H	0.431639	-0.442074	0.500619
H383	H	0.764973	-0.108741	0.833952
H384	H	1.098306	0.224593	1.167286
H385	H	0.431619	-0.500812	0.441578
H386	H	0.764952	-0.167479	0.774911
H387	H	1.098286	0.165854	1.108244
N388	N	0.282848	-0.497877	0.497528
N389	N	0.616181	-0.164544	0.830861
N390	N	0.949514	0.168790	1.164194
H391	H	0.255492	-0.527614	0.527184
H392	H	0.588825	-0.194281	0.860518
H393	H	0.922158	0.139053	1.193851
H394	H	0.305398	-0.470536	0.529052
H395	H	0.638732	-0.137202	0.862385
H396	H	0.972065	0.196131	1.195718
H397	H	0.177317	-0.485469	0.485179
H398	H	0.510650	-0.152136	0.818513
H399	H	0.843983	0.181197	1.151846
H400	H	0.028003	-0.438566	0.438375
H401	H	0.361336	-0.105233	0.771708
H402	H	0.694669	0.228101	1.105041
H403	H	-0.071065	-0.438573	0.438389
H404	H	0.262268	-0.105240	0.771722
H405	H	0.595601	0.228093	1.105055
