data_functionalizedCrystal
_audit_creation_method	'MofGen! by Chris Wilmer'
_symmetry_space_group_name_H-M	'P1'
_symmetry_Int_Tables_number	1
_symmetry_cell_setting	triclinic
loop_
_symmetry_equiv_pos_as_xyz
  x,y,z
_cell_length_a	12.827892
_cell_length_b	12.827893
_cell_length_c	12.827885
_cell_angle_alpha	90.021189
_cell_angle_beta	90.026888
_cell_angle_gamma	90.015540
loop_
_atom_site_label
_atom_site_type_symbol
_atom_site_fract_x
_atom_site_fract_y
_atom_site_fract_z
Zn1	Zn	0.416032	-1.597656	-0.590923
Zn2	Zn	0.749366	-1.264322	-0.257590
Zn3	Zn	1.082699	-0.930989	0.075744
Zn4	Zn	0.590810	-1.597544	-0.416192
Zn5	Zn	0.924143	-1.264210	-0.082859
Zn6	Zn	1.257476	-0.930877	0.250474
Zn7	Zn	0.416078	-1.422897	-0.416191
Zn8	Zn	0.749411	-1.089564	-0.082858
Zn9	Zn	1.082744	-0.756230	0.250476
Zn10	Zn	0.590727	-1.422876	-0.590886
Zn11	Zn	0.924060	-1.089543	-0.257553
Zn12	Zn	1.257393	-0.756210	0.075780
O13	O	0.503412	-1.510243	-0.503548
O14	O	0.836745	-1.176910	-0.170215
O15	O	1.170078	-0.843576	0.163118
O16	O	0.439233	-1.743877	-0.567761
O17	O	0.772566	-1.410543	-0.234427
O18	O	1.105899	-1.077210	0.098906
O19	O	0.567685	-1.574338	-0.269956
O20	O	0.901018	-1.241005	0.063377
O21	O	1.234352	-0.907672	0.396711
O22	O	0.269836	-1.446134	-0.439384
O23	O	0.603169	-1.112801	-0.106051
O24	O	0.936502	-0.779468	0.227282
O25	O	0.567641	-1.743795	-0.439387
O26	O	0.900974	-1.410461	-0.106053
O27	O	1.234308	-1.077128	0.227280
O28	O	0.269802	-1.574529	-0.567759
O29	O	0.603136	-1.241196	-0.234426
O30	O	0.936469	-0.907862	0.098907
O31	O	0.439310	-1.446026	-0.269955
O32	O	0.772644	-1.112693	0.063378
O33	O	1.105977	-0.779359	0.396712
O34	O	0.439230	-1.276658	-0.439349
O35	O	0.772563	-0.943325	-0.106015
O36	O	1.105896	-0.609992	0.227318
O37	O	0.567499	-1.446099	-0.737127
O38	O	0.900833	-1.112766	-0.403794
O39	O	1.234166	-0.779433	-0.070461
O40	O	0.567543	-1.276643	-0.567697
O41	O	0.900877	-0.943310	-0.234363
O42	O	1.234210	-0.609976	0.098970
O43	O	0.439152	-1.574509	-0.737154
O44	O	0.772485	-1.241176	-0.403821
O45	O	1.105819	-0.907842	-0.070488
O46	O	0.737035	-1.574318	-0.439351
O47	O	1.070368	-1.240985	-0.106018
O48	O	1.403701	-0.907652	0.227316
O49	O	0.736974	-1.445991	-0.567698
O50	O	1.070307	-1.112658	-0.234365
O51	O	1.403640	-0.779324	0.098969
C52	C	0.774922	-1.510169	-0.503543
C53	C	1.108255	-1.176835	-0.170210
C54	C	1.441588	-0.843502	0.163123
C55	C	0.891075	-1.510232	-0.503576
C56	C	1.224408	-1.176899	-0.170243
C57	C	1.557741	-0.843566	0.163090
C58	C	0.503383	-1.238733	-0.503519
C59	C	0.836716	-0.905400	-0.170186
C60	C	1.170050	-0.572067	0.163147
C61	C	0.503396	-1.122580	-0.503532
C62	C	0.836729	-0.789247	-0.170198
C63	C	1.170063	-0.455913	0.163135
C64	C	0.942855	-1.573806	-0.440139
C65	C	1.276188	-1.240473	-0.106806
C66	C	1.609522	-0.907140	0.226527
C67	C	1.062905	-1.573874	-0.440172
C68	C	1.396239	-1.240540	-0.106839
C69	C	1.729572	-0.907207	0.226495
C70	C	1.230841	-1.510338	-0.503589
C71	C	1.564175	-1.177005	-0.170255
C72	C	1.897508	-0.843671	0.163078
C73	C	1.114688	-1.510357	-0.503638
C74	C	1.448022	-1.177023	-0.170305
C75	C	1.781355	-0.843690	0.163029
C76	C	0.439967	-1.070836	-0.567152
C77	C	0.773300	-0.737502	-0.233819
C78	C	1.106633	-0.404169	0.099514
C79	C	0.439979	-0.950785	-0.567167
C80	C	0.773312	-0.617452	-0.233833
C81	C	1.106645	-0.284119	0.099500
C82	C	0.503311	-1.510314	-0.776118
C83	C	0.836645	-1.176981	-0.442785
C84	C	1.169978	-0.843648	-0.109452
C85	C	0.503269	-1.510345	-0.892272
C86	C	0.836602	-1.177011	-0.558938
C87	C	1.169935	-0.843678	-0.225605
C88	C	0.503432	-0.782813	-0.503569
C89	C	0.836766	-0.449480	-0.170236
C90	C	1.170099	-0.116147	0.163097
C91	C	0.503419	-0.898966	-0.503557
C92	C	0.836753	-0.565633	-0.170224
C93	C	1.170086	-0.232300	0.163110
C94	C	0.439746	-1.573893	-0.944070
C95	C	0.773079	-1.240559	-0.610736
C96	C	1.106413	-0.907226	-0.277403
C97	C	0.439700	-1.573925	-1.064120
C98	C	0.773034	-1.240592	-0.730787
C99	C	1.106367	-0.907259	-0.397454
C100	C	0.503436	-1.510232	-0.232038
C101	C	0.836769	-1.176899	0.101295
C102	C	1.170103	-0.843566	0.434628
C103	C	0.503185	-1.510405	-0.115886
C104	C	0.836518	-1.177071	0.217448
C105	C	1.169851	-0.843738	0.550781
H106	H	0.898312	-1.628190	-0.385808
H107	H	1.231645	-1.294856	-0.052474
H108	H	1.564978	-0.961523	0.280859
Cl109	Cl	0.959841	-1.426278	-0.587476
Cl110	Cl	1.293174	-1.092944	-0.254142
Cl111	Cl	1.626507	-0.759611	0.079191
H112	H	0.385678	-0.906286	-0.621638
H113	H	0.719011	-0.572953	-0.288305
H114	H	1.052344	-0.239620	0.045029
H115	H	0.557612	-1.455956	-0.936802
H116	H	0.890945	-1.122623	-0.603469
H117	H	1.224279	-0.789290	-0.270136
H118	H	0.385650	-1.115412	-0.621606
H119	H	0.718983	-0.782079	-0.288273
H120	H	1.052316	-0.448746	0.045061
Cl121	Cl	0.587274	-0.967657	-0.419461
Cl122	Cl	0.920608	-0.634323	-0.086127
Cl123	Cl	1.253941	-0.300990	0.247206
H124	H	1.107435	-1.628299	-0.385858
H125	H	1.440768	-1.294966	-0.052525
H126	H	1.774102	-0.961632	0.280808
H127	H	0.557707	-1.078004	-0.449072
H128	H	0.891040	-0.744670	-0.115739
H129	H	1.224374	-0.411337	0.217595
Cl130	Cl	0.355803	-1.657832	-0.875327
Cl131	Cl	0.689136	-1.324499	-0.541994
Cl132	Cl	1.022469	-0.991165	-0.208660
Cl133	Cl	0.355736	-1.657934	-1.132888
Cl134	Cl	0.689070	-1.324601	-0.799555
Cl135	Cl	1.022403	-0.991267	-0.466222
Cl136	Cl	1.045950	-1.426310	-0.587491
Cl137	Cl	1.379284	-1.092977	-0.254158
Cl138	Cl	1.712617	-0.759644	0.079175
Cl139	Cl	0.587163	-1.426404	-1.047124
Cl140	Cl	0.920496	-1.093071	-0.713791
Cl141	Cl	1.253829	-0.759738	-0.380458
