data_functionalizedCrystal
_audit_creation_method	'MofGen! by Chris Wilmer'
_symmetry_space_group_name_H-M	'P1'
_symmetry_Int_Tables_number	1
_symmetry_cell_setting	triclinic
loop_
_symmetry_equiv_pos_as_xyz
  x,y,z
_cell_length_a	14.853567
_cell_length_b	8.559649
_cell_length_c	7.681481
_cell_angle_alpha	85.069100
_cell_angle_beta	84.265456
_cell_angle_gamma	103.293203
loop_
_atom_site_label
_atom_site_type_symbol
_atom_site_fract_x
_atom_site_fract_y
_atom_site_fract_z
O1	O	1.172214	-0.223675	0.146301
O2	O	0.908015	-0.248525	0.146331
O3	O	1.063391	-0.003549	0.146312
O4	O	1.016838	-0.468651	0.146320
O5	O	1.082520	0.026671	-0.146548
O6	O	0.927144	-0.218304	-0.146529
O7	O	1.191343	-0.193454	-0.146559
Zn8	Zn	1.062281	-0.201081	-0.193042
Zn9	Zn	1.037077	-0.240898	0.192814
O10	O	1.035967	-0.438430	-0.146540
C11	C	0.884069	-0.232289	-0.000096
C12	C	0.784221	-0.228917	-0.000084
C13	C	1.076483	0.071083	-0.000116
C14	C	1.086983	0.248439	-0.000107
N15	N	1.079488	-0.173906	-0.456378
C16	C	0.382865	-0.069131	-0.000127
C17	C	0.341228	-0.360167	-0.000119
C18	C	0.435039	-0.363339	-0.000114
C19	C	0.502768	-0.219406	-0.000112
C20	C	0.476686	-0.072300	-0.000116
C21	C	0.461128	-0.510444	-0.000092
C22	C	0.554944	-0.513623	-0.000084
C23	C	0.622676	-0.369687	-0.000095
C24	C	0.596589	-0.222575	-0.000101
C25	C	0.664318	-0.078642	-0.000099
C26	C	0.638233	0.068473	-0.000117
C27	C	0.544417	0.071636	-0.000126
C28	C	0.716492	-0.372850	-0.000086
C29	C	0.758138	-0.081811	-0.000088
C30	C	1.215289	-0.209691	-0.000129
C31	C	1.315136	-0.213064	-0.000128
C32	C	1.022875	-0.513063	-0.000109
C33	C	1.012373	-0.690420	-0.000106
N34	N	1.019878	-0.268061	0.456150
H35	H	0.813280	0.035400	-0.000093
H36	H	1.140346	-0.077808	-0.531592
O37	O	0.947388	-0.382797	-0.453951
C38	C	0.982008	-0.492320	-0.347331
H39	H	1.055133	-0.431563	-0.319877
H40	H	0.934234	-0.530838	-0.217623
H41	H	0.984650	-0.603122	-0.418273
H42	H	0.940463	0.226243	-0.000103
H43	H	1.158900	0.331787	-0.000129
O44	O	0.519172	0.214602	0.000110
C45	C	0.544827	0.286677	0.151810
H46	H	0.603724	0.237791	0.202371
H47	H	0.569305	0.423213	0.117705
H48	H	0.482200	0.257311	0.258020
O49	O	0.703958	0.208416	-0.000343
C50	C	0.703647	0.313358	-0.152049
H51	H	0.632920	0.279517	-0.202638
H52	H	0.717261	0.443069	-0.117939
H53	H	0.760507	0.302351	-0.258240
O54	O	0.357464	0.073696	0.000171
C55	C	0.294507	0.068577	0.151811
H56	H	0.304028	-0.025895	0.257832
H57	H	0.308530	0.192062	0.202718
H58	H	0.220055	0.035428	0.117504
O59	O	0.275328	-0.499819	-0.000198
C60	C	0.186927	-0.465482	-0.000157
H61	H	0.195633	-0.334266	-0.055598
H62	H	0.143532	-0.548433	-0.085186
H63	H	0.150134	-0.485984	0.140342
O64	O	0.741859	-0.515729	0.000243
C65	C	0.784991	-0.541893	0.151896
H66	H	0.761606	-0.469296	0.257902
H67	H	0.764315	-0.675883	0.202819
H68	H	0.863927	-0.501659	0.117602
O69	O	0.395442	-0.650337	-0.000320
C70	C	0.415603	-0.723978	-0.152003
H71	H	0.492946	-0.679688	-0.202562
H72	H	0.397535	-0.860727	-0.117875
H73	H	0.372634	-0.691069	-0.258223
H74	H	0.576173	-0.633413	-0.000069
