data_functionalizedCrystal
_audit_creation_method	'MofGen! by Chris Wilmer'
_symmetry_space_group_name_H-M	'P1'
_symmetry_Int_Tables_number	1
_symmetry_cell_setting	triclinic
loop_
_symmetry_equiv_pos_as_xyz
  x,y,z
_cell_length_a	16.992694
_cell_length_b	26.809956
_cell_length_c	16.992695
_cell_angle_alpha	90.004417
_cell_angle_beta	89.331777
_cell_angle_gamma	90.003736
loop_
_atom_site_label
_atom_site_type_symbol
_atom_site_fract_x
_atom_site_fract_y
_atom_site_fract_z
O1	O	1.050856	0.041418	-0.166906
O2	O	0.822456	0.041432	-0.165075
O3	O	0.935740	0.041421	-0.051790
O4	O	0.937572	0.041429	-0.280190
O5	O	0.935719	-0.041538	-0.051807
O6	O	0.822434	-0.041527	-0.165092
O7	O	1.050834	-0.041542	-0.166923
Zn8	Zn	0.936631	-0.054706	-0.166010
Zn9	Zn	0.936660	0.054596	-0.165988
O10	O	0.937550	-0.041530	-0.280207
C11	C	0.793085	-0.000046	-0.162727
C12	C	0.705600	-0.000040	-0.155699
C13	C	0.659610	-0.000038	-0.223517
C14	C	0.577409	-0.000045	-0.216908
C15	C	0.541201	-0.000051	-0.142480
C16	C	0.587198	-0.000054	-0.074657
C17	C	0.669397	-0.000051	-0.081267
C18	C	0.295886	-0.000065	-0.115086
C19	C	0.213681	-0.000067	-0.108481
C20	C	0.203898	-0.000059	-0.250732
C21	C	0.286099	-0.000053	-0.257336
C22	C	0.332089	-0.000059	-0.189512
N23	N	0.457178	-0.000056	-0.135723
N24	N	0.416110	-0.000056	-0.196270
N25	N	0.936617	-0.129302	-0.166025
C26	C	0.986816	-0.473933	-0.115838
C27	C	0.986834	-0.682811	-0.115827
O28	O	1.029483	-0.709819	-0.073159
N29	N	0.936663	-0.708929	-0.165971
C30	C	0.886480	-0.682825	-0.216116
O31	O	0.843801	-0.709833	-0.258760
C32	C	0.886459	-0.473948	-0.216123
C33	C	0.936639	-0.447832	-0.165982
C34	C	1.036991	-0.447817	-0.065701
C35	C	1.036989	-0.395601	-0.065707
C36	C	0.986812	-0.369500	-0.115851
C37	C	0.936637	-0.395616	-0.165988
C38	C	0.836272	-0.447845	-0.266264
C39	C	0.836270	-0.395622	-0.266260
C40	C	0.886450	-0.369507	-0.216119
C41	C	0.886458	-0.317299	-0.216138
N42	N	0.936629	-0.291181	-0.165995
C43	C	0.986806	-0.317281	-0.115851
C44	C	0.886496	-0.792488	-0.216111
C45	C	0.886502	-0.844707	-0.216110
C46	C	0.986855	-0.844689	-0.115820
C47	C	0.986852	-0.792469	-0.115825
C48	C	0.936667	-0.766370	-0.165967
C49	C	0.986798	-0.207623	-0.115868
C50	C	0.986794	-0.155402	-0.115881
C51	C	0.886439	-0.155425	-0.216169
C52	C	0.886446	-0.207641	-0.216159
C53	C	0.936628	-0.233739	-0.166002
O54	O	0.843825	-0.290259	-0.258777
O55	O	1.029466	-0.290264	-0.073201
C56	C	0.986818	-0.526149	-0.115832
C57	C	0.936642	-0.552265	-0.165969
C58	C	0.886465	-0.526164	-0.216113
C59	C	0.936649	-0.604484	-0.165969
C60	C	0.986826	-0.630584	-0.115825
C61	C	1.036997	-0.604466	-0.065682
C62	C	1.036995	-0.552250	-0.065688
C63	C	0.836294	-0.552283	-0.266256
C64	C	0.836301	-0.604499	-0.266246
C65	C	0.886478	-0.630600	-0.216103
C66	C	1.080205	-0.000063	-0.169270
C67	C	1.167690	-0.000065	-0.176299
C68	C	0.933374	-0.000058	-0.022439
C69	C	0.926345	-0.000058	0.065046
N70	N	0.936679	0.129192	-0.165967
C71	C	0.939917	-0.000050	-0.309559
C72	C	0.946945	-0.000047	-0.397044
C73	C	0.994163	-0.000063	0.111037
C74	C	0.987554	-0.000058	0.193238
C75	C	0.913127	-0.000051	0.229446
C76	C	0.845303	-0.000045	0.183449
C77	C	0.851913	-0.000046	0.101250
C78	C	0.885732	-0.000042	0.474760
C79	C	0.879127	-0.000042	0.556966
C80	C	1.021379	-0.000054	0.566749
C81	C	1.027982	-0.000059	0.484547
C82	C	0.960159	-0.000050	0.438558
N83	N	0.906369	-0.000047	0.313468
N84	N	0.966917	-0.000050	0.354537
H85	H	0.315574	-0.000042	-0.317942
C86	C	0.699435	-0.000031	-0.305386
H87	H	0.754978	-0.000024	-0.299612
H88	H	0.683953	-0.028959	-0.333534
H89	H	0.683952	0.028904	-0.333517
C90	C	1.092187	-0.523529	-0.010527
H91	H	1.122062	-0.546559	0.019339
H92	H	1.126731	-0.503157	-0.040910
H93	H	1.061814	-0.503160	0.024039
H94	H	0.166444	-0.000055	-0.305950
C95	C	0.346468	-0.000064	-0.040485
H96	H	0.400609	-0.000066	-0.055076
H97	H	0.335005	0.028865	-0.010175
H98	H	0.335005	-0.028999	-0.010185
C99	C	1.062154	-0.000068	0.243824
H100	H	1.107427	-0.000079	0.210487
H101	H	1.062548	0.028861	0.276097
H102	H	1.062519	-0.029002	0.276089
C103	C	0.781069	-0.366916	-0.321422
H104	H	0.751193	-0.389951	-0.351285
H105	H	0.746527	-0.346543	-0.291037
H106	H	0.811440	-0.346548	-0.355990
H107	H	0.557710	-0.000066	-0.014056
H108	H	0.706842	-0.000052	-0.026042
C109	C	0.811129	-0.000041	0.424182
H110	H	0.765859	-0.000044	0.457521
H111	H	0.810751	0.028887	0.391913
H112	H	0.810746	-0.028976	0.391913
H113	H	1.054770	-0.000071	0.081563
H114	H	0.539966	-0.000043	-0.272133
C115	C	0.173853	-0.000074	-0.026607
H116	H	0.213015	-0.000081	0.012840
H117	H	0.141993	0.028855	-0.021066
H118	H	0.141988	-0.029008	-0.021084
C119	C	1.042042	-0.873406	-0.060656
H120	H	1.034849	-0.908245	-0.067837
H121	H	1.095116	-0.864849	-0.072515
H122	H	1.030188	-0.864847	-0.007577
H123	H	1.027660	-0.134141	-0.075051
H124	H	1.088589	-0.000064	0.455073
H125	H	1.027661	-0.228867	-0.075025
C126	C	1.095977	-0.000057	0.617338
H127	H	1.081384	-0.000051	0.671479
H128	H	1.126280	-0.028987	0.605876
H129	H	1.126286	0.028876	0.605877
H130	H	1.077848	-0.374341	-0.024876
H131	H	0.784703	-0.000036	0.212936
C132	C	0.831305	-0.873429	-0.271266
H133	H	0.801416	-0.850401	-0.301120
H134	H	0.861665	-0.893802	-0.305830
H135	H	0.796762	-0.893797	-0.240865
H136	H	0.818516	-0.000045	0.586443
C137	C	1.042043	-0.763747	-0.060664
H138	H	1.071922	-0.786775	-0.030800
H139	H	1.076583	-0.743373	-0.091049
H140	H	1.011667	-0.743380	-0.026098
C141	C	0.831295	-0.763785	-0.271278
H142	H	0.801427	-0.786823	-0.301143
H143	H	0.796746	-0.743414	-0.240897
H144	H	0.861667	-0.743416	-0.305844
H145	H	0.796688	-0.000042	0.063804
H146	H	0.795411	-0.469101	-0.307093
C147	C	0.831218	-0.236369	-0.271280
H148	H	0.801321	-0.213344	-0.301131
H149	H	0.861548	-0.256757	-0.305849
H150	H	0.796684	-0.256723	-0.240846
C151	C	0.831242	-0.126708	-0.271316
H152	H	0.838425	-0.091868	-0.264127
H153	H	0.843069	-0.135264	-0.324398
H154	H	0.778171	-0.135268	-0.259430
C155	C	1.092187	-0.633183	-0.010522
H156	H	1.084991	-0.668023	-0.017701
H157	H	1.145261	-0.624628	-0.022387
H158	H	1.080339	-0.624624	0.042559
C159	C	0.781095	-0.633221	-0.321402
H160	H	0.751208	-0.610193	-0.351257
H161	H	0.811452	-0.653596	-0.355965
H162	H	0.746552	-0.653586	-0.290998
H163	H	0.795433	-0.531036	-0.307088
H164	H	1.077851	-0.469064	-0.024864
