data_functionalizedCrystal
_audit_creation_method	'MofGen! by Chris Wilmer'
_symmetry_space_group_name_H-M	'P1'
_symmetry_Int_Tables_number	1
_symmetry_cell_setting	triclinic
loop_
_symmetry_equiv_pos_as_xyz
  x,y,z
_cell_length_a	16.120490
_cell_length_b	21.295417
_cell_length_c	16.120256
_cell_angle_alpha	92.869836
_cell_angle_beta	90.129807
_cell_angle_gamma	87.121864
loop_
_atom_site_label
_atom_site_type_symbol
_atom_site_fract_x
_atom_site_fract_y
_atom_site_fract_z
Zn1	Zn	1.247403	-0.318979	-0.534503
Zn2	Zn	1.254340	-0.419186	-0.395435
Zn3	Zn	1.115394	-0.308333	-0.388425
Zn4	Zn	1.108295	-0.418603	-0.527408
O5	O	1.181358	-0.366276	-0.461443
O6	O	1.364689	-0.336971	-0.521959
O7	O	1.241782	-0.400270	-0.278139
O8	O	1.132973	-0.221660	-0.407839
O9	O	1.369786	-0.410593	-0.419785
O10	O	1.229959	-0.229482	-0.515162
O11	O	1.139699	-0.318827	-0.272989
O12	O	0.998086	-0.318262	-0.400959
O13	O	1.120874	-0.409600	-0.644715
O14	O	0.992871	-0.399277	-0.503069
O15	O	1.223076	-0.336406	-0.649928
O16	O	1.234899	-0.507194	-0.412905
O17	O	1.127601	-0.506766	-0.509866
C18	C	0.965306	-0.357551	-0.450484
C19	C	0.872877	-0.353835	-0.445815
C20	C	0.659910	-0.385548	-0.485661
C21	C	0.703653	-0.347055	-0.437290
C22	C	0.797818	-0.350828	-0.442035
C23	C	0.565737	-0.381776	-0.480918
C24	C	1.181254	-0.529821	-0.461395
C25	C	1.181284	-0.599791	-0.461407
C26	C	1.231753	-0.636673	-0.517326
C27	C	1.231781	-0.702418	-0.517348
C28	C	1.181350	-0.731277	-0.461436
C29	C	1.130872	-0.694386	-0.405512
C30	C	1.130839	-0.628643	-0.405498
N31	N	1.178760	-0.831639	-0.388344
N32	N	1.178796	-0.894092	-0.388361
C33	C	1.181445	-0.929357	-0.461479
N34	N	1.184074	-0.899810	-0.534582
N35	N	1.184042	-0.837351	-0.534564
C36	C	1.181380	-0.802564	-0.461446
C37	C	1.231947	-1.037527	-0.517427
C38	C	1.231970	-1.103273	-0.517450
C39	C	1.131065	-1.095240	-0.405607
C40	C	1.131038	-1.029496	-0.405591
C41	C	1.181484	-1.000644	-0.461500
C42	C	1.398253	-0.375034	-0.472445
C43	C	1.490681	-0.378767	-0.477134
C44	C	1.170409	-0.374125	-0.678337
C45	C	1.165744	-0.377471	-0.770765
C46	C	1.181484	-0.202093	-0.461510
C47	C	1.181537	-0.132128	-0.461538
C48	C	1.205687	-0.348815	-0.983751
C49	C	1.157198	-0.383551	-0.939984
C50	C	1.161954	-0.380167	-0.845822
C51	C	1.200931	-0.352198	-1.077922
C52	C	1.192311	-0.358413	-0.245394
C53	C	1.197138	-0.354897	-0.152976
H54	H	0.670382	-0.311266	-0.392314
H55	H	1.112108	-0.415827	-0.973233
Cl56	Cl	0.711276	-0.440807	-0.555087
Cl57	Cl	1.295411	-1.149640	-0.587765
Cl58	Cl	1.295164	-0.600405	-0.587617
Cl59	Cl	1.275280	-0.298972	-0.932419
Cl60	Cl	1.295238	-0.748793	-0.587647
H61	H	1.089809	-0.717888	-0.359990
Cl62	Cl	1.067387	-0.582274	-0.335193
H63	H	1.273020	-1.014035	-0.562954
Cl64	Cl	1.067663	-1.131514	-0.335319
H65	H	1.089946	-0.999464	-0.360053
