data_functionalizedCrystal
_audit_creation_method	'MofGen! by Chris Wilmer'
_symmetry_space_group_name_H-M	'P1'
_symmetry_Int_Tables_number	1
_symmetry_cell_setting	triclinic
loop_
_symmetry_equiv_pos_as_xyz
  x,y,z
_cell_length_a	14.971482
_cell_length_b	13.339070
_cell_length_c	13.448316
_cell_angle_alpha	89.996829
_cell_angle_beta	89.993798
_cell_angle_gamma	99.620951
loop_
_atom_site_label
_atom_site_type_symbol
_atom_site_fract_x
_atom_site_fract_y
_atom_site_fract_z
O1	O	1.219548	0.131855	-0.082675
O2	O	0.963053	0.147651	-0.082680
O3	O	1.061863	-0.007546	-0.082675
O4	O	1.120738	0.287051	-0.082680
O5	O	1.061843	-0.007556	0.082709
O6	O	0.963033	0.147641	0.082704
O7	O	1.219528	0.131845	0.082709
Cu8	Cu	1.091279	0.139742	0.097807
Cu9	Cu	1.091302	0.139754	-0.097778
O10	O	1.120718	0.287042	0.082704
C11	C	0.929544	0.146940	0.000012
C12	C	0.829723	0.144825	0.000010
C13	C	0.782822	0.143824	0.090162
C14	C	0.689028	0.141821	0.090163
C15	C	0.642139	0.140826	0.000011
C16	C	0.689046	0.141824	-0.090148
C17	C	0.782837	0.143820	-0.090148
C18	C	0.493556	0.137666	-0.090141
C19	C	0.399759	0.135672	-0.090141
C20	C	0.399747	0.135666	0.090169
C21	C	0.493538	0.137663	0.090169
C22	C	0.540440	0.138663	0.000010
C23	C	1.051908	-0.045252	0.000015
C24	C	1.022264	-0.157589	0.000011
C25	C	1.252760	-0.522107	0.000015
C26	C	1.280615	-0.416561	0.000025
C27	C	1.216029	-0.351813	0.000021
C28	C	1.123585	-0.392621	0.000008
C29	C	1.095727	-0.498177	0.000006
C30	C	1.058996	-0.327883	0.000012
C31	C	0.966552	-0.368691	-0.000001
C32	C	0.938699	-0.474238	-0.000004
C33	C	1.003284	-0.538986	0.000000
C34	C	1.086854	-0.222327	0.000014
C35	C	0.929821	-0.198398	0.000005
C36	C	0.901966	-0.303944	-0.000005
C37	C	1.253037	0.132556	0.000015
C38	C	1.352858	0.134671	0.000010
C39	C	1.130673	0.324748	0.000011
C40	C	1.160317	0.437085	0.000009
N41	N	1.091269	0.139734	0.235372
N42	N	1.091317	0.139754	-0.235343
C43	C	1.135048	0.071041	0.287414
C44	C	1.135053	0.071040	0.391517
C45	C	1.091285	0.139738	0.443576
C46	C	1.047500	0.208434	0.391526
C47	C	1.047490	0.208429	0.287425
C48	C	1.047526	0.208441	0.608507
C49	C	1.047538	0.208447	0.712615
C50	C	1.135090	0.071052	0.712599
C51	C	1.135080	0.071047	0.608497
C52	C	1.091296	0.139744	0.556455
H53	H	0.531741	0.138481	-0.163558
H54	H	1.011839	0.264364	0.245053
H55	H	0.650843	0.140988	0.163574
O56	O	0.828447	0.144656	0.177673
C57	C	0.871083	0.058225	0.183080
H58	H	0.881277	0.029335	0.104805
H59	H	0.826810	-0.003869	0.227568
C60	C	0.951171	0.122201	0.330763
C61	C	0.963698	0.086723	0.234624
H62	H	1.008298	0.139777	0.362562
H63	H	0.922444	0.180429	0.327124
H64	H	0.914273	0.070449	0.367824
H65	H	1.000585	0.138478	0.197562
H66	H	0.992434	0.028503	0.238259
H67	H	1.170701	0.015105	0.433890
O68	O	1.005121	0.275314	0.557994
C69	C	1.044514	0.375514	0.583434
H70	H	1.116281	0.376139	0.612037
H71	H	1.002297	0.405150	0.643866
C72	C	0.959485	0.443321	0.455820
C73	C	1.047632	0.444090	0.490943
H74	H	0.961405	0.485625	0.398770
H75	H	0.932942	0.375815	0.438683
H76	H	0.924314	0.468015	0.506189
H77	H	1.082798	0.419385	0.440580
H78	H	1.074181	0.511594	0.508070
O79	O	0.643616	0.141000	-0.177784
C80	C	0.678126	0.229076	-0.232617
H81	H	0.750090	0.259713	-0.206984
H82	H	0.633463	0.289276	-0.220114
C83	C	0.590556	0.164950	-0.375509
C84	C	0.678946	0.202574	-0.344032
H85	H	0.591059	0.148605	-0.444236
H86	H	0.567303	0.105613	-0.338566
H87	H	0.553347	0.215123	-0.365082
H88	H	0.716151	0.152397	-0.354448
H89	H	0.702206	0.261903	-0.380979
H90	H	0.863424	-0.507460	-0.000007
O91	O	1.370372	-0.376754	0.000073
C92	C	1.381110	-0.269710	0.000050
H93	H	1.317435	-0.245012	0.031361
H94	H	1.392745	-0.240317	-0.079293
C95	C	1.541346	-0.256183	0.026450
C96	C	1.463141	-0.225848	0.064915
H97	H	1.591949	-0.229125	0.066458
H98	H	1.534113	-0.328300	0.026462
H99	H	1.551029	-0.231686	-0.039668
H100	H	1.453453	-0.250355	0.131027
H101	H	1.470375	-0.153733	0.064916
H102	H	1.011857	0.264365	0.433919
H103	H	0.821024	0.144637	-0.163559
O104	O	0.812194	-0.343711	-0.000144
C105	C	0.791397	-0.404020	-0.085813
H106	H	0.855401	-0.430212	-0.114366
H107	H	0.763392	-0.357434	-0.145791
C108	C	0.641441	-0.465282	-0.024732
C109	C	0.720050	-0.497458	-0.059796
H110	H	0.597428	-0.522916	-0.008686
H111	H	0.655450	-0.424647	0.032984
H112	H	0.618114	-0.426459	-0.074720
H113	H	0.743381	-0.536269	-0.009804
H114	H	0.706043	-0.538101	-0.117503
H115	H	1.011896	0.264387	0.754996
H116	H	1.170740	0.015116	0.754978
O117	O	0.538944	0.138584	0.177830
C118	C	0.477441	0.137298	0.257407
H119	H	0.406345	0.103864	0.230985
H120	H	0.478208	0.218205	0.285124
C121	C	0.592585	0.112830	0.375033
C122	C	0.505264	0.071757	0.342584
H123	H	0.609748	0.072406	0.427577
H124	H	0.634022	0.113700	0.321422
H125	H	0.593213	0.180251	0.398124
H126	H	0.504640	0.004343	0.319482
H127	H	0.463827	0.070874	0.396194
O128	O	0.354342	0.134668	-0.177802
C129	C	0.415851	0.136001	-0.257379
H130	H	0.478464	0.105400	-0.230957
H131	H	0.436578	0.217334	-0.285099
C132	C	0.293559	0.106508	-0.375005
C133	C	0.370458	0.068916	-0.342554
H134	H	0.265559	0.065132	-0.427547
H135	H	0.252119	0.105614	-0.321393
H136	H	0.310843	0.174286	-0.398098
H137	H	0.353172	0.001145	-0.319450
H138	H	0.411894	0.069798	-0.396164
O139	O	0.354131	0.134499	0.177729
C140	C	0.288274	0.045778	0.183117
H141	H	0.308440	-0.014819	0.131952
H142	H	0.219810	0.064058	0.158906
C143	C	0.256809	0.080453	0.353667
C144	C	0.281581	0.006024	0.290831
H145	H	0.252677	0.055933	0.420109
H146	H	0.301176	0.140229	0.350036
H147	H	0.199758	0.095680	0.333479
H148	H	0.338636	-0.009191	0.311011
H149	H	0.237224	-0.053755	0.294467
H150	H	1.162123	-0.189112	0.000025
O151	O	1.315371	-0.585145	-0.000019
C152	C	1.270957	-0.687055	0.000008
H153	H	1.199683	-0.691179	-0.031311
H154	H	1.266756	-0.717576	0.079353
C155	C	1.411938	-0.746508	-0.026371
C156	C	1.324400	-0.751575	-0.064846
H157	H	1.444905	-0.786309	-0.066372
H158	H	1.441861	-0.677850	-0.026386
H159	H	1.408425	-0.771941	0.039749
H160	H	1.327914	-0.726131	-0.130960
H161	H	1.294479	-0.820231	-0.064844
O162	O	1.242971	-0.249268	-0.000102
C163	C	1.209246	-0.207434	-0.085771
H164	H	1.147356	-0.261272	-0.114339
H165	H	1.263834	-0.196260	-0.145741
C166	C	1.258283	-0.037980	-0.024666
C167	C	1.182265	-0.104101	-0.059748
H168	H	1.241644	0.025763	-0.008616
H169	H	1.281008	-0.066164	0.033050
H170	H	1.303766	-0.028680	-0.074647
H171	H	1.136788	-0.113410	-0.009763
H172	H	1.159532	-0.075916	-0.117455
H173	H	0.877230	-0.145679	0.000007
O174	O	1.177438	0.004147	0.236915
C175	C	1.138032	-0.096035	0.262423
H176	H	1.066269	-0.096633	0.291041
H177	H	1.180246	-0.125649	0.322864
C178	C	1.223043	-0.163925	0.134832
C179	C	1.134900	-0.164660	0.169973
H180	H	1.221114	-0.206257	0.077807
H181	H	1.249595	-0.096430	0.117649
H182	H	1.258212	-0.188601	0.185208
H183	H	1.099736	-0.139972	0.119602
H184	H	1.108342	-0.232152	0.187146
H185	H	1.170725	0.015113	0.566111
H186	H	0.980609	-0.624931	-0.000011
