data_functionalizedCrystal
_audit_creation_method	'MofGen! by Chris Wilmer'
_symmetry_space_group_name_H-M	'P1'
_symmetry_Int_Tables_number	1
_symmetry_cell_setting	triclinic
loop_
_symmetry_equiv_pos_as_xyz
  x,y,z
_cell_length_a	13.897449
_cell_length_b	18.050590
_cell_length_c	13.897441
_cell_angle_alpha	90.033006
_cell_angle_beta	90.020733
_cell_angle_gamma	90.019832
loop_
_atom_site_label
_atom_site_type_symbol
_atom_site_fract_x
_atom_site_fract_y
_atom_site_fract_z
Zn1	Zn	1.474697	-0.295610	0.545365
Zn2	Zn	1.724697	-0.045610	0.795365
Zn3	Zn	1.974697	0.204390	1.045365
Zn4	Zn	2.224697	0.454390	1.295365
Zn5	Zn	1.474588	-0.419815	0.384060
Zn6	Zn	1.724588	-0.169815	0.634060
Zn7	Zn	1.974588	0.080185	0.884060
Zn8	Zn	2.224588	0.330185	1.134060
Zn9	Zn	1.313386	-0.295646	0.384083
Zn10	Zn	1.563386	-0.045646	0.634083
Zn11	Zn	1.813386	0.204354	0.884083
Zn12	Zn	2.063386	0.454354	1.134083
Zn13	Zn	1.313365	-0.419766	0.545312
Zn14	Zn	1.563365	-0.169766	0.795312
Zn15	Zn	1.813365	0.080234	1.045312
Zn16	Zn	2.063365	0.330234	1.295312
O17	O	1.394009	-0.357709	0.464705
O18	O	1.644009	-0.107709	0.714705
O19	O	1.894009	0.142291	0.964705
O20	O	2.144009	0.392291	1.214705
O21	O	1.609664	-0.312092	0.523980
O22	O	1.859664	-0.062092	0.773980
O23	O	2.109664	0.187908	1.023980
O24	O	2.359664	0.437908	1.273980
O25	O	1.453168	-0.403379	0.249081
O26	O	1.703168	-0.153379	0.499081
O27	O	1.953168	0.096621	0.749081
O28	O	2.203168	0.346621	0.999081
O29	O	1.334838	-0.191716	0.405510
O30	O	1.584838	0.058284	0.655510
O31	O	1.834838	0.308284	0.905510
O32	O	2.084838	0.558284	1.155510
O33	O	1.609584	-0.403344	0.405469
O34	O	1.859584	-0.153344	0.655469
O35	O	2.109584	0.096656	0.905469
O36	O	2.359584	0.346656	1.155469
O37	O	1.453353	-0.191690	0.524003
O38	O	1.703353	0.058310	0.774003
O39	O	1.953353	0.308310	1.024003
O40	O	2.203353	0.558310	1.274003
O41	O	1.334733	-0.312152	0.249099
O42	O	1.584733	-0.062152	0.499099
O43	O	1.834733	0.187848	0.749099
O44	O	2.084733	0.437848	0.999099
O45	O	1.178402	-0.312105	0.405459
O46	O	1.428402	-0.062105	0.655459
O47	O	1.678402	0.187895	0.905459
O48	O	1.928402	0.437895	1.155459
O49	O	1.334803	-0.403261	0.680301
O50	O	1.584803	-0.153261	0.930301
O51	O	1.834803	0.096739	1.180301
O52	O	2.084803	0.346739	1.430301
O53	O	1.178386	-0.403295	0.523913
O54	O	1.428386	-0.153295	0.773913
O55	O	1.678386	0.096705	1.023913
O56	O	1.928386	0.346705	1.273913
O57	O	1.453333	-0.312045	0.680340
O58	O	1.703333	-0.062045	0.930340
O59	O	1.953333	0.187955	1.180340
O60	O	2.203333	0.437955	1.430340
O61	O	1.453148	-0.523733	0.405418
O62	O	1.703148	-0.273733	0.655418
O63	O	1.953148	-0.023733	0.905418
O64	O	2.203148	0.226267	1.155418
O65	O	1.334698	-0.523697	0.523890
O66	O	1.584698	-0.273697	0.773890
O67	O	1.834698	-0.023697	1.023890
O68	O	2.084698	0.226303	1.273890
C69	C	1.143395	-0.357699	0.464683
C70	C	1.393395	-0.107699	0.714683
C71	C	1.643395	0.142301	0.964683
C72	C	1.893395	0.392301	1.214683
C73	C	1.036181	-0.357713	0.464697
C74	C	1.286181	-0.107713	0.714697
C75	C	1.536181	0.142287	0.964697
C76	C	1.786181	0.392287	1.214697
C77	C	0.839886	-0.357716	0.464722
C78	C	1.089886	-0.107716	0.714722
C79	C	1.339886	0.142284	0.964722
C80	C	1.589886	0.392284	1.214722
C81	C	0.949118	-0.357712	0.464705
C82	C	1.199118	-0.107712	0.714705
C83	C	1.449118	0.142288	0.964705
C84	C	1.699118	0.392288	1.214705
C85	C	1.393935	-0.550661	0.464667
C86	C	1.643935	-0.300661	0.714667
C87	C	1.893935	-0.050661	0.964667
C88	C	2.143935	0.199339	1.214667
C89	C	1.393991	-0.633207	0.464682
C90	C	1.643991	-0.383207	0.714682
C91	C	1.893991	-0.133207	0.964682
C92	C	2.143991	0.116793	1.214682
C93	C	1.458539	-0.832650	0.400348
C94	C	1.708539	-0.582650	0.650348
C95	C	1.958539	-0.332650	0.900348
C96	C	2.208539	-0.082650	1.150348
C97	C	1.482104	-0.881977	0.488383
C98	C	1.732104	-0.631977	0.738383
C99	C	1.982104	-0.381977	0.988383
C100	C	2.232104	-0.131977	1.238383
C101	C	1.394046	-0.784337	0.464721
C102	C	1.644046	-0.534337	0.714721
C103	C	1.894046	-0.284337	0.964721
C104	C	2.144046	-0.034337	1.214721
C105	C	1.370579	-0.882092	0.376725
C106	C	1.620579	-0.632092	0.626725
C107	C	1.870579	-0.382092	0.876725
C108	C	2.120579	-0.132092	1.126725
C109	C	1.394101	-0.930322	0.464750
C110	C	1.644101	-0.680322	0.714750
C111	C	1.894101	-0.430322	0.964750
C112	C	2.144101	-0.180322	1.214750
C113	C	1.417657	-0.832577	0.552802
C114	C	1.667657	-0.582577	0.802802
C115	C	1.917657	-0.332577	1.052802
C116	C	2.167657	-0.082577	1.302802
C117	C	1.306091	-0.832688	0.441086
C118	C	1.556091	-0.582688	0.691086
C119	C	1.806091	-0.332688	0.941086
C120	C	2.056091	-0.082688	1.191086
C121	C	1.329623	-0.881992	0.529181
C122	C	1.579623	-0.631992	0.779181
C123	C	1.829623	-0.381992	1.029181
C124	C	2.079623	-0.131992	1.279181
C125	C	1.394017	-0.700239	0.464703
C126	C	1.644017	-0.450239	0.714703
C127	C	1.894017	-0.200239	0.964703
C128	C	2.144017	0.049761	1.214703
C129	C	1.394130	-1.014419	0.464778
C130	C	1.644130	-0.764419	0.714778
C131	C	1.894130	-0.514419	0.964778
C132	C	2.144130	-0.264419	1.214778
C133	C	1.645602	-0.357720	0.464728
C134	C	1.895602	-0.107720	0.714728
C135	C	2.145602	0.142280	0.964728
C136	C	2.395602	0.392280	1.214728
C137	C	1.752816	-0.357724	0.464737
C138	C	2.002816	-0.107724	0.714737
C139	C	2.252816	0.142276	0.964737
C140	C	2.502816	0.392276	1.214737
C141	C	1.394078	-0.357644	0.716298
C142	C	1.644078	-0.107644	0.966298
C143	C	1.894078	0.142356	1.216298
C144	C	2.144078	0.392356	1.466298
C145	C	1.394107	-0.357616	0.823512
C146	C	1.644107	-0.107616	1.073512
C147	C	1.894107	0.142384	1.323512
C148	C	2.144107	0.392384	1.573512
C149	C	1.394110	-0.164004	0.464765
C150	C	1.644110	0.085996	0.714765
C151	C	1.894110	0.335996	0.964765
C152	C	2.144110	0.585996	1.214765
C153	C	1.394153	-0.081458	0.464790
C154	C	1.644153	0.168542	0.714790
C155	C	1.894153	0.418542	0.964790
C156	C	2.144153	0.668542	1.214790
C157	C	1.393996	-0.357721	0.214091
C158	C	1.643996	-0.107721	0.464091
C159	C	1.893996	0.142279	0.714091
C160	C	2.143996	0.392279	0.964091
C161	C	1.394154	-0.357540	0.106877
C162	C	1.644154	-0.107540	0.356877
C163	C	1.894154	0.142460	0.606877
C164	C	2.144154	0.392460	0.856877
C165	C	1.394133	-0.357565	1.019808
C166	C	1.644133	-0.107565	1.269808
C167	C	1.894133	0.142435	1.519808
C168	C	2.144133	0.392435	1.769808
C169	C	1.394115	-0.357595	0.910575
C170	C	1.644115	-0.107595	1.160575
C171	C	1.894115	0.142405	1.410575
C172	C	2.144115	0.392405	1.660575
H173	H	1.513096	-0.810984	0.345965
H174	H	1.763096	-0.560984	0.595965
H175	H	2.013096	-0.310984	0.845965
H176	H	2.263096	-0.060984	1.095965
F177	F	1.258367	-0.910135	0.600433
F178	F	1.508367	-0.660135	0.850433
F179	F	1.758367	-0.410135	1.100433
F180	F	2.008367	-0.160135	1.350433
F181	F	1.344604	-0.910521	0.279443
F182	F	1.594604	-0.660521	0.529443
F183	F	1.844604	-0.410521	0.779443
F184	F	2.094604	-0.160521	1.029443
H185	H	1.556510	-0.903630	0.508393
H186	H	1.806510	-0.653630	0.758393
H187	H	2.056510	-0.403630	1.008393
H188	H	2.306510	-0.153630	1.258393
H189	H	1.231706	-0.811019	0.421049
H190	H	1.481706	-0.561019	0.671049
H191	H	1.731706	-0.311019	0.921049
H192	H	1.981706	-0.061019	1.171049
H193	H	1.437455	-0.810920	0.627296
H194	H	1.687455	-0.560920	0.877296
H195	H	1.937455	-0.310920	1.127296
H196	H	2.187455	-0.060920	1.377296
