data_functionalizedCrystal
_audit_creation_method	'MofGen! by Chris Wilmer'
_symmetry_space_group_name_H-M	'P1'
_symmetry_Int_Tables_number	1
_symmetry_cell_setting	triclinic
loop_
_symmetry_equiv_pos_as_xyz
  x,y,z
_cell_length_a	19.077105
_cell_length_b	17.637651
_cell_length_c	19.076919
_cell_angle_alpha	99.433464
_cell_angle_beta	89.923776
_cell_angle_gamma	98.499620
loop_
_atom_site_label
_atom_site_type_symbol
_atom_site_fract_x
_atom_site_fract_y
_atom_site_fract_z
Zn1	Zn	0.993412	-0.376382	0.369993
Zn2	Zn	1.326745	-0.043049	0.703326
Zn3	Zn	1.660079	0.290284	1.036660
Zn4	Zn	0.976496	-0.501474	0.229080
Zn5	Zn	1.309829	-0.168141	0.562413
Zn6	Zn	1.643163	0.165193	0.895747
Zn7	Zn	0.882426	-0.365960	0.249736
Zn8	Zn	1.215759	-0.032627	0.583070
Zn9	Zn	1.549092	0.300707	0.916403
Zn10	Zn	0.854398	-0.501005	0.341921
Zn11	Zn	1.187732	-0.167671	0.675254
Zn12	Zn	1.521065	0.165662	1.008587
O13	O	0.926683	-0.436205	0.297682
O14	O	1.260016	-0.102872	0.631016
O15	O	1.593350	0.230461	0.964349
O16	O	1.088714	-0.397534	0.354404
O17	O	1.422048	-0.064201	0.687738
O18	O	1.755381	0.269133	1.021071
O19	O	0.968667	-0.479332	0.134268
O20	O	1.302001	-0.145999	0.467602
O21	O	1.635334	0.187334	0.800935
O22	O	0.915957	-0.258475	0.286082
O23	O	1.249290	0.074859	0.619415
O24	O	1.582624	0.408192	0.952748
O25	O	1.076286	-0.489438	0.250876
O26	O	1.409620	-0.156105	0.584210
O27	O	1.742953	0.177228	0.917543
O28	O	0.997498	-0.266132	0.374434
O29	O	1.330832	0.067202	0.707767
O30	O	1.664165	0.400535	1.041100
O31	O	0.899554	-0.379771	0.149444
O32	O	1.232888	-0.046438	0.482778
O33	O	1.566221	0.286896	0.816111
O34	O	0.781161	-0.379316	0.258861
O35	O	1.114495	-0.045983	0.592194
O36	O	1.447828	0.287351	0.925528
O37	O	0.868189	-0.488639	0.443196
O38	O	1.201522	-0.155305	0.776530
O39	O	1.534856	0.178028	1.109863
O40	O	0.760570	-0.478533	0.326588
O41	O	1.093903	-0.145199	0.659922
O42	O	1.427237	0.188134	0.993255
O43	O	0.970321	-0.397079	0.463821
O44	O	1.303655	-0.063746	0.797154
O45	O	1.636988	0.269588	1.130488
O46	O	0.941491	-0.610280	0.223656
O47	O	1.274824	-0.276946	0.556989
O48	O	1.608157	0.056387	0.890322
O49	O	0.851786	-0.609935	0.306559
O50	O	1.185119	-0.276602	0.639892
O51	O	1.518453	0.056732	0.973226
C52	C	0.745573	-0.427743	0.291920
C53	C	1.078906	-0.094410	0.625254
C54	C	1.412240	0.238924	0.958587
C55	C	0.668089	-0.424142	0.289468
C56	C	1.001423	-0.090809	0.622802
C57	C	1.334756	0.242524	0.956135
C58	C	0.620975	-0.474180	0.323494
C59	C	0.954309	-0.140846	0.656827
C60	C	1.287642	0.192487	0.990161
C61	C	0.548173	-0.470786	0.321195
C62	C	0.881506	-0.137453	0.654529
C63	C	1.214839	0.195880	0.987862
C64	C	0.522485	-0.417359	0.284866
C65	C	0.855818	-0.084026	0.618200
C66	C	1.189152	0.249308	0.951533
C67	C	0.569605	-0.367316	0.250840
C68	C	0.902939	-0.033983	0.584173
C69	C	1.236272	0.299350	0.917506
C70	C	0.642407	-0.370706	0.253143
C71	C	0.975740	-0.037373	0.586476
C72	C	1.309074	0.295960	0.919810
C73	C	0.305902	-0.401669	0.274209
C74	C	0.639235	-0.068336	0.607543
C75	C	0.972568	0.264998	0.940876
C76	C	0.233094	-0.398284	0.271907
C77	C	0.566427	-0.064951	0.605240
C78	C	0.899760	0.268382	0.938573
C79	C	0.211666	-0.501754	0.342264
C80	C	0.545000	-0.168420	0.675597
C81	C	0.878333	0.164913	1.008931
C82	C	0.284470	-0.505142	0.344561
C83	C	0.617803	-0.171809	0.677894
C84	C	0.951137	0.161524	1.011227
C85	C	0.331584	-0.455097	0.310537
C86	C	0.664917	-0.121764	0.643870
C87	C	0.998251	0.211570	0.977204
N88	N	0.448069	-0.413891	0.282514
N89	N	0.781403	-0.080557	0.615847
N90	N	1.114736	0.252776	0.949180
N91	N	0.405999	-0.458562	0.312894
N92	N	0.739332	-0.125229	0.646227
N93	N	1.072666	0.208105	0.979561
C94	C	0.891780	-0.638337	0.259835
C95	C	1.225113	-0.305004	0.593169
C96	C	1.558446	0.028329	0.926502
C97	C	0.876910	-0.724814	0.243670
C98	C	1.210244	-0.391481	0.577003
C99	C	1.543577	-0.058147	0.910336
C100	C	1.040085	-1.028866	0.420726
C101	C	1.373418	-0.695532	0.754060
C102	C	1.706752	-0.362199	1.087393
C103	C	1.026091	-1.110122	0.405523
C104	C	1.359425	-0.776789	0.738857
C105	C	1.692758	-0.443456	1.072190
C106	C	0.941246	-1.102255	0.313438
C107	C	1.274579	-0.768922	0.646771
C108	C	1.607913	-0.435589	0.980105
C109	C	0.955235	-1.020996	0.328631
C110	C	1.288568	-0.687663	0.661964
C111	C	1.621902	-0.354330	0.995298
C112	C	1.004654	-0.984308	0.382276
C113	C	1.337988	-0.650975	0.715610
C114	C	1.671321	-0.317641	1.048943
C115	C	0.919805	-0.976439	0.290181
C116	C	1.253138	-0.643106	0.623515
C117	C	1.586471	-0.309772	0.956848
C118	C	0.933790	-0.895187	0.305376
C119	C	1.267123	-0.561854	0.638709
C120	C	1.600457	-0.228520	0.972042
C121	C	0.983205	-0.858493	0.359020
C122	C	1.316539	-0.525159	0.692353
C123	C	1.649872	-0.191826	1.025687
C124	C	1.018640	-0.903056	0.397471
C125	C	1.351973	-0.569723	0.730804
C126	C	1.685306	-0.236390	1.064138
C127	C	0.870382	-1.013129	0.236540
C128	C	1.203715	-0.679795	0.569873
C129	C	1.537048	-0.346462	0.903206
C130	C	0.834951	-0.968571	0.198090
C131	C	1.168285	-0.635238	0.531423
C132	C	1.501618	-0.301904	0.864756
C133	C	0.848940	-0.887318	0.213281
C134	C	1.182273	-0.553984	0.546614
C135	C	1.515607	-0.220651	0.879947
C136	C	0.898356	-0.850623	0.266925
C137	C	1.231689	-0.517290	0.600258
C138	C	1.565022	-0.183957	0.933592
C139	C	0.813506	-0.842754	0.174830
C140	C	1.146839	-0.509421	0.508163
C141	C	1.480172	-0.176087	0.841496
C142	C	0.827491	-0.761502	0.190024
C143	C	1.160824	-0.428169	0.523358
C144	C	1.494158	-0.094836	0.856691
C145	C	0.912341	-0.769372	0.282119
C146	C	1.245674	-0.436038	0.615453
C147	C	1.579007	-0.102705	0.948786
C148	C	1.108500	-0.444701	0.303467
C149	C	1.441833	-0.111368	0.636801
C150	C	1.775167	0.221966	0.970134
C151	C	1.185980	-0.448321	0.305933
C152	C	1.519313	-0.114988	0.639266
C153	C	1.852646	0.218345	0.972599
C154	C	0.918016	-0.443969	0.479510
C155	C	1.251349	-0.110636	0.812843
C156	C	1.584682	0.222698	1.146177
C157	C	0.914322	-0.447278	0.556994
C158	C	1.247656	-0.113944	0.890327
C159	C	1.580989	0.219389	1.223661
C160	C	0.961741	-0.233286	0.335693
C161	C	1.295074	0.100048	0.669027
C162	C	1.628408	0.433381	1.002360
C163	C	0.976681	-0.146813	0.351891
C164	C	1.310014	0.186520	0.685224
C165	C	1.643347	0.519853	1.018558
C166	C	0.935366	-0.428417	0.116574
C167	C	1.268700	-0.095084	0.449907
C168	C	1.602033	0.238249	0.783241
C169	C	0.939233	-0.424896	0.039136
C170	C	1.272566	-0.091563	0.372469
C171	C	1.605899	0.241771	0.705802
C172	C	0.965759	-0.401164	0.604135
C173	C	1.299093	-0.067831	0.937468
C174	C	1.632426	0.265503	1.270802
C175	C	0.962281	-0.404269	0.676940
C176	C	1.295614	-0.070936	1.010273
C177	C	1.628948	0.262397	1.343606
C178	C	0.907368	-0.453493	0.702601
C179	C	1.240701	-0.120159	1.035935
C180	C	1.574034	0.213174	1.369268
C181	C	0.855926	-0.499608	0.655455
C182	C	1.189259	-0.166275	0.988788
C183	C	1.522592	0.167058	1.322122
C184	C	0.859402	-0.496498	0.582652
C185	C	1.192735	-0.163165	0.915985
C186	C	1.526068	0.170168	1.249319
C187	C	0.891267	-0.467902	0.919187
C188	C	1.224600	-0.134568	1.252520
C189	C	1.557933	0.198765	1.585853
C190	C	0.887796	-0.471010	0.991995
C191	C	1.221129	-0.137676	1.325328
C192	C	1.554462	0.195657	1.658662
C193	C	0.994151	-0.375669	1.013475
C194	C	1.327484	-0.042336	1.346808
C195	C	1.660817	0.290997	1.680142
C196	C	0.997624	-0.372567	0.940669
C197	C	1.330958	-0.039234	1.274003
C198	C	1.664291	0.294100	1.607336
C199	C	0.946180	-0.418679	0.893530
C200	C	1.279514	-0.085346	1.226863
C201	C	1.612847	0.247987	1.560196
N202	N	0.903812	-0.456670	0.777019
N203	N	1.237145	-0.123337	1.110352
N204	N	1.570479	0.209997	1.443686
N205	N	0.949733	-0.415498	0.819114
N206	N	1.283067	-0.082164	1.152447
N207	N	1.616400	0.251169	1.485781
H208	H	0.305378	-0.548650	0.374142
H209	H	0.638712	-0.215317	0.707475
H210	H	0.972045	0.118016	1.040808
O211	O	1.093390	-0.989283	0.478585
O212	O	1.426723	-0.655950	0.811918
O213	O	1.760056	-0.322617	1.145252
H214	H	1.115679	-1.033916	0.502773
H215	H	1.449012	-0.700583	0.836106
H216	H	1.782346	-0.367249	1.169439
H217	H	0.641883	-0.517689	0.353075
H218	H	0.975217	-0.184355	0.686408
H219	H	1.308550	0.148978	1.019741
H220	H	1.058888	-0.873184	0.441150
H221	H	1.392221	-0.539850	0.774483
H222	H	1.725554	-0.206517	1.107816
O223	O	1.056853	-0.319472	0.912997
O224	O	1.390187	0.013861	1.246330
O225	O	1.723520	0.347194	1.579664
H226	H	1.050633	-0.325063	0.854452
H227	H	1.383966	0.008270	1.187785
H228	H	1.717299	0.341604	1.521119
O229	O	0.789285	-0.713438	0.148549
O230	O	1.122618	-0.380104	0.481882
O231	O	1.455952	-0.046771	0.815215
H232	H	0.731306	-0.727026	0.155785
H233	H	1.064639	-0.393693	0.489119
H234	H	1.397973	-0.060359	0.822452
H235	H	0.952589	-0.739499	0.325798
H236	H	1.285922	-0.406166	0.659131
H237	H	1.619255	-0.072832	0.992465
H238	H	0.344253	-0.360924	0.246499
H239	H	0.677586	-0.027591	0.579832
H240	H	1.010920	0.305742	0.913165
H241	H	0.773264	-0.872638	0.131156
H242	H	1.106597	-0.539305	0.464490
H243	H	1.439930	-0.205971	0.797823
O244	O	0.541899	-0.309689	0.211659
O245	O	0.875232	0.023645	0.544992
O246	O	1.208566	0.356978	0.878325
H247	H	0.586895	-0.275459	0.188391
H248	H	0.920228	0.057875	0.521725
H249	H	1.253561	0.391208	0.855058
H250	H	0.849385	-0.505462	0.880812
H251	H	1.182719	-0.172128	1.214145
H252	H	1.516052	0.161205	1.547478
H253	H	1.054937	-1.146399	0.436847
H254	H	1.388270	-0.813065	0.770181
H255	H	1.721603	-0.479732	1.103514
O256	O	0.796692	-0.552697	0.683128
O257	O	1.130025	-0.219363	1.016461
O258	O	1.463358	0.113970	1.349794
H259	H	0.802918	-0.547117	0.741671
H260	H	1.136251	-0.213784	1.075005
H261	H	1.469585	0.119549	1.408338
H262	H	1.036033	-0.338126	1.051864
H263	H	1.369366	-0.004793	1.385197
H264	H	1.702699	0.328541	1.718530
H265	H	0.173299	-0.542497	0.369965
H266	H	0.506632	-0.209163	0.703299
H267	H	0.839965	0.124170	1.036632
H268	H	0.843076	-0.511095	1.012885
H269	H	1.176410	-0.177762	1.346218
H270	H	1.509743	0.155571	1.679552
O271	O	0.803917	-0.546224	0.531803
O272	O	1.137250	-0.212890	0.865137
O273	O	1.470583	0.120443	1.198470
H274	H	0.765148	-0.580975	0.561877
H275	H	1.098481	-0.247642	0.895210
H276	H	1.431814	0.085691	1.228544
H277	H	1.010477	-0.361083	0.583247
H278	H	1.343811	-0.027750	0.916581
H279	H	1.677144	0.305584	1.249914
H280	H	0.680768	-0.329957	0.225440
H281	H	1.014101	0.003377	0.558773
H282	H	1.347435	0.336710	0.892106
H283	H	0.794712	-0.998454	0.154413
H284	H	1.128046	-0.665121	0.487747
H285	H	1.461379	-0.331787	0.821080
O286	O	1.017761	-0.354535	0.727786
O287	O	1.351094	-0.021201	1.061119
O288	O	1.684427	0.312132	1.394453
H289	H	1.070828	-0.369849	0.713061
H290	H	1.404162	-0.036515	1.046394
H291	H	1.737495	0.296818	1.379727
O292	O	0.497405	-0.524901	0.357796
O293	O	0.830738	-0.191568	0.691129
O294	O	1.164071	0.141765	1.024463
H295	H	0.511037	-0.514759	0.415453
H296	H	0.844371	-0.181425	0.748787
H297	H	1.177704	0.151908	1.082120
O298	O	0.205384	-0.340651	0.232728
O299	O	0.538718	-0.007318	0.566061
O300	O	0.872051	0.326015	0.899394
H301	H	0.250377	-0.306415	0.209462
H302	H	0.583710	0.026919	0.542795
H303	H	0.917043	0.360252	0.876129
H304	H	0.901007	-1.132138	0.269762
H305	H	1.234340	-0.798805	0.603095
H306	H	1.567674	-0.465472	0.936428
O307	O	0.998299	-0.770856	0.375407
O308	O	1.331632	-0.437523	0.708740
O309	O	1.664966	-0.104190	1.042074
H310	H	0.948724	-0.747605	0.391773
H311	H	1.282058	-0.414272	0.725107
H312	H	1.615391	-0.080938	1.058440
O313	O	0.855306	-1.100766	0.220145
O314	O	1.188639	-0.767432	0.553478
O315	O	1.521973	-0.434099	0.886812
H316	H	0.834994	-1.123773	0.268259
H317	H	1.168327	-0.790440	0.601593
H318	H	1.501661	-0.457106	0.934926
