data_functionalizedCrystal
_audit_creation_method	'MofGen! by Chris Wilmer'
_symmetry_space_group_name_H-M	'P1'
_symmetry_Int_Tables_number	1
_symmetry_cell_setting	triclinic
loop_
_symmetry_equiv_pos_as_xyz
  x,y,z
_cell_length_a	14.971482
_cell_length_b	11.026607
_cell_length_c	13.448316
_cell_angle_alpha	89.996104
_cell_angle_beta	89.993798
_cell_angle_gamma	96.099312
loop_
_atom_site_label
_atom_site_type_symbol
_atom_site_fract_x
_atom_site_fract_y
_atom_site_fract_z
O1	O	1.212291	0.158159	-0.082676
O2	O	0.954926	0.177106	-0.082680
O3	O	1.062278	-0.009051	-0.082675
O4	O	1.104939	0.344316	-0.082681
O5	O	1.062259	-0.009063	0.082709
O6	O	0.954907	0.177094	0.082703
O7	O	1.212272	0.158147	0.082708
Cu8	Cu	1.083588	0.167620	0.097807
Cu9	Cu	1.083610	0.167633	-0.097779
O10	O	1.104919	0.344304	0.082702
C11	C	0.921456	0.176254	0.000011
C12	C	0.821752	0.173717	0.000009
C13	C	0.774906	0.172516	0.090161
C14	C	0.681222	0.170113	0.090162
C15	C	0.634388	0.168919	0.000010
C16	C	0.681240	0.170117	-0.090148
C17	C	0.774922	0.172511	-0.090148
C18	C	0.485979	0.165129	-0.090142
C19	C	0.392292	0.162737	-0.090142
C20	C	0.392280	0.162731	0.090169
C21	C	0.485961	0.165125	0.090169
C22	C	0.532808	0.166325	0.000009
C23	C	1.054399	-0.054279	0.000016
C24	C	1.030938	-0.189027	0.000012
C25	C	1.095717	-0.262740	0.000011
C26	C	1.071471	-0.402009	0.000007
C27	C	1.245742	0.158999	0.000014
C28	C	1.345445	0.161536	0.000010
C29	C	1.112799	0.389532	0.000010
C30	C	1.136260	0.524280	0.000007
N31	N	1.083578	0.167609	0.235371
N32	N	1.083625	0.167634	-0.235343
C33	C	1.131138	0.085213	0.287414
C34	C	1.131143	0.085212	0.391517
C35	C	1.083594	0.167614	0.443575
C36	C	1.036028	0.250015	0.391525
C37	C	1.036018	0.250009	0.287424
C38	C	1.036054	0.250023	0.608505
C39	C	1.036065	0.250030	0.712614
C40	C	1.131180	0.085226	0.712598
C41	C	1.131170	0.085220	0.608497
C42	C	1.083605	0.167622	0.556454
H43	H	0.813063	0.173491	-0.163559
H44	H	1.169128	-0.222743	0.000019
N45	N	1.182463	-0.003646	0.447633
H46	H	1.139644	-0.057488	0.490841
H47	H	1.212584	-0.055743	0.398780
H48	H	1.169863	0.018117	0.245034
H49	H	1.169908	0.018131	0.754978
N50	N	1.233509	-0.422766	0.000001
H51	H	1.237048	-0.330783	0.000002
H52	H	1.264255	-0.451112	0.061311
N53	N	0.984791	0.338915	0.768767
H54	H	0.954655	0.391114	0.720004
H55	H	0.937765	0.292364	0.811983
H56	H	0.957527	-0.229024	0.000004
H57	H	1.169893	0.018128	0.566111
N58	N	0.984749	0.338892	0.552370
H59	H	0.954629	0.391098	0.601143
H60	H	1.027637	0.392626	0.509163
H61	H	0.354133	0.161754	0.163580
N62	N	0.974222	-0.454966	-0.000004
H63	H	0.970685	-0.546948	-0.000008
H64	H	0.943461	-0.426638	0.061306
N65	N	0.984746	0.338890	0.447679
H66	H	1.008915	0.425060	0.429547
H67	H	0.919002	0.324663	0.429561
N68	N	0.984715	0.338878	0.231294
H69	H	1.008886	0.425053	0.249395
H70	H	0.991934	0.326264	0.157465
H71	H	0.813033	0.173497	0.163573
H72	H	0.524092	0.166104	0.163578
N73	N	0.630691	0.168813	0.187395
H74	H	0.674516	0.169077	0.244506
H75	H	0.597173	0.243443	0.191622
H76	H	0.524119	0.166107	-0.163559
N77	N	0.341774	0.161457	-0.187374
H78	H	0.385664	0.162573	-0.244490
H79	H	0.298050	0.085280	-0.191293
H80	H	0.643100	0.169137	-0.163552
