data_functionalizedCrystal
_audit_creation_method	'MofGen! by Chris Wilmer'
_symmetry_space_group_name_H-M	'P1'
_symmetry_Int_Tables_number	1
_symmetry_cell_setting	triclinic
loop_
_symmetry_equiv_pos_as_xyz
  x,y,z
_cell_length_a	11.026607
_cell_length_b	11.792241
_cell_length_c	10.065875
_cell_angle_alpha	98.849501
_cell_angle_beta	79.302338
_cell_angle_gamma	96.389716
loop_
_atom_site_label
_atom_site_type_symbol
_atom_site_fract_x
_atom_site_fract_y
_atom_site_fract_z
O1	O	1.630965	0.462836	-0.113504
O2	O	2.130965	0.962836	0.386496
O3	O	1.277303	0.408644	-0.113505
O4	O	1.777303	0.908644	0.386495
O5	O	1.462715	0.272275	-0.113495
O6	O	1.962715	0.772275	0.386505
O7	O	1.445553	0.599205	-0.113514
O8	O	1.945553	1.099205	0.386486
O9	O	1.427360	0.298412	0.113492
O10	O	1.927360	0.798412	0.613492
O11	O	1.241948	0.434781	0.113482
O12	O	1.741948	0.934781	0.613482
O13	O	1.595611	0.488973	0.113483
O14	O	2.095611	0.988973	0.613483
Zn15	Zn	1.413166	0.466027	0.149522
Zn16	Zn	1.913166	0.966027	0.649522
Zn17	Zn	1.459747	0.431590	-0.149543
Zn18	Zn	1.959747	0.931590	0.350457
O19	O	1.410198	0.625342	0.113473
O20	O	1.910198	1.125342	0.613473
C21	C	1.214349	0.411715	-0.000011
C22	C	1.714349	0.911715	0.499989
C23	C	1.079439	0.381912	-0.000011
C24	C	1.579439	0.881912	0.499989
C25	C	1.006175	0.464202	-0.000017
C26	C	1.506175	0.964202	0.499983
C27	C	0.866738	0.433401	-0.000017
C28	C	1.366738	0.933401	0.499983
C29	C	1.443960	0.242838	-0.000002
C30	C	1.943960	0.742838	0.499998
C31	C	1.440732	0.116183	-0.000003
C32	C	1.940732	0.616183	0.499997
C33	C	1.434802	-0.115710	-0.000026
C34	C	1.934802	0.384290	0.499974
C35	C	1.438097	0.013332	-0.000013
C36	C	1.938097	0.513332	0.499987
C37	C	1.658565	0.485901	-0.000014
C38	C	2.158565	0.985901	0.499986
C39	C	1.793477	0.515703	-0.000023
C40	C	2.293477	1.015703	0.499977
C41	C	1.428954	0.654778	-0.000023
C42	C	1.928954	1.154778	0.499977
C43	C	1.432183	0.781432	-0.000031
C44	C	1.932183	1.281432	0.499969
N45	N	1.381384	0.489530	0.353626
N46	N	1.881384	0.989530	0.853626
N47	N	1.491539	0.408079	-0.353647
N48	N	1.991539	0.908079	0.146353
C49	C	1.448682	0.439759	0.421408
C50	C	1.948682	0.939759	0.921408
C51	C	1.424231	0.457858	0.578574
C52	C	1.924231	0.957858	1.078574
H53	H	1.046680	0.557456	-0.000015
H54	H	1.546680	1.057456	0.499985
H55	H	0.826244	0.340138	-0.000046
H56	H	1.326244	0.840138	0.499954
C57	C	1.279097	0.565199	0.432402
C58	C	1.779097	1.065199	0.932402
H59	H	1.276088	0.567444	0.527701
H60	H	1.776088	1.067444	1.027701
H61	H	1.201470	0.533780	0.409071
H62	H	1.701470	1.033780	0.909071
H63	H	1.296644	0.641071	0.409045
H64	H	1.796644	1.141071	0.909045
C65	C	1.593862	0.332441	0.567584
C66	C	2.093862	0.832441	1.067584
H67	H	1.596893	0.330217	0.472285
H68	H	2.096893	0.830217	0.972285
H69	H	1.576362	0.256568	0.590926
H70	H	2.076362	0.756568	1.090926
H71	H	1.671478	0.363903	0.590933
H72	H	2.171478	0.863903	1.090933
H73	H	1.038938	0.288655	-0.000041
H74	H	1.538938	0.788655	0.499959
H75	H	0.833974	0.608964	-0.000019
H76	H	1.333974	1.108964	0.499981
C77	C	1.321939	0.533531	0.657345
C78	C	1.821939	1.033531	1.157345
H79	H	1.318930	0.535776	0.752644
H80	H	1.818930	1.035776	1.252644
H81	H	1.244312	0.502112	0.634014
H82	H	1.744312	1.002112	1.134014
H83	H	1.339486	0.609403	0.633989
H84	H	1.839486	1.109403	1.133989
H85	H	1.524395	0.383742	0.363088
H86	H	2.024395	0.883742	0.863088
