data_functionalizedCrystal
_audit_creation_method	'MofGen! by Chris Wilmer'
_symmetry_space_group_name_H-M	'P1'
_symmetry_Int_Tables_number	1
_symmetry_cell_setting	triclinic
loop_
_symmetry_equiv_pos_as_xyz
  x,y,z
_cell_length_a	16.053967
_cell_length_b	16.109301
_cell_length_c	16.109298
_cell_angle_alpha	96.539166
_cell_angle_beta	87.115366
_cell_angle_gamma	92.874776
loop_
_atom_site_label
_atom_site_type_symbol
_atom_site_fract_x
_atom_site_fract_y
_atom_site_fract_z
O1	O	0.069365	-1.100017	0.103744
O2	O	0.069377	-0.857955	0.117043
O3	O	0.069377	-0.985637	-0.010638
O4	O	0.069365	-0.972335	0.231425
O5	O	-0.069479	-0.991858	-0.004390
O6	O	-0.069479	-0.864176	0.123291
O7	O	-0.069491	-1.106239	0.109992
Zn8	Zn	-0.091531	-0.986195	0.117634
Zn9	Zn	0.091417	-0.977998	0.109401
O10	O	-0.069491	-0.978557	0.237673
C11	C	-0.000049	-0.830090	0.119628
C12	C	-0.000044	-0.737795	0.118013
N13	N	-0.216389	-0.991795	0.123252
N14	N	0.216275	-0.972405	0.103776
C15	C	0.259991	-1.020738	0.152346
C16	C	0.347396	-1.016804	0.148397
C17	C	0.391084	-0.964540	0.095874
C18	C	0.347361	-0.916200	0.047303
C19	C	0.259958	-0.920131	0.051257
C20	C	0.652485	-0.947387	0.078635
C21	C	0.739895	-0.943462	0.074683
C22	C	0.739924	-1.044064	0.175778
C23	C	0.652519	-1.047994	0.179723
C24	C	0.608804	-0.999652	0.131156
N25	N	0.480425	-0.960519	0.091835
N26	N	0.519464	-1.003668	0.135200
C27	C	-0.000048	-0.988209	-0.038489
C28	C	-0.000038	-0.986594	-0.130785
C29	C	-0.000063	-1.134103	0.107407
C30	C	-0.000062	-1.226398	0.109022
C31	C	-0.000057	-0.515522	0.190021
C32	C	-0.000062	-0.428802	0.188497
C33	C	-0.000052	-0.448678	0.037008
C34	C	-0.000053	-0.535396	0.038533
C35	C	-0.000051	-0.568816	0.115042
C36	C	-0.000056	-0.395377	0.111993
C37	C	-0.000061	-0.301351	0.110340
C38	C	-0.000047	-0.662848	0.116695
C39	C	0.075635	-0.977937	-0.433259
C40	C	0.075641	-0.979464	-0.346539
C41	C	-0.075748	-0.986259	-0.339712
C42	C	-0.075753	-0.984737	-0.426431
C43	C	-0.000059	-0.980572	-0.473202
C44	C	-0.000048	-0.983621	-0.299763
C45	C	-0.000042	-0.985277	-0.205738
C46	C	-0.000064	-0.978917	-0.567233
C47	C	-0.000064	-0.975984	0.265524
C48	C	-0.000068	-0.977599	0.357820
H49	H	0.224427	-1.063301	0.195112
C50	C	-0.000069	-0.287046	0.253427
C51	C	-0.000065	-0.370220	0.270917
H52	H	-0.000076	-0.250882	0.304312
H53	H	0.048350	-0.274748	0.219881
H54	H	-0.048495	-0.279098	0.224236
H55	H	0.048364	-0.378169	0.300102
H56	H	-0.048489	-0.382522	0.304475
C57	C	0.661330	-1.147027	0.279269
C58	C	0.604500	-1.105436	0.237467
H59	H	0.631683	-1.182486	0.314920
H60	H	0.695414	-1.179641	0.239534
H61	H	0.695426	-1.107157	0.311715
H62	H	0.570408	-1.145307	0.205016
H63	H	0.570402	-1.072820	0.277207
C64	C	-0.142960	-0.991599	-0.203745
C65	C	-0.158947	-0.990826	-0.288297
H66	H	-0.194327	-0.994411	-0.172006
H67	H	-0.111866	-1.038905	-0.197293
H68	H	-0.111857	-0.941996	-0.184590
H69	H	-0.190046	-1.040433	-0.307454
H70	H	-0.190055	-0.943515	-0.294753
H71	H	0.137270	-0.974544	-0.471337
C72	C	0.374230	-0.882659	-0.093291
C73	C	0.395376	-0.858749	-0.010433
H74	H	0.403867	-0.847187	-0.128935
H75	H	0.388563	-0.938912	-0.109259
H76	H	0.315916	-0.878081	-0.097873
H77	H	0.453689	-0.863333	-0.005850
H78	H	0.381049	-0.802482	0.005540
H79	H	-0.000062	-0.542729	0.252320
C80	C	-0.000038	-0.324568	-0.032595
C81	C	-0.000043	-0.411939	-0.047088
H82	H	-0.000025	-0.301890	-0.084516
H83	H	-0.048460	-0.308449	0.000446
H84	H	0.048385	-0.304111	-0.003899
H85	H	-0.048469	-0.432396	-0.075780
H86	H	0.048384	-0.428065	-0.080143
H87	H	-0.137395	-0.986886	-0.458953
H88	H	0.137278	-0.977320	-0.314022
H89	H	-0.000050	-0.578791	-0.022528
H90	H	0.775525	-1.083421	0.215321
C91	C	0.338646	-1.116652	0.248707
C92	C	0.395449	-1.069940	0.201780
H93	H	0.368313	-1.149461	0.281661
H94	H	0.304558	-1.079861	0.284243
H95	H	0.304551	-1.152323	0.212040
H96	H	0.429540	-1.034264	0.238447
H97	H	0.429550	-1.106735	0.166241
H98	H	0.616903	-0.908025	0.039084
C99	C	0.731092	-0.844397	-0.024841
C100	C	0.787918	-0.886003	0.016951
H101	H	0.760742	-0.808924	-0.060476
H102	H	0.697000	-0.884251	-0.057294
H103	H	0.697004	-0.811787	0.014908
H104	H	0.822002	-0.918618	-0.022798
H105	H	0.822024	-0.846143	0.049406
H106	H	0.224365	-0.880771	0.011708
