data_functionalizedCrystal
_audit_creation_method	'MofGen! by Chris Wilmer'
_symmetry_space_group_name_H-M	'P1'
_symmetry_Int_Tables_number	1
_symmetry_cell_setting	triclinic
loop_
_symmetry_equiv_pos_as_xyz
  x,y,z
_cell_length_a	27.732048
_cell_length_b	27.731996
_cell_length_c	9.198806
_cell_angle_alpha	89.990861
_cell_angle_beta	90.001567
_cell_angle_gamma	82.632022
loop_
_atom_site_label
_atom_site_type_symbol
_atom_site_fract_x
_atom_site_fract_y
_atom_site_fract_z
O1	O	0.640916	0.057517	-0.120724
O2	O	0.500121	0.066263	-0.120770
O3	O	0.574904	-0.008508	-0.120714
O4	O	0.566133	0.132289	-0.120780
O5	O	0.574899	-0.008508	0.121071
O6	O	0.500115	0.066263	0.121015
O7	O	0.640910	0.057517	0.121061
Cu8	Cu	0.570512	0.061890	0.143115
Cu9	Cu	0.570519	0.061890	-0.142824
O10	O	0.566127	0.132289	0.121005
C11	C	0.482111	0.066079	0.000117
C12	C	0.428456	0.065527	0.000100
C13	C	0.089634	0.106231	0.000144
C14	C	-0.112026	0.104180	0.000158
O15	O	-0.143288	0.141402	0.000204
N16	N	-0.131141	0.059844	0.000176
C17	C	-0.099838	0.016017	0.000201
O18	O	-0.120724	-0.021740	0.000231
C19	C	0.101820	0.018069	0.000197
C20	C	0.120933	0.062408	0.000164
C21	C	0.108747	0.150567	0.000113
C22	C	0.159159	0.151079	0.000102
C23	C	0.190457	0.107256	0.000121
C24	C	0.171344	0.062920	0.000153
C25	C	0.133122	-0.025757	0.000232
C26	C	0.183539	-0.025240	0.000234
C27	C	0.202652	0.019099	0.000201
C28	C	0.253055	0.019609	0.000161
N29	N	0.272171	0.063946	0.000143
C30	C	0.240872	0.107769	0.000123
C31	C	-0.205712	0.014943	0.000200
C32	C	-0.256126	0.014430	0.000198
C33	C	-0.268310	0.102594	0.000158
C34	C	-0.217895	0.103106	0.000150
C35	C	-0.186597	0.059280	0.000181
C36	C	0.346741	0.108842	0.000098
C37	C	0.397158	0.109350	0.000080
C38	C	0.409337	0.021187	0.000128
C39	C	0.358925	0.020678	0.000138
C40	C	0.327627	0.064510	0.000128
O41	O	0.284346	-0.017592	0.000132
O42	O	0.261767	0.145521	0.000125
C43	C	0.039222	0.105719	0.000156
C44	C	0.020109	0.061384	0.000187
C45	C	0.051408	0.017560	0.000207
C46	C	-0.030305	0.060871	0.000185
C47	C	-0.061604	0.104694	0.000165
C48	C	-0.042489	0.149030	0.000147
C49	C	0.007923	0.149543	0.000136
C50	C	0.032292	-0.026776	0.000225
C51	C	-0.018120	-0.027285	0.000235
C52	C	-0.049419	0.016539	0.000215
C53	C	0.574721	-0.026516	0.000183
C54	C	0.574179	-0.080172	0.000198
C55	C	0.570767	-0.412888	-0.131671
C56	C	0.568706	-0.614546	-0.131697
O57	O	0.568421	-0.640617	-0.243787
N58	N	0.568447	-0.639764	0.000098
C59	C	0.568700	-0.614563	0.131910
O60	O	0.568427	-0.640638	0.244010
C61	C	0.570757	-0.412905	0.131935
C62	C	0.571021	-0.387691	0.000130
C63	C	0.571031	-0.387674	-0.263465
C64	C	0.571548	-0.337263	-0.263457
C65	C	0.571803	-0.312066	-0.131655
C66	C	0.571539	-0.337280	0.000138
C67	C	0.571007	-0.387705	0.263745
C68	C	0.571520	-0.337287	0.263739
C69	C	0.571784	-0.312073	0.131935
C70	C	0.572311	-0.261672	0.131948
N71	N	0.572571	-0.236454	0.000152
C72	C	0.572316	-0.261652	-0.131650
C73	C	0.567620	-0.720436	0.131888
C74	C	0.567107	-0.770850	0.131882
C75	C	0.567112	-0.770831	-0.131726
C76	C	0.567629	-0.720416	-0.131719
C77	C	0.567880	-0.695219	0.000092
C78	C	0.573404	-0.155784	-0.131623
C79	C	0.573924	-0.105369	-0.131604
C80	C	0.573916	-0.105393	0.132003
C81	C	0.573399	-0.155804	0.131985
C82	C	0.573141	-0.180999	0.000160
O83	O	0.572591	-0.235569	0.243978
O84	O	0.572578	-0.235566	-0.243733
C85	C	0.570249	-0.463299	-0.131679
C86	C	0.569986	-0.488513	0.000114
C87	C	0.570240	-0.463316	0.131916
C88	C	0.569472	-0.538928	0.000109
C89	C	0.569218	-0.564125	-0.131693
C90	C	0.569477	-0.538908	-0.263488
C91	C	0.569995	-0.488497	-0.263481
C92	C	0.569981	-0.488533	0.263712
C93	C	0.569463	-0.538945	0.263693
C94	C	0.569209	-0.564142	0.131892
C95	C	0.658920	0.057701	0.000171
C96	C	0.712575	0.058254	0.000178
C97	C	0.566310	0.150296	0.000105
C98	C	0.566853	0.203952	0.000080
N99	N	0.570511	0.061890	0.344229
N100	N	0.570524	0.061887	-0.343938
C101	C	0.601912	0.030359	0.416450
C102	C	0.601920	0.030357	0.583862
H103	H	0.083267	0.186255	0.000102
H104	H	0.567827	-0.699926	0.239230
O105	O	-0.072878	0.191614	-0.000129
C106	C	-0.098715	0.266822	-0.125368
C107	C	-0.064278	0.218613	-0.125264
H108	H	-0.091767	0.288669	-0.226513
H109	H	-0.138039	0.258862	-0.125450
H110	H	-0.091811	0.288640	-0.024145
H111	H	-0.071138	0.196771	-0.226470
H112	H	-0.024966	0.226607	-0.125107
H113	H	0.543630	0.088881	0.406337
O114	O	0.538430	0.094141	0.582215
C115	C	0.472861	0.159945	0.597936
C116	C	0.509188	0.123451	0.681762
H117	H	0.449203	0.183645	0.678384
H118	H	0.493613	0.183897	0.526701
H119	H	0.448851	0.139284	0.526650
H120	H	0.533208	0.144073	0.753128
H121	H	0.488406	0.099501	0.752906
O122	O	0.633933	-0.001902	0.342401
C123	C	0.662694	-0.086179	0.295540
C124	C	0.626396	-0.049701	0.379479
H125	H	0.656620	-0.124832	0.325510
H126	H	0.656965	-0.080468	0.173713
H127	H	0.701397	-0.080237	0.325333
H128	H	0.587678	-0.055621	0.349808
H129	H	0.632167	-0.055421	0.501286
O130	O	0.570819	-0.412227	0.391732
C131	C	0.612067	-0.474976	0.544750
C132	C	0.612357	-0.447234	0.399765
H133	H	0.645642	-0.503292	0.551279
H134	H	0.612359	-0.448332	0.639015
H135	H	0.577961	-0.493866	0.551247
H136	H	0.646457	-0.428343	0.393127
H137	H	0.612040	-0.473901	0.305569
H138	H	0.571717	-0.316773	0.371078
O139	O	-0.175380	-0.027677	0.000157
C140	C	-0.168630	-0.115176	0.000273
C141	C	-0.203032	-0.066945	0.000296
H142	H	-0.190972	-0.146936	0.000417
H143	H	-0.144732	-0.117176	-0.100936
H144	H	-0.144711	-0.117119	0.101437
H145	H	-0.226981	-0.064969	-0.100799
H146	H	-0.226896	-0.064965	0.101572
H147	H	0.569272	-0.559432	-0.370806
H148	H	0.174715	0.187185	0.000074
H149	H	0.566899	-0.791376	0.239210
O150	O	-0.036705	-0.070347	0.000005
C151	C	-0.086573	-0.122092	-0.125152
C152	C	-0.065551	-0.073314	-0.125106
H153	H	-0.109907	-0.124501	-0.226278
H154	H	-0.055556	-0.153341	-0.125231
H155	H	-0.109845	-0.124529	-0.023909
H156	H	-0.042285	-0.070829	-0.226332
H157	H	-0.096590	-0.042087	-0.124952
O158	O	0.573126	-0.180223	0.260146
C159	C	0.573202	-0.174920	0.521608
C160	C	0.573507	-0.147210	0.376570
H161	H	0.573520	-0.148242	0.615775
H162	H	0.539108	-0.193823	0.528283
H163	H	0.606791	-0.203219	0.528132
H164	H	0.539941	-0.118888	0.369949
H165	H	0.607623	-0.128340	0.369956
O166	O	-0.199412	0.146219	0.000192
C167	C	-0.216831	0.233610	0.000058
C168	C	-0.237824	0.184817	0.000040
H169	H	-0.247878	0.264829	-0.000095
H170	H	-0.193553	0.236091	0.101271
H171	H	-0.193516	0.236030	-0.101102
H172	H	-0.261161	0.182364	0.101132
H173	H	-0.261075	0.182357	-0.101239
H174	H	0.057772	-0.062463	0.000245
O175	O	0.574074	-0.080874	0.259985
C176	C	0.532760	-0.018138	0.412852
C177	C	0.532522	-0.045880	0.267881
H178	H	0.499175	0.010168	0.419270
H179	H	0.532450	-0.044784	0.507130
H180	H	0.566856	0.000764	0.419436
H181	H	0.498432	-0.064783	0.261155
H182	H	0.532858	-0.019211	0.173672
H183	H	0.628806	0.003364	0.645968
O184	O	0.571687	-0.312728	-0.391441
C185	C	0.530243	-0.250098	-0.544479
C186	C	0.530067	-0.277822	-0.399435
H187	H	0.496592	-0.221877	-0.551003
H188	H	0.564281	-0.231111	-0.551296
H189	H	0.529972	-0.276811	-0.638573
H190	H	0.530320	-0.251142	-0.305258
H191	H	0.496032	-0.296817	-0.392745
H192	H	0.570210	-0.467972	-0.370809
H193	H	0.412716	0.145458	0.000053
H194	H	0.569252	-0.559470	0.371032
H195	H	0.321264	0.144533	0.000094
H196	H	-0.293803	0.138276	0.000142
H197	H	0.209021	-0.060930	0.000261
O198	O	-0.274712	-0.028629	-0.000046
C199	C	-0.324575	-0.080369	-0.125237
C200	C	-0.303553	-0.031591	-0.125168
H201	H	-0.347906	-0.082776	-0.226372
H202	H	-0.293559	-0.111619	-0.125314
H203	H	-0.347851	-0.082809	-0.024003
H204	H	-0.280283	-0.029103	-0.226385
H205	H	-0.334592	-0.000365	-0.125016
H206	H	0.117570	-0.061863	0.000260
O207	O	0.566883	-0.795239	-0.259891
C208	C	0.566898	-0.789909	-0.521355
C209	C	0.567175	-0.762205	-0.376325
H210	H	0.567123	-0.763211	-0.615530
H211	H	0.600505	-0.818180	-0.528045
H212	H	0.532822	-0.808844	-0.527849
H213	H	0.601229	-0.743240	-0.369733
H214	H	0.533545	-0.733962	-0.369697
O215	O	0.340412	-0.022421	-0.000040
C216	C	0.335370	-0.097917	-0.125305
C217	C	0.356373	-0.049129	-0.125284
H218	H	0.348258	-0.119520	-0.226569
H219	H	0.348307	-0.119588	-0.024182
H220	H	0.293962	-0.090744	-0.125221
H221	H	0.397781	-0.056258	-0.125419
H222	H	0.343398	-0.027474	-0.226398
O223	O	0.439795	-0.021349	-0.000043
C224	C	0.503774	-0.071944	-0.125306
C225	C	0.469314	-0.023750	-0.125291
H226	H	0.527641	-0.073906	-0.226574
H227	H	0.527715	-0.073907	-0.024187
H228	H	0.481448	-0.103717	-0.125210
H229	H	0.491600	0.008050	-0.125439
H230	H	0.445371	-0.021830	-0.226402
O231	O	0.026545	0.192582	0.000294
C232	C	0.076366	0.244350	0.125544
C233	C	0.055322	0.195584	0.125534
H234	H	0.099628	0.246797	0.226805
H235	H	0.099692	0.246800	0.024418
H236	H	0.045324	0.275573	0.125456
H237	H	0.086333	0.164333	0.125673
H238	H	0.031983	0.193176	0.226651
O239	O	0.570699	-0.412156	-0.391471
C240	C	0.528253	-0.463290	-0.544493
C241	C	0.528557	-0.435581	-0.399480
H242	H	0.494190	-0.482245	-0.551003
H243	H	0.528498	-0.436618	-0.638731
H244	H	0.561872	-0.491549	-0.551059
H245	H	0.494944	-0.407322	-0.392772
H246	H	0.528337	-0.462282	-0.305311
O247	O	0.567808	-0.695866	-0.259668
C248	C	0.526456	-0.633186	-0.412720
C249	C	0.526208	-0.660937	-0.267739
H250	H	0.492822	-0.604947	-0.419305
H251	H	0.560510	-0.614219	-0.419367
H252	H	0.526207	-0.659878	-0.506875
H253	H	0.526440	-0.634277	-0.173501
H254	H	0.492157	-0.679912	-0.261219
H255	H	0.574140	-0.084842	-0.238939
H256	H	0.570189	-0.468023	0.371043
H257	H	0.573192	-0.176291	-0.238968
