data_functionalizedCrystal
_audit_creation_method	'MofGen! by Chris Wilmer'
_symmetry_space_group_name_H-M	'P1'
_symmetry_Int_Tables_number	1
_symmetry_cell_setting	triclinic
loop_
_symmetry_equiv_pos_as_xyz
  x,y,z
_cell_length_a	15.944551
_cell_length_b	15.021413
_cell_length_c	11.026607
_cell_angle_alpha	89.993772
_cell_angle_beta	83.957623
_cell_angle_gamma	90.000521
loop_
_atom_site_label
_atom_site_type_symbol
_atom_site_fract_x
_atom_site_fract_y
_atom_site_fract_z
O1	O	1.138185	0.073935	-0.156518
O2	O	0.896552	0.073956	-0.175814
O3	O	0.997342	0.073944	0.010489
O4	O	1.037395	0.073947	-0.342821
O5	O	0.997328	-0.074120	0.010508
O6	O	0.896538	-0.074108	-0.175795
O7	O	1.138170	-0.074129	-0.156499
Zn8	Zn	1.017352	-0.097627	-0.166144
Zn9	Zn	1.017371	0.097454	-0.166169
O10	O	1.037380	-0.074117	-0.342801
C11	C	0.865130	-0.000073	-0.175003
C12	C	0.771521	-0.000065	-0.172602
N13	N	1.017345	-0.230765	-0.166126
C14	C	1.063400	-0.529761	-0.079295
C15	C	1.096914	-0.470396	-0.188619
C16	C	1.017371	-0.587802	-0.166163
C17	C	0.983885	-0.470426	-0.056824
C18	C	1.017359	-0.412377	-0.166138
C19	C	1.050930	-0.529742	-0.275541
C20	C	0.937857	-0.529777	-0.143674
C21	C	0.971350	-0.470438	-0.253077
C22	C	1.017379	-0.688859	-0.166175
C23	C	1.017352	-0.311322	-0.166139
C24	C	0.538340	-0.000083	-0.051382
C25	C	0.485836	0.072921	-0.107682
C26	C	0.600138	-0.000075	-0.168257
C27	C	0.485848	-0.073059	-0.107691
C28	C	0.434590	-0.000089	-0.164052
C29	C	0.548867	0.072989	-0.224589
C30	C	0.548883	-0.073056	-0.224581
C31	C	0.496410	-0.000034	-0.280966
C32	C	0.695506	-0.000066	-0.170676
C33	C	0.339224	-0.000092	-0.161642
C34	C	1.169593	-0.000098	-0.157309
C35	C	1.263202	-0.000101	-0.159711
C36	C	0.989946	-0.000086	0.055710
C37	C	0.967919	-0.000081	0.190426
N38	N	1.017382	0.230592	-0.166177
C39	C	1.044776	-0.000085	-0.388022
C40	C	1.066803	-0.000084	-0.522738
C41	C	1.028739	-0.000085	0.264226
C42	C	1.005975	-0.000080	0.403463
H43	H	1.164153	-0.444312	-0.207638
C44	C	0.471433	0.000024	-0.412131
C45	C	0.500164	-0.076450	-0.499820
C46	C	0.475185	-0.076384	-0.630982
C47	C	0.421475	0.000156	-0.674455
C48	C	0.392741	0.076635	-0.586764
C49	C	0.417720	0.076569	-0.455602
H50	H	0.539926	-0.133115	-0.467640
H51	H	0.496456	-0.133000	-0.695896
H52	H	0.402984	0.000205	-0.771549
H53	H	0.352979	0.133300	-0.618944
H54	H	0.396449	0.133185	-0.390688
H55	H	1.079319	-0.555689	-0.368020
C56	C	1.116050	-0.564961	0.019818
C57	C	1.125105	-0.665941	0.038714
C58	C	1.177757	-0.701142	0.137819
C59	C	1.221354	-0.635363	0.218029
C60	C	1.212301	-0.534377	0.199135
C61	C	1.159649	-0.499176	0.100030
H62	H	1.092830	-0.714640	-0.020664
H63	H	1.184458	-0.775899	0.151805
H64	H	1.260330	-0.661421	0.291393
H65	H	1.244575	-0.485678	0.258513
H66	H	1.152947	-0.424419	0.086044
H67	H	0.458259	0.134640	-0.058257
C68	C	0.448606	-0.156438	-0.040881
C69	C	0.474821	-0.249788	-0.088567
C70	C	0.437581	-0.333162	-0.021748
C71	C	0.374125	-0.323186	0.092756
C72	C	0.347906	-0.229832	0.140448
C73	C	0.385147	-0.146458	0.073629
H74	H	0.521798	-0.257176	-0.173335
H75	H	0.456990	-0.402268	-0.057054
H76	H	0.346558	-0.384904	0.142219
H77	H	0.300930	-0.222444	0.225216
H78	H	0.365738	-0.077352	0.108934
H79	H	0.576328	0.134776	-0.273993
H80	H	0.898996	-0.000069	0.230323
H81	H	1.135731	-0.000023	0.437372
H82	H	0.937047	-0.000068	0.443354
C83	C	0.918769	-0.435462	-0.352403
C84	C	0.944170	-0.459092	-0.487160
C85	C	0.891593	-0.424114	-0.586488
C86	C	0.813614	-0.365506	-0.551059
C87	C	0.788209	-0.341873	-0.416296
C88	C	0.840786	-0.376851	-0.316968
H89	H	1.001898	-0.502480	-0.513393
H90	H	0.910400	-0.441609	-0.686250
H91	H	0.774694	-0.339613	-0.624588
H92	H	0.730481	-0.298486	-0.390063
H93	H	0.821979	-0.359357	-0.217207
H94	H	0.870632	-0.555880	-0.124620
H95	H	0.955569	-0.444369	0.035632
C96	C	1.121852	-0.000096	0.210340
C97	C	1.156445	-0.076986	0.127258
C98	C	1.249560	-0.076997	0.073374
C99	C	1.308084	-0.000116	0.102572
C100	C	1.273492	0.076781	0.185658
C101	C	1.180377	0.076791	0.239542
H102	H	1.113121	-0.133903	0.105640
H103	H	1.275166	-0.133921	0.011868
H104	H	1.377013	-0.000124	0.062684
H105	H	1.316816	0.133697	0.207276
H106	H	1.154770	0.133715	0.301048
C107	C	0.563533	0.000010	0.079668
C108	C	0.536150	0.077350	0.166605
C109	C	0.561346	0.077447	0.297651
C110	C	0.613923	0.000204	0.341760
C111	C	0.641309	-0.077142	0.254822
C112	C	0.616113	-0.077239	0.123776
H113	H	0.497227	0.134535	0.133954
H114	H	0.541073	0.134704	0.362008
H115	H	0.632574	0.000276	0.438768
H116	H	0.680232	-0.134327	0.287473
H117	H	0.636386	-0.134496	0.059419
H118	H	0.576475	-0.134778	-0.273966
