data_functionalizedCrystal
_audit_creation_method	'MofGen! by Chris Wilmer'
_symmetry_space_group_name_H-M	'P1'
_symmetry_Int_Tables_number	1
_symmetry_cell_setting	triclinic
loop_
_symmetry_equiv_pos_as_xyz
  x,y,z
_cell_length_a	12.759401
_cell_length_b	14.908178
_cell_length_c	12.759393
_cell_angle_alpha	93.332413
_cell_angle_beta	90.019404
_cell_angle_gamma	93.313938
loop_
_atom_site_label
_atom_site_type_symbol
_atom_site_fract_x
_atom_site_fract_y
_atom_site_fract_z
Zn1	Zn	1.582097	-0.359138	0.569837
Zn2	Zn	2.082097	0.140862	1.069837
Zn3	Zn	1.571841	-0.510038	0.384002
Zn4	Zn	2.071841	-0.010038	0.884002
Zn5	Zn	1.406396	-0.359184	0.394171
Zn6	Zn	1.906396	0.140816	0.894171
Zn7	Zn	1.396242	-0.509968	0.559645
Zn8	Zn	1.896242	-0.009968	1.059645
O9	O	1.489144	-0.434582	0.476914
O10	O	1.989144	0.065418	0.976914
O11	O	1.727757	-0.379165	0.545195
O12	O	2.227757	0.120835	1.045195
O13	O	1.549851	-0.490076	0.238326
O14	O	2.049851	0.009924	0.738326
O15	O	1.438245	-0.232923	0.425994
O16	O	1.938245	0.267077	0.925994
O17	O	1.720222	-0.490030	0.408663
O18	O	2.220222	0.009970	0.908663
O19	O	1.567332	-0.232889	0.555056
O20	O	2.067332	0.267111	1.055056
O21	O	1.428300	-0.379244	0.245797
O22	O	1.928300	0.120756	0.745797
O23	O	1.258029	-0.379176	0.416111
O24	O	1.758029	0.120824	0.916111
O25	O	1.420939	-0.489911	0.708021
O26	O	1.920939	0.010089	1.208021
O27	O	1.250568	-0.489956	0.537685
O28	O	1.750568	0.010044	1.037685
O29	O	1.557486	-0.379097	0.715509
O30	O	2.057486	0.120903	1.215509
O31	O	1.540005	-0.636284	0.398780
O32	O	2.040005	-0.136284	0.898780
O33	O	1.410993	-0.636232	0.527825
O34	O	1.910993	-0.136232	1.027825
C35	C	1.216178	-0.434564	0.476896
C36	C	1.716178	0.065436	0.976896
C37	C	1.099400	-0.434578	0.476912
C38	C	1.599400	0.065422	0.976912
C39	C	1.473313	-0.668995	0.461116
C40	C	1.973313	-0.168995	0.961116
C41	C	1.466637	-0.769277	0.454393
C42	C	1.966637	-0.269277	0.954393
C43	C	0.938671	-0.376837	0.413744
C44	C	1.438671	0.123163	0.913744
C45	C	1.048396	-0.376819	0.413733
C46	C	1.548396	0.123181	0.913733
C47	C	1.040673	-0.492352	0.540114
C48	C	1.540673	0.007648	1.040114
C49	C	0.930950	-0.492364	0.540130
C50	C	1.430950	0.007636	1.040130
C51	C	0.943130	-0.310137	0.340776
C52	C	1.443130	0.189863	0.840776
C53	C	1.052855	-0.310120	0.340765
C54	C	1.552855	0.189880	0.840765
C55	C	1.588407	-0.957534	0.576295
C56	C	2.088407	-0.457534	1.076295
C57	C	1.582138	-1.051758	0.569981
C58	C	2.082138	-0.551758	1.069981
C59	C	1.447824	-1.051953	0.435458
C60	C	1.947824	-0.551953	0.935458
C61	C	1.454093	-0.957728	0.441772
C62	C	1.954093	-0.457728	0.941772
C63	C	1.524389	-0.910522	0.512191
C64	C	2.024389	-0.410522	1.012191
C65	C	1.530663	-0.816296	0.518499
C66	C	2.030663	-0.316296	1.018499
C67	C	1.396344	-0.816492	0.383981
C68	C	1.896344	-0.316492	0.883981
C69	C	1.390074	-0.910716	0.377668
C70	C	1.890074	-0.410716	0.877668
C71	C	1.763176	-0.434600	0.476932
C72	C	2.263176	0.065400	0.976932
C73	C	1.879952	-0.434608	0.476939
C74	C	2.379952	0.065392	0.976939
C75	C	1.489224	-0.434491	0.750953
C76	C	1.989224	0.065509	1.250953
C77	C	1.489257	-0.434452	0.867733
C78	C	1.989257	0.065548	1.367733
C79	C	1.505065	-0.199254	0.492796
C80	C	2.005065	0.300746	0.992796
C81	C	1.511850	-0.098971	0.499564
C82	C	2.011850	0.401029	0.999564
C83	C	1.489129	-0.434607	0.203944
C84	C	1.989129	0.065393	0.703944
C85	C	1.489316	-0.434392	0.087183
C86	C	1.989316	0.065608	0.587183
C87	C	1.560367	-0.376746	0.926496
C88	C	2.060367	0.123254	1.426496
C89	C	1.560394	-0.376713	1.036222
C90	C	2.060394	0.123287	1.536222
C91	C	1.418199	-0.492101	1.028412
C92	C	1.918199	0.007899	1.528412
C93	C	1.418167	-0.492128	0.918688
C94	C	1.918167	0.007872	1.418688
C95	C	1.642466	-0.310130	0.931005
C96	C	2.142466	0.189870	1.431005
C97	C	1.642493	-0.310098	1.040732
C98	C	2.142493	0.189902	1.540732
H99	H	0.883146	-0.539400	0.591599
H100	H	1.383146	-0.039400	1.091599
Br101	Br	1.321638	-0.570429	0.838941
Br102	Br	1.821638	-0.070429	1.338941
H103	H	1.332840	-0.949165	0.320337
H104	H	1.832840	-0.449165	0.820337
Br105	Br	1.626067	-0.752230	0.614061
Br106	Br	2.126067	-0.252230	1.114061
Br107	Br	1.776018	-0.341272	1.088279
Br108	Br	2.276018	0.158728	1.588279
Br109	Br	1.309467	-0.752686	0.296967
Br110	Br	1.809467	-0.252686	0.796967
H111	H	1.082210	-0.539374	0.591564
H112	H	1.582210	-0.039374	1.091564
H113	H	1.645652	-0.919098	0.633626
H114	H	2.145652	-0.419098	1.133626
H115	H	1.718053	-0.335179	0.895285
H116	H	2.218053	0.164821	1.395285
Br117	Br	0.901358	-0.193716	0.385165
Br118	Br	1.401358	0.306284	0.885165
H119	H	1.390588	-1.090404	0.378131
H120	H	1.890588	-0.590404	0.878131
Br121	Br	0.883528	-0.351732	0.209079
Br122	Br	1.383528	0.148268	0.709079
Br123	Br	1.321722	-0.570370	1.097572
Br124	Br	1.821722	-0.070370	1.597572
H125	H	1.617845	-0.243708	1.079247
H126	H	2.117845	0.256292	1.579247
Br127	Br	1.669019	-1.115558	0.656988
Br128	Br	2.169019	-0.615558	1.156988
Br129	Br	1.100340	-0.341178	0.202991
Br130	Br	1.600340	0.158822	0.702991
Br131	Br	1.117064	-0.199531	0.397002
Br132	Br	1.617064	0.300469	0.897002
Br133	Br	1.614020	-0.193676	0.889236
Br134	Br	2.114020	0.306324	1.389236
