data_functionalizedCrystal
_audit_creation_method	'MofGen! by Chris Wilmer'
_symmetry_space_group_name_H-M	'P1'
_symmetry_Int_Tables_number	1
_symmetry_cell_setting	triclinic
loop_
_symmetry_equiv_pos_as_xyz
  x,y,z
_cell_length_a	8.497367
_cell_length_b	8.497374
_cell_length_c	21.295418
_cell_angle_alpha	90.022758
_cell_angle_beta	90.017644
_cell_angle_gamma	90.038609
loop_
_atom_site_label
_atom_site_type_symbol
_atom_site_fract_x
_atom_site_fract_y
_atom_site_fract_z
Zn1	Zn	0.627664	0.893357	0.962505
Zn2	Zn	0.891410	0.629777	0.962564
Zn3	Zn	0.627711	0.629488	0.857267
Zn4	Zn	0.891469	0.893411	0.857315
O5	O	0.759564	0.761508	0.909913
O6	O	0.662607	0.858491	1.050602
O7	O	0.856425	0.408976	0.948600
O8	O	0.406942	0.664347	0.871182
O9	O	0.856380	0.664839	1.050645
O10	O	0.406908	0.858211	0.948500
O11	O	0.662686	0.408764	0.871239
O12	O	0.662743	0.664400	0.769184
O13	O	0.856480	1.114166	0.871265
O14	O	0.856525	0.858303	0.769219
O15	O	0.662664	1.114127	0.948547
O16	O	1.112181	0.664892	0.948647
O17	O	1.112224	0.858583	0.871321
C18	C	0.759647	0.761327	0.746361
C19	C	0.759720	0.761287	0.676393
C20	C	1.348083	0.761362	0.909869
C21	C	1.169439	0.761651	0.909948
C22	C	0.759566	1.172989	0.909908
C23	C	0.759583	1.351633	0.909909
C24	C	0.860756	0.862101	0.643561
C25	C	0.860717	0.862172	0.577819
C26	C	0.759659	0.761400	0.544910
C27	C	0.658603	0.660578	0.577750
C28	C	0.658634	0.660521	0.643491
N29	N	0.747297	0.623407	0.441649
N30	N	0.747277	0.623466	0.379198
C31	C	0.759558	0.761567	0.346836
N32	N	0.771891	0.899611	0.379284
N33	N	0.771919	0.899551	0.441742
C34	C	0.759614	0.761451	0.473625
C35	C	0.860558	0.862467	0.242719
C36	C	0.860508	0.862541	0.176975
C37	C	0.658402	0.660933	0.176907
C38	C	0.658444	0.660873	0.242650
C39	C	0.759530	0.761638	0.275551
C40	C	0.759482	0.761691	1.074103
C41	C	0.759447	0.761769	1.144071
H42	H	0.943066	0.944155	0.670346
H43	H	0.576177	0.578771	0.269381
H44	H	0.576318	0.578532	0.550952
C45	C	0.970158	0.971822	0.542126
C46	C	0.880975	1.073074	0.504420
C47	C	0.981734	1.174115	0.471538
H48	H	1.038807	0.911603	0.516415
H49	H	1.030338	1.031923	0.571114
H50	H	0.820821	1.012979	0.475435
H51	H	0.812330	1.133328	0.530116
H52	H	1.041915	1.234216	0.500526
H53	H	1.050379	1.113883	0.445831
H54	H	0.921238	1.242835	0.445955
H55	H	0.576353	0.578425	0.670222
C56	C	0.970125	0.972260	0.141408
C57	C	0.936076	1.128365	0.157460
C58	C	1.037040	1.229480	0.124714
H59	H	0.955731	0.958086	0.097533
H60	H	1.076114	0.949144	0.152193
H61	H	0.830112	1.151473	0.146670
H62	H	0.950479	1.142589	0.201329
H63	H	1.143029	1.206364	0.135500
H64	H	1.022638	1.215292	0.080840
H65	H	1.013961	1.335407	0.135605
H66	H	0.942860	0.944524	0.269509
C67	C	0.548964	0.551281	0.141163
C68	C	0.638143	0.450093	0.103418
C69	C	0.537387	0.349029	0.070490
H70	H	0.480253	0.611485	0.115475
H71	H	0.488848	0.491133	0.170124
H72	H	0.698232	0.510235	0.074461
H73	H	0.706849	0.389854	0.129091
H74	H	0.477271	0.288881	0.099450
H75	H	0.468682	0.409246	0.044805
H76	H	0.597880	0.280352	0.044880
