data_functionalizedCrystal
_audit_creation_method	'MofGen! by Chris Wilmer'
_symmetry_space_group_name_H-M	'P1'
_symmetry_Int_Tables_number	1
_symmetry_cell_setting	triclinic
loop_
_symmetry_equiv_pos_as_xyz
  x,y,z
_cell_length_a	17.019386
_cell_length_b	15.500227
_cell_length_c	17.038272
_cell_angle_alpha	86.966746
_cell_angle_beta	92.752134
_cell_angle_gamma	83.288903
loop_
_atom_site_label
_atom_site_type_symbol
_atom_site_fract_x
_atom_site_fract_y
_atom_site_fract_z
O1	O	-1.060537	0.150877	0.092058
O2	O	-0.830913	0.133789	0.105605
O3	O	-0.944360	0.142225	-0.014978
O4	O	-0.947090	0.142442	0.212640
O5	O	-0.937474	-0.002176	-0.007689
O6	O	-0.824027	-0.010612	0.112894
O7	O	-1.053651	0.006476	0.099346
Cu8	Cu	-0.938210	-0.015253	0.106785
Cu9	Cu	-0.946354	0.155518	0.098166
O10	O	-0.940204	-0.001959	0.219929
C11	C	-0.797944	0.059391	0.108876
C12	C	-0.709966	0.052844	0.107756
C13	C	-0.672380	0.128474	0.103259
C14	C	-0.589714	0.122310	0.102220
C15	C	-0.544635	0.040514	0.105672
C16	C	-0.582227	-0.035123	0.110172
C17	C	-0.664891	-0.028957	0.111217
C18	C	-0.294855	0.017960	0.102722
C19	C	-0.212185	0.011800	0.101674
C20	C	-0.219678	0.169233	0.093724
C21	C	-0.302343	0.175391	0.094764
C22	C	-0.339927	0.099755	0.099268
C23	C	-0.460137	0.034210	0.104608
C24	C	-0.424424	0.106059	0.100338
N25	N	-0.932488	-0.135363	0.112848
C26	C	-0.980578	-0.177064	0.061771
C27	C	-0.976259	-0.267958	0.066363
C28	C	-0.923852	-0.317149	0.122036
C29	C	-0.875756	-0.275443	0.173114
C30	C	-0.880072	-0.184550	0.168518
C31	C	-0.908302	-0.591772	0.138580
C32	C	-0.903991	-0.682670	0.143174
C33	C	-1.004493	-0.675179	0.036421
C34	C	-1.008808	-0.584286	0.031833
C35	C	-0.960709	-0.542587	0.082909
C36	C	-0.919437	-0.410057	0.126732
C37	C	-0.965121	-0.449681	0.078208
C38	C	-0.086620	0.080876	0.096070
C39	C	-0.174599	0.087430	0.097177
C40	C	-0.938434	0.069840	-0.040450
C41	C	-0.931028	0.069289	-0.127210
N42	N	-0.952082	0.275629	0.092097
C43	C	-0.999028	0.074348	-0.177632
C44	C	-0.992065	0.073838	-0.259152
C45	C	-0.917100	0.068262	-0.290246
C46	C	-0.849094	0.063205	-0.239817
C47	C	-0.856059	0.063721	-0.158300
C48	C	-0.892495	0.066443	-0.535893
C49	C	-0.885536	0.065925	-0.617417
C50	C	-1.028507	0.076560	-0.636746
C51	C	-1.035465	0.077070	-0.555226
C52	C	-0.967459	0.072017	-0.504804
C53	C	-0.909980	0.067738	-0.373572
C54	C	-0.974580	0.072548	-0.421481
C55	C	-0.946129	0.070428	0.245401
C56	C	-0.953536	0.070984	0.332160
H57	H	-0.461129	0.172657	0.097532
Cl58	Cl	-0.542466	0.217393	0.096567
Cl59	Cl	-0.791287	0.058909	-0.656505
H60	H	-1.015417	-0.301910	0.024772
H61	H	-1.060072	0.078883	-0.152322
H62	H	-0.837120	0.062329	-0.494849
Cl63	Cl	-0.729042	0.231309	0.098914
Cl64	Cl	-0.525557	-0.137953	0.114519
H65	H	-1.007788	-0.409627	0.032876
H66	H	-0.695492	-0.090544	0.114882
H67	H	-0.423426	-0.032388	0.107416
Cl68	Cl	-1.074693	-0.522445	-0.038155
H69	H	-1.047438	0.077956	-0.300203
Cl70	Cl	-0.853556	-0.471902	0.196722
Cl71	Cl	-0.155517	-0.091037	0.105999
H72	H	-1.043652	-0.709139	-0.005163
H73	H	-0.869139	-0.557829	0.180169
H74	H	-0.339041	0.241998	0.091947
Cl75	Cl	-0.838103	-0.744506	0.213170
Cl76	Cl	-1.129711	0.084108	-0.516144
Cl77	Cl	-0.809868	-0.337282	0.243100
Cl78	Cl	-0.754853	0.056206	-0.278908
Cl79	Cl	-0.172425	0.264312	0.088054
H80	H	-1.035617	0.077107	-0.396161
Cl81	Cl	-0.819609	-0.132128	0.232729
H82	H	-1.083872	0.080675	-0.677808
Cl83	Cl	-0.770569	0.057364	-0.094910
Cl84	Cl	-0.342093	-0.077127	0.108382
H85	H	-0.848943	0.063196	-0.398898
Cl86	Cl	-1.046469	-0.115232	-0.008217
