data_functionalizedCrystal
_audit_creation_method	'MofGen! by Chris Wilmer'
_symmetry_space_group_name_H-M	'P1'
_symmetry_Int_Tables_number	1
_symmetry_cell_setting	triclinic
loop_
_symmetry_equiv_pos_as_xyz
  x,y,z
_cell_length_a	13.635800
_cell_length_b	9.109307
_cell_length_c	9.170575
_cell_angle_alpha	90.856937
_cell_angle_beta	112.461472
_cell_angle_gamma	68.235001
loop_
_atom_site_label
_atom_site_type_symbol
_atom_site_fract_x
_atom_site_fract_y
_atom_site_fract_z
V1	V	2.075148	-0.152517	0.506788
O2	O	2.037114	0.077905	0.466679
O3	O	2.079929	-0.370293	0.532618
O4	O	2.064453	-0.119203	0.714450
O5	O	2.052697	-0.174923	0.283589
V6	V	2.311457	-0.128615	0.476533
O7	O	2.217739	-0.204948	0.573155
O8	O	2.393966	-0.076184	0.410165
O9	O	2.195073	0.089161	0.450702
O10	O	2.408190	-0.359037	0.516641
O11	O	2.392607	-0.106209	0.699731
O12	O	2.210549	-0.161928	0.268871
V13	V	2.575148	-0.152517	0.506788
O14	O	2.537114	0.077905	0.466679
O15	O	2.579929	-0.370293	0.532618
O16	O	2.564453	-0.119203	0.714450
O17	O	2.552697	-0.174923	0.283589
V18	V	2.811457	-0.128615	0.476533
O19	O	2.717739	-0.204948	0.573155
O20	O	2.893966	-0.076184	0.410165
O21	O	2.695073	0.089161	0.450702
O22	O	2.908190	-0.359037	0.516641
O23	O	2.892607	-0.106209	0.699731
O24	O	2.710549	-0.161928	0.268871
C25	C	2.009043	-0.424349	0.532183
C26	C	2.053686	-0.602185	0.554687
C27	C	1.989301	-0.104058	0.764125
C28	C	2.021390	-0.078262	0.934082
C29	C	2.097631	0.143209	0.451134
C30	C	2.042609	0.321044	0.428641
C31	C	2.117372	-0.177080	0.219188
C32	C	2.074901	-0.202869	0.049229
C33	C	2.509043	-0.424349	0.532183
C34	C	2.553686	-0.602185	0.554687
C35	C	2.489301	-0.104058	0.764125
C36	C	2.521390	-0.078262	0.934082
C37	C	2.597631	0.143209	0.451134
C38	C	2.542609	0.321044	0.428641
C39	C	2.617372	-0.177080	0.219188
C40	C	2.574901	-0.202869	0.049229
C41	C	2.667326	-0.692747	0.573993
C42	C	2.709292	-0.859844	0.595161
C43	C	2.637613	-0.936375	0.597013
C44	C	2.523964	-0.845800	0.577710
C45	C	2.482002	-0.678707	0.556553
C46	C	2.629119	-0.072994	1.022763
C47	C	2.659279	-0.048734	1.182451
C48	C	2.581711	-0.029755	1.253457
C49	C	2.473971	-0.035019	1.164763
C50	C	2.443810	-0.059267	1.005075
C51	C	2.601462	0.411606	0.409339
C52	C	2.549769	0.578703	0.388178
C53	C	2.439225	0.655233	0.386330
C54	C	2.380367	0.564659	0.405629
C55	C	2.432057	0.397566	0.426778
C56	C	2.470239	-0.221824	-0.021741
C57	C	2.430313	-0.246037	-0.181440
C58	C	2.495054	-0.251304	-0.270164
C59	C	2.599724	-0.232342	-0.199185
C60	C	2.639645	-0.208118	-0.039492
H61	H	1.998992	-0.608636	0.303478
C62	C	2.112616	-0.697190	0.723790
N63	N	2.157000	-0.768749	0.851156
C64	C	2.103642	-0.373644	1.006750
N65	N	2.125289	-0.502270	0.974753
H66	H	2.410823	-0.019563	1.222601
C67	C	2.445124	-0.930009	0.579722
N68	N	2.385739	-0.993441	0.581222
C69	C	2.714461	-0.093856	0.944684
N70	N	2.778745	-0.109557	0.885881
H71	H	2.597712	0.652426	0.372469
H72	H	2.384126	0.323842	0.442507
H73	H	2.724873	-0.192695	0.018281
H74	H	2.356087	-0.063556	0.932882
C75	C	2.723061	0.327455	0.411354
N76	N	2.814648	0.264083	0.412859
C77	C	1.992652	0.092505	0.976557
N78	N	1.971005	0.221129	1.008558
H79	H	2.397148	0.791293	0.369107
H80	H	2.725704	-0.630459	0.572479
H81	H	2.290356	0.626996	0.404119
H82	H	2.801832	-0.933567	0.610872
H83	H	2.671795	-1.072434	0.614242
H84	H	2.389464	-0.604982	0.540826
C85	C	2.398998	-0.216024	0.075823
N86	N	2.345327	-0.211645	0.149296
C87	C	2.315182	-0.266919	-0.259478
N88	N	2.228470	-0.282654	-0.318249
H89	H	2.747011	-0.044458	1.254646
H90	H	2.606285	-0.010013	1.383487
H91	H	2.462542	-0.271049	-0.400189
H92	H	2.652426	-0.236630	-0.271449
