data_functionalizedCrystal
_audit_creation_method	'MofGen! by Chris Wilmer'
_symmetry_space_group_name_H-M	'P1'
_symmetry_Int_Tables_number	1
_symmetry_cell_setting	triclinic
loop_
_symmetry_equiv_pos_as_xyz
  x,y,z
_cell_length_a	19.288864
_cell_length_b	19.288857
_cell_length_c	17.766277
_cell_angle_alpha	89.991474
_cell_angle_beta	89.976791
_cell_angle_gamma	83.134677
loop_
_atom_site_label
_atom_site_type_symbol
_atom_site_fract_x
_atom_site_fract_y
_atom_site_fract_z
O1	O	0.921351	0.086649	-0.062839
O2	O	1.171351	0.336649	0.187161
O3	O	1.421351	0.586649	0.437161
O4	O	1.671351	0.836649	0.687161
O5	O	0.719090	0.098338	-0.062788
O6	O	0.969090	0.348338	0.187212
O7	O	1.219090	0.598338	0.437212
O8	O	1.469090	0.848338	0.687212
O9	O	0.826067	-0.008637	-0.062806
O10	O	1.076067	0.241363	0.187194
O11	O	1.326067	0.491363	0.437194
O12	O	1.576067	0.741363	0.687194
O13	O	0.814373	0.193624	-0.062821
O14	O	1.064373	0.443624	0.187179
O15	O	1.314373	0.693624	0.437179
O16	O	1.564373	0.943624	0.687179
O17	O	0.826049	-0.008643	0.062382
O18	O	1.076049	0.241357	0.312382
O19	O	1.326049	0.491357	0.562382
O20	O	1.576049	0.741357	0.812382
O21	O	0.719071	0.098332	0.062400
O22	O	0.969071	0.348332	0.312400
O23	O	1.219071	0.598332	0.562400
O24	O	1.469071	0.848332	0.812400
O25	O	0.921332	0.086644	0.062349
O26	O	1.171332	0.336644	0.312349
O27	O	1.421332	0.586644	0.562349
O28	O	1.671332	0.836644	0.812349
Cu29	Cu	0.820200	0.092488	0.073806
Cu30	Cu	1.070200	0.342488	0.323806
Cu31	Cu	1.320200	0.592488	0.573806
Cu32	Cu	1.570200	0.842488	0.823806
Cu33	Cu	0.820222	0.092494	-0.074244
Cu34	Cu	1.070222	0.342494	0.175756
Cu35	Cu	1.320222	0.592494	0.425756
Cu36	Cu	1.570222	0.842494	0.675756
O37	O	0.814354	0.193619	0.062367
O38	O	1.064354	0.443619	0.312367
O39	O	1.314354	0.693619	0.562367
O40	O	1.564354	0.943619	0.812367
C41	C	0.693204	0.097959	-0.000187
C42	C	0.943204	0.347959	0.249813
C43	C	1.193204	0.597959	0.499813
C44	C	1.443204	0.847959	0.749813
C45	C	0.616100	0.096830	-0.000167
C46	C	0.866100	0.346830	0.249833
C47	C	1.116100	0.596830	0.499833
C48	C	1.366100	0.846830	0.749833
C49	C	0.571402	0.159598	-0.000184
C50	C	0.821402	0.409598	0.249816
C51	C	1.071402	0.659598	0.499816
C52	C	1.321402	0.909598	0.749816
C53	C	0.498955	0.158537	-0.000192
C54	C	0.748955	0.408537	0.249808
C55	C	0.998955	0.658537	0.499808
C56	C	1.248955	0.908537	0.749808
C57	C	0.471210	0.094705	-0.000199
C58	C	0.721210	0.344705	0.249801
C59	C	0.971210	0.594705	0.499801
C60	C	1.221210	0.844705	0.749801
C61	C	0.515917	0.031929	-0.000178
C62	C	0.765917	0.281929	0.249822
C63	C	1.015917	0.531929	0.499822
C64	C	1.265917	0.781929	0.749822
C65	C	0.588363	0.032991	-0.000162
C66	C	0.838363	0.282991	0.249838
C67	C	1.088363	0.532991	0.499838
C68	C	1.338363	0.782991	0.749838
C69	C	0.362955	0.044528	-0.044080
C70	C	0.612955	0.294528	0.205920
C71	C	0.862955	0.544528	0.455920
C72	C	1.112955	0.794528	0.705920
C73	C	0.290511	0.043468	-0.044100
C74	C	0.540511	0.293468	0.205900
C75	C	0.790511	0.543468	0.455900
C76	C	1.040511	0.793468	0.705900
C77	C	0.247764	0.091425	-0.000244
C78	C	0.497764	0.341425	0.249756
C79	C	0.747764	0.591425	0.499756
C80	C	0.997764	0.841425	0.749756
C81	C	0.277469	0.140455	0.043622
C82	C	0.527469	0.390455	0.293622
C83	C	0.777469	0.640455	0.543622
C84	C	1.027469	0.890455	0.793622
C85	C	0.349914	0.141517	0.043638
C86	C	0.599914	0.391517	0.293638
C87	C	0.849914	0.641517	0.543638
C88	C	1.099914	0.891517	0.793638
C89	C	0.392656	0.093546	-0.000216
C90	C	0.642656	0.343546	0.249784
C91	C	0.892656	0.593546	0.499784
C92	C	1.142656	0.843546	0.749784
C93	C	0.124510	0.153048	-0.000269
C94	C	0.374510	0.403048	0.249731
C95	C	0.624510	0.653048	0.499731
C96	C	0.874510	0.903048	0.749731
C97	C	0.052062	0.151984	-0.000272
C98	C	0.302062	0.401984	0.249728
C99	C	0.552062	0.651984	0.499728
C100	C	0.802062	0.901984	0.749728
C101	C	0.069026	0.025374	-0.000266
C102	C	0.319026	0.275374	0.249734
C103	C	0.569026	0.525374	0.499734
C104	C	0.819026	0.775374	0.749734
C105	C	0.141472	0.026439	-0.000255
C106	C	0.391472	0.276439	0.249745
C107	C	0.641472	0.526439	0.499745
C108	C	0.891472	0.776439	0.749745
C109	C	0.169210	0.090278	-0.000260
C110	C	0.419210	0.340278	0.249740
C111	C	0.669210	0.590278	0.499740
C112	C	0.919210	0.840278	0.749740
C113	C	0.825683	-0.034516	-0.000211
C114	C	1.075683	0.215484	0.249789
C115	C	1.325683	0.465484	0.499789
C116	C	1.575683	0.715484	0.749789
C117	C	0.824556	-0.111620	-0.000209
C118	C	1.074556	0.138380	0.249791
C119	C	1.324556	0.388380	0.499791
C120	C	1.574556	0.638380	0.749791
C121	C	0.824040	-0.147828	-0.068449
C122	C	1.074040	0.102172	0.181551
C123	C	1.324040	0.352172	0.431551
C124	C	1.574040	0.602172	0.681551
C125	C	0.822971	-0.220274	-0.068454
C126	C	1.072971	0.029726	0.181546
C127	C	1.322971	0.279726	0.431546
C128	C	1.572971	0.529726	0.681546
C129	C	0.822432	-0.256511	-0.000215
C130	C	1.072432	-0.006511	0.249785
C131	C	1.322432	0.243489	0.499785
C132	C	1.572432	0.493489	0.749785
C133	C	0.822944	-0.220295	0.068034
C134	C	1.072944	0.029705	0.318034
C135	C	1.322944	0.279705	0.568034
C136	C	1.572944	0.529705	0.818034
C137	C	0.824006	-0.147849	0.068037
C138	C	1.074006	0.102151	0.318037
C139	C	1.324006	0.352151	0.568037
C140	C	1.574006	0.602151	0.818037
C141	C	0.861426	-0.376745	0.052050
C142	C	1.111426	-0.126745	0.302050
C143	C	1.361426	0.123255	0.552050
C144	C	1.611426	0.373255	0.802050
C145	C	0.860369	-0.449190	0.052044
C146	C	1.110369	-0.199190	0.302044
C147	C	1.360369	0.050810	0.552044
C148	C	1.610369	0.300810	0.802044
C149	C	0.819155	-0.479957	-0.000223
C150	C	1.069155	-0.229957	0.249777
C151	C	1.319155	0.020043	0.499777
C152	C	1.569155	0.270043	0.749777
C153	C	0.779007	-0.438272	-0.052496
C154	C	1.029007	-0.188272	0.197504
C155	C	1.279007	0.061728	0.447504
C156	C	1.529007	0.311728	0.697504
C157	C	0.780069	-0.365827	-0.052493
C158	C	1.030069	-0.115827	0.197507
C159	C	1.280069	0.134173	0.447507
C160	C	1.530069	0.384173	0.697507
C161	C	0.821281	-0.335066	-0.000211
C162	C	1.071281	-0.085066	0.249789
C163	C	1.321281	0.164934	0.499789
C164	C	1.571281	0.414934	0.749789
C165	C	0.817479	-0.594719	-0.068474
C166	C	1.067479	-0.344719	0.181526
C167	C	1.317479	-0.094719	0.431526
C168	C	1.567479	0.155281	0.681526
C169	C	0.816406	-0.667166	-0.068476
C170	C	1.066406	-0.417166	0.181524
C171	C	1.316406	-0.167166	0.431524
C172	C	1.566406	0.082834	0.681524
C173	C	0.816386	-0.667186	0.068014
C174	C	1.066386	-0.417186	0.318014
C175	C	1.316386	-0.167186	0.568014
C176	C	1.566386	0.082814	0.818014
C177	C	0.817452	-0.594740	0.068014
C178	C	1.067452	-0.344740	0.318014
C179	C	1.317452	-0.094740	0.568014
C180	C	1.567452	0.155260	0.818014
C181	C	0.818002	-0.558511	-0.000232
C182	C	1.068002	-0.308511	0.249768
C183	C	1.318002	-0.058511	0.499768
C184	C	1.568002	0.191489	0.749768
C185	C	0.947218	0.087022	-0.000253
C186	C	1.197218	0.337022	0.249747
C187	C	1.447218	0.587022	0.499747
C188	C	1.697218	0.837022	0.749747
C189	C	1.024321	0.088151	-0.000278
C190	C	1.274321	0.338151	0.249722
C191	C	1.524321	0.588151	0.499722
C192	C	1.774321	0.838151	0.749722
C193	C	0.814739	0.219498	-0.000229
C194	C	1.064739	0.469498	0.249771
C195	C	1.314739	0.719498	0.499771
C196	C	1.564739	0.969498	0.749771
C197	C	0.815866	0.296602	-0.000237
C198	C	1.065866	0.546602	0.249763
C199	C	1.315866	0.796602	0.499763
C200	C	1.565866	1.046602	0.749763
N201	N	0.820189	0.092483	0.177936
N202	N	1.070189	0.342483	0.427936
N203	N	1.320189	0.592483	0.677936
N204	N	1.570189	0.842483	0.927936
N205	N	0.820238	0.092493	-0.178375
N206	N	1.070238	0.342493	0.071625
N207	N	1.320238	0.592493	0.321625
N208	N	1.570238	0.842493	0.571625
C209	C	0.867574	0.045137	0.217315
C210	C	1.117574	0.295137	0.467315
C211	C	1.367574	0.545137	0.717315
C212	C	1.617574	0.795137	0.967315
C213	C	0.867578	0.045134	0.296117
C214	C	1.117578	0.295134	0.546117
C215	C	1.367578	0.545134	0.796117
C216	C	1.617578	0.795134	1.046117
C217	C	0.820204	0.092488	0.335537
C218	C	1.070204	0.342488	0.585537
C219	C	1.320204	0.592488	0.835537
C220	C	1.570204	0.842488	1.085537
C221	C	0.772810	0.139837	0.296148
C222	C	1.022810	0.389837	0.546148
C223	C	1.272810	0.639837	0.796148
C224	C	1.522810	0.889837	1.046148
C225	C	0.772803	0.139834	0.217348
C226	C	1.022803	0.389834	0.467348
C227	C	1.272803	0.639834	0.717348
C228	C	1.522803	0.889834	0.967348
C229	C	0.810903	0.155776	0.460371
C230	C	1.060903	0.405776	0.710371
C231	C	1.310903	0.655776	0.960371
C232	C	1.560903	0.905776	1.210371
C233	C	0.810915	0.155780	0.539170
C234	C	1.060915	0.405780	0.789170
C235	C	1.310915	0.655780	1.039170
C236	C	1.560915	0.905780	1.289170
C237	C	0.820222	0.092496	0.578583
C238	C	1.070222	0.342496	0.828583
C239	C	1.320222	0.592496	1.078583
C240	C	1.570222	0.842496	1.328583
C241	C	0.829532	0.029207	0.539187
C242	C	1.079532	0.279207	0.789187
C243	C	1.329532	0.529207	1.039187
C244	C	1.579532	0.779207	1.289187
C245	C	0.829525	0.029204	0.460387
C246	C	1.079525	0.279204	0.710387
C247	C	1.329525	0.529204	0.960387
C248	C	1.579525	0.779204	1.210387
C249	C	0.820206	0.092496	0.420982
C250	C	1.070206	0.342496	0.670982
C251	C	1.320206	0.592496	0.920982
C252	C	1.570206	0.842496	1.170982
C253	C	0.867614	0.045144	0.703408
C254	C	1.117614	0.295144	0.953408
C255	C	1.367614	0.545144	1.203408
C256	C	1.617614	0.795144	1.453408
C257	C	0.867614	0.045139	0.782211
C258	C	1.117614	0.295139	1.032211
C259	C	1.367614	0.545139	1.282211
C260	C	1.617614	0.795139	1.532211
C261	C	0.772849	0.139849	0.782241
C262	C	1.022849	0.389849	1.032241
C263	C	1.272849	0.639849	1.282241
C264	C	1.522849	0.889849	1.532241
C265	C	0.772846	0.139847	0.703439
C266	C	1.022846	0.389847	0.953439
C267	C	1.272846	0.639847	1.203439
C268	C	1.522846	0.889847	1.453439
C269	C	0.820233	0.092495	0.664027
C270	C	1.070233	0.342495	0.914027
C271	C	1.320233	0.592495	1.164027
C272	C	1.570233	0.842495	1.414027
H273	H	0.046436	-0.026600	-0.000318
H274	H	0.296436	0.223400	0.249682
H275	H	0.546436	0.473400	0.499682
H276	H	0.796436	0.723400	0.749682
H277	H	0.824486	-0.118335	-0.124020
H278	H	1.074486	0.131665	0.125980
H279	H	1.324486	0.381665	0.375980
H280	H	1.574486	0.631665	0.625980
H281	H	0.906157	0.006579	0.185228
H282	H	1.156157	0.256579	0.435228
H283	H	1.406157	0.506579	0.685228
H284	H	1.656157	0.756579	0.935228
Cl285	Cl	0.927154	-0.014391	0.345630
Cl286	Cl	1.177154	0.235609	0.595630
Cl287	Cl	1.427154	0.485609	0.845630
Cl288	Cl	1.677154	0.735609	1.095630
Cl289	Cl	0.387256	0.203148	0.098785
Cl290	Cl	0.637256	0.453148	0.348785
Cl291	Cl	0.887256	0.703148	0.598785
Cl292	Cl	1.137256	0.953148	0.848785
Cl293	Cl	0.910842	-0.501587	0.117755
Cl294	Cl	1.160842	-0.251587	0.367755
Cl295	Cl	1.410842	-0.001587	0.617755
Cl296	Cl	1.660842	0.248413	0.867755
H297	H	0.824423	-0.118369	0.123608
H298	H	1.074423	0.131631	0.373608
H299	H	1.324423	0.381631	0.623608
H300	H	1.574423	0.631631	0.873608
Cl301	Cl	0.841219	-0.050356	0.410863
Cl302	Cl	1.091219	0.199644	0.660863
Cl303	Cl	1.341219	0.449644	0.910863
Cl304	Cl	1.591219	0.699644	1.160863
H305	H	0.177867	-0.024674	-0.000245
H306	H	0.427867	0.225326	0.249755
H307	H	0.677867	0.475326	0.499755
H308	H	0.927867	0.725326	0.749755
Cl309	Cl	0.818100	-0.549219	0.153807
Cl310	Cl	1.068100	-0.299219	0.403807
Cl311	Cl	1.318100	-0.049219	0.653807
Cl312	Cl	1.568100	0.200781	0.903807
H313	H	0.734273	0.178403	0.814336
H314	H	0.984273	0.428403	1.064336
H315	H	1.234273	0.678403	1.314336
H316	H	1.484273	0.928403	1.564336
H317	H	0.147095	0.205029	-0.000262
H318	H	0.397095	0.455029	0.249738
H319	H	0.647095	0.705029	0.499738
H320	H	0.897095	0.955029	0.749738
H321	H	0.906198	0.006581	0.814274
H322	H	1.156198	0.256581	1.064274
H323	H	1.406198	0.506581	1.314274
H324	H	1.656198	0.756581	1.564274
Cl325	Cl	0.841238	-0.050355	0.588725
Cl326	Cl	1.091238	0.199645	0.838725
Cl327	Cl	1.341238	0.449645	1.088725
Cl328	Cl	1.591238	0.699645	1.338725
H329	H	0.734264	0.178403	0.671375
H330	H	0.984264	0.428403	0.921375
H331	H	1.234264	0.678403	1.171375
H332	H	1.484264	0.928403	1.421375
Cl333	Cl	0.822261	-0.265848	0.153820
Cl334	Cl	1.072261	-0.015848	0.403820
Cl335	Cl	1.322261	0.234152	0.653820
Cl336	Cl	1.572261	0.484152	0.903820
Cl337	Cl	0.799267	0.235342	0.410832
Cl338	Cl	1.049267	0.485342	0.660832
Cl339	Cl	1.299267	0.735342	0.910832
Cl340	Cl	1.549267	0.985342	1.160832
H341	H	0.397755	0.005473	-0.079797
H342	H	0.647755	0.255473	0.170203
H343	H	0.897755	0.505473	0.420203
H344	H	1.147755	0.755473	0.670203
Cl345	Cl	0.799217	0.235343	0.588688
Cl346	Cl	1.049217	0.485343	0.838688
Cl347	Cl	1.299217	0.735343	1.088688
Cl348	Cl	1.549217	0.985343	1.338688
Cl349	Cl	0.913262	-0.338077	0.117746
Cl350	Cl	1.163262	-0.088077	0.367746
Cl351	Cl	1.413262	0.161923	0.617746
Cl352	Cl	1.663262	0.411923	0.867746
Cl353	Cl	0.822323	-0.265802	-0.154248
Cl354	Cl	1.072323	-0.015802	0.095752
Cl355	Cl	1.322323	0.234198	0.345752
Cl356	Cl	1.572323	0.484198	0.595752
H357	H	0.734236	0.178393	0.328248
H358	H	0.984236	0.428393	0.578248
H359	H	1.234236	0.678393	0.828248
H360	H	1.484236	0.928393	1.078248
H361	H	0.906197	0.006585	0.671317
H362	H	1.156197	0.256585	0.921317
H363	H	1.406197	0.506585	1.171317
H364	H	1.656197	0.756585	1.421317
Cl365	Cl	-0.004132	0.230901	-0.000289
Cl366	Cl	0.245868	0.480901	0.249711
Cl367	Cl	0.495868	0.730901	0.499711
Cl368	Cl	0.745868	0.980901	0.749711
H369	H	0.242665	0.179506	0.079334
H370	H	0.492665	0.429506	0.329334
H371	H	0.742665	0.679506	0.579334
H372	H	0.992665	0.929506	0.829334
Cl373	Cl	0.818165	-0.549170	-0.154266
Cl374	Cl	1.068165	-0.299170	0.095734
Cl375	Cl	1.318165	-0.049170	0.345734
Cl376	Cl	1.568165	0.200830	0.595734
H377	H	0.734215	0.178389	0.185285
H378	H	0.984215	0.428389	0.435285
H379	H	1.234215	0.678389	0.685285
H380	H	1.484215	0.928389	0.935285
H381	H	0.593981	0.211581	-0.000189
H382	H	0.843981	0.461581	0.249811
H383	H	1.093981	0.711581	0.499811
H384	H	1.343981	0.961581	0.749811
Cl385	Cl	0.815753	-0.712684	-0.154272
Cl386	Cl	1.065753	-0.462684	0.095728
Cl387	Cl	1.315753	-0.212684	0.345728
Cl388	Cl	1.565753	0.037316	0.595728
H389	H	0.266331	0.003548	-0.079822
H390	H	0.516331	0.253548	0.170178
H391	H	0.766331	0.503548	0.420178
H392	H	1.016331	0.753548	0.670178
Cl393	Cl	0.442753	0.237452	-0.000211
Cl394	Cl	0.692753	0.487452	0.249789
Cl395	Cl	0.942753	0.737452	0.499789
Cl396	Cl	1.192753	0.987452	0.749789
H397	H	0.624757	-0.018124	-0.000149
H398	H	0.874757	0.231876	0.249851
H399	H	1.124757	0.481876	0.499851
H400	H	1.374757	0.731876	0.749851
H401	H	0.493322	-0.020044	-0.000194
H402	H	0.743322	0.229956	0.249806
H403	H	0.993322	0.479956	0.499806
H404	H	1.243322	0.729956	0.749806
H405	H	0.747378	-0.331889	-0.095054
H406	H	0.997378	-0.081889	0.154946
H407	H	1.247378	0.168111	0.404946
H408	H	1.497378	0.418111	0.654946
H409	H	0.815942	-0.696689	0.123575
H410	H	1.065942	-0.446689	0.373575
H411	H	1.315942	-0.196689	0.623575
H412	H	1.565942	0.053311	0.873575
Cl413	Cl	0.727188	-0.476942	-0.118204
Cl414	Cl	0.977188	-0.226942	0.131796
Cl415	Cl	1.227188	0.023058	0.381796
Cl416	Cl	1.477188	0.273058	0.631796
