data_functionalizedCrystal
_audit_creation_method	'MofGen! by Chris Wilmer'
_symmetry_space_group_name_H-M	'P1'
_symmetry_Int_Tables_number	1
_symmetry_cell_setting	triclinic
loop_
_symmetry_equiv_pos_as_xyz
  x,y,z
_cell_length_a	27.732064
_cell_length_b	27.732025
_cell_length_c	16.098538
_cell_angle_alpha	92.714342
_cell_angle_beta	87.291500
_cell_angle_gamma	82.641446
loop_
_atom_site_label
_atom_site_type_symbol
_atom_site_fract_x
_atom_site_fract_y
_atom_site_fract_z
O1	O	0.643092	0.055385	-0.069083
O2	O	1.143092	0.555385	0.430917
O3	O	0.502300	0.064121	-0.069114
O4	O	1.002300	0.564121	0.430886
O5	O	0.577076	-0.010645	-0.069123
O6	O	1.077076	0.489355	0.430877
O7	O	0.568317	0.130151	-0.069074
O8	O	1.068317	0.630151	0.430926
O9	O	0.572708	-0.006295	0.069391
O10	O	1.072708	0.493705	0.569391
O11	O	0.497933	0.068472	0.069400
O12	O	0.997933	0.568472	0.569400
O13	O	0.638725	0.059735	0.069430
O14	O	1.138725	0.559735	0.569430
Zn15	Zn	0.567635	0.064794	0.091407
Zn16	Zn	1.067635	0.564794	0.591407
Zn17	Zn	0.573390	0.059062	-0.091090
Zn18	Zn	1.073390	0.559062	0.408910
O19	O	0.563949	0.134502	0.069439
O20	O	1.063949	0.634502	0.569439
C21	C	0.482110	0.066112	0.000139
C22	C	0.982110	0.566112	0.500139
C23	C	0.428456	0.065555	0.000126
C24	C	0.928456	0.565555	0.500126
C25	C	0.574710	-0.026477	0.000126
C26	C	1.074710	0.473523	0.500126
C27	C	0.574162	-0.080133	0.000101
C28	C	1.074162	0.419867	0.500101
C29	C	0.051386	0.017588	0.000156
C30	C	0.551386	0.517588	0.500156
C31	C	0.253047	0.019634	0.000135
C32	C	0.753047	0.519634	0.500135
O33	O	0.284302	-0.017587	0.000154
O34	O	0.784302	0.482413	0.500154
N35	N	0.272170	0.063969	0.000147
N36	N	0.772170	0.563969	0.500147
C37	C	0.240875	0.107796	0.000169
C38	C	0.740875	0.607796	0.500169
O39	O	0.261768	0.145553	0.000187
O40	O	0.761768	0.645553	0.500187
C41	C	0.039215	0.105750	0.000196
C42	C	0.539215	0.605750	0.500196
C43	C	0.020095	0.061412	0.000176
C44	C	0.520095	0.561412	0.500176
C45	C	0.032265	-0.026746	0.000137
C46	C	0.532265	0.473254	0.500137
C47	C	-0.018147	-0.027257	0.000138
C48	C	0.481853	0.472743	0.500138
C49	C	-0.049438	0.016566	0.000158
C50	C	0.450562	0.516566	0.500158
C51	C	-0.030317	0.060901	0.000177
C52	C	0.469683	0.560901	0.500177
C53	C	0.007920	0.149577	0.000225
C54	C	0.507920	0.649577	0.500225
C55	C	-0.042497	0.149062	0.000233
C56	C	0.457503	0.649062	0.500233
C57	C	-0.061617	0.104723	0.000213
C58	C	0.438383	0.604723	0.500213
C59	C	-0.112021	0.104213	0.000197
C60	C	0.387979	0.604213	0.500197
N61	N	-0.131144	0.059878	0.000186
N62	N	0.368856	0.559878	0.500186
C63	C	-0.099853	0.016055	0.000166
C64	C	0.400147	0.516055	0.500166
C65	C	0.346750	0.108867	0.000154
C66	C	0.846750	0.608867	0.500154
C67	C	0.397165	0.109379	0.000145
C68	C	0.897165	0.609379	0.500145
C69	C	0.409333	0.021216	0.000113
C70	C	0.909333	0.521216	0.500113
C71	C	0.358917	0.020705	0.000115
C72	C	0.858917	0.520705	0.500115
C73	C	0.327626	0.064532	0.000142
C74	C	0.827626	0.564532	0.500142
C75	C	-0.205722	0.014985	0.000167
C76	C	0.294278	0.514985	0.500167
C77	C	-0.256139	0.014477	0.000164
C78	C	0.243861	0.514477	0.500164
C79	C	-0.268303	0.102640	0.000201
C80	C	0.231697	0.602640	0.500201
C81	C	-0.217891	0.103147	0.000199
C82	C	0.282109	0.603147	0.500199
C83	C	-0.186601	0.059316	0.000185
C84	C	0.313399	0.559316	0.500185
O85	O	-0.143304	0.141415	0.000189
O86	O	0.356696	0.641415	0.500189
O87	O	-0.120756	-0.021696	0.000166
O88	O	0.379244	0.478304	0.500166
C89	C	0.101798	0.018100	0.000156
C90	C	0.601798	0.518100	0.500156
C91	C	0.120919	0.062434	0.000175
C92	C	0.620919	0.562434	0.500175
C93	C	0.089628	0.106258	0.000195
C94	C	0.589628	0.606258	0.500195
C95	C	0.171334	0.062946	0.000167
C96	C	0.671334	0.562946	0.500167
C97	C	0.202625	0.019122	0.000147
C98	C	0.702625	0.519122	0.500147
C99	C	0.183502	-0.025213	0.000135
C100	C	0.683502	0.474787	0.500135
C101	C	0.133089	-0.025724	0.000136
C102	C	0.633089	0.474276	0.500136
C103	C	0.108751	0.150593	0.000206
C104	C	0.608751	0.650593	0.500206
C105	C	0.159164	0.151100	0.000205
C106	C	0.659164	0.651100	0.500205
C107	C	0.190455	0.107277	0.000185
C108	C	0.690455	0.607277	0.500185
C109	C	0.572645	-0.465669	-0.075355
C110	C	1.072645	0.034331	0.424645
C111	C	0.574698	-0.264010	-0.075382
C112	C	1.074698	0.235990	0.424618
O113	O	0.577008	-0.239960	-0.139597
O114	O	1.077008	0.260040	0.360403
N115	N	0.572574	-0.236418	0.000120
N116	N	1.072574	0.263582	0.500120
C117	C	0.569939	-0.259243	0.075633
C118	C	1.069939	0.240757	0.575633
O119	O	0.568185	-0.231148	0.139851
O120	O	1.068185	0.268852	0.639851
C121	C	0.567890	-0.460902	0.075659
C122	C	1.067890	0.039098	0.575659
C123	C	0.570009	-0.488491	0.000152
C124	C	1.070009	0.011509	0.500152
C125	C	0.574765	-0.493259	-0.150855
C126	C	1.074765	0.006741	0.349145
C127	C	0.574249	-0.543670	-0.150848
C128	C	1.074249	-0.043670	0.349152
C129	C	0.571613	-0.566492	-0.075340
C130	C	1.071613	-0.066492	0.424660
C131	C	0.569493	-0.538902	0.000160
C132	C	1.069493	-0.038902	0.500160
C133	C	0.565258	-0.483727	0.151171
C134	C	1.065258	0.016273	0.651171
C135	C	0.564747	-0.534145	0.151171
C136	C	1.064747	-0.034145	0.651171
C137	C	0.566867	-0.561734	0.075665
C138	C	1.066867	-0.061734	0.575665
C139	C	0.566341	-0.612135	0.075675
C140	C	1.066341	-0.112135	0.575675
N141	N	0.568466	-0.639728	0.000173
N142	N	1.068466	-0.139728	0.500173
C143	C	0.571101	-0.616906	-0.075334
C144	C	1.071101	-0.116906	0.424666
C145	C	0.571015	-0.153370	0.075615
C146	C	1.071015	0.346630	0.575615
C147	C	0.571526	-0.102955	0.075609
C148	C	1.071526	0.397045	0.575609
C149	C	0.576286	-0.107726	-0.075407
C150	C	1.076286	0.392274	0.424593
C151	C	0.575771	-0.158141	-0.075400
C152	C	1.075771	0.341859	0.424600
C153	C	0.573139	-0.180962	0.000113
C154	C	1.073139	0.319038	0.500113
C155	C	0.570017	-0.722773	-0.075313
C156	C	1.070017	-0.222773	0.424687
C157	C	0.569499	-0.773188	-0.075299
C158	C	1.069499	-0.273188	0.424701
C159	C	0.564742	-0.768414	0.075716
C160	C	1.064742	-0.268414	0.575716
C161	C	0.565257	-0.718002	0.075702
C162	C	1.065257	-0.218002	0.575702
C163	C	0.567897	-0.695184	0.000181
C164	C	1.067897	-0.195184	0.500181
O165	O	0.564038	-0.636219	0.139856
O166	O	1.064038	-0.136219	0.639856
O167	O	0.572867	-0.645012	-0.139543
O168	O	1.072867	-0.145012	0.360457
C169	C	0.573161	-0.415258	-0.075363
C170	C	1.073161	0.084742	0.424637
C171	C	0.571041	-0.387668	0.000138
C172	C	1.071041	0.112332	0.500138
C173	C	0.568405	-0.410490	0.075645
C174	C	1.068405	0.089510	0.575645
C175	C	0.571553	-0.337254	0.000132
C176	C	1.071553	0.162746	0.500132
C177	C	0.574188	-0.314432	-0.075376
C178	C	1.074188	0.185568	0.424624
C179	C	0.576313	-0.342025	-0.150878
C180	C	1.076313	0.157975	0.349122
C181	C	0.575797	-0.392436	-0.150870
C182	C	1.075797	0.107564	0.349130
C183	C	0.566281	-0.382898	0.151147
C184	C	1.066281	0.117102	0.651147
C185	C	0.566796	-0.332487	0.151133
C186	C	1.066796	0.167513	0.651133
C187	C	0.569432	-0.309665	0.075626
C188	C	1.069432	0.190335	0.575626
C189	C	0.658915	0.057745	0.000176
C190	C	1.158915	0.557745	0.500176
C191	C	0.712569	0.058301	0.000184
C192	C	1.212569	0.558301	0.500184
C193	C	0.566315	0.150334	0.000189
C194	C	1.066315	0.650334	0.500189
C195	C	0.566863	0.203990	0.000209
C196	C	1.066863	0.703990	0.500209
N197	N	0.563711	0.068706	0.215957
N198	N	1.063711	0.568706	0.715957
N199	N	0.577318	0.055147	-0.215640
N200	N	1.077318	0.555147	0.284360
C201	C	0.595460	0.036983	0.259538
C202	C	1.095460	0.536983	0.759538
C203	C	0.592720	0.039724	0.346727
C204	C	1.092720	0.539724	0.846727
C205	C	0.558232	0.074190	0.390334
C206	C	1.058232	0.574190	0.890334
C207	C	0.526480	0.105914	0.346746
C208	C	1.026480	0.605914	0.846746
C209	C	0.529218	0.103171	0.259559
C210	C	1.029218	0.603171	0.759559
C211	C	0.548304	0.084127	0.653585
C212	C	1.048304	0.584127	1.153585
C213	C	0.545569	0.086870	0.740779
C214	C	1.045569	0.586870	1.240779
C215	C	0.611809	0.020678	0.740754
C216	C	1.111809	0.520678	1.240754
C217	C	0.614546	0.017940	0.653564
C218	C	1.114546	0.517940	1.153564
C219	C	0.582792	0.049662	0.609984
C220	C	1.082792	0.549662	1.109984
C221	C	0.555431	0.076994	0.479455
C222	C	1.055431	0.576994	0.979455
C223	C	0.585591	0.046856	0.520865
C224	C	1.085591	0.546856	1.020865
H225	H	-0.271704	-0.021630	0.000145
H226	H	0.228296	0.478370	0.500145
H227	H	0.562604	-0.552723	0.212664
H228	H	1.062604	-0.052723	0.712664
H229	H	0.576913	-0.474683	-0.212346
H230	H	1.076913	0.025317	0.287654
C231	C	0.571847	-0.803536	-0.158365
C232	C	1.071847	-0.303536	0.341635
N233	N	0.573622	-0.826394	-0.220930
N234	N	1.073622	-0.326394	0.279070
H235	H	0.522449	0.109958	0.618109
H236	H	1.022449	0.609958	1.118109
H237	H	0.498396	0.133976	0.382256
H238	H	0.998396	0.633976	0.882256
H239	H	0.623546	0.008919	0.224039
H240	H	1.123546	0.508919	0.724039
H241	H	0.503364	0.129002	0.224076
H242	H	1.003364	0.629002	0.724076
C243	C	0.623522	0.008940	0.472895
C244	C	1.123522	0.508940	0.972895
N245	N	0.652092	-0.019618	0.436756
N246	N	1.152092	0.480382	0.936756
H247	H	0.563512	-0.695535	0.137186
H248	H	1.063512	-0.195535	0.637186
H249	H	0.577496	-0.180601	-0.136884
H250	H	1.077496	0.319399	0.363116
C251	C	0.572917	-0.697680	-0.158390
C252	C	1.072917	-0.197680	0.341610
N253	N	0.575097	-0.678779	-0.220964
N254	N	1.075097	-0.178779	0.279036
H255	H	0.618572	0.013893	0.382211
H256	H	1.118572	0.513893	0.882211
C257	C	0.517492	0.114903	0.527431
C258	C	1.017492	0.614903	1.027431
N259	N	0.488914	0.143453	0.563570
N260	N	0.988914	0.643453	1.063570
H261	H	0.343353	-0.015399	0.000099
H262	H	0.843353	0.484601	0.500099
H263	H	0.563538	-0.461272	0.212657
H264	H	1.063538	0.038728	0.712657
H265	H	0.578455	-0.323434	-0.212359
H266	H	1.078455	0.176566	0.287641
H267	H	0.412728	0.145483	0.000150
H268	H	0.912728	0.645483	0.500150
H269	H	0.642629	-0.010125	0.618061
H270	H	1.142629	0.489875	1.118061
C271	C	0.646732	-0.014218	0.788698
C272	C	1.146732	0.485782	1.288698
N273	N	0.673036	-0.040505	0.824810
N274	N	1.173036	0.459495	1.324810
C275	C	0.564464	-0.302143	0.234202
C276	C	1.064464	0.197857	0.734202
N277	N	0.562711	-0.279291	0.296769
N278	N	1.062711	0.220709	0.796769
C279	C	-0.196858	0.151921	0.000212
C280	C	0.303142	0.651921	0.500212
N281	N	-0.181019	0.188658	0.000229
N282	N	0.318981	0.688658	0.500229
C283	C	0.180189	0.199880	0.000230
C284	C	0.680189	0.699880	0.500230
N285	N	0.196024	0.236619	0.000259
N286	N	0.696024	0.736619	0.500259
C287	C	0.576619	-0.574017	-0.233912
C288	C	1.076619	-0.074017	0.266088
N289	N	0.578419	-0.596874	-0.296480
N290	N	1.078419	-0.096874	0.203520
H291	H	0.023479	0.185682	0.000237
H292	H	0.523479	0.685682	0.500237
H293	H	0.578429	-0.089136	-0.136888
H294	H	1.078429	0.410864	0.363112
H295	H	-0.180252	-0.020707	0.000155
H296	H	0.319748	0.479293	0.500155
C297	C	0.569188	-0.072611	0.158671
C298	C	1.069188	0.427389	0.658671
N299	N	0.567430	-0.049759	0.221238
N300	N	1.067430	0.450241	0.721238
H301	H	0.517483	0.114938	0.776279
H302	H	1.017483	0.614938	1.276279
C303	C	0.578149	-0.422781	-0.233934
C304	C	1.078149	0.077219	0.266066
N305	N	0.579929	-0.445635	-0.296502
N306	N	1.079929	0.054365	0.203498
C307	C	0.217931	-0.073419	0.000118
C308	C	0.717931	0.426581	0.500118
N309	N	0.243866	-0.109725	0.000112
N310	N	0.743866	0.390275	0.500112
C311	C	-0.039173	-0.076033	0.000136
C312	C	0.460827	0.423967	0.500136
N313	N	-0.055006	-0.112773	0.000143
N314	N	0.444994	0.387227	0.500143
C315	C	-0.076915	0.197276	0.000260
C316	C	0.423085	0.697276	0.500260
N317	N	-0.102837	0.233591	0.000278
N318	N	0.397163	0.733591	0.500278
C319	C	0.066679	-0.074960	0.000112
C320	C	0.566679	0.425040	0.500112
N321	N	0.092597	-0.111278	0.000086
N322	N	0.592597	0.388722	0.500086
C323	C	0.312335	0.157084	0.000186
C324	C	0.812335	0.657084	0.500186
N325	N	0.286416	0.193401	0.000209
N326	N	0.786416	0.693401	0.500209
C327	C	-0.302733	0.150843	0.000228
C328	C	0.197267	0.650843	0.500228
N329	N	-0.328668	0.187151	0.000256
N330	N	0.171332	0.687151	0.500256
C331	C	0.443763	-0.026990	0.000098
C332	C	0.943763	0.473010	0.500098
N333	N	0.469697	-0.063296	0.000094
N334	N	0.969697	0.436704	0.500094
H335	H	0.568871	-0.171946	0.137110
H336	H	1.068871	0.328054	0.637110
H337	H	0.117527	-0.061829	0.000120
H338	H	0.617527	0.438171	0.500120
H339	H	0.562594	-0.787004	0.137192
H340	H	1.062594	-0.287004	0.637192
C341	C	0.563376	-0.407994	0.234216
C342	C	1.063376	0.092006	0.734216
N343	N	0.561184	-0.426893	0.296789
N344	N	1.061184	0.073107	0.796789
C345	C	0.074337	0.198805	0.000233
C346	C	0.574337	0.698805	0.500233
N347	N	0.048417	0.235122	0.000251
N348	N	0.548417	0.735122	0.500251
