data_functionalizedCrystal
_audit_creation_method	'MofGen! by Chris Wilmer'
_symmetry_space_group_name_H-M	'P1'
_symmetry_Int_Tables_number	1
_symmetry_cell_setting	triclinic
loop_
_symmetry_equiv_pos_as_xyz
  x,y,z
_cell_length_a	16.956984
_cell_length_b	16.992694
_cell_length_c	16.053789
_cell_angle_alpha	92.715794
_cell_angle_beta	86.950413
_cell_angle_gamma	96.639179
loop_
_atom_site_label
_atom_site_type_symbol
_atom_site_fract_x
_atom_site_fract_y
_atom_site_fract_z
O1	O	0.171554	-1.032216	-0.069327
O2	O	0.671554	-0.532216	0.430673
O3	O	0.169708	-0.804051	-0.069351
O4	O	0.669708	-0.304051	0.430649
O5	O	0.055426	-0.931841	-0.069332
O6	O	0.555426	-0.431841	0.430668
O7	O	0.285837	-0.904426	-0.069346
O8	O	0.785837	-0.404426	0.430654
O9	O	0.049075	-0.926345	0.069527
O10	O	0.549075	-0.426345	0.569527
O11	O	0.163357	-0.798555	0.069508
O12	O	0.663357	-0.298555	0.569508
O13	O	0.165204	-1.026719	0.069532
O14	O	0.665204	-0.526719	0.569532
Zn15	Zn	0.163272	-0.911764	0.091567
Zn16	Zn	0.663272	-0.411764	0.591567
Zn17	Zn	0.171640	-0.919006	-0.091386
Zn18	Zn	0.671640	-0.419006	0.408614
O19	O	0.279486	-0.898929	0.069513
O20	O	0.779486	-0.398929	0.569513
C21	C	0.164156	-0.772245	0.000075
C22	C	0.664156	-0.272245	0.500075
C23	C	0.157066	-0.685660	0.000066
C24	C	0.657066	-0.185660	0.500066
N25	N	0.157562	-0.906828	0.216427
N26	N	0.657562	-0.406828	0.716427
C27	C	0.022632	-0.930497	0.000098
C28	C	0.522632	-0.430497	0.500098
C29	C	-0.065623	-0.934671	0.000097
C30	C	0.434377	-0.434671	0.500097
C31	C	-0.102154	-0.864886	0.000086
C32	C	0.397846	-0.364886	0.500086
C33	C	-0.185079	-0.868812	0.000089
C34	C	0.314921	-0.368812	0.500089
C35	C	-0.231472	-0.942524	0.000097
C36	C	0.268528	-0.442524	0.500097
C37	C	-0.194935	-1.012314	0.000110
C38	C	0.305065	-0.512314	0.500110
C39	C	-0.112012	-1.008387	0.000114
C40	C	0.387988	-0.508387	0.500114
C41	C	-0.480005	-0.961963	0.000093
C42	C	0.019995	-0.461963	0.500093
C43	C	-0.562934	-0.965885	0.000087
C44	C	-0.062934	-0.465885	0.500087
C45	C	-0.553072	-0.822382	0.000067
C46	C	-0.053072	-0.322382	0.500067
C47	C	-0.470147	-0.818462	0.000066
C48	C	0.029853	-0.318462	0.500066
C49	C	-0.433618	-0.888252	0.000084
C50	C	0.066382	-0.388252	0.500084
N51	N	-0.316234	-0.946539	0.000097
N52	N	0.183766	-0.446539	0.500097
N53	N	-0.348857	-0.884235	0.000090
N54	N	0.151143	-0.384235	0.500090
C55	C	0.312280	-0.900274	0.000081
C56	C	0.812280	-0.400274	0.500081
C57	C	0.400535	-0.896100	0.000076
C58	C	0.900535	-0.396100	0.500076
C59	C	0.170755	-1.058526	0.000104
C60	C	0.670755	-0.558526	0.500104
C61	C	0.177846	-1.145110	0.000108
C62	C	0.677846	-0.645110	0.500108
C63	C	0.225481	-0.630985	0.000062
C64	C	0.725481	-0.130985	0.500062
C65	C	0.218814	-0.549631	0.000074
C66	C	0.718814	-0.049631	0.500074
C67	C	0.143730	-0.522952	0.000084
C68	C	0.643730	-0.022952	0.500084
C69	C	0.075310	-0.577634	0.000090
C70	C	0.575310	-0.077634	0.500090
C71	C	0.081978	-0.658987	0.000084
C72	C	0.581978	-0.158987	0.500084
C73	C	0.116094	-0.281145	0.000108
C74	C	0.616094	0.218855	0.500108
C75	C	0.109431	-0.199785	0.000111
C76	C	0.609431	0.300215	0.500111
C77	C	0.252935	-0.171787	0.000097
C78	C	0.752935	0.328213	0.500097
C79	C	0.259597	-0.253143	0.000086
C80	C	0.759597	0.246857	0.500086
C81	C	0.191176	-0.307818	0.000097
C82	C	0.691176	0.192182	0.500097
N83	N	0.136913	-0.439795	0.000093
N84	N	0.636913	0.060205	0.500093
N85	N	0.197994	-0.390973	0.000093
N86	N	0.697994	0.109027	0.500093
N87	N	0.177344	-0.923949	-0.216246
N88	N	0.677344	-0.423949	0.283754
C89	C	0.206775	-0.949334	0.260120
C90	C	0.706775	-0.449334	0.760120
C91	C	0.202776	-0.945892	0.347527
C92	C	0.702776	-0.445892	0.847527
C93	C	0.149567	-0.899938	0.391239
C94	C	0.649567	-0.399938	0.891239
C95	C	0.100347	-0.857430	0.347541
C96	C	0.600347	-0.357430	0.847541
C97	C	0.104343	-0.860878	0.260136
C98	C	0.604343	-0.360878	0.760136
C99	C	0.132121	-0.884889	0.652650
C100	C	0.632121	-0.384889	1.152650
C101	C	0.128131	-0.881443	0.740061
C102	C	0.628131	-0.381443	1.240061
C103	C	0.230559	-0.969906	0.740041
C104	C	0.730559	-0.469906	1.240041
C105	C	0.234553	-0.973346	0.652634
C106	C	0.734553	-0.473346	1.152634
C107	C	0.185331	-0.930841	0.608943
C108	C	0.685331	-0.430841	1.108943
N109	N	0.145479	-0.896416	0.480583
N110	N	0.645479	-0.396416	0.980583
N111	N	0.189415	-0.934368	0.519601
N112	N	0.689415	-0.434368	1.019601
H113	H	-0.064386	-0.804861	0.000076
H114	H	0.435614	-0.304861	0.500076
Cl115	Cl	0.338943	-0.103051	0.000087
Cl116	Cl	0.838943	0.396949	0.500087
H117	H	-0.432379	-0.758437	0.000057
H118	H	0.067621	-0.258437	0.500057
H119	H	-0.082270	-1.065213	0.000124
H120	H	0.417730	-0.565213	0.500124
Cl121	Cl	0.061232	-0.823669	0.795013
Cl122	Cl	0.561232	-0.323669	1.295013
H123	H	0.026267	-0.703504	0.000087
H124	H	0.526267	-0.203504	0.500087
H125	H	0.286622	-0.652699	0.000054
H126	H	0.786622	-0.152699	0.500054
H127	H	0.250109	-0.986749	0.224535
H128	H	0.750109	-0.486749	0.724535
Cl129	Cl	-0.434093	-1.049701	0.000087
Cl130	Cl	0.065907	-0.549701	0.500087
Cl131	Cl	-0.231000	-0.781078	0.000073
Cl132	Cl	0.269000	-0.281078	0.500073
Cl133	Cl	-0.598999	-0.734652	0.000047
Cl134	Cl	-0.098999	-0.234652	0.500047
H135	H	-0.232715	-1.072332	0.000122
H136	H	0.267285	-0.572332	0.500122
H137	H	0.274525	-0.505116	0.000070
H138	H	0.774525	-0.005116	0.500070
H139	H	-0.600705	-1.025914	0.000088
H140	H	-0.100705	-0.525914	0.500088
H141	H	0.014175	-0.555906	0.000110
H142	H	0.514175	-0.055906	0.500110
Cl143	Cl	0.353991	-0.286675	0.000068
Cl144	Cl	0.853991	0.213325	0.500068
Cl145	Cl	0.015032	-0.166249	0.000142
Cl146	Cl	0.515032	0.333751	0.500142
H147	H	0.242850	-0.980506	0.383097
H148	H	0.742850	-0.480506	0.883097
H149	H	0.060380	-0.325652	0.000117
H150	H	0.560380	0.174348	0.500117
H151	H	0.277880	-1.010768	0.617049
H152	H	0.777880	-0.510768	1.117049
Cl153	Cl	0.292432	-1.023338	0.794972
Cl154	Cl	0.792432	-0.523338	1.294972
H155	H	0.092040	-0.850279	0.617087
H156	H	0.592040	-0.350279	1.117087
H157	H	0.057019	-0.820018	0.383139
H158	H	0.557019	-0.320018	0.883139
Cl159	Cl	0.042464	-0.807447	0.205208
Cl160	Cl	0.542464	-0.307447	0.705208
