data_functionalizedCrystal
_audit_creation_method	'MofGen! by Chris Wilmer'
_symmetry_space_group_name_H-M	'P1'
_symmetry_Int_Tables_number	1
_symmetry_cell_setting	triclinic
loop_
_symmetry_equiv_pos_as_xyz
  x,y,z
_cell_length_a	18.215407
_cell_length_b	21.295417
_cell_length_c	18.215399
_cell_angle_alpha	90.032152
_cell_angle_beta	90.019833
_cell_angle_gamma	90.030955
loop_
_atom_site_label
_atom_site_type_symbol
_atom_site_fract_x
_atom_site_fract_y
_atom_site_fract_z
Zn1	Zn	1.125043	-0.250608	0.416094
Zn2	Zn	1.458377	0.082725	0.749428
Zn3	Zn	1.791710	0.416059	1.082761
Zn4	Zn	1.124940	-0.355879	0.293019
Zn5	Zn	1.458273	-0.022546	0.626352
Zn6	Zn	1.791606	0.310787	0.959686
Zn7	Zn	1.001976	-0.250629	0.293042
Zn8	Zn	1.335309	0.082705	0.626375
Zn9	Zn	1.668642	0.416038	0.959708
Zn10	Zn	1.001930	-0.355844	0.416044
Zn11	Zn	1.335263	-0.022511	0.749377
Zn12	Zn	1.668596	0.310822	1.082711
O13	O	1.063472	-0.303240	0.354550
O14	O	1.396805	0.030093	0.687883
O15	O	1.730139	0.363427	1.021216
O16	O	1.228014	-0.264579	0.399780
O17	O	1.561347	0.068755	0.733113
O18	O	1.894680	0.402088	1.066446
O19	O	1.108604	-0.341941	0.190038
O20	O	1.441937	-0.008608	0.523371
O21	O	1.775271	0.324726	0.856704
O22	O	1.018364	-0.162537	0.309396
O23	O	1.351697	0.170797	0.642729
O24	O	1.685030	0.504130	0.976062
O25	O	1.227938	-0.341921	0.309357
O26	O	1.561271	-0.008588	0.642690
O27	O	1.894604	0.324746	0.976024
O28	O	1.108781	-0.162521	0.399802
O29	O	1.442114	0.170812	0.733135
O30	O	1.775447	0.504145	1.066468
O31	O	1.018263	-0.264614	0.190054
O32	O	1.351596	0.068720	0.523388
O33	O	1.684930	0.402053	0.856721
O34	O	0.898985	-0.264580	0.309347
O35	O	1.232319	0.068754	0.642680
O36	O	1.565652	0.402087	0.976013
O37	O	1.018285	-0.341861	0.519035
O38	O	1.351618	-0.008528	0.852368
O39	O	1.684952	0.324805	1.185702
O40	O	0.898951	-0.341881	0.399716
O41	O	1.232285	-0.008548	0.733049
O42	O	1.565618	0.324786	1.066383
O43	O	1.108736	-0.264545	0.519072
O44	O	1.442069	0.068789	0.852405
O45	O	1.775403	0.402122	1.185739
O46	O	1.108559	-0.443964	0.309308
O47	O	1.441893	-0.110631	0.642641
O48	O	1.775226	0.222703	0.975975
O49	O	1.018184	-0.443938	0.399694
O50	O	1.351518	-0.110605	0.733027
O51	O	1.684851	0.222728	1.066361
C52	C	0.872266	-0.303229	0.354529
C53	C	1.205599	0.030104	0.687862
C54	C	1.538932	0.363437	1.021195
C55	C	0.790467	-0.303240	0.354537
C56	C	1.123800	0.030093	0.687870
C57	C	1.457134	0.363427	1.021204
C58	C	0.602275	-0.343554	0.401533
C59	C	0.935608	-0.010221	0.734867
C60	C	1.268941	0.323113	1.068200
C61	C	0.525416	-0.343556	0.401542
C62	C	0.858749	-0.010223	0.734876
C63	C	1.192082	0.323111	1.068209
C64	C	0.525422	-0.262938	0.307582
C65	C	0.858755	0.070396	0.640916
C66	C	1.192088	0.403729	0.974249
C67	C	0.602279	-0.262933	0.307577
C68	C	0.935612	0.070400	0.640911
C69	C	1.268946	0.403734	0.974244
C70	C	0.640703	-0.303245	0.354552
C71	C	0.974037	0.030089	0.687885
C72	C	1.307370	0.363422	1.021218
C73	C	0.486987	-0.303251	0.354566
C74	C	0.820321	0.030082	0.687899
C75	C	1.153654	0.363415	1.021233
C76	C	0.403654	-0.303253	0.354575
C77	C	0.736987	0.030080	0.687909
C78	C	1.070320	0.363413	1.021242
C79	C	0.724042	-0.303242	0.354543
C80	C	1.057376	0.030091	0.687877
C81	C	1.390709	0.363424	1.021210
C82	C	1.063376	-0.466792	0.354509
C83	C	1.396709	-0.133458	0.687842
C84	C	1.730042	0.199875	1.021176
C85	C	1.063402	-0.536760	0.354516
C86	C	1.396735	-0.203427	0.687850
C87	C	1.730068	0.129907	1.021183
C88	C	1.110502	-0.569619	0.307500
C89	C	1.443835	-0.236286	0.640834
C90	C	1.777168	0.097048	0.974167
C91	C	1.110536	-0.635361	0.307517
C92	C	1.443869	-0.302028	0.640850
C93	C	1.777203	0.031305	0.974184
C94	C	1.063457	-0.668242	0.354542
C95	C	1.396791	-0.334909	0.687875
C96	C	1.730124	-0.001576	1.021208
C97	C	1.016354	-0.635375	0.401566
C98	C	1.349687	-0.302042	0.734900
C99	C	1.683021	0.031291	1.068233
C100	C	1.016326	-0.569634	0.401554
C101	C	1.349660	-0.236301	0.734887
C102	C	1.682993	0.097033	1.068220
N103	N	0.999079	-0.771508	0.360145
N104	N	1.332412	-0.438175	0.693478
N105	N	1.665745	-0.104842	1.026811
N106	N	0.999107	-0.833960	0.360153
N107	N	1.332441	-0.500627	0.693486
N108	N	1.665774	-0.167293	1.026819
C109	C	1.063540	-0.866317	0.354584
C110	C	1.396873	-0.532984	0.687917
C111	C	1.730207	-0.199650	1.021250
N112	N	1.127944	-0.833863	0.348993
N113	N	1.461277	-0.500530	0.682326
N114	N	1.794611	-0.167197	1.015659
N115	N	1.127915	-0.771406	0.348981
N116	N	1.461248	-0.438073	0.682314
N117	N	1.794581	-0.104740	1.015648
C118	C	1.063483	-0.739528	0.354561
C119	C	1.396816	-0.406194	0.687894
C120	C	1.730149	-0.072861	1.021228
C121	C	1.110681	-0.970462	0.307584
C122	C	1.444015	-0.637128	0.640917
C123	C	1.777348	-0.303795	0.974250
C124	C	1.110717	-1.036205	0.307605
C125	C	1.444050	-0.702872	0.640939
C126	C	1.777384	-0.369539	0.974272
C127	C	1.016528	-1.036218	0.401651
C128	C	1.349862	-0.702885	0.734984
C129	C	1.683195	-0.369551	1.068317
C130	C	1.016499	-0.970475	0.401633
C131	C	1.349833	-0.637142	0.734966
C132	C	1.683166	-0.303809	1.068300
C133	C	1.063575	-0.937601	0.354595
C134	C	1.396908	-0.604268	0.687929
C135	C	1.730241	-0.270935	1.021262
C136	C	1.255425	-0.303251	0.354571
C137	C	1.588758	0.030082	0.687905
C138	C	1.922092	0.363415	1.021238
C139	C	1.337224	-0.303256	0.354581
C140	C	1.670557	0.030077	0.687914
C141	C	2.003890	0.363410	1.021247
C142	C	1.063517	-0.303197	0.546503
C143	C	1.396850	0.030137	0.879836
C144	C	1.730184	0.363470	1.213169
C145	C	1.063536	-0.303178	0.628302
C146	C	1.396869	0.030155	0.961635
C147	C	1.730203	0.363488	1.294968
C148	C	1.063589	-0.139050	0.354607
C149	C	1.396922	0.194284	0.687940
C150	C	1.730256	0.527617	1.021273
C151	C	1.063639	-0.069082	0.354631
C152	C	1.396972	0.264252	0.687964
C153	C	1.730305	0.597585	1.021298
C154	C	1.063470	-0.303238	0.163344
C155	C	1.396803	0.030095	0.496677
C156	C	1.730136	0.363429	0.830010
C157	C	1.063593	-0.303079	0.081545
C158	C	1.396927	0.030254	0.414878
C159	C	1.730260	0.363588	0.748212
C160	C	1.110651	-0.262882	0.816516
C161	C	1.443984	0.070451	1.149850
C162	C	1.777317	0.403785	1.483183
C163	C	1.110660	-0.262863	0.893375
C164	C	1.443993	0.070470	1.226708
C165	C	1.777326	0.403803	1.560042
C166	C	1.016473	-0.343377	0.893325
C167	C	1.349807	-0.010044	1.226659
C168	C	1.683140	0.323289	1.559992
C169	C	1.016461	-0.343392	0.816468
C170	C	1.349795	-0.010059	1.149801
C171	C	1.683128	0.323275	1.483134
C172	C	1.063554	-0.303145	0.778065
C173	C	1.396888	0.030188	1.111399
C174	C	1.730221	0.363521	1.444732
C175	C	1.063575	-0.303112	0.931781
C176	C	1.396908	0.030221	1.265115
C177	C	1.730242	0.363555	1.598448
C178	C	1.063584	-0.303093	1.015115
C179	C	1.396917	0.030241	1.348449
C180	C	1.730251	0.363574	1.681782
C181	C	1.063544	-0.303164	0.694726
C182	C	1.396878	0.030170	1.028060
C183	C	1.730211	0.363503	1.361393
H184	H	0.494130	-0.376379	0.439801
H185	H	0.827464	-0.043046	0.773134
H186	H	1.160797	0.290288	1.106467
H187	H	0.978024	-0.662151	0.439855
H188	H	1.311357	-0.328818	0.773189
H189	H	1.644690	0.004516	1.106522
Br190	Br	1.174584	-0.208223	0.945556
Br191	Br	1.507918	0.125111	1.278889
Br192	Br	1.841251	0.458444	1.612223
Br193	Br	0.952533	-0.398033	0.764279
Br194	Br	1.285867	-0.064700	1.097613
Br195	Br	1.619200	0.268633	1.430946
Br196	Br	0.473269	-0.208232	0.243834
Br197	Br	0.806603	0.125102	0.577168
Br198	Br	1.139936	0.458435	0.910501
Br199	Br	0.952572	-0.925878	0.465442
Br200	Br	1.285906	-0.592544	0.798775
Br201	Br	1.619239	-0.259211	1.132109
Br202	Br	1.174561	-0.208260	0.764401
Br203	Br	1.507894	0.125073	1.097734
Br204	Br	1.841227	0.458406	1.431067
Br205	Br	0.654437	-0.208217	0.243819
Br206	Br	0.987771	0.125116	0.577153
Br207	Br	1.321104	0.458449	0.910486
H208	H	0.633557	-0.376377	0.439785
H209	H	0.966891	-0.043044	0.773118
H210	H	1.300224	0.290290	1.106451
Br211	Br	1.174399	-0.525007	0.243674
Br212	Br	1.507733	-0.191673	0.577008
Br213	Br	1.841066	0.141660	0.910341
Br214	Br	0.952401	-0.525036	0.465367
Br215	Br	1.285734	-0.191703	0.798700
Br216	Br	1.619067	0.141631	1.132034
Br217	Br	1.174462	-0.679966	0.243706
Br218	Br	1.507796	-0.346633	0.577039
Br219	Br	1.841129	-0.013299	0.910372
H220	H	0.978133	-0.376146	0.924602
H221	H	1.311467	-0.042813	1.257935
H222	H	1.644800	0.290521	1.591269
Br223	Br	1.174565	-0.925843	0.243746
Br224	Br	1.507898	-0.592510	0.577080
Br225	Br	1.841232	-0.259176	0.910413
H226	H	1.149076	-1.062958	0.269321
H227	H	1.482409	-0.729625	0.602654
H228	H	1.815743	-0.396292	0.935987
Br229	Br	0.952642	-1.080835	0.465479
Br230	Br	1.285975	-0.747501	0.798812
Br231	Br	1.619309	-0.414168	1.132145
