data_functionalizedCrystal
_audit_creation_method	'MofGen! by Chris Wilmer'
_symmetry_space_group_name_H-M	'P1'
_symmetry_Int_Tables_number	1
_symmetry_cell_setting	triclinic
loop_
_symmetry_equiv_pos_as_xyz
  x,y,z
_cell_length_a	15.698487
_cell_length_b	19.377372
_cell_length_c	19.377372
_cell_angle_alpha	86.406704
_cell_angle_beta	72.112718
_cell_angle_gamma	72.112958
loop_
_atom_site_label
_atom_site_type_symbol
_atom_site_fract_x
_atom_site_fract_y
_atom_site_fract_z
Zr1	Zr	1.122149	-0.172913	0.607287
O2	O	1.227043	-0.256259	0.523943
O3	O	0.966760	-0.147365	0.632837
O4	O	1.096902	-0.276165	0.652745
O5	O	1.134424	-0.025857	0.488331
O6	O	1.134427	-0.291865	0.754347
O7	O	1.096900	-0.127459	0.504035
O8	O	0.901626	-0.061465	0.718735
O9	O	1.367225	-0.256257	0.523942
O10	O	1.077380	-0.148183	0.719558
O11	O	1.077379	-0.060642	0.632014
O12	O	1.230605	-0.212288	0.655453
O13	O	1.230604	-0.124746	0.567909
Zr14	Zr	1.241843	-0.035909	0.744284
Zr15	Zr	1.181997	-0.197953	0.769330
Zr16	Zr	1.181995	-0.010869	0.582241
Zr17	Zr	1.345723	-0.172909	0.607287
Zr18	Zr	1.018268	-0.035913	0.744284
O19	O	1.397232	-0.061457	0.718733
O20	O	1.312139	-0.291862	0.754346
O21	O	1.312136	-0.025854	0.488330
O22	O	1.136949	0.047437	0.827628
O23	O	1.051856	-0.182968	0.863241
O24	O	1.051853	0.083040	0.597225
O25	O	1.229568	-0.182965	0.863240
O26	O	1.267089	0.067343	0.698826
O27	O	1.229564	0.083043	0.597224
O28	O	1.267091	-0.081363	0.847536
O29	O	1.414796	-0.276160	0.652744
O30	O	0.949196	0.067338	0.698827
O31	O	0.996767	0.047435	0.827629
O32	O	0.949197	-0.081368	0.847537
O33	O	1.414794	-0.127453	0.504034
O34	O	1.462365	-0.147357	0.632836
O35	O	1.133387	0.003466	0.696118
O36	O	1.133388	-0.084075	0.783662
O37	O	1.286613	-0.148180	0.719557
O38	O	1.286612	-0.060639	0.632013
C39	C	0.902338	-0.104416	0.675786
C40	C	0.807425	-0.104417	0.675787
C41	C	1.107135	-0.073090	0.473095
C42	C	1.081728	-0.062460	0.404304
C43	C	1.256854	0.098281	0.644456
C44	C	1.282260	0.167073	0.633824
C45	C	0.633647	-0.104403	0.675783
C46	C	0.730349	-0.104409	0.675783
C47	C	1.461653	-0.104406	0.675785
C48	C	1.556566	-0.104405	0.675784
C49	C	1.107138	-0.307103	0.707115
C50	C	1.081732	-0.375895	0.717747
C51	C	0.965928	0.560621	0.766189
C52	C	0.989824	0.625252	0.756195
C53	C	1.149779	0.558322	0.689275
C54	C	1.125895	0.493685	0.699260
C55	C	1.033969	0.494841	0.737718
C56	C	1.193936	0.427905	0.670789
C57	C	1.170055	0.363273	0.680777
C58	C	1.078133	0.364421	0.719236
C59	C	1.010087	0.430209	0.747706
C60	C	1.285864	0.426750	0.632335
C61	C	1.353904	0.360969	0.603865
C62	C	1.330022	0.296337	0.613848
C63	C	1.238100	0.297485	0.652306
C64	C	1.398068	0.230549	0.585377
C65	C	1.374186	0.165917	0.595365
C66	C	1.214219	0.232853	0.662294
C67	C	1.398065	-0.194809	0.010752
C68	C	1.374170	-0.184811	-0.053879
C69	C	1.214216	-0.117891	0.013051
C70	C	1.238098	-0.127881	0.077689
C71	C	1.330024	-0.166341	0.076533
C72	C	1.170057	-0.099413	0.143470
C73	C	1.193936	-0.109405	0.208102
C74	C	1.285857	-0.147865	0.206954
C75	C	1.353903	-0.176333	0.141165
C76	C	1.078129	-0.060957	0.144625
C77	C	1.010088	-0.032489	0.210405
C78	C	1.033969	-0.042476	0.275039
C79	C	1.125890	-0.080936	0.273890
C80	C	0.965922	-0.014008	0.340827
C81	C	0.989802	-0.024000	0.405460
C82	C	1.149769	-0.090928	0.338523
C83	C	1.256857	-0.135732	0.878476
C84	C	1.282264	-0.146362	0.947267
C85	C	0.977199	-0.135736	0.878477
C86	C	0.907693	-0.146368	0.947269
C87	C	0.977196	0.098276	0.644457
C88	C	0.907689	0.167067	0.633825
C89	C	1.052057	0.066956	0.847148
C90	C	1.007957	0.125116	0.905307
C91	C	1.311935	-0.275777	0.504423
C92	C	1.356035	-0.333938	0.446264
C93	C	1.386792	-0.073085	0.473094
C94	C	1.456298	-0.062454	0.404302
C95	C	1.386795	-0.307098	0.707114
C96	C	1.456302	-0.375888	0.717746
C97	C	0.845814	-0.184831	0.946113
C98	C	0.780510	-0.194835	1.010746
C99	C	0.777082	-0.166370	1.076533
C100	C	0.838970	-0.127906	1.077687
C101	C	0.904277	-0.117907	1.013055
C102	C	0.904286	0.232842	0.662292
C103	C	0.838990	0.297484	0.652298
C104	C	0.777094	0.296349	0.613841
C105	C	0.780502	0.230567	0.585369
C106	C	0.845801	0.165927	0.595359
C107	C	0.987250	0.106732	0.978322
C108	C	0.945826	0.161372	1.032976
C109	C	0.925103	0.234397	1.014612
C110	C	0.945815	0.252780	0.941589
C111	C	0.987245	0.198140	0.886937
C112	C	1.376752	-0.315554	0.373249
C113	C	1.418204	-0.370194	0.318595
C114	C	1.438932	-0.443218	0.336959
C115	C	1.418214	-0.461602	0.409982
C116	C	1.376769	-0.406962	0.464634
C117	C	1.518184	-0.023998	0.405459
C118	C	1.583506	-0.014012	0.340828
C119	C	1.586936	-0.042478	0.275042
C120	C	1.525046	-0.080940	0.273887
C121	C	1.459730	-0.090930	0.338518
C122	C	1.518182	-0.374730	0.756208
C123	C	1.583487	-0.439362	0.766212
C124	C	1.586916	-0.505151	0.737749
C125	C	1.525028	-0.506307	0.699287
C126	C	1.459719	-0.441677	0.689287
H127	H	1.139360	0.233797	0.693603
H128	H	1.515405	-0.321169	0.779387
H129	H	1.409340	-0.122242	0.337566
H130	H	0.723900	-0.174516	1.129155
Br131	Br	1.667471	-0.437775	0.818409
Br132	Br	1.089462	-0.065700	0.014612
H133	H	1.640099	-0.557772	0.745896
H134	H	0.836168	-0.104733	1.131260
Br135	Br	0.696529	-0.247036	1.009163
H136	H	1.004096	0.213119	0.827485
H137	H	1.527850	-0.104115	0.220315
Br138	Br	0.885335	0.019703	0.211966
Br139	Br	1.348651	-0.431925	0.563727
Br140	Br	1.348628	-0.216454	0.348307
Br141	Br	1.522828	-0.246994	0.009188
Br142	Br	1.446310	-0.345229	0.219500
Br143	Br	1.522824	0.228989	0.533198
H144	H	0.891069	0.561565	0.797498
Br145	Br	0.988247	-0.065699	1.014636
H146	H	0.928965	0.146391	1.092431
H147	H	1.640125	-0.034339	0.222421
Br148	Br	0.897483	0.714524	0.794865
H149	H	1.435096	-0.521065	0.424926
Br150	Br	1.274534	0.556761	0.637087
H151	H	1.058688	-0.052828	0.091995
Br152	Br	1.478659	0.359408	0.551677
H153	H	0.891368	0.278881	1.059120
Br154	Br	1.529700	-0.595597	0.660656
H155	H	0.891075	0.017301	0.341757
Br156	Br	1.513551	0.014641	0.494732
Br157	Br	0.917686	0.351889	0.916679
H158	H	1.633891	0.017309	0.341782
H159	H	1.409340	-0.442629	0.657966
H160	H	0.934401	-0.000805	0.459020
H161	H	1.058693	0.311792	0.727371
H162	H	0.723928	0.348988	0.605711
H163	H	0.836228	0.351039	0.675487
Br164	Br	0.885324	0.431773	0.799890
H165	H	1.472679	-0.487703	0.292451
H166	H	1.305305	0.479379	0.624206
H167	H	0.954679	0.233780	0.693607
Br168	Br	1.274532	-0.143113	0.336959
Br169	Br	1.466530	0.076638	0.556733
Br170	Br	0.696493	0.229039	0.533179
H171	H	1.428767	-0.207629	0.140219
Br172	Br	1.466519	-0.223462	-0.143155
H173	H	0.848559	0.112373	0.572179
H174	H	1.004116	0.047276	0.993288
H175	H	1.305297	-0.156001	0.259583
Br176	Br	0.850450	-0.223472	0.856840
