data_functionalizedCrystal
_audit_creation_method	'MofGen! by Chris Wilmer'
_symmetry_space_group_name_H-M	'P1'
_symmetry_Int_Tables_number	1
_symmetry_cell_setting	triclinic
loop_
_symmetry_equiv_pos_as_xyz
  x,y,z
_cell_length_a	10.654537
_cell_length_b	12.503572
_cell_length_c	10.654555
_cell_angle_alpha	86.439948
_cell_angle_beta	95.514234
_cell_angle_gamma	86.448538
loop_
_atom_site_label
_atom_site_type_symbol
_atom_site_fract_x
_atom_site_fract_y
_atom_site_fract_z
O1	O	-1.675031	0.089292	0.169155
O2	O	-1.309552	0.089299	0.185970
O3	O	-1.500687	0.089295	-0.005176
O4	O	-1.483896	0.089296	0.360301
O5	O	-1.486313	-0.089347	0.009223
O6	O	-1.295178	-0.089343	0.200369
O7	O	-1.660657	-0.089349	0.183554
Cu8	Cu	-1.476605	-0.105658	0.193276
Cu9	Cu	-1.493604	0.105607	0.176247
O10	O	-1.469522	-0.089346	0.374700
C11	C	-1.255567	-0.000021	0.191936
C12	C	-1.116123	-0.000019	0.188248
C13	C	-1.088163	-0.000005	0.416811
C14	C	-1.008674	0.000006	0.529354
C15	C	-0.877655	0.000006	0.525881
C16	C	-0.826124	-0.000008	0.409852
C17	C	-0.905613	-0.000019	0.297309
C18	C	-1.036633	-0.000016	0.300794
C19	C	-0.933573	-0.000040	0.068749
C20	C	-1.064592	-0.000033	0.072219
C21	C	-0.882042	-0.000054	-0.047279
C22	C	-0.961532	-0.000057	-0.159826
C23	C	-1.092558	-0.000056	-0.156347
C24	C	-1.144081	-0.000043	-0.040324
N25	N	-1.464658	-0.254250	0.205253
C26	C	-1.447083	-0.473365	0.222881
C27	C	-1.523132	-0.526693	0.146637
C28	C	-1.513353	-0.648616	0.156445
C29	C	-1.456860	-0.351431	0.213074
C30	C	-0.714642	-0.000029	0.177591
C31	C	-0.854084	-0.000029	0.181293
C32	C	-1.492265	-0.000024	-0.044775
C33	C	-1.488567	-0.000017	-0.184218
N34	N	-1.505561	0.254199	0.164261
C35	C	-1.465956	-0.194785	-0.430549
C36	C	-1.459852	-0.292165	-0.357186
C37	C	-1.463320	-0.292165	-0.226167
C38	C	-1.472890	-0.194775	-0.168509
C39	C	-1.478995	-0.097396	-0.241873
C40	C	-1.475529	-0.097406	-0.372894
C41	C	-1.494672	0.097362	-0.257582
C42	C	-1.491213	0.097365	-0.388602
C43	C	-1.504242	0.194752	-0.199924
C44	C	-1.510355	0.292134	-0.273289
C45	C	-1.506888	0.292130	-0.404316
C46	C	-1.497317	0.194744	-0.461965
C47	C	-1.477945	-0.000025	0.414298
C48	C	-1.481642	-0.000025	0.553741
H49	H	-0.719440	-0.000021	0.407035
H50	H	-0.775358	-0.000060	-0.050099
N51	N	-1.351127	-0.534163	0.319114
H52	H	-1.263362	-0.514674	0.302447
H53	H	-1.357770	-0.613884	0.312527
N54	N	-0.791926	-0.000001	0.647273
H55	H	-0.813937	0.066221	0.692505
H56	H	-0.701138	-0.000048	0.627370
H57	H	-1.050645	0.000014	0.623822
N58	N	-0.905939	-0.000072	-0.284950
H59	H	-0.940167	0.066148	-0.339655
H60	H	-0.929537	-0.066341	-0.328861
N61	N	-1.178280	-0.000077	-0.277740
H62	H	-1.166914	0.066138	-0.333657
H63	H	-1.269063	-0.000115	-0.257836
N64	N	-1.285393	-0.000044	-0.036581
H65	H	-1.316796	0.066182	0.003779
H66	H	-1.306030	-0.066307	0.014450
N67	N	-1.619105	-0.465882	0.050418
H68	H	-1.678901	-0.419221	0.095135
H69	H	-1.668411	-0.518527	0.000927
H70	H	-1.463145	-0.194795	-0.537233
N71	N	-1.449545	-0.397200	-0.419378
H72	H	-1.446204	-0.458888	-0.353020
H73	H	-1.370048	-0.401445	-0.463898
H74	H	-1.458327	-0.371460	-0.166431
N75	N	-1.507981	0.194740	-0.058611
H76	H	-1.589609	0.232971	-0.039632
H77	H	-1.434120	0.232950	-0.020720
H78	H	-1.518138	0.371420	-0.226332
N79	N	-1.476591	-0.194772	-0.027192
H80	H	-1.471257	-0.271238	0.010536
H81	H	-1.558217	-0.156494	-0.008296
N82	N	-1.513501	0.397166	-0.483436
H83	H	-1.439825	0.439757	-0.454573
H84	H	-1.595301	0.439631	-0.473515
N85	N	-1.493591	0.194742	-0.603279
H86	H	-1.411965	0.156511	-0.622262
H87	H	-1.498964	0.271237	-0.640910
H88	H	-1.194845	0.000019	0.419648
