data_functionalizedCrystal
_audit_creation_method	'MofGen! by Chris Wilmer'
_symmetry_space_group_name_H-M	'P1'
_symmetry_Int_Tables_number	1
_symmetry_cell_setting	triclinic
loop_
_symmetry_equiv_pos_as_xyz
  x,y,z
_cell_length_a	18.050591
_cell_length_b	18.050589
_cell_length_c	12.645323
_cell_angle_alpha	90.025443
_cell_angle_beta	90.028496
_cell_angle_gamma	90.024227
loop_
_atom_site_label
_atom_site_type_symbol
_atom_site_fract_x
_atom_site_fract_y
_atom_site_fract_z
Zn1	Zn	1.135348	-0.295733	0.599607
Zn2	Zn	1.135242	-0.419932	0.422345
Zn3	Zn	1.011151	-0.295751	0.422333
Zn4	Zn	1.011115	-0.419877	0.599542
O5	O	1.073214	-0.357823	0.510957
O6	O	1.239259	-0.312223	0.576124
O7	O	1.118752	-0.403490	0.273996
O8	O	1.027685	-0.191824	0.445871
O9	O	1.239181	-0.403472	0.445891
O10	O	1.118932	-0.191811	0.576113
O11	O	1.027583	-0.312255	0.273987
O12	O	0.907222	-0.312202	0.445808
O13	O	1.027624	-0.403378	0.747898
O14	O	0.907195	-0.403396	0.576003
O15	O	1.118898	-0.312170	0.747945
O16	O	1.118717	-0.523849	0.445829
O17	O	1.027522	-0.523809	0.576015
C18	C	0.880262	-0.357795	0.510898
C19	C	0.797716	-0.357801	0.510898
C20	C	0.598258	-0.308152	0.440261
C21	C	0.548836	-0.375891	0.414180
C22	C	0.646586	-0.357824	0.510946
C23	C	0.548926	-0.290109	0.537024
C24	C	0.500601	-0.357840	0.510990
C25	C	0.598251	-0.425598	0.484815
C26	C	0.598345	-0.339771	0.607704
C27	C	0.548946	-0.407556	0.581659
C28	C	0.730684	-0.357814	0.510918
C29	C	0.416504	-0.357858	0.511019
C30	C	1.073124	-0.550775	0.510939
C31	C	1.073154	-0.633321	0.510967
C32	C	1.023611	-0.832777	0.581738
C33	C	1.005504	-0.882218	0.485000
C34	C	1.073227	-0.784451	0.510981
C35	C	1.091370	-0.882092	0.607729
C36	C	1.073296	-0.930436	0.511003
C37	C	1.055085	-0.832805	0.414192
C38	C	1.140983	-0.832675	0.536987
C39	C	1.122902	-0.882094	0.440183
C40	C	1.073185	-0.700353	0.510970
C41	C	1.073338	-1.014533	0.511003
C42	C	1.266920	-0.357851	0.511016
C43	C	1.349465	-0.357863	0.511041
C44	C	1.073269	-0.357766	0.787462
C45	C	1.073292	-0.357741	0.905292
C46	C	1.073324	-0.164117	0.510998
C47	C	1.073371	-0.081572	0.511015
C48	C	1.073202	-0.357827	0.235527
C49	C	1.073323	-0.357642	0.117697
C50	C	1.015695	-0.414850	1.072827
C51	C	1.015846	-0.415133	0.950267
C52	C	1.151539	-0.378986	0.949823
C53	C	1.151223	-0.379344	1.072421
C54	C	1.053382	-0.279068	1.072488
C55	C	1.051636	-0.279539	0.949882
H56	H	0.620109	-0.324469	0.689486
C57	C	1.173736	-0.455990	1.110373
C58	C	1.187499	-0.501538	1.022917
C59	C	1.208228	-0.572154	1.057830
H60	H	1.217308	-0.452319	1.152204
H61	H	1.134879	-0.476672	1.151537
H62	H	1.226353	-0.480861	0.981770
H63	H	1.143937	-0.505231	0.981076
H64	H	1.169371	-0.592836	1.098995
H65	H	1.251798	-0.568475	1.099662
H66	H	1.217562	-0.603069	0.998498
C67	C	1.217390	-0.803737	0.566205
C68	C	1.269406	-0.829828	0.493034
C69	C	1.339801	-0.803194	0.519936
H70	H	1.217023	-0.751119	0.565326
H71	H	1.230230	-0.820604	0.634968
H72	H	1.256569	-0.812957	0.424288
H73	H	1.269796	-0.882443	0.493902
H74	H	1.352642	-0.820061	0.588700
H75	H	1.339426	-0.750576	0.519057
H76	H	1.375104	-0.820898	0.470300
H77	H	1.168733	-0.435823	0.919136
C78	C	1.111904	-0.911062	0.716716
C79	C	1.176508	-0.953660	0.709463
C80	C	1.195434	-0.980365	0.809839
H81	H	1.120150	-0.870535	0.763202
H82	H	1.072671	-0.940823	0.743233
H83	H	1.215732	-0.923900	0.682961
H84	H	1.168279	-0.994198	0.662997
H85	H	1.156201	-1.010126	0.836356
H86	H	1.203677	-0.939833	0.856317
H87	H	1.239265	-1.009275	0.804930
H88	H	0.948237	-0.903996	0.463024
C89	C	1.210482	-0.326200	1.111805
C90	C	1.246410	-0.293909	1.025210
C91	C	1.301010	-0.244961	1.061443
H92	H	1.188142	-0.288564	1.153504
H93	H	1.245498	-0.352543	1.153414
H94	H	1.211399	-0.267567	0.983618
H95	H	1.268765	-0.331527	0.983501
H96	H	1.336026	-0.271304	1.103053
H97	H	1.278664	-0.207330	1.103143
H98	H	1.325398	-0.223051	1.002695
C99	C	0.626970	-0.502041	0.455500
C100	C	0.601416	-0.553937	0.529229
C101	C	0.627866	-0.624359	0.502264
H102	H	0.609622	-0.515053	0.387033
H103	H	0.679601	-0.501600	0.455680
H104	H	0.548795	-0.554380	0.529038
H105	H	0.618762	-0.540949	0.597702
H106	H	0.680497	-0.623918	0.502444
H107	H	0.610516	-0.637363	0.433796
H108	H	0.610537	-0.659578	0.552290
H109	H	0.619910	-0.266192	0.380421
C110	C	0.938422	-0.397424	0.910317
C111	C	0.891086	-0.386367	0.996567
C112	C	0.819753	-0.370062	0.959812
H113	H	0.939907	-0.353767	0.868456
H114	H	0.920654	-0.437533	0.868750
H115	H	0.908849	-0.346261	1.038117
H116	H	0.889579	-0.430015	1.038436
H117	H	0.801985	-0.410171	0.918245
H118	H	0.821245	-0.326406	0.917952
H119	H	0.787625	-0.362565	1.018326
C120	C	0.520354	-0.463581	0.661543
C121	C	0.546565	-0.445116	0.762399
C122	C	0.520249	-0.496717	0.836007
H123	H	0.467733	-0.463042	0.661678
H124	H	0.537358	-0.511651	0.642932
H125	H	0.529557	-0.397059	0.781006
H126	H	0.599182	-0.445660	0.762299
H127	H	0.537253	-0.544787	0.817395
H128	H	0.467629	-0.496174	0.836132
H129	H	0.538034	-0.484200	0.904444
C130	C	0.520137	-0.213679	0.566273
C131	C	0.545139	-0.161898	0.491996
C132	C	0.518644	-0.091482	0.518904
H133	H	0.467517	-0.214244	0.566693
H134	H	0.537839	-0.200468	0.634492
H135	H	0.527434	-0.175107	0.423795
H136	H	0.597756	-0.161311	0.491565
H137	H	0.536346	-0.078270	0.587123
H138	H	0.466025	-0.092054	0.519324
H139	H	0.535610	-0.056339	0.468517
H140	H	1.195627	-0.338637	0.920695
H141	H	0.997318	-0.259704	1.103385
C142	C	1.033093	-0.491978	1.114121
C143	C	1.029484	-0.491871	1.224721
C144	C	1.045521	-0.562904	1.262799
H145	H	0.998050	-0.526270	1.086752
H146	H	1.081473	-0.505940	1.092308
H147	H	0.981110	-0.477918	1.246525
H148	H	1.064526	-0.457594	1.252118
H149	H	1.093901	-0.576866	1.240985
H150	H	1.010476	-0.597190	1.235422
H151	H	1.043081	-0.562839	1.337844
C152	C	0.967468	-0.803935	0.661271
C153	C	0.896664	-0.829028	0.633553
C154	C	0.844924	-0.802465	0.706780
H155	H	0.979760	-0.821518	0.729858
H156	H	0.968099	-0.751306	0.661144
H157	H	0.896034	-0.881646	0.633691
H158	H	0.884348	-0.811447	0.564978
H159	H	0.845556	-0.749836	0.706653
H160	H	0.857224	-0.820050	0.775362
H161	H	0.796877	-0.819481	0.687978
C162	C	0.519655	-0.396229	0.305187
C163	C	0.442100	-0.396598	0.306980
C164	C	0.415180	-0.415306	0.206595
H165	H	0.536454	-0.360896	0.254973
H166	H	0.537195	-0.444014	0.286098
H167	H	0.424567	-0.348820	0.326057
H168	H	0.425280	-0.431932	0.357173
H169	H	0.432720	-0.463091	0.187506
H170	H	0.431984	-0.379971	0.156389
H171	H	0.362556	-0.415566	0.207801
H172	H	1.039700	-0.811245	0.332360
C173	C	1.178791	-0.910753	0.360155
C174	C	1.159488	-0.885661	0.259081
C175	C	1.210947	-0.912057	0.185329
H176	H	1.226782	-0.893056	0.377893
H177	H	1.178789	-0.963383	0.360939
H178	H	1.159498	-0.833042	0.258299
H179	H	1.111506	-0.903356	0.241309
H180	H	1.210945	-0.964687	0.186113
H181	H	1.258935	-0.894358	0.203078
H182	H	1.197853	-0.895041	0.116741
C183	C	1.033286	-0.492814	0.911121
C184	C	0.974222	-0.518901	0.849686
C185	C	0.990263	-0.590466	0.813625
H186	H	1.077077	-0.491728	0.869524
H187	H	1.040429	-0.524756	0.969940
H188	H	0.967088	-0.486968	0.790876
H189	H	0.930425	-0.520006	0.891260
H190	H	0.997406	-0.622407	0.872444
H191	H	1.034055	-0.589372	0.772032
H192	H	0.950189	-0.608178	0.771945
H193	H	0.957500	-0.401682	1.102292
C194	C	0.974852	-0.258052	0.911225
C195	C	0.956182	-0.188258	0.951524
C196	C	0.885451	-0.168446	0.915943
H197	H	0.974587	-0.256355	0.836148
H198	H	0.939795	-0.293651	0.934849
H199	H	0.991230	-0.152668	0.927895
H200	H	0.956431	-0.189936	1.026598
H201	H	0.850393	-0.204046	0.939567
H202	H	0.885193	-0.166754	0.840866
H203	H	0.872772	-0.121093	0.943288
C204	C	1.103527	-0.219635	0.909281
C205	C	1.138914	-0.185471	0.994953
C206	C	1.186718	-0.130278	0.957596
H207	H	1.139590	-0.241223	0.864108
H208	H	1.075880	-0.183772	0.871011
H209	H	1.166559	-0.221328	1.033206
H210	H	1.102869	-0.163867	1.040135
H211	H	1.159072	-0.094415	0.919325
H212	H	1.222777	-0.151872	0.912422
H213	H	1.210729	-0.107086	1.015718
H214	H	1.095356	-0.236446	1.101509
