data_functionalizedCrystal
_audit_creation_method	'MofGen! by Chris Wilmer'
_symmetry_space_group_name_H-M	'P1'
_symmetry_Int_Tables_number	1
_symmetry_cell_setting	triclinic
loop_
_symmetry_equiv_pos_as_xyz
  x,y,z
_cell_length_a	15.944493
_cell_length_b	14.519709
_cell_length_c	13.596369
_cell_angle_alpha	89.993066
_cell_angle_beta	90.004761
_cell_angle_gamma	96.422406
loop_
_atom_site_label
_atom_site_type_symbol
_atom_site_fract_x
_atom_site_fract_y
_atom_site_fract_z
O1	O	1.114728	-0.118688	0.081780
O2	O	0.870193	-0.133409	0.081786
O3	O	0.998944	0.008203	0.081774
O4	O	0.985977	-0.260300	0.081792
O5	O	0.998931	0.008210	-0.081809
O6	O	0.870180	-0.133401	-0.081797
O7	O	1.114715	-0.118681	-0.081802
Zn8	Zn	0.992445	-0.126040	-0.107772
Zn9	Zn	0.992462	-0.126050	0.107755
O10	O	0.985964	-0.260292	-0.081791
C11	C	0.838891	-0.132803	-0.000005
C12	C	0.745639	-0.130999	-0.000004
C13	C	0.510000	-0.214355	0.000003
C14	C	0.459370	-0.169401	-0.080660
C15	C	0.574913	-0.127657	-0.000006
C16	C	0.459388	-0.169388	0.080620
C17	C	0.409999	-0.124435	-0.000004
C18	C	0.525512	-0.082727	-0.080735
C19	C	0.525532	-0.082726	0.080618
C20	C	0.474935	-0.037708	-0.000064
C21	C	0.669916	-0.129516	-0.000008
C22	C	0.314999	-0.122570	-0.000008
C23	C	0.998333	0.042565	-0.000018
C24	C	0.996522	0.144943	-0.000018
C25	C	1.146017	-0.119286	-0.000009
C26	C	1.239268	-0.121090	-0.000005
C27	C	0.986575	-0.294655	0.000003
C28	C	0.988385	-0.397032	0.000010
N29	N	0.992440	-0.126032	-0.254864
C30	C	0.989855	0.519825	0.000008
C31	C	0.991707	0.415521	0.000000
C32	C	0.993188	0.332387	-0.000006
C33	C	0.995040	0.228077	-0.000012
C34	C	0.992461	-0.126051	-0.656155
C35	C	0.992453	-0.126049	-0.544504
C36	C	0.992451	-0.126042	-0.455513
C37	C	0.992442	-0.126039	-0.343855
N38	N	0.992474	-0.126050	0.254847
H39	H	0.554431	-0.046143	0.148809
H40	H	0.430481	-0.206012	-0.148847
O41	O	0.563605	-0.034270	-0.171170
H42	H	0.609413	0.025190	-0.148595
H43	H	0.459361	0.037029	-0.000116
H44	H	0.430508	-0.206022	0.148804
H45	H	0.525732	-0.289036	-0.000068
