data_functionalizedCrystal
_audit_creation_method	'MofGen! by Chris Wilmer'
_symmetry_space_group_name_H-M	'P1'
_symmetry_Int_Tables_number	1
_symmetry_cell_setting	triclinic
loop_
_symmetry_equiv_pos_as_xyz
  x,y,z
_cell_length_a	12.759401
_cell_length_b	12.759400
_cell_length_c	18.215399
_cell_angle_alpha	89.975454
_cell_angle_beta	89.982873
_cell_angle_gamma	90.014328
loop_
_atom_site_label
_atom_site_type_symbol
_atom_site_fract_x
_atom_site_fract_y
_atom_site_fract_z
Zn1	Zn	1.606235	-0.418287	-0.416080
Zn2	Zn	2.106235	0.081713	0.083920
Zn3	Zn	1.606135	-0.593984	-0.293021
Zn4	Zn	2.106135	-0.093984	0.206979
Zn5	Zn	1.430543	-0.418319	-0.293033
Zn6	Zn	1.930543	0.081681	0.206967
Zn7	Zn	1.430525	-0.593923	-0.416052
Zn8	Zn	1.930525	-0.093923	0.083948
O9	O	1.518360	-0.506128	-0.354547
O10	O	2.018360	-0.006128	0.145453
O11	O	1.753243	-0.441606	-0.399763
O12	O	2.253243	0.058394	0.100237
O13	O	1.582808	-0.570721	-0.190038
O14	O	2.082808	-0.070721	0.309962
O15	O	1.453898	-0.271294	-0.309373
O16	O	1.953898	0.228706	0.190627
O17	O	1.753169	-0.570690	-0.309352
O18	O	2.253169	-0.070690	0.190648
O19	O	1.582978	-0.271270	-0.399775
O20	O	2.082978	0.228730	0.100225
O21	O	1.453801	-0.441660	-0.190047
O22	O	1.953801	0.058340	0.309953
O23	O	1.283520	-0.441601	-0.309345
O24	O	1.783520	0.058399	0.190655
O25	O	1.453868	-0.570586	-0.519040
O26	O	1.953868	-0.070586	-0.019040
O27	O	1.283507	-0.570617	-0.399726
O28	O	1.783507	-0.070617	0.100274
O29	O	1.582961	-0.441547	-0.519061
O30	O	2.082961	0.058453	-0.019061
O31	O	1.582791	-0.740997	-0.309325
O32	O	2.082791	-0.240997	0.190675
O33	O	1.453772	-0.740953	-0.399715
O34	O	1.953772	-0.240953	0.100285
C35	C	1.245392	-0.506107	-0.354535
C36	C	1.745392	-0.006107	0.145465
C37	C	1.128616	-0.506123	-0.354547
C38	C	1.628616	-0.006123	0.145453
C39	C	0.964005	-0.438879	-0.307575
C40	C	1.464005	0.061121	0.192425
C41	C	1.073729	-0.438856	-0.307568
C42	C	1.573729	0.061144	0.192432
C43	C	1.073773	-0.573408	-0.401541
C44	C	1.573773	-0.073408	0.098459
C45	C	0.964051	-0.573424	-0.401552
C46	C	1.464051	-0.073424	0.098448
C47	C	0.909123	-0.371615	-0.260588
C48	C	1.409123	0.128385	0.239412
C49	C	0.963958	-0.304328	-0.213595
C50	C	1.463958	0.195672	0.286405
C51	C	1.073682	-0.304306	-0.213588
C52	C	1.573682	0.195694	0.286412
C53	C	1.128571	-0.371571	-0.260574
C54	C	1.628571	0.128429	0.239426
C55	C	1.518297	-0.779096	-0.354531
C56	C	2.018297	-0.279096	0.145469
C57	C	1.518367	-0.895872	-0.354549
C58	C	2.018367	-0.395872	0.145451
C59	C	1.585622	-0.950723	-0.307535
C60	C	2.085622	-0.450723	0.192465
C61	C	1.585686	-1.060447	-0.307558
C62	C	2.085686	-0.560447	0.192442
C63	C	1.451232	-1.060460	-0.401611
C64	C	1.951232	-0.560460	0.098389
C65	C	1.451173	-0.950738	-0.401591
C66	C	1.951173	-0.450738	0.098409
C67	C	1.652815	-0.895857	-0.260493
C68	C	2.152815	-0.395857	0.239507
C69	C	1.720075	-0.950708	-0.213475
C70	C	2.220075	-0.450708	0.286525
C71	C	1.720140	-1.060432	-0.213497
C72	C	2.220140	-0.560432	0.286503
C73	C	1.652944	-1.115305	-0.260539
C74	C	2.152944	-0.615305	0.239461
C75	C	1.792393	-0.506151	-0.354559
C76	C	2.292393	-0.006151	0.145441
C77	C	1.909169	-0.506161	-0.354565
C78	C	2.409169	-0.006161	0.145435
C79	C	1.518424	-0.506056	-0.546500
C80	C	2.018424	-0.006056	-0.046500
C81	C	1.518451	-0.506025	-0.628299
C82	C	2.018451	-0.006025	-0.128299
C83	C	1.518451	-0.232095	-0.354578
C84	C	2.018451	0.267905	0.145422
C85	C	1.518490	-0.115319	-0.354592
C86	C	2.018490	0.384681	0.145408
C87	C	1.585694	-0.438772	-0.816505
C88	C	2.085694	0.061228	-0.316505
C89	C	1.585706	-0.438741	-0.893363
C90	C	2.085706	0.061259	-0.393363
C91	C	1.451282	-0.573116	-0.893330
C92	C	1.951282	-0.073116	-0.393330
C93	C	1.451265	-0.573141	-0.816473
C94	C	1.951265	-0.073141	-0.316473
C95	C	1.518477	-0.505970	-0.778062
C96	C	2.018477	-0.005970	-0.278062
C97	C	1.518506	-0.505915	-0.931778
C98	C	2.018506	-0.005915	-0.431778
C99	C	1.518520	-0.505882	-1.015112
C100	C	2.018520	-0.005882	-0.515112
C101	C	1.518463	-0.506001	-0.694723
C102	C	2.018463	-0.006001	-0.194723
C103	C	1.518356	-0.506125	-0.163340
C104	C	2.018356	-0.006125	0.336660
C105	C	1.518533	-0.505860	-0.081542
C106	C	2.018533	-0.005860	0.418458
H107	H	1.217916	-0.371538	-0.260571
H108	H	1.717916	0.128462	0.239429
H109	H	1.396522	-0.627861	-0.785172
H110	H	1.896522	-0.127861	-0.285172
H111	H	1.774913	-1.105088	-0.175218
H112	H	2.274913	-0.605088	0.324782
Br113	Br	0.889470	-0.213032	-0.149841
Br114	Br	1.389470	0.286968	0.350159
H115	H	1.640419	-0.384074	-0.785233
H116	H	2.140419	0.115926	-0.285233
H117	H	0.819780	-0.371628	-0.260588
H118	H	1.319780	0.128372	0.239412
Br119	Br	1.360075	-0.664276	-0.945464
Br120	Br	1.860075	-0.164276	-0.445464
Br121	Br	1.359902	-0.876291	-0.465401
Br122	Br	1.859902	-0.376291	0.034599
Br123	Br	1.360043	-1.134931	-0.465447
Br124	Br	1.860043	-0.634931	0.034553
Br125	Br	1.148264	-0.664696	-0.465300
Br126	Br	1.648264	-0.164696	0.034700
Br127	Br	1.676941	-0.347547	-0.945533
Br128	Br	2.176941	0.152453	-0.445533
H129	H	1.653011	-1.204650	-0.260559
H130	H	2.153011	-0.704650	0.239441
H131	H	1.118326	-0.249510	-0.175329
H132	H	1.618326	0.250490	0.324671
Br133	Br	1.653055	-0.746947	-0.260687
Br134	Br	2.153055	-0.246947	0.239313
H135	H	0.919403	-0.628208	-0.439816
H136	H	1.419403	-0.128208	0.060184
Br137	Br	1.811277	-0.876240	-0.149646
Br138	Br	2.311277	-0.376240	0.350354
