data_functionalizedCrystal
_audit_creation_method	'MofGen! by Chris Wilmer'
_symmetry_space_group_name_H-M	'P1'
_symmetry_Int_Tables_number	1
_symmetry_cell_setting	triclinic
loop_
_symmetry_equiv_pos_as_xyz
  x,y,z
_cell_length_a	13.339070
_cell_length_b	23.532407
_cell_length_c	11.804365
_cell_angle_alpha	101.750517
_cell_angle_beta	74.875130
_cell_angle_gamma	99.238986
loop_
_atom_site_label
_atom_site_type_symbol
_atom_site_fract_x
_atom_site_fract_y
_atom_site_fract_z
O1	O	1.359957	0.276790	-0.099117
O2	O	1.065803	0.239376	-0.099104
O3	O	1.221746	0.176583	-0.099089
O4	O	1.204015	0.339583	-0.099132
O5	O	1.180692	0.193091	0.098963
O6	O	1.024750	0.255884	0.098948
O7	O	1.318904	0.293298	0.098935
Cu8	Cu	1.168078	0.276099	0.117025
Cu9	Cu	1.216629	0.256576	-0.117194
O10	O	1.162961	0.356091	0.098920
C11	C	1.007650	0.241310	-0.000076
C12	C	0.895537	0.222472	-0.000070
C13	C	0.529284	0.368948	-0.000127
C14	C	0.634620	0.386649	-0.000137
C15	C	0.699854	0.345606	-0.000119
C16	C	0.659742	0.286860	-0.000094
C17	C	0.554397	0.269156	-0.000094
C18	C	0.724967	0.245814	-0.000086
C19	C	0.684855	0.187067	-0.000060
C20	C	0.579519	0.169367	-0.000059
C21	C	0.514285	0.210410	-0.000076
C22	C	0.830313	0.263518	-0.000086
C23	C	0.855425	0.163726	-0.000053
C24	C	0.750089	0.146025	-0.000043
C25	C	1.200767	0.163549	-0.000060
C26	C	1.199407	0.100114	-0.000051
C27	C	1.283187	-0.285492	-0.000120
C28	C	1.281927	-0.345096	-0.000129
O29	O	1.359590	-0.369327	-0.000177
N30	N	1.189217	-0.382667	-0.000124
C31	C	1.097762	-0.360632	-0.000122
O32	O	1.018789	-0.398062	-0.000120
C33	C	1.099025	-0.301029	-0.000122
C34	C	1.191739	-0.263460	-0.000115
C35	C	1.375894	-0.247923	-0.000114
C36	C	1.377153	-0.188323	-0.000103
C37	C	1.285705	-0.166291	-0.000098
C38	C	1.192998	-0.203860	-0.000103
C39	C	1.007574	-0.278996	-0.000128
C40	C	1.008845	-0.219389	-0.000129
C41	C	1.101559	-0.181819	-0.000122
C42	C	1.102809	-0.122227	-0.000087
N43	N	1.195520	-0.084657	-0.000092
C44	C	1.286968	-0.106688	-0.000097
C45	C	1.095118	-0.485801	-0.000125
C46	C	1.093853	-0.545402	-0.000117
C47	C	1.278019	-0.529862	-0.000126
C48	C	1.279281	-0.470260	-0.000126
C49	C	1.187829	-0.448230	-0.000130
C50	C	1.289605	0.018476	-0.000073
C51	C	1.290855	0.078082	-0.000057
C52	C	1.106691	0.062536	-0.000053
C53	C	1.105439	0.002937	-0.000063
C54	C	1.196905	-0.019092	-0.000077
O55	O	1.025189	-0.097956	-0.000044
O56	O	1.365931	-0.069253	-0.000115
C57	C	1.377057	0.291364	-0.000096
C58	C	1.489172	0.310202	-0.000110
C59	C	1.183941	0.369126	-0.000112
C60	C	1.185302	0.432560	-0.000129
N61	N	1.133938	0.289830	0.281762
N62	N	1.250777	0.242841	-0.281932
C63	C	1.332761	0.209855	0.655730
C64	C	1.358587	0.199464	0.531071
C65	C	1.302427	0.222055	0.468737
C66	C	1.220436	0.255038	0.531076
C67	C	1.194613	0.265434	0.655747
C68	C	1.164279	0.277633	0.468755
C69	C	1.082288	0.310617	0.531093
C70	C	1.056469	0.321010	0.655752
C71	C	1.112629	0.298420	0.718086
C72	C	1.190102	0.267238	0.344083
C73	C	1.051954	0.322817	0.344101
C74	C	1.026128	0.333207	0.468760
H75	H	0.862961	0.311350	-0.000102
O76	O	1.378354	-0.002971	0.000078
C77	C	1.462578	-0.052659	0.102717
C78	C	1.361999	-0.028410	0.102670
H79	H	1.449397	-0.073222	0.185666
H80	H	1.483789	-0.087108	0.019886
H81	H	1.529040	-0.015558	0.102667
H82	H	1.295471	-0.065472	0.102762
H83	H	1.340878	0.006054	0.185494
O84	O	0.673403	0.443739	-0.000103
C85	C	0.637386	0.540844	-0.000206
C86	C	0.593324	0.476207	-0.000219
H87	H	0.572669	0.567111	-0.000325
H88	H	0.668851	0.558570	0.082696
H89	H	0.703290	0.544693	-0.083073
H90	H	0.527387	0.472307	0.082592
H91	H	0.561928	0.458510	-0.083175
H92	H	1.366356	0.108670	-0.000048
H93	H	1.323458	0.213593	0.367234
O94	O	1.003709	-0.581816	-0.000163
C95	C	0.821163	-0.590916	-0.000083
C96	C	0.923185	-0.549617	-0.000050
H97	H	0.756027	-0.564898	0.000034
H98	H	0.833078	-0.626102	-0.082992
H99	H	0.798842	-0.612322	0.082777
H100	H	0.945563	-0.528170	-0.082854
H101	H	0.911215	-0.514467	0.082914
O102	O	1.438223	0.167391	0.470704
C103	C	1.572560	0.113391	0.483850
C104	C	1.482378	0.149696	0.552365
H105	H	1.608300	0.099085	0.549843
H106	H	1.541378	0.073188	0.425538
H107	H	1.634818	0.141064	0.425432
H108	H	1.420087	0.122073	0.610847
H109	H	1.513639	0.189902	0.610602
O110	O	1.087374	0.308546	0.839183
C111	C	0.974554	0.353982	1.018093
C112	C	1.003029	0.342549	0.880951
H113	H	0.906374	0.381484	1.051904
H114	H	0.951322	0.310580	1.052013
H115	H	1.044949	0.378380	1.051892
H116	H	0.932677	0.318169	0.847050
H117	H	1.026301	0.385969	0.847112
O118	O	0.976773	0.353045	0.716125
C119	C	0.842520	0.407108	0.702982
C120	C	0.932733	0.370826	0.634465
H121	H	0.806902	0.421504	0.636990
H122	H	0.780159	0.379455	0.761339
H123	H	0.873768	0.447263	0.761356
H124	H	0.901582	0.330668	0.576028
H125	H	0.995078	0.398521	0.576184
O126	O	0.540709	0.112271	-0.000202
C127	C	0.551181	0.013014	-0.102814
C128	C	0.595244	0.077651	-0.102787
H129	H	0.595238	-0.014993	-0.185757
H130	H	0.560943	-0.001240	-0.019977
H131	H	0.464678	0.007429	-0.102760
H132	H	0.681756	0.083286	-0.102882
H133	H	0.585401	0.091875	-0.185616
O134	O	0.946360	0.365165	0.529270
C135	C	0.762508	0.373870	0.567413
C136	C	0.852744	0.337617	0.498832
H137	H	0.686803	0.351619	0.542810
H138	H	0.753614	0.377404	0.667232
H139	H	0.780329	0.419457	0.542907
H140	H	0.834991	0.292013	0.523238
H141	H	0.861617	0.334132	0.399029
H142	H	1.450368	-0.265854	-0.000123
H143	H	1.006225	0.341213	0.293350
O144	O	1.017832	0.083863	-0.000213
C145	C	0.882143	0.080315	-0.102879
C146	C	0.982751	0.056100	-0.102817
H147	H	0.853762	0.057888	-0.185838
H148	H	0.819234	0.071650	-0.020057
H149	H	0.898996	0.129372	-0.102820
H150	H	0.965999	0.007040	-0.102918
H151	H	1.045629	0.064811	-0.185632
O152	O	0.918648	0.123812	0.000124
C153	C	0.951116	0.052516	0.102788
C154	C	0.879407	0.097685	0.102728
H155	H	0.919430	0.031388	0.185747
H156	H	0.953763	0.017485	0.019967
H157	H	1.033297	0.075268	0.102730
H158	H	0.797192	0.074984	0.102828
H159	H	0.876850	0.132712	0.185542
H160	H	0.428510	0.196000	-0.000068
O161	O	1.369314	-0.433724	-0.000288
C162	C	1.498937	-0.365996	-0.102942
C163	C	1.396952	-0.407338	-0.102888
H164	H	1.521325	-0.344661	-0.185897
H165	H	1.486986	-0.330762	-0.020117
H166	H	1.564045	-0.391994	-0.102885
H167	H	1.331794	-0.381390	-0.102986
H168	H	1.408990	-0.442572	-0.185706
H169	H	1.378485	0.191468	0.706490
H170	H	1.452652	-0.157739	-0.000102
H171	H	0.476164	0.402358	-0.000151
O172	O	1.006341	-0.464393	-0.000323
C173	C	0.922147	-0.414641	-0.102876
C174	C	1.022744	-0.438866	-0.102812
H175	H	0.935381	-0.393985	-0.185717
H176	H	0.855652	-0.451720	-0.102947
H177	H	0.900955	-0.380244	-0.019951
H178	H	1.044033	-0.473254	-0.185722
H179	H	1.089179	-0.401755	-0.102678
O180	O	0.917433	-0.315406	-0.000193
C181	C	0.734893	-0.324499	-0.000141
C182	C	0.836918	-0.283203	-0.000092
H183	H	0.669765	-0.298477	-0.000034
H184	H	0.746813	-0.359684	-0.083049
H185	H	0.712559	-0.345905	0.082720
H186	H	0.859309	-0.261756	-0.082896
H187	H	0.824943	-0.248053	0.082871
H188	H	1.352481	-0.547811	-0.000135
H189	H	0.785624	0.360022	-0.000130
H190	H	1.029937	-0.027652	-0.000036
H191	H	0.717416	0.098191	-0.000032
H192	H	1.256859	0.240383	0.293339
H193	H	0.934371	-0.201457	-0.000134
