data_functionalizedCrystal
_audit_creation_method	'MofGen! by Chris Wilmer'
_symmetry_space_group_name_H-M	'P1'
_symmetry_Int_Tables_number	1
_symmetry_cell_setting	triclinic
loop_
_symmetry_equiv_pos_as_xyz
  x,y,z
_cell_length_a	14.853567
_cell_length_b	19.188930
_cell_length_c	13.330367
_cell_angle_alpha	89.990231
_cell_angle_beta	89.995418
_cell_angle_gamma	83.389856
loop_
_atom_site_label
_atom_site_type_symbol
_atom_site_fract_x
_atom_site_fract_y
_atom_site_fract_z
O1	O	1.195862	0.091155	-0.083366
O2	O	0.933342	0.102014	-0.083385
O3	O	1.072178	-0.005046	-0.083355
O4	O	1.057026	0.198215	-0.083395
O5	O	1.072158	-0.005048	0.083492
O6	O	0.933322	0.102011	0.083462
O7	O	1.195842	0.091153	0.083481
Cu8	Cu	1.064580	0.096582	0.098706
Cu9	Cu	1.064604	0.096585	-0.098610
O10	O	1.057006	0.198212	0.083452
C11	C	0.899746	0.101521	0.000037
C12	C	0.799671	0.100046	0.000031
C13	C	0.387525	0.030218	0.000067
C14	C	0.365537	0.157407	0.000041
C15	C	0.459563	0.158794	0.000037
C16	C	0.517574	0.095891	0.000047
C17	C	0.481560	0.031602	0.000060
C18	C	0.495585	0.223081	0.000014
C19	C	0.589616	0.224470	0.000009
C20	C	0.647629	0.161567	0.000026
C21	C	0.611610	0.097276	0.000041
C22	C	0.669621	0.034373	0.000050
C23	C	0.633603	-0.029919	0.000072
C24	C	0.539574	-0.031301	0.000077
C25	C	0.741659	0.162949	0.000021
C26	C	0.763656	0.035757	0.000044
C27	C	1.071677	-0.031060	0.000071
C28	C	1.070204	-0.108569	0.000080
C29	C	1.151668	-0.153221	0.000090
C30	C	1.150285	-0.226050	0.000074
C31	C	1.067432	-0.254223	0.000068
C32	C	0.985957	-0.209561	0.000051
C33	C	0.987343	-0.136734	0.000057
N34	N	1.004094	-0.362440	0.056844
N35	N	1.002783	-0.431623	0.056841
C36	C	1.063251	-0.473645	0.000047
N37	N	1.125093	-0.443873	-0.056730
N38	N	1.126407	-0.374684	-0.056722
C39	C	1.065920	-0.333190	0.000060
C40	C	1.143220	-0.597267	0.000039
C41	C	1.141833	-0.670096	0.000016
C42	C	0.977503	-0.653606	0.000003
C43	C	0.978893	-0.580778	0.000016
C44	C	1.061754	-0.552613	0.000038
C45	C	1.229438	0.091646	0.000057
C46	C	1.329513	0.093120	0.000057
C47	C	1.057507	0.224226	0.000023
C48	C	1.058980	0.301736	0.000008
N49	N	1.064570	0.096579	0.237488
N50	N	1.064621	0.096582	-0.237391
C51	C	1.003125	0.143972	0.710098
C52	C	1.126107	0.049192	0.710092
C53	C	1.126097	0.049190	0.605073
C54	C	1.064601	0.096580	0.552562
C55	C	1.003115	0.143973	0.605070
C56	C	1.187588	0.001803	0.552558
C57	C	1.187581	0.001799	0.447533
C58	C	1.126080	0.049187	0.395020
C59	C	1.064590	0.096581	0.447534
C60	C	1.003094	0.143971	0.395023
C61	C	0.941600	0.191363	0.447535
C62	C	0.941613	0.191361	0.552557
C63	C	1.126066	0.049189	0.289999
C64	C	1.003084	0.143972	0.289995
H65	H	0.358195	-0.022127	0.000088
H66	H	1.176138	0.010607	0.247248
O67	O	0.690052	-0.090975	-0.000054
C68	C	0.808945	-0.163235	-0.086525
C69	C	0.745080	-0.094060	-0.086494
H70	H	0.853439	-0.165759	-0.156414
H71	H	0.853584	-0.165771	-0.016754
H72	H	0.767039	-0.209414	-0.086458
H73	H	0.786914	-0.047842	-0.086596
H74	H	0.700438	-0.091586	-0.156258
H75	H	0.448345	0.274293	-0.000005
H76	H	0.918498	-0.232504	0.000044
H77	H	0.891533	0.229951	0.404768
H78	H	1.210691	-0.574334	0.000052
H79	H	0.921003	-0.100377	0.000049
O80	O	0.881762	0.237324	0.603524
C81	C	0.724853	0.278036	0.635656
C82	C	0.792531	0.225935	0.577884
H83	H	0.652695	0.268857	0.614931
H84	H	0.735352	0.269894	0.719748
H85	H	0.736417	0.333971	0.615005
H86	H	0.781008	0.169980	0.598451
H87	H	0.782015	0.234138	0.493806
O88	O	0.896964	-0.680882	0.000129
C89	C	0.756102	-0.689124	0.086580
C90	C	0.847274	-0.658169	0.086557
H91	H	0.715910	-0.670785	0.156460
H92	H	0.715805	-0.670708	0.016800
H93	H	0.769127	-0.748845	0.086525
H94	H	0.834331	-0.598448	0.086647
H95	H	0.887542	-0.676640	0.156331
H96	H	0.953003	0.182561	0.247247
H97	H	1.176180	0.010611	0.752849
H98	H	0.318299	0.208620	0.000024
H99	H	1.208174	-0.706452	0.000019
O100	O	0.899697	-0.537470	-0.000115
C101	C	0.759706	-0.501053	-0.086590
C102	C	0.849356	-0.550149	-0.086551
H103	H	0.718988	-0.511276	-0.156477
H104	H	0.718846	-0.511326	-0.016817
H105	H	0.774948	-0.444168	-0.086535
H106	H	0.834196	-0.607051	-0.086642
H107	H	0.890188	-0.539816	-0.156319
O108	O	0.943267	0.189935	0.761058
C109	C	0.786352	0.230645	0.793158
C110	C	0.854041	0.178543	0.735400
H111	H	0.714198	0.221463	0.772419
H112	H	0.796839	0.222504	0.877253
H113	H	0.797917	0.286579	0.772509
H114	H	0.842518	0.122588	0.755965
H115	H	0.843538	0.186745	0.651320
O116	O	1.247236	-0.044201	0.603720
C117	C	1.301785	-0.086177	0.765517
C118	C	1.234169	-0.034048	0.707696
H119	H	1.291256	-0.077976	0.849591
H120	H	1.290266	-0.142133	0.744959
H121	H	1.373942	-0.076980	0.744797
H122	H	1.161986	-0.043181	0.728386
H123	H	1.245767	0.021890	0.728259
H124	H	0.510239	-0.083644	0.000119
H125	H	0.618933	0.276821	-0.000009
H126	H	1.237652	-0.036790	0.404785
O127	O	1.232181	-0.125899	-0.000074
C128	C	1.373093	-0.117741	-0.086464
C129	C	1.281936	-0.148717	-0.086412
H130	H	1.413354	-0.136189	-0.156250
H131	H	1.360151	-0.058016	-0.086526
H132	H	1.413287	-0.136125	-0.016603
H133	H	1.241696	-0.130387	-0.156262
H134	H	1.294942	-0.208439	-0.086298
O135	O	1.229398	-0.269465	-0.000086
C136	C	1.323189	-0.361285	-0.086470
C137	C	1.233572	-0.312149	-0.086428
H138	H	1.326584	-0.395818	-0.156259
H139	H	1.382685	-0.328681	-0.086519
H140	H	1.326613	-0.395767	-0.016612
H141	H	1.230059	-0.277657	-0.156274
H142	H	1.174118	-0.344795	-0.086327
H143	H	0.770981	0.215294	0.000005
H144	H	0.810884	-0.015466	0.000056
