data_functionalizedCrystal
_audit_creation_method	'MofGen! by Chris Wilmer'
_symmetry_space_group_name_H-M	'P1'
_symmetry_Int_Tables_number	1
_symmetry_cell_setting	triclinic
loop_
_symmetry_equiv_pos_as_xyz
  x,y,z
_cell_length_a	12.759401
_cell_length_b	18.215405
_cell_length_c	12.759393
_cell_angle_alpha	90.033485
_cell_angle_beta	90.020938
_cell_angle_gamma	90.024257
loop_
_atom_site_label
_atom_site_type_symbol
_atom_site_fract_x
_atom_site_fract_y
_atom_site_fract_z
Zn1	Zn	1.606208	-0.292919	0.593998
Zn2	Zn	1.939541	0.040415	0.927332
Zn3	Zn	2.272874	0.373748	1.260665
Zn4	Zn	1.606074	-0.416003	0.418309
Zn5	Zn	1.939408	-0.082669	0.751643
Zn6	Zn	2.272741	0.250664	1.084976
Zn7	Zn	1.430506	-0.292958	0.418333
Zn8	Zn	1.763840	0.040375	0.751667
Zn9	Zn	2.097173	0.373709	1.085000
Zn10	Zn	1.430474	-0.415951	0.593946
Zn11	Zn	1.763807	-0.082618	0.927280
Zn12	Zn	2.097140	0.250715	1.260613
O13	O	1.518316	-0.354458	0.506147
O14	O	1.851649	-0.021124	0.839480
O15	O	2.184982	0.312209	1.172814
O16	O	1.753211	-0.309251	0.570704
O17	O	2.086544	0.024082	0.904038
O18	O	2.419878	0.357415	1.237371
O19	O	1.582743	-0.399718	0.271291
O20	O	1.916076	-0.066385	0.604625
O21	O	2.249409	0.266948	0.937958
O22	O	1.453883	-0.189968	0.441668
O23	O	1.787217	0.143365	0.775001
O24	O	2.120550	0.476698	1.108334
O25	O	1.753113	-0.399681	0.441626
O26	O	2.086446	-0.066347	0.774960
O27	O	2.419780	0.266986	1.108293
O28	O	1.582970	-0.189940	0.570728
O29	O	1.916304	0.143394	0.904061
O30	O	2.249637	0.476727	1.237394
O31	O	1.453754	-0.309318	0.271309
O32	O	1.787087	0.024015	0.604642
O33	O	2.120420	0.357349	0.937976
O34	O	1.283481	-0.309268	0.441617
O35	O	1.616814	0.024065	0.774951
O36	O	1.950148	0.357399	1.108284
O37	O	1.453827	-0.399593	0.740974
O38	O	1.787161	-0.066260	1.074308
O39	O	2.120494	0.267074	1.407641
O40	O	1.283457	-0.399631	0.570639
O41	O	1.616790	-0.066298	0.903973
O42	O	1.950124	0.267036	1.237306
O43	O	1.582938	-0.309201	0.741013
O44	O	1.916272	0.024132	1.074346
O45	O	2.249605	0.357465	1.407679
O46	O	1.582711	-0.518980	0.441576
O47	O	1.916044	-0.185647	0.774909
O48	O	2.249377	0.147686	1.108243
O49	O	1.453698	-0.518942	0.570616
O50	O	1.787031	-0.185609	0.903949
O51	O	2.120365	0.147724	1.237283
C52	C	1.245348	-0.354449	0.506126
C53	C	1.578682	-0.021115	0.839459
C54	C	1.912015	0.312218	1.172793
C55	C	1.128572	-0.354463	0.506142
C56	C	1.461905	-0.021129	0.839475
C57	C	1.795238	0.312204	1.172809
C58	C	1.073725	-0.401586	0.573218
C59	C	1.407058	-0.068253	0.906551
C60	C	1.740391	0.265081	1.239885
C61	C	0.964000	-0.401589	0.573239
C62	C	1.297334	-0.068256	0.906572
C63	C	1.630667	0.265078	1.239906
C64	C	0.963980	-0.307343	0.439099
C65	C	1.297313	0.025991	0.772432
C66	C	1.630647	0.359324	1.105765
C67	C	1.073702	-0.307337	0.439084
C68	C	1.407035	0.025997	0.772417
C69	C	1.740369	0.359330	1.105750
C70	C	1.518215	-0.545664	0.506111
C71	C	1.851548	-0.212331	0.839444
C72	C	2.184882	0.121003	1.172777
C73	C	1.518268	-0.627463	0.506130
C74	C	1.851601	-0.294129	0.839464
C75	C	2.184935	0.039204	1.172797
C76	C	1.585515	-0.815581	0.573423
C77	C	1.918849	-0.482247	0.906756
C78	C	2.252182	-0.148914	1.240090
C79	C	1.585554	-0.892439	0.573443
C80	C	1.918887	-0.559106	0.906776
C81	C	2.252220	-0.225773	1.240109
C82	C	1.451246	-0.892583	0.438936
C83	C	1.784579	-0.559249	0.772269
C84	C	2.117912	-0.225916	1.105603
C85	C	1.451203	-0.815725	0.438922
C86	C	1.784536	-0.482392	0.772256
C87	C	2.117870	-0.149059	1.105589
C88	C	1.518344	-0.777226	0.506164
C89	C	1.851677	-0.443893	0.839498
C90	C	2.185010	-0.110560	1.172831
C91	C	1.518425	-0.930942	0.506198
C92	C	1.851758	-0.597609	0.839531
C93	C	2.185091	-0.264276	1.172864
C94	C	1.518465	-1.014276	0.506218
C95	C	1.851799	-0.680943	0.839552
C96	C	2.185132	-0.347609	1.172885
C97	C	1.518302	-0.693887	0.506145
C98	C	1.851635	-0.360554	0.839478
C99	C	2.184969	-0.027221	1.172812
C100	C	1.792349	-0.354467	0.506168
C101	C	2.125682	-0.021134	0.839502
C102	C	2.459015	0.312199	1.172835
C103	C	1.909125	-0.354471	0.506178
C104	C	2.242459	-0.021138	0.839511
C105	C	2.575792	0.312195	1.172844
C106	C	1.518394	-0.354387	0.780180
C107	C	1.851727	-0.021054	1.113514
C108	C	2.185061	0.312280	1.446847
C109	C	1.518428	-0.354357	0.896957
C110	C	1.851761	-0.021024	1.230290
C111	C	2.185094	0.312310	1.563624
C112	C	1.518445	-0.162505	0.506206
C113	C	1.851779	0.170829	0.839540
C114	C	2.185112	0.504162	1.172873
C115	C	1.518501	-0.080706	0.506231
C116	C	1.851834	0.252628	0.839565
C117	C	2.185167	0.585961	1.172898
C118	C	1.518298	-0.354475	0.233179
C119	C	1.851631	-0.021142	0.566513
C120	C	2.184964	0.312192	0.899846
C121	C	1.518468	-0.354298	0.116403
C122	C	1.851801	-0.020964	0.449737
C123	C	2.185134	0.312369	0.783070
C124	C	1.585661	-0.307283	0.951841
C125	C	1.918994	0.026051	1.285174
C126	C	2.252327	0.359384	1.618507
C127	C	1.585679	-0.307251	1.061565
C128	C	1.919012	0.026083	1.394898
C129	C	2.252345	0.359416	1.728231
C130	C	1.451227	-0.401374	1.061512
C131	C	1.784561	-0.068041	1.394846
C132	C	2.117894	0.265292	1.728179
C133	C	1.451205	-0.401402	0.951790
C134	C	1.784538	-0.068068	1.285123
C135	C	2.117872	0.265265	1.618457
H136	H	0.919292	-0.268976	0.384501
H137	H	1.252625	0.064358	0.717834
H138	H	1.585959	0.397691	1.051167
Br139	Br	1.148145	-0.243371	0.348055
Br140	Br	1.481478	0.089962	0.681389
Br141	Br	1.814811	0.423295	1.014722
H142	H	1.640184	-0.784237	0.628177
H143	H	1.973517	-0.450903	0.961510
H144	H	2.306851	-0.117570	1.294844
Br145	Br	1.676889	-0.243435	0.877427
Br146	Br	2.010222	0.089898	1.210761
Br147	Br	2.343555	0.423232	1.544094
Br148	Br	1.676710	-0.944489	0.664735
Br149	Br	2.010044	-0.611156	0.998068
Br150	Br	2.343377	-0.277823	1.331402
Br151	Br	1.360023	-0.763668	0.347648
Br152	Br	1.693356	-0.430334	0.680981
Br153	Br	2.026689	-0.097001	1.014314
H154	H	1.396584	-0.923938	0.384188
H155	H	1.729917	-0.590604	0.717521
H156	H	2.063250	-0.257271	1.050855
Br157	Br	1.676935	-0.243367	1.136046
Br158	Br	2.010269	0.089967	1.469379
Br159	Br	2.343602	0.423300	1.802713
Br160	Br	1.360005	-0.465220	1.135935
Br161	Br	1.693338	-0.131887	1.469268
Br162	Br	2.026671	0.201447	1.802601
H163	H	1.396448	-0.439735	0.907103
H164	H	1.729781	-0.106401	1.240436
H165	H	2.063115	0.226932	1.573769
H166	H	1.118396	-0.439957	0.627824
H167	H	1.451729	-0.106624	0.961157
H168	H	1.785063	0.226710	1.294490
H169	H	0.919349	-0.439960	0.627861
H170	H	1.252682	-0.106627	0.961194
H171	H	1.586016	0.226706	1.294527
