data_functionalizedCrystal
_audit_creation_method	'MofGen! by Chris Wilmer'
_symmetry_space_group_name_H-M	'P1'
_symmetry_Int_Tables_number	1
_symmetry_cell_setting	triclinic
loop_
_symmetry_equiv_pos_as_xyz
  x,y,z
_cell_length_a	15.455313
_cell_length_b	17.699083
_cell_length_c	17.699083
_cell_angle_alpha	83.283015
_cell_angle_beta	92.658725
_cell_angle_gamma	87.330194
loop_
_atom_site_label
_atom_site_type_symbol
_atom_site_fract_x
_atom_site_fract_y
_atom_site_fract_z
O1	O	0.072010	-1.007394	-0.092400
O2	O	0.572010	-0.507394	0.407600
O3	O	0.072039	-0.787017	-0.104851
O4	O	0.572039	-0.287017	0.395149
O5	O	0.072016	-0.903431	0.011563
O6	O	0.572016	-0.403431	0.511563
O7	O	0.072033	-0.890979	-0.208814
O8	O	0.572033	-0.390979	0.291186
O9	O	-0.072244	-0.896774	0.004933
O10	O	0.427756	-0.396774	0.504933
O11	O	-0.072222	-0.780360	-0.111481
O12	O	0.427778	-0.280360	0.388519
O13	O	-0.072250	-1.000737	-0.099030
O14	O	0.427750	-0.500737	0.400970
Cu15	Cu	-0.085408	-0.889940	-0.105861
Cu16	Cu	0.414592	-0.389940	0.394139
Cu17	Cu	0.085197	-0.897813	-0.098020
Cu18	Cu	0.585197	-0.397813	0.401980
O19	O	-0.072228	-0.884322	-0.215444
O20	O	0.427772	-0.384322	0.284556
C21	C	-0.000088	-0.755491	-0.107720
C22	C	0.499912	-0.255491	0.392280
C23	C	-0.000077	-0.671474	-0.106381
C24	C	0.499923	-0.171474	0.393619
N25	N	-0.205403	-0.884409	-0.111375
N26	N	0.294597	-0.384409	0.388625
C27	C	-0.000114	-0.899656	0.036445
C28	C	0.499886	-0.399656	0.536445
C29	C	-0.000114	-0.898318	0.120463
C30	C	0.499886	-0.398318	0.620463
C31	C	-0.250806	-0.933883	-0.061936
C32	C	0.249194	-0.433883	0.438064
C33	C	-0.341613	-0.929706	-0.066113
C34	C	0.158387	-0.429706	0.433887
C35	C	-0.387015	-0.876059	-0.119733
C36	C	0.112985	-0.376059	0.380267
C37	C	-0.341605	-0.826580	-0.169174
C38	C	0.158395	-0.326580	0.330826
C39	C	-0.250800	-0.830753	-0.164993
C40	C	0.249200	-0.330753	0.335007
C41	C	-0.658593	-0.858045	-0.137760
C42	C	-0.158593	-0.358045	0.362240
C43	C	-0.749405	-0.853877	-0.141939
C44	C	-0.249405	-0.353877	0.358061
C45	C	-0.749407	-0.957003	-0.038877
C46	C	-0.249407	-0.457003	0.461123
C47	C	-0.658600	-0.961175	-0.034703
C48	C	-0.158600	-0.461175	0.465297
C49	C	-0.613198	-0.911693	-0.084142
C50	C	-0.113198	-0.411693	0.415858
N51	N	-0.479835	-0.871790	-0.124005
N52	N	0.020165	-0.371790	0.375995
N53	N	-0.520380	-0.915958	-0.079865
N54	N	-0.020380	-0.415958	0.420135
N55	N	0.205191	-0.903351	-0.092500
N56	N	0.705191	-0.403351	0.407500
C57	C	-0.000122	-1.032262	-0.096161
C58	C	0.499878	-0.532262	0.403839
C59	C	-0.000127	-1.116280	-0.097500
C60	C	0.499873	-0.616280	0.402500
C61	C	-0.000072	-0.622853	-0.174714
C62	C	0.499928	-0.122853	0.325286
C63	C	-0.000083	-0.543909	-0.173452
C64	C	0.499917	-0.043909	0.326548
C65	C	-0.000093	-0.513588	-0.103856
C66	C	0.499907	-0.013588	0.396144
C67	C	-0.000101	-0.562215	-0.035518
C68	C	0.499899	-0.062215	0.464482
C69	C	-0.000096	-0.641157	-0.036781
C70	C	0.499904	-0.141157	0.463219
C71	C	-0.000123	-0.243851	-0.030423
C72	C	0.499877	0.256149	0.469577
C73	C	-0.000125	-0.164903	-0.029166
C74	C	0.499875	0.335097	0.470834
C75	C	-0.000110	-0.146603	-0.167095
C76	C	0.499890	0.353397	0.332905
C77	C	-0.000105	-0.225545	-0.168358
C78	C	0.499895	0.274455	0.331642
C79	C	-0.000117	-0.274165	-0.100020
C80	C	0.499883	0.225835	0.399980
C81	C	-0.000107	-0.359764	-0.101389
C82	C	0.499893	0.140236	0.398611
C83	C	-0.000098	-0.427990	-0.102486
C84	C	0.499902	0.072010	0.397514
C85	C	-0.000095	-0.888097	-0.240326
C86	C	0.499905	-0.388097	0.259674
C87	C	-0.000089	-0.889436	-0.324344
C88	C	0.499911	-0.389436	0.175656
C89	C	-0.000124	-0.966651	0.169084
C90	C	0.499876	-0.466651	0.669084
C91	C	-0.000117	-0.965389	0.248028
C92	C	0.499883	-0.465389	0.748028
C93	C	-0.000105	-0.895793	0.278349
C94	C	0.499895	-0.395793	0.778349
C95	C	-0.000092	-0.827455	0.229722
C96	C	0.499908	-0.327455	0.729722
C97	C	-0.000094	-0.828718	0.150780
C98	C	0.499906	-0.328718	0.650780
C99	C	-0.000084	-0.822360	0.548086
C100	C	0.499916	-0.322360	1.048086
C101	C	-0.000085	-0.821102	0.627034
C102	C	0.499915	-0.321102	1.127034
C103	C	-0.000107	-0.959031	0.645333
C104	C	0.499893	-0.459031	1.145333
C105	C	-0.000109	-0.960294	0.566391
C106	C	0.499891	-0.460294	1.066391
C107	C	-0.000092	-0.891956	0.517772
C108	C	0.499908	-0.391956	1.017772
C109	C	-0.000098	-0.893326	0.432172
C110	C	0.499902	-0.393326	0.932172
C111	C	-0.000104	-0.894423	0.363947
C112	C	0.499896	-0.394423	0.863947
H113	H	-0.213846	-0.977571	-0.018276
H114	H	0.286154	-0.477571	0.481724
H115	H	-0.000063	-0.647534	-0.231387
H116	H	0.499937	-0.147534	0.268613
Cl117	Cl	-0.000099	-0.085476	-0.253007
Cl118	Cl	0.499901	0.414524	0.246993
H119	H	-0.000078	-0.504325	-0.229096
H120	H	0.499922	-0.004325	0.270904
H121	H	-0.621636	-1.004859	0.008958
H122	H	-0.121636	-0.504859	0.508958
Cl123	Cl	-0.000088	-0.263659	-0.255853
Cl124	Cl	0.499912	0.236341	0.244147
H125	H	-0.000071	-0.766715	0.508509
H126	H	0.499929	-0.266715	1.008509
H127	H	-0.000077	-0.770789	0.254416
H128	H	0.499923	-0.270789	0.754416
Cl129	Cl	-0.000139	-0.126786	0.058333
Cl130	Cl	0.499861	0.373214	0.558333
Cl131	Cl	-0.806488	-1.019202	0.023273
Cl132	Cl	-0.306488	-0.519202	0.523273
H133	H	-0.000133	-0.283428	0.025221
H134	H	0.499867	0.216572	0.525221
H135	H	-0.000123	-1.016966	0.541708
H136	H	0.499877	-0.516966	1.041708
H137	H	-0.786367	-0.810188	-0.185606
H138	H	-0.286367	-0.310188	0.314394
Cl139	Cl	-0.398694	-0.991902	-0.003960
Cl140	Cl	0.101306	-0.491902	0.496040
H141	H	-0.000122	-0.537520	0.021148
H142	H	0.499878	-0.037520	0.521148
Cl143	Cl	-0.000106	-0.702281	0.049128
Cl144	Cl	0.499894	-0.202281	0.549128
Cl145	Cl	-0.601522	-0.795844	-0.199912
Cl146	Cl	-0.101522	-0.295844	0.300088
H147	H	-0.213833	-0.790465	-0.205250
H148	H	0.286167	-0.290465	0.294750
Cl149	Cl	-0.000132	-1.051297	0.309148
Cl150	Cl	0.499868	-0.551297	0.809148
Cl151	Cl	-0.000069	-0.733603	0.665150
Cl152	Cl	0.499931	-0.233603	1.165150
Cl153	Cl	-0.000148	-1.054148	0.130974
Cl154	Cl	0.499852	-0.554148	0.630974
H155	H	-0.000117	-1.014675	0.684929
H156	H	0.499883	-0.514675	1.184929
H157	H	-0.000085	-0.773074	0.111194
H158	H	0.499915	-0.273074	0.611194
H159	H	-0.378576	-0.782895	-0.212830
H160	H	0.121424	-0.282895	0.287170
