data_functionalizedCrystal
_audit_creation_method	'MofGen! by Chris Wilmer'
_symmetry_space_group_name_H-M	'P1'
_symmetry_Int_Tables_number	1
_symmetry_cell_setting	triclinic
loop_
_symmetry_equiv_pos_as_xyz
  x,y,z
_cell_length_a	10.654556
_cell_length_b	10.489741
_cell_length_c	9.730223
_cell_angle_alpha	89.995878
_cell_angle_beta	89.998368
_cell_angle_gamma	84.513355
loop_
_atom_site_label
_atom_site_type_symbol
_atom_site_fract_x
_atom_site_fract_y
_atom_site_fract_z
O1	O	1.667918	0.179201	-0.114237
O2	O	1.302449	0.196261	-0.114251
O3	O	1.493500	0.002129	-0.114236
O4	O	1.476867	0.373333	-0.114253
O5	O	1.493487	0.002124	0.114344
O6	O	1.302436	0.196256	0.114329
O7	O	1.667906	0.179195	0.114343
Zn8	Zn	1.485169	0.187725	0.150628
Zn9	Zn	1.485186	0.187732	-0.150536
O10	O	1.476855	0.373327	0.114327
C11	C	1.255644	0.195004	0.000037
C12	C	1.116200	0.191251	0.000032
C13	C	1.492237	-0.045404	0.000053
C14	C	1.488479	-0.187032	0.000051
C15	C	0.919658	0.185970	-0.124556
C16	C	1.050682	0.189489	-0.124565
C17	C	1.050688	0.189483	0.124645
C18	C	0.919667	0.185955	0.124653
C19	C	1.366919	-0.255116	0.000036
C20	C	1.424337	-0.347268	0.112740
C21	C	1.424378	-0.347237	-0.112622
C22	C	1.545947	-0.277318	0.112848
C23	C	1.545971	-0.277278	-0.112615
C24	C	1.603477	-0.369402	0.000116
C25	C	1.714711	0.180452	0.000052
C26	C	1.854155	0.184205	0.000048
C27	C	1.478117	0.420861	0.000035
C28	C	1.481876	0.562489	0.000029
N29	N	1.485167	0.187719	0.356164
N30	N	1.485197	0.187727	-0.356073
C31	C	1.569794	0.101794	0.428097
C32	C	1.569806	0.101795	0.571980
C33	C	1.400562	0.273657	0.571985
C34	C	1.400544	0.273649	0.428104
H35	H	1.104010	0.190924	-0.226030
C36	C	1.307454	0.368174	0.348973
H37	H	1.257070	0.419365	0.412422
H38	H	1.254760	0.321787	0.292860
H39	H	1.353110	0.421703	0.292830
H40	H	1.597332	-0.246512	0.208237
C41	C	1.738559	-0.436367	0.000278
H42	H	1.751146	-0.487825	-0.079792
H43	H	1.750513	-0.488871	0.079638
H44	H	1.797341	-0.373744	0.001091
C45	C	0.847600	0.184042	-0.261615
H46	H	0.905382	0.185589	-0.335825
H47	H	0.787586	0.256922	-0.266795
H48	H	0.805393	0.108405	-0.266792
C49	C	1.122751	0.191386	0.261703
H50	H	1.064974	0.189808	0.335914
H51	H	1.164970	0.267007	0.266900
H52	H	1.182757	0.118489	0.266860
H53	H	0.866333	0.184517	0.226126
C54	C	1.231909	-0.187969	0.000180
H55	H	1.188920	-0.211769	0.080358
H56	H	1.188291	-0.212909	-0.079072
H57	H	1.235232	-0.097792	-0.000626
C58	C	1.354851	-0.389142	0.241449
H59	H	1.270807	-0.349641	0.241312
H60	H	1.397225	-0.364045	0.321483
H61	H	1.353629	-0.479579	0.240937
C62	C	1.615356	-0.235274	-0.241326
H63	H	1.687193	-0.194329	-0.214255
H64	H	1.560306	-0.177309	-0.293412
H65	H	1.641377	-0.308258	-0.295714
H66	H	1.372933	-0.378175	-0.207913
H67	H	1.331665	0.343620	0.630573
H68	H	1.638697	0.031823	0.369527
H69	H	1.638715	0.031825	0.630544
