data_functionalizedCrystal
_audit_creation_method	'MofGen! by Chris Wilmer'
_symmetry_space_group_name_H-M	'P1'
_symmetry_Int_Tables_number	1
_symmetry_cell_setting	triclinic
loop_
_symmetry_equiv_pos_as_xyz
  x,y,z
_cell_length_a	9.065215
_cell_length_b	9.730223
_cell_length_c	10.654554
_cell_angle_alpha	89.996963
_cell_angle_beta	84.750770
_cell_angle_gamma	90.002334
loop_
_atom_site_label
_atom_site_type_symbol
_atom_site_fract_x
_atom_site_fract_y
_atom_site_fract_z
O1	O	1.959398	0.114263	0.184133
O2	O	1.530031	0.114269	0.199243
O3	O	1.754583	0.114268	0.008988
O4	O	1.734846	0.114265	0.374388
O5	O	1.754568	-0.114312	0.008999
O6	O	1.530016	-0.114311	0.199253
O7	O	1.959384	-0.114317	0.184144
Zn8	Zn	1.744698	-0.150606	0.191700
Zn9	Zn	1.744717	0.150558	0.191686
O10	O	1.734832	-0.114315	0.374398
C11	C	1.475045	-0.000020	0.197797
C12	C	1.311225	-0.000018	0.193457
N13	N	1.744696	-0.356142	0.191709
C14	C	1.834957	-0.428083	0.268940
C15	C	1.834979	-0.571966	0.268917
C16	C	1.654465	-0.571954	0.114428
C17	C	1.654452	-0.428074	0.114446
C18	C	1.925201	-0.356151	0.346204
C19	C	2.015469	-0.428092	0.423442
C20	C	2.015491	-0.571975	0.423419
C21	C	1.925245	-0.643917	0.346157
C22	C	2.014370	-0.000024	0.185590
C23	C	2.178189	-0.000018	0.189929
C24	C	1.753125	-0.000019	-0.037810
C25	C	1.748785	-0.000009	-0.177270
N26	N	1.744731	0.356094	0.191668
C27	C	1.608411	-0.000025	-0.360387
C28	C	1.612488	-0.000011	-0.229349
C29	C	1.881014	-0.000007	-0.256237
C30	C	1.876935	-0.000011	-0.387272
C31	C	1.472105	-0.000041	-0.412458
C32	C	1.339876	-0.000040	-0.333501
C33	C	1.343953	-0.000027	-0.202463
C34	C	1.480259	-0.000013	-0.150383
C35	C	1.736290	-0.000026	0.421197
C36	C	1.740630	-0.000026	0.560657
H37	H	1.925189	-0.238995	0.346235
H38	H	1.236285	-0.000013	-0.138179
O39	O	1.484652	0.000006	-0.009047
H40	H	1.601643	0.000016	0.013898
H41	H	1.991988	0.000023	-0.213822
O42	O	1.557146	-0.649563	0.031103
H43	H	1.588248	-0.621937	-0.068898
H44	H	1.984599	-0.000005	-0.451561
H45	H	2.088952	-0.369508	0.486339
H46	H	1.580951	-0.369498	0.051559
O47	O	1.925264	-0.799107	0.346103
H48	H	1.889856	-0.837090	0.442400
H49	H	1.228900	-0.000040	-0.375913
O50	O	2.112846	-0.649577	0.506717
H51	H	2.175583	-0.575381	0.560449
O52	O	1.467713	-0.000055	-0.553791
H53	H	1.350723	-0.000058	-0.576738
