data_functionalizedCrystal
_audit_creation_method	'MofGen! by Chris Wilmer'
_symmetry_space_group_name_H-M	'P1'
_symmetry_Int_Tables_number	1
_symmetry_cell_setting	triclinic
loop_
_symmetry_equiv_pos_as_xyz
  x,y,z
_cell_length_a	15.995292
_cell_length_b	15.995292
_cell_length_c	9.130313
_cell_angle_alpha	90.003275
_cell_angle_beta	90.005757
_cell_angle_gamma	83.468616
loop_
_atom_site_label
_atom_site_type_symbol
_atom_site_fract_x
_atom_site_fract_y
_atom_site_fract_z
O1	O	1.110993	0.107700	0.121828
O2	O	0.867209	0.121079	0.121821
O3	O	0.995790	-0.007503	0.121827
O4	O	0.982412	0.236282	0.121823
O5	O	0.995779	-0.007511	-0.121771
O6	O	0.867198	0.121070	-0.121777
O7	O	1.110982	0.107692	-0.121770
Cu8	Cu	0.989089	0.114380	-0.144016
Cu9	Cu	0.989102	0.114390	0.144067
O10	O	0.982401	0.236273	-0.121776
C11	C	0.836008	0.120530	0.000021
C12	C	0.743055	0.118898	0.000019
C13	C	0.405318	0.112896	0.000036
C14	C	0.428611	0.205703	0.000578
C15	C	0.525286	0.207467	0.000022
C16	C	0.572873	0.115874	0.000028
C17	C	0.543775	0.069470	-0.139073
C18	C	0.446985	0.068353	-0.139183
C19	C	0.447142	0.066467	0.137834
C20	C	0.543634	0.069907	0.139667
C21	C	0.667569	0.117552	0.000019
C22	C	0.310622	0.111215	0.000035
C23	C	0.995240	-0.038703	0.000032
C24	C	0.993608	-0.131655	0.000043
C25	C	0.987607	-0.469393	0.000029
C26	C	1.080413	-0.446100	-0.000513
C27	C	1.082177	-0.349424	0.000042
C28	C	0.990584	-0.301837	0.000035
C29	C	0.944192	-0.330924	0.139136
C30	C	0.943074	-0.427714	0.139247
C31	C	0.941167	-0.427580	-0.137771
C32	C	0.944606	-0.331088	-0.139604
C33	C	0.992263	-0.207141	0.000043
C34	C	0.985926	-0.564088	0.000031
C35	C	1.142183	0.108240	0.000033
C36	C	1.235136	0.109873	0.000045
C37	C	0.982951	0.267473	0.000023
C38	C	0.984583	0.360426	0.000021
N39	N	0.989086	0.114373	-0.346639
C40	C	0.938338	0.063583	-0.576686
C41	C	0.938327	0.063571	-0.423349
C42	C	1.039866	0.165183	-0.423274
C43	C	1.039881	0.165189	-0.576608
N44	N	0.989111	0.114391	0.346690
H45	H	0.420156	0.100484	-0.243168
H46	H	0.877752	-0.298105	-0.148009
O47	O	0.850682	-0.446100	-0.139048
H48	H	0.838802	-0.484891	-0.042072
O49	O	0.586003	-0.019810	-0.145943
H50	H	0.623304	-0.028720	-0.248390
H51	H	0.970389	-0.455678	-0.243209
H52	H	0.896983	0.022197	-0.360968
H53	H	0.432448	0.000307	-0.145498
H54	H	0.562201	0.103693	0.242573
O55	O	1.127794	-0.483172	-0.132671
H56	H	1.085710	-0.518605	-0.199376
H57	H	1.081199	0.206542	-0.360804
H58	H	1.081231	0.206564	-0.638997
H59	H	0.544309	0.243803	0.099739
O60	O	0.570317	0.112144	-0.276212
H61	H	0.604223	0.166394	-0.245652
H62	H	0.399580	0.241273	-0.098619
O63	O	0.391508	0.253101	0.132699
H64	H	0.416541	0.220990	0.233952
O65	O	0.549674	0.255782	-0.132395
H66	H	0.492382	0.277980	-0.196280
O67	O	0.409722	0.104980	0.277503
H68	H	0.360890	0.157648	0.250257
H69	H	0.978387	-0.312534	-0.242509
O70	O	0.587317	-0.018653	0.150792
H71	H	0.656346	-0.016665	0.157584
O72	O	0.428636	-0.024022	0.139109
H73	H	0.359544	-0.026039	0.143304
O74	O	1.130322	-0.324229	-0.132012
H75	H	1.152554	-0.381145	-0.196844
O76	O	1.127548	-0.484530	0.130888
H77	H	1.085162	-0.520146	0.196583
O78	O	0.883589	0.008779	-0.659396
H79	H	0.838572	0.048897	-0.729258
O80	O	0.987082	-0.304671	0.276273
H81	H	1.041406	-0.270877	0.245712
O82	O	1.130587	-0.325037	0.132367
H83	H	1.152821	-0.382327	0.196219
O84	O	0.986057	-0.463302	0.276589
H85	H	1.007401	-0.411349	0.342341
H86	H	0.876791	-0.299042	0.144302
O87	O	0.852946	-0.446981	0.147636
H88	H	0.810350	-0.387188	0.151607
