data_functionalizedCrystal
_audit_creation_method	'MofGen! by Chris Wilmer'
_symmetry_space_group_name_H-M	'P1'
_symmetry_Int_Tables_number	1
_symmetry_cell_setting	triclinic
loop_
_symmetry_equiv_pos_as_xyz
  x,y,z
_cell_length_a	18.050591
_cell_length_b	18.050590
_cell_length_c	13.897441
_cell_angle_alpha	89.966994
_cell_angle_beta	89.973262
_cell_angle_gamma	90.015000
loop_
_atom_site_label
_atom_site_type_symbol
_atom_site_fract_x
_atom_site_fract_y
_atom_site_fract_z
Zn1	Zn	1.135394	-0.295706	-0.545520
Zn2	Zn	1.635394	0.204294	-0.045520
Zn3	Zn	1.135310	-0.419910	-0.384214
Zn4	Zn	1.635310	0.080090	0.115786
Zn5	Zn	1.011198	-0.295731	-0.384221
Zn6	Zn	1.511198	0.204269	0.115779
Zn7	Zn	1.011182	-0.419851	-0.545450
Zn8	Zn	1.511182	0.080149	-0.045450
O9	O	1.073271	-0.357800	-0.464851
O10	O	1.573271	0.142200	0.035149
O11	O	1.239307	-0.312196	-0.524148
O12	O	1.739307	0.187804	-0.024148
O13	O	1.118818	-0.403473	-0.249233
O14	O	1.618818	0.096527	0.250767
O15	O	1.027714	-0.191803	-0.405650
O16	O	1.527714	0.308197	0.094350
O17	O	1.239246	-0.403449	-0.405638
O18	O	1.739246	0.096551	0.094362
O19	O	1.118960	-0.191785	-0.524155
O20	O	1.618960	0.308215	-0.024155
O21	O	1.027633	-0.312239	-0.249238
O22	O	1.527633	0.187761	0.250762
O23	O	0.907271	-0.312181	-0.405582
O24	O	1.407271	0.187819	0.094418
O25	O	1.027687	-0.403348	-0.680441
O26	O	1.527687	0.096652	-0.180441
O27	O	0.907259	-0.403372	-0.524036
O28	O	1.407259	0.096628	-0.024036
O29	O	1.118945	-0.312139	-0.680492
O30	O	1.618945	0.187861	-0.180492
O31	O	1.118803	-0.523827	-0.405570
O32	O	1.618803	-0.023827	0.094430
O33	O	1.027606	-0.523784	-0.524030
O34	O	1.527606	-0.023784	-0.024030
C35	C	0.880319	-0.357773	-0.464803
C36	C	1.380319	0.142227	0.035197
C37	C	0.797773	-0.357780	-0.464805
C38	C	1.297773	0.142220	0.035195
C39	C	1.073214	-0.550752	-0.464813
C40	C	1.573214	-0.050752	0.035187
C41	C	1.073257	-0.633298	-0.464828
C42	C	1.573257	-0.133298	0.035172
C43	C	0.548932	-0.308139	-0.400542
C44	C	1.048932	0.191861	0.099458
C45	C	0.598369	-0.290047	-0.488573
C46	C	1.098369	0.209953	0.011427
C47	C	0.500652	-0.357818	-0.464884
C48	C	1.000652	0.142182	0.035116
C49	C	0.598297	-0.375857	-0.376819
C50	C	1.098297	0.124143	0.123181
C51	C	0.646638	-0.357798	-0.464841
C52	C	1.146638	0.142202	0.035159
C53	C	0.549002	-0.339691	-0.552962
C54	C	1.049002	0.160309	-0.052962
C55	C	0.548926	-0.425532	-0.441149
C56	C	1.048926	0.074468	0.058851
C57	C	0.598341	-0.407465	-0.529240
C58	C	1.098341	0.092535	-0.029240
C59	C	0.416554	-0.357828	-0.464908
C60	C	0.916554	0.142172	0.035092
C61	C	0.730734	-0.357788	-0.464827
C62	C	1.230734	0.142212	0.035173
C63	C	1.122953	-0.832745	-0.400500
C64	C	1.622953	-0.332745	0.099500
C65	C	1.141097	-0.882073	-0.488538
C66	C	1.641097	-0.382073	0.011462
C67	C	1.073299	-0.784428	-0.464867
C68	C	1.573299	-0.284428	0.035133
C69	C	1.055231	-0.882181	-0.376869
C70	C	1.555231	-0.382181	0.123131
C71	C	1.073341	-0.930413	-0.464896
C72	C	1.573341	-0.430413	0.035104
C73	C	1.091478	-0.832669	-0.552951
C74	C	1.591478	-0.332669	-0.052951
C75	C	1.005581	-0.832773	-0.441222
C76	C	1.505581	-0.332773	0.058778
C77	C	1.023699	-0.882079	-0.529321
C78	C	1.523699	-0.382079	-0.029321
C79	C	1.073277	-0.700330	-0.464849
C80	C	1.573277	-0.200330	0.035151
C81	C	1.073364	-1.014509	-0.464925
C82	C	1.573364	-0.514509	0.035075
C83	C	1.266976	-0.357826	-0.464900
C84	C	1.766976	0.142174	0.035100
C85	C	1.349522	-0.357838	-0.464921
C86	C	1.849522	0.142162	0.035079
C87	C	1.073323	-0.357734	-0.716444
C88	C	1.573323	0.142266	-0.216444
C89	C	1.073346	-0.357706	-0.823658
C90	C	1.573346	0.142294	-0.323658
C91	C	1.073348	-0.164094	-0.464911
C92	C	1.573348	0.335906	0.035089
C93	C	1.073381	-0.081548	-0.464936
C94	C	1.573381	0.418452	0.035064
C95	C	1.073366	-0.357656	-1.019954
C96	C	1.573366	0.142344	-0.519954
C97	C	1.073353	-0.357686	-0.910721
C98	C	1.573353	0.142314	-0.410721
C99	C	1.073261	-0.357811	-0.214237
C100	C	1.573261	0.142189	0.285763
C101	C	1.073382	-0.357630	-0.107023
C102	C	1.573382	0.142370	0.392977
H103	H	0.527240	-0.266105	-0.346216
H104	H	1.027240	0.233895	0.153784
Cl105	Cl	0.631894	-0.201622	-0.519558
Cl106	Cl	1.131894	0.298378	-0.019558
Cl107	Cl	0.917157	-0.799313	-0.410280
Cl108	Cl	1.417157	-0.299313	0.089720
H109	H	0.619897	-0.449469	-0.583696
H110	H	1.119897	0.050531	-0.083696
Cl111	Cl	1.187801	-0.799296	-0.316546
Cl112	Cl	1.687801	-0.299296	0.183454
Cl113	Cl	0.958896	-0.915317	-0.613473
Cl114	Cl	1.458896	-0.415317	-0.113473
H115	H	1.106721	-0.811013	-0.627446
H116	H	1.606721	-0.311013	-0.127446
Cl117	Cl	1.229544	-0.915494	-0.519462
Cl118	Cl	1.729544	-0.415494	-0.019462
Cl119	Cl	0.515715	-0.316016	-0.667951
Cl120	Cl	1.015715	0.183984	-0.167951
Cl121	Cl	1.031609	-0.915759	-0.261955
Cl122	Cl	1.531609	-0.415759	0.238045
H123	H	0.619953	-0.391122	-0.302363
H124	H	1.119953	0.108878	0.197637
Cl125	Cl	0.515364	-0.513931	-0.410131
Cl126	Cl	1.015364	-0.013931	0.089869
