data_functionalizedCrystal
_audit_creation_method	'MofGen! by Chris Wilmer'
_symmetry_space_group_name_H-M	'P1'
_symmetry_Int_Tables_number	1
_symmetry_cell_setting	triclinic
loop_
_symmetry_equiv_pos_as_xyz
  x,y,z
_cell_length_a	16.109302
_cell_length_b	23.532357
_cell_length_c	15.186229
_cell_angle_alpha	89.990735
_cell_angle_beta	89.994701
_cell_angle_gamma	83.145036
loop_
_atom_site_label
_atom_site_type_symbol
_atom_site_fract_x
_atom_site_fract_y
_atom_site_fract_z
O1	O	1.102535	0.073206	-0.073279
O2	O	1.352535	0.323206	0.176721
O3	O	1.602535	0.573206	0.426721
O4	O	1.852535	0.823206	0.676721
O5	O	0.860400	0.082315	-0.073273
O6	O	1.110400	0.332315	0.176727
O7	O	1.360400	0.582315	0.426727
O8	O	1.610400	0.832315	0.676727
O9	O	0.988791	-0.005146	-0.073258
O10	O	1.238791	0.244854	0.176742
O11	O	1.488791	0.494854	0.426742
O12	O	1.738791	0.744854	0.676742
O13	O	0.974144	0.160667	-0.073294
O14	O	1.224144	0.410667	0.176706
O15	O	1.474144	0.660667	0.426706
O16	O	1.724144	0.910667	0.676706
O17	O	0.988782	-0.005147	0.073199
O18	O	1.238782	0.244853	0.323199
O19	O	1.488782	0.494853	0.573199
O20	O	1.738782	0.744853	0.823199
O21	O	0.860391	0.082314	0.073184
O22	O	1.110391	0.332314	0.323184
O23	O	1.360391	0.582314	0.573184
O24	O	1.610391	0.832314	0.823184
O25	O	1.102527	0.073204	0.073178
O26	O	1.352527	0.323204	0.323178
O27	O	1.602527	0.573204	0.573178
O28	O	1.852527	0.823204	0.823178
Zn29	Zn	0.981458	0.077759	0.096434
Zn30	Zn	1.231458	0.327759	0.346434
Zn31	Zn	1.481458	0.577759	0.596434
Zn32	Zn	1.731458	0.827759	0.846434
Zn33	Zn	0.981469	0.077761	-0.096529
Zn34	Zn	1.231469	0.327761	0.153471
Zn35	Zn	1.481469	0.577761	0.403471
Zn36	Zn	1.731469	0.827761	0.653471
O37	O	0.974136	0.160666	0.073163
O38	O	1.224136	0.410666	0.323163
O39	O	1.474136	0.660666	0.573163
O40	O	1.724136	0.910666	0.823163
C41	C	0.829423	0.081946	-0.000044
C42	C	1.079423	0.331946	0.249956
C43	C	1.329423	0.581946	0.499956
C44	C	1.579423	0.831946	0.749956
C45	C	0.737137	0.080839	-0.000041
C46	C	0.987137	0.330839	0.249959
C47	C	1.237137	0.580839	0.499959
C48	C	1.487137	0.830839	0.749959
C49	C	0.524812	0.078280	0.079785
C50	C	0.774812	0.328280	0.329785
C51	C	1.024812	0.578280	0.579785
C52	C	1.274812	0.828280	0.829785
C53	C	0.438101	0.077234	0.079782
C54	C	0.688101	0.327234	0.329782
C55	C	0.938101	0.577234	0.579782
C56	C	1.188101	0.827234	0.829782
C57	C	0.438121	0.077238	-0.079894
C58	C	0.688121	0.327238	0.170106
C59	C	0.938121	0.577238	0.420106
C60	C	1.188121	0.827238	0.670106
C61	C	0.524831	0.078280	-0.079890
C62	C	0.774831	0.328280	0.170110
C63	C	1.024831	0.578280	0.420110
C64	C	1.274831	0.828280	0.670110
C65	C	0.568174	0.078804	-0.000048
C66	C	0.818174	0.328804	0.249952
C67	C	1.068174	0.578804	0.499952
C68	C	1.318174	0.828804	0.749952
C69	C	0.394752	0.076716	-0.000055
C70	C	0.644752	0.326716	0.249945
C71	C	0.894752	0.576716	0.499945
C72	C	1.144752	0.826716	0.749945
C73	C	0.300736	0.075582	-0.000058
C74	C	0.550736	0.325582	0.249942
C75	C	0.800736	0.575582	0.499942
C76	C	1.050736	0.825582	0.749942
C77	C	0.662197	0.079937	-0.000044
C78	C	0.912197	0.329937	0.249956
C79	C	1.162197	0.579937	0.499956
C80	C	1.412197	0.829937	0.749956
C81	C	0.988420	-0.026365	-0.000027
C82	C	1.238420	0.223635	0.249973
C83	C	1.488420	0.473635	0.499973
C84	C	1.738420	0.723635	0.749973
C85	C	0.987319	-0.089587	-0.000019
C86	C	1.237319	0.160413	0.249981
C87	C	1.487319	0.410413	0.499981
C88	C	1.737319	0.660413	0.749981
C89	C	0.980408	-0.481624	-0.079900
C90	C	1.230408	-0.231624	0.170100
C91	C	1.480408	0.018376	0.420100
C92	C	1.730408	0.268376	0.670100
C93	C	0.979361	-0.541027	-0.079905
C94	C	1.229361	-0.291027	0.170095
C95	C	1.479361	-0.041027	0.420095
C96	C	1.729361	0.208973	0.670095
O97	O	0.978796	-0.571745	-0.147800
O98	O	1.228796	-0.321745	0.102200
O99	O	1.478796	-0.071745	0.352200
O100	O	1.728796	0.178255	0.602200
N101	N	0.978838	-0.570741	-0.000072
N102	N	1.228838	-0.320741	0.249928
N103	N	1.478838	-0.070741	0.499928
N104	N	1.728838	0.179259	0.749928
C105	C	0.979352	-0.541047	0.079771
C106	C	1.229352	-0.291047	0.329771
C107	C	1.479352	-0.041047	0.579771
C108	C	1.729352	0.208953	0.829771
O109	O	0.978810	-0.571776	0.147674
O110	O	1.228810	-0.321776	0.397674
O111	O	1.478810	-0.071776	0.647674
O112	O	1.728810	0.178224	0.897674
C113	C	0.980393	-0.481644	0.079775
C114	C	1.230393	-0.231644	0.329775
C115	C	1.480393	0.018356	0.579775
C116	C	1.730393	0.268356	0.829775
C117	C	0.980926	-0.451935	-0.000063
C118	C	1.230926	-0.201935	0.249937
C119	C	1.480926	0.048065	0.499937
C120	C	1.730926	0.298065	0.749937
C121	C	0.980940	-0.451913	-0.159731
C122	C	1.230940	-0.201913	0.090269
C123	C	1.480940	0.048087	0.340269
C124	C	1.730940	0.298087	0.590269
C125	C	0.981988	-0.392514	-0.159726
C126	C	1.231988	-0.142514	0.090274
C127	C	1.481988	0.107486	0.340274
C128	C	1.731988	0.357486	0.590274
C129	C	0.982506	-0.362825	-0.079889
C130	C	1.232506	-0.112825	0.170111
C131	C	1.482506	0.137175	0.420111
C132	C	1.732506	0.387175	0.670111
C133	C	0.981974	-0.392535	-0.000058
C134	C	1.231974	-0.142535	0.249942
C135	C	1.481974	0.107465	0.499942
C136	C	1.731974	0.357465	0.749942
C137	C	0.980902	-0.451952	0.159617
C138	C	1.230902	-0.201952	0.409617
C139	C	1.480902	0.048048	0.659617
C140	C	1.730902	0.298048	0.909617
C141	C	0.981943	-0.392545	0.159614
C142	C	1.231943	-0.142545	0.409614
C143	C	1.481943	0.107455	0.659614
C144	C	1.731943	0.357455	0.909614
C145	C	0.982475	-0.362835	0.079776
C146	C	1.232475	-0.112835	0.329776
C147	C	1.482475	0.137165	0.579776
C148	C	1.732475	0.387165	0.829776
C149	C	0.983540	-0.303447	0.079785
C150	C	1.233540	-0.053447	0.329785
C151	C	1.483540	0.196553	0.579785
C152	C	1.733540	0.446553	0.829785
N153	N	0.984064	-0.273734	-0.000048
N154	N	1.234064	-0.023734	0.249952
N155	N	1.484064	0.226266	0.499952
N156	N	1.734064	0.476266	0.749952
C157	C	0.983547	-0.303423	-0.079885
C158	C	1.233547	-0.053423	0.170115
C159	C	1.483547	0.196577	0.420115
C160	C	1.733547	0.446577	0.670115
C161	C	0.977165	-0.665797	0.079756
C162	C	1.227165	-0.415797	0.329756
C163	C	1.477165	-0.165797	0.579756
C164	C	1.727165	0.084203	0.829756
C165	C	0.976130	-0.725199	0.079753
C166	C	1.226130	-0.475199	0.329753
C167	C	1.476130	-0.225199	0.579753
C168	C	1.726130	0.024801	0.829753
C169	C	0.976137	-0.725174	-0.079923
C170	C	1.226137	-0.475174	0.170077
C171	C	1.476137	-0.225174	0.420077
C172	C	1.726137	0.024826	0.670077
C173	C	0.977178	-0.665772	-0.079919
C174	C	1.227178	-0.415772	0.170081
C175	C	1.477178	-0.165772	0.420081
C176	C	1.727178	0.084228	0.670081
C177	C	0.977688	-0.636083	-0.000076
C178	C	1.227688	-0.386083	0.249924
C179	C	1.477688	-0.136083	0.499924
C180	C	1.727688	0.113917	0.749924
C181	C	0.985749	-0.178680	-0.079868
C182	C	1.235749	0.071320	0.170132
C183	C	1.485749	0.321320	0.420132
C184	C	1.735749	0.571320	0.670132
C185	C	0.986802	-0.119276	-0.079855
C186	C	1.236802	0.130724	0.170145
C187	C	1.486802	0.380724	0.420145
C188	C	1.736802	0.630724	0.670145
C189	C	0.986789	-0.119306	0.079820
C190	C	1.236789	0.130694	0.329820
C191	C	1.486789	0.380694	0.579820
C192	C	1.736789	0.630694	0.829820
C193	C	0.985742	-0.178705	0.079808
C194	C	1.235742	0.071295	0.329808
C195	C	1.485742	0.321295	0.579808
C196	C	1.735742	0.571295	0.829808
C197	C	0.985219	-0.208391	-0.000043
C198	C	1.235219	0.041609	0.249957
C199	C	1.485219	0.291609	0.499957
C200	C	1.735219	0.541609	0.749957
O201	O	0.984103	-0.272692	0.147645
O202	O	1.234103	-0.022692	0.397645
O203	O	1.484103	0.227308	0.647645
O204	O	1.734103	0.477308	0.897645
O205	O	0.984078	-0.272686	-0.147777
O206	O	1.234078	-0.022686	0.102223
O207	O	1.484078	0.227314	0.352223
O208	O	1.734078	0.477314	0.602223
C209	C	1.133503	0.073574	-0.000053
C210	C	1.383503	0.323574	0.249947
C211	C	1.633503	0.573574	0.499947
C212	C	1.883503	0.823574	0.749947
C213	C	1.225789	0.074681	-0.000062
C214	C	1.475789	0.324681	0.249938
C215	C	1.725789	0.574681	0.499938
C216	C	1.975789	0.824681	0.749938
C217	C	0.974506	0.181884	-0.000070
C218	C	1.224506	0.431884	0.249930
C219	C	1.474506	0.681884	0.499930
C220	C	1.724506	0.931884	0.749930
C221	C	0.975608	0.245107	-0.000084
C222	C	1.225608	0.495107	0.249916
C223	C	1.475608	0.745107	0.499916
C224	C	1.725608	0.995107	0.749916
N225	N	0.981456	0.077758	0.228127
N226	N	1.231456	0.327758	0.478127
N227	N	1.481456	0.577758	0.728127
N228	N	1.731456	0.827758	0.978127
N229	N	0.981477	0.077758	-0.228222
N230	N	1.231477	0.327758	0.021778
N231	N	1.481477	0.577758	0.271778
N232	N	1.731477	0.827758	0.521778
C233	C	1.038327	0.039043	0.453857
C234	C	1.288327	0.289043	0.703857
C235	C	1.538327	0.539043	0.953857
C236	C	1.788327	0.789043	1.203857
C237	C	1.038329	0.039041	0.546046
C238	C	1.288329	0.289041	0.796046
C239	C	1.538329	0.539041	1.046046
C240	C	1.788329	0.789041	1.296046
C241	C	0.924600	0.116474	0.546042
C242	C	1.174600	0.366474	0.796042
C243	C	1.424600	0.616474	1.046042
C244	C	1.674600	0.866474	1.296042
C245	C	0.924594	0.116473	0.453854
C246	C	1.174594	0.366473	0.703854
C247	C	1.424594	0.616473	0.953854
C248	C	1.674594	0.866473	1.203854
C249	C	0.981462	0.077757	0.407764
C250	C	1.231462	0.327757	0.657764
C251	C	1.481462	0.577757	0.907764
C252	C	1.731462	0.827757	1.157764
C253	C	0.981471	0.077758	0.592141
C254	C	1.231471	0.327758	0.842141
C255	C	1.481471	0.577758	1.092141
C256	C	1.731471	0.827758	1.342141
C257	C	0.981473	0.077757	0.692097
C258	C	1.231473	0.327757	0.942097
C259	C	1.481473	0.577757	1.192097
C260	C	1.731473	0.827757	1.442097
C261	C	0.981459	0.077758	0.307801
C262	C	1.231459	0.327758	0.557801
C263	C	1.481459	0.577758	0.807801
C264	C	1.731459	0.827758	1.057801
H265	H	0.402820	0.076813	-0.144898
H266	H	0.652820	0.326813	0.105102
H267	H	0.902820	0.576813	0.355102
H268	H	1.152820	0.826813	0.605102
H269	H	0.560138	0.078705	-0.144904
H270	H	0.810138	0.328705	0.105096
H271	H	1.060138	0.578705	0.355096
H272	H	1.310138	0.828705	0.605096
N273	N	0.866505	0.156030	0.406780
N274	N	1.116505	0.406030	0.656780
N275	N	1.366505	0.656030	0.906780
N276	N	1.616505	0.906030	1.156780
N277	N	0.867195	0.208672	0.417059
N278	N	1.117195	0.458672	0.667059
N279	N	1.367195	0.708672	0.917059
N280	N	1.617195	0.958672	1.167059
H281	H	0.826169	0.236608	0.383814
H282	H	1.076169	0.486608	0.633814
H283	H	1.326169	0.736608	0.883814
H284	H	1.576169	0.986608	1.133814
H285	H	0.402799	0.076808	0.144790
H286	H	0.652799	0.326808	0.394790
H287	H	0.902799	0.576808	0.644790
H288	H	1.152799	0.826808	0.894790
N289	N	0.987352	-0.088939	-0.161420
N290	N	1.237352	0.161061	0.088580
N291	N	1.487352	0.411061	0.338580
N292	N	1.737352	0.661061	0.588580
N293	N	0.986889	-0.115458	-0.232695
N294	N	1.236889	0.134542	0.017305
N295	N	1.486889	0.384542	0.267305
N296	N	1.736889	0.634542	0.517305
H297	H	0.987278	-0.094035	-0.290299
H298	H	1.237278	0.155965	-0.040299
H299	H	1.487278	0.405965	0.209701
H300	H	1.737278	0.655965	0.459701
H301	H	0.560100	0.078706	0.144797
H302	H	0.810100	0.328706	0.394797
H303	H	1.060100	0.578706	0.644797
H304	H	1.310100	0.828706	0.894797
H305	H	0.980470	-0.476131	0.224630
H306	H	1.230470	-0.226131	0.474630
H307	H	1.480470	0.023869	0.724630
H308	H	1.730470	0.273869	0.974630
H309	H	0.985316	-0.202897	0.144819
H310	H	1.235316	0.047103	0.394819
H311	H	1.485316	0.297103	0.644819
H312	H	1.735316	0.547103	0.894819
H313	H	0.985320	-0.202843	-0.144890
H314	H	1.235320	0.047157	0.105110
H315	H	1.485320	0.297157	0.355110
H316	H	1.735320	0.547157	0.605110
N317	N	0.982529	-0.362180	-0.241287
N318	N	1.232529	-0.112180	0.008713
N319	N	1.482529	0.137820	0.258713
N320	N	1.732529	0.387820	0.508713
N321	N	0.982064	-0.388704	-0.312558
N322	N	1.232064	-0.138704	-0.062558
N323	N	1.482064	0.111296	0.187442
N324	N	1.732064	0.361296	0.437442
H325	H	0.982442	-0.367284	-0.370166
H326	H	1.232442	-0.117284	-0.120166
H327	H	1.482442	0.132716	0.129834
H328	H	1.732442	0.382716	0.379834
N329	N	0.980406	-0.482225	-0.241298
N330	N	1.230406	-0.232225	0.008702
N331	N	1.480406	0.017775	0.258702
N332	N	1.730406	0.267775	0.508702
N333	N	0.980878	-0.455679	-0.312563
N334	N	1.230878	-0.205679	-0.062563
N335	N	1.480878	0.044321	0.187437
N336	N	1.730878	0.294321	0.437437
H337	H	0.980506	-0.477083	-0.370175
H338	H	1.230506	-0.227083	-0.120175
H339	H	1.480506	0.022917	0.129825
H340	H	1.730506	0.272917	0.379825
N341	N	0.977725	-0.635436	-0.161479
N342	N	1.227725	-0.385436	0.088521
N343	N	1.477725	-0.135436	0.338521
N344	N	1.727725	0.114564	0.588521
N345	N	0.977270	-0.661958	-0.232751
N346	N	1.227270	-0.411958	0.017249
N347	N	1.477270	-0.161958	0.267249
N348	N	1.727270	0.088042	0.517249
H349	H	0.977656	-0.640537	-0.290357
H350	H	1.227656	-0.390537	-0.040357
H351	H	1.477656	-0.140537	0.209643
H352	H	1.727656	0.109463	0.459643
N353	N	0.975620	-0.755517	-0.161469
N354	N	1.225620	-0.505517	0.088531
N355	N	1.475620	-0.255517	0.338531
N356	N	1.725620	-0.005517	0.588531
N357	N	0.974695	-0.808555	-0.161452
N358	N	1.224695	-0.558555	0.088548
N359	N	1.474695	-0.308555	0.338548
N360	N	1.724695	-0.058555	0.588548
H361	H	0.974335	-0.829988	-0.219040
H362	H	1.224335	-0.579988	0.030960
H363	H	1.474335	-0.329988	0.280960
H364	H	1.724335	-0.079988	0.530960
H365	H	0.977583	-0.641628	0.144778
H366	H	1.227583	-0.391628	0.394778
H367	H	1.477583	-0.141628	0.644778
H368	H	1.727583	0.108372	0.894778
N369	N	0.975604	-0.755536	0.161314
N370	N	1.225604	-0.505536	0.411314
N371	N	1.475604	-0.255536	0.661314
N372	N	1.725604	-0.005536	0.911314
N373	N	0.976071	-0.729014	0.232586
N374	N	1.226071	-0.479014	0.482586
N375	N	1.476071	-0.229014	0.732586
N376	N	1.726071	0.020986	0.982586
H377	H	0.975697	-0.750437	0.290193
H378	H	1.225697	-0.500437	0.540193
H379	H	1.475697	-0.250437	0.790193
H380	H	1.725697	-0.000437	1.040193
H381	H	0.982346	-0.368374	0.224633
H382	H	1.232346	-0.118374	0.474633
H383	H	1.482346	0.131626	0.724633
H384	H	1.732346	0.381626	0.974633
H385	H	1.084631	0.007518	0.416332
H386	H	1.334631	0.257518	0.666332
H387	H	1.584631	0.507518	0.916332
H388	H	1.834631	0.757518	1.166332
H389	H	1.084633	0.007516	0.583573
H390	H	1.334633	0.257516	0.833573
H391	H	1.584633	0.507516	1.083573
H392	H	1.834633	0.757516	1.333573
H393	H	0.878301	0.147996	0.583578
H394	H	1.128301	0.397996	0.833578
H395	H	1.378301	0.647996	1.083578
H396	H	1.628301	0.897996	1.333578
N397	N	0.987326	-0.088965	0.161360
N398	N	1.237326	0.161035	0.411360
N399	N	1.487326	0.411035	0.661360
N400	N	1.737326	0.661035	0.911360
N401	N	0.988259	-0.035928	0.161343
N402	N	1.238259	0.214072	0.411343
N403	N	1.488259	0.464072	0.661343
N404	N	1.738259	0.714072	0.911343
H405	H	0.988634	-0.014497	0.218931
H406	H	1.238634	0.235503	0.468931
H407	H	1.488634	0.485503	0.718931
H408	H	1.738634	0.735503	0.968931
