data_functionalizedCrystal
_audit_creation_method	'MofGen! by Chris Wilmer'
_symmetry_space_group_name_H-M	'P1'
_symmetry_Int_Tables_number	1
_symmetry_cell_setting	triclinic
loop_
_symmetry_equiv_pos_as_xyz
  x,y,z
_cell_length_a	10.654546
_cell_length_b	16.974813
_cell_length_c	9.130313
_cell_angle_alpha	93.655805
_cell_angle_beta	90.001178
_cell_angle_gamma	83.938187
loop_
_atom_site_label
_atom_site_type_symbol
_atom_site_fract_x
_atom_site_fract_y
_atom_site_fract_z
O1	O	1.666108	0.111039	0.134990
O2	O	1.300464	0.121622	0.136240
O3	O	1.493480	0.001283	0.121972
O4	O	1.473092	0.231378	0.149258
O5	O	1.493478	0.001286	-0.121626
O6	O	1.300462	0.121626	-0.107358
O7	O	1.666106	0.111042	-0.108608
Cu8	Cu	1.483284	0.116334	-0.130226
Cu9	Cu	1.483286	0.116330	0.157858
O10	O	1.473090	0.231381	-0.094340
C11	C	1.253677	0.120847	0.014348
C12	C	1.114270	0.118524	0.014071
C13	C	1.048794	0.117423	0.146733
C14	C	0.917807	0.115234	0.146485
C15	C	0.917785	0.115244	-0.119098
C16	C	1.048768	0.117439	-0.118848
C17	C	1.048806	0.117414	0.300066
C18	C	0.917819	0.115225	0.299818
C19	C	1.492704	-0.028178	-0.003318
C20	C	1.490378	-0.115967	-0.013720
C21	C	1.489290	-0.157208	0.114178
C22	C	1.487097	-0.239695	0.104400
C23	C	1.486001	-0.280940	-0.033277
C24	C	1.487086	-0.239693	-0.161184
C25	C	1.489270	-0.157207	-0.151405
C26	C	1.479461	-0.527636	-0.076764
C27	C	1.477280	-0.610128	-0.086533
C28	C	1.477289	-0.610124	0.179052
C29	C	1.479481	-0.527637	0.188820
C30	C	1.480559	-0.486397	0.060912
N31	N	1.483763	-0.365255	-0.043275
N32	N	1.482787	-0.402082	0.070912
C33	C	1.712893	0.111817	0.013287
C34	C	1.852300	0.114140	0.013573
C35	C	1.473867	0.260842	0.030953
C36	C	1.476192	0.348631	0.041364
N37	N	1.483291	0.116336	-0.332848
C38	C	1.568780	0.063068	-0.415816
C39	C	1.568777	0.063059	-0.569154
C40	C	1.397791	0.169592	-0.556542
C41	C	1.397789	0.169597	-0.403207
C42	C	1.667501	0.001565	-0.423098
C43	C	1.667497	0.001555	-0.576436
N44	N	1.483289	0.116322	0.360479
H45	H	1.101405	0.061103	0.340955
H46	H	0.893874	0.059392	0.352068
F47	F	0.849077	0.188821	0.370752
F48	F	0.848063	0.114089	-0.260553
H49	H	1.763798	0.015102	-0.616445
F50	F	1.640710	-0.077869	-0.378111
H51	H	1.758385	0.020821	-0.373255
H52	H	1.072756	0.173242	0.365559
F53	F	1.306788	0.226282	-0.314908
F54	F	1.490426	-0.113316	-0.287532
H55	H	1.480375	-0.494061	0.300931
H56	H	1.486186	-0.273281	-0.273284
F57	F	1.490465	-0.113320	0.260715
H58	H	1.328177	0.212955	-0.613845
H59	H	1.486216	-0.273270	0.208548
F60	F	1.628775	-0.073507	-0.647493
H61	H	1.480363	-0.494070	-0.180915
H62	H	1.102072	0.118344	-0.226873
H63	H	1.476409	-0.643710	0.283187
F64	F	1.476121	-0.654023	-0.233075
