data_functionalizedCrystal
_audit_creation_method	'MofGen! by Chris Wilmer'
_symmetry_space_group_name_H-M	'P1'
_symmetry_Int_Tables_number	1
_symmetry_cell_setting	triclinic
loop_
_symmetry_equiv_pos_as_xyz
  x,y,z
_cell_length_a	16.109318
_cell_length_b	10.654550
_cell_length_c	14.586319
_cell_angle_alpha	89.999132
_cell_angle_beta	89.999925
_cell_angle_gamma	96.023254
loop_
_atom_site_label
_atom_site_type_symbol
_atom_site_fract_x
_atom_site_fract_y
_atom_site_fract_z
O1	O	-1.104082	0.161523	-0.076158
O2	O	-0.862141	0.181588	-0.076176
O3	O	-0.988674	-0.011259	-0.076167
O4	O	-0.977549	0.354370	-0.076167
O5	O	-0.988666	-0.011262	0.076314
O6	O	-0.862133	0.181585	0.076305
O7	O	-1.104073	0.161520	0.076323
Cu8	Cu	-0.983102	0.171552	0.090237
Cu9	Cu	-0.983113	0.171556	-0.090090
O10	O	-0.977540	0.354367	0.076314
C11	C	-0.831158	0.180770	0.000062
C12	C	-0.738848	0.178322	0.000055
C13	C	-0.987853	-0.058047	0.000071
C14	C	-0.985409	-0.197457	0.000064
C15	C	-1.135057	0.162338	0.000083
C16	C	-1.227366	0.164786	0.000084
C17	C	-0.439733	0.170416	-0.083046
C18	C	-0.526467	0.172708	-0.083052
C19	C	-0.526476	0.172688	0.083191
C20	C	-0.439744	0.170387	0.083196
C21	C	-0.396374	0.169258	0.000075
C22	C	-0.569841	0.173851	0.000064
C23	C	-0.663883	0.176336	0.000059
C24	C	-0.302326	0.166770	0.000080
C25	C	-0.981961	-0.393950	-0.083046
C26	C	-0.984265	-0.262961	-0.083052
C27	C	-0.984256	-0.262952	0.083191
C28	C	-0.981958	-0.393940	0.083196
N29	N	-0.983101	0.171549	0.217068
C30	C	-0.978362	0.401155	0.000074
C31	C	-0.980806	0.540566	0.000074
N32	N	-0.983120	0.171549	-0.216921
C33	C	-1.039148	0.086185	0.452079
C34	C	-1.039151	0.086182	0.548060
C35	C	-0.927067	0.256917	0.548062
C36	C	-0.927061	0.256913	0.452082
C37	C	-0.983107	0.171549	0.404093
C38	C	-0.983115	0.171550	0.596054
C39	C	-0.983117	0.171547	0.700121
C40	C	-0.983104	0.171549	0.300019
H41	H	-0.561767	0.173650	-0.150737
O42	O	-0.980871	-0.457384	-0.163869
C43	C	-0.981038	-0.443544	-0.328759
C44	C	-0.982302	-0.371561	-0.237292
H45	H	-0.982177	-0.374184	-0.388145
H46	H	-1.038049	-0.516364	-0.332989
H47	H	-0.921887	-0.493377	-0.332852
H48	H	-1.041416	-0.321652	-0.233137
H49	H	-0.925252	-0.298812	-0.233101
O50	O	-1.093452	0.003156	0.405381
C51	C	-1.110091	-0.168488	0.297134
C52	C	-1.048513	-0.074471	0.349928
H53	H	-1.073782	-0.231291	0.252302
H54	H	-1.151950	-0.114395	0.252111
H55	H	-1.150136	-0.229440	0.347963
H56	H	-1.008413	-0.013495	0.299165
H57	H	-1.006712	-0.128641	0.394964
O58	O	-0.872539	0.339671	0.405420
C59	C	-0.759188	0.366339	0.297013
C60	C	-0.820870	0.272487	0.349817
H61	H	-0.717410	0.312058	0.252030
H62	H	-0.719075	0.427345	0.347753
H63	H	-0.795462	0.429108	0.252113
H64	H	-0.784664	0.209635	0.394718
H65	H	-0.860983	0.211569	0.299027
O66	O	-1.093512	0.003310	0.594815
C67	C	-1.143230	-0.072310	0.742673
C68	C	-1.081607	0.021596	0.689839
H69	H	-1.133638	-0.057540	0.819509
H70	H	-1.131820	-0.172930	0.723871
H71	H	-1.209901	-0.055919	0.723743
H72	H	-1.014912	0.005321	0.708741
H73	H	-1.093090	0.122184	0.708645
H74	H	-0.881437	0.326421	0.587144
H75	H	-0.985207	-0.209649	-0.150737
O76	O	-0.980801	-0.457358	0.164026
C77	C	-0.981086	-0.443548	0.328917
C78	C	-0.982375	-0.371566	0.237449
H79	H	-0.982376	-0.374220	0.388303
H80	H	-0.921917	-0.493326	0.333132
H81	H	-1.038078	-0.516416	0.333025
H82	H	-0.925424	-0.298638	0.233280
H83	H	-1.041581	-0.321875	0.233273
O84	O	-0.397735	0.169260	-0.163868
C85	C	-0.406879	0.169598	-0.328759
C86	C	-0.454542	0.170883	-0.237292
H87	H	-0.452784	0.170936	-0.388145
H88	H	-0.373397	0.080670	-0.332982
H89	H	-0.359152	0.256335	-0.332859
H90	H	-0.502310	0.084206	-0.233130
H91	H	-0.487967	0.259867	-0.233108
O92	O	-0.568713	0.173631	0.163872
C93	C	-0.675402	0.067457	0.260366
C94	C	-0.627649	0.066243	0.168952
H95	H	-0.723050	-0.019370	0.264512
H96	H	-0.708965	0.156311	0.264535
H97	H	-0.629492	0.066292	0.319762
H98	H	-0.673503	0.067361	0.109505
H99	H	-0.594073	-0.022604	0.164863
H100	H	-0.985193	-0.209610	0.150866
O101	O	-0.397743	0.169322	0.164027
C102	C	-0.406904	0.169465	0.328917
C103	C	-0.454570	0.170711	0.237449
H104	H	-0.452829	0.170561	0.388303
H105	H	-0.359216	0.256240	0.333141
H106	H	-0.373377	0.080573	0.333016
H107	H	-0.488146	0.259545	0.233289
H108	H	-0.502210	0.083877	0.233264
