data_functionalizedCrystal
_audit_creation_method	'MofGen! by Chris Wilmer'
_symmetry_space_group_name_H-M	'P1'
_symmetry_Int_Tables_number	1
_symmetry_cell_setting	triclinic
loop_
_symmetry_equiv_pos_as_xyz
  x,y,z
_cell_length_a	29.839134
_cell_length_b	29.839131
_cell_length_c	29.839125
_cell_angle_alpha	90.017709
_cell_angle_beta	90.021980
_cell_angle_gamma	90.036281
loop_
_atom_site_label
_atom_site_type_symbol
_atom_site_fract_x
_atom_site_fract_y
_atom_site_fract_z
Zn1	Zn	0.686720	-0.178978	0.254125
Zn2	Zn	1.186720	0.321022	0.754125
Zn3	Zn	0.686652	-0.254090	0.178995
Zn4	Zn	1.186652	0.245910	0.678995
Zn5	Zn	0.611602	-0.178968	0.178995
Zn6	Zn	1.111602	0.321032	0.678995
Zn7	Zn	0.611550	-0.254075	0.254083
Zn8	Zn	1.111550	0.245925	0.754083
O9	O	0.649131	-0.216528	0.216549
O10	O	1.149131	0.283472	0.716549
O11	O	0.749578	-0.188952	0.244176
O12	O	1.249578	0.311048	0.744176
O13	O	0.676690	-0.244127	0.116128
O14	O	1.176690	0.255873	0.616128
O15	O	0.621617	-0.116102	0.188978
O16	O	1.121617	0.383898	0.688978
O17	O	0.749528	-0.244137	0.188979
O18	O	1.249528	0.255863	0.688979
O19	O	0.676805	-0.116109	0.244176
O20	O	1.176805	0.383891	0.744176
O21	O	0.621551	-0.188935	0.116127
O22	O	1.121551	0.311065	0.616127
O23	O	0.548728	-0.188921	0.188938
O24	O	1.048728	0.311079	0.688938
O25	O	0.621528	-0.244111	0.316956
O26	O	1.121528	0.255889	0.816956
O27	O	0.548690	-0.244101	0.244105
O28	O	1.048690	0.255899	0.744105
O29	O	0.676755	-0.188937	0.316987
O30	O	1.176755	0.311063	0.816987
O31	O	0.676639	-0.316955	0.188938
O32	O	1.176639	0.183045	0.688938
O33	O	0.621462	-0.316944	0.244105
O34	O	1.121462	0.183056	0.744105
C35	C	0.532408	-0.216509	0.216517
C36	C	1.032408	0.283491	0.716517
C37	C	0.482474	-0.216511	0.216514
C38	C	0.982474	0.283489	0.716514
C39	C	0.172820	-0.245303	0.245240
C40	C	0.672820	0.254697	0.745240
C41	C	-0.014853	-0.245315	0.245260
C42	C	0.485147	0.254685	0.745260
O43	O	-0.039127	-0.269774	0.269665
O44	O	0.460873	0.230226	0.769665
N45	N	-0.038311	-0.216544	0.216583
N46	N	0.461689	0.283456	0.716583
C47	C	-0.014848	-0.187766	0.187902
C48	C	0.485152	0.312234	0.687902
O49	O	-0.039107	-0.163291	0.163514
O50	O	0.460893	0.336709	0.663514
C51	C	0.172824	-0.187751	0.187884
C52	C	0.672824	0.312249	0.687884
C53	C	0.196280	-0.216527	0.216560
C54	C	0.696280	0.283473	0.716560
C55	C	0.196276	-0.274076	0.273913
C56	C	0.696276	0.225924	0.773913
C57	C	0.243191	-0.274075	0.273906
C58	C	0.743191	0.225925	0.773906
C59	C	0.266651	-0.245299	0.245226
C60	C	0.766651	0.254701	0.745226
C61	C	0.243195	-0.216526	0.216553
C62	C	0.743195	0.283474	0.716553
C63	C	0.196286	-0.158971	0.159205
C64	C	0.696286	0.341029	0.659205
C65	C	0.243207	-0.158969	0.159204
C66	C	0.743207	0.341031	0.659204
C67	C	0.266663	-0.187745	0.187880
C68	C	0.766663	0.312255	0.687880
C69	C	0.313570	-0.187749	0.187865
C70	C	0.813570	0.312251	0.687865
N71	N	0.337029	-0.216520	0.216542
N72	N	0.837029	0.283480	0.716542
C73	C	0.313569	-0.245295	0.245222
C74	C	0.813569	0.254705	0.745222
C75	C	-0.113379	-0.187776	0.187912
C76	C	0.386621	0.312224	0.687912
C77	C	-0.160297	-0.187780	0.187916
C78	C	0.339703	0.312220	0.687916
C79	C	-0.160298	-0.245329	0.245275
C80	C	0.339702	0.254671	0.745275
C81	C	-0.113380	-0.245327	0.245269
C82	C	0.386620	0.254673	0.745269
C83	C	-0.089921	-0.216547	0.216589
C84	C	0.410079	0.283453	0.716589
C85	C	0.412095	-0.245290	0.245205
C86	C	0.912095	0.254710	0.745205
C87	C	0.459014	-0.245287	0.245194
C88	C	0.959014	0.254713	0.745194
C89	C	0.459012	-0.187736	0.187837
C90	C	0.959012	0.312264	0.687837
C91	C	0.412096	-0.187740	0.187846
C92	C	0.912096	0.312260	0.687846
C93	C	0.388639	-0.216519	0.216534
C94	C	0.888639	0.283481	0.716534
O95	O	0.337873	-0.163299	0.163477
O96	O	0.837873	0.336701	0.663477
O97	O	0.337836	-0.269759	0.269613
O98	O	0.837836	0.230241	0.769613
C99	C	0.125905	-0.245304	0.245247
C100	C	0.625905	0.254696	0.745247
C101	C	0.102449	-0.216531	0.216574
C102	C	0.602449	0.283469	0.716574
C103	C	0.125909	-0.187755	0.187893
C104	C	0.625909	0.312245	0.687893
C105	C	0.055531	-0.216535	0.216577
C106	C	0.555531	0.283465	0.716577
C107	C	0.032071	-0.245310	0.245258
C108	C	0.532071	0.254690	0.745258
C109	C	0.055529	-0.274082	0.273934
C110	C	0.555529	0.225918	0.773934
C111	C	0.102445	-0.274080	0.273927
C112	C	0.602445	0.225920	0.773927
C113	C	0.102451	-0.158984	0.159217
C114	C	0.602451	0.341016	0.659217
C115	C	0.055535	-0.158989	0.159226
C116	C	0.555535	0.341011	0.659226
C117	C	0.032075	-0.187764	0.187906
C118	C	0.532075	0.312236	0.687906
C119	C	0.649050	-0.333250	0.216527
C120	C	1.149050	0.166750	0.716527
C121	C	0.649056	-0.383185	0.216533
C122	C	1.149056	0.116815	0.716533
C123	C	0.677914	-0.692821	0.187866
C124	C	1.177914	-0.192821	0.687866
C125	C	0.677969	-0.880494	0.187883
C126	C	1.177969	-0.380494	0.687883
O127	O	0.702441	-0.904753	0.163493
O128	O	1.202441	-0.404753	0.663493
N129	N	0.649224	-0.903970	0.216583
N130	N	1.149224	-0.403970	0.716583
C131	C	0.620465	-0.880524	0.245283
C132	C	1.120465	-0.380524	0.745283
O133	O	0.596020	-0.904798	0.269698
O134	O	1.096020	-0.404798	0.769698
C135	C	0.620412	-0.692852	0.245268
C136	C	1.120412	-0.192852	0.745268
C137	C	0.649156	-0.669379	0.216563
C138	C	1.149156	-0.169379	0.716563
C139	C	0.706656	-0.669348	0.159164
C140	C	1.206656	-0.169348	0.659164
C141	C	0.706640	-0.622433	0.159158
C142	C	1.206640	-0.122433	0.659158
C143	C	0.677882	-0.598990	0.187854
C144	C	1.177882	-0.098990	0.687854
C145	C	0.649140	-0.622463	0.216557
C146	C	1.149140	-0.122463	0.716557
C147	C	0.591656	-0.669407	0.273969
C148	C	1.091656	-0.169407	0.773969
C149	C	0.591646	-0.622486	0.273964
C150	C	1.091646	-0.122486	0.773964
C151	C	0.620390	-0.599013	0.245259
C152	C	1.120390	-0.099013	0.745259
C153	C	0.620367	-0.552106	0.245248
C154	C	1.120367	-0.052106	0.745248
N155	N	0.649112	-0.528630	0.216548
N156	N	1.149112	-0.028630	0.716548
C157	C	0.677869	-0.552072	0.187851
C158	C	1.177869	-0.052072	0.687851
C159	C	0.620494	-0.979055	0.245289
C160	C	1.120494	-0.479055	0.745289
C161	C	0.620507	-1.025973	0.245292
C162	C	1.120507	-0.525973	0.745292
C163	C	0.678012	-1.025939	0.187893
C164	C	1.178012	-0.525939	0.687893
C165	C	0.677996	-0.979021	0.187887
C166	C	1.177996	-0.479021	0.687887
C167	C	0.649239	-0.955579	0.216589
C168	C	1.149239	-0.455579	0.716589
C169	C	0.677834	-0.453547	0.187841
C170	C	1.177834	0.046453	0.687841
C171	C	0.677814	-0.406627	0.187836
C172	C	1.177814	0.093373	0.687836
C173	C	0.620311	-0.406664	0.245237
C174	C	1.120311	0.093336	0.745237
C175	C	0.620329	-0.453580	0.245240
C176	C	1.120329	0.046420	0.745240
C177	C	0.649094	-0.477020	0.216540
C178	C	1.149094	0.022980	0.716540
O179	O	0.595912	-0.527818	0.269629
O180	O	1.095912	-0.027818	0.769629
O181	O	0.702318	-0.527791	0.163447
O182	O	1.202318	-0.027791	0.663447
C183	C	0.677930	-0.739737	0.187872
C184	C	1.177930	-0.239737	0.687872
C185	C	0.649188	-0.763210	0.216574
C186	C	1.149188	-0.263210	0.716574
C187	C	0.620430	-0.739767	0.245271
C188	C	1.120430	-0.239767	0.745271
C189	C	0.649200	-0.810128	0.216578
C190	C	1.149200	-0.310128	0.716578
C191	C	0.677958	-0.833570	0.187881
C192	C	1.177958	-0.333570	0.687881
C193	C	0.706703	-0.810094	0.159181
C194	C	1.206703	-0.310094	0.659181
C195	C	0.706687	-0.763179	0.159175
C196	C	1.206687	-0.263179	0.659175
C197	C	0.591685	-0.763243	0.273971
C198	C	1.091685	-0.263243	0.773971
C199	C	0.591703	-0.810158	0.273974
C200	C	1.091703	-0.310158	0.773974
C201	C	0.620461	-0.833601	0.245277
C202	C	1.120461	-0.333601	0.745277
C203	C	0.766309	-0.216547	0.216582
C204	C	1.266309	0.283453	0.716582
C205	C	0.816244	-0.216555	0.216596
C206	C	1.316244	0.283445	0.716596
C207	C	0.649143	-0.216524	0.333728
C208	C	1.149143	0.283476	0.833728
C209	C	0.649148	-0.216522	0.383662
C210	C	1.149148	0.283478	0.883662
C211	C	0.649225	-0.099349	0.216582
C212	C	1.149225	0.400651	0.716582
C213	C	0.649265	-0.049415	0.216595
C214	C	1.149265	0.450585	0.716595
C215	C	0.649145	-0.216499	0.099827
C216	C	1.149145	0.283501	0.599827
C217	C	0.649227	-0.216374	0.049893
C218	C	1.149227	0.283626	0.549893
C219	C	0.677935	-0.187718	0.693325
C220	C	1.177935	0.312282	1.193325
C221	C	0.677957	-0.187680	0.880998
C222	C	1.177957	0.312320	1.380998
O223	O	0.702399	-0.163232	0.905279
O224	O	1.202399	0.336768	1.405279
N225	N	0.649208	-0.216402	0.904448
N226	N	1.149208	0.283598	1.404448
C227	C	0.620449	-0.245133	0.880976
C228	C	1.120449	0.254867	1.380976
O229	O	0.595993	-0.269559	0.905228
O230	O	1.095993	0.230441	1.405228
C231	C	0.620424	-0.245169	0.693304
C232	C	1.120424	0.254831	1.193304
C233	C	0.649179	-0.216448	0.669857
C234	C	1.149179	0.283552	1.169857
C235	C	0.706687	-0.158999	0.669877
C236	C	1.206687	0.341001	1.169877
C237	C	0.706683	-0.159011	0.622962
C238	C	1.206683	0.340989	1.122962
C239	C	0.677927	-0.187741	0.599494
C240	C	1.177927	0.312259	1.099494
C241	C	0.649175	-0.216460	0.622941
C242	C	1.149175	0.283540	1.122941
C243	C	0.591663	-0.273898	0.669833
C244	C	1.091663	0.226102	1.169833
C245	C	0.591659	-0.273903	0.622912
C246	C	1.091659	0.226097	1.122912
C247	C	0.620414	-0.245183	0.599465
C248	C	1.120414	0.254817	1.099465
C249	C	0.620415	-0.245202	0.552558
C250	C	1.120415	0.254798	1.052558
N251	N	0.649164	-0.216480	0.529108
N252	N	1.149164	0.283520	1.029108
C253	C	0.677920	-0.187749	0.552576
C254	C	1.177920	0.312251	1.052576
C255	C	0.620464	-0.245113	0.979507
C256	C	1.120464	0.254887	1.479507
C257	C	0.620471	-0.245105	1.026425
C258	C	1.120471	0.254895	1.526425
C259	C	0.677979	-0.187650	1.026443
C260	C	1.177979	0.312350	1.526443
C261	C	0.677974	-0.187661	0.979524
C262	C	1.177974	0.312339	1.479524
C263	C	0.649214	-0.216391	0.956057
C264	C	1.149214	0.283609	1.456057
C265	C	0.677910	-0.187776	0.454050
C266	C	1.177910	0.312224	0.954050
C267	C	0.677904	-0.187792	0.407130
C268	C	1.177904	0.312208	0.907130
C269	C	0.620395	-0.245244	0.407116
C270	C	1.120395	0.254756	0.907116
C271	C	0.620401	-0.245230	0.454032
C272	C	1.120401	0.254770	0.954032
C273	C	0.649161	-0.216493	0.477497
C274	C	1.149161	0.283507	0.977497
O275	O	0.595982	-0.269633	0.528248
O276	O	1.095982	0.230367	1.028248
O277	O	0.702366	-0.163320	0.528316
O278	O	1.202366	0.336680	1.028316
C279	C	0.677939	-0.187706	0.740240
C280	C	1.177939	0.312294	1.240240
C281	C	0.649187	-0.216425	0.763688
C282	C	1.149187	0.283575	1.263688
C283	C	0.620431	-0.245155	0.740219
C284	C	1.120431	0.254845	1.240219
C285	C	0.649194	-0.216417	0.810605
C286	C	1.149194	0.283583	1.310605
C287	C	0.677950	-0.187686	0.834074
C288	C	1.177950	0.312314	1.334074
C289	C	0.706699	-0.158964	0.810624
C290	C	1.206699	0.341036	1.310624
C291	C	0.706695	-0.158976	0.763708
C292	C	1.206695	0.341024	1.263708
C293	C	0.591682	-0.273877	0.763669
C294	C	1.091682	0.226123	1.263669
C295	C	0.591689	-0.273864	0.810585
C296	C	1.091689	0.226136	1.310585
C297	C	0.620445	-0.245133	0.834053
C298	C	1.120445	0.254867	1.334053
H299	H	0.121547	-0.135551	0.135861
H300	H	0.621547	0.364449	0.635861
H301	H	0.036441	-0.135556	0.135871
H302	H	0.536441	0.364444	0.635871
H303	H	-0.179407	-0.268759	0.268628
H304	H	0.320593	0.231241	0.768628
H305	H	0.568274	-0.297256	0.829671
H306	H	1.068274	0.202744	1.329671
O307	O	-0.090577	-0.273325	0.273062
O308	O	0.409423	0.226675	0.773062
C309	C	-0.037618	-0.333968	0.279000
C310	C	0.462382	0.166032	0.779000
C311	C	-0.063419	-0.302295	0.247470
C312	C	0.436581	0.197705	0.747470
H313	H	-0.015648	-0.357392	0.258322
H314	H	0.484352	0.142608	0.758322
H315	H	-0.062429	-0.354567	0.299489
H316	H	0.437571	0.145433	0.799489
H317	H	-0.015652	-0.313367	0.302538
H318	H	0.484348	0.186633	0.802538
H319	H	-0.085385	-0.322862	0.223905
H320	H	0.414615	0.177138	0.723905
H321	H	-0.038583	-0.281695	0.227013
H322	H	0.461417	0.218305	0.727013
H323	H	0.568229	-0.603402	0.297337
H324	H	1.068229	-0.103402	0.797337
H325	H	0.568292	-0.829266	0.297349
H326	H	1.068292	-0.329266	0.797349
H327	H	0.730097	-0.135623	0.603875
H328	H	1.230097	0.364377	1.103875
O329	O	0.266045	-0.131075	0.131321
O330	O	0.766045	0.368925	0.631321
C331	C	0.318965	-0.124936	0.070650
C332	C	0.818965	0.375064	0.570650
C333	C	0.293139	-0.156573	0.102207
C334	C	0.793139	0.343427	0.602207
H335	H	0.340869	-0.145539	0.047098
H336	H	0.840869	0.354461	0.547098
H337	H	0.340986	-0.101483	0.091291
H338	H	0.840986	0.398517	0.591291
H339	H	0.294131	-0.104361	0.050178
H340	H	0.794131	0.395639	0.550178
H341	H	0.317941	-0.177177	0.122686
H342	H	0.817941	0.322823	0.622686
H343	H	0.271111	-0.179997	0.081541
H344	H	0.771111	0.320003	0.581541
H345	H	0.177197	-0.135539	0.135854
H346	H	0.677197	0.364461	0.635854
O347	O	0.705846	-0.159689	1.049263
O348	O	1.205846	0.340311	1.549263
C349	C	0.711926	-0.099044	1.102266
C350	C	1.211926	0.400956	1.602266
C351	C	0.680322	-0.130677	1.076441
C352	C	1.180322	0.369323	1.576441
H353	H	0.691303	-0.075585	1.124253
H354	H	1.191303	0.424415	1.624253
H355	H	0.732464	-0.078479	1.077471
H356	H	1.232464	0.421521	1.577471
H357	H	0.735414	-0.119674	1.124218
H358	H	1.235414	0.380326	1.624218
H359	H	0.656807	-0.110081	1.054489
H360	H	1.156807	0.389919	1.554489
H361	H	0.659815	-0.151243	1.101261
H362	H	1.159815	0.348757	1.601261
H363	H	0.596895	-0.387570	0.268600
H364	H	1.096895	0.112430	0.768600
O365	O	0.706023	-1.048653	0.160041
O366	O	1.206023	-0.548653	0.660041
C367	C	0.782478	-1.062933	0.138367
C368	C	1.282478	-0.562933	0.638367
C369	C	0.750797	-1.037181	0.169924
C370	C	1.250797	-0.537181	0.669924
H371	H	0.818684	-1.053675	0.146352
H372	H	1.318684	-0.553675	0.646352
H373	H	0.774661	-1.053719	0.102123
H374	H	1.274661	-0.553719	0.602123
H375	H	0.777541	-1.100499	0.143284
H376	H	1.277541	-0.600499	0.643284
H377	H	0.755716	-0.999609	0.165046
H378	H	1.255716	-0.499609	0.665046
H379	H	0.758622	-1.046433	0.206156
H380	H	1.258622	-0.546433	0.706156
O381	O	0.705869	-0.159925	0.476890
O382	O	1.205869	0.340075	0.976890
C383	C	0.766559	-0.153878	0.529850
C384	C	1.266559	0.346122	1.029850
C385	C	0.734914	-0.185466	0.504020
C386	C	1.234914	0.314534	1.004020
H387	H	0.790056	-0.174516	0.551784
H388	H	1.290056	0.325484	1.051784
H389	H	0.745983	-0.130382	0.551842
H390	H	1.245983	0.369618	1.051842
H391	H	0.787085	-0.133347	0.505018
H392	H	1.287085	0.366653	1.005018
H393	H	0.714381	-0.206027	0.528820
H394	H	1.214381	0.293973	1.028820
H395	H	0.755516	-0.208933	0.482021
H396	H	1.255516	0.291067	0.982021
H397	H	0.701402	-0.959912	0.164514
H398	H	1.201402	-0.459912	0.664514
O399	O	0.705780	-0.383895	0.159937
O400	O	1.205780	0.116105	0.659937
C401	C	0.762798	-0.388823	0.102986
C402	C	1.262798	0.111177	0.602986
C403	C	0.731158	-0.414620	0.134564
C404	C	1.231158	0.085380	0.634564
H405	H	0.783318	-0.413652	0.082457
H406	H	1.283318	0.086348	0.582457
H407	H	0.786298	-0.366838	0.123612
H408	H	1.286298	0.133162	0.623612
H409	H	0.742176	-0.366875	0.079488
H410	H	1.242176	0.133125	0.579488
H411	H	0.751745	-0.436592	0.158068
H412	H	1.251745	0.063408	0.658068
H413	H	0.707657	-0.436577	0.113910
H414	H	1.207657	0.063423	0.613910
H415	H	0.596925	-0.472692	0.268615
H416	H	1.096925	0.027308	0.768615
H417	H	0.392998	-0.164309	0.164496
H418	H	0.892998	0.335691	0.664496
O419	O	0.592597	-1.048841	0.273131
O420	O	1.092597	-0.548841	0.773131
C421	C	0.567148	-1.121129	0.298605
C422	C	1.067148	-0.621129	0.798605
C423	C	0.598770	-1.095289	0.267043
C424	C	1.098770	-0.595289	0.767043
H425	H	0.572135	-1.158687	0.293701
H426	H	1.072135	-0.658687	0.793701
H427	H	0.530916	-1.111973	0.290676
H428	H	1.030916	-0.611973	0.790676
H429	H	0.575007	-1.111853	0.334832
H430	H	1.075007	-0.611853	0.834832
H431	H	0.590951	-1.104552	0.230806
H432	H	1.090951	-0.604552	0.730806
H433	H	0.634992	-1.104448	0.275011
H434	H	1.134992	-0.604448	0.775011
H435	H	0.701258	-0.472626	0.164472
H436	H	1.201258	0.027374	0.664472
O437	O	0.481875	-0.159798	0.160022
O438	O	0.981875	0.340202	0.660022
C439	C	0.554161	-0.134309	0.134585
C440	C	1.054161	0.365691	0.634585
C441	C	0.528324	-0.165967	0.166113
C442	C	1.028324	0.334033	0.666113
H443	H	0.591719	-0.139293	0.139493
H444	H	1.091719	0.360707	0.639493
H445	H	0.544996	-0.098087	0.142546
H446	H	1.044996	0.401913	0.642546
H447	H	0.544890	-0.142134	0.098350
H448	H	1.044890	0.357866	0.598350
H449	H	0.537580	-0.158183	0.202359
H450	H	1.037580	0.341817	0.702359
H451	H	0.537491	-0.202180	0.158114
H452	H	1.037491	0.297820	0.658114
O453	O	0.125157	-0.302046	0.301827
O454	O	0.625157	0.197954	0.801827
C455	C	0.120186	-0.359145	0.358701
C456	C	0.620186	0.140855	0.858701
C457	C	0.094413	-0.327488	0.327132
C458	C	0.594413	0.172512	0.827132
H459	H	0.095341	-0.379730	0.379161
H460	H	0.595341	0.120270	0.879161
H461	H	0.142162	-0.338577	0.382259
H462	H	0.642162	0.161423	0.882259
H463	H	0.142140	-0.382586	0.338026
H464	H	0.642140	0.117414	0.838026
H465	H	0.072434	-0.304040	0.347770
H466	H	0.572434	0.195960	0.847770
H467	H	0.072465	-0.348084	0.303572
H468	H	0.572465	0.151916	0.803572
H469	H	0.262285	-0.297506	0.297258
H470	H	0.762285	0.202494	0.797258
O471	O	0.592512	-0.956356	0.273182
O472	O	1.092512	-0.456356	0.773182
C473	C	0.535491	-0.961353	0.330127
C474	C	1.035491	-0.461353	0.830127
C475	C	0.567153	-0.987112	0.298557
C476	C	1.067153	-0.487112	0.798557
H477	H	0.514986	-0.986207	0.350658
H478	H	1.014986	-0.486207	0.850658
H479	H	0.511977	-0.939431	0.309495
H480	H	1.011977	-0.439431	0.809495
H481	H	0.556095	-0.939346	0.353624
H482	H	1.056095	-0.439346	0.853624
H483	H	0.546585	-1.009143	0.275054
H484	H	1.046585	-0.509143	0.775054
H485	H	0.590667	-1.009006	0.319217
H486	H	1.090667	-0.509006	0.819217
O487	O	0.734501	-0.599615	0.131229
O488	O	1.234501	-0.099615	0.631229
C489	C	0.740589	-0.546651	0.070588
C490	C	1.240589	-0.046651	0.570588
C491	C	0.708981	-0.572466	0.102183
C492	C	1.208981	-0.072466	0.602183
H493	H	0.719969	-0.524687	0.047103
H494	H	1.219969	-0.024687	0.547103
H495	H	0.761135	-0.571452	0.050050
H496	H	1.261135	-0.071452	0.550050
H497	H	0.764070	-0.524677	0.091246
H498	H	1.264070	-0.024677	0.591246
H499	H	0.685473	-0.594441	0.081559
H500	H	1.185473	-0.094441	0.581559
H501	H	0.688466	-0.547640	0.122722
H502	H	1.188466	-0.047640	0.622722
H503	H	0.036420	-0.297513	0.297286
H504	H	0.536420	0.202487	0.797286
O505	O	0.734606	-0.692046	0.131242
O506	O	1.234606	-0.192046	0.631242
C507	C	0.791654	-0.687046	0.074323
C508	C	1.291654	-0.187046	0.574323
C509	C	0.760016	-0.661289	0.105920
C510	C	1.260016	-0.161289	0.605920
H511	H	0.812213	-0.662190	0.053849
H512	H	1.312213	-0.162190	0.553849
H513	H	0.771073	-0.709025	0.050779
H514	H	1.271073	-0.209025	0.550779
H515	H	0.815121	-0.708996	0.094977
H516	H	1.315121	-0.208996	0.594977
H517	H	0.736542	-0.639315	0.085302
H518	H	1.236542	-0.139315	0.585302
H519	H	0.780625	-0.639339	0.129465
H520	H	1.280625	-0.139339	0.629465
O521	O	0.563721	-0.692132	0.301898
O522	O	1.063721	-0.192132	0.801898
C523	C	0.506673	-0.687193	0.358818
C524	C	1.006673	-0.187193	0.858818
C525	C	0.538295	-0.661402	0.327216
C526	C	1.038295	-0.161402	0.827216
H527	H	0.486100	-0.662359	0.379289
H528	H	0.986100	-0.162359	0.879289
H529	H	0.527267	-0.709116	0.382365
H530	H	1.027267	-0.209116	0.882365
H531	H	0.483217	-0.709202	0.338168
H532	H	0.983217	-0.209202	0.838168
H533	H	0.561756	-0.639369	0.347830
H534	H	1.061756	-0.139369	0.847830
H535	H	0.517673	-0.639508	0.303668
H536	H	1.017673	-0.139508	0.803668
O537	O	0.734636	-0.832940	0.131358
O538	O	1.234636	-0.332940	0.631358
C539	C	0.760144	-0.905212	0.105944
C540	C	1.260144	-0.405212	0.605944
C541	C	0.728488	-0.879393	0.137471
C542	C	1.228488	-0.379393	0.637471
H543	H	0.755178	-0.942773	0.110869
H544	H	1.255178	-0.442773	0.610869
H545	H	0.796365	-0.895978	0.113888
H546	H	1.296365	-0.395978	0.613888
H547	H	0.752300	-0.895995	0.069707
H548	H	1.252300	-0.395995	0.569707
H549	H	0.736291	-0.888596	0.173719
H550	H	1.236291	-0.388596	0.673719
H551	H	0.692276	-0.888629	0.129489
H552	H	1.192276	-0.388629	0.629489
H553	H	0.730093	-0.744071	0.135801
H554	H	1.230093	-0.244071	0.635801
H555	H	0.568268	-0.744160	0.297340
H556	H	1.068268	-0.244160	0.797340
O557	O	0.592500	-0.273022	1.049129
O558	O	1.092500	0.226978	1.549129
C559	C	0.535477	-0.330026	1.044146
C560	C	1.035477	0.169974	1.544146
C561	C	0.567127	-0.298427	1.018380
C562	C	1.067127	0.201573	1.518380
H563	H	0.514961	-0.350581	1.019296
H564	H	1.014961	0.149419	1.519296
H565	H	0.511973	-0.309416	1.066095
H566	H	1.011973	0.190584	1.566095
H567	H	0.556091	-0.353499	1.066126
H568	H	1.056091	0.146501	1.566126
H569	H	0.546548	-0.274948	0.996375
H570	H	1.046548	0.225052	1.496375
H571	H	0.590631	-0.319066	0.996459
H572	H	1.090631	0.180934	1.496459
H573	H	0.701321	-0.164403	0.388042
H574	H	1.201321	0.335597	0.888042
H575	H	0.478110	-0.268721	0.268545
H576	H	0.978110	0.231279	0.768545
O577	O	0.734666	-0.131075	0.692601
O578	O	1.234666	0.368925	1.192601
C579	C	0.791692	-0.074077	0.687651
C580	C	1.291692	0.425923	1.187651
C581	C	0.760030	-0.105685	0.661866
C582	C	1.260030	0.394315	1.161866
H583	H	0.812200	-0.053534	0.662814
H584	H	1.312200	0.446466	1.162814
H585	H	0.815202	-0.094681	0.709606
H586	H	1.315202	0.405319	1.209606
H587	H	0.771088	-0.050594	0.709629
H588	H	1.271088	0.449406	1.209629
H589	H	0.780598	-0.129174	0.639865
H590	H	1.280598	0.370826	1.139865
H591	H	0.736519	-0.085053	0.639940
H592	H	1.236519	0.414947	1.139940
O593	O	0.592517	-0.273219	0.384330
O594	O	1.092517	0.226781	0.884330
C595	C	0.570642	-0.349636	0.369965
C596	C	1.070642	0.150364	0.869965
C597	C	0.602247	-0.318007	0.395793
C598	C	1.102247	0.181993	0.895793
H599	H	0.578491	-0.385854	0.379230
H600	H	1.078491	0.114146	0.879230
H601	H	0.575589	-0.344743	0.332400
H602	H	1.075589	0.155257	0.832400
H603	H	0.534424	-0.341722	0.379165
H604	H	1.034424	0.158278	0.879165
H605	H	0.638477	-0.325902	0.386630
H606	H	1.138477	0.174098	0.886630
H607	H	0.597262	-0.322906	0.433352
H608	H	1.097262	0.177094	0.933352
O609	O	0.592588	-0.273048	0.956666
O610	O	1.092588	0.226952	1.456666
C611	C	0.586485	-0.333739	0.903717
C612	C	1.086485	0.166261	1.403717
C613	C	0.618103	-0.302122	0.929545
C614	C	1.118103	0.197878	1.429545
H615	H	0.607101	-0.357259	0.881791
H616	H	1.107101	0.142741	1.381791
H617	H	0.563010	-0.313143	0.881718
H618	H	1.063010	0.186857	1.381718
H619	H	0.565932	-0.354242	0.928551
H620	H	1.065932	0.145758	1.428551
H621	H	0.638684	-0.281612	0.904743
H622	H	1.138684	0.218388	1.404743
H623	H	0.641548	-0.322743	0.951550
H624	H	1.141548	0.177257	1.451550
O625	O	-0.183025	-0.159852	0.159991
O626	O	0.316975	0.340148	0.659991
C627	C	-0.197404	-0.137949	0.083608
C628	C	0.302596	0.362051	0.583608
C629	C	-0.171634	-0.169602	0.115183
C630	C	0.328366	0.330398	0.615183
H631	H	-0.188211	-0.145826	0.047374
H632	H	0.311789	0.354174	0.547374
H633	H	-0.188142	-0.101729	0.091526
H634	H	0.311858	0.398271	0.591526
H635	H	-0.234968	-0.142880	0.088552
H636	H	0.265032	0.357120	0.588552
H637	H	-0.134065	-0.164711	0.110257
H638	H	0.365935	0.335289	0.610257
H639	H	-0.180933	-0.205810	0.107258
H640	H	0.319067	0.294190	0.607258
O641	O	-0.090545	-0.159882	0.160026
O642	O	0.409455	0.340118	0.660026
C643	C	-0.037630	-0.153741	0.099350
C644	C	0.462370	0.346259	0.599350
C645	C	-0.063450	-0.185379	0.130913
C646	C	0.436550	0.314621	0.630913
H647	H	-0.015725	-0.174343	0.075799
H648	H	0.484275	0.325657	0.575799
H649	H	-0.015612	-0.130282	0.119987
H650	H	0.484388	0.369718	0.619987
H651	H	-0.062470	-0.133172	0.078878
H652	H	0.437530	0.366828	0.578878
H653	H	-0.038643	-0.205976	0.151392
H654	H	0.461357	0.294024	0.651392
H655	H	-0.085475	-0.208808	0.110251
H656	H	0.414525	0.291192	0.610251
O657	O	0.705918	-0.159718	0.956819
O658	O	1.205918	0.340282	1.456819
C659	C	0.762978	-0.102751	0.961802
C660	C	1.262978	0.397249	1.461802
C661	C	0.731347	-0.134369	0.987568
C662	C	1.231347	0.365631	1.487568
H663	H	0.783553	-0.082255	0.986652
H664	H	1.283553	0.417745	1.486652
H665	H	0.742391	-0.079228	0.939849
H666	H	1.242391	0.420772	1.439849
H667	H	0.786431	-0.123389	0.939826
H668	H	1.286431	0.376611	1.439826
H669	H	0.707888	-0.113767	1.009569
H670	H	1.207888	0.386233	1.509569
H671	H	0.751962	-0.157893	1.009494
H672	H	1.251962	0.342107	1.509494
H673	H	0.568248	-0.297285	0.688916
H674	H	1.068248	0.202715	1.188916
O675	O	0.563711	-0.301860	0.600186
O676	O	1.063711	0.198140	1.100186
C677	C	0.506660	-0.358834	0.605124
C678	C	1.006660	0.141166	1.105124
C679	C	0.538291	-0.327200	0.630915
C680	C	1.038291	0.172800	1.130915
H681	H	0.486093	-0.379322	0.629957
H682	H	0.986093	0.120678	1.129957
H683	H	0.527248	-0.382363	0.583179
H684	H	1.027248	0.117637	1.083179
H685	H	0.483201	-0.338209	0.583137
H686	H	0.983201	0.161791	1.083137
H687	H	0.561756	-0.347789	0.652926
H688	H	1.061756	0.152211	1.152926
H689	H	0.517675	-0.303669	0.652832
H690	H	1.017675	0.196331	1.152832
O691	O	0.592536	-0.273177	0.476833
O692	O	1.092536	0.226823	0.976833
C693	C	0.586436	-0.333792	0.529826
C694	C	1.086436	0.166208	1.029826
C695	C	0.618050	-0.302184	0.504027
C696	C	1.118050	0.197816	1.004027
H697	H	0.607051	-0.357245	0.551826
H698	H	1.107051	0.142755	1.051826
H699	H	0.565890	-0.354363	0.505014
H700	H	1.065890	0.145637	1.005014
H701	H	0.562955	-0.313142	0.551762
H702	H	1.062955	0.186858	1.051762
H703	H	0.641558	-0.322799	0.482091
H704	H	1.141558	0.177201	0.982091
H705	H	0.638565	-0.281611	0.528864
H706	H	1.138565	0.218389	1.028864
H707	H	0.177180	-0.297509	0.297271
H708	H	0.677180	0.202491	0.797271
O709	O	0.734568	-0.131006	0.833445
O710	O	1.234568	0.368994	1.333445
C711	C	0.740654	-0.070362	0.886450
C712	C	1.240654	0.429638	1.386450
C713	C	0.709047	-0.101990	0.860622
C714	C	1.209047	0.398010	1.360622
H715	H	0.720033	-0.046902	0.908436
H716	H	1.220033	0.453098	1.408436
H717	H	0.761197	-0.049800	0.861655
H718	H	1.261197	0.450200	1.361655
H719	H	0.764138	-0.090996	0.908402
H720	H	1.264138	0.409004	1.408402
H721	H	0.685536	-0.081391	0.838669
H722	H	1.185536	0.418609	1.338669
H723	H	0.688536	-0.122554	0.885441
H724	H	1.188536	0.377446	1.385441
H725	H	0.730110	-0.135588	0.744622
H726	H	1.230110	0.364412	1.244622
O727	O	0.563732	-0.301829	0.740945
O728	O	1.063732	0.198171	1.240945
C729	C	0.506673	-0.358795	0.745890
C730	C	1.006673	0.141205	1.245890
C731	C	0.538312	-0.327166	0.771677
C732	C	1.038312	0.172834	1.271677
H733	H	0.486106	-0.379280	0.770726
H734	H	0.986106	0.120720	1.270726
H735	H	0.527254	-0.382327	0.723941
H736	H	1.027254	0.117673	1.223941
H737	H	0.483214	-0.338165	0.723907
H738	H	0.983214	0.161835	1.223907
H739	H	0.561778	-0.347759	0.793685
H740	H	1.061778	0.152241	1.293685
H741	H	0.517703	-0.303632	0.793598
H742	H	1.017703	0.196368	1.293598
H743	H	0.393001	-0.268723	0.268566
H744	H	0.893001	0.231277	0.768566
