data_functionalizedCrystal
_audit_creation_method	'MofGen! by Chris Wilmer'
_symmetry_space_group_name_H-M	'P1'
_symmetry_Int_Tables_number	1
_symmetry_cell_setting	triclinic
loop_
_symmetry_equiv_pos_as_xyz
  x,y,z
_cell_length_a	16.109317
_cell_length_b	16.109298
_cell_length_c	14.586319
_cell_angle_alpha	90.001604
_cell_angle_beta	89.998916
_cell_angle_gamma	96.535799
loop_
_atom_site_label
_atom_site_type_symbol
_atom_site_fract_x
_atom_site_fract_y
_atom_site_fract_z
O1	O	-1.103121	0.106931	-0.076131
O2	O	-0.769788	0.440265	0.257202
O3	O	-0.436454	0.773598	0.590535
O4	O	-0.861061	0.120217	-0.076153
O5	O	-0.527727	0.453550	0.257180
O6	O	-0.194394	0.786883	0.590513
O7	O	-0.988742	-0.007457	-0.076148
O8	O	-0.655409	0.325877	0.257185
O9	O	-0.322075	0.659210	0.590518
O10	O	-0.975440	0.234605	-0.076137
O11	O	-0.642107	0.567938	0.257197
O12	O	-0.308773	0.901271	0.590530
O13	O	-0.988733	-0.007459	0.076332
O14	O	-0.655400	0.325875	0.409666
O15	O	-0.322066	0.659208	0.742999
O16	O	-0.861052	0.120215	0.076327
O17	O	-0.527719	0.453548	0.409661
O18	O	-0.194385	0.786881	0.742994
O19	O	-1.103112	0.106930	0.076349
O20	O	-0.769779	0.440263	0.409683
O21	O	-0.436445	0.773596	0.743016
Cu22	Cu	-0.982081	0.113572	0.090261
Cu23	Cu	-0.648748	0.446905	0.423594
Cu24	Cu	-0.315415	0.780239	0.756928
Cu25	Cu	-0.982092	0.113574	-0.090065
Cu26	Cu	-0.648758	0.446908	0.243268
Cu27	Cu	-0.315425	0.780241	0.576602
O28	O	-0.975431	0.234603	0.076344
O29	O	-0.642098	0.567936	0.409678
O30	O	-0.308764	0.901270	0.743011
C31	C	-0.830082	0.119675	0.000084
C32	C	-0.496748	0.453008	0.333417
C33	C	-0.163415	0.786342	0.666751
C34	C	-0.737787	0.118054	0.000075
C35	C	-0.404454	0.451388	0.333408
C36	C	-0.071120	0.784721	0.666742
C37	C	-0.438718	0.112821	-0.083032
C38	C	-0.105385	0.446155	0.250301
C39	C	0.227948	0.779488	0.583635
C40	C	-0.525439	0.114339	-0.083036
C41	C	-0.192106	0.447672	0.250297
C42	C	0.141227	0.781005	0.583631
C43	C	-0.525449	0.114325	0.083207
C44	C	-0.192115	0.447658	0.416540
C45	C	0.141218	0.780992	0.749874
C46	C	-0.438730	0.112802	0.083210
C47	C	-0.105396	0.446135	0.416543
C48	C	0.227937	0.779469	0.749877
C49	C	-0.395366	0.112054	0.000088
C50	C	-0.062033	0.445388	0.333421
C51	C	0.271301	0.778721	0.666754
C52	C	-0.568806	0.115095	0.000081
C53	C	-0.235473	0.448428	0.333414
C54	C	0.097860	0.781761	0.666748
C55	C	-0.662833	0.116740	0.000077
C56	C	-0.329500	0.450073	0.333411
C57	C	0.003833	0.783406	0.666744
C58	C	-0.301333	0.110408	0.000091
C59	C	0.032000	0.443741	0.333424
C60	C	0.365333	0.777074	0.666757
C61	C	-0.988199	-0.038433	0.000088
C62	C	-0.654866	0.294901	0.333422
C63	C	-0.321532	0.628234	0.666755
C64	C	-0.986585	-0.130728	0.000077
C65	C	-0.653252	0.202605	0.333411
C66	C	-0.319918	0.535938	0.666744
C67	C	-0.134091	0.107472	0.000105
C68	C	0.199242	0.440805	0.333438
C69	C	0.532576	0.774139	0.666772
C70	C	-0.226385	0.109095	0.000093
C71	C	0.106948	0.442428	0.333427
C72	C	0.440281	0.775761	0.666760
C73	C	-0.981323	-0.429796	-0.083021
C74	C	-0.647989	-0.096463	0.250312
C75	C	-0.314656	0.236870	0.583646
C76	C	-0.982850	-0.343076	-0.083028
C77	C	-0.649517	-0.009743	0.250306
C78	C	-0.316184	0.323590	0.583639
C79	C	-0.982853	-0.343064	0.083215
C80	C	-0.649519	-0.009731	0.416549
C81	C	-0.316186	0.323603	0.749882
C82	C	-0.981331	-0.429783	0.083221
C83	C	-0.647998	-0.096450	0.416554
C84	C	-0.314664	0.236884	0.749888
C85	C	-0.980562	-0.473147	0.000100
C86	C	-0.647228	-0.139813	0.333433
C87	C	-0.313895	0.193520	0.666767
C88	C	-0.983611	-0.299707	0.000088
C89	C	-0.650278	0.033626	0.333421
C90	C	-0.316945	0.366959	0.666755
C91	C	-0.985268	-0.205682	0.000082
C92	C	-0.651935	0.127652	0.333415
C93	C	-0.318601	0.460985	0.666748
C94	C	-0.978906	-0.567178	0.000106
C95	C	-0.645573	-0.233845	0.333439
C96	C	-0.312240	0.099488	0.666772
N97	N	-0.982080	0.113570	0.217093
N98	N	-0.648747	0.446903	0.550426
N99	N	-0.315413	0.780237	0.883759
C100	C	-0.975974	0.265579	0.000106
C101	C	-0.642640	0.598912	0.333439
C102	C	-0.309307	0.932245	0.666772
C103	C	-0.977588	0.357874	0.000110
C104	C	-0.644255	0.691208	0.333444
C105	C	-0.310921	1.024541	0.666777
N106	N	-0.982100	0.113570	-0.216897
N107	N	-0.648766	0.446903	0.116436
N108	N	-0.315433	0.780236	0.449770
C109	C	-1.038636	0.057055	0.452101
C110	C	-0.705302	0.390388	0.785435
C111	C	-0.371969	0.723722	1.118768
C112	C	-1.038638	0.057053	0.548083
C113	C	-0.705305	0.390386	0.881416
C114	C	-0.371972	0.723720	1.214749
C115	C	-0.925538	0.170087	0.548088
C116	C	-0.592204	0.503421	0.881421
C117	C	-0.258871	0.836754	1.214754
C118	C	-0.925532	0.170085	0.452108
C119	C	-0.592199	0.503418	0.785442
C120	C	-0.258865	0.836751	1.118775
C121	C	-0.982086	0.113569	0.404118
C122	C	-0.648752	0.446903	0.737451
C123	C	-0.315419	0.780236	1.070784
C124	C	-0.982094	0.113570	0.596078
C125	C	-0.648760	0.446903	0.929412
C126	C	-0.315427	0.780237	1.262745
C127	C	-0.982096	0.113568	0.700145
C128	C	-0.648763	0.446902	1.033479
C129	C	-0.315429	0.780235	1.366812
C130	C	-0.982083	0.113570	0.300044
C131	C	-0.648749	0.446903	0.633377
C132	C	-0.315416	0.780237	0.966710
H133	H	-0.403414	0.112212	-0.150716
H134	H	-0.070081	0.445545	0.182618
H135	H	0.263252	0.778878	0.515951
H136	H	-0.560766	0.114936	0.150882
H137	H	-0.227432	0.448269	0.484215
H138	H	0.105901	0.781602	0.817549
H139	H	-0.983478	-0.307747	0.150890
H140	H	-0.650144	0.025587	0.484223
H141	H	-0.316811	0.358920	0.817556
N142	N	-1.099618	-0.003900	0.400326
N143	N	-0.766285	0.329433	0.733660
N144	N	-0.432951	0.662767	1.066993
H145	H	-1.158623	0.005689	0.417022
H146	H	-0.825290	0.339022	0.750356
H147	H	-0.491956	0.672356	1.083689
H148	H	-1.089986	-0.062884	0.417048
H149	H	-0.756652	0.270449	0.750381
H150	H	-0.423319	0.603782	1.083714
H151	H	-0.403432	0.112177	0.150900
H152	H	-0.070098	0.445510	0.484233
H153	H	0.263235	0.778843	0.817567
H154	H	-0.980714	-0.465080	0.150912
H155	H	-0.647380	-0.131747	0.484245
H156	H	-0.314047	0.201586	0.817579
H157	H	-1.084685	0.011033	0.587149
H158	H	-0.751352	0.344366	0.920482
H159	H	-0.418019	0.677700	1.253815
N160	N	-0.980520	-0.476572	-0.172668
N161	N	-0.647187	-0.143239	0.160665
N162	N	-0.313853	0.190094	0.493999
H163	H	-0.981244	-0.435949	-0.225325
H164	H	-0.647910	-0.102616	0.108008
H165	H	-0.314577	0.230718	0.441341
H166	H	-1.031406	-0.519298	-0.176267
H167	H	-0.698072	-0.185965	0.157067
H168	H	-0.364739	0.147368	0.490400
H169	H	-0.983471	-0.307785	-0.150713
H170	H	-0.650138	0.025549	0.182620
H171	H	-0.316805	0.358882	0.515954
H172	H	-0.879478	0.216106	0.413037
H173	H	-0.546145	0.549439	0.746370
H174	H	-0.212811	0.882772	1.079704
N175	N	-0.864543	0.231041	0.599849
N176	N	-0.531210	0.564374	0.933182
N177	N	-0.197877	0.897707	1.266516
H178	H	-0.873128	0.222469	0.667933
H179	H	-0.539795	0.555802	1.001267
H180	H	-0.206461	0.889136	1.334600
H181	H	-0.874127	0.290025	0.583070
H182	H	-0.540794	0.623358	0.916404
H183	H	-0.207460	0.956692	1.249737
H184	H	-0.560733	0.114962	-0.150720
H185	H	-0.227400	0.448295	0.182613
H186	H	0.105934	0.781629	0.515946
