data_functionalizedCrystal
_audit_creation_method	'MofGen! by Chris Wilmer'
_symmetry_space_group_name_H-M	'P1'
_symmetry_Int_Tables_number	1
_symmetry_cell_setting	triclinic
loop_
_symmetry_equiv_pos_as_xyz
  x,y,z
_cell_length_a	8.497374
_cell_length_b	8.497374
_cell_length_c	16.625548
_cell_angle_alpha	89.995408
_cell_angle_beta	90.003948
_cell_angle_gamma	90.000926
loop_
_atom_site_label
_atom_site_type_symbol
_atom_site_fract_x
_atom_site_fract_y
_atom_site_fract_z
Zn1	Zn	0.892124	-0.628271	1.232706
Zn2	Zn	1.392124	-0.128271	1.732706
Zn3	Zn	0.628366	-0.892021	1.232714
Zn4	Zn	1.128366	-0.392021	1.732714
Zn5	Zn	0.628343	-0.628254	1.097907
Zn6	Zn	1.128343	-0.128254	1.597907
Zn7	Zn	0.892089	-0.892008	1.097904
Zn8	Zn	1.392089	-0.392008	1.597904
O9	O	0.760231	-0.760138	1.165308
O10	O	1.260231	-0.260138	1.665308
O11	O	0.857160	-0.663271	1.345539
O12	O	1.357160	-0.163271	1.845539
O13	O	0.407600	-0.857030	1.214836
O14	O	0.907600	-0.357030	1.714836
O15	O	0.663340	-0.407494	1.115786
O16	O	1.163340	0.092506	1.615786
O17	O	0.663378	-0.857047	1.345546
O18	O	1.163378	-0.357047	1.845546
O19	O	0.857139	-0.407507	1.214822
O20	O	1.357139	0.092493	1.714822
O21	O	0.407584	-0.663241	1.115794
O22	O	0.907584	-0.163241	1.615794
O23	O	0.663306	-0.663228	0.985074
O24	O	1.163306	-0.163228	1.485074
O25	O	1.112856	-0.857025	1.115781
O26	O	1.612856	-0.357025	1.615781
O27	O	0.857078	-0.857008	0.985072
O28	O	1.357078	-0.357008	1.485072
O29	O	1.112882	-0.663259	1.214819
O30	O	1.612882	-0.163259	1.714819
O31	O	0.663343	-1.112782	1.214834
O32	O	1.163343	-0.612782	1.714834
O33	O	0.857100	-1.112772	1.115790
O34	O	1.357100	-0.612772	1.615790
C35	C	0.760186	-0.760116	0.955817
C36	C	1.260186	-0.260116	1.455817
C37	C	0.760205	-0.760144	0.866196
C38	C	1.260205	-0.260144	1.366196
C39	C	1.350351	-0.760164	1.165312
C40	C	1.850351	-0.260164	1.665312
C41	C	1.171707	-0.760156	1.165304
C42	C	1.671707	-0.260156	1.665304
C43	C	0.760225	-0.170018	1.165305
C44	C	1.260225	0.329982	1.665305
C45	C	0.760234	-0.348662	1.165309
C46	C	1.260234	0.151338	1.665309
C47	C	0.760272	-0.760155	0.538020
C48	C	1.260272	-0.260155	1.038020
C49	C	0.760249	-0.760147	0.629329
C50	C	1.260249	-0.260147	1.129329
C51	C	0.760237	-0.760150	0.702105
C52	C	1.260237	-0.260150	1.202105
C53	C	0.760216	-0.760141	0.793419
C54	C	1.260216	-0.260141	1.293419
C55	C	0.760276	-0.760162	1.375617
C56	C	1.260276	-0.260162	1.875617
C57	C	0.760295	-0.760172	1.465238
C58	C	1.260295	-0.260172	1.965238
