data_functionalizedCrystal
_audit_creation_method	'MofGen! by Chris Wilmer'
_symmetry_space_group_name_H-M	'P1'
_symmetry_Int_Tables_number	1
_symmetry_cell_setting	triclinic
loop_
_symmetry_equiv_pos_as_xyz
  x,y,z
_cell_length_a	16.974800
_cell_length_b	10.540510
_cell_length_c	16.053802
_cell_angle_alpha	92.593693
_cell_angle_beta	91.074188
_cell_angle_gamma	83.950335
loop_
_atom_site_label
_atom_site_type_symbol
_atom_site_fract_x
_atom_site_fract_y
_atom_site_fract_z
O1	O	1.049977	0.161814	0.001547
O2	O	0.820624	0.181246	-0.013957
O3	O	0.940545	-0.013238	-0.005850
O4	O	0.930056	0.356298	-0.006560
O5	O	0.933944	-0.002577	0.132562
O6	O	0.814023	0.191907	0.124455
O7	O	1.043376	0.172475	0.139959
Zn8	Zn	0.927651	0.183883	0.154183
Zn9	Zn	0.936348	0.169837	-0.028181
O10	O	0.923455	0.366958	0.131853
C11	C	0.787955	0.185642	0.053264
C12	C	0.700447	0.182843	0.047348
C13	C	0.655741	0.187336	0.120020
C14	C	0.573520	0.184686	0.114464
C15	C	0.536004	0.177552	0.036236
C16	C	0.580715	0.173054	-0.036441
C17	C	0.662936	0.175695	-0.030885
C18	C	0.290486	0.169021	0.011526
C19	C	0.208258	0.166384	0.005975
C20	C	0.201069	0.178013	0.156881
C21	C	0.283291	0.180662	0.162431
C22	C	0.327996	0.176157	0.089754
N23	N	0.451960	0.174847	0.030555
N24	N	0.412039	0.178853	0.095436
C25	C	0.936463	-0.055202	0.063301
C26	C	0.934125	-0.196126	0.063138
C27	C	1.017419	-0.414493	0.069087
C28	C	1.019928	-0.267950	0.068939
C29	C	0.893971	-0.246479	-0.018870
C30	C	0.892087	-0.393224	-0.019059
C31	C	0.882793	-0.380889	0.138221
C32	C	0.886814	-0.234514	0.139537
C33	C	1.076045	0.168078	0.072736
C34	C	1.163553	0.170877	0.078647
C35	C	0.927537	0.408923	0.062699
C36	C	0.929875	0.549846	0.062857
N37	N	0.921721	0.193468	0.278643
N38	N	0.942284	0.160242	-0.152640
C39	C	0.972767	0.110745	0.325787
C40	C	0.968627	0.117462	0.412914
C41	C	0.913443	0.206910	0.452895
C42	C	0.862392	0.289637	0.405744
C43	C	0.866530	0.282913	0.318619
C44	C	0.895371	0.236245	0.713083
C45	C	0.891239	0.242966	0.800215
C46	C	0.997472	0.070788	0.807379
C47	C	1.001608	0.064077	0.720252
C48	C	0.950554	0.146800	0.673108
N49	N	0.909211	0.213780	0.541953
N50	N	0.954783	0.139922	0.584052
H51	H	1.051593	-0.234628	0.127919
H52	H	0.924922	-0.438327	-0.076113
N53	N	0.696200	0.195024	0.204397
H54	H	0.755070	0.196018	0.196893
H55	H	0.674300	0.275721	0.235971
N56	N	0.802871	0.386104	0.448868
H57	H	0.831582	0.445231	0.487060
H58	H	0.771174	0.437398	0.405730
N59	N	0.525299	0.189527	0.192843
H60	H	0.561605	0.193554	0.243248
H61	H	0.485442	0.267783	0.193699
H62	H	0.164662	0.181678	0.216050
N63	N	0.711159	0.170840	-0.109265
H64	H	0.674918	0.165920	-0.159666
H65	H	0.739477	0.250300	-0.110653
N66	N	0.831723	0.339444	0.843349
H67	H	0.842015	0.428409	0.828824
H68	H	0.776448	0.323306	0.824411
N69	N	0.811470	0.372128	0.267765
H70	H	0.775883	0.429815	0.306311
H71	H	0.843665	0.425589	0.233661
N72	N	0.803524	-0.168137	0.140232
H73	H	0.805500	-0.072611	0.143894
H74	H	0.774722	-0.192799	0.087297
H75	H	0.853802	0.303604	0.674705
H76	H	0.177716	0.160578	-0.057731
H77	H	1.010191	0.050101	0.451299
H78	H	0.818346	-0.402275	0.134399
N79	N	0.338698	0.164153	-0.066857
H80	H	0.302453	0.159235	-0.117255
H81	H	0.367019	0.243611	-0.068249
H82	H	1.046543	-0.008758	0.687702
H83	H	0.313831	0.186465	0.226132
N84	N	1.058123	-0.464766	0.147165
H85	H	1.020215	-0.511152	0.179256
H86	H	1.106061	-0.525581	0.131426
H87	H	0.828082	-0.415774	-0.026978
N88	N	1.065012	-0.478363	-0.002589
H89	H	1.030111	-0.530296	-0.039078
H90	H	1.085897	-0.411123	-0.036527
H91	H	1.057202	-0.244304	0.014520
H92	H	0.550164	0.167237	-0.100136
H93	H	0.830944	-0.198608	-0.026079
N94	N	1.052534	-0.018430	0.858226
H95	H	1.041542	-0.000603	0.919486
H96	H	1.043655	-0.109698	0.842356
H97	H	0.907204	-0.418763	0.199976
H98	H	0.915985	-0.201757	0.200169
N99	N	0.938088	-0.212074	-0.094058
H100	H	0.984083	-0.163896	-0.075179
H101	H	0.958560	-0.292638	-0.126649
H102	H	1.017706	0.037913	0.293241
