data_functionalizedCrystal
_audit_creation_method	'MofGen! by Chris Wilmer'
_symmetry_space_group_name_H-M	'P1'
_symmetry_Int_Tables_number	1
_symmetry_cell_setting	triclinic
loop_
_symmetry_equiv_pos_as_xyz
  x,y,z
_cell_length_a	14.853566
_cell_length_b	13.930277
_cell_length_c	14.853567
_cell_angle_alpha	90.000757
_cell_angle_beta	96.365328
_cell_angle_gamma	89.995631
loop_
_atom_site_label
_atom_site_type_symbol
_atom_site_fract_x
_atom_site_fract_y
_atom_site_fract_z
O1	O	1.196369	-0.079759	-0.117698
O2	O	0.933909	-0.079774	-0.131721
O3	O	1.072150	-0.079769	0.006520
O4	O	1.058129	-0.079764	-0.255939
O5	O	1.072131	0.079893	0.006523
O6	O	0.933890	0.079888	-0.131718
O7	O	1.196350	0.079903	-0.117695
Zn8	Zn	1.065117	0.105245	-0.124706
Zn9	Zn	1.065142	-0.105116	-0.124710
O10	O	1.058109	0.079898	-0.255936
C11	C	0.900311	0.000055	-0.131084
C12	C	0.800227	0.000049	-0.129181
C13	C	0.377053	-0.086966	-0.121132
C14	C	0.377053	0.087103	-0.121129
C15	C	0.471087	0.087101	-0.122916
C16	C	0.518108	0.000063	-0.123813
C17	C	0.471095	-0.086972	-0.122922
C18	C	0.518106	0.174134	-0.123817
C19	C	0.612146	0.174134	-0.125605
C20	C	0.659170	0.087095	-0.126495
C21	C	0.612151	0.000057	-0.125603
C22	C	0.659172	-0.086980	-0.126499
C23	C	0.612156	-0.174019	-0.125601
C24	C	0.518119	-0.174010	-0.123812
C25	C	0.753206	0.087086	-0.128284
C26	C	0.753214	-0.086986	-0.128290
C27	C	1.071505	0.000059	0.040111
C28	C	1.069601	0.000051	0.140194
C29	C	1.229948	0.000072	-0.118332
C30	C	1.330032	0.000071	-0.120235
N31	N	1.065106	0.248811	-0.124703
N32	N	1.065160	-0.248682	-0.124706
C33	C	1.003927	0.701078	-0.185899
C34	C	1.126382	0.701052	-0.063514
C35	C	1.126372	0.600556	-0.063511
C36	C	1.065139	0.550317	-0.124704
C37	C	1.003916	0.600573	-0.185900
C38	C	1.187599	0.550292	-0.002322
C39	C	1.187592	0.449791	-0.002318
C40	C	1.126353	0.399549	-0.063507
C41	C	1.065128	0.449812	-0.124705
C42	C	1.003895	0.399572	-0.185898
C43	C	0.942664	0.449833	-0.247092
C44	C	0.942678	0.550332	-0.247089
C45	C	1.126339	0.299050	-0.063510
C46	C	1.003884	0.299067	-0.185899
C47	C	1.058754	0.000068	-0.289526
C48	C	1.060658	0.000070	-0.389610
C49	C	0.979435	0.000064	0.552728
C50	C	1.143668	0.000073	0.574009
C51	C	1.145458	0.000067	0.479976
C52	C	1.064236	0.000061	0.422313
C53	C	0.981223	0.000061	0.458685
C54	C	1.228470	0.000078	0.443597
C55	C	1.230263	0.000073	0.349558
C56	C	1.149040	0.000060	0.291894
C57	C	1.066023	0.000059	0.328271
C58	C	0.984801	0.000053	0.270608
C59	C	0.901784	0.000045	0.306984
C60	C	0.899999	0.000048	0.401021
C61	C	1.150824	0.000057	0.197856
C62	C	0.986588	0.000050	0.176566
H63	H	0.791482	0.157952	-0.129025
H64	H	1.297861	0.000079	0.319950
H65	H	0.920446	0.000041	0.129622
C66	C	0.325344	-0.182704	-0.120157
H67	H	0.366819	-0.234538	-0.120946
H68	H	0.281851	-0.186315	-0.171991
H69	H	0.295471	-0.186330	-0.066922
C70	C	0.325349	0.182836	-0.120024
H71	H	0.262615	0.170374	-0.118790
H72	H	0.333912	0.218683	-0.172808
H73	H	0.347616	0.218509	-0.067741
H74	H	0.892827	0.591260	-0.296912
H75	H	0.832411	0.000043	0.430646
H76	H	0.835653	0.000046	0.260023
H77	H	0.954017	0.258169	-0.235726
C78	C	1.233008	0.000080	0.637430
H79	H	1.282702	0.000086	0.602298
H80	H	1.235728	-0.055593	0.674561
H81	H	1.235717	0.055769	0.674551
H82	H	0.479814	0.244995	-0.123093
C83	C	0.888124	0.000059	0.592735
H84	H	0.898687	0.000066	0.656999
H85	H	0.854682	-0.055619	0.572948
H86	H	0.854674	0.055743	0.572950
C87	C	0.875313	0.394563	-0.314401
H88	H	0.884079	0.327513	-0.305632
H89	H	0.885172	0.411031	-0.374590
H90	H	0.815133	0.411036	-0.304492
C91	C	0.663861	0.269868	-0.126585
H92	H	0.726600	0.257402	-0.127783
H93	H	0.655254	0.305629	-0.073761
H94	H	0.641641	0.305630	-0.178830
C95	C	1.254945	0.605550	0.064990
H96	H	1.291413	0.561226	0.101430
H97	H	1.222468	0.644757	0.102577
H98	H	1.292516	0.644752	0.032489
C99	C	0.466401	-0.269744	-0.122851
H100	H	0.507871	-0.321583	-0.123639
H101	H	0.422916	-0.273343	-0.174692
H102	H	0.436518	-0.273373	-0.069623
H103	H	1.237447	0.408874	0.047510
H104	H	1.176241	0.741960	-0.013696
H105	H	1.294597	0.000091	0.490552
C106	C	1.242128	0.000069	0.157842
H107	H	1.231561	0.000071	0.093578
H108	H	1.275588	-0.055601	0.177630
H109	H	1.275561	0.055761	0.177622
H110	H	1.176196	0.258133	-0.013690
C111	C	0.936554	0.756354	-0.253186
H112	H	0.900076	0.712036	-0.289618
H113	H	0.969003	0.795570	-0.290785
H114	H	0.898997	0.795548	-0.220655
H115	H	0.791493	-0.157863	-0.129017
H116	H	0.650452	-0.244885	-0.126337
