data_functionalizedCrystal
_audit_creation_method	'MofGen! by Chris Wilmer'
_symmetry_space_group_name_H-M	'P1'
_symmetry_Int_Tables_number	1
_symmetry_cell_setting	triclinic
loop_
_symmetry_equiv_pos_as_xyz
  x,y,z
_cell_length_a	16.992694
_cell_length_b	9.016244
_cell_length_c	16.974813
_cell_angle_alpha	93.656802
_cell_angle_beta	87.024634
_cell_angle_gamma	90.001824
loop_
_atom_site_label
_atom_site_type_symbol
_atom_site_fract_x
_atom_site_fract_y
_atom_site_fract_z
O1	O	1.040215	0.143273	0.167646
O2	O	0.811932	0.143096	0.165807
O3	O	0.932437	0.129409	0.052025
O4	O	0.919710	0.156960	0.281427
O5	O	0.932419	-0.117272	0.052027
O6	O	0.811914	-0.103584	0.165808
O7	O	1.040197	-0.103407	0.167648
Cu8	Cu	0.926054	-0.126020	0.166728
Cu9	Cu	0.926075	0.165708	0.166726
O10	O	0.919692	-0.089720	0.281429
C11	C	0.782713	0.019477	0.163441
C12	C	0.695676	0.018647	0.156382
N13	N	0.926045	-0.331206	0.166729
C14	C	0.645363	0.026826	0.224497
C15	C	0.563583	0.026008	0.217859
C16	C	0.532119	0.017022	0.143105
C17	C	0.582439	0.008837	0.074985
C18	C	0.664217	0.009644	0.081623
C19	C	0.288551	0.013678	0.115590
C20	C	0.206766	0.012876	0.108957
C21	C	0.187916	0.030044	0.251832
C22	C	0.269697	0.030859	0.258464
C23	C	0.320009	0.022667	0.190344
N24	N	0.448527	0.016190	0.136318
N25	N	0.403599	0.023488	0.197131
C26	C	0.861389	-0.558944	0.227368
C27	C	0.861528	-0.387023	0.227616
C28	C	1.007836	-0.390775	0.189919
C29	C	1.007482	-0.562668	0.190354
C30	C	0.909726	-0.575833	0.082735
C31	C	0.907840	-0.403826	0.083172
C32	C	1.069416	0.020215	0.170013
C33	C	1.156453	0.021055	0.177072
C34	C	0.931944	0.002531	0.022537
C35	C	0.930491	-0.008012	-0.065331
N36	N	0.926090	0.370894	0.166719
C37	C	0.929820	0.121500	-0.106608
C38	C	0.928450	0.111590	-0.189170
C39	C	0.927757	-0.027834	-0.230453
C40	C	0.928426	-0.157355	-0.189170
C41	C	0.929790	-0.147443	-0.106610
C42	C	0.923671	-0.071896	-0.477371
C43	C	0.922309	-0.081798	-0.559938
C44	C	0.922332	0.187148	-0.559932
C45	C	0.923701	0.197047	-0.477370
C46	C	0.924365	0.067526	-0.436094
N47	N	0.926359	-0.037967	-0.314844
N48	N	0.925757	0.077661	-0.351704
C49	C	0.920185	0.037161	0.310917
C50	C	0.921638	0.047713	0.398785
H51	H	0.670974	0.034145	0.285370
O52	O	0.930524	-0.287133	-0.062087
H53	H	0.876850	-0.353075	-0.074267
O54	O	0.342810	0.004857	0.042120
H55	H	0.380513	-0.095740	0.041724
H56	H	0.181152	0.005559	0.048080
H57	H	0.522621	0.032671	0.273326
O58	O	0.972178	-0.636951	0.022836
H59	H	1.003675	-0.543570	-0.004337
O60	O	0.548509	-0.000861	-0.005646
H61	H	0.483190	-0.000035	0.001179
O62	O	0.303634	0.040514	0.339092
H63	H	0.254908	0.046042	0.385343
O64	O	0.718490	0.000827	0.008157
H65	H	0.682874	-0.005544	-0.044940
O66	O	0.133653	0.038849	0.325303
H67	H	0.071501	0.036761	0.308132
O68	O	0.927692	-0.307731	-0.233700
H69	H	0.873665	-0.318233	-0.267655
H70	H	0.800729	-0.346618	0.213037
O71	O	0.780594	-0.616064	0.208292
H72	H	0.785686	-0.695079	0.155382
O73	O	0.930559	0.271883	-0.062085
H74	H	0.983709	0.334023	-0.081607
O75	O	0.875022	-0.606297	0.309314
H76	H	0.927680	-0.679584	0.307035
H77	H	0.871964	-0.338407	0.289833
O78	O	1.026596	-0.606016	0.271694
H79	H	1.080915	-0.675056	0.267276
H80	H	1.022612	-0.340406	0.250659
H81	H	1.057126	-0.609322	0.148198
H82	H	0.924228	-0.177362	-0.443775
O83	O	0.921577	-0.232189	-0.604464
H84	H	0.920533	-0.217315	-0.668809
H85	H	0.927907	0.217052	-0.222774
H86	H	0.924266	0.310580	-0.443763
H87	H	0.847674	-0.365171	0.065693
H88	H	1.057124	-0.355018	0.147137
H89	H	0.851389	-0.621793	0.061719
H90	H	0.951906	-0.366580	0.035525
O91	O	0.921597	0.326843	-0.604447
H92	H	0.974383	0.328324	-0.645740
