data_functionalizedCrystal
_audit_creation_method	'MofGen! by Chris Wilmer'
_symmetry_space_group_name_H-M	'P1'
_symmetry_Int_Tables_number	1
_symmetry_cell_setting	triclinic
loop_
_symmetry_equiv_pos_as_xyz
  x,y,z
_cell_length_a	10.908878
_cell_length_b	9.065215
_cell_length_c	8.140239
_cell_angle_alpha	89.997810
_cell_angle_beta	89.997076
_cell_angle_gamma	72.549744
loop_
_atom_site_label
_atom_site_type_symbol
_atom_site_fract_x
_atom_site_fract_y
_atom_site_fract_z
O1	O	0.187732	1.911451	-0.136591
O2	O	0.203137	1.478150	-0.136598
O3	O	0.009170	1.752240	-0.136587
O4	O	0.381699	1.637361	-0.136601
O5	O	0.009168	1.752228	0.136640
O6	O	0.203134	1.478138	0.136629
O7	O	0.187730	1.911439	0.136636
Zn8	Zn	0.195432	1.694787	0.180014
Zn9	Zn	0.195435	1.694802	-0.179975
O10	O	0.381697	1.637349	0.136626
C11	C	0.201656	1.423543	0.000015
C12	C	0.197232	1.260853	0.000012
C13	C	-0.038548	1.762970	0.000025
C14	C	-0.180729	1.794942	0.000020
C15	C	-0.231093	1.678282	0.000015
C16	C	-0.378045	1.711324	0.000009
C17	C	0.429415	1.626619	0.000010
C18	C	0.571596	1.594647	0.000005
C19	C	0.189211	1.966046	0.000020
C20	C	0.193635	2.128736	0.000012
N21	N	0.195429	1.694787	0.425696
N22	N	0.195428	1.694816	-0.425658
H23	H	-0.165420	1.553942	0.000023
H24	H	-0.443714	1.835672	0.000017
Br25	Br	-0.318964	1.387386	0.000029
Br26	Br	-0.290177	2.002192	0.000039
