data_functionalizedCrystal
_audit_creation_method	'MofGen! by Chris Wilmer'
_symmetry_space_group_name_H-M	'P1'
_symmetry_Int_Tables_number	1
_symmetry_cell_setting	triclinic
loop_
_symmetry_equiv_pos_as_xyz
  x,y,z
_cell_length_a	16.109301
_cell_length_b	23.532407
_cell_length_c	14.586319
_cell_angle_alpha	89.991566
_cell_angle_beta	89.999213
_cell_angle_gamma	83.155079
loop_
_atom_site_label
_atom_site_type_symbol
_atom_site_fract_x
_atom_site_fract_y
_atom_site_fract_z
O1	O	1.102555	0.073202	-0.076192
O2	O	1.602555	0.573202	0.423808
O3	O	0.860422	0.082312	-0.076208
O4	O	1.360422	0.582312	0.423792
O5	O	0.988790	-0.005148	-0.076183
O6	O	1.488790	0.494852	0.423817
O7	O	0.974187	0.160662	-0.076217
O8	O	1.474187	0.660662	0.423783
O9	O	0.988781	-0.005149	0.076298
O10	O	1.488781	0.494851	0.576298
O11	O	0.860413	0.082311	0.076273
O12	O	1.360413	0.582311	0.576273
O13	O	1.102546	0.073201	0.076289
O14	O	1.602546	0.573201	0.576289
Cu15	Cu	0.981479	0.077756	0.090204
Cu16	Cu	1.481479	0.577756	0.590204
Cu17	Cu	0.981489	0.077757	-0.090123
Cu18	Cu	1.481489	0.577757	0.409877
O19	O	0.974178	0.160660	0.076264
O20	O	1.474178	0.660660	0.576264
C21	C	0.829445	0.081942	0.000031
C22	C	1.329445	0.581942	0.500031
C23	C	0.737159	0.080836	0.000026
C24	C	1.237159	0.580836	0.500026
C25	C	0.988414	-0.026366	0.000060
C26	C	1.488414	0.473634	0.500060
C27	C	0.987296	-0.089587	0.000067
C28	C	1.487296	0.410413	0.500067
C29	C	0.514498	0.130160	0.000026
C30	C	1.014498	0.630160	0.500026
C31	C	0.427786	0.129116	0.000032
C32	C	0.927786	0.629116	0.500032
C33	C	0.448476	0.025348	0.000050
C34	C	0.948476	0.525348	0.500050
C35	C	0.535187	0.026393	0.000050
C36	C	1.035187	0.526393	0.500050
C37	C	0.568195	0.078801	0.000034
C38	C	1.068195	0.578801	0.500034
C39	C	0.394773	0.076712	0.000039
C40	C	0.894773	0.576712	0.500039
C41	C	0.300755	0.075580	0.000046
C42	C	0.800755	0.575580	0.500046
C43	C	0.662218	0.079933	0.000029
C44	C	1.162218	0.579933	0.500029
C45	C	1.056249	-0.488436	0.000021
C46	C	1.556249	0.011564	0.500021
C47	C	1.055210	-0.547840	0.000014
C48	C	1.555210	-0.047840	0.500014
O49	O	1.119130	-0.584349	-0.000015
O50	O	1.619130	-0.084349	0.499985
N51	N	0.978895	-0.570748	0.000010
N52	N	1.478895	-0.070748	0.500010
C53	C	0.903614	-0.534248	0.000003
C54	C	1.403614	-0.034248	0.500003
O55	O	0.838607	-0.559187	-0.000002
O56	O	1.338607	-0.059187	0.499998
C57	C	0.904654	-0.474845	0.000004
C58	C	1.404654	0.025155	0.500004
C59	C	0.980973	-0.451941	0.000018
C60	C	1.480973	0.048059	0.500018
C61	C	1.132562	-0.465531	0.000034
C62	C	1.632562	0.034469	0.500034
C63	C	1.133601	-0.406131	0.000043
C64	C	1.633601	0.093869	0.500043
C65	C	1.058325	-0.369636	0.000039
C66	C	1.558325	0.130364	0.500039
C67	C	0.982012	-0.392541	0.000026
C68	C	1.482012	0.107459	0.500026
C69	C	0.829373	-0.438346	-0.000009
C70	C	1.329373	0.061654	0.499991
C71	C	0.830419	-0.378940	-0.000009
C72	C	1.330419	0.121060	0.499991
C73	C	0.906739	-0.356036	0.000004
C74	C	1.406739	0.143964	0.500004
C75	C	0.907774	-0.296645	0.000031
C76	C	1.407774	0.203355	0.500031
N77	N	0.984089	-0.273738	0.000035
N78	N	1.484089	0.226262	0.500035
C79	C	1.059365	-0.310233	0.000039
C80	C	1.559365	0.189767	0.500039
C81	C	0.901437	-0.658998	0.000001
C82	C	1.401437	-0.158998	0.500001
C83	C	0.900396	-0.718400	0.000007
C84	C	1.400396	-0.218400	0.500007
C85	C	1.051993	-0.731988	0.000016
C86	C	1.551993	-0.231988	0.500016
C87	C	1.053032	-0.672585	0.000017
C88	C	1.553032	-0.172585	0.500017
C89	C	0.977752	-0.636091	0.000005
C90	C	1.477752	-0.136091	0.500005
C91	C	1.061539	-0.185488	0.000058
C92	C	1.561539	0.314512	0.500058
C93	C	1.062571	-0.126082	0.000071
C94	C	1.562571	0.373918	0.500071
C95	C	0.910975	-0.112499	0.000057
C96	C	1.410975	0.387501	0.500057
C97	C	0.909943	-0.171900	0.000049
C98	C	1.409943	0.328100	0.500049
C99	C	0.985232	-0.208394	0.000047
C100	C	1.485232	0.291606	0.500047
O101	O	0.843888	-0.260102	0.000057
O102	O	1.343888	0.239898	0.500057
O103	O	1.124361	-0.285285	0.000032
O104	O	1.624361	0.214715	0.500032
C105	C	1.133523	0.073570	0.000048
C106	C	1.633523	0.573570	0.500048
C107	C	1.225809	0.074677	0.000047
C108	C	1.725809	0.574677	0.500047
C109	C	0.974554	0.181878	0.000019
C110	C	1.474554	0.681878	0.500019
C111	C	0.975672	0.245100	0.000006
C112	C	1.475672	0.745100	0.500006
N113	N	0.981477	0.077754	0.217035
N114	N	1.481477	0.577754	0.717035
N115	N	0.981497	0.077754	-0.216954
N116	N	1.481497	0.577754	0.283046
C117	C	1.038338	0.039040	0.452053
C118	C	1.538338	0.539040	0.952053
C119	C	1.038340	0.039039	0.548034
C120	C	1.538340	0.539039	1.048034
C121	C	0.924631	0.116470	0.548021
C122	C	1.424631	0.616470	1.048021
C123	C	0.924625	0.116468	0.452042
C124	C	1.424625	0.616468	0.952042
C125	C	0.981483	0.077754	0.404060
C126	C	1.481483	0.577754	0.904060
C127	C	0.981491	0.077754	0.596021
C128	C	1.481491	0.577754	1.096021
C129	C	0.981494	0.077753	0.700088
C130	C	1.481494	0.577753	1.200088
C131	C	0.981480	0.077754	0.299986
C132	C	1.481480	0.577754	0.799986
H133	H	0.541371	0.172834	0.000019
H134	H	1.041371	0.672834	0.500019
H135	H	1.084634	0.007516	0.412989
H136	H	1.584634	0.507516	0.912989
H137	H	0.384069	0.170939	0.000028
H138	H	0.884069	0.670939	0.500028
H139	H	0.878324	0.147994	0.412964
H140	H	1.378324	0.647994	0.912964
O141	O	0.869292	0.154020	0.594594
O142	O	1.369292	0.654020	1.094594
C143	C	0.787070	0.144754	0.571136
C144	C	1.287070	0.644754	1.071136
H145	H	0.787041	0.099157	0.544763
H146	H	1.287041	0.599157	1.044763
H147	H	0.745297	0.151296	0.634259
H148	H	1.245297	0.651296	1.134259
H149	H	0.762383	0.176315	0.515419
H150	H	1.262383	0.676315	1.015419
O151	O	0.837879	-0.077018	-0.000112
O152	O	1.337879	0.422982	0.499888
C153	C	0.833975	-0.042234	-0.079071
C154	C	1.333975	0.457766	0.420929
H155	H	0.876679	-0.063991	-0.134259
H156	H	1.376679	0.436009	0.365741
H157	H	0.766954	-0.035539	-0.105593
H158	H	1.266954	0.464461	0.394407
H159	H	0.855135	0.000956	-0.061211
H160	H	1.355135	0.500956	0.438789
H161	H	1.195748	-0.387488	0.000050
H162	H	1.695748	0.112512	0.500050
H163	H	0.578910	-0.015433	0.000059
H164	H	1.078910	0.484567	0.500059
H165	H	0.767225	-0.456984	-0.000026
H166	H	1.267225	0.043016	0.499974
O167	O	0.416271	-0.025508	0.000018
O168	O	0.916271	0.474492	0.500018
C169	C	0.328224	-0.015418	0.000036
C170	C	0.828224	0.484582	0.500036
H171	H	0.307491	0.029029	-0.028838
H172	H	0.807491	0.529029	0.471162
H173	H	0.301878	-0.048949	-0.044229
H174	H	0.801878	0.451051	0.455771
H175	H	0.304105	-0.018177	0.073189
H176	H	0.804105	0.481823	0.573189
O177	O	1.136785	-0.103929	0.000040
O178	O	1.636785	0.396071	0.500040
C179	C	1.202999	-0.148883	0.000061
C180	C	1.702999	0.351117	0.500061
H181	H	1.180035	-0.189230	-0.028814
H182	H	1.680035	0.310770	0.471186
H183	H	1.256315	-0.136469	-0.044204
H184	H	1.756315	0.363531	0.455796
H185	H	1.226191	-0.157301	0.073214
H186	H	1.726191	0.342699	0.573214
H187	H	1.122847	-0.215195	0.000053
H188	H	1.622847	0.284805	0.500053
H189	H	1.193864	-0.495240	0.000034
H190	H	1.693864	0.004760	0.500034
O191	O	1.127242	-0.650433	-0.000020
O192	O	1.627242	-0.150433	0.499980
C193	C	1.193453	-0.695390	0.000009
C194	C	1.693453	-0.195390	0.500009
H195	H	1.170485	-0.735738	-0.028856
H196	H	1.670485	-0.235738	0.471144
H197	H	1.246769	-0.682982	-0.044260
H198	H	1.746769	-0.182982	0.455740
H199	H	1.216645	-0.703802	0.073163
H200	H	1.716645	-0.203802	0.573163
O201	O	1.125042	-0.767527	-0.000032
O202	O	1.625042	-0.267527	0.499968
C203	C	1.107750	-0.824867	-0.000018
C204	C	1.607750	-0.324867	0.499982
H205	H	1.042464	-0.827129	-0.028883
H206	H	1.542464	-0.327129	0.471117
H207	H	1.155756	-0.851780	-0.044294
H208	H	1.655756	-0.351780	0.455706
H209	H	1.111048	-0.842058	0.073132
H210	H	1.611048	-0.342058	0.573132
O211	O	0.826186	-0.740551	-0.000037
O212	O	1.326186	-0.240551	0.499963
C213	C	0.759975	-0.695594	-0.000013
C214	C	1.259975	-0.195594	0.499987
H215	H	0.782946	-0.655240	-0.028873
H216	H	1.282946	-0.155240	0.471127
H217	H	0.706663	-0.707994	-0.044289
H218	H	1.206663	-0.207994	0.455711
H219	H	0.736777	-0.687196	0.073139
H220	H	1.236777	-0.187196	0.573139
H221	H	0.840130	-0.629287	-0.000001
H222	H	1.340130	-0.129287	0.499999
H223	H	0.769115	-0.349228	-0.000020
H224	H	1.269115	0.150772	0.499980
O225	O	1.093650	0.001411	0.594512
O226	O	1.593650	0.501411	1.094512
C227	C	1.143814	-0.032767	0.531577
C228	C	1.643814	0.467233	1.031577
H229	H	1.144556	-0.009416	0.463154
H230	H	1.644556	0.490584	0.963154
H231	H	1.210281	-0.041442	0.559305
H232	H	1.710281	0.458558	1.059305
H233	H	1.117172	-0.075080	0.521380
H234	H	1.617172	0.424920	1.021380
O235	O	0.835735	-0.194058	-0.000001
O236	O	1.335735	0.305942	0.499999
C237	C	0.769518	-0.149105	0.000024
C238	C	1.269518	0.350895	0.500024
H239	H	0.792486	-0.108747	-0.028825
H240	H	1.292486	0.391253	0.471175
H241	H	0.716212	-0.161505	-0.044261
H242	H	1.216212	0.338495	0.455739
H243	H	0.746313	-0.140713	0.073175
H244	H	1.246313	0.359287	0.573175
