data_functionalizedCrystal
_audit_creation_method	'MofGen! by Chris Wilmer'
_symmetry_space_group_name_H-M	'P1'
_symmetry_Int_Tables_number	1
_symmetry_cell_setting	triclinic
loop_
_symmetry_equiv_pos_as_xyz
  x,y,z
_cell_length_a	14.853569
_cell_length_b	14.853559
_cell_length_c	9.130313
_cell_angle_alpha	89.997672
_cell_angle_beta	89.998450
_cell_angle_gamma	83.633509
loop_
_atom_site_label
_atom_site_type_symbol
_atom_site_fract_x
_atom_site_fract_y
_atom_site_fract_z
O1	O	1.196359	0.117711	-0.121725
O2	O	0.933899	0.131731	-0.121742
O3	O	1.072144	-0.006509	-0.121731
O4	O	1.058114	0.255951	-0.121735
O5	O	1.072134	-0.006513	0.121867
O6	O	0.933890	0.131727	0.121857
O7	O	1.196350	0.117707	0.121874
Cu8	Cu	1.065119	0.124717	0.144108
Cu9	Cu	1.065130	0.124722	-0.143976
O10	O	1.058105	0.255947	0.121863
C11	C	0.900306	0.131094	0.000055
C12	C	0.800222	0.129189	0.000049
C13	C	0.763848	0.046178	0.000045
C14	C	0.742554	0.210411	0.000059
C15	C	0.648520	0.208625	0.000061
C16	C	0.612146	0.125614	0.000057
C17	C	0.669806	0.044389	0.000051
C18	C	0.590853	0.289848	0.000081
C19	C	0.496812	0.288065	0.000084
C20	C	0.460437	0.205053	0.000070
C21	C	0.518103	0.123825	0.000063
C22	C	0.481729	0.040813	0.000059
C23	C	0.539394	-0.040416	0.000041
C24	C	0.633430	-0.038623	0.000037
C25	C	0.366401	0.203260	0.000074
C26	C	0.387687	0.039024	0.000065
C27	C	1.071505	-0.040100	0.000065
C28	C	1.069604	-0.140184	0.000057
C29	C	1.061545	-0.563357	-0.132730
C30	C	1.061535	-0.563356	0.132851
C31	C	1.063328	-0.469323	0.132853
C32	C	1.064229	-0.422302	0.000061
C33	C	1.063336	-0.469315	-0.132732
C34	C	1.064212	-0.422302	0.265643
C35	C	1.066005	-0.328263	0.265650
C36	C	1.066912	-0.281241	0.132857
C37	C	1.066020	-0.328260	0.000058
C38	C	1.066920	-0.281239	-0.132733
C39	C	1.066035	-0.328257	-0.265534
C40	C	1.064243	-0.422293	-0.265526
C41	C	1.068703	-0.187205	0.132849
C42	C	1.068711	-0.187197	-0.132736
C43	C	1.229943	0.118345	0.000073
C44	C	1.330027	0.120249	0.000070
C45	C	1.058744	0.289538	0.000064
C46	C	1.060645	0.389622	0.000062
N47	N	1.065118	0.124713	0.346731
N48	N	1.065138	0.124718	-0.346599
C49	C	1.126353	0.063526	0.423387
C50	C	1.126361	0.063526	0.576724
C51	C	1.003897	0.185908	0.576734
C52	C	1.003884	0.185903	0.423400
H53	H	0.810803	-0.019956	0.000025
C54	C	0.696857	-0.127967	0.000017
H55	H	0.661729	-0.177663	-0.000002
H56	H	0.733986	-0.130690	0.084961
H57	H	0.733980	-0.130671	-0.084946
C58	C	1.193698	-0.003788	0.339055
H59	H	1.230162	-0.040234	0.406676
H60	H	1.231259	0.028707	0.279221
H61	H	1.161213	-0.041382	0.279259
H62	H	0.954043	0.235729	0.639174
C63	C	1.060548	-0.615076	0.278909
H64	H	1.059359	-0.677816	0.259892
H65	H	1.008312	-0.592855	0.333477
H66	H	1.113381	-0.606480	0.333463
C67	C	1.063214	-0.474019	0.411703
H68	H	1.063987	-0.432550	0.490791
H69	H	1.115046	-0.517514	0.417235
H70	H	1.009977	-0.503890	0.417207
H71	H	1.176224	0.013701	0.639133
H72	H	1.066729	-0.289989	0.373784
H73	H	1.069404	-0.148924	0.240972
H74	H	0.954015	0.235729	0.360982
H75	H	0.358079	-0.028574	0.000054
H76	H	0.509766	-0.108003	0.000029
H77	H	0.772176	0.277995	0.000072
C78	C	1.067027	-0.276528	-0.411595
H79	H	1.068224	-0.213791	-0.392568
H80	H	1.014209	-0.285127	-0.466170
H81	H	1.119278	-0.298743	-0.466147
H82	H	0.449869	0.354207	0.000096
C83	C	0.630860	0.381153	0.000077
H84	H	0.583052	0.429272	0.000099
H85	H	0.667097	0.385266	-0.084878
H86	H	0.667107	0.385259	0.085029
C87	C	0.302971	0.292597	0.000099
H88	H	0.241756	0.279644	0.000109
H89	H	0.314007	0.326642	-0.084839
H90	H	0.314009	0.326618	0.085068
C91	C	1.060568	-0.615070	-0.278798
H92	H	1.059368	-0.677809	-0.259786
H93	H	1.113393	-0.606465	-0.333359
H94	H	1.008323	-0.592846	-0.333356
C95	C	1.069706	-0.135477	-0.278806
H96	H	1.070905	-0.072739	-0.259794
H97	H	1.016888	-0.144079	-0.333380
H98	H	1.121957	-0.157700	-0.333352
H99	H	1.063522	-0.460583	-0.373644
