data_functionalizedCrystal
_audit_creation_method	'MofGen! by Chris Wilmer'
_symmetry_space_group_name_H-M	'P1'
_symmetry_Int_Tables_number	1
_symmetry_cell_setting	triclinic
loop_
_symmetry_equiv_pos_as_xyz
  x,y,z
_cell_length_a	18.101398
_cell_length_b	19.121063
_cell_length_c	18.101389
_cell_angle_alpha	92.419391
_cell_angle_beta	89.975673
_cell_angle_gamma	92.464489
loop_
_atom_site_label
_atom_site_type_symbol
_atom_site_fract_x
_atom_site_fract_y
_atom_site_fract_z
Zn1	Zn	1.119554	-0.279777	-0.431404
Zn2	Zn	1.452887	0.053556	-0.098071
Zn3	Zn	1.786221	0.386889	0.235263
Zn4	Zn	1.114175	-0.397213	-0.312837
Zn5	Zn	1.447508	-0.063880	0.020497
Zn6	Zn	1.780841	0.269454	0.353830
Zn7	Zn	0.995713	-0.279770	-0.307565
Zn8	Zn	1.329047	0.053563	0.025769
Zn9	Zn	1.662380	0.386897	0.359102
Zn10	Zn	0.990390	-0.397183	-0.436624
Zn11	Zn	1.323723	-0.063850	-0.103291
Zn12	Zn	1.657057	0.269484	0.230043
O13	O	1.054958	-0.338486	-0.372107
O14	O	1.388291	-0.005153	-0.038774
O15	O	1.721625	0.328181	0.294559
O16	O	1.222473	-0.295371	-0.415698
O17	O	1.555806	0.037962	-0.082364
O18	O	1.889139	0.371296	0.250969
O19	O	1.098437	-0.381644	-0.208505
O20	O	1.431771	-0.048310	0.124828
O21	O	1.765104	0.285023	0.458162
O22	O	1.016620	-0.181486	-0.319601
O23	O	1.349953	0.151847	0.013732
O24	O	1.683287	0.485181	0.347065
O25	O	1.218521	-0.381651	-0.328587
O26	O	1.551854	-0.048317	0.004747
O27	O	1.885187	0.285016	0.338080
O28	O	1.107605	-0.181491	-0.410586
O29	O	1.440938	0.151842	-0.077252
O30	O	1.774272	0.485175	0.256081
O31	O	1.011404	-0.295359	-0.204632
O32	O	1.344737	0.037975	0.128702
O33	O	1.678071	0.371308	0.462035
O34	O	0.891375	-0.295330	-0.324663
O35	O	1.224708	0.038004	0.008670
O36	O	1.558042	0.371337	0.342004
O37	O	1.007547	-0.381599	-0.539564
O38	O	1.340881	-0.048266	-0.206231
O39	O	1.674214	0.285067	0.127103
O40	O	0.887464	-0.381592	-0.419482
O41	O	1.220797	-0.048259	-0.086149
O42	O	1.554131	0.285074	0.247184
O43	O	1.102443	-0.295342	-0.535729
O44	O	1.435777	0.037991	-0.202396
O45	O	1.769110	0.371325	0.130938
O46	O	1.093276	-0.495494	-0.333648
O47	O	1.426609	-0.162161	-0.000315
O48	O	1.759942	0.171172	0.333019
O49	O	1.002331	-0.495472	-0.424594
O50	O	1.335665	-0.162139	-0.091261
O51	O	1.668998	0.171195	0.242073
C52	C	0.862549	-0.338457	-0.372067
C53	C	1.195882	-0.005124	-0.038734
C54	C	1.529215	0.328209	0.294599
C55	C	0.780234	-0.338462	-0.372069
C56	C	1.113568	-0.005129	-0.038735
C57	C	1.446901	0.328205	0.294598
C58	C	0.481141	-0.338506	-0.372133
C59	C	0.814475	-0.005173	-0.038800
C60	C	1.147808	0.328161	0.294534
C61	C	0.514915	-0.283961	-0.312742
C62	C	0.848248	0.049373	0.020591
C63	C	1.181581	0.382706	0.353924
C64	C	0.600526	-0.284107	-0.312506
C65	C	0.933860	0.049226	0.020828
C66	C	1.267193	0.382560	0.354161
C67	C	0.629525	-0.338484	-0.372101
C68	C	0.962858	-0.005150	-0.038768
C69	C	1.296192	0.328183	0.294566
C70	C	0.595084	-0.412466	-0.354099
C71	C	0.928417	-0.079133	-0.020766
C72	C	1.261750	0.254201	0.312568
C73	C	0.509452	-0.412163	-0.353690
C74	C	0.842786	-0.078830	-0.020356
C75	C	1.176119	0.254504	0.312977
C76	C	0.513600	-0.319712	-0.449688
C77	C	0.846934	0.013621	-0.116355
C78	C	1.180267	0.346954	0.216978
C79	C	0.599325	-0.318065	-0.449186
C80	C	0.932658	0.015269	-0.115853
C81	C	1.265992	0.348602	0.217480
C82	C	0.713385	-0.338476	-0.372084
C83	C	1.046718	-0.005142	-0.038751
C84	C	1.380052	0.328191	0.294582
C85	C	0.397281	-0.338519	-0.372148
C86	C	0.730615	-0.005186	-0.038814
C87	C	1.063948	0.328148	0.294519
C88	C	1.046662	-0.520967	-0.380276
C89	C	1.379996	-0.187634	-0.046942
C90	C	1.713329	0.145699	0.286391
C91	C	1.043181	-0.599034	-0.383795
C92	C	1.376514	-0.265700	-0.050462
C93	C	1.709848	0.067633	0.282872
C94	C	1.088932	-0.635698	-0.338137
C95	C	1.422265	-0.302364	-0.004804
C96	C	1.755599	0.030969	0.328530
C97	C	1.085662	-0.709049	-0.341451
C98	C	1.418996	-0.375716	-0.008118
C99	C	1.752329	-0.042382	0.325215
C100	C	1.036637	-0.745735	-0.390420
C101	C	1.369971	-0.412402	-0.057087
C102	C	1.703304	-0.079069	0.276246
C103	C	0.990884	-0.709066	-0.436083
C104	C	1.324218	-0.375733	-0.102750
C105	C	1.657551	-0.042400	0.230583
C106	C	0.994158	-0.635716	-0.432772
C107	C	1.327492	-0.302383	-0.099439
C108	C	1.660825	0.030951	0.233894
C109	C	1.024385	-0.967206	-0.402788
C110	C	1.357718	-0.633873	-0.069454
C111	C	1.691052	-0.300540	0.263879
C112	C	1.021113	-1.040562	-0.406094
C113	C	1.354446	-0.707228	-0.072760
C114	C	1.687779	-0.373895	0.260573
C115	C	1.115892	-1.040539	-0.311462
C116	C	1.449226	-0.707206	0.021871
C117	C	1.782559	-0.373873	0.355205
C118	C	1.119159	-0.967188	-0.308152
C119	C	1.452492	-0.633854	0.025181
C120	C	1.785825	-0.300521	0.358514
C121	C	1.073408	-0.930525	-0.353818
C122	C	1.406742	-0.597192	-0.020485
C123	C	1.740075	-0.263858	0.312849
C124	C	1.033292	-0.820713	-0.393807
C125	C	1.366626	-0.487379	-0.060474
C126	C	1.699959	-0.154046	0.272859
C127	C	1.076758	-0.855549	-0.350434
C128	C	1.410091	-0.522216	-0.017101
C129	C	1.743424	-0.188883	0.316233
C130	C	1.248119	-0.338515	-0.372148
C131	C	1.581452	-0.005182	-0.038815
C132	C	1.914785	0.328152	0.294519
C133	C	1.330432	-0.338528	-0.372165
C134	C	1.663765	-0.005194	-0.038832
C135	C	1.997099	0.328139	0.294502
C136	C	1.055002	-0.338468	-0.565269
C137	C	1.388335	-0.005135	-0.231935
C138	C	1.721668	0.328198	0.101398
C139	C	1.055020	-0.338461	-0.647582
C140	C	1.388353	-0.005127	-0.314249
C141	C	1.721687	0.328206	0.019084
C142	C	1.063306	-0.155292	-0.363923
C143	C	1.396640	0.178041	-0.030590
C144	C	1.729973	0.511375	0.302743
C145	C	1.066864	-0.077226	-0.360436
C146	C	1.400197	0.256108	-0.027102
C147	C	1.733531	0.589441	0.306231
C148	C	1.055069	-0.338329	-0.946668
C149	C	1.388403	-0.004996	-0.613334
C150	C	1.721736	0.328338	-0.280001
C151	C	0.995174	-0.392427	-0.917747
C152	C	1.328507	-0.059094	-0.584414
C153	C	1.661840	0.274239	-0.251081
C154	C	0.995318	-0.392678	-0.832140
C155	C	1.328651	-0.059345	-0.498807
C156	C	1.661984	0.273988	-0.165474
C157	C	1.055044	-0.338394	-0.798288
C158	C	1.388378	-0.005061	-0.464955
C159	C	1.721711	0.328272	-0.131621
C160	C	1.132167	-0.358491	-0.830296
C161	C	1.465500	-0.025158	-0.496963
C162	C	1.798834	0.308175	-0.163630
C163	C	1.131831	-0.358846	-0.915957
C164	C	1.465164	-0.025513	-0.582624
C165	C	1.798497	0.307820	-0.249290
C166	C	1.038526	-0.264013	-0.911754
C167	C	1.371859	0.069320	-0.578421
C168	C	1.705193	0.402653	-0.245088
C169	C	1.036771	-0.264443	-0.826122
C170	C	1.370104	0.068891	-0.492789
C171	C	1.703437	0.402224	-0.159456
C172	C	1.055035	-0.338430	-0.714430
C173	C	1.388368	-0.005097	-0.381097
C174	C	1.721702	0.328237	-0.047763
C175	C	1.055084	-0.338295	-1.030526
C176	C	1.388417	-0.004962	-0.697192
C177	C	1.721750	0.328372	-0.363859
C178	C	1.054959	-0.338453	-0.179695
C179	C	1.388293	-0.005120	0.153638
C180	C	1.721626	0.328214	0.486971
C181	C	1.055093	-0.338263	-0.097373
C182	C	1.388427	-0.004929	0.235960
C183	C	1.721760	0.328404	0.569294
H184	H	0.624031	-0.229245	-0.323408
H185	H	0.957365	0.104088	0.009925
H186	H	1.290698	0.437421	0.343258
F187	F	0.491260	-0.212031	-0.326789
F188	F	0.824593	0.121302	0.006545
F189	F	1.157927	0.454635	0.339878
H190	H	0.937700	-0.379979	-0.937774
H191	H	1.271033	-0.046646	-0.604441
H192	H	1.604366	0.286687	-0.271108
H193	H	0.486843	-0.454179	-0.395241
H194	H	0.820176	-0.120846	-0.061908
H195	H	1.153510	0.212488	0.271425
F196	F	0.981117	-0.859763	-0.445922
F197	F	1.314450	-0.526430	-0.112589
F198	F	1.647784	-0.193097	0.220745
H199	H	0.613574	-0.454195	-0.396148
H200	H	0.946907	-0.120861	-0.062815
H201	H	1.280241	0.212472	0.270518
F202	F	0.626535	-0.300342	-0.237302
F203	F	0.959868	0.032992	0.096031
F204	F	1.293202	0.366325	0.429365
F205	F	1.134359	-0.748066	-0.292857
F206	F	1.467693	-0.414733	0.040476
F207	F	1.801026	-0.081400	0.373809
F208	F	1.150670	-0.429854	-0.945268
F209	F	1.484003	-0.096520	-0.611935
F210	F	1.817337	0.236813	-0.278601
H211	H	0.615770	-0.428682	-0.298133
H212	H	0.949103	-0.095349	0.035201
H213	H	1.282437	0.237984	0.368534
H214	H	1.077478	-0.221996	-0.802832
H215	H	1.410812	0.111337	-0.469499
H216	H	1.744145	0.444670	-0.136165
F217	F	1.191874	-0.309549	-0.940855
F218	F	1.525208	0.023784	-0.607521
F219	F	1.858541	0.357117	-0.274188
F220	F	1.095600	-0.211330	-0.935889
F221	F	1.428933	0.122003	-0.602556
F222	F	1.762266	0.455336	-0.269222
F223	F	0.488519	-0.250426	-0.471918
F224	F	0.821852	0.082908	-0.138585
F225	F	1.155186	0.416241	0.194749
F226	F	1.151424	-0.428744	-0.805426
F227	F	1.484758	-0.095411	-0.472093
F228	F	1.818091	0.237922	-0.138760
F229	F	1.191876	-0.308609	-0.801465
F230	F	1.525210	0.024725	-0.468131
F231	F	1.858543	0.358058	-0.134798
F232	F	1.164583	-1.079564	-0.262868
F233	F	1.497916	-0.746230	0.070465
F234	F	1.831249	-0.412897	0.403798
F235	F	1.141107	-0.596660	-0.286012
F236	F	1.474441	-0.263326	0.047321
F237	F	1.807774	0.070007	0.380654
H238	H	0.983441	-0.245705	-0.932518
H239	H	1.316775	0.087629	-0.599185
H240	H	1.650108	0.420962	-0.265851
F241	F	1.171346	-0.928149	-0.256041
F242	F	1.504679	-0.594815	0.077292
F243	F	1.838013	-0.261482	0.410626
H244	H	0.956904	-0.605865	-0.469953
H245	H	1.290237	-0.272532	-0.136620
H246	H	1.623571	0.060802	0.196714
F247	F	0.968924	-1.079605	-0.458208
F248	F	1.302257	-0.746271	-0.124875
F249	F	1.635590	-0.412938	0.208459
F250	F	0.629122	-0.246909	-0.467015
F251	F	0.962455	0.086425	-0.133682
F252	F	1.295788	0.419758	0.199651
H253	H	0.492814	-0.296243	-0.255539
H254	H	0.826147	0.037090	0.077795
H255	H	1.159480	0.370423	0.411128
F256	F	0.975692	-0.928197	-0.451389
F257	F	1.309026	-0.594863	-0.118056
F258	F	1.642359	-0.261530	0.215278
F259	F	0.938712	-0.748113	-0.488204
F260	F	1.272045	-0.414779	-0.154871
F261	F	1.605379	-0.081446	0.178462
H262	H	0.488724	-0.428103	-0.297092
H263	H	0.822058	-0.094769	0.036242
H264	H	1.155391	0.238564	0.369575
F265	F	1.128935	-0.816504	-0.298323
F266	F	1.462268	-0.483170	0.035011
F267	F	1.795602	-0.149837	0.368344
F268	F	0.962605	-0.244635	-0.798666
F269	F	1.295938	0.088698	-0.465333
F270	F	1.629271	0.422031	-0.132000
H271	H	0.938024	-0.380101	-0.810543
H272	H	1.271357	-0.046768	-0.477210
H273	H	1.604690	0.286565	-0.143876
F274	F	1.008910	-0.463980	-0.949139
F275	F	1.342244	-0.130647	-0.615806
F276	F	1.675577	0.202686	-0.282472
F277	F	1.009275	-0.464671	-0.808598
F278	F	1.342608	-0.131337	-0.475265
F279	F	1.675942	0.201996	-0.141932
H280	H	0.619076	-0.354899	-0.495539
H281	H	0.952409	-0.021565	-0.162206
H282	H	1.285742	0.311768	0.171127
H283	H	0.491559	-0.359441	-0.493899
H284	H	0.824893	-0.026108	-0.160566
H285	H	1.158226	0.307225	0.172768
