data_functionalizedCrystal
_audit_creation_method	'MofGen! by Chris Wilmer'
_symmetry_space_group_name_H-M	'P1'
_symmetry_Int_Tables_number	1
_symmetry_cell_setting	triclinic
loop_
_symmetry_equiv_pos_as_xyz
  x,y,z
_cell_length_a	14.519709
_cell_length_b	9.065215
_cell_length_c	12.996460
_cell_angle_alpha	90.005021
_cell_angle_beta	90.000052
_cell_angle_gamma	95.652579
loop_
_atom_site_label
_atom_site_type_symbol
_atom_site_fract_x
_atom_site_fract_y
_atom_site_fract_z
O1	O	-0.135216	1.957872	0.085539
O2	O	0.364784	2.457872	0.585539
O3	O	-0.146310	1.528379	0.085542
O4	O	0.353690	2.028379	0.585542
O5	O	-0.006608	1.754513	0.085550
O6	O	0.493392	2.254513	0.585550
O7	O	-0.274918	1.731738	0.085531
O8	O	0.225082	2.231738	0.585531
O9	O	-0.006600	1.754489	-0.085584
O10	O	0.493400	2.254489	0.414416
O11	O	-0.146302	1.528355	-0.085592
O12	O	0.353698	2.028355	0.414408
O13	O	-0.135208	1.957848	-0.085595
O14	O	0.364792	2.457848	0.414405
Cu15	Cu	-0.140754	1.743100	-0.101219
Cu16	Cu	0.359246	2.243100	0.398781
Cu17	Cu	-0.140764	1.743127	0.101166
Cu18	Cu	0.359236	2.243127	0.601166
O19	O	-0.274910	1.731714	-0.085603
O20	O	0.225090	2.231714	0.414397
C21	C	-0.145241	1.473400	-0.000024
C22	C	0.354759	1.973400	0.499976
C23	C	-0.142054	1.309617	-0.000022
C24	C	0.357946	1.809617	0.499978
C25	C	-0.309282	1.732788	-0.000038
C26	C	0.190718	2.232788	0.499962
C27	C	-0.411686	1.735968	-0.000045
C28	C	0.088314	2.235968	0.499955
C29	C	-0.786668	1.747677	-0.000004
C30	C	-0.286668	2.247677	0.499996
C31	C	-0.682336	1.744426	-0.000016
C32	C	-0.182336	2.244426	0.499984
C33	C	-0.599180	1.741823	-0.000026
C34	C	-0.099180	2.241823	0.499974
C35	C	-0.494842	1.738571	-0.000035
C36	C	0.005158	2.238571	0.499965
C37	C	0.027764	1.753439	-0.000013
C38	C	0.527764	2.253439	0.499987
C39	C	0.130168	1.750259	0.000001
C40	C	0.630168	2.250259	0.500001
C41	C	-0.136277	2.012827	-0.000027
C42	C	0.363723	2.512827	0.499973
C43	C	-0.139464	2.176610	-0.000022
C44	C	0.360536	2.676610	0.499978
N45	N	-0.140747	1.743091	-0.243566
N46	N	0.359253	2.243091	0.256434
C47	C	-0.140765	1.743125	-0.663381
C48	C	0.359235	2.243125	-0.163381
C49	C	-0.140763	1.743111	-0.546576
C50	C	0.359237	2.243111	-0.046576
C51	C	-0.140757	1.743109	-0.453477
C52	C	0.359243	2.243109	0.046523
C53	C	-0.140753	1.743093	-0.336665
C54	C	0.359247	2.243093	0.163335
N55	N	-0.140764	1.743148	0.243513
N56	N	0.359236	2.243148	0.743513
