data_functionalizedCrystal
_audit_creation_method	'MofGen! by Chris Wilmer'
_symmetry_space_group_name_H-M	'P1'
_symmetry_Int_Tables_number	1
_symmetry_cell_setting	triclinic
loop_
_symmetry_equiv_pos_as_xyz
  x,y,z
_cell_length_a	6.394989
_cell_length_b	19.288867
_cell_length_c	18.366186
_cell_angle_alpha	89.992441
_cell_angle_beta	90.003129
_cell_angle_gamma	95.182610
loop_
_atom_site_label
_atom_site_type_symbol
_atom_site_fract_x
_atom_site_fract_y
_atom_site_fract_z
O1	O	-0.260566	0.923904	-0.060520
O2	O	-0.295709	0.721988	-0.060526
O3	O	0.025954	0.825812	-0.060523
O4	O	-0.582228	0.820080	-0.060522
O5	O	0.025970	0.825793	0.060576
O6	O	-0.295693	0.721969	0.060573
O7	O	-0.260550	0.923886	0.060580
Zn8	Zn	-0.278119	0.822925	0.079804
Zn9	Zn	-0.278140	0.822949	-0.079750
O10	O	-0.582213	0.820061	0.060577
C11	C	-0.294569	0.696091	0.000023
C12	C	-0.291173	0.618954	0.000020
N13	N	-0.278104	0.822913	0.188695
C14	C	-0.266716	0.063159	-0.065983
C15	C	-0.269895	0.135638	-0.065985
C16	C	-0.271486	0.171872	0.000026
C17	C	-0.269843	0.135624	0.066044
C18	C	-0.266644	0.063147	0.066045
C19	C	-0.398875	0.282440	0.050599
C20	C	-0.402088	0.354914	0.050595
C21	C	-0.281346	0.395414	0.000026
C22	C	-0.157417	0.363430	-0.050552
C23	C	-0.154218	0.290953	-0.050551
C24	C	-0.274954	0.250461	0.000032
C25	C	-0.286420	0.510244	-0.065992
C26	C	-0.289586	0.582725	-0.065992
C27	C	-0.289555	0.582708	0.066040
C28	C	-0.286368	0.510230	0.066038
C29	C	-0.284811	0.474002	0.000020
C30	C	0.103772	0.824669	0.000024
C31	C	0.339975	0.821206	0.000023
C32	C	-0.261690	0.949782	0.000029
C33	C	-0.265086	1.026919	0.000027
N34	N	-0.278139	0.822965	-0.188641
C35	C	-0.135741	0.868903	0.226797
C36	C	-0.135732	0.868907	0.303024
C37	C	-0.278121	0.822929	0.341148
C38	C	-0.420494	0.776931	0.303037
C39	C	-0.420486	0.776923	0.226810
C40	C	-0.468423	0.815494	0.461908
C41	C	-0.468434	0.815507	0.538133
C42	C	-0.278147	0.822949	0.576255
C43	C	-0.087841	0.830392	0.538143
C44	C	-0.087832	0.830385	0.461917
C45	C	-0.278145	0.822932	0.423802
C46	C	-0.135763	0.868945	0.697012
C47	C	-0.135751	0.868945	0.773241
C48	C	-0.420531	0.776972	0.773252
C49	C	-0.420525	0.776969	0.697024
C50	C	-0.278143	0.822959	0.658909
H51	H	-0.271234	0.165150	-0.119740
C52	C	-0.261842	-0.047932	-0.124611
C53	C	-0.264989	0.023338	-0.138548
H54	H	-0.260788	-0.072516	-0.169411
H55	H	-0.139546	-0.055577	-0.097497
H56	H	-0.383084	-0.064039	-0.097483
H57	H	-0.143740	0.039446	-0.165672
H58	H	-0.387298	0.030987	-0.165674
H59	H	-0.623392	0.809450	0.569158
C60	C	0.145750	0.959822	0.295365
C61	C	0.020770	0.919460	0.344917
H62	H	0.242360	0.991031	0.321228
H63	H	0.220661	0.930255	0.265644
H64	H	0.058983	0.985560	0.265624
H65	H	0.107536	0.893717	0.374655
H66	H	-0.054146	0.949030	0.374651
H67	H	-0.019811	0.906393	0.804264
C68	C	0.084772	0.364559	-0.150532
C69	C	-0.024673	0.407937	-0.106142
H70	H	0.166706	0.392039	-0.184852
H71	H	0.174202	0.339350	-0.121287
H72	H	-0.012379	0.332876	-0.175571
H73	H	0.072479	0.439617	-0.081098
H74	H	-0.114111	0.433158	-0.135391
H75	H	-0.503049	0.380949	0.091764
H76	H	-0.623387	0.809423	0.430875
C77	C	-0.704841	0.764330	0.141084
C78	C	-0.576996	0.726373	0.184923
H79	H	-0.801458	0.733123	0.115222
H80	H	-0.779744	0.793890	0.170815
H81	H	-0.620018	0.791712	0.107476
H82	H	-0.661818	0.698995	0.218536
H83	H	-0.502088	0.696801	0.155190
H84	H	-0.265324	0.033640	0.119800
H85	H	0.067109	0.836452	0.569180
C86	C	-0.466584	0.682844	0.611321
C87	C	-0.577040	0.726424	0.655136
H88	H	-0.563218	0.651636	0.585465
H89	H	-0.381799	0.710227	0.577714
H90	H	-0.379852	0.657103	0.641074
H91	H	-0.663761	0.752169	0.625383
H92	H	-0.661861	0.699038	0.688747
C93	C	0.145745	0.959850	0.704654
C94	C	0.020761	0.919488	0.655109
H95	H	0.242384	0.991050	0.678785
H96	H	0.059000	0.985594	0.734376
H97	H	0.220643	0.930278	0.734395
H98	H	-0.054149	0.949061	0.625372
H99	H	0.107518	0.893743	0.625375
C100	C	-0.466584	0.682861	0.858991
C101	C	-0.577046	0.726430	0.815149
H102	H	-0.563213	0.651659	0.884862
H103	H	-0.379851	0.657120	0.829262
H104	H	-0.381798	0.710258	0.892593
H105	H	-0.661821	0.699033	0.781543
H106	H	-0.663815	0.752173	0.844881
C107	C	-0.294443	0.693799	0.124663
C108	C	-0.291296	0.622529	0.138602
H109	H	-0.295522	0.718383	0.169463
H110	H	-0.173215	0.709905	0.097541
H111	H	-0.416752	0.701442	0.097543
H112	H	-0.168979	0.614885	0.165719
H113	H	-0.412537	0.606418	0.165736
H114	H	-0.536426	0.739493	0.334081
H115	H	-0.497189	0.249470	0.091787
C116	C	0.128822	0.219153	-0.069207
C117	C	-0.017991	0.255792	-0.106137
H118	H	0.212916	0.197443	-0.103524
H119	H	0.215768	0.250490	-0.039972
H120	H	0.057342	0.184669	-0.039089
H121	H	0.053490	0.290281	-0.136252
H122	H	-0.104948	0.224452	-0.135385
C123	C	-0.464969	0.481706	-0.178525
C124	C	-0.284690	0.470416	-0.138555
H125	H	-0.463892	0.457121	-0.223324
H126	H	-0.586184	0.465595	-0.151399
H127	H	-0.467070	0.530060	-0.187969
H128	H	-0.282597	0.422063	-0.129106
H129	H	-0.163443	0.486524	-0.165687
H130	H	-0.290897	0.612231	-0.119747
C131	C	-0.286688	0.517495	0.196541
C132	C	-0.284612	0.470389	0.138600
H133	H	-0.285614	0.492897	0.241339
H134	H	-0.166173	0.549993	0.193796
H135	H	-0.409711	0.541535	0.193789
H136	H	-0.161581	0.446353	0.141348
H137	H	-0.405139	0.437879	0.141347
H138	H	-0.271135	0.165130	0.119791
H139	H	-0.019801	0.906349	0.195765
H140	H	0.067122	0.836444	0.430889
