data_functionalizedCrystal
_audit_creation_method	'MofGen! by Chris Wilmer'
_symmetry_space_group_name_H-M	'P1'
_symmetry_Int_Tables_number	1
_symmetry_cell_setting	triclinic
loop_
_symmetry_equiv_pos_as_xyz
  x,y,z
_cell_length_a	18.215407
_cell_length_b	19.120786
_cell_length_c	18.215399
_cell_angle_alpha	87.529807
_cell_angle_beta	89.982632
_cell_angle_gamma	92.462665
loop_
_atom_site_label
_atom_site_type_symbol
_atom_site_fract_x
_atom_site_fract_y
_atom_site_fract_z
Zn1	Zn	1.112567	-0.279685	-0.403553
Zn2	Zn	1.107224	-0.397146	-0.275231
Zn3	Zn	0.989499	-0.279702	-0.280505
Zn4	Zn	0.984216	-0.397101	-0.398263
O5	O	1.048377	-0.338409	-0.339388
O6	O	1.214842	-0.295278	-0.386538
O7	O	1.091582	-0.381593	-0.172945
O8	O	1.010272	-0.181409	-0.301249
O9	O	1.210917	-0.381577	-0.292260
O10	O	1.100689	-0.181397	-0.391651
O11	O	1.005090	-0.295307	-0.176820
O12	O	0.885815	-0.295263	-0.296119
O13	O	1.001268	-0.381500	-0.501951
O14	O	0.881933	-0.381516	-0.382636
O15	O	1.095567	-0.295234	-0.505837
O16	O	1.086460	-0.495431	-0.287131
O17	O	0.996086	-0.495397	-0.377522
C18	C	0.857171	-0.338387	-0.339376
C19	C	0.775372	-0.338395	-0.339388
C20	C	0.589217	-0.293551	-0.388548
C21	C	0.512358	-0.293557	-0.388551
C22	C	0.508287	-0.383285	-0.290240
C23	C	0.585145	-0.383275	-0.290235
C24	C	0.625608	-0.338409	-0.339393
C25	C	0.471891	-0.338425	-0.339401
C26	C	0.388557	-0.338432	-0.339403
C27	C	0.708947	-0.338401	-0.339390
C28	C	1.040140	-0.520899	-0.331196
C29	C	1.036684	-0.598970	-0.327716
C30	C	1.082100	-0.635581	-0.373187
C31	C	1.078850	-0.708936	-0.369919
C32	C	1.030186	-0.745679	-0.321175
C33	C	0.984764	-0.709063	-0.275701
C34	C	0.988011	-0.635709	-0.278974
C35	C	1.018024	-0.967165	-0.308940
C36	C	1.014781	-1.040524	-0.305669
C37	C	1.108867	-1.040391	-0.399887
C38	C	1.112113	-0.967036	-0.403153
C39	C	1.066688	-0.930426	-0.357682
C40	C	1.026863	-0.820660	-0.317831
C41	C	1.070007	-0.855447	-0.361030
C42	C	1.240329	-0.338431	-0.339401
C43	C	1.322127	-0.338440	-0.339406
C44	C	1.048424	-0.338360	-0.531343
C45	C	1.048444	-0.338339	-0.613143
C46	C	1.056666	-0.155205	-0.347628
C47	C	1.060198	-0.077135	-0.351140
C48	C	1.097564	-0.293379	-0.803364
C49	C	1.097574	-0.293359	-0.880224
C50	C	0.999380	-0.383191	-0.876165
C51	C	0.999368	-0.383208	-0.799307
C52	C	1.048464	-0.338303	-0.762908
C53	C	1.048486	-0.338266	-0.916626
C54	C	1.048496	-0.338244	-0.999961
C55	C	1.048453	-0.338323	-0.679568
C56	C	1.048375	-0.338406	-0.148182
C57	C	1.048506	-0.338229	-0.066391
H58	H	1.121731	-0.605669	-0.412877
F59	F	1.149815	-0.245586	-0.764628
H60	H	0.622160	-0.257017	-0.428574
F61	F	0.465218	-0.431034	-0.237927
F62	F	0.947135	-0.430982	-0.914910
F63	F	0.947102	-0.431021	-0.756249
H64	H	0.482732	-0.257029	-0.428577
H65	H	0.981039	-0.937363	-0.271914
H66	H	0.614775	-0.419804	-0.250203
H67	H	0.945137	-0.738986	-0.236016
H68	H	1.115839	-0.738741	-0.406941
F69	F	1.163907	-0.927936	-0.455033
H70	H	1.109627	-0.825528	-0.400721
H71	H	0.975150	-1.070438	-0.265975
F72	F	1.157205	-1.079359	-0.448278
H73	H	0.951027	-0.605901	-0.241948
F74	F	0.975069	-0.859772	-0.265958
H75	H	1.137555	-0.256776	-0.913159
