data_functionalizedCrystal
_audit_creation_method	'MofGen! by Chris Wilmer'
_symmetry_space_group_name_H-M	'P1'
_symmetry_Int_Tables_number	1
_symmetry_cell_setting	triclinic
loop_
_symmetry_equiv_pos_as_xyz
  x,y,z
_cell_length_a	18.050590
_cell_length_b	18.050590
_cell_length_c	18.050583
_cell_angle_alpha	89.962959
_cell_angle_beta	89.999666
_cell_angle_gamma	90.007719
loop_
_atom_site_label
_atom_site_type_symbol
_atom_site_fract_x
_atom_site_fract_y
_atom_site_fract_z
Zn1	Zn	1.135350	-0.295821	-0.419598
Zn2	Zn	1.468684	0.037512	-0.086264
Zn3	Zn	1.802017	0.370846	0.247069
Zn4	Zn	1.135280	-0.420034	-0.295406
Zn5	Zn	1.468613	-0.086701	0.037927
Zn6	Zn	1.801946	0.246633	0.371261
Zn7	Zn	1.011167	-0.295839	-0.295456
Zn8	Zn	1.344501	0.037494	0.037878
Zn9	Zn	1.677834	0.370828	0.371211
Zn10	Zn	1.011139	-0.419950	-0.419589
Zn11	Zn	1.344472	-0.086617	-0.086255
Zn12	Zn	1.677805	0.246716	0.247078
O13	O	1.073234	-0.357911	-0.357512
O14	O	1.406567	-0.024578	-0.024179
O15	O	1.739901	0.308756	0.309155
O16	O	1.239266	-0.312326	-0.403106
O17	O	1.572599	0.021008	-0.069773
O18	O	1.905932	0.354341	0.263560
O19	O	1.118798	-0.403602	-0.191488
O20	O	1.452132	-0.070268	0.141845
O21	O	1.785465	0.263065	0.475179
O22	O	1.027682	-0.191912	-0.311948
O23	O	1.361015	0.141421	0.021385
O24	O	1.694349	0.474755	0.354719
O25	O	1.239214	-0.403585	-0.311863
O26	O	1.572547	-0.070251	0.021470
O27	O	1.905880	0.263082	0.354803
O28	O	1.118919	-0.191899	-0.403155
O29	O	1.452252	0.141435	-0.069821
O30	O	1.785586	0.474768	0.263512
O31	O	1.027613	-0.312356	-0.191525
O32	O	1.360947	0.020977	0.141809
O33	O	1.694280	0.354311	0.475142
O34	O	0.907239	-0.312275	-0.311939
O35	O	1.240572	0.021058	0.021394
O36	O	1.573906	0.354392	0.354727
O37	O	1.027633	-0.403442	-0.523514
O38	O	1.360966	-0.070108	-0.190181
O39	O	1.694300	0.263225	0.143152
O40	O	0.907218	-0.403459	-0.403139
O41	O	1.240551	-0.070126	-0.069806
O42	O	1.573884	0.263208	0.263528
O43	O	1.118891	-0.312245	-0.523521
O44	O	1.452224	0.021089	-0.190188
O45	O	1.785558	0.354422	0.143146
O46	O	1.118771	-0.523948	-0.311854
O47	O	1.452104	-0.190614	0.021479
O48	O	1.785437	0.142719	0.354812
O49	O	1.027565	-0.523886	-0.403091
O50	O	1.360898	-0.190553	-0.069757
O51	O	1.694231	0.142781	0.263576
C52	C	0.880282	-0.357860	-0.357544
C53	C	1.213615	-0.024527	-0.024211
C54	C	1.546949	0.308806	0.309123
C55	C	0.797736	-0.357856	-0.357575
C56	C	1.131069	-0.024523	-0.024242
C57	C	1.464403	0.308810	0.309091
C58	C	0.598296	-0.407584	-0.407052
C59	C	0.931629	-0.074251	-0.073719
C60	C	1.264962	0.259082	0.259615
C61	C	0.548891	-0.339865	-0.425328
C62	C	0.882225	-0.006532	-0.091995
C63	C	1.215558	0.326802	0.241339
C64	C	0.646606	-0.357898	-0.357539
C65	C	0.979939	-0.024565	-0.024206
C66	C	1.313272	0.308769	0.309128
C67	C	0.548928	-0.425656	-0.339262
C68	C	0.882262	-0.092323	-0.005929
C69	C	1.215595	0.241011	0.327404
C70	C	0.500621	-0.357944	-0.357505
C71	C	0.833954	-0.024611	-0.024172
C72	C	1.167287	0.308723	0.309161
C73	C	0.598289	-0.290143	-0.375851
C74	C	0.931622	0.043191	-0.042517
C75	C	1.264955	0.376524	0.290816
C76	C	0.598330	-0.375979	-0.289753
C77	C	0.931663	-0.042646	0.043580
C78	C	1.264997	0.290687	0.376914
C79	C	0.548948	-0.308213	-0.308004
C80	C	0.882281	0.025120	0.025330
C81	C	1.215615	0.358453	0.358663
C82	C	0.730704	-0.357872	-0.357560
C83	C	1.064037	-0.024539	-0.024227
C84	C	1.397371	0.308794	0.309106
C85	C	0.416524	-0.357962	-0.357484
C86	C	0.749857	-0.024629	-0.024151
C87	C	1.083191	0.308705	0.309183
C88	C	1.073177	-0.550863	-0.357482
C89	C	1.406510	-0.217530	-0.024149
C90	C	1.739844	0.115803	0.309184
C91	C	1.073220	-0.633409	-0.357495
C92	C	1.406554	-0.300076	-0.024161
C93	C	1.739887	0.033258	0.309172
C94	C	1.122921	-0.832866	-0.307949
C95	C	1.456255	-0.499533	0.025384
C96	C	1.789588	-0.166199	0.358717
C97	C	1.141058	-0.882192	-0.375725
C98	C	1.474392	-0.548859	-0.042391
C99	C	1.807725	-0.215525	0.290942
C100	C	1.073263	-0.784539	-0.357524
C101	C	1.406596	-0.451206	-0.024191
C102	C	1.739929	-0.117873	0.309142
C103	C	1.055201	-0.882295	-0.289779
C104	C	1.388535	-0.548962	0.043554
C105	C	1.721868	-0.215628	0.376887
C106	C	1.073305	-0.930524	-0.357547
C107	C	1.406638	-0.597191	-0.024213
C108	C	1.739971	-0.263858	0.309120
C109	C	1.091434	-0.832778	-0.425335
C110	C	1.424767	-0.499445	-0.092002
C111	C	1.758101	-0.166111	0.241332
C112	C	1.005546	-0.832877	-0.339344
C113	C	1.338879	-0.499543	-0.006011
C114	C	1.672213	-0.166210	0.327323
C115	C	1.023657	-0.882180	-0.407166
C116	C	1.356990	-0.548847	-0.073833
C117	C	1.690324	-0.215514	0.259501
C118	C	1.073240	-0.700441	-0.357510
C119	C	1.406574	-0.367108	-0.024177
C120	C	1.739907	-0.033774	0.309157
C121	C	1.073327	-1.014621	-0.357568
C122	C	1.406660	-0.681288	-0.024235
C123	C	1.739994	-0.347954	0.309098
C124	C	1.266940	-0.357963	-0.357480
C125	C	1.600273	-0.024629	-0.024147
C126	C	1.933606	0.308704	0.309186
C127	C	1.349485	-0.357984	-0.357467
C128	C	1.682819	-0.024651	-0.024133
C129	C	2.016152	0.308682	0.309200
C130	C	1.073267	-0.357832	-0.551218
C131	C	1.406600	-0.024498	-0.217884
C132	C	1.739933	0.308835	0.115449
C133	C	1.073281	-0.357798	-0.633764
C134	C	1.406614	-0.024465	-0.300430
C135	C	1.739947	0.308869	0.032903
C136	C	1.073312	-0.164205	-0.357558
C137	C	1.406645	0.169128	-0.024225
C138	C	1.739978	0.502461	0.309109
C139	C	1.073345	-0.081660	-0.357578
C140	C	1.406678	0.251674	-0.024244
C141	C	1.740011	0.585007	0.309089
C142	C	1.122957	-0.308181	-0.833218
C143	C	1.456290	0.025152	-0.499885
C144	C	1.789623	0.358486	-0.166551
C145	C	1.055220	-0.289992	-0.882632
C146	C	1.388553	0.043341	-0.549298
C147	C	1.721887	0.376675	-0.215965
C148	C	1.073311	-0.357785	-0.784894
C149	C	1.406644	-0.024452	-0.451561
C150	C	1.739977	0.308881	-0.118227
C151	C	1.141075	-0.375927	-0.882562
C152	C	1.474408	-0.042594	-0.549229
C153	C	1.807741	0.290739	-0.215895
C154	C	1.073345	-0.357772	-0.930879
C155	C	1.406679	-0.024438	-0.597546
C156	C	1.740012	0.308895	-0.264212
C157	C	1.005538	-0.339561	-0.833220
C158	C	1.338871	-0.006228	-0.499887
C159	C	1.672205	0.327105	-0.166554
C160	C	1.091438	-0.425528	-0.833147
C161	C	1.424772	-0.092195	-0.499813
C162	C	1.758105	0.241139	-0.166480
C163	C	1.023655	-0.407365	-0.882538
C164	C	1.356988	-0.074031	-0.549205
C165	C	1.690322	0.259302	-0.215871
C166	C	1.073292	-0.357791	-0.700796
C167	C	1.406625	-0.024458	-0.367462
C168	C	1.739958	0.308875	-0.034129
C169	C	1.073357	-0.357766	-1.014976
C170	C	1.406690	-0.024432	-0.681642
C171	C	1.740023	0.308901	-0.348309
C172	C	1.073244	-0.357936	-0.164560
C173	C	1.406577	-0.024603	0.168773
C174	C	1.739911	0.308730	0.502107
C175	C	1.073374	-0.357761	-0.082014
C176	C	1.406707	-0.024428	0.251319
C177	C	1.740041	0.308906	0.584652
H178	H	0.619880	-0.232843	-0.391360
H179	H	0.953214	0.100490	-0.058026
H180	H	1.286547	0.433824	0.275307
F181	F	1.111492	-0.500395	-0.804713
F182	F	1.444825	-0.167061	-0.471380
F183	F	1.778159	0.166272	-0.138047
F184	F	0.930689	-0.804543	-0.319203
F185	F	1.264022	-0.471209	0.014130
F186	F	1.597356	-0.137876	0.347464
F187	F	1.111519	-0.804472	-0.500251
F188	F	1.444853	-0.471139	-0.166917
F189	F	1.778186	-0.137806	0.166416
F190	F	0.626716	-0.395965	-0.214854
F191	F	0.960049	-0.062631	0.118480
F192	F	1.293382	0.270702	0.451813
F193	F	0.968790	-0.910307	-0.462037
F194	F	1.302123	-0.576974	-0.128704
F195	F	1.635457	-0.243641	0.204629
F196	F	0.520803	-0.253257	-0.253255
F197	F	0.854137	0.080076	0.080078
F198	F	1.187470	0.413410	0.413411
H199	H	0.619965	-0.449529	-0.448970
H200	H	0.953299	-0.116196	-0.115637
H201	H	1.286632	0.217138	0.217696
F202	F	0.520507	-0.319894	-0.500236
F203	F	0.853840	0.013440	-0.166903
F204	F	1.187173	0.346773	0.166430
H205	H	1.039908	-0.904045	-0.232479
H206	H	1.373241	-0.570712	0.100854
H207	H	1.706575	-0.237378	0.434187
F208	F	1.177828	-0.804561	-0.253208
F209	F	1.511161	-0.471227	0.080126
F210	F	1.844494	-0.137894	0.413459
F211	F	0.520586	-0.500528	-0.319074
F212	F	0.853920	-0.167195	0.014259
F213	F	1.187253	0.166139	0.347593
F214	F	1.177745	-0.253319	-0.804910
F215	F	1.511078	0.080014	-0.471576
F216	F	1.844412	0.413347	-0.138243
F217	F	1.035193	-0.215106	-0.911045
F218	F	1.368526	0.118228	-0.577711
F219	F	1.701859	0.451561	-0.244378
F220	F	0.930628	-0.319419	-0.805012
F221	F	1.263961	0.013915	-0.471679
F222	F	1.597295	0.347248	-0.138345
F223	F	0.968735	-0.462181	-0.910677
F224	F	1.302069	-0.128847	-0.577344
F225	F	1.635402	0.204486	-0.244011
F226	F	1.215960	-0.395993	-0.910892
F227	F	1.549293	-0.062660	-0.577559
F228	F	1.882626	0.270673	-0.244226
F229	F	1.215935	-0.910495	-0.395853
F230	F	1.549269	-0.577161	-0.062520
F231	F	1.882602	-0.243828	0.270813
