data_functionalizedCrystal
_audit_creation_method	'MofGen! by Chris Wilmer'
_symmetry_space_group_name_H-M	'P1'
_symmetry_Int_Tables_number	1
_symmetry_cell_setting	triclinic
loop_
_symmetry_equiv_pos_as_xyz
  x,y,z
_cell_length_a	13.339070
_cell_length_b	11.804366
_cell_length_c	14.519709
_cell_angle_alpha	78.141386
_cell_angle_beta	99.654720
_cell_angle_gamma	105.125066
loop_
_atom_site_label
_atom_site_type_symbol
_atom_site_fract_x
_atom_site_fract_y
_atom_site_fract_z
O1	O	1.363529	0.099008	0.449157
O2	O	1.068892	0.099009	0.388444
O3	O	1.224025	0.099019	0.286548
O4	O	1.208397	0.098998	0.551054
O5	O	1.183184	-0.099039	0.313335
O6	O	1.028051	-0.099049	0.415231
O7	O	1.322688	-0.099051	0.475944
Cu8	Cu	1.171640	-0.117134	0.448034
Cu9	Cu	1.219940	0.117093	0.416355
O10	O	1.167555	-0.099061	0.577841
C11	C	1.010764	-0.000019	0.391582
C12	C	0.898407	-0.000018	0.361013
C13	C	1.202877	-0.000004	0.265396
C14	C	1.200698	0.000011	0.162458
C15	C	0.534044	-0.000019	0.598704
C16	C	0.639609	-0.000016	0.627428
C17	C	0.704314	-0.000017	0.560827
C18	C	0.663443	-0.000020	0.465496
C19	C	0.557869	-0.000013	0.436768
C20	C	0.728139	-0.000011	0.398891
C21	C	0.687268	-0.000014	0.303561
C22	C	0.581705	-0.000008	0.274837
C23	C	0.517000	-0.000007	0.341439
C24	C	0.833713	-0.000018	0.427619
C25	C	0.857538	-0.000012	0.265683
C26	C	0.751973	-0.000015	0.236959
C27	C	1.380817	-0.000019	0.472806
C28	C	1.493175	-0.000013	0.503375
N29	N	1.137676	-0.281877	0.470316
C30	C	1.056118	-0.344228	0.523843
C31	C	1.030434	-0.468892	0.540715
C32	C	1.086301	-0.531216	0.504054
C33	C	1.167857	-0.468865	0.450520
C34	C	1.193548	-0.344189	0.433653
C35	C	1.223731	-0.531177	0.413864
C36	C	1.305287	-0.468825	0.360330
C37	C	1.330974	-0.344162	0.343465
C38	C	1.275107	-0.281838	0.380126
C39	C	1.198040	-0.655852	0.430730
C40	C	1.335470	-0.655813	0.340540
C41	C	1.361154	-0.531150	0.323669
N42	N	1.253912	0.281836	0.394067
C43	C	1.188704	-0.000034	0.598993
C44	C	1.190884	-0.000042	0.701930
C45	C	1.198926	0.000005	1.078863
C46	C	1.196693	-0.000008	0.973989
C47	C	1.194905	-0.000020	0.890400
C48	C	1.192672	-0.000031	0.785519
H49	H	0.790270	-0.000012	0.584220
H50	H	0.910222	-0.000008	0.211450
N51	N	0.710235	-0.000022	0.139581
N52	N	0.712783	-0.083508	0.099870
H53	H	0.683306	-0.083515	0.031096
H54	H	0.672880	-0.000005	0.705045
N55	N	0.467944	0.000008	0.666711
N56	N	0.373693	0.000028	0.641045
H57	H	0.327007	0.000052	0.689078
N58	N	1.301322	-0.154493	0.362892
N59	N	1.251423	-0.098869	0.395623
H60	H	1.269934	-0.008930	0.383452
H61	H	1.397388	-0.293395	0.299884
H62	H	1.131638	-0.706608	0.474318
H63	H	1.065386	-0.632723	0.517793
H64	H	1.427559	-0.480368	0.280081
H65	H	0.866978	-0.000021	0.505238
N66	N	0.947141	-0.532559	0.595407
N67	N	0.897272	-0.476904	0.628140
H68	H	0.838444	-0.521870	0.666772
N69	N	1.392522	-0.719480	0.303081
N70	N	1.369564	-0.830790	0.318135
H71	H	1.409848	-0.875763	0.291678
H72	H	1.010643	-0.293476	0.553694
H73	H	0.431039	-0.000009	0.318056
H74	H	0.548434	0.000004	0.197211
