data_functionalizedCrystal
_audit_creation_method	'MofGen! by Chris Wilmer'
_symmetry_space_group_name_H-M	'P1'
_symmetry_Int_Tables_number	1
_symmetry_cell_setting	triclinic
loop_
_symmetry_equiv_pos_as_xyz
  x,y,z
_cell_length_a	12.837942
_cell_length_b	10.654550
_cell_length_c	9.730223
_cell_angle_alpha	89.999758
_cell_angle_beta	90.002439
_cell_angle_gamma	90.343065
loop_
_atom_site_label
_atom_site_type_symbol
_atom_site_fract_x
_atom_site_fract_y
_atom_site_fract_z
O1	O	0.145721	-1.683741	0.114186
O2	O	0.159604	-1.319778	0.114211
O3	O	0.001702	-1.493689	0.114190
O4	O	0.303623	-1.509830	0.114206
O5	O	0.001702	-1.493676	-0.114390
O6	O	0.159604	-1.319764	-0.114369
O7	O	0.145721	-1.683728	-0.114394
Zn8	Zn	0.152662	-1.501744	-0.150674
Zn9	Zn	0.152662	-1.501762	0.150490
O10	O	0.303623	-1.509816	-0.114374
C11	C	-0.036958	-1.488230	-0.000099
C12	C	-0.152152	-1.471967	-0.000095
C13	C	0.158585	-1.272862	-0.000076
C14	C	0.155535	-1.133086	-0.000067
C15	C	0.146740	-1.730644	-0.000104
C16	C	0.149790	-1.870420	-0.000105
C17	C	-0.391705	-1.667472	-0.000080
C18	C	-0.499941	-1.652197	-0.000077
C19	C	-0.476861	-1.426146	-0.000075
C20	C	-0.368626	-1.441420	-0.000079
C21	C	-0.326052	-1.562087	-0.000083
C22	C	-0.217814	-1.577360	-0.000096
C23	C	-0.194737	-1.351309	-0.000085
C24	C	-0.302972	-1.336035	-0.000082
C25	C	0.342283	-1.515276	-0.000082
C26	C	0.457477	-1.531538	-0.000076
N27	N	0.152662	-1.501741	-0.356210
C28	C	0.248505	-1.063746	-0.000066
C29	C	0.245633	-0.932411	-0.000090
C30	C	0.056812	-0.939770	-0.000110
C31	C	0.059685	-1.071101	-0.000096
C32	C	0.216174	-1.585503	-0.428133
C33	C	0.216168	-1.585523	-0.572016
C34	C	0.089135	-1.418008	-0.572040
C35	C	0.089136	-1.417995	-0.428160
N36	N	0.152655	-1.501774	0.356027
H37	H	-0.357041	-1.765723	-0.000097
H38	H	0.037412	-1.349784	-0.369599
O39	O	0.020628	-1.327688	-0.649660
H40	H	-0.062087	-1.345134	-0.622059
O41	O	-0.171896	-1.707505	-0.000097
H42	H	-0.085602	-1.700426	-0.000113
H43	H	0.321340	-0.875960	-0.000092
H44	H	0.326552	-1.114209	-0.000052
O45	O	-0.570754	-1.765863	-0.000078
H46	H	-0.620626	-1.764302	-0.093239
O47	O	-0.046566	-0.872917	-0.000131
H48	H	-0.032947	-0.769944	-0.000128
O49	O	0.284688	-1.675826	-0.350528
H50	H	0.235471	-1.737418	-0.284958
H51	H	-0.511544	-1.327904	-0.000057
O52	O	0.284675	-1.675861	-0.649596
H53	H	0.328850	-1.734082	-0.575387
O54	O	-0.348892	-1.205891	-0.000096
H55	H	-0.435185	-1.212972	-0.000106
O56	O	-0.123927	-1.237630	-0.000083
H57	H	-0.041510	-1.268519	-0.000079
H58	H	-0.016027	-1.127560	-0.000100
