data_functionalizedCrystal
_audit_creation_method	'MofGen! by Chris Wilmer'
_symmetry_space_group_name_H-M	'P1'
_symmetry_Int_Tables_number	1
_symmetry_cell_setting	triclinic
loop_
_symmetry_equiv_pos_as_xyz
  x,y,z
_cell_length_a	15.944551
_cell_length_b	14.044220
_cell_length_c	15.021413
_cell_angle_alpha	89.999554
_cell_angle_beta	90.011299
_cell_angle_gamma	88.343808
loop_
_atom_site_label
_atom_site_type_symbol
_atom_site_fract_x
_atom_site_fract_y
_atom_site_fract_z
O1	O	1.123664	0.122244	-0.073941
O2	O	0.880243	0.137316	-0.073963
O3	O	0.998300	-0.008205	-0.073944
O4	O	1.005608	0.267765	-0.073961
O5	O	0.998316	-0.008196	0.074120
O6	O	0.880259	0.137325	0.074101
O7	O	1.123680	0.122253	0.074123
Zn8	Zn	1.001972	0.129791	0.097620
Zn9	Zn	1.001951	0.129779	-0.097461
O10	O	1.005623	0.267774	0.074104
C11	C	0.995109	-0.043515	0.000088
C12	C	0.985568	-0.148741	0.000089
C13	C	0.848910	0.136695	0.000066
C14	C	0.755524	0.134819	0.000058
C15	C	0.968124	-0.341404	0.000074
C16	C	1.035795	-0.399033	0.000078
C17	C	1.026089	-0.506237	0.000070
C18	C	0.977829	-0.234190	0.000082
C19	C	0.533577	0.040135	0.000081
C20	C	0.475842	0.084098	-0.072925
C21	C	0.584544	0.131425	0.000068
C22	C	0.475881	0.084129	0.073054
C23	C	0.419385	0.128141	0.000083
C24	C	0.528038	0.175414	-0.072998
C25	C	0.528083	0.175432	0.073047
C26	C	0.470370	0.219462	0.000023
C27	C	0.679688	0.133315	0.000059
C28	C	0.324243	0.126258	0.000085
C29	C	1.155013	0.122874	0.000092
C30	C	1.248399	0.124750	0.000094
C31	C	1.008814	0.303084	0.000069
C32	C	1.018355	0.408310	0.000063
N33	N	1.001992	0.129798	0.230758
N34	N	1.001937	0.129764	-0.230598
C35	C	1.056592	0.062494	0.470427
C36	C	0.979314	0.044080	0.529750
C37	C	1.001972	0.129786	0.412365
C38	C	1.079227	0.148144	0.529783
C39	C	1.001959	0.129772	0.587789
C40	C	0.924652	0.111330	0.470382
C41	C	1.024618	0.215431	0.470410
C42	C	0.947288	0.197054	0.529707
C43	C	1.001980	0.129792	0.311308
C44	C	1.001942	0.129768	0.688844
H45	H	1.101019	-0.367858	0.000024
O46	O	0.890254	-0.378429	0.000029
C47	C	0.829236	-0.303738	0.000055
H48	H	0.857706	-0.236512	-0.027973
H49	H	0.806914	-0.289798	0.071089
C50	C	0.719307	-0.414361	-0.023589
C51	C	0.754274	-0.331795	-0.058020
H52	H	0.673065	-0.431668	-0.059408
H53	H	0.760416	-0.464683	-0.023603
H54	H	0.700713	-0.402733	0.035606
H55	H	0.772877	-0.343428	-0.117209
H56	H	0.713166	-0.281476	-0.058018
H57	H	0.550908	0.213994	-0.134786
O58	O	0.956586	-0.042396	0.560813
C59	C	1.014328	-0.113135	0.530599
H60	H	1.076470	-0.079140	0.513963
H61	H	0.988429	-0.148541	0.468498
C62	C	0.952120	-0.230257	0.624389
C63	C	1.028446	-0.188504	0.603964
H64	H	0.960827	-0.276752	0.669641
H65	H	0.913216	-0.182600	0.644743
H66	H	0.930546	-0.259754	0.572632
H67	H	1.050014	-0.158998	0.655717
H68	H	1.067354	-0.236159	0.583620
H69	H	0.561237	-0.035629	-0.000005
O70	O	0.437618	0.309954	-0.000184
C71	C	0.464315	0.357719	-0.077247
H72	H	0.482137	0.303297	-0.130799
H73	H	0.521110	0.401854	-0.060530
C74	C	0.370792	0.490631	-0.045895
C75	C	0.392675	0.423790	-0.111672
H76	H	0.326603	0.531390	-0.067129
H77	H	0.352808	0.458453	0.006026
H78	H	0.418128	0.527401	-0.031971
H79	H	0.345343	0.387014	-0.125587
H80	H	0.410650	0.455963	-0.163596
O81	O	0.555531	0.221323	0.146766
C82	C	0.529066	0.172961	0.223593
H83	H	0.516511	0.095681	0.206106
H84	H	0.469115	0.208815	0.250228
C85	C	0.613523	0.271009	0.316630
C86	C	0.598109	0.176091	0.295155
H87	H	0.656109	0.272943	0.360775
H88	H	0.631350	0.303594	0.264872
H89	H	0.563558	0.300877	0.338822
H90	H	0.648070	0.146228	0.272954
H91	H	0.580291	0.143500	0.346912
O92	O	1.111737	-0.005374	0.439470
C93	C	1.192922	0.013260	0.471013
H94	H	1.188019	0.058466	0.533930
H95	H	1.228852	0.053268	0.417881
C96	C	1.245712	-0.137021	0.414977
C97	C	1.239690	-0.081505	0.492256
H98	H	1.274563	-0.195475	0.428077
H99	H	1.191017	-0.149574	0.393722
H100	H	1.275651	-0.103669	0.370708
H101	H	1.209742	-0.114851	0.536520
H102	H	1.294381	-0.068959	0.513519
O103	O	0.448372	0.038187	0.146715
C104	C	0.397206	0.101005	0.197650
H105	H	0.370664	0.160222	0.153028
H106	H	0.436132	0.133334	0.253038
C107	C	0.357186	-0.026773	0.293548
C108	C	0.324581	0.045955	0.238742
H109	H	0.312389	-0.060729	0.318899
H110	H	0.391660	-0.069094	0.259235
H111	H	0.389624	0.000179	0.339697
H112	H	0.292152	0.019002	0.192587
H113	H	0.290100	0.088271	0.273048
O114	O	1.157113	0.166802	0.561016
C115	C	1.153353	0.250680	0.612611
H116	H	1.086656	0.263409	0.638181
H117	H	1.172183	0.313683	0.569922
C118	C	1.295821	0.224369	0.660693
C119	C	1.213905	0.239998	0.692104
H120	H	1.333175	0.217783	0.709726
H121	H	1.298356	0.167860	0.625930
H122	H	1.311501	0.276874	0.625118
H123	H	1.198222	0.187488	0.727669
H124	H	1.211368	0.296498	0.726875
H125	H	0.452834	0.045482	-0.134642
O126	O	0.846682	0.092835	0.439292
C127	C	0.816918	0.170061	0.387029
H128	H	0.872349	0.211403	0.361117
H129	H	0.774899	0.219097	0.429294
C130	C	0.698207	0.081555	0.339677
C131	C	0.766289	0.132327	0.307845
H132	H	0.666972	0.058281	0.290835
H133	H	0.718257	0.029527	0.374890
H134	H	0.663200	0.122426	0.374898
H135	H	0.801299	0.091453	0.272635
H136	H	0.746243	0.184347	0.272624
O137	O	0.891998	0.264839	0.560532
C138	C	0.810670	0.245126	0.530082
H139	H	0.807154	0.166131	0.513504
H140	H	0.796099	0.289109	0.467896
C141	C	0.750579	0.367912	0.623577
C142	C	0.746260	0.270888	0.603223
H143	H	0.710847	0.383807	0.668692
H144	H	0.805372	0.381196	0.644090
H145	H	0.738439	0.404553	0.571750
H146	H	0.758410	0.234249	0.655047
H147	H	0.691468	0.257598	0.582721
O148	O	1.047652	0.301778	0.439324
C149	C	1.129181	0.320872	0.469556
H150	H	1.163814	0.250989	0.486231
H151	H	1.124992	0.367460	0.531636
C152	C	1.134577	0.459031	0.375710
C153	C	1.177116	0.373198	0.396185
H154	H	1.164145	0.491312	0.330454
H155	H	1.079648	0.446170	0.355345
H156	H	1.131089	0.497843	0.427450
H157	H	1.180594	0.334383	0.344448
H158	H	1.232047	0.386055	0.416540
