data_functionalizedCrystal
_audit_creation_method	'MofGen! by Chris Wilmer'
_symmetry_space_group_name_H-M	'P1'
_symmetry_Int_Tables_number	1
_symmetry_cell_setting	triclinic
loop_
_symmetry_equiv_pos_as_xyz
  x,y,z
_cell_length_a	13.635800
_cell_length_b	9.514072
_cell_length_c	9.100027
_cell_angle_alpha	78.964309
_cell_angle_beta	68.641558
_cell_angle_gamma	61.156579
loop_
_atom_site_label
_atom_site_type_symbol
_atom_site_fract_x
_atom_site_fract_y
_atom_site_fract_z
V1	V	1.840287	-0.153165	0.487201
O2	O	1.794311	0.078225	0.476670
O3	O	1.858612	-0.371855	0.485077
O4	O	1.721715	-0.119715	0.699134
O5	O	1.932156	-0.175661	0.261131
V6	V	2.088820	-0.129162	0.460014
O7	O	1.956064	-0.205817	0.546837
O8	O	2.198141	-0.076510	0.400378
O9	O	1.958891	0.089528	0.462137
O10	O	2.193494	-0.360552	0.470545
O11	O	2.055649	-0.106666	0.686084
O12	O	2.095789	-0.162612	0.248080
V13	V	2.340287	-0.153165	0.487201
O14	O	2.294311	0.078225	0.476670
O15	O	2.358612	-0.371855	0.485077
O16	O	2.221715	-0.119715	0.699134
O17	O	2.432156	-0.175661	0.261131
V18	V	2.588820	-0.129162	0.460014
O19	O	2.456064	-0.205817	0.546837
O20	O	2.698141	-0.076510	0.400378
O21	O	2.458891	0.089528	0.462137
O22	O	2.693494	-0.360552	0.470545
O23	O	2.555649	-0.106666	0.686084
O24	O	2.595789	-0.162612	0.248080
C25	C	1.619885	-0.104507	0.750752
C26	C	1.563863	-0.078605	0.924017
C27	C	1.794511	-0.426139	0.477703
C28	C	1.849508	-0.604721	0.477379
C29	C	1.626611	-0.073316	1.013373
C30	C	1.573980	-0.048957	1.176171
C31	C	1.458604	-0.029899	1.249613
C32	C	1.395850	-0.035184	1.160244
C33	C	1.448479	-0.059531	0.997447
C34	C	1.854667	0.143803	0.469507
C35	C	1.789285	0.322385	0.469841
C36	C	2.119885	-0.104507	0.750752
C37	C	2.063863	-0.078605	0.924017
C38	C	2.029294	-0.177827	0.196454
C39	C	2.074935	-0.203721	0.023188
C40	C	2.294511	-0.426139	0.477703
C41	C	2.349508	-0.604721	0.477379
C42	C	2.354667	0.143803	0.469507
C43	C	2.289285	0.322385	0.469841
C44	C	2.529294	-0.177827	0.196454
C45	C	2.574935	-0.203721	0.023188
C46	C	2.508060	-0.222755	-0.050214
C47	C	2.550924	-0.247067	-0.213018
C48	C	2.660667	-0.252355	-0.302416
C49	C	2.727544	-0.233314	-0.229004
C50	C	2.684676	-0.208991	-0.066205
H51	H	1.720559	-0.088835	0.953600
Cl52	Cl	1.994057	-0.719304	0.487059
Cl53	Cl	1.644750	-0.563039	0.460138
H54	H	2.011523	0.048342	0.971672
Cl55	Cl	2.494057	-0.719304	0.487059
Cl56	Cl	2.370092	-0.216110	0.062138
H57	H	2.195671	-0.603401	0.463557
Cl58	Cl	1.369582	-0.066198	0.885136
Cl59	Cl	2.155753	-0.399712	0.949630
H60	H	2.496454	-0.262567	-0.272765
H61	H	1.625096	-0.044665	1.248914
Cl62	Cl	1.250811	-0.011245	1.252598
H63	H	2.695566	-0.272180	-0.434973
Cl64	Cl	2.865512	-0.239986	-0.341410
Cl65	Cl	2.768773	-0.185090	0.026054
Cl66	Cl	1.392461	0.000700	1.454278
