data_functionalizedCrystal
_audit_creation_method	'MofGen! by Chris Wilmer'
_symmetry_space_group_name_H-M	'P1'
_symmetry_Int_Tables_number	1
_symmetry_cell_setting	triclinic
loop_
_symmetry_equiv_pos_as_xyz
  x,y,z
_cell_length_a	21.295417
_cell_length_b	12.594517
_cell_length_c	21.295411
_cell_angle_alpha	90.024853
_cell_angle_beta	89.978356
_cell_angle_gamma	89.969694
loop_
_atom_site_label
_atom_site_type_symbol
_atom_site_fract_x
_atom_site_fract_y
_atom_site_fract_z
Zn1	Zn	-0.250684	-1.627197	-0.355916
Zn2	Zn	0.249316	-1.127197	0.144084
Zn3	Zn	-0.355936	-1.627032	-0.250642
Zn4	Zn	0.144064	-1.127032	0.249358
Zn5	Zn	-0.250684	-1.449190	-0.250661
Zn6	Zn	0.249316	-0.949190	0.249339
Zn7	Zn	-0.355919	-1.449138	-0.355873
Zn8	Zn	0.144081	-0.949138	0.144127
O9	O	-0.303306	-1.538139	-0.303273
O10	O	0.196694	-1.038139	0.196727
O11	O	-0.264653	-1.776121	-0.341962
O12	O	0.235347	-1.276121	0.158038
O13	O	-0.341981	-1.603393	-0.162555
O14	O	0.158019	-1.103393	0.337445
O15	O	-0.162595	-1.472894	-0.264649
O16	O	0.337405	-0.972894	0.235351
O17	O	-0.341981	-1.776000	-0.264617
O18	O	0.158019	-1.276000	0.235383
O19	O	-0.162595	-1.603675	-0.341980
O20	O	0.337405	-1.103675	0.158020
O21	O	-0.264653	-1.472734	-0.162569
O22	O	0.235347	-0.972734	0.337431
O23	O	-0.264637	-1.300237	-0.264607
O24	O	0.235363	-0.800237	0.235393
O25	O	-0.341952	-1.472805	-0.443968
O26	O	0.158048	-0.972805	0.056032
O27	O	-0.341953	-1.300199	-0.341906
O28	O	0.158047	-0.800199	0.158094
O29	O	-0.264637	-1.603625	-0.444000
O30	O	0.235363	-1.103625	0.056000
O31	O	-0.444023	-1.603343	-0.264575
O32	O	0.055977	-1.103343	0.235425
O33	O	-0.444011	-1.472645	-0.341888
O34	O	0.055989	-0.972645	0.158112
C35	C	-0.303293	-1.261598	-0.303254
C36	C	0.196707	-0.761598	0.196746
C37	C	-0.303303	-1.143293	-0.303261
C38	C	0.196697	-0.643293	0.196739
C39	C	-0.466858	-1.538000	-0.303238
C40	C	0.033142	-1.038000	0.196762
C41	C	-0.536826	-1.538037	-0.303244
C42	C	-0.036826	-1.038037	0.196756
C43	C	-0.303293	-1.538228	-0.467463
C44	C	0.196707	-1.038228	0.032537
C45	C	-0.303287	-1.538265	-0.537431
C46	C	0.196713	-1.038265	-0.037431
C47	C	-0.569678	-1.606152	-0.263029
C48	C	-0.069678	-1.106152	0.236971
C49	C	-0.635420	-1.606202	-0.263043
C50	C	-0.135420	-1.106202	0.236957
C51	C	-0.668308	-1.538118	-0.303266
C52	C	-0.168308	-1.038118	0.196734
C53	C	-0.635448	-1.469999	-0.343489
C54	C	-0.135448	-0.969999	0.156511
C55	C	-0.569707	-1.469958	-0.343478
C56	C	-0.069707	-0.969958	0.156522
N57	N	-0.771575	-1.445008	-0.308059
N58	N	-0.271575	-0.945008	0.191941
N59	N	-0.834026	-1.445050	-0.308065
N60	N	-0.334026	-0.945050	0.191935
C61	C	-0.866383	-1.538237	-0.303302
C62	C	-0.366383	-1.038237	0.196698
N63	N	-0.833929	-1.631384	-0.298520
N64	N	-0.333929	-1.131384	0.201480
N65	N	-0.771472	-1.631342	-0.298510
N66	N	-0.271472	-1.131342	0.201490
C67	C	-0.739594	-1.538155	-0.303282
C68	C	-0.239594	-1.038155	0.196718
C69	C	-0.970521	-1.606412	-0.263100
C70	C	-0.470521	-1.106412	0.236900
C71	C	-1.036264	-1.606464	-0.263118
C72	C	-0.536264	-1.106464	0.236882
C73	C	-1.036291	-1.470251	-0.343561
C74	C	-0.536291	-0.970251	0.156439
C75	C	-0.970548	-1.470209	-0.343546
C76	C	-0.470548	-0.970209	0.156454
C77	C	-0.937667	-1.538288	-0.303312
C78	C	-0.437667	-1.038288	0.196688
C79	C	-0.139116	-1.538308	-0.303322
C80	C	0.360884	-1.038308	0.196678
C81	C	-0.069148	-1.538380	-0.303342
C82	C	0.430852	-1.038380	0.196658
C83	C	-0.303319	-1.815760	-0.303292
C84	C	0.196681	-1.315760	0.196708
C85	C	-0.303325	-1.934066	-0.303300
C86	C	0.196675	-1.434066	0.196700
C87	C	-0.261194	-1.074030	-0.261299
C88	C	0.238806	-0.574030	0.238701
C89	C	-0.318610	-1.003192	-0.245807
C90	C	0.181390	-0.503192	0.254193
C91	C	-0.245915	-1.003331	-0.318764
C92	C	0.254085	-0.503331	0.181236
C93	C	-0.360749	-1.074014	-0.287740
C94	C	0.139251	-0.574014	0.212260
C95	C	-0.288016	-1.074159	-0.360723
C96	C	0.211984	-0.574159	0.139277
C97	C	-0.345472	-1.003354	-0.345253
C98	C	0.154528	-0.503354	0.154747
C99	C	-0.263027	-1.606380	-0.570316
C100	C	0.236973	-1.106380	-0.070316
C101	C	-0.263000	-1.606378	-0.636058
C102	C	0.237000	-1.106378	-0.136058
C103	C	-0.303244	-1.538274	-0.668914
C104	C	0.196756	-1.038274	-0.168914
C105	C	-0.343507	-1.470146	-0.636022
C106	C	0.156493	-0.970146	-0.136022
C107	C	-0.343528	-1.470142	-0.570280
C108	C	0.156472	-0.970142	-0.070280
N109	N	-0.358311	-1.530062	-0.772129
N110	N	0.141689	-1.030062	-0.272129
N111	N	-0.358289	-1.530072	-0.834581
N112	N	0.141711	-1.030072	-0.334581
C113	C	-0.303180	-1.538280	-0.866989
C114	C	0.196820	-1.038280	-0.366989
N115	N	-0.248093	-1.546499	-0.834586
N116	N	0.251907	-1.046499	-0.334586
N117	N	-0.248116	-1.546494	-0.772129
N118	N	0.251884	-1.046494	-0.272129
C119	C	-0.303224	-1.538270	-0.740199
C120	C	0.196776	-1.038270	-0.240199
C121	C	-0.262887	-1.606397	-0.971159
C122	C	0.237113	-1.106397	-0.471159
C123	C	-0.262858	-1.606388	-1.036902
C124	C	0.237142	-1.106388	-0.536902
C125	C	-0.343371	-1.470161	-1.036865
C126	C	0.156629	-0.970161	-0.536865
C127	C	-0.343394	-1.470164	-0.971122
C128	C	0.156606	-0.970164	-0.471122
C129	C	-0.303153	-1.538288	-0.938273
C130	C	0.196847	-1.038288	-0.438273
C131	C	-0.303274	-1.538113	-0.139721
C132	C	0.196726	-1.038113	0.360279
C133	C	-0.303102	-1.538281	-0.069754
C134	C	0.196898	-1.038281	0.430246
H135	H	-0.542908	-1.661589	-0.230269
H136	H	-0.042908	-1.161589	0.269731
H137	H	-0.275055	-1.105354	-0.409286
H138	H	0.224945	-0.605354	0.090714
N139	N	-1.069876	-1.400688	-0.384640
N140	N	-0.569876	-0.900688	0.115360
N141	N	-1.062588	-1.302472	-0.380407
N142	N	-0.562588	-0.802472	0.119593
H143	H	-1.086310	-1.253342	-0.409421
H144	H	-0.586310	-0.753342	0.090579
H145	H	-0.662229	-1.414566	-0.376240
H146	H	-0.162229	-0.914566	0.123760
H147	H	-0.542958	-1.414490	-0.376228
H148	H	-0.042958	-0.914490	0.123772
H149	H	-0.376312	-1.414670	-0.543506
H150	H	0.123688	-0.914670	-0.043506
N151	N	-0.185028	-0.964363	-0.335204
N152	N	0.314972	-0.464363	0.164796
N153	N	-0.175414	-0.866607	-0.338305
N154	N	0.324586	-0.366607	0.161695
H155	H	-0.132412	-0.839086	-0.349913
H156	H	0.367588	-0.339086	0.150087
H157	H	-1.063012	-1.661938	-0.230371
H158	H	-0.563012	-1.161938	0.269629
H159	H	-0.376272	-1.414691	-0.662777
H160	H	0.123728	-0.914691	-0.162777
H161	H	-0.230259	-1.661850	-0.543574
H162	H	0.269741	-1.161850	-0.043574
H163	H	-0.943748	-1.661850	-0.230340
H164	H	-0.443748	-1.161850	0.269660
H165	H	-0.943798	-1.414739	-0.376291
H166	H	-0.443798	-0.914739	0.123709
N167	N	-0.421656	-1.112809	-0.271231
N168	N	0.078344	-0.612809	0.228769
N169	N	-0.428381	-1.170074	-0.223778
N170	N	0.071619	-0.670074	0.276222
H171	H	-0.471394	-1.197476	-0.212116
H172	H	0.028606	-0.697476	0.287884
H173	H	-0.381132	-0.972516	-0.380756
H174	H	0.118868	-0.472516	0.119244
N175	N	-0.221778	-1.675955	-0.937590
N176	N	0.278222	-1.175955	-0.437590
N177	N	-0.221803	-1.675945	-0.878893
N178	N	0.278197	-1.175945	-0.378893
H179	H	-0.192769	-1.725070	-0.855185
H180	H	0.307231	-1.225070	-0.355185
H181	H	-0.230212	-1.661843	-0.662838
H182	H	0.269788	-1.161843	-0.162838
H183	H	-0.230070	-1.661853	-1.063676
H184	H	0.269930	-1.161853	-0.563676
N185	N	-0.384470	-1.400589	-1.070427
N186	N	0.115530	-0.900589	-0.570427
N187	N	-0.384443	-1.400595	-1.129124
N188	N	0.115557	-0.900595	-0.629124
H189	H	-0.413468	-1.351454	-1.152832
H190	H	0.086532	-0.851454	-0.652832
H191	H	-0.376182	-1.414704	-0.944348
H192	H	0.123818	-0.914704	-0.444348
H193	H	-0.662174	-1.661673	-0.230295
H194	H	-0.162174	-1.161673	0.269705
H195	H	-0.331554	-0.972023	-0.197230
H196	H	0.168446	-0.472023	0.302770
N197	N	-0.216567	-1.112953	-0.216724
N198	N	0.283433	-0.612953	0.283276
N199	N	-0.222271	-1.090163	-0.159872
N200	N	0.277729	-0.590163	0.340128
H201	H	-0.190755	-1.117652	-0.128389
H202	H	0.309245	-0.617652	0.371611
