data_functionalizedCrystal
_audit_creation_method	'MofGen! by Chris Wilmer'
_symmetry_space_group_name_H-M	'P1'
_symmetry_Int_Tables_number	1
_symmetry_cell_setting	triclinic
loop_
_symmetry_equiv_pos_as_xyz
  x,y,z
_cell_length_a	14.519709
_cell_length_b	10.654554
_cell_length_c	13.596369
_cell_angle_alpha	89.996051
_cell_angle_beta	89.993066
_cell_angle_gamma	84.083445
loop_
_atom_site_label
_atom_site_type_symbol
_atom_site_fract_x
_atom_site_fract_y
_atom_site_fract_z
O1	O	0.129554	1.666594	-0.081763
O2	O	0.629554	2.166594	0.418237
O3	O	0.141890	1.300997	-0.081772
O4	O	0.641890	1.800997	0.418228
O5	O	0.001534	1.493489	-0.081759
O6	O	0.501534	1.993489	0.418241
O7	O	0.269910	1.474102	-0.081777
O8	O	0.769910	1.974102	0.418223
O9	O	0.001526	1.493469	0.081824
O10	O	0.501526	1.993469	0.581824
O11	O	0.141883	1.300978	0.081811
O12	O	0.641883	1.800978	0.581811
O13	O	0.129546	1.666574	0.081820
O14	O	0.629546	2.166574	0.581820
Zn15	Zn	0.135713	1.483773	0.107788
Zn16	Zn	0.635713	1.983773	0.607788
Zn17	Zn	0.135723	1.483798	-0.107740
Zn18	Zn	0.635723	1.983798	0.392260
O19	O	0.269902	1.474083	0.081806
O20	O	0.769902	1.974083	0.581806
C21	C	0.140980	1.254198	0.000018
C22	C	0.640980	1.754198	0.500018
C23	C	0.138267	1.114782	0.000015
C24	C	0.638267	1.614782	0.500015
C25	C	0.218361	0.903503	0.000019
C26	C	0.718361	1.403503	0.500019
C27	C	0.220910	1.034500	0.000011
C28	C	0.720910	1.534500	0.500011
C29	C	0.053068	1.064061	0.000017
C30	C	0.553068	1.564061	0.500017
C31	C	0.050520	0.933066	0.000018
C32	C	0.550520	1.433066	0.500018
C33	C	0.301010	0.823227	0.000024
C34	C	0.801010	1.323227	0.500024
C35	C	0.386209	0.873939	0.000020
C36	C	0.886209	1.373939	0.500020
C37	C	0.388758	1.004936	0.000013
C38	C	0.888758	1.504936	0.500013
C39	C	0.306109	1.085221	0.000009
C40	C	0.806109	1.585221	0.500009
C41	C	-0.032835	1.492575	0.000033
C42	C	0.467165	1.992575	0.500033
C43	C	-0.135230	1.489868	0.000033
C44	C	0.364770	1.989868	0.500033
C45	C	-0.510177	1.479901	0.000008
C46	C	-0.010177	1.979901	0.500008
C47	C	-0.405855	1.482669	0.000015
C48	C	0.094145	1.982669	0.500015
C49	C	-0.322707	1.484884	0.000022
C50	C	0.177293	1.984884	0.500022
C51	C	-0.218378	1.487653	0.000027
C52	C	0.281622	1.987653	0.500027
C53	C	0.304271	1.474996	0.000012
C54	C	0.804271	1.974996	0.500012
C55	C	0.406666	1.477703	0.000005
C56	C	0.906666	1.977703	0.500005
C57	C	0.130456	1.713373	0.000027
C58	C	0.630456	2.213373	0.500027
C59	C	0.133169	1.852790	0.000024
C60	C	0.633169	2.352790	0.500024
N61	N	0.135706	1.483765	0.254879
N62	N	0.635706	1.983765	0.754879
N63	N	0.135723	1.483816	-0.254832
N64	N	0.635723	1.983816	0.245168
C65	C	0.135724	1.483797	0.656170
C66	C	0.635724	1.983797	1.156170
C67	C	0.135722	1.483784	0.544519
C68	C	0.635722	1.983784	1.044519
C69	C	0.135716	1.483781	0.455528
C70	C	0.635716	1.983781	0.955528
C71	C	0.135712	1.483768	0.343870
C72	C	0.635712	1.983768	0.843870
H73	H	0.308192	1.191886	-0.000018
H74	H	0.808192	1.691886	0.499982
Cl75	Cl	-0.056581	0.869307	0.000034
Cl76	Cl	0.443419	1.369307	0.500034
Cl77	Cl	0.495863	1.068685	-0.000005
Cl78	Cl	0.995863	1.568685	0.499995
Cl79	Cl	0.490104	0.773013	0.000012
Cl80	Cl	0.990104	1.273013	0.500012
Cl81	Cl	0.297811	0.658545	0.000038
Cl82	Cl	0.797811	1.158545	0.500038
Cl83	Cl	-0.050825	1.164990	0.000019
Cl84	Cl	0.449175	1.664990	0.500019
