data_functionalizedCrystal
_audit_creation_method	'MofGen! by Chris Wilmer'
_symmetry_space_group_name_H-M	'P1'
_symmetry_Int_Tables_number	1
_symmetry_cell_setting	triclinic
loop_
_symmetry_equiv_pos_as_xyz
  x,y,z
_cell_length_a	12.594517
_cell_length_b	19.077068
_cell_length_c	19.076919
_cell_angle_alpha	94.470751
_cell_angle_beta	87.719340
_cell_angle_gamma	87.673140
loop_
_atom_site_label
_atom_site_type_symbol
_atom_site_fract_x
_atom_site_fract_y
_atom_site_fract_z
Zn1	Zn	1.584210	0.296687	0.409856
Zn2	Zn	1.584078	0.409840	0.296701
Zn3	Zn	1.413675	0.291971	0.291986
Zn4	Zn	1.398715	0.414536	0.414544
O5	O	1.495169	0.353258	0.353272
O6	O	1.733137	0.311705	0.394858
O7	O	1.567679	0.390265	0.197428
O8	O	1.442612	0.193947	0.303686
O9	O	1.733040	0.394838	0.311723
O10	O	1.567904	0.197412	0.390285
O11	O	1.442485	0.303667	0.193964
O12	O	1.262746	0.308221	0.308231
O13	O	1.417116	0.402843	0.512569
O14	O	1.251755	0.398269	0.398274
O15	O	1.553398	0.316259	0.509125
O16	O	1.553174	0.509112	0.316268
O17	O	1.416988	0.512563	0.402847
C18	C	1.483471	0.536417	0.360593
C19	C	1.478562	0.614774	0.363749
C20	C	1.218631	0.353244	0.353250
C21	C	1.100324	0.353255	0.353259
C22	C	1.483603	0.360601	0.537140
C23	C	1.478674	0.363729	0.615494
C24	C	1.037016	0.304217	0.304371
C25	C	0.963220	0.367822	0.289607
C26	C	0.963318	0.289681	0.368036
C27	C	1.028086	0.416893	0.338462
C28	C	1.028191	0.338709	0.416919
C29	C	0.954423	0.402360	0.402181
C30	C	1.772788	0.353274	0.353294
C31	C	1.891092	0.353281	0.353303
C32	C	1.506942	0.169386	0.345937
C33	C	1.511958	0.091030	0.342811
C34	C	1.547211	0.649768	0.320192
C35	C	1.542600	0.723392	0.323164
C36	C	1.469335	0.762022	0.369690
C37	C	1.400683	0.727023	0.413252
C38	C	1.405300	0.653400	0.410283
C39	C	1.447923	0.982408	0.383404
C40	C	1.443309	1.056036	0.386368
C41	C	1.585229	1.052400	0.296281
C42	C	1.589835	0.978776	0.293313
C43	C	1.521187	0.943783	0.336877
N44	N	1.464618	0.837278	0.372728
N45	N	1.525910	0.868528	0.333843
C46	C	1.506756	0.345894	0.170116
C47	C	1.511903	0.342567	0.091755
C48	C	1.547309	0.320122	0.650513
C49	C	1.542665	0.323059	0.724135
C50	C	1.469390	0.369608	0.762736
C51	C	1.400747	0.413217	0.727712
C52	C	1.405387	0.410276	0.654092
C53	C	1.447900	0.383235	0.983110
C54	C	1.443268	0.386174	1.056736
C55	C	1.585185	0.296015	1.053153
C56	C	1.589823	0.293081	0.979532
C57	C	1.521176	0.336687	0.944514
N58	N	1.464643	0.372613	0.837990
N59	N	1.525918	0.333678	0.869262
H60	H	1.073086	0.262784	0.262982
O61	O	1.660964	0.941330	0.248026
C62	C	1.641067	0.956545	0.178478
H63	H	1.596888	1.009962	0.179148
H64	H	1.590472	0.914197	0.153029
C65	C	1.801619	0.892604	0.135160
C66	C	1.747365	0.958215	0.135981
H67	H	1.867187	0.893631	0.108944
H68	H	1.815022	0.882351	0.182015
H69	H	1.759445	0.857321	0.113953
H70	H	1.789533	0.993495	0.157195
H71	H	1.733971	0.968473	0.089129
O72	O	1.609369	0.280798	0.758239
C73	C	1.672874	0.322634	0.802428
H74	H	1.631225	0.376498	0.815580
H75	H	1.753051	0.329246	0.774383
C76	C	1.741353	0.220482	0.854664
C77	C	1.690194	0.286637	0.870822
H78	H	1.752041	0.198277	0.896852
H79	H	1.698572	0.192295	0.824891
H80	H	1.808161	0.226001	0.831292
H81	H	1.623382	0.281116	0.894185
H82	H	1.732964	0.314821	0.900601
O83	O	1.062442	0.324115	0.481125
C84	C	1.118810	0.381097	0.509913
H85	H	1.093055	0.431052	0.484885
H86	H	1.207763	0.369841	0.498965
C87	C	1.126648	0.329708	0.620698
C88	C	1.095008	0.391066	0.589962
H89	H	1.111970	0.335856	0.670076
H90	H	1.088675	0.291317	0.601302
H91	H	1.200774	0.320335	0.611567
H92	H	1.020881	0.400433	0.599085
H93	H	1.132968	0.429459	0.609361
H94	H	1.349400	0.624908	0.445752
O95	O	0.929394	0.225474	0.382846
C96	C	0.971662	0.173929	0.331136
H97	H	1.046540	0.193692	0.305068
H98	H	0.910330	0.163015	0.289739
C99	C	0.907570	0.081398	0.397805
C100	C	0.999542	0.105668	0.365791
H101	H	0.924763	0.039290	0.419180
H102	H	0.879090	0.116124	0.432642
H103	H	0.856469	0.072308	0.363301
H104	H	1.050636	0.114765	0.400296
H105	H	1.028031	0.070941	0.330961
O106	O	1.651749	0.253680	1.087280
C107	C	1.631963	0.266267	1.160537
H108	H	1.547713	0.289754	1.171504
H109	H	1.691380	0.304643	1.182935
C110	C	1.747376	0.167601	1.182019
C111	C	1.643894	0.196443	1.195489
H112	H	1.754740	0.124532	1.203581
H113	H	1.760709	0.159123	1.132665
H114	H	1.796878	0.199588	1.200684
H115	H	1.594396	0.164460	1.176817
H116	H	1.630553	0.204915	1.244842
O117	O	1.372110	1.093456	0.431633
C118	C	1.312494	1.046784	0.469438
H119	H	1.359221	0.994375	0.469788
H120	H	1.233796	1.037977	0.443268
C121	C	1.233168	1.142863	0.545182
C122	C	1.290563	1.078496	0.545617
H123	H	1.219634	1.162425	0.592172
H124	H	1.273329	1.174308	0.519711
H125	H	1.167593	1.135515	0.523370
H126	H	1.356141	1.085846	0.567420
H127	H	1.250412	1.047053	0.571093
H128	H	0.918545	0.443887	0.443544
H129	H	1.392025	0.953923	0.418874
H130	H	1.598501	0.751881	0.287695
H131	H	0.934584	0.380141	0.235790
H132	H	1.606867	0.618320	0.282303
O133	O	1.381123	0.425489	0.949057
C134	C	1.317654	0.383642	0.904853
H135	H	1.313237	0.329009	0.924831
H136	H	1.354238	0.378982	0.848966
C137	C	1.210296	0.485130	0.880537
C138	C	1.204864	0.418030	0.905078
H139	H	1.140723	0.506342	0.880673
H140	H	1.253059	0.513324	0.910316
H141	H	1.240787	0.481236	0.833967
H142	H	1.174386	0.421925	0.951651
H143	H	1.162094	0.389837	0.875307
H144	H	1.606981	0.282219	0.619089
O145	O	1.329544	0.764652	0.458386
C146	C	1.340203	0.837139	0.451679
H147	H	1.377919	0.845027	0.397704
H148	H	1.392891	0.859656	0.494368
C149	C	1.183400	0.865557	0.525891
C150	C	1.229715	0.875246	0.459595
H151	H	1.115248	0.889065	0.530777
H152	H	1.176220	0.816721	0.530412
H153	H	1.227318	0.884321	0.561457
H154	H	1.185805	0.856474	0.424030
H155	H	1.236885	0.924080	0.455068
O156	O	1.329711	0.458510	0.765243
C157	C	1.384709	0.505736	0.809663
H158	H	1.469656	0.509211	0.787660
H159	H	1.386257	0.486169	0.864590
C160	C	1.223609	0.574794	0.840734
C161	C	1.327941	0.579066	0.813707
H162	H	1.188591	0.620027	0.843232
H163	H	1.186555	0.542976	0.810810
H164	H	1.224914	0.558486	0.886504
H165	H	1.326634	0.595366	0.767934
H166	H	1.364994	0.610889	0.843623
O167	O	1.371987	0.431411	1.094127
C168	C	1.312410	0.469282	1.047434
H169	H	1.313873	0.438311	0.993803
H170	H	1.348447	0.522512	1.041741
C171	C	1.194874	0.518619	1.142436
C172	C	1.196665	0.480577	1.076567
H173	H	1.123479	0.525590	1.160407
H174	H	1.235015	0.493107	1.173895
H175	H	1.224911	0.562974	1.137683
H176	H	1.166641	0.436220	1.081321
H177	H	1.156516	0.506082	1.045109
H178	H	1.641119	1.080899	0.260815
H179	H	1.649494	0.255178	0.948107
O180	O	1.338833	0.452744	0.620104
C181	C	1.356453	0.523723	0.640910
H182	H	1.439977	0.528090	0.661308
H183	H	1.295512	0.543859	0.684366
C184	C	1.242613	0.562792	0.552330
C185	C	1.345201	0.568156	0.577377
H186	H	1.235668	0.590202	0.513141
H187	H	1.230738	0.514972	0.538313
H188	H	1.191840	0.579572	0.588549
H189	H	1.395972	0.551369	0.541161
H190	H	1.357085	0.615974	0.591386
O191	O	1.062165	0.481011	0.323475
C192	C	1.174146	0.480220	0.323622
H193	H	1.207507	0.423718	0.313620
H194	H	1.199850	0.503327	0.376890
C195	C	1.175708	0.593862	0.277623
C196	C	1.216683	0.524466	0.265331
H197	H	1.201948	0.621157	0.241669
H198	H	1.100264	0.594397	0.277526
H199	H	1.197131	0.613108	0.322014
H200	H	1.195249	0.505218	0.220945
H201	H	1.292125	0.523929	0.265419
