data_functionalizedCrystal
_audit_creation_method	'MofGen! by Chris Wilmer'
_symmetry_space_group_name_H-M	'P1'
_symmetry_Int_Tables_number	1
_symmetry_cell_setting	triclinic
loop_
_symmetry_equiv_pos_as_xyz
  x,y,z
_cell_length_a	16.109302
_cell_length_b	8.559649
_cell_length_c	15.186229
_cell_angle_alpha	89.998040
_cell_angle_beta	89.994701
_cell_angle_gamma	76.620223
loop_
_atom_site_label
_atom_site_type_symbol
_atom_site_fract_x
_atom_site_fract_y
_atom_site_fract_z
O1	O	1.090045	0.205395	-0.073263
O2	O	1.590045	0.705395	0.426737
O3	O	0.846354	0.230954	-0.073256
O4	O	1.346354	0.730954	0.426744
O5	O	0.989669	-0.014439	-0.073259
O6	O	1.489669	0.485561	0.426741
O7	O	0.946730	0.450787	-0.073260
O8	O	1.446730	0.950787	0.426740
O9	O	0.989661	-0.014442	0.073198
O10	O	1.489661	0.485558	0.573198
O11	O	0.846346	0.230950	0.073201
O12	O	1.346346	0.730950	0.573201
O13	O	1.090036	0.205391	0.073194
O14	O	1.590036	0.705391	0.573194
Zn15	Zn	0.968190	0.218170	0.096451
Zn16	Zn	1.468190	0.718170	0.596451
Zn17	Zn	0.968201	0.218175	-0.096513
Zn18	Zn	1.468201	0.718175	0.403487
O19	O	0.946722	0.450784	0.073197
O20	O	1.446722	0.950784	0.573197
C21	C	0.815441	0.229917	-0.000026
C22	C	1.315441	0.729917	0.499974
C23	C	0.723344	0.226812	-0.000024
C24	C	1.223344	0.726812	0.499976
C25	C	0.511456	0.219631	0.079801
C26	C	1.011456	0.719631	0.579801
C27	C	0.424923	0.216697	0.079798
C28	C	0.924923	0.716697	0.579798
C29	C	0.424942	0.216709	-0.079877
C30	C	0.924942	0.716709	0.420123
C31	C	0.511475	0.219632	-0.079873
C32	C	1.011475	0.719632	0.420127
C33	C	0.554728	0.221101	-0.000031
C34	C	1.054728	0.721101	0.499969
C35	C	0.381662	0.215244	-0.000038
C36	C	0.881662	0.715244	0.499962
C37	C	0.287839	0.212063	-0.000042
C38	C	0.787839	0.712063	0.499958
C39	C	0.648558	0.224280	-0.000027
C40	C	1.148558	0.724280	0.499973
C41	C	0.992919	-0.073972	-0.000032
C42	C	1.492919	0.426028	0.499968
C43	C	1.002605	-0.251357	-0.000038
C44	C	1.502605	0.248643	0.499962
C45	C	1.120949	0.206428	-0.000038
C46	C	1.620949	0.706428	0.499962
C47	C	1.213047	0.209533	-0.000046
C48	C	1.713047	0.709533	0.499954
C49	C	0.943472	0.510317	-0.000031
C50	C	1.443472	1.010317	0.499969
C51	C	0.933786	0.687702	-0.000032
C52	C	1.433786	1.187702	0.499968
N53	N	0.968189	0.218166	0.228144
N54	N	1.468189	0.718166	0.728144
N55	N	0.968210	0.218166	-0.228206
N56	N	1.468210	0.718166	0.271794
C57	C	1.031665	0.109543	0.453865
C58	C	1.531665	0.609543	0.953865
C59	C	1.031668	0.109539	0.546055
C60	C	1.531668	0.609539	1.046055
C61	C	0.904727	0.326795	0.546067
C62	C	1.404727	0.826795	1.046067
C63	C	0.904721	0.326790	0.453879
C64	C	1.404721	0.826790	0.953879
C65	C	0.968195	0.218165	0.407780
C66	C	1.468195	0.718165	0.907780
C67	C	0.968203	0.218167	0.592158
C68	C	1.468203	0.718167	1.092158
C69	C	0.968206	0.218164	0.692114
C70	C	1.468206	0.718164	1.192114
C71	C	0.968192	0.218166	0.307818
C72	C	1.468192	0.718166	0.807818
H73	H	0.389694	0.215501	0.144806
H74	H	0.889694	0.715501	0.644806
N75	N	0.845919	-0.201677	-0.000037
N76	N	1.345919	0.298323	0.499963
H77	H	0.813832	-0.222255	0.054258
H78	H	1.313832	0.277745	0.554258
H79	H	0.851286	-0.086434	-0.000075
H80	H	1.351286	0.413566	0.499925
H81	H	0.546670	0.220828	0.144814
H82	H	1.046670	0.720828	0.644814
N83	N	1.090474	-0.361997	-0.000026
N84	N	1.590474	0.138003	0.499974
H85	H	1.085174	-0.477284	-0.000019
H86	H	1.585174	0.022716	0.499981
H87	H	1.122519	-0.341292	-0.054321
H88	H	1.622519	0.158708	0.445679
H89	H	0.546709	0.220824	-0.144887
H90	H	1.046709	0.720824	0.355113
H91	H	0.853032	0.415244	0.416354
H92	H	1.353032	0.915244	0.916354
H93	H	1.083348	0.021092	0.416334
H94	H	1.583348	0.521092	0.916334
N95	N	1.100135	-0.007596	0.595761
N96	N	1.600135	0.492404	1.095761
H97	H	1.140345	-0.076396	0.552566
H98	H	1.640345	0.423604	1.052566
H99	H	1.132973	0.053629	0.633996
H100	H	1.632973	0.553629	1.133996
N101	N	0.836269	0.443949	0.595787
N102	N	1.336269	0.943949	1.095787
H103	H	0.845903	0.427475	0.661181
H104	H	1.345903	0.927475	1.161181
H105	H	0.838631	0.557312	0.579667
H106	H	1.338631	1.057312	1.079667
H107	H	0.389714	0.215515	-0.144882
H108	H	0.889714	0.715515	0.355118
