data_functionalizedCrystal
_audit_creation_method	'MofGen! by Chris Wilmer'
_symmetry_space_group_name_H-M	'P1'
_symmetry_Int_Tables_number	1
_symmetry_cell_setting	triclinic
loop_
_symmetry_equiv_pos_as_xyz
  x,y,z
_cell_length_a	12.759401
_cell_length_b	29.839131
_cell_length_c	12.759393
_cell_angle_alpha	89.955439
_cell_angle_beta	89.981816
_cell_angle_gamma	90.035460
loop_
_atom_site_label
_atom_site_type_symbol
_atom_site_fract_x
_atom_site_fract_y
_atom_site_fract_z
Zn1	Zn	1.606091	-0.178828	-0.593911
Zn2	Zn	1.605926	-0.253966	-0.418188
Zn3	Zn	1.430397	-0.178851	-0.418247
Zn4	Zn	1.430318	-0.253932	-0.593826
O5	O	1.518183	-0.216394	-0.506043
O6	O	1.753090	-0.188800	-0.570611
O7	O	1.582606	-0.244025	-0.271174
O8	O	1.453805	-0.115981	-0.441609
O9	O	1.752969	-0.244003	-0.441509
O10	O	1.582886	-0.115964	-0.570668
O11	O	1.453646	-0.188838	-0.271218
O12	O	1.283366	-0.188806	-0.441527
O13	O	1.453671	-0.243947	-0.740858
O14	O	1.283308	-0.243968	-0.570524
O15	O	1.582810	-0.188768	-0.740920
O16	O	1.582530	-0.316828	-0.441427
O17	O	1.453512	-0.316804	-0.570467
C18	C	1.245216	-0.216386	-0.506023
C19	C	1.128439	-0.216394	-0.506040
C20	C	1.073518	-0.245092	-0.438724
C21	C	0.963794	-0.245099	-0.438742
C22	C	0.963922	-0.187707	-0.573395
C23	C	1.073644	-0.187702	-0.573381
C24	C	1.073443	-0.278225	-0.360980
C25	C	0.963719	-0.278233	-0.360999
C26	C	1.518023	-0.333117	-0.505954
C27	C	1.518050	-0.383051	-0.505951
C28	C	1.585381	-0.692651	-0.573340
C29	C	1.585495	-0.880324	-0.573403
O30	O	1.642585	-0.904552	-0.630633
N31	N	1.518362	-0.903836	-0.506159
C32	C	1.451190	-0.880427	-0.438900
O33	O	1.394083	-0.904732	-0.381714
C34	C	1.451071	-0.692755	-0.438843
C35	C	1.518217	-0.669245	-0.506083
C36	C	1.652520	-0.669142	-0.640576
C37	C	1.652495	-0.622226	-0.640555
C38	C	1.585331	-0.598820	-0.573299
C39	C	1.518192	-0.622330	-0.506063
C40	C	1.383895	-0.669347	-0.371590
C41	C	1.383869	-0.622426	-0.371583
C42	C	1.451015	-0.598916	-0.438824
C43	C	1.451002	-0.552009	-0.438786
N44	N	1.518136	-0.528497	-0.506030
C45	C	1.585300	-0.551903	-0.573286
C46	C	1.451258	-0.978958	-0.438933
C47	C	1.451289	-1.025876	-0.438946
C48	C	1.585593	-1.025769	-0.573451
C49	C	1.585567	-0.978851	-0.573432
C50	C	1.518392	-0.955446	-0.506177
C51	C	1.585243	-0.453377	-0.573237
C52	C	1.585215	-0.406457	-0.573208
C53	C	1.450907	-0.406567	-0.438708
C54	C	1.450939	-0.453483	-0.438733
C55	C	1.518110	-0.476886	-0.506006
O56	O	1.393934	-0.527752	-0.381594
O57	O	1.642381	-0.527590	-0.630480
C58	C	1.585406	-0.739567	-0.573360
C59	C	1.518267	-0.763076	-0.506124
C60	C	1.451103	-0.739671	-0.438868
C61	C	1.518298	-0.809994	-0.506137
C62	C	1.585462	-0.833400	-0.573394
C63	C	1.652596	-0.809888	-0.640637
C64	C	1.652571	-0.762972	-0.640617
C65	C	1.383969	-0.763183	-0.371624
C66	C	1.384001	-0.810098	-0.371650
C67	C	1.451165	-0.833504	-0.438906
C68	C	1.792216	-0.216403	-0.506063
C69	C	1.908993	-0.216406	-0.506072
C70	C	1.518250	-0.216351	-0.780076
C71	C	1.518278	-0.216333	-0.896853
C72	C	1.518373	-0.099216	-0.506155
C73	C	1.518453	-0.049281	-0.506202
C74	C	1.585478	-0.245037	-1.061413
C75	C	1.585439	-0.245056	-0.951689
C76	C	1.451145	-0.187591	-0.951746
C77	C	1.451180	-0.187574	-1.061469
C78	C	1.663015	-0.278213	-1.061379
C79	C	1.662976	-0.278232	-0.951655
C80	C	1.518177	-0.216405	-0.233075
C81	C	1.518352	-0.216297	-0.116299
H82	H	1.118357	-0.164338	-0.628206
H83	H	1.396272	-0.472625	-0.383972
H84	H	1.744350	-0.268917	-0.921885
H85	H	1.103187	-0.313030	-0.382606
C86	C	0.903643	-0.156145	-0.647459
C87	C	0.828225	-0.175658	-0.729863
C88	C	0.767948	-0.144094	-0.803927
C89	C	0.783089	-0.093017	-0.795588
C90	C	0.858510	-0.073501	-0.713181
C91	C	0.918787	-0.105065	-0.639116
H92	H	0.817014	-0.213470	-0.736039
H93	H	0.712117	-0.158541	-0.864930
H94	H	0.738468	-0.069652	-0.850415
H95	H	0.869721	-0.035689	-0.707004
H96	H	0.974618	-0.090618	-0.578113
H97	H	1.633792	-0.311294	-0.917593
H98	H	1.396508	-0.164176	-1.106153
H99	H	1.707168	-0.603087	-0.695311
C100	C	1.119405	-0.261338	-0.256636
C101	C	1.045742	-0.246871	-0.167239
C102	C	1.091705	-0.229983	-0.062894
C103	C	1.211330	-0.227562	-0.047946
C104	C	1.284999	-0.242029	-0.137345
C105	C	1.239037	-0.258917	-0.241690
H106	H	0.957182	-0.248663	-0.178302
H107	H	1.037169	-0.219274	0.003285
H108	H	1.245354	-0.215061	0.029296
H109	H	1.373559	-0.240237	-0.126282
H110	H	1.293572	-0.269626	-0.307869
C111	C	1.377023	-0.380814	-0.364736
C112	C	1.422567	-0.348569	-0.282288
C113	C	1.348674	-0.322814	-0.208326
C114	C	1.229238	-0.329303	-0.216812
C115	C	1.183687	-0.361549	-0.299264
C116	C	1.257580	-0.387304	-0.373226
H117	H	1.510987	-0.343765	-0.276003
H118	H	1.382395	-0.298943	-0.147289
H119	H	1.174538	-0.310237	-0.162061
H120	H	1.095267	-0.366354	-0.305549
H121	H	1.223860	-0.411175	-0.434263
C122	C	1.377263	-0.155996	-0.891429
C123	C	1.385921	-0.104922	-0.906563
C124	C	1.312038	-0.073325	-0.846248
C125	C	1.229498	-0.092802	-0.770800
C126	C	1.220838	-0.143879	-0.755663
C127	C	1.294720	-0.175475	-0.815978
H128	H	1.447024	-0.090501	-0.962417
H129	H	1.318450	-0.035515	-0.857454
H130	H	1.174806	-0.069413	-0.726151
H131	H	1.159734	-0.158299	-0.699808
H132	H	1.288308	-0.213286	-0.804772
H133	H	1.707247	-0.743834	-0.695370
C134	C	1.633489	-0.325206	-1.101570
C135	C	1.609646	-0.363107	-1.023111
C136	C	1.580110	-0.410098	-1.063301
C137	C	1.574417	-0.419187	-1.181950
C138	C	1.598262	-0.381284	-1.260417
C139	C	1.627797	-0.334294	-1.220226
H140	H	1.613859	-0.356380	-0.935273
H141	H	1.562459	-0.438156	-1.005214
H142	H	1.552553	-0.453972	-1.211702
H143	H	1.594048	-0.388011	-1.348255
H144	H	1.645449	-0.306236	-1.278313
H145	H	1.329218	-0.688480	-0.316835
H146	H	0.929663	-0.311303	-0.389992
H147	H	1.396624	-1.045013	-0.384181
C148	C	0.923441	-0.265586	-0.251146
C149	C	0.854084	-0.223830	-0.236653
C150	C	0.813804	-0.211182	-0.126806
C151	C	0.842881	-0.240291	-0.031452
C152	C	0.912241	-0.282049	-0.045941
C153	C	0.952521	-0.294697	-0.155788
H154	H	0.832556	-0.202279	-0.307243
H155	H	0.762459	-0.180269	-0.116081
H156	H	0.813063	-0.230928	0.049863
H157	H	0.933769	-0.303600	0.024649
H158	H	1.003866	-0.325610	-0.166513
H159	H	1.707214	-0.688194	-0.695350
C160	C	1.659421	-0.952992	-0.647403
C161	C	1.741915	-0.920723	-0.601951
C162	C	1.815770	-0.894867	-0.675928
C163	C	1.807130	-0.901281	-0.795357
C164	C	1.724632	-0.933551	-0.840815
C165	C	1.650778	-0.959407	-0.766838
H166	H	1.748314	-0.915975	-0.513538
H167	H	1.876840	-0.870979	-0.642277
H168	H	1.861802	-0.882141	-0.850119
H169	H	1.718234	-0.938300	-0.929229
H170	H	1.589707	-0.983296	-0.800490
C171	C	1.659074	-0.380597	-0.647182
C172	C	1.732946	-0.406347	-0.721167
C173	C	1.806800	-0.380489	-0.795141
C174	C	1.806783	-0.328881	-0.795129
C175	C	1.732908	-0.303128	-0.721140
C176	C	1.659054	-0.328986	-0.647167
H177	H	1.732961	-0.444553	-0.721178
H178	H	1.861486	-0.399553	-0.849912
H179	H	1.861454	-0.309739	-0.849888
H180	H	1.732893	-0.264923	-0.721129
H181	H	1.604367	-0.309922	-0.592396
C182	C	1.659136	-0.479116	-0.647231
C183	C	1.778571	-0.472619	-0.638749
C184	C	1.852469	-0.498359	-0.712736
C185	C	1.806932	-0.530595	-0.795206
C186	C	1.687491	-0.537094	-0.803692
C187	C	1.613593	-0.511354	-0.729705
H188	H	1.812285	-0.448755	-0.577697
H189	H	1.940887	-0.493548	-0.706454
H190	H	1.861636	-0.549649	-0.849976
H191	H	1.653777	-0.560958	-0.864744
H192	H	1.525175	-0.516165	-0.735987
H193	H	1.640282	-1.044834	-0.628212
H194	H	1.396555	-0.959905	-0.384164
C195	C	1.309977	-0.596681	-0.297597
C196	C	1.318618	-0.603178	-0.178171
C197	C	1.244729	-0.577434	-0.104184
C198	C	1.162198	-0.545192	-0.149623
C199	C	1.153553	-0.538693	-0.269055
C200	C	1.227443	-0.564437	-0.343042
H201	H	1.379715	-0.627047	-0.144529
H202	H	1.251129	-0.582245	-0.015773
H203	H	1.107501	-0.526134	-0.094854
H204	H	1.092456	-0.514824	-0.302697
H205	H	1.221043	-0.559626	-0.431454
C206	C	1.310131	-0.835955	-0.297680
C207	C	1.318752	-0.829547	-0.178248
C208	C	1.244876	-0.855402	-0.104290
C209	C	1.162379	-0.887664	-0.149763
C210	C	1.153754	-0.894073	-0.269201
C211	C	1.227630	-0.868218	-0.343159
H212	H	1.379825	-0.805664	-0.144580
H213	H	1.251261	-0.850657	-0.015874
H214	H	1.107691	-0.906803	-0.095015
H215	H	1.092681	-0.917956	-0.302869
H216	H	1.221245	-0.872963	-0.431575
C217	C	1.310088	-0.737442	-0.297629
C218	C	1.318748	-0.743947	-0.178207
C219	C	1.244866	-0.718209	-0.104201
C220	C	1.162324	-0.685966	-0.149616
C221	C	1.153660	-0.679460	-0.269045
C222	C	1.227542	-0.705198	-0.343051
H223	H	1.379854	-0.767816	-0.144582
H224	H	1.251280	-0.723025	-0.015791
H225	H	1.107632	-0.666914	-0.094832
H226	H	1.092554	-0.655591	-0.302670
H227	H	1.221128	-0.700382	-0.431460
H228	H	1.740339	-0.265747	-1.095425
H229	H	1.707287	-0.828953	-0.695396
