data_functionalizedCrystal
_audit_creation_method	'MofGen! by Chris Wilmer'
_symmetry_space_group_name_H-M	'P1'
_symmetry_Int_Tables_number	1
_symmetry_cell_setting	triclinic
loop_
_symmetry_equiv_pos_as_xyz
  x,y,z
_cell_length_a	10.654556
_cell_length_b	19.188924
_cell_length_c	17.666332
_cell_angle_alpha	90.003714
_cell_angle_beta	90.007016
_cell_angle_gamma	83.814687
loop_
_atom_site_label
_atom_site_type_symbol
_atom_site_fract_x
_atom_site_fract_y
_atom_site_fract_z
O1	O	1.665761	0.098079	0.062960
O2	O	1.300086	0.107417	0.062960
O3	O	1.493481	0.001161	0.062951
O4	O	1.472367	0.204335	0.062969
O5	O	1.493455	0.001165	-0.062946
O6	O	1.300060	0.107421	-0.062937
O7	O	1.665736	0.098082	-0.062937
Cu8	Cu	1.482896	0.102752	-0.074432
Cu9	Cu	1.482926	0.102748	0.074455
O10	O	1.472341	0.204338	-0.062928
C11	C	1.253290	0.106732	0.000012
C12	C	1.113891	0.104678	0.000011
C13	C	0.917436	0.101786	0.068644
C14	C	1.048417	0.103712	0.068640
C15	C	1.048377	0.103712	-0.068619
C16	C	0.917400	0.101781	-0.068615
C17	C	0.917459	0.101789	0.147889
C18	C	1.048440	0.103715	0.147886
C19	C	1.492786	-0.024852	0.000002
C20	C	1.490738	-0.102371	-0.000000
C21	C	1.489796	-0.138778	0.068626
C22	C	1.487853	-0.211613	0.068632
C23	C	1.486878	-0.248040	0.000008
C24	C	1.487813	-0.211624	-0.068628
C25	C	1.489743	-0.138789	-0.068632
N26	N	1.555300	-0.367254	-0.051068
N27	N	1.553470	-0.436444	-0.051060
C28	C	1.481061	-0.467488	0.000015
N29	N	1.410568	-0.426728	0.051093
N30	N	1.412404	-0.357532	0.051086
C31	C	1.484785	-0.327018	0.000004
C32	C	1.478012	-0.582871	0.068652
C33	C	1.476061	-0.655707	0.068655
C34	C	1.476034	-0.655718	-0.068607
C35	C	1.477971	-0.582882	-0.068608
C36	C	1.478966	-0.546464	0.000024
C37	C	1.712532	0.098767	0.000013
C38	C	1.851931	0.100821	0.000018
C39	C	1.473036	0.230352	0.000023
C40	C	1.475084	0.307870	0.000030
N41	N	1.482884	0.102754	-0.179152
C42	C	1.558873	0.145473	-0.781197
C43	C	1.558860	0.145480	-0.701949
C44	C	1.482938	0.102741	-0.662333
C45	C	1.406998	0.060005	-0.701971
C46	C	1.407003	0.060004	-0.781217
N47	N	1.479900	0.041560	-0.537914
N48	N	1.479902	0.041562	-0.462633
C49	C	1.482915	0.102741	-0.423569
N50	N	1.485951	0.163917	-0.462629
N51	N	1.485955	0.163914	-0.537917
C52	C	1.482923	0.102737	-0.576404
C53	C	1.558830	0.145485	-0.298012
C54	C	1.558808	0.145493	-0.218762
C55	C	1.406953	0.060012	-0.218785
C56	C	1.406968	0.060010	-0.298033
C57	C	1.482913	0.102745	-0.337641
N58	N	1.482948	0.102740	0.179175
H59	H	1.101698	0.104493	-0.124498
H60	H	1.490602	-0.109130	0.124512
H61	H	1.490505	-0.109147	-0.124518
O62	O	1.632549	0.187089	-0.663526
C63	C	1.597360	0.257782	-0.682868
H64	H	1.548647	0.260537	-0.740411
H65	H	1.529852	0.283150	-0.638270
C66	C	1.775747	0.293629	-0.615832
C67	C	1.715927	0.297013	-0.686511
H68	H	1.848883	0.317831	-0.618076
H69	H	1.799453	0.246003	-0.602799
H70	H	1.719478	0.314769	-0.578675
H71	H	1.772191	0.275866	-0.723664
H72	H	1.692233	0.344638	-0.699551
O73	O	1.479216	-0.547482	0.135303
C74	C	1.589071	-0.512735	0.139391
H75	H	1.664455	-0.539847	0.100430
H76	H	1.565962	-0.455862	0.120967
C77	C	1.545871	-0.481680	0.269228
C78	C	1.638462	-0.514984	0.221380
H79	H	1.576336	-0.483063	0.319802
H80	H	1.471857	-0.505087	0.266473
H81	H	1.526622	-0.434288	0.253865
H82	H	1.657699	-0.562376	0.236737
H83	H	1.712481	-0.491584	0.224139
O84	O	1.474892	-0.691152	-0.135226
C85	C	1.365010	-0.725875	-0.139330
H86	H	1.328504	-0.734327	-0.079740
H87	H	1.289602	-0.692626	-0.173181
C88	C	1.440997	-0.786919	-0.251771
C89	C	1.396166	-0.797306	-0.178581
H90	H	1.460212	-0.830980	-0.275985
H91	H	1.515025	-0.763524	-0.249008
H92	H	1.378149	-0.759209	-0.279970
H93	H	1.459019	-0.825007	-0.150380
H94	H	1.322149	-0.820708	-0.181340
H95	H	1.620633	0.180296	-0.186498
H96	H	1.101206	0.053990	0.172472
H97	H	1.487078	-0.241261	0.124518
H98	H	1.475288	-0.685348	0.124541
H99	H	1.487016	-0.241288	-0.124503
H100	H	1.620711	0.180273	-0.813441
H101	H	1.072234	0.153015	0.178309
H102	H	0.893686	0.052493	0.178315
O103	O	1.478960	-0.547625	-0.135340
C104	C	1.477654	-0.595390	-0.195911
H105	H	1.516024	-0.650007	-0.175788
H106	H	1.376723	-0.596298	-0.217016
C107	C	1.513612	-0.505481	-0.285463
C108	C	1.560748	-0.572561	-0.260750
H109	H	1.564863	-0.491398	-0.325461
H110	H	1.514488	-0.473300	-0.244657
H111	H	1.429504	-0.506246	-0.303046
H112	H	1.644849	-0.571793	-0.243159
H113	H	1.559889	-0.604742	-0.301555
O114	O	1.333173	0.018587	-0.663409
C115	C	1.247232	0.060720	-0.617588
H116	H	1.286027	0.112724	-0.605707
H117	H	1.152783	0.070924	-0.648137
C118	C	1.180887	-0.041164	-0.556910
C119	C	1.228540	0.022707	-0.542313
H120	H	1.169351	-0.064612	-0.510478
H121	H	1.238783	-0.069550	-0.587782
H122	H	1.102184	-0.032651	-0.582370
H123	H	1.307248	0.014193	-0.516862
H124	H	1.170656	0.051091	-0.511435
O125	O	0.854313	0.161069	0.177181
C126	C	0.723445	0.155569	0.175468
H127	H	0.702212	0.116110	0.130245
H128	H	0.691630	0.137218	0.233054
C129	C	0.678230	0.276115	0.212444
C130	C	0.652150	0.227655	0.156895
H131	H	0.634250	0.320581	0.200990
H132	H	0.766398	0.279820	0.213600
H133	H	0.651717	0.260814	0.260427
H134	H	0.678677	0.242952	0.108915
H135	H	0.563985	0.223954	0.155730
O136	O	1.333220	0.018424	-0.819600
C137	C	1.266171	-0.019285	-0.767647
H138	H	1.318165	-0.023091	-0.711150
H139	H	1.167443	0.008970	-0.759232
C140	C	1.192204	-0.088827	-0.867972
C141	C	1.256069	-0.093507	-0.798583
H142	H	1.185966	-0.134610	-0.887056
H143	H	1.237371	-0.063421	-0.902975
H144	H	1.109937	-0.065279	-0.860950
H145	H	1.338339	-0.117047	-0.805608
H146	H	1.210915	-0.118919	-0.763583
O147	O	1.333110	0.018599	-0.180234
C148	C	1.247164	0.060740	-0.134425
H149	H	1.285969	0.112741	-0.122540
H150	H	1.152726	0.070951	-0.164985
C151	C	1.180769	-0.041133	-0.073752
C152	C	1.228436	0.022733	-0.059150
H153	H	1.169211	-0.064579	-0.027321
H154	H	1.238669	-0.069525	-0.104617
H155	H	1.102076	-0.032615	-0.099221
H156	H	1.307134	0.014213	-0.033691
H157	H	1.170548	0.051123	-0.028280
H158	H	1.620663	0.180286	-0.330262
O159	O	1.333371	0.018389	-0.336500
C160	C	1.368535	-0.052299	-0.317125
H161	H	1.469835	-0.058527	-0.295328
H162	H	1.302789	-0.068845	-0.271136
C163	C	1.234501	-0.091100	-0.414298
C164	C	1.358923	-0.098750	-0.387533
H165	H	1.228567	-0.119754	-0.457728
H166	H	1.210806	-0.043476	-0.427350
H167	H	1.179727	-0.104888	-0.375967
H168	H	1.413693	-0.084954	-0.425860
H169	H	1.382627	-0.146373	-0.374489
O170	O	0.853956	0.100871	-0.135345
C171	C	0.939834	0.102115	-0.195920
H172	H	1.027883	0.125558	-0.175804
H173	H	0.967245	0.046406	-0.217019
C174	C	0.769534	0.118267	-0.285467
C175	C	0.877672	0.147066	-0.260761
H176	H	0.731189	0.145992	-0.325466
H177	H	0.711675	0.117426	-0.244657
H178	H	0.792391	0.071843	-0.303044
H179	H	0.854812	0.193485	-0.243176
H180	H	0.935526	0.147915	-0.301570
