data_functionalizedCrystal
_audit_creation_method	'MofGen! by Chris Wilmer'
_symmetry_space_group_name_H-M	'P1'
_symmetry_Int_Tables_number	1
_symmetry_cell_setting	triclinic
loop_
_symmetry_equiv_pos_as_xyz
  x,y,z
_cell_length_a	12.827893
_cell_length_b	25.639239
_cell_length_c	12.827885
_cell_angle_alpha	89.964018
_cell_angle_beta	89.980728
_cell_angle_gamma	90.038657
loop_
_atom_site_label
_atom_site_type_symbol
_atom_site_fract_x
_atom_site_fract_y
_atom_site_fract_z
Zn1	Zn	1.597500	-0.208126	-0.590804
Zn2	Zn	1.597324	-0.295571	-0.416045
Zn3	Zn	1.422742	-0.208151	-0.416077
Zn4	Zn	1.422656	-0.295532	-0.590745
O5	O	1.510055	-0.251845	-0.503418
O6	O	1.743713	-0.219731	-0.567633
O7	O	1.574127	-0.284002	-0.269813
O8	O	1.446034	-0.134983	-0.439293
O9	O	1.743583	-0.283977	-0.439238
O10	O	1.574428	-0.134964	-0.567664
O11	O	1.445862	-0.219775	-0.269837
O12	O	1.276494	-0.219737	-0.439236
O13	O	1.445888	-0.283911	-0.736989
O14	O	1.276431	-0.283935	-0.567564
O15	O	1.574345	-0.219694	-0.737032
O16	O	1.574044	-0.368731	-0.439181
O17	O	1.445716	-0.368702	-0.567533
C18	C	1.238546	-0.251835	-0.503398
C19	C	1.122392	-0.251843	-0.503414
C20	C	1.070604	-0.283660	-0.566817
C21	C	0.950554	-0.283670	-0.566835
C22	C	1.509880	-0.387688	-0.503370
C23	C	1.509900	-0.445802	-0.503384
C24	C	1.577050	-0.806167	-0.436699
C25	C	1.577090	-0.860771	-0.436713
O26	O	1.634001	-0.889010	-0.379962
N27	N	1.510239	-0.888084	-0.503487
C28	C	1.443350	-0.860790	-0.570259
O29	O	1.386493	-0.889035	-0.627057
C30	C	1.443316	-0.806186	-0.570249
C31	C	1.510164	-0.778876	-0.503463
C32	C	1.643893	-0.778857	-0.369920
C33	C	1.643851	-0.724256	-0.369904
C34	C	1.576966	-0.696966	-0.436669
C35	C	1.510122	-0.724276	-0.503448
C36	C	1.376433	-0.778893	-0.637026
C37	C	1.376405	-0.724286	-0.637011
C38	C	1.443253	-0.696976	-0.570225
C39	C	1.443194	-0.642385	-0.570198
N40	N	1.510045	-0.615072	-0.503424
C41	C	1.576931	-0.642363	-0.436659
C42	C	1.443429	-0.975460	-0.570275
C43	C	1.443458	-1.030063	-0.570280
C44	C	1.577199	-1.030040	-0.436735
C45	C	1.577165	-0.975437	-0.436726
C46	C	1.510281	-0.948148	-0.503501
C47	C	1.576837	-0.527698	-0.436632
C48	C	1.576786	-0.473092	-0.436620
C49	C	1.443049	-0.473119	-0.570168
C50	C	1.443095	-0.527720	-0.570177
C51	C	1.509998	-0.555008	-0.503405
O52	O	1.386315	-0.614112	-0.626923
O53	O	1.633789	-0.614110	-0.379880
C54	C	1.782626	-0.251856	-0.503438
C55	C	1.898779	-0.251860	-0.503447
C56	C	1.510127	-0.251795	-0.775988
C57	C	1.510157	-0.251773	-0.892141
C58	C	1.510260	-0.115472	-0.503489
C59	C	1.510348	-0.057358	-0.503519
C60	C	1.573729	-0.219991	-0.943947
C61	C	1.573761	-0.219968	-1.063998
C62	C	1.510045	-0.251857	-0.231908
C63	C	1.510217	-0.251731	-0.115755
H64	H	1.631221	-0.450858	-0.382231
H65	H	1.455748	-0.278964	-0.936665
Br66	Br	1.352716	-1.067119	-0.660906
Br67	Br	1.144827	-0.329054	-0.657270
H68	H	1.631318	-0.549909	-0.382263
Br69	Br	0.972995	-0.206459	-0.412957
Br70	Br	0.876330	-0.329078	-0.657305
Br71	Br	1.734594	-0.687201	-0.279277
Br72	Br	1.664376	-0.174648	-0.869749
H73	H	1.628191	-0.192759	-1.108550
H74	H	1.077854	-0.224608	-0.449151
H75	H	1.698366	-0.801071	-0.315552
Br76	Br	1.667889	-0.938379	-0.346084
H77	H	1.631665	-1.052270	-0.382375
Br78	Br	1.352642	-0.938430	-0.660901
Br79	Br	1.285716	-0.815943	-0.727681
H80	H	1.321941	-0.702069	-0.691391
Br81	Br	1.352347	-0.564785	-0.660790
Br82	Br	1.352284	-0.436072	-0.660777
Br83	Br	1.419503	-0.297093	-1.041513
