data_functionalizedCrystal
_audit_creation_method	'MofGen! by Chris Wilmer'
_symmetry_space_group_name_H-M	'P1'
_symmetry_Int_Tables_number	1
_symmetry_cell_setting	triclinic
loop_
_symmetry_equiv_pos_as_xyz
  x,y,z
_cell_length_a	13.897449
_cell_length_b	13.897447
_cell_length_c	12.759393
_cell_angle_alpha	90.029275
_cell_angle_beta	89.979470
_cell_angle_gamma	89.977525
loop_
_atom_site_label
_atom_site_type_symbol
_atom_site_fract_x
_atom_site_fract_y
_atom_site_fract_z
Zn1	Zn	1.474677	0.383925	-0.594055
Zn2	Zn	1.974677	0.883925	-0.094055
Zn3	Zn	1.474562	0.545254	-0.418382
Zn4	Zn	1.974562	1.045254	0.081618
Zn5	Zn	1.313367	0.383979	-0.418388
Zn6	Zn	1.813367	0.883979	0.081612
Zn7	Zn	1.313338	0.545183	-0.594017
Zn8	Zn	1.813338	1.045183	-0.094017
O9	O	1.393986	0.464585	-0.506211
O10	O	1.893986	0.964585	-0.006211
O11	O	1.609644	0.405333	-0.570765
O12	O	2.109644	0.905333	-0.070765
O13	O	1.453143	0.523913	-0.271362
O14	O	1.953143	1.023913	0.228638
O15	O	1.334825	0.248990	-0.441709
O16	O	1.834825	0.748990	0.058291
O17	O	1.609559	0.523861	-0.441699
O18	O	2.109559	1.023861	0.058301
O19	O	1.453339	0.248951	-0.570771
O20	O	1.953339	0.748951	-0.070771
O21	O	1.334714	0.405424	-0.271366
O22	O	1.834714	0.905424	0.228634
O23	O	1.178382	0.405356	-0.441673
O24	O	1.678382	0.905356	0.058327
O25	O	1.334776	0.523740	-0.741044
O26	O	1.834776	1.023740	-0.241044
O27	O	1.178360	0.523792	-0.570707
O28	O	1.678360	1.023792	-0.070707
O29	O	1.453311	0.405264	-0.741071
O30	O	1.953311	0.905264	-0.241071
O31	O	1.453115	0.680227	-0.441662
O32	O	1.953115	1.180227	0.058338
O33	O	1.334665	0.680174	-0.570701
O34	O	1.834665	1.180174	-0.070701
C35	C	1.143372	0.464573	-0.506187
C36	C	1.643372	0.964573	-0.006187
C37	C	1.036158	0.464590	-0.506201
C38	C	1.536158	0.964590	-0.006201
C39	C	1.393900	0.715200	-0.506200
C40	C	1.893900	1.215200	-0.006200
C41	C	1.393952	0.822414	-0.506230
C42	C	1.893952	1.322414	-0.006230
C43	C	1.394054	0.464488	-0.780244
C44	C	1.894054	0.964488	-0.280244
C45	C	1.394082	0.464447	-0.897021
C46	C	1.894082	0.964447	-0.397021
C47	C	0.839863	0.464594	-0.506229
C48	C	1.339863	0.964594	-0.006229
C49	C	0.949095	0.464589	-0.506211
C50	C	1.449095	0.964589	-0.006211
C51	C	1.645579	0.464599	-0.506235
C52	C	2.145579	0.964599	-0.006235
C53	C	1.752793	0.464605	-0.506246
C54	C	2.252793	0.964605	-0.006246
C55	C	1.393996	0.909483	-0.506259
C56	C	1.893996	1.409483	-0.006259
C57	C	1.394061	1.018716	-0.506292
C58	C	1.894061	1.518716	-0.006292
C59	C	1.394091	1.212992	-0.506258
C60	C	1.894091	1.712992	-0.006258
C61	C	1.394117	1.105778	-0.506313
C62	C	1.894117	1.605778	-0.006313
C63	C	1.455812	0.402750	-0.951899
C64	C	1.955812	0.902750	-0.451899
C65	C	1.455835	0.402716	-1.061623
C66	C	1.955835	0.902716	-0.561623
C67	C	1.332396	0.526081	-1.061581
C68	C	1.832396	1.026081	-0.561581
C69	C	1.332369	0.526111	-0.951859
C70	C	1.832369	1.026111	-0.451859
C71	C	1.517526	0.341086	-0.897061
C72	C	2.017526	0.841086	-0.397061
C73	C	1.579261	0.279386	-0.951939
C74	C	2.079261	0.779386	-0.451939
C75	C	1.579284	0.279351	-1.061663
C76	C	2.079284	0.779351	-0.561663
C77	C	1.517572	0.341017	-1.116509
C78	C	2.017572	0.841017	-0.616509
C79	C	1.393974	0.464613	-0.233243
C80	C	1.893974	0.964613	0.266757
C81	C	1.394132	0.464382	-0.116467
C82	C	1.894132	0.964382	0.383533
H83	H	1.517516	0.341110	-0.807718
H84	H	2.017516	0.841110	-0.307718
H85	H	1.282152	0.576286	-1.106246
H86	H	1.782152	1.076286	-0.606246
O87	O	1.265786	0.592654	-0.892666
O88	O	1.765786	1.092654	-0.392666
H89	H	1.276128	0.582304	-0.807157
H90	H	1.776128	1.082304	-0.307157
H91	H	1.629499	0.229174	-0.907276
H92	H	2.129499	0.729174	-0.407276
H93	H	1.629545	0.229105	-1.106342
H94	H	2.129545	0.729105	-0.606342
H95	H	1.517584	0.340972	-1.205854
H96	H	2.017584	0.840972	-0.705854
