data_functionalizedCrystal
_audit_creation_method	'MofGen! by Chris Wilmer'
_symmetry_space_group_name_H-M	'P1'
_symmetry_Int_Tables_number	1
_symmetry_cell_setting	triclinic
loop_
_symmetry_equiv_pos_as_xyz
  x,y,z
_cell_length_a	16.992694
_cell_length_b	14.519709
_cell_length_c	16.053802
_cell_angle_alpha	92.569364
_cell_angle_beta	87.249047
_cell_angle_gamma	87.174184
loop_
_atom_site_label
_atom_site_type_symbol
_atom_site_fract_x
_atom_site_fract_y
_atom_site_fract_z
O1	O	1.043963	0.191936	-0.069327
O2	O	1.543963	0.691936	0.430673
O3	O	0.815676	0.189789	-0.069352
O4	O	1.315676	0.689789	0.430648
O5	O	0.935872	0.057059	-0.069332
O6	O	1.435872	0.557059	0.430668
O7	O	0.923768	0.324666	-0.069348
O8	O	1.423768	0.824666	0.430652
O9	O	0.929256	0.064333	0.069526
O10	O	1.429256	0.564333	0.569526
O11	O	0.809060	0.197063	0.069506
O12	O	1.309060	0.697063	0.569506
O13	O	1.037348	0.199210	0.069530
O14	O	1.537348	0.699210	0.569530
Zn15	Zn	0.922154	0.199291	0.091565
Zn16	Zn	1.422154	0.699291	0.591565
Zn17	Zn	0.930870	0.189708	-0.091386
Zn18	Zn	1.430870	0.689708	0.408614
O19	O	0.917152	0.331940	0.069510
O20	O	1.417152	0.831940	0.569510
C21	C	0.783152	0.190666	0.000074
C22	C	1.283152	0.690666	0.500074
C23	C	0.696097	0.182430	0.000065
C24	C	1.196097	0.682430	0.500065
C25	C	0.645968	0.261890	0.000061
C26	C	1.145968	0.761890	0.500061
C27	C	0.564170	0.254147	0.000073
C28	C	1.064170	0.754147	0.500073
C29	C	0.532503	0.166943	0.000083
C30	C	1.032503	0.666943	0.500083
C31	C	0.582638	0.087478	0.000089
C32	C	1.082638	0.587478	0.500089
C33	C	0.664434	0.095222	0.000083
C34	C	1.164434	0.595222	0.500083
C35	C	0.288859	0.134847	0.000107
C36	C	0.788859	0.634847	0.500107
C37	C	0.207056	0.127109	0.000111
C38	C	0.707056	0.627109	0.500111
C39	C	0.188594	0.293779	0.000095
C40	C	0.688594	0.793779	0.500095
C41	C	0.270393	0.301515	0.000084
C42	C	0.770393	0.801515	0.500084
C43	C	0.320520	0.222050	0.000095
C44	C	0.820520	0.722050	0.500095
N45	N	0.448892	0.159027	0.000092
N46	N	0.948892	0.659027	0.500092
N47	N	0.404129	0.229968	0.000092
N48	N	0.904129	0.729968	0.500092
C49	C	0.932000	0.026296	0.000097
C50	C	1.432000	0.526296	0.500097
C51	C	0.930309	-0.076207	0.000098
C52	C	1.430309	0.423793	0.500098
C53	C	0.924087	-0.451551	0.000075
C54	C	1.424087	0.048449	0.500075
C55	C	0.925815	-0.347118	0.000082
C56	C	1.425815	0.152882	0.500082
C57	C	0.927198	-0.263882	0.000087
C58	C	1.427198	0.236118	0.500087
C59	C	0.928926	-0.159443	0.000092
C60	C	1.428926	0.340557	0.500092
C61	C	1.069872	0.198333	0.000103
C62	C	1.569872	0.698333	0.500103
C63	C	1.156927	0.206569	0.000106
C64	C	1.656927	0.706569	0.500106
C65	C	0.921024	0.362703	0.000079
C66	C	1.421024	0.862703	0.500079
C67	C	0.922715	0.465206	0.000073
C68	C	1.422715	0.965206	0.500073
N69	N	0.916210	0.205832	0.216424
N70	N	1.416210	0.705832	0.716424
N71	N	0.936820	0.183161	-0.216246
N72	N	1.436820	0.683161	0.283754
C73	C	0.967373	0.149377	0.260127
C74	C	1.467373	0.649377	0.760127
C75	C	0.963222	0.153962	0.347533
C76	C	1.463222	0.653962	0.847533
C77	C	0.907913	0.215006	0.391235
C78	C	1.407913	0.715006	0.891235
C79	C	0.856746	0.271462	0.347526
C80	C	1.356746	0.771462	0.847526
C81	C	0.860893	0.266872	0.260121
C82	C	1.360893	0.766872	0.760121
C83	C	0.889799	0.235027	0.652641
C84	C	1.389799	0.735027	1.152641
C85	C	0.885658	0.239615	0.740052
C86	C	1.385658	0.739615	1.240052
C87	C	0.992134	0.122113	0.740053
C88	C	1.492134	0.622113	1.240053
C89	C	0.996279	0.117533	0.652646
C90	C	1.496279	0.617533	1.152646
C91	C	0.945109	0.173985	0.608945
C92	C	1.445109	0.673985	1.108945
N93	N	0.903672	0.219695	0.480578
N94	N	1.403672	0.719695	0.980578
N95	N	0.949347	0.169291	0.519604
N96	N	1.449347	0.669291	1.019604
H97	H	0.523358	0.318852	0.000068
H98	H	1.023358	0.818852	0.500068
N99	N	1.044383	0.064444	0.784706
N100	N	1.544383	0.564444	1.284706
N101	N	1.017108	0.007904	0.833491
N102	N	1.517108	0.507904	1.333491
H103	H	1.054008	-0.032829	0.865028
H104	H	1.554008	0.467171	1.365028
N105	N	0.715654	0.014064	0.000076
N106	N	1.215654	0.514064	0.500076
N107	N	0.788684	0.020989	0.000070
N108	N	1.288684	0.520989	0.500070
H109	H	0.824859	-0.036330	0.000067
H110	H	1.324859	0.463670	0.500067
N111	N	0.174697	0.038033	0.000115
N112	N	0.674697	0.538033	0.500115
N113	N	0.133897	0.012053	-0.058416
N114	N	0.633897	0.512053	0.441584
H115	H	0.111043	-0.050853	-0.058417
H116	H	0.611043	0.449147	0.441583
H117	H	0.671745	0.332900	0.000052
H118	H	1.171745	0.832900	0.500052
N119	N	1.052778	0.055257	0.607917
N120	N	1.552778	0.555257	1.107917
N121	N	1.103740	0.085705	0.559132
N122	N	1.603740	0.585705	1.059132
H123	H	1.143647	0.041753	0.527510
H124	H	1.643647	0.541753	1.027510
N125	N	0.340045	0.053669	0.000115
N126	N	0.840045	0.553669	0.500115
N127	N	0.311757	-0.024184	0.000119
N128	N	0.811757	0.475816	0.500119
H129	H	0.347910	-0.081522	0.000123
H130	H	0.847910	0.418478	0.500123
N131	N	0.829147	0.301972	0.784681
N132	N	1.329147	0.801972	1.284681
N133	N	0.783460	0.352365	0.745653
N134	N	1.283460	0.852365	1.245653
H135	H	0.743550	0.396401	0.777172
H136	H	1.243550	0.896401	1.277172
N137	N	1.023833	0.086964	0.215503
N138	N	1.523833	0.586964	0.715503
N139	N	1.069477	0.036524	0.254538
N140	N	1.569477	0.536524	0.754538
H141	H	1.109335	-0.007581	0.223026
H142	H	1.609335	0.492419	0.723026
N143	N	0.550307	-0.001607	0.000092
N144	N	1.050307	0.498393	0.500092
N145	N	0.595076	-0.072546	0.000095
N146	N	1.095076	0.427454	0.500095
H147	H	0.572245	-0.135466	0.000094
H148	H	1.072245	0.364534	0.500094
N149	N	0.302725	0.390599	0.000063
N150	N	0.802725	0.890599	0.500063
N151	N	0.257957	0.461540	0.000054
N152	N	0.757957	0.961540	0.500054
H153	H	0.280791	0.524457	0.000034
H154	H	0.780791	1.024457	0.500034
N155	N	0.837523	0.292693	0.608022
N156	N	1.337523	0.792693	1.108022
N157	N	0.788144	0.347191	0.647055
N158	N	1.288144	0.847191	1.147055
H159	H	0.751221	0.387920	0.615540
H160	H	1.251221	0.887920	1.115540
N161	N	0.137379	0.374936	0.000083
N162	N	0.637379	0.874936	0.500083
N163	N	0.064348	0.368015	0.000087
N164	N	0.564348	0.868015	0.500087
H165	H	0.028175	0.425336	0.000081
H166	H	0.528175	0.925336	0.500081
H167	H	1.004882	0.107992	0.383115
H168	H	1.504882	0.607992	0.883115
H169	H	0.811708	0.321162	0.383113
H170	H	1.311708	0.821162	0.883113
N171	N	0.808622	0.324541	0.215490
N172	N	1.308622	0.824541	0.715490
N173	N	0.759242	0.379041	0.254517
N174	N	1.259242	0.879041	0.754517
H175	H	0.722321	0.419769	0.222998
H176	H	1.222321	0.919769	0.722998
