data_functionalizedCrystal
_audit_creation_method	'MofGen! by Chris Wilmer'
_symmetry_space_group_name_H-M	'P1'
_symmetry_Int_Tables_number	1
_symmetry_cell_setting	triclinic
loop_
_symmetry_equiv_pos_as_xyz
  x,y,z
_cell_length_a	10.654550
_cell_length_b	10.654550
_cell_length_c	9.730223
_cell_angle_alpha	89.999807
_cell_angle_beta	89.996251
_cell_angle_gamma	84.484903
loop_
_atom_site_label
_atom_site_type_symbol
_atom_site_fract_x
_atom_site_fract_y
_atom_site_fract_z
O1	O	1.667834	0.176393	-0.114399
O2	O	1.302355	0.193199	-0.114377
O3	O	1.493498	0.002057	-0.114383
O4	O	1.476692	0.367535	-0.114393
O5	O	1.493496	0.002062	0.114197
O6	O	1.302353	0.193204	0.114203
O7	O	1.667832	0.176398	0.114181
Zn8	Zn	1.485092	0.184802	0.150484
Zn9	Zn	1.485095	0.184795	-0.150680
O10	O	1.476689	0.367540	0.114187
C11	C	1.255556	0.191968	-0.000084
C12	C	1.116113	0.188276	-0.000075
C13	C	1.036627	0.300817	-0.000098
C14	C	0.905607	0.297341	-0.000122
C15	C	0.933570	0.068771	-0.000106
C16	C	1.064588	0.072249	-0.000072
C17	C	1.020482	0.432780	-0.000114
C18	C	0.889461	0.429304	-0.000137
C19	C	1.492263	-0.044739	-0.000095
C20	C	1.488571	-0.184182	-0.000100
C21	C	1.601112	-0.263668	-0.000102
C22	C	1.597636	-0.394688	-0.000112
C23	C	1.369066	-0.366725	-0.000110
C24	C	1.372544	-0.235707	-0.000110
C25	C	1.733075	-0.279813	-0.000097
C26	C	1.729599	-0.410834	-0.000107
C27	C	1.714631	0.177630	-0.000115
C28	C	1.854074	0.181321	-0.000133
C29	C	1.477925	0.414336	-0.000104
C30	C	1.481616	0.553779	-0.000109
N31	N	1.485099	0.184805	0.356020
N32	N	1.485098	0.184782	-0.356216
C33	C	1.569759	0.100197	0.427943
C34	C	1.569756	0.100181	0.571826
C35	C	1.400429	0.269395	0.571850
C36	C	1.400427	0.269403	0.427970
C37	C	1.667522	0.002506	0.427931
C38	C	1.667519	0.002491	0.571814
H39	H	0.847729	0.479023	-0.095806
H40	H	1.779319	-0.452592	0.095548
O41	O	1.318237	0.351744	0.641592
C42	C	1.246569	0.569437	0.685701
C43	C	1.339705	0.476314	0.606616
H44	H	1.263910	0.670172	0.657474
H45	H	1.145817	0.552235	0.657383
H46	H	1.261086	0.554833	0.800885
H47	H	1.325302	0.490863	0.491414
H48	H	1.440423	0.493539	0.635048
O49	O	1.263104	-0.158674	-0.000058
C50	C	1.036028	-0.144770	-0.000158
C51	C	1.159878	-0.232154	-0.000185
H52	H	0.952537	-0.204143	-0.000290
H53	H	1.031841	-0.082753	0.095524
H54	H	1.032023	-0.082707	-0.095797
H55	H	1.163965	-0.294295	0.095389
H56	H	1.164013	-0.294084	-0.095930
H57	H	1.637006	-0.088732	0.616433
H58	H	1.274601	-0.408693	-0.000120
H59	H	1.129302	-0.019393	-0.000034
O60	O	1.794628	-0.244988	-0.114315
C61	C	1.903433	-0.313188	-0.322334
C62	C	1.833731	-0.352798	-0.193061
H63	H	1.935091	-0.400332	-0.386020
H64	H	1.837503	-0.245705	-0.386212
H65	H	1.989392	-0.264196	-0.290413
H66	H	1.747774	-0.401841	-0.224858
H67	H	1.899746	-0.420222	-0.129214
H68	H	1.049812	0.484393	0.095551
O69	O	1.782988	-0.237477	0.117844
C70	C	1.872906	-0.292102	0.339625
C71	C	1.816635	-0.340246	0.206015
H72	H	1.900101	-0.375162	0.410960
H73	H	1.960200	-0.242447	0.314409
H74	H	1.799982	-0.223027	0.392461
H75	H	1.889464	-0.409366	0.153114
H76	H	1.729315	-0.389826	0.231320
H77	H	1.056138	0.474797	-0.098802
O78	O	1.641865	-0.112704	0.381563
C79	C	1.595285	-0.322682	0.441635
C80	C	1.624301	-0.192264	0.494333
H81	H	1.581103	-0.387051	0.532782
H82	H	1.505891	-0.312120	0.376605
H83	H	1.677480	-0.365454	0.376488
H84	H	1.542185	-0.149419	0.559537
H85	H	1.713737	-0.202908	0.559288
H86	H	1.769481	-0.456479	-0.098804
O87	O	1.776182	0.039238	0.374630
C88	C	1.871674	0.189210	0.232751
C89	C	1.748535	0.147736	0.293032
H90	H	1.849362	0.276919	0.166743
H91	H	1.937496	0.211390	0.319961
H92	H	1.919324	0.109954	0.166842
H93	H	1.700779	0.226939	0.358925
H94	H	1.682802	0.125514	0.205757
H95	H	1.331480	0.338287	0.369412
O96	O	1.782550	0.028315	0.618566
C97	C	1.899554	0.168002	0.751795
C98	C	1.769210	0.138888	0.698972
H99	H	1.888816	0.257416	0.816790
H100	H	1.942470	0.085886	0.816956
H101	H	1.963892	0.182301	0.660649
H102	H	1.704776	0.124614	0.790035
H103	H	1.726396	0.221020	0.633769
H104	H	0.843789	0.469187	0.098546
H105	H	0.891602	-0.025694	-0.000124
