data_functionalizedCrystal
_audit_creation_method	'MofGen! by Chris Wilmer'
_symmetry_space_group_name_H-M	'P1'
_symmetry_Int_Tables_number	1
_symmetry_cell_setting	triclinic
loop_
_symmetry_equiv_pos_as_xyz
  x,y,z
_cell_length_a	6.817900
_cell_length_b	12.200863
_cell_length_c	16.256277
_cell_angle_alpha	94.281664
_cell_angle_beta	103.500353
_cell_angle_gamma	107.143441
loop_
_atom_site_label
_atom_site_type_symbol
_atom_site_fract_x
_atom_site_fract_y
_atom_site_fract_z
V1	V	-4.045435	-0.159640	-0.263960
O2	O	-4.013535	0.006717	-0.258847
O3	O	-4.015153	-0.315621	-0.262240
O4	O	-3.996816	-0.157603	-0.379044
O5	O	-4.031999	-0.152395	-0.141235
V6	V	-4.526743	-0.139692	-0.249271
O7	O	-4.311550	-0.203397	-0.296182
O8	O	-4.710825	-0.095935	-0.217049
O9	O	-4.333818	0.016290	-0.250991
O10	O	-4.676040	-0.306049	-0.254384
O11	O	-4.657576	-0.146937	-0.371996
O12	O	-4.352156	-0.141729	-0.134188
C13	C	-3.864568	-0.353633	-0.258098
C14	C	-3.921095	-0.481153	-0.257459
C15	C	-3.841176	-0.152063	-0.407091
C16	C	-3.882828	-0.151430	-0.501173
C17	C	-4.024550	-0.714626	-0.256295
C18	C	-3.966972	-0.584705	-0.256942
C19	C	-4.174287	-0.155856	-0.732996
C20	C	-4.056288	-0.057408	-0.776033
C21	C	-3.958987	-0.150237	-0.673419
C22	C	-4.151147	-0.247487	-0.798010
C23	C	-4.032568	-0.149091	-0.839801
C24	C	-3.840399	-0.051719	-0.715208
C25	C	-3.935325	-0.241885	-0.737190
C26	C	-3.817164	-0.143409	-0.780196
C27	C	-3.916603	-0.150897	-0.577570
C28	C	-4.074932	-0.148423	-0.935647
C29	C	-4.147746	0.054295	-0.255131
C30	C	-4.070457	0.181814	-0.255776
C31	C	-4.171137	-0.147272	-0.106135
C32	C	-4.108723	-0.147900	-0.012053
H33	H	-4.324760	-0.161004	-0.712109
H34	H	-4.107806	0.020595	-0.793383
N35	N	-3.675221	0.052184	-0.670258
N36	N	-3.698556	0.148873	-0.679022
H37	H	-3.581907	0.222257	-0.647274
N38	N	-3.628044	-0.136756	-0.806172
N39	N	-3.463286	-0.051552	-0.775764
H40	H	-3.329717	-0.046848	-0.794110
N41	N	-3.870796	-0.339755	-0.715413
N42	N	-3.993115	-0.440305	-0.746364
H43	H	-3.947560	-0.509436	-0.730985
N44	N	-4.316501	-0.351255	-0.843086
N45	N	-4.498073	-0.373977	-0.831299
H46	H	-4.614867	-0.447258	-0.863132
