data_functionalizedCrystal
_audit_creation_method	'MofGen! by Chris Wilmer'
_symmetry_space_group_name_H-M	'P1'
_symmetry_Int_Tables_number	1
_symmetry_cell_setting	triclinic
loop_
_symmetry_equiv_pos_as_xyz
  x,y,z
_cell_length_a	12.759401
_cell_length_b	19.121063
_cell_length_c	12.759393
_cell_angle_alpha	92.402917
_cell_angle_beta	89.980387
_cell_angle_gamma	92.469135
loop_
_atom_site_label
_atom_site_type_symbol
_atom_site_fract_x
_atom_site_fract_y
_atom_site_fract_z
Zn1	Zn	1.588321	-0.279567	-0.611802
Zn2	Zn	1.580680	-0.397036	-0.443597
Zn3	Zn	1.412621	-0.279604	-0.436141
Zn4	Zn	1.405080	-0.396982	-0.619232
O5	O	1.496676	-0.338297	-0.527693
O6	O	1.734328	-0.295157	-0.589501
O7	O	1.558345	-0.381496	-0.295589
O8	O	1.442282	-0.181315	-0.453213
O9	O	1.728714	-0.381460	-0.465921
O10	O	1.571368	-0.181288	-0.582270
O11	O	1.434872	-0.295219	-0.290111
O12	O	1.264600	-0.295167	-0.460417
O13	O	1.429429	-0.381368	-0.765265
O14	O	1.259060	-0.381404	-0.594933
O15	O	1.564056	-0.295104	-0.759807
O16	O	1.551033	-0.495313	-0.473125
O17	O	1.422020	-0.495273	-0.602163
C18	C	1.223709	-0.338284	-0.527673
C19	C	1.106932	-0.338296	-0.527690
C20	C	1.049155	-0.383162	-0.463246
C21	C	0.939430	-0.383174	-0.463265
C22	C	0.945269	-0.293448	-0.592175
C23	C	1.054992	-0.293440	-0.592160
C24	C	1.101095	-0.428018	-0.398775
C25	C	1.043317	-0.472888	-0.334325
C26	C	0.933593	-0.472900	-0.334344
C27	C	0.881645	-0.428043	-0.398813
C28	C	1.484907	-0.520777	-0.539283
C29	C	1.479969	-0.598842	-0.544276
C30	C	1.544871	-0.635515	-0.479494
C31	C	1.540233	-0.708866	-0.484197
C32	C	1.470686	-0.745543	-0.553676
C33	C	1.405781	-0.708865	-0.618465
C34	C	1.410426	-0.635516	-0.613767
C35	C	1.453305	-0.967012	-0.571224
C36	C	1.448663	-1.040366	-0.575914
C37	C	1.583116	-1.040362	-0.441647
C38	C	1.587750	-0.967011	-0.436951
C39	C	1.522849	-0.930340	-0.501743
C40	C	1.465941	-0.820519	-0.558482
C41	C	1.527601	-0.855365	-0.496942
C42	C	1.770708	-0.338310	-0.527714
C43	C	1.887484	-0.338316	-0.527723
C44	C	1.496754	-0.338226	-0.801722
C45	C	1.496787	-0.338196	-0.918497
C46	C	1.508519	-0.155105	-0.516081
C47	C	1.513565	-0.077039	-0.511133
C48	C	1.566897	-0.293274	-0.970518
C49	C	1.566923	-0.293249	-1.080241
C50	C	1.426727	-0.383073	-1.085911
C51	C	1.426696	-0.383095	-0.976190
C52	C	1.636987	-0.248375	-0.912824
C53	C	1.707103	-0.203450	-0.964845
C54	C	1.707130	-0.203425	-1.074568
C55	C	1.637040	-0.248325	-1.132269
C56	C	1.496662	-0.338317	-0.254727
C57	C	1.496844	-0.338149	-0.137940
H58	H	0.792299	-0.428061	-0.398831
C59	C	1.389439	-0.860863	-0.634904
H60	H	1.351449	-0.828520	-0.672820
H61	H	1.341876	-0.889528	-0.596509
H62	H	1.427807	-0.889426	-0.682549
H63	H	1.593082	-0.738722	-0.431444
C64	C	1.637072	-0.248297	-1.252962
H65	H	1.688869	-0.215114	-1.275683
H66	H	1.570067	-0.236145	-1.277012
H67	H	1.652324	-0.293620	-1.280648
C68	C	1.784189	-0.154058	-0.901384
H69	H	1.825939	-0.127294	-0.948083
H70	H	1.828219	-0.180933	-0.860284
H71	H	1.745958	-0.123461	-0.856644
H72	H	1.636976	-0.248392	-0.823482
H73	H	1.400458	-0.937159	-0.623978
C74	C	1.329283	-0.749204	-0.694896
H75	H	1.291303	-0.716856	-0.732812
H76	H	1.281712	-0.777866	-0.656505
H77	H	1.367649	-0.777770	-0.742540
C78	C	1.372168	-1.080710	-0.652354
H79	H	1.334188	-1.048365	-0.690278
H80	H	1.324595	-1.109371	-0.613965
H81	H	1.410540	-1.109276	-0.699991
C82	C	1.349617	-0.432535	-0.918965
H83	H	1.307899	-0.459287	-0.969039
H84	H	1.305554	-0.405696	-0.874441
H85	H	1.387859	-0.463141	-0.878122
H86	H	1.357577	-0.605657	-0.666520
H87	H	1.190438	-0.428012	-0.398750
H88	H	1.584229	-0.825500	-0.440376
C89	C	1.784251	-0.154010	-1.131789
H90	H	1.825992	-0.127279	-1.081711
H91	H	1.746059	-0.123394	-1.172652
H92	H	1.828303	-0.180878	-1.176293
C93	C	1.349647	-0.432465	-1.149380
H94	H	1.359715	-0.426024	-1.222177
H95	H	1.279714	-0.422191	-1.130748
H96	H	1.361978	-0.479661	-1.134382
C97	C	0.888129	-0.244104	-0.663074
H98	H	0.814508	-0.250530	-0.653844
H99	H	0.905475	-0.254433	-0.734295
H100	H	0.909144	-0.196898	-0.644804
C101	C	1.654509	-1.080699	-0.370386
H102	H	1.696587	-1.048350	-0.328330
H103	H	1.698455	-1.109266	-0.412443
H104	H	1.612524	-1.109358	-0.326403
C105	C	1.118550	-0.244087	-0.663046
H106	H	1.071904	-0.217367	-0.701434
H107	H	1.159642	-0.270989	-0.710456
H108	H	1.163306	-0.213448	-0.620975
C109	C	1.664258	-0.926672	-0.360530
H110	H	1.702255	-0.959019	-0.322628
H111	H	1.625905	-0.898104	-0.312889
H112	H	1.711830	-0.898013	-0.398935
H113	H	0.886553	-0.509440	-0.281873
C114	C	1.100455	-0.522228	-0.263417
H115	H	1.174077	-0.515792	-0.272627
H116	H	1.079446	-0.569432	-0.281674
H117	H	1.083101	-0.511889	-0.192195
H118	H	1.601499	-0.605658	-0.422912
