data_functionalizedCrystal
_audit_creation_method	'MofGen! by Chris Wilmer'
_symmetry_space_group_name_H-M	'P1'
_symmetry_Int_Tables_number	1
_symmetry_cell_setting	triclinic
loop_
_symmetry_equiv_pos_as_xyz
  x,y,z
_cell_length_a	23.532361
_cell_length_b	23.532407
_cell_length_c	18.266242
_cell_angle_alpha	89.988983
_cell_angle_beta	89.995239
_cell_angle_gamma	82.839173
loop_
_atom_site_label
_atom_site_type_symbol
_atom_site_fract_x
_atom_site_fract_y
_atom_site_fract_z
O1	O	0.755280	0.069009	-0.060815
O2	O	1.088614	0.402343	0.272518
O3	O	1.421947	0.735676	0.605852
O4	O	0.589413	0.079040	-0.060834
O5	O	0.922747	0.412374	0.272500
O6	O	1.256080	0.745707	0.605833
O7	O	0.677349	-0.008908	-0.060810
O8	O	1.010682	0.324426	0.272523
O9	O	1.344015	0.657759	0.605856
O10	O	0.667345	0.156957	-0.060838
O11	O	1.000678	0.490291	0.272495
O12	O	1.334012	0.823624	0.605828
O13	O	0.677334	-0.008912	0.060952
O14	O	1.010667	0.324421	0.394285
O15	O	1.344000	0.657755	0.727618
O16	O	0.589398	0.079036	0.060928
O17	O	0.922732	0.412369	0.394262
O18	O	1.256065	0.745703	0.727595
O19	O	0.755266	0.069005	0.060947
O20	O	1.088599	0.402338	0.394280
O21	O	1.421932	0.735672	0.727614
Zn22	Zn	0.672330	0.074020	0.080270
Zn23	Zn	1.005663	0.407353	0.413603
Zn24	Zn	1.338996	0.740686	0.746937
Zn25	Zn	0.672349	0.074026	-0.080157
Zn26	Zn	1.005682	0.407359	0.253177
Zn27	Zn	1.339016	0.740692	0.586510
O28	O	0.667330	0.156953	0.060924
O29	O	1.000664	0.490286	0.394257
O30	O	1.333997	0.823620	0.727590
C31	C	0.568189	0.078787	0.000045
C32	C	0.901523	0.412120	0.333379
C33	C	1.234856	0.745454	0.666712
C34	C	0.504971	0.078032	0.000039
C35	C	0.838304	0.411365	0.333372
C36	C	1.171637	0.744698	0.666705
C37	C	0.231735	0.074731	-0.066329
C38	C	0.565068	0.408064	0.267005
C39	C	0.898402	0.741397	0.600338
C40	C	0.291135	0.075446	-0.066331
C41	C	0.624468	0.408779	0.267003
C42	C	0.957802	0.742112	0.600336
O43	O	0.321868	0.075798	-0.122777
O44	O	0.655201	0.409131	0.210557
O45	O	0.988534	0.742464	0.543890
N46	N	0.320832	0.075804	0.000042
N47	N	0.654166	0.409138	0.333375
N48	N	0.987499	0.742471	0.666709
C49	C	0.291128	0.075442	0.066421
C50	C	0.624461	0.408776	0.399754
C51	C	0.957795	0.742109	0.733088
O52	O	0.321843	0.075813	0.122876
O53	O	0.655176	0.409146	0.456209
O54	O	0.988509	0.742479	0.789543
C55	C	0.231730	0.074723	0.066422
C56	C	0.565063	0.408057	0.399755
C57	C	0.898397	0.741390	0.733089
C58	C	0.202035	0.074370	0.000045
C59	C	0.535368	0.407704	0.333378
C60	C	0.868701	0.741037	0.666712
C61	C	0.202040	0.074377	-0.132700
C62	C	0.535373	0.407710	0.200633
C63	C	0.868707	0.741044	0.533966
C64	C	0.142644	0.073663	-0.132698
C65	C	0.475977	0.406997	0.200635
C66	C	0.809311	0.740330	0.533969
C67	C	0.112944	0.073303	-0.066324
C68	C	0.446277	0.406636	0.267009
C69	C	0.779610	0.739970	0.600342
C70	C	0.142639	0.073657	0.000047
C71	C	0.475972	0.406990	0.333381
C72	C	0.809305	0.740323	0.666714
C73	C	0.202027	0.074357	0.132800
C74	C	0.535360	0.407690	0.466134
C75	C	0.868694	0.741024	0.799467
C76	C	0.142625	0.073638	0.132796
C77	C	0.475958	0.406971	0.466129
C78	C	0.809292	0.740304	0.799462
C79	C	0.112930	0.073285	0.066419
C80	C	0.446263	0.406618	0.399752
C81	C	0.779596	0.739951	0.733085
C82	C	0.053542	0.072582	0.066423
C83	C	0.386876	0.405916	0.399757
C84	C	0.720209	0.739249	0.733090
N85	N	0.023845	0.072224	0.000051
N86	N	0.357178	0.405557	0.333384
N87	N	0.690512	0.738890	0.666717
C88	C	0.053545	0.072584	-0.066323
C89	C	0.386879	0.405917	0.267010
C90	C	0.720212	0.739251	0.600343
C91	C	0.415868	0.076951	0.066413
C92	C	0.749202	0.410285	0.399747
C93	C	1.082535	0.743618	0.733080
C94	C	0.475265	0.077674	0.066413
C95	C	0.808598	0.411008	0.399746
C96	C	1.141931	0.744341	0.733080
C97	C	0.475268	0.077677	-0.066339
C98	C	0.808601	0.411010	0.266995
C99	C	1.141934	0.744343	0.600328
C100	C	0.415869	0.076958	-0.066338
C101	C	0.749203	0.410291	0.266996
C102	C	1.082536	0.743624	0.600329
C103	C	0.386171	0.076593	0.000041
C104	C	0.719504	0.409926	0.333374
C105	C	1.052837	0.743259	0.666707
C106	C	-0.071190	0.071085	-0.066314
C107	C	0.262143	0.404419	0.267020
C108	C	0.595477	0.737752	0.600353
C109	C	-0.130592	0.070374	-0.066305
C110	C	0.202742	0.403707	0.267028
C111	C	0.536075	0.737041	0.600361
C112	C	-0.130589	0.070369	0.066446
C113	C	0.202745	0.403702	0.399779
C114	C	0.536078	0.737035	0.733113
C115	C	-0.071193	0.071083	0.066438
C116	C	0.262140	0.404417	0.399772
C117	C	0.595474	0.737750	0.733105
C118	C	-0.041495	0.071440	0.000053
C119	C	0.291838	0.404773	0.333386
C120	C	0.625172	0.738106	0.666719
O121	O	0.022772	0.072228	0.122840
O122	O	0.356106	0.405561	0.456174
O123	O	0.689439	0.738894	0.789507
O124	O	0.022825	0.072206	-0.122769
O125	O	0.356158	0.405539	0.210565
O126	O	0.689491	0.738873	0.543898
C127	C	0.677086	-0.030126	0.000073
C128	C	1.010420	0.303207	0.333406
C129	C	1.343753	0.636541	0.666739
C130	C	0.676320	-0.093343	0.000078
C131	C	1.009654	0.239991	0.333411
C132	C	1.342987	0.573324	0.666745
C133	C	0.723555	-0.492454	0.000043
C134	C	1.056888	-0.159120	0.333377
C135	C	1.390222	0.174213	0.666710
C136	C	0.722844	-0.551854	0.000038
C137	C	1.056177	-0.218521	0.333371
C138	C	1.389510	0.114813	0.666704
O139	O	0.766630	-0.588606	0.000016
O140	O	1.099964	-0.255272	0.333349
O141	O	1.433297	0.078061	0.666682
N142	N	0.670566	-0.574471	0.000032
N143	N	1.003899	-0.241138	0.333366
N144	N	1.337233	0.092195	0.666699
C145	C	0.618997	-0.537685	0.000025
C146	C	0.952330	-0.204352	0.333359
C147	C	1.285663	0.128982	0.666692
O148	O	0.574465	-0.562377	0.000019
O149	O	0.907799	-0.229044	0.333353
O150	O	1.241132	0.104289	0.666686
C151	C	0.619709	-0.478286	0.000026
C152	C	0.953042	-0.144953	0.333359
C153	C	1.286375	0.188381	0.666692
C154	C	0.671990	-0.455672	0.000038
C155	C	1.005323	-0.122339	0.333372
C156	C	1.338656	0.210994	0.666705
C157	C	0.775832	-0.469839	0.000055
C158	C	1.109165	-0.136506	0.333389
C159	C	1.442498	0.196827	0.666722
C160	C	0.776543	-0.410443	0.000062
C161	C	1.109876	-0.077110	0.333396
C162	C	1.443210	0.256223	0.666729
C163	C	0.724977	-0.373662	0.000057
C164	C	1.058311	-0.040328	0.333391
C165	C	1.391644	0.293005	0.666724
C166	C	0.672701	-0.396276	0.000045
C167	C	1.006034	-0.062943	0.333379
C168	C	1.339367	0.270390	0.666712
C169	C	0.568140	-0.441501	0.000013
C170	C	0.901473	-0.108168	0.333347
C171	C	1.234807	0.225166	0.666680
C172	C	0.568857	-0.382099	0.000013
C173	C	0.902190	-0.048765	0.333346
C174	C	1.235523	0.284568	0.666680
C175	C	0.621137	-0.359485	0.000026
C176	C	0.954471	-0.026151	0.333359
C177	C	1.287804	0.307182	0.666692
C178	C	0.621847	-0.300099	0.000047
C179	C	0.955180	0.033235	0.333381
C180	C	1.288513	0.366568	0.666714
N181	N	0.674124	-0.277481	0.000053
N182	N	1.007457	0.055852	0.333386
N183	N	1.340791	0.389185	0.666719
C184	C	0.725690	-0.314263	0.000058
C185	C	1.059023	0.019071	0.333391
C186	C	1.392356	0.352404	0.666724
C187	C	0.617505	-0.662427	0.000023
C188	C	0.950839	-0.329094	0.333356
C189	C	1.284172	0.004239	0.666690
C190	C	0.616793	-0.721825	0.000028
C191	C	0.950126	-0.388492	0.333361
C192	C	1.283459	-0.055158	0.666695
C193	C	0.720640	-0.735990	0.000039
C194	C	1.053973	-0.402657	0.333372
C195	C	1.387306	-0.069323	0.666706
C196	C	0.721352	-0.676591	0.000039
C197	C	1.054685	-0.343258	0.333373
C198	C	1.388018	-0.009924	0.666706
C199	C	0.669783	-0.639810	0.000028
C200	C	1.003116	-0.306477	0.333362
C201	C	1.336449	0.026857	0.666695
C202	C	0.727179	-0.189526	0.000073
C203	C	1.060513	0.143807	0.333406
C204	C	1.393846	0.477140	0.666740
C205	C	0.727886	-0.130124	0.000083
C206	C	1.061219	0.203209	0.333416
C207	C	1.394553	0.536542	0.666750
C208	C	0.624039	-0.115965	0.000068
C209	C	0.957372	0.217369	0.333401
C210	C	1.290706	0.550702	0.666735
C211	C	0.623332	-0.175361	0.000062
C212	C	0.956665	0.157972	0.333395
C213	C	1.289999	0.491305	0.666729
C214	C	0.674907	-0.212141	0.000062
C215	C	1.008240	0.121192	0.333395
C216	C	1.341574	0.454525	0.666729
O217	O	0.578083	-0.263312	0.000067
O218	O	0.911416	0.070021	0.333400
O219	O	1.244749	0.403355	0.666733
O220	O	0.770214	-0.289562	0.000054
O221	O	1.103547	0.043771	0.333387
O222	O	1.436880	0.377104	0.666720
C223	C	0.776489	0.069258	0.000067
C224	C	1.109823	0.402592	0.333400
C225	C	1.443156	0.735925	0.666733
C226	C	0.839708	0.070014	0.000068
C227	C	1.173041	0.403347	0.333402
C228	C	1.506375	0.736680	0.666735
C229	C	0.667592	0.178171	0.000039
C230	C	1.000926	0.511505	0.333373
C231	C	1.334259	0.844838	0.666706
C232	C	0.668358	0.241388	0.000029
C233	C	1.001692	0.574721	0.333362
C234	C	1.335025	0.908055	0.666696
N235	N	0.672320	0.074015	0.189757
N236	N	1.005654	0.407349	0.523090
N237	N	1.338987	0.740682	0.856424
N238	N	0.672363	0.074025	-0.189643
N239	N	1.005696	0.407359	0.143690
N240	N	1.339029	0.740692	0.477023
C241	C	0.711271	0.035091	0.228076
C242	C	1.044604	0.368424	0.561410
C243	C	1.377937	0.701758	0.894743
C244	C	0.711274	0.035088	0.304721
C245	C	1.044608	0.368422	0.638054
C246	C	1.377941	0.701755	0.971388
C247	C	0.672333	0.074020	0.343044
C248	C	1.005666	0.407353	0.676377
C249	C	1.339000	0.740686	1.009711
C250	C	0.633375	0.112947	0.304716
C251	C	0.966709	0.446281	0.638049
C252	C	1.300042	0.779614	0.971382
C253	C	0.633369	0.112945	0.228072
C254	C	0.966702	0.446278	0.561405
C255	C	1.300036	0.779612	0.894739
N256	N	0.664799	0.124456	0.463367
N257	N	0.998132	0.457789	0.796701
N258	N	1.331465	0.791123	1.130034
N259	N	0.664808	0.124456	0.536175
N260	N	0.998142	0.457790	0.869509
N261	N	1.331475	0.791123	1.202842
C262	C	0.672349	0.074028	0.573966
C263	C	1.005682	0.407361	0.907300
C264	C	1.339016	0.740695	1.240633
N265	N	0.679891	0.023598	0.536199
N266	N	1.013225	0.356931	0.869532
N267	N	1.346558	0.690264	1.202865
N268	N	0.679885	0.023598	0.463384
N269	N	1.013218	0.356931	0.796717
N270	N	1.346551	0.690265	1.130051
C271	C	0.672335	0.074026	0.426151
C272	C	1.005669	0.407360	0.759484
C273	C	1.339002	0.740693	1.092818
C274	C	0.711306	0.035097	0.695393
C275	C	1.044639	0.368431	1.028726
C276	C	1.377972	0.701764	1.362059
C277	C	0.711305	0.035094	0.772039
C278	C	1.044639	0.368427	1.105372
C279	C	1.377972	0.701761	1.438706
C280	C	0.633409	0.112958	0.772032
C281	C	0.966742	0.446291	1.105365
C282	C	1.300076	0.779625	1.438699
C283	C	0.633407	0.112956	0.695387
C284	C	0.966740	0.446290	1.028720
C285	C	1.300073	0.779623	1.362054
C286	C	0.672358	0.074027	0.657072
C287	C	1.005691	0.407360	0.990405
C288	C	1.339024	0.740693	1.323739
H289	H	0.499461	0.077970	-0.120384
H290	H	0.832794	0.411303	0.212949
H291	H	1.166127	0.744636	0.546283
H292	H	-0.047017	0.071376	-0.120371
H293	H	0.286316	0.404710	0.212962
H294	H	0.619650	0.738043	0.546296
C295	C	0.832563	-0.510291	0.000069
C296	C	1.165896	-0.176958	0.333402
C297	C	1.499230	0.156376	0.666735
N298	N	0.875297	-0.540756	0.000087
N299	N	1.208630	-0.207422	0.333420
N300	N	1.541964	0.125911	0.666753
C301	C	0.777363	-0.776461	0.000037
C302	C	1.110696	-0.443128	0.333370
C303	C	1.444030	-0.109795	0.666703
N304	N	0.820084	-0.806946	0.000034
N305	N	1.153418	-0.473612	0.333367
N306	N	1.486751	-0.140279	0.666701
C307	C	-0.163252	0.069981	-0.139328
C308	C	0.170081	0.403315	0.194005
C309	C	0.503414	0.736648	0.527338
N310	N	-0.187850	0.069683	-0.194328
N311	N	0.145483	0.403016	0.139005
N312	N	0.478817	0.736350	0.472339
C313	C	0.834056	-0.385576	0.000069
C314	C	1.167390	-0.052243	0.333402
C315	C	1.500723	0.281090	0.666735
N316	N	0.877379	-0.366851	0.000070
N317	N	1.210712	-0.033517	0.333403
N318	N	1.544045	0.299816	0.666737
H319	H	0.601700	0.144655	0.803234
H320	H	0.935033	0.477988	1.136567
H321	H	1.268367	0.811321	1.469900
C322	C	-0.038528	0.071476	0.139456
C323	C	0.294805	0.404809	0.472789
C324	C	0.628139	0.738143	0.806123
N325	N	-0.013928	0.071766	0.194454
N326	N	0.319406	0.405099	0.527788
N327	N	0.652739	0.738432	0.861121
H328	H	0.574220	-0.740232	0.000030
H329	H	0.907554	-0.406898	0.333364
H330	H	1.240887	-0.073565	0.666697
C331	C	0.560771	-0.621972	0.000021
C332	C	0.894105	-0.288639	0.333354
C333	C	1.227438	0.044694	0.666687
N334	N	0.518039	-0.591505	0.000018
N335	N	0.851373	-0.258172	0.333351
N336	N	1.184706	0.075162	0.666685
C337	C	0.754113	-0.007738	0.185934
C338	C	1.087446	0.325595	0.519267
C339	C	1.420780	0.658928	0.852601
N340	N	0.786381	-0.040000	0.154191
N341	N	1.119714	0.293334	0.487525
N342	N	1.453047	0.626667	0.820858
H343	H	0.743020	0.003397	0.664195
H344	H	1.076354	0.336730	0.997529
H345	H	1.409687	0.670063	1.330862
H346	H	0.743022	0.003394	0.803239
H347	H	1.076355	0.336727	1.136572
H348	H	1.409688	0.670061	1.469906
C349	C	0.109989	0.073263	-0.205719
C350	C	0.443322	0.406596	0.127614
C351	C	0.776655	0.739930	0.460948
N352	N	0.085397	0.072957	-0.260722
N353	N	0.418730	0.406290	0.072611
N354	N	0.752064	0.739623	0.405945
C355	C	0.510626	-0.466362	-0.000006
C356	C	0.843959	-0.133029	0.333327
C357	C	1.177293	0.200304	0.666661
N358	N	0.467303	-0.485086	-0.000023
N359	N	0.800636	-0.151753	0.333311
N360	N	1.133969	0.181580	0.666644
C361	C	0.785401	-0.105253	0.000095
C362	C	1.118735	0.228080	0.333428
C363	C	1.452068	0.561413	0.666762
N364	N	0.828721	-0.086523	0.000102
N365	N	1.162054	0.246811	0.333435
N366	N	1.495387	0.580144	0.666769
H367	H	0.582056	-0.086007	0.000067
H368	H	0.915389	0.247327	0.333400
H369	H	1.248723	0.580660	0.666733
H370	H	-0.154782	0.070078	0.120486
H371	H	0.178551	0.403411	0.453819
H372	H	0.511885	0.736744	0.787152
H373	H	0.742994	0.003390	0.335926
H374	H	1.076327	0.336723	0.669260
H375	H	1.409660	0.670057	1.002593
H376	H	0.769176	-0.219466	0.000070
H377	H	1.102510	0.113867	0.333404
H378	H	1.435843	0.447201	0.666737
H379	H	0.226216	0.074669	-0.186753
H380	H	0.559549	0.408002	0.146580
H381	H	0.892883	0.741335	0.479914
C382	C	0.590598	0.155818	0.653234
C383	C	0.923932	0.489151	0.986568
C384	C	1.257265	0.822485	1.319901
N385	N	0.558366	0.188116	0.621485
N386	N	0.891699	0.521449	0.954819
N387	N	1.225033	0.854783	1.288152
H388	H	0.526862	-0.352154	0.000003
H389	H	0.860195	-0.018820	0.333336
H390	H	1.193528	0.314513	0.666670
C391	C	0.590537	0.155770	0.346872
C392	C	0.923871	0.489103	0.680205
C393	C	1.257204	0.822436	1.013539
N394	N	0.558268	0.188023	0.378624
N395	N	0.891602	0.521356	0.711958
N396	N	1.224935	0.854690	1.045291
H397	H	0.763923	-0.658183	0.000049
H398	H	1.097257	-0.324850	0.333383
H399	H	1.430590	0.008483	0.666716
H400	H	0.391695	0.076670	-0.120388
H401	H	0.725029	0.410003	0.212946
H402	H	1.058362	0.743337	0.546279
H403	H	0.499436	0.077971	0.120464
H404	H	0.832770	0.411304	0.453797
H405	H	1.166103	0.744638	0.787131
H406	H	0.580761	-0.193774	0.000072
H407	H	0.914094	0.139559	0.333405
H408	H	1.247427	0.472892	0.666739
C409	C	0.590543	0.155792	0.185920
C410	C	0.923877	0.489125	0.519253
C411	C	1.257210	0.822458	0.852586
N412	N	0.558296	0.188073	0.154169
N413	N	0.891629	0.521407	0.487503
N414	N	1.224962	0.854740	0.820836
H415	H	0.391690	0.076661	0.120470
H416	H	0.725023	0.409995	0.453803
H417	H	1.058357	0.743328	0.787137
H418	H	0.118447	0.073345	0.186850
H419	H	0.451780	0.406679	0.520184
H420	H	0.785113	0.740012	0.853517
C421	C	0.234679	0.074740	0.205822
C422	C	0.568013	0.408073	0.539155
C423	C	0.901346	0.741406	0.872488
N424	N	0.259273	0.075026	0.260826
N425	N	0.592606	0.408359	0.594159
N426	N	0.925939	0.741692	0.927493
