data_functionalizedCrystal
_audit_creation_method	'MofGen! by Chris Wilmer'
_symmetry_space_group_name_H-M	'P1'
_symmetry_Int_Tables_number	1
_symmetry_cell_setting	triclinic
loop_
_symmetry_equiv_pos_as_xyz
  x,y,z
_cell_length_a	18.215407
_cell_length_b	19.805405
_cell_length_c	19.805399
_cell_angle_alpha	89.970699
_cell_angle_beta	89.981228
_cell_angle_gamma	90.026858
loop_
_atom_site_label
_atom_site_type_symbol
_atom_site_fract_x
_atom_site_fract_y
_atom_site_fract_z
Zn1	Zn	1.125056	-0.269471	-0.382697
Zn2	Zn	1.458390	0.063863	-0.049364
Zn3	Zn	1.791723	0.397196	0.283970
Zn4	Zn	1.124964	-0.382659	-0.269505
Zn5	Zn	1.458297	-0.049326	0.063828
Zn6	Zn	1.791631	0.284008	0.397161
Zn7	Zn	1.001991	-0.269490	-0.269523
Zn8	Zn	1.335325	0.063843	0.063810
Zn9	Zn	1.668658	0.397176	0.397143
Zn10	Zn	1.001952	-0.382624	-0.382654
Zn11	Zn	1.335285	-0.049291	-0.049320
Zn12	Zn	1.668618	0.284043	0.284013
O13	O	1.063491	-0.326061	-0.326095
O14	O	1.396824	0.007272	0.007238
O15	O	1.730157	0.340606	0.340572
O16	O	1.228028	-0.284492	-0.367693
O17	O	1.561362	0.048841	-0.034359
O18	O	1.894695	0.382175	0.298974
O19	O	1.108629	-0.367670	-0.174791
O20	O	1.441962	-0.034337	0.158542
O21	O	1.775296	0.298997	0.491875
O22	O	1.018371	-0.174771	-0.284562
O23	O	1.351705	0.158562	0.048772
O24	O	1.685038	0.491896	0.382105
O25	O	1.227960	-0.367651	-0.284531
O26	O	1.561294	-0.034318	0.048802
O27	O	1.894627	0.299016	0.382135
O28	O	1.108787	-0.174757	-0.367710
O29	O	1.442120	0.158577	-0.034377
O30	O	1.775454	0.491910	0.298957
O31	O	1.018282	-0.284525	-0.174804
O32	O	1.351615	0.048808	0.158529
O33	O	1.684948	0.382141	0.491862
O34	O	0.899002	-0.284491	-0.284520
O35	O	1.232335	0.048842	0.048814
O36	O	1.565668	0.382175	0.382147
O37	O	1.018304	-0.367591	-0.477376
O38	O	1.351637	-0.034258	-0.144043
O39	O	1.684971	0.299075	0.189291
O40	O	0.898973	-0.367610	-0.367636
O41	O	1.232306	-0.034277	-0.034303
O42	O	1.565639	0.299057	0.299031
O43	O	1.108748	-0.284458	-0.477408
O44	O	1.442082	0.048875	-0.144075
O45	O	1.775415	0.382209	0.189259
O46	O	1.108591	-0.477371	-0.284489
O47	O	1.441924	-0.144038	0.048844
O48	O	1.775257	0.189296	0.382177
O49	O	1.018214	-0.477345	-0.367619
O50	O	1.351547	-0.144012	-0.034285
O51	O	1.684881	0.189321	0.299048
C52	C	0.872285	-0.326050	-0.326075
C53	C	1.205618	0.007284	0.007258
C54	C	1.538951	0.340617	0.340591
C55	C	0.790486	-0.326061	-0.326083
C56	C	1.123819	0.007272	0.007250
C57	C	1.457152	0.340606	0.340583
C58	C	0.602296	-0.369409	-0.369308
C59	C	0.935629	-0.036076	-0.035974
C60	C	1.268962	0.297258	0.297359
C61	C	0.525437	-0.369411	-0.369316
C62	C	0.858770	-0.036078	-0.035983
C63	C	1.192104	0.297256	0.297351
C64	C	0.525438	-0.282726	-0.282897
C65	C	0.858771	0.050608	0.050436
C66	C	1.192104	0.383941	0.383770
C67	C	0.602295	-0.282721	-0.282892
C68	C	0.935628	0.050613	0.050441
C69	C	1.268962	0.383946	0.383774
C70	C	0.640722	-0.326066	-0.326097
C71	C	0.974055	0.007267	0.007237
C72	C	1.307389	0.340601	0.340570
C73	C	0.487006	-0.326073	-0.326110
C74	C	0.820339	0.007260	0.007224
C75	C	1.153673	0.340593	0.340557
C76	C	0.403672	-0.326075	-0.326119
C77	C	0.737006	0.007258	0.007215
C78	C	1.070339	0.340592	0.340548
C79	C	0.724061	-0.326063	-0.326089
C80	C	1.057394	0.007270	0.007244
C81	C	1.390728	0.340603	0.340578
C82	C	1.063408	-0.501917	-0.326062
C83	C	1.396741	-0.168584	0.007271
C84	C	1.730075	0.164750	0.340605
C85	C	1.063440	-0.577149	-0.326071
C86	C	1.396773	-0.243816	0.007263
C87	C	1.730107	0.089518	0.340596
C88	C	1.110545	-0.612484	-0.282831
C89	C	1.443878	-0.279151	0.050503
C90	C	1.777211	0.054182	0.383836
C91	C	1.110576	-0.683173	-0.282845
C92	C	1.443909	-0.349839	0.050488
C93	C	1.777243	-0.016506	0.383821
C94	C	1.063498	-0.718525	-0.326098
C95	C	1.396831	-0.385191	0.007236
C96	C	1.730165	-0.051858	0.340569
C97	C	1.016391	-0.683185	-0.369343
C98	C	1.349725	-0.349851	-0.036009
C99	C	1.683058	-0.016518	0.297324
C100	C	1.016364	-0.612497	-0.369331
C101	C	1.349698	-0.279164	-0.035997
C102	C	1.683031	0.054169	0.297336
C103	C	1.016500	-0.968258	-0.369393
C104	C	1.349833	-0.634925	-0.036060
C105	C	1.683166	-0.301591	0.297274
C106	C	1.016529	-1.038950	-0.369400
C107	C	1.349862	-0.705617	-0.036067
C108	C	1.683196	-0.372283	0.297266
C109	C	1.110711	-1.038933	-0.282908
C110	C	1.444045	-0.705600	0.050426
C111	C	1.777378	-0.372266	0.383759
C112	C	1.110684	-0.968246	-0.282896
C113	C	1.444018	-0.634913	0.050438
C114	C	1.777351	-0.301579	0.383771
C115	C	1.063581	-0.932912	-0.326143
C116	C	1.396914	-0.599579	0.007190
C117	C	1.730247	-0.266245	0.340524
C118	C	1.063548	-0.856264	-0.326127
C119	C	1.396882	-0.522930	0.007206
C120	C	1.730215	-0.189597	0.340540
C121	C	1.063526	-0.795172	-0.326111
C122	C	1.396860	-0.461838	0.007223
C123	C	1.730193	-0.128505	0.340556
C124	C	1.255444	-0.326073	-0.326115
C125	C	1.588777	0.007260	0.007219
C126	C	1.922110	0.340593	0.340552
C127	C	1.337243	-0.326078	-0.326123
C128	C	1.670576	0.007255	0.007210
C129	C	2.003909	0.340588	0.340543
C130	C	1.063532	-0.326018	-0.502638
C131	C	1.396865	0.007315	-0.169304
C132	C	1.730199	0.340648	0.164029
C133	C	1.063550	-0.326000	-0.577870
C134	C	1.396883	0.007333	-0.244536
C135	C	1.730216	0.340666	0.088797
C136	C	1.063594	-0.149518	-0.326143
C137	C	1.396927	0.183815	0.007191
C138	C	1.730261	0.517148	0.340524
C139	C	1.063638	-0.074286	-0.326163
C140	C	1.396971	0.259047	0.007170
C141	C	1.730305	0.592380	0.340504
C142	C	1.110645	-0.282711	-0.613232
C143	C	1.443979	0.050623	-0.279898
C144	C	1.777312	0.383956	0.053435
C145	C	1.110653	-0.282691	-0.683920
C146	C	1.443986	0.050642	-0.350587
C147	C	1.777319	0.383976	-0.017253
C148	C	1.063568	-0.325965	-0.719245
C149	C	1.396901	0.007368	-0.385912
C150	C	1.730235	0.340702	-0.052579
C151	C	1.016467	-0.369256	-0.683879
C152	C	1.349801	-0.035923	-0.350545
C153	C	1.683134	0.297410	-0.017212
C154	C	1.016456	-0.369272	-0.613191
C155	C	1.349790	-0.035939	-0.279858
C156	C	1.683123	0.297394	0.053475
C157	C	1.016509	-0.369193	-0.968952
C158	C	1.349842	-0.035860	-0.635619
C159	C	1.683175	0.297473	-0.302285
C160	C	1.016525	-0.369176	-1.039644
C161	C	1.349858	-0.035842	-0.706311
C162	C	1.683191	0.297491	-0.372978
C163	C	1.110705	-0.282612	-1.039681
C164	C	1.444038	0.050721	-0.706347
C165	C	1.777372	0.384054	-0.373014
C166	C	1.110694	-0.282628	-0.968993
C167	C	1.444028	0.050705	-0.635660
C168	C	1.777361	0.384039	-0.302327
C169	C	1.063591	-0.325917	-0.933633
C170	C	1.396925	0.007417	-0.600300
C171	C	1.730258	0.340750	-0.266966
C172	C	1.063583	-0.325937	-0.856984
C173	C	1.396916	0.007397	-0.523651
C174	C	1.730249	0.340730	-0.190318
C175	C	1.063580	-0.325949	-0.795893
C176	C	1.396913	0.007384	-0.462559
C177	C	1.730246	0.340718	-0.129226
C178	C	1.063492	-0.326055	-0.150239
C179	C	1.396825	0.007279	0.183094
C180	C	1.730159	0.340612	0.516428
C181	C	1.063617	-0.325882	-0.075007
C182	C	1.396950	0.007451	0.258326
C183	C	1.730284	0.340784	0.591659
H184	H	0.633581	-0.404702	-0.404489
H185	H	0.966914	-0.071369	-0.071156
H186	H	1.300247	0.261965	0.262178
H187	H	0.978179	-0.404416	-1.068404
H188	H	1.311513	-0.071083	-0.735071
H189	H	1.644846	0.262251	-0.401737
H190	H	0.978127	-0.404488	-0.712646
H191	H	1.311461	-0.071155	-0.379313
H192	H	1.644794	0.262178	-0.045979
N193	N	0.483991	-0.416162	-0.415919
N194	N	0.817324	-0.082829	-0.082586
N195	N	1.150657	0.250505	0.250748
H196	H	0.519999	-0.443620	-0.443285
H197	H	0.853332	-0.110286	-0.109951
H198	H	1.186665	0.223047	0.223382
H199	H	0.452077	-0.447449	-0.388309
H200	H	0.785411	-0.114116	-0.054976
H201	H	1.118744	0.219218	0.278357
N202	N	0.483992	-0.235994	-0.236282
N203	N	0.817325	0.097339	0.097051
N204	N	1.150658	0.430673	0.430385
H205	H	0.429471	-0.242580	-0.242834
H206	H	0.762805	0.090753	0.090500
H207	H	1.096138	0.424087	0.423833
H208	H	0.497412	-0.246484	-0.187929
H209	H	0.830746	0.086850	0.145404
H210	H	1.164079	0.420183	0.478738
N211	N	0.965683	-0.415873	-0.930836
N212	N	1.299016	-0.082540	-0.597503
N213	N	1.632350	0.250793	-0.264169
H214	H	0.977072	-0.464235	-0.943124
H215	H	1.310406	-0.130902	-0.609791
H216	H	1.643739	0.202432	-0.276458
H217	H	0.972819	-0.409267	-0.880704
H218	H	1.306153	-0.075933	-0.547371
H219	H	1.639486	0.257400	-0.214038
H220	H	1.148878	-0.583705	-0.247607
H221	H	1.482211	-0.250372	0.085727
H222	H	1.815544	0.082961	0.419060
N223	N	0.643748	-0.235961	-0.236293
N224	N	0.977081	0.097372	0.097040
N225	N	1.310414	0.430705	0.430374
H226	H	0.607743	-0.208504	-0.208922
H227	H	0.941076	0.124829	0.124411
H228	H	1.274410	0.458162	0.457744
H229	H	0.675616	-0.263465	-0.204918
H230	H	1.008949	0.069868	0.128415
H231	H	1.342283	0.403202	0.461749
N232	N	1.161381	-0.721285	-0.236208
N233	N	1.494715	-0.387952	0.097125
N234	N	1.828048	-0.054618	0.430459
H235	H	1.191197	-0.688163	-0.208803
H236	H	1.524530	-0.354830	0.124530
H237	H	1.857864	-0.021497	0.457864
H238	H	1.131454	-0.750659	-0.204867
H239	H	1.464788	-0.417325	0.128466
H240	H	1.798121	-0.083992	0.461800
H241	H	1.149017	-0.939464	-0.247673
H242	H	1.482350	-0.606131	0.085660
H243	H	1.815684	-0.272798	0.418993
N244	N	0.965550	-0.574385	-0.415962
N245	N	1.298883	-0.241052	-0.082629
N246	N	1.632217	0.092282	0.250705
H247	H	0.972676	-0.524241	-0.409392
H248	H	1.306010	-0.190908	-0.076059
H249	H	1.639343	0.142426	0.257274
H250	H	0.976976	-0.586699	-0.464314
H251	H	1.310309	-0.253365	-0.130981
H252	H	1.643642	0.079968	0.202352
N253	N	0.965688	-0.930155	-0.416029
N254	N	1.299021	-0.596822	-0.082695
N255	N	1.632354	-0.263489	0.250638
H256	H	0.972812	-0.880011	-0.409463
H257	H	1.306145	-0.546677	-0.076130
H258	H	1.639479	-0.213344	0.257203
H259	H	0.977114	-0.942473	-0.464380
H260	H	1.310447	-0.609140	-0.131046
H261	H	1.643781	-0.275806	0.202287
H262	H	0.978193	-1.067732	-0.404627
H263	H	1.311527	-0.734398	-0.071293
H264	H	1.644860	-0.401065	0.262040
N265	N	1.161517	-1.077043	-0.236259
N266	N	1.494850	-0.743709	0.097075
N267	N	1.828183	-0.410376	0.430408
H268	H	1.154394	-1.127187	-0.242827
H269	H	1.487727	-0.793854	0.090506
H270	H	1.821060	-0.460521	0.423840
H271	H	1.214066	-1.064640	-0.246829
H272	H	1.547399	-0.731306	0.086504
H273	H	1.880732	-0.397973	0.419837
N274	N	0.965653	-0.415961	-0.575054
N275	N	1.298987	-0.082628	-0.241721
N276	N	1.632320	0.250705	0.091612
H277	H	0.977053	-0.464321	-0.587342
H278	H	1.310386	-0.130988	-0.254009
H279	H	1.643719	0.202345	0.079325
H280	H	0.972808	-0.409348	-0.524926
H281	H	1.306141	-0.076015	-0.191593
H282	H	1.639474	0.257319	0.141741
N283	N	0.965616	-0.721310	-0.415997
N284	N	1.298949	-0.387977	-0.082664
N285	N	1.632282	-0.054644	0.250670
H286	H	0.972777	-0.771453	-0.409442
H287	H	1.306111	-0.438119	-0.076109
H288	H	1.639444	-0.104786	0.257224
H289	H	0.913059	-0.708999	-0.405415
H290	H	1.246393	-0.375666	-0.072081
H291	H	1.579726	-0.042333	0.261252
N292	N	1.161436	-0.236043	-0.575132
N293	N	1.494770	0.097290	-0.241798
N294	N	1.828103	0.430624	0.091535
H295	H	1.150040	-0.187677	-0.587440
H296	H	1.483374	0.145657	-0.254107
H297	H	1.816707	0.478990	0.079227
H298	H	1.154260	-0.242684	-0.524998
H299	H	1.487594	0.090650	-0.191665
H300	H	1.820927	0.423983	0.141668
N301	N	1.161434	-0.235987	-0.722061
N302	N	1.494767	0.097346	-0.388728
N303	N	1.828101	0.430680	-0.055394
H304	H	1.191259	-0.208575	-0.688957
H305	H	1.524592	0.124759	-0.355623
H306	H	1.857925	0.458092	-0.022290
H307	H	1.195482	-0.263522	-0.751397
H308	H	1.528815	0.069811	-0.418063
H309	H	1.862149	0.403144	-0.084730
N310	N	1.161483	-0.235956	-0.930896
N311	N	1.494816	0.097377	-0.597563
N312	N	1.828150	0.430711	-0.264230
H313	H	1.150083	-0.187591	-0.943208
H314	H	1.483416	0.145742	-0.609875
H315	H	1.816750	0.479075	-0.276542
H316	H	1.154308	-0.242593	-0.880762
H317	H	1.487641	0.090740	-0.547429
H318	H	1.820975	0.424074	-0.214096
N319	N	1.161509	-0.235918	-1.077819
N320	N	1.494843	0.097415	-0.744486
N321	N	1.828176	0.430748	-0.411153
H322	H	1.154373	-0.242470	-1.127960
H323	H	1.487706	0.090863	-0.794626
H324	H	1.821039	0.424196	-0.461293
H325	H	1.150085	-0.187580	-1.065473
H326	H	1.483418	0.145753	-0.732139
H327	H	1.816751	0.479086	-0.398806
