data_functionalizedCrystal
_audit_creation_method	'MofGen! by Chris Wilmer'
_symmetry_space_group_name_H-M	'P1'
_symmetry_Int_Tables_number	1
_symmetry_cell_setting	triclinic
loop_
_symmetry_equiv_pos_as_xyz
  x,y,z
_cell_length_a	14.971482
_cell_length_b	27.731996
_cell_length_c	14.048226
_cell_angle_alpha	89.987595
_cell_angle_beta	89.994098
_cell_angle_gamma	83.116998
loop_
_atom_site_label
_atom_site_type_symbol
_atom_site_fract_x
_atom_site_fract_y
_atom_site_fract_z
O1	O	1.185932	0.062984	-0.079161
O2	O	0.925410	0.070529	-0.079167
O3	O	1.063786	-0.003605	-0.079143
O4	O	1.047555	0.137118	-0.079185
O5	O	1.063770	-0.003609	0.079178
O6	O	0.925393	0.070525	0.079154
O7	O	1.185916	0.062979	0.079160
Zn8	Zn	1.055652	0.066751	0.104294
Zn9	Zn	1.055673	0.066757	-0.104301
O10	O	1.047539	0.137113	0.079136
C11	C	0.892082	0.070190	-0.000007
C12	C	0.792801	0.069180	-0.000009
C13	C	0.746155	0.068701	0.086294
C14	C	0.652872	0.067744	0.086295
C15	C	0.606236	0.067269	-0.000007
C16	C	0.652889	0.067746	-0.086316
C17	C	0.746171	0.068699	-0.086316
C18	C	0.458459	0.065760	-0.086309
C19	C	0.365170	0.064807	-0.086309
C20	C	0.365160	0.064805	0.086302
C21	C	0.458442	0.065758	0.086302
C22	C	0.505088	0.066236	-0.000008
C23	C	1.063445	-0.021616	0.000020
C24	C	1.062440	-0.075277	0.000030
C25	C	1.056131	-0.408020	-0.086317
C26	C	1.052317	-0.609695	-0.086334
O27	O	1.051793	-0.635767	-0.159731
N28	N	1.051835	-0.634917	-0.000034
C29	C	1.052300	-0.609716	0.086276
O30	O	1.051792	-0.635796	0.159679
C31	C	1.056107	-0.408041	0.086292
C32	C	1.056598	-0.382823	-0.000014
C33	C	1.056622	-0.382801	-0.172616
C34	C	1.057580	-0.332386	-0.172611
C35	C	1.058047	-0.307188	-0.086307
C36	C	1.057557	-0.332407	-0.000009
C37	C	1.056565	-0.382841	0.172602
C38	C	1.057515	-0.332419	0.172598
C39	C	1.058007	-0.307200	0.086292
C40	C	1.058983	-0.256794	0.086300
N41	N	1.059465	-0.231573	0.000000
C42	C	1.058998	-0.256770	-0.086304
C43	C	1.050303	-0.715599	0.086262
C44	C	1.049352	-0.766018	0.086258
C45	C	1.049368	-0.765993	-0.086353
C46	C	1.050325	-0.715574	-0.086348
C47	C	1.050785	-0.690377	-0.000038
C48	C	1.061011	-0.150893	-0.086286
C49	C	1.061973	-0.100474	-0.086274
C50	C	1.061952	-0.100502	0.086337
C51	C	1.060995	-0.150918	0.086325
C52	C	1.060521	-0.176112	0.000005
O53	O	1.059497	-0.230692	0.159658
O54	O	1.059485	-0.230680	-0.159696
C55	C	1.055173	-0.458435	-0.086323
C56	C	1.054682	-0.483654	-0.000024
C57	C	1.055150	-0.458457	0.086280
C58	C	1.053732	-0.534073	-0.000028
C59	C	1.053264	-0.559270	-0.086331
C60	C	1.053747	-0.534048	-0.172631
C61	C	1.054705	-0.483632	-0.172626
C62	C	1.054667	-0.483678	0.172580
C63	C	1.053710	-0.534094	0.172568
C64	C	1.053242	-0.559291	0.086264
C65	C	1.219243	0.063319	-0.000002
C66	C	1.318524	0.064329	-0.000007
C67	C	1.047881	0.155124	-0.000030
C68	C	1.048885	0.208785	-0.000046
N69	N	1.055644	0.066747	0.246655
N70	N	1.055689	0.066758	-0.246662
C71	C	1.116936	0.033934	0.296483
C72	C	1.116942	0.033934	0.396141
C73	C	1.055659	0.066749	0.445968
C74	C	0.994361	0.099564	0.396133
C75	C	0.994351	0.099561	0.296477
C76	C	0.994386	0.099567	0.603847
C77	C	0.994397	0.099570	0.703510
C78	C	1.116977	0.033940	0.703511
C79	C	1.116967	0.033938	0.603855
C80	C	1.055670	0.066753	0.554026
H81	H	0.784119	0.069092	0.156571
Br82	Br	0.301856	0.064159	0.203436
Br83	Br	1.055373	-0.449415	-0.289762
H84	H	1.053316	-0.554623	0.242854
Br85	Br	1.055895	-0.417053	0.289739
Br86	Br	1.200169	-0.010592	0.771138
H87	H	1.056238	-0.403311	-0.242899
H88	H	0.327201	0.064421	-0.156584
Br89	Br	0.589568	0.067103	0.203424
H90	H	1.062337	-0.079978	0.156603
Br91	Br	0.521765	0.066405	-0.203444
H92	H	0.614911	0.067356	-0.156584
Br93	Br	0.911224	0.144107	0.771125
H94	H	0.944468	0.126287	0.563280
H95	H	0.944440	0.126280	0.255907
H96	H	1.166872	0.007219	0.563286
H97	H	0.784149	0.069090	-0.156592
Br98	Br	1.048730	-0.800198	-0.203479
H99	H	1.062375	-0.079943	-0.156557
H100	H	0.496410	0.066148	0.156576
H101	H	1.060621	-0.171400	-0.156576
Br102	Br	1.058241	-0.298168	-0.289747
Br103	Br	1.050992	-0.681354	-0.203481
Br104	Br	1.200116	-0.010600	0.228871
Br105	Br	1.048707	-0.800238	0.203392
H106	H	1.050682	-0.695089	0.156550
Br107	Br	1.058137	-0.298226	0.289740
Br108	Br	0.911183	0.144097	0.463751
H109	H	1.055049	-0.463168	0.242861
Br110	Br	1.053119	-0.568254	-0.289757
Br111	Br	1.060348	-0.185146	0.203454
H112	H	1.166850	0.007215	0.436711
