data_functionalizedCrystal
_audit_creation_method	'MofGen! by Chris Wilmer'
_symmetry_space_group_name_H-M	'P1'
_symmetry_Int_Tables_number	1
_symmetry_cell_setting	triclinic
loop_
_symmetry_equiv_pos_as_xyz
  x,y,z
_cell_length_a	23.096457
_cell_length_b	23.096457
_cell_length_c	17.917603
_cell_angle_alpha	90.013246
_cell_angle_beta	57.012393
_cell_angle_gamma	60.007374
loop_
_atom_site_label
_atom_site_type_symbol
_atom_site_fract_x
_atom_site_fract_y
_atom_site_fract_z
Zr1	Zr	0.580435	-0.049319	0.754910
O2	O	0.710061	-0.146185	0.629759
O3	O	0.456938	-0.019625	0.793273
O4	O	0.577730	-0.140415	0.793238
O5	O	0.589265	0.069888	0.629824
O6	O	0.568625	-0.135862	0.922196
O7	O	0.589269	-0.025395	0.629794
O8	O	0.352550	0.080210	0.922259
O9	O	0.805340	-0.146184	0.629762
O10	O	0.498669	-0.003561	0.905878
O11	O	0.505461	0.064149	0.809660
O12	O	0.647678	-0.078066	0.809619
O13	O	0.654471	-0.010355	0.713402
Zr14	Zr	0.565906	0.109909	0.960633
Zr15	Zr	0.565912	-0.042057	0.960584
Zr16	Zr	0.580429	0.102647	0.754959
Zr17	Zr	0.732394	-0.049316	0.754915
Zr18	Zr	0.413947	0.109906	0.960627
O19	O	0.689403	0.080215	0.922270
O20	O	0.689412	-0.135860	0.922200
O21	O	0.710052	0.069890	0.629828
O22	O	0.436280	0.206776	1.085784
O23	O	0.436289	-0.009300	1.085714
O24	O	0.456930	0.196450	0.793342
O25	O	0.557076	-0.009298	1.085718
O26	O	0.568611	0.201006	0.922305
O27	O	0.577717	0.196452	0.793346
O28	O	0.557072	0.085985	1.085749
O29	O	0.793796	-0.140412	0.793245
O30	O	0.352545	0.201002	0.922297
O31	O	0.341001	0.206774	1.085781
O32	O	0.341006	0.085982	1.085742
O33	O	0.805335	-0.025392	0.629801
O34	O	0.793792	-0.019619	0.793284
O35	O	0.498663	0.138656	0.905923
O36	O	0.491870	0.070945	1.002141
O37	O	0.640880	-0.003559	0.905882
O38	O	0.647673	0.064152	0.809665
C39	C	0.383093	0.030292	0.857765
C40	C	0.318583	0.030291	0.857763
C41	C	-0.084432	-0.024705	0.786727
C42	C	-0.023812	-0.024705	0.786719
C43	C	-0.051009	0.030295	0.857779
C44	C	-0.138833	0.085309	0.928838
C45	C	-0.199449	0.085311	0.928838
N46	N	-0.000856	0.049163	0.942033
N47	N	0.056731	0.049156	0.942028
C48	C	0.131621	0.030292	0.857780
N49	N	0.146759	0.011422	0.773530
N50	N	0.089169	0.011425	0.773535
C51	C	0.014713	0.030299	0.857785
C52	C	0.285165	-0.024715	0.786712
C53	C	0.345783	-0.024710	0.786703
C54	C	0.230760	0.085301	0.928830
C55	C	0.170145	0.085298	0.928831
C56	C	0.197353	0.030287	0.857772
C57	C	0.573178	-0.159791	0.857710
C58	C	0.573181	-0.224304	0.857689
C59	C	0.650960	-0.293498	0.807449
C60	C	0.650959	-0.354113	0.807473
C61	C	0.573176	-0.345531	0.857725
C62	C	0.495387	-0.276325	0.907977
C63	C	0.495389	-0.215711	0.907959
N64	N	0.518409	-0.413333	0.850791
N65	N	0.518413	-0.470916	0.850803
C66	C	0.573165	-0.528155	0.857784
N67	N	0.627927	-0.525642	0.864735
N68	N	0.627927	-0.468055	0.864718
C69	C	0.573165	-0.411252	0.857751
C70	C	0.650948	-0.663078	0.807568
C71	C	0.650944	-0.723693	0.807599
C72	C	0.495370	-0.645902	0.908097
C73	C	0.495376	-0.585289	0.908072
C74	C	0.573168	-0.593882	0.857802
C75	C	0.763248	0.030298	0.857778
C76	C	0.827759	0.030299	0.857780
C77	C	0.591336	0.021212	0.600505
C78	C	0.597501	0.018129	0.513191
C79	C	0.573163	0.220381	0.857832
C80	C	0.573161	0.284894	0.857853
C81	C	0.608763	0.012499	0.353345
C82	C	0.537582	0.048089	0.362190
C83	C	0.543848	0.044957	0.273247
C84	C	0.602499	0.015631	0.442295
C85	C	0.555005	0.039378	1.115038
C86	C	0.548840	0.042461	1.202352
C87	C	0.364928	0.039375	1.115031
C88	C	0.294252	0.042457	1.202343
C89	C	0.383086	0.220378	0.857826
C90	C	0.318572	0.284890	0.857845
C91	C	0.364920	0.229461	1.115092
C92	C	0.294242	0.297056	1.202425
C93	C	0.781421	-0.168871	0.600450
C94	C	0.852100	-0.236466	0.513118
C95	C	0.781414	0.021215	0.600511
C96	C	0.852090	0.018133	0.513200
C97	C	0.763256	-0.159787	0.857717
C98	C	0.827769	-0.224300	0.857698
C99	C	0.264610	0.005006	1.193097
C100	C	0.198212	0.007887	1.275128
C101	C	0.161452	0.048224	1.366404
C102	C	0.191099	0.085676	1.375647
C103	C	0.257501	0.082790	1.293618
C104	C	0.284728	0.354084	0.908102
C105	C	0.224120	0.414705	0.908115
C106	C	0.197353	0.406132	0.857877
C107	C	0.231204	0.336931	0.807614
C108	C	0.291815	0.276311	0.807595
C109	C	0.257504	0.293455	1.293670
C110	C	0.191102	0.356963	1.375736
C111	C	0.161435	0.424070	1.366555
C112	C	0.198179	0.427669	1.275300
C113	C	0.264584	0.364162	1.193236
C114	C	0.888845	-0.232865	0.421873
C115	C	0.955266	-0.296372	0.339807
C116	C	0.984936	-0.363479	0.348988
C117	C	0.948188	-0.367078	0.440243
C118	C	0.881772	-0.303572	0.522307
C119	C	0.881737	0.055578	0.522446
C120	C	0.948153	0.052680	0.440415
C121	C	0.984915	0.012341	0.349139
C122	C	0.955264	-0.025108	0.339895
C123	C	0.888854	-0.022214	0.421925
C124	C	0.854516	-0.215703	0.907946
C125	C	0.915124	-0.276313	0.907947
C126	C	0.948988	-0.345519	0.857695
C127	C	0.922235	-0.354114	0.807445
C128	C	0.861624	-0.293504	0.807450
H129	H	0.307320	-0.069507	0.728850
H130	H	0.864692	-0.178229	0.414378
H131	H	0.985175	-0.293428	0.265511
O132	O	0.328307	0.201683	0.753391
H133	H	0.374957	0.160962	0.761806
O134	O	0.856879	-0.062601	0.411944
H135	H	0.787545	-0.023895	0.446923
H136	H	0.294488	0.367104	1.118943
O137	O	-0.055091	-0.084031	0.710083
H138	H	0.016158	-0.122276	0.660668
O139	O	0.411488	-0.510650	0.962266
H140	H	0.411516	-0.483057	0.911549
H141	H	1.039016	-0.415185	0.282158
H142	H	0.432038	-0.638913	0.949015
H143	H	0.147998	0.455499	0.857900
H144	H	0.972354	-0.421725	0.447707
H145	H	0.826953	-0.159358	0.948868
H146	H	0.107383	0.050568	1.433190
H147	H	0.174081	-0.022611	1.267583
O148	O	0.980116	0.093083	0.450395
H149	H	0.943379	0.121630	0.527647
H150	H	0.209401	0.329961	0.766711
H151	H	0.294539	-0.027849	1.118783
O152	O	0.450622	0.091559	0.460696
H153	H	0.459284	0.087221	0.516105
H154	H	0.674404	-0.020321	0.278980
H155	H	0.417286	-0.069502	0.728840
O156	O	0.313592	0.363339	0.962290
H157	H	0.343267	0.391738	0.933255
H158	H	0.161160	0.118517	1.449975
H159	H	1.038989	0.009991	0.282353
H160	H	0.281626	0.113292	1.301159
O161	O	0.994922	-0.068616	0.241444
H162	H	0.986094	-0.032539	0.201684
O163	O	0.842131	-0.307459	0.620722
H164	H	0.873918	-0.364794	0.613309
H165	H	0.196564	0.471046	0.949049
H166	H	0.281649	0.238819	1.301164
O167	O	0.943975	-0.267036	0.962144
H168	H	0.910252	-0.208730	0.997071
O169	O	0.734855	-0.428754	0.753288
H170	H	0.721782	-0.469457	0.761755
O171	O	0.411485	-0.267054	0.962187
H172	H	0.411499	-0.294690	0.911483
O173	O	1.014372	-0.410889	0.857679
H174	H	1.027286	-0.393278	0.901054
H175	H	0.949816	-0.410469	0.766530
H176	H	0.161191	0.354019	1.450032
O177	O	0.089803	0.492565	1.455070
H178	H	0.069238	0.478780	1.520058
O179	O	0.166167	0.500050	1.265402
H180	H	0.113810	0.543599	1.337801
H181	H	0.851811	0.088431	0.596759
O182	O	0.070909	-0.084038	0.710089
H183	H	0.079643	-0.122293	0.660684
O184	O	-0.168174	0.144625	1.005493
H185	H	-0.111272	0.135377	0.993566
O186	O	-0.294166	0.144630	1.005489
H187	H	-0.302899	0.182873	1.054907
H188	H	0.432050	-0.159368	0.948873
H189	H	0.839854	-0.300514	0.766528
H190	H	0.208615	0.130086	0.986684
H191	H	0.098644	0.130087	0.986693
O192	O	0.734845	-0.672335	0.753365
H193	H	0.788931	-0.730637	0.718445
H194	H	0.714284	-0.780035	0.766690
O195	O	0.734859	-0.302762	0.753235
H196	H	0.788944	-0.361065	0.718307
