data_functionalizedCrystal
_audit_creation_method	'MofGen! by Chris Wilmer'
_symmetry_space_group_name_H-M	'P1'
_symmetry_Int_Tables_number	1
_symmetry_cell_setting	triclinic
loop_
_symmetry_equiv_pos_as_xyz
  x,y,z
_cell_length_a	13.032831
_cell_length_b	12.594516
_cell_length_c	13.032268
_cell_angle_alpha	97.152436
_cell_angle_beta	90.886977
_cell_angle_gamma	82.821304
loop_
_atom_site_label
_atom_site_type_symbol
_atom_site_fract_x
_atom_site_fract_y
_atom_site_fract_z
Zn1	Zn	1.498496	-0.718822	-0.780872
Zn2	Zn	1.998496	-0.218822	-0.280872
Zn3	Zn	1.520242	-0.877407	-0.608900
Zn4	Zn	2.020242	-0.377407	-0.108900
Zn5	Zn	1.348353	-0.674358	-0.587111
Zn6	Zn	1.848353	-0.174358	-0.087111
Zn7	Zn	1.326490	-0.871652	-0.759025
Zn8	Zn	1.826490	-0.371652	-0.259025
O9	O	1.423395	-0.785560	-0.683977
O10	O	1.923395	-0.285560	-0.183977
O11	O	1.645302	-0.760876	-0.776322
O12	O	2.145302	-0.260876	-0.276322
O13	O	1.515691	-0.834272	-0.462092
O14	O	2.015691	-0.334272	0.037908
O15	O	1.368319	-0.531320	-0.612838
O16	O	1.868319	-0.031320	-0.112838
O17	O	1.661279	-0.877387	-0.649975
O18	O	2.161279	-0.377387	-0.149975
O19	O	1.478628	-0.563987	-0.755193
O20	O	1.978628	-0.063987	-0.255193
O21	O	1.389406	-0.685093	-0.446084
O22	O	1.889406	-0.185093	0.053916
O23	O	1.201532	-0.679512	-0.591654
O24	O	1.701532	-0.179512	-0.091654
O25	O	1.331056	-0.867579	-0.905841
O26	O	1.831056	-0.367579	-0.405841
O27	O	1.185469	-0.824463	-0.717958
O28	O	1.685469	-0.324463	-0.217958
O29	O	1.457428	-0.755295	-0.921892
O30	O	1.957428	-0.255295	-0.421892
O31	O	1.494491	-1.025580	-0.628791
O32	O	1.994491	-0.525580	-0.128791
O33	O	1.352143	-1.021351	-0.739087
O34	O	1.852143	-0.521351	-0.239087
C35	C	1.156183	-0.746539	-0.650071
C36	C	1.656183	-0.246539	-0.150071
C37	C	1.041866	-0.729875	-0.635591
C38	C	1.541866	-0.229875	-0.135591
C39	C	0.982991	-0.794257	-0.691535
C40	C	1.482991	-0.294257	-0.191535
C41	C	0.864838	-0.777035	-0.676569
C42	C	1.364838	-0.277035	-0.176569
C43	C	1.423329	-1.062090	-0.683958
C44	C	1.923329	-0.562090	-0.183958
C45	C	1.423391	-1.180408	-0.683997
C46	C	1.923391	-0.680408	-0.183997
C47	C	1.345967	-1.247394	-0.743938
C48	C	1.845967	-0.747394	-0.243938
C49	C	1.332833	-1.304009	-0.646920
C50	C	1.832833	-0.804009	-0.146920
C51	C	1.436617	-1.334607	-0.781043
C52	C	1.936617	-0.834607	-0.281043
C53	C	1.410213	-1.235453	-0.586923
C54	C	1.910213	-0.735453	-0.086923
C55	C	1.514033	-1.266057	-0.721115
C56	C	2.014033	-0.766057	-0.221115
C57	C	1.500943	-1.322639	-0.624037
C58	C	2.000943	-0.822639	-0.124037
C59	C	1.691651	-0.824733	-0.718016
C60	C	2.191651	-0.324733	-0.218016
C61	C	1.805965	-0.841426	-0.732521
C62	C	2.305965	-0.341426	-0.232521
C63	C	1.389378	-0.815755	-0.952226
C64	C	1.889378	-0.315755	-0.452226
C65	C	1.374882	-0.828622	-1.066537
C66	C	1.874882	-0.328622	-0.566537
C67	C	1.423487	-0.507956	-0.684022
C68	C	1.923487	-0.007956	-0.184022
C69	C	1.423526	-0.389658	-0.684041
C70	C	1.923526	0.110342	-0.184041
C71	C	1.430945	-0.778803	-1.125443
C72	C	1.930945	-0.278803	-0.625443
C73	C	1.415964	-0.792101	-1.243590
C74	C	1.915964	-0.292101	-0.743590
C75	C	1.457340	-0.755414	-0.416779
C76	C	1.957340	-0.255414	0.083221
C77	C	1.472035	-0.742276	-0.302494
C78	C	1.972035	-0.242276	0.197506
H79	H	1.004798	-0.662001	-0.576621
H80	H	1.504798	-0.162001	-0.076621
F81	F	1.260268	-1.204279	-0.810068
F82	F	1.760268	-0.704279	-0.310068
F83	F	1.549286	-0.673665	-1.254098
F84	F	2.049286	-0.173665	-0.754098
F85	F	1.232719	-1.326508	-0.605901
F86	F	1.732719	-0.826508	-0.105901
F87	F	1.395548	-1.179297	-0.479628
F88	F	1.895548	-0.679297	0.020372
H89	H	1.490030	-0.726303	-1.088406
H90	H	1.990030	-0.226303	-0.588406
F91	F	1.338719	-0.860717	-1.291989
F92	F	1.838719	-0.360717	-0.791989
H93	H	1.566484	-1.355404	-0.573298
H94	H	2.066484	-0.855404	-0.073298
H95	H	1.020059	-0.862124	-0.750512
H96	H	1.520059	-0.362124	-0.250512
H97	H	0.843026	-0.909296	-0.791506
H98	H	1.343026	-0.409296	-0.291506
F99	F	0.816397	-0.688312	-0.599485
F100	F	1.316397	-0.188312	-0.099485
F101	F	1.614114	-1.243526	-0.762164
F102	F	2.114114	-0.743526	-0.262164
H103	H	1.447750	-1.377685	-0.863096
H104	H	1.947750	-0.877685	-0.363096
F105	F	1.297641	-0.897235	-1.114941
F106	F	1.797641	-0.397235	-0.614941
