data_functionalizedCrystal
_audit_creation_method	'MofGen! by Chris Wilmer'
_symmetry_space_group_name_H-M	'P1'
_symmetry_Int_Tables_number	1
_symmetry_cell_setting	triclinic
loop_
_symmetry_equiv_pos_as_xyz
  x,y,z
_cell_length_a	10.654549
_cell_length_b	16.956984
_cell_length_c	9.130313
_cell_angle_alpha	90.004905
_cell_angle_beta	90.002502
_cell_angle_gamma	80.269098
loop_
_atom_site_label
_atom_site_type_symbol
_atom_site_fract_x
_atom_site_fract_y
_atom_site_fract_z
O1	O	1.654683	0.111932	0.121767
O2	O	1.287951	0.122597	0.121777
O3	O	1.493350	0.001308	0.121761
O4	O	1.449284	0.233222	0.121783
O5	O	1.493337	0.001304	-0.121838
O6	O	1.287938	0.122593	-0.121822
O7	O	1.654670	0.111929	-0.121832
Cu8	Cu	1.471303	0.117261	-0.144069
Cu9	Cu	1.471318	0.117265	0.144014
O10	O	1.449272	0.233218	-0.121816
C11	C	1.241239	0.121812	-0.000021
C12	C	1.102071	0.119469	-0.000017
C13	C	0.883421	0.188676	-0.000017
C14	C	1.014183	0.190883	-0.000008
C15	C	1.059192	0.045844	-0.000021
C16	C	0.928433	0.043638	-0.000020
C17	C	1.495600	-0.028390	-0.000038
C18	C	1.502308	-0.116873	-0.000037
C19	C	1.390142	-0.149578	-0.000027
C20	C	1.396453	-0.232718	-0.000031
C21	C	1.514931	-0.283153	-0.000035
C22	C	1.627106	-0.250443	-0.000049
C23	C	1.620794	-0.167304	-0.000055
C24	C	1.546176	-0.532752	-0.000026
C25	C	1.552479	-0.615897	-0.000015
C26	C	1.321825	-0.598166	-0.000001
C27	C	1.315523	-0.515026	0.000002
C28	C	1.427698	-0.482324	-0.000020
N29	N	1.521385	-0.368136	-0.000034
N30	N	1.421243	-0.397342	-0.000031
C31	C	1.701383	0.112713	-0.000031
C32	C	1.840551	0.115056	-0.000025
C33	C	1.447021	0.262915	-0.000014
C34	C	1.440313	0.351399	-0.000005
N35	N	1.471302	0.117257	-0.346692
C36	C	1.562278	0.063573	-0.423351
C37	C	1.562290	0.063573	-0.576688
C38	C	1.380344	0.170949	-0.576693
C39	C	1.380328	0.170944	-0.423359
N40	N	1.471330	0.117262	0.346637
H41	H	1.293663	-0.108519	-0.000017
C42	C	1.662362	0.004522	-0.661014
H43	H	1.649338	0.012205	-0.763315
H44	H	1.745218	0.013672	-0.635869
H45	H	1.654250	-0.048750	-0.635895
H46	H	1.637516	-0.506137	-0.000040
C47	C	1.155865	-0.032709	-0.000036
H48	H	1.239882	-0.020852	-0.000052
H49	H	1.143691	-0.062870	0.084907
H50	H	1.143673	-0.062863	-0.085001
H51	H	1.306277	0.214660	-0.639131
C52	C	1.662342	0.004522	-0.339015
H53	H	1.649315	0.012213	-0.236714
H54	H	1.654252	-0.048748	-0.364157
H55	H	1.745202	0.013684	-0.364132
C56	C	0.881272	-0.037348	-0.000033
H57	H	0.952337	-0.079566	-0.000051
H58	H	0.831200	-0.041221	0.084915
H59	H	0.831195	-0.041221	-0.084992
H60	H	1.305115	-0.259342	-0.000013
H61	H	1.712132	-0.140678	-0.000065
C62	C	1.280251	0.230001	-0.339028
H63	H	1.226084	0.261984	-0.406647
H64	H	1.230986	0.201021	-0.279230
H65	H	1.321952	0.263443	-0.279196
H66	H	1.219045	-0.473967	0.000009
H67	H	1.049080	0.250831	-0.000000
C68	C	0.786755	0.267232	0.000002
H69	H	0.831021	0.311392	0.000024
H70	H	0.734801	0.269391	-0.084942
H71	H	0.734821	0.269382	0.084966
H72	H	1.230498	-0.624802	0.000015
C73	C	1.757433	-0.305915	-0.000052
H74	H	1.823332	-0.274528	-0.000071
H75	H	1.764696	-0.338710	0.084900
H76	H	1.764685	-0.338721	-0.085007
H77	H	1.648964	-0.656959	-0.000008
