data_functionalizedCrystal
_audit_creation_method	'MofGen! by Chris Wilmer'
_symmetry_space_group_name_H-M	'P1'
_symmetry_Int_Tables_number	1
_symmetry_cell_setting	triclinic
loop_
_symmetry_equiv_pos_as_xyz
  x,y,z
_cell_length_a	11.792241
_cell_length_b	13.101039
_cell_length_c	11.792254
_cell_angle_alpha	86.614705
_cell_angle_beta	84.196007
_cell_angle_gamma	93.376518
loop_
_atom_site_label
_atom_site_type_symbol
_atom_site_fract_x
_atom_site_fract_y
_atom_site_fract_z
O1	O	1.513114	0.085115	0.149348
O2	O	1.182775	0.085139	0.165379
O3	O	1.355953	0.085119	-0.007805
O4	O	1.339936	0.085135	0.322533
O5	O	1.343528	-0.085309	0.004641
O6	O	1.170350	-0.085289	0.177826
O7	O	1.500688	-0.085313	0.161795
Zn8	Zn	1.333546	-0.112361	0.171786
Zn9	Zn	1.349917	0.112186	0.155388
O10	O	1.327511	-0.085293	0.334979
C11	C	1.134272	-0.000072	0.170595
C12	C	1.008259	-0.000063	0.167580
N13	N	1.322382	-0.265608	0.182977
C14	C	0.777544	-0.000093	0.162039
C15	C	0.905930	-0.000077	0.165118
C16	C	1.307193	-0.474649	0.198214
C17	C	1.376276	-0.525532	0.128955
C18	C	1.367824	-0.641850	0.137433
C19	C	1.315643	-0.358321	0.189738
C20	C	1.549192	-0.000100	0.156579
C21	C	1.675206	-0.000102	0.159593
C22	C	1.348731	-0.000095	-0.043873
C23	C	1.345711	-0.000093	-0.169886
N24	N	1.361090	0.265434	0.144188
C25	C	1.343258	-0.000090	-0.272223
C26	C	1.340190	-0.000080	-0.400610
C27	C	1.334733	-0.000077	0.371047
C28	C	1.337753	-0.000072	0.497059
H29	H	1.441768	-0.481737	0.063295
Cl30	Cl	1.206087	-0.542258	0.299588
