data_functionalizedCrystal
_audit_creation_method	'MofGen! by Chris Wilmer'
_symmetry_space_group_name_H-M	'P1'
_symmetry_Int_Tables_number	1
_symmetry_cell_setting	triclinic
loop_
_symmetry_equiv_pos_as_xyz
  x,y,z
_cell_length_a	10.654552
_cell_length_b	10.489741
_cell_length_c	8.965430
_cell_angle_alpha	90.001511
_cell_angle_beta	89.995526
_cell_angle_gamma	84.512612
loop_
_atom_site_label
_atom_site_type_symbol
_atom_site_fract_x
_atom_site_fract_y
_atom_site_fract_z
O1	O	-1.667923	-0.179168	0.124052
O2	O	-1.302453	-0.196234	0.124052
O3	O	-1.493505	-0.002099	0.124043
O4	O	-1.476872	-0.373303	0.124061
O5	O	-1.493487	-0.002115	-0.124036
O6	O	-1.302436	-0.196250	-0.124027
O7	O	-1.667906	-0.179184	-0.124027
Cu8	Cu	-1.485169	-0.187718	-0.146679
Cu9	Cu	-1.485190	-0.187699	0.146703
O10	O	-1.476855	-0.373318	-0.124018
C11	C	-1.255646	-0.194988	0.000012
C12	C	-1.116201	-0.191237	0.000012
C13	C	-1.714713	-0.180430	0.000016
C14	C	-1.854158	-0.184181	0.000026
C15	C	-1.492240	0.045424	0.000004
C16	C	-1.488481	0.187052	0.000007
N17	N	-1.485164	-0.187731	-0.353028
C18	C	-0.919650	-0.185952	-0.135207
C19	C	-1.050672	-0.189485	-0.135214
C20	C	-1.050700	-0.189469	0.135255
C21	C	-0.919679	-0.185945	0.135261
C22	C	-1.220767	-0.268914	-0.297684
C23	C	-1.286266	-0.270663	-0.432924
C24	C	-1.252677	-0.194913	-0.552324
C25	C	-1.153595	-0.117383	-0.536489
C26	C	-1.088104	-0.115622	-0.401247
C27	C	-1.121688	-0.191401	-0.281853
C28	C	-0.749583	-0.106506	0.297722
C29	C	-0.684091	-0.104736	0.432965
C30	C	-0.717678	-0.180478	0.552377
C31	C	-0.816767	-0.257989	0.536558
C32	C	-0.882259	-0.259760	0.401314
C33	C	-0.848662	-0.184020	0.281902
C34	C	-1.478120	-0.420842	0.000024
C35	C	-1.481878	-0.562469	0.000031
C36	C	-1.366921	0.255134	0.000018
C37	C	-1.424336	0.347276	-0.122298
C38	C	-1.424382	0.347267	0.122289
C39	C	-1.545947	0.277328	-0.122410
C40	C	-1.545976	0.277309	0.122287
C41	C	-1.603479	0.369423	-0.000059
C42	C	-1.397544	-0.278212	-0.549733
C43	C	-1.371103	-0.163080	-0.450275
C44	C	-1.511549	-0.302853	-0.450278
C45	C	-1.458707	-0.072487	-0.549678
C46	C	-1.599204	-0.212335	-0.549690
C47	C	-1.572810	-0.097120	-0.450277
N48	N	-1.485205	-0.187677	0.353053
H49	H	-0.866304	-0.184532	-0.245324
H50	H	-1.372939	0.378213	0.225707
H51	H	-1.597374	0.246295	0.225701
H52	H	-1.695596	-0.233215	-0.593396
H53	H	-1.323378	-0.354663	-0.593402
H54	H	-1.533865	-0.400237	-0.406644
H55	H	-1.266975	0.205436	-0.000105
H56	H	-1.126265	-0.055692	-0.633716
H57	H	-1.274681	-0.142243	-0.406596
H58	H	-1.646928	-0.020497	-0.406884
H59	H	-1.007434	-0.052497	-0.388355
H60	H	-1.306015	-0.196340	-0.662439
H61	H	-1.104064	-0.190903	0.245359
H62	H	-1.703515	0.418895	-0.000127
H63	H	-1.436295	0.024915	-0.593158
H64	H	-1.366938	-0.333797	-0.445807
H65	H	-0.962940	-0.322881	0.388440
H66	H	-1.248115	-0.330613	-0.200474
H67	H	-0.844116	-0.319663	0.633794
H68	H	-1.372894	0.378257	-0.225707
H69	H	-1.597330	0.246514	-0.225934
H70	H	-0.664348	-0.179023	0.662502
H71	H	-0.603409	-0.041615	0.445839
H72	H	-0.722216	-0.044837	0.200485
