data_functionalizedCrystal
_audit_creation_method	'MofGen! by Chris Wilmer'
_symmetry_space_group_name_H-M	'P1'
_symmetry_Int_Tables_number	1
_symmetry_cell_setting	triclinic
loop_
_symmetry_equiv_pos_as_xyz
  x,y,z
_cell_length_a	16.959455
_cell_length_b	25.639240
_cell_length_c	25.639234
_cell_angle_alpha	89.971713
_cell_angle_beta	89.984076
_cell_angle_gamma	90.029777
loop_
_atom_site_label
_atom_site_type_symbol
_atom_site_fract_x
_atom_site_fract_y
_atom_site_fract_z
Zn1	Zn	1.208279	-0.208244	-0.295663
Zn2	Zn	1.541613	0.125090	0.037671
Zn3	Zn	1.874946	0.458423	0.371004
Zn4	Zn	1.208183	-0.295666	-0.208216
Zn5	Zn	1.541516	0.037667	0.125117
Zn6	Zn	1.874850	0.371000	0.458451
Zn7	Zn	1.076118	-0.208242	-0.208233
Zn8	Zn	1.409451	0.125091	0.125101
Zn9	Zn	1.742785	0.458425	0.458434
Zn10	Zn	1.076043	-0.295645	-0.295612
Zn11	Zn	1.409377	0.037688	0.037722
Zn12	Zn	1.742710	0.371021	0.371055
O13	O	1.142156	-0.251949	-0.251931
O14	O	1.475489	0.081384	0.081403
O15	O	1.808823	0.414717	0.414736
O16	O	1.318877	-0.219850	-0.284077
O17	O	1.652211	0.113483	0.049256
O18	O	1.985544	0.446817	0.382590
O19	O	1.190655	-0.284077	-0.135053
O20	O	1.523988	0.049256	0.198280
O21	O	1.857322	0.382590	0.531614
O22	O	1.093721	-0.135077	-0.219859
O23	O	1.427055	0.198256	0.113475
O24	O	1.760388	0.531590	0.446808
O25	O	1.318807	-0.284079	-0.219830
O26	O	1.652140	0.049255	0.113503
O27	O	1.985473	0.382588	0.446836
O28	O	1.190820	-0.135078	-0.284093
O29	O	1.524153	0.198255	0.049240
O30	O	1.857486	0.531588	0.382574
O31	O	1.093628	-0.219847	-0.135065
O32	O	1.426961	0.113486	0.198268
O33	O	1.760294	0.446820	0.531602
O34	O	0.965497	-0.219827	-0.219809
O35	O	1.298831	0.113506	0.113524
O36	O	1.632164	0.446840	0.446857
O37	O	1.093594	-0.284044	-0.368784
O38	O	1.426927	0.049290	-0.035450
O39	O	1.760260	0.382623	0.297883
O40	O	0.965442	-0.284042	-0.284006
O41	O	1.298776	0.049292	0.049327
O42	O	1.632109	0.382625	0.382660
O43	O	1.190747	-0.219830	-0.368821
O44	O	1.524080	0.113503	-0.035488
O45	O	1.857414	0.446837	0.297846
O46	O	1.190583	-0.368829	-0.219781
O47	O	1.523916	-0.035495	0.113552
O48	O	1.857249	0.297838	0.446886
O49	O	1.093500	-0.368813	-0.283990
O50	O	1.426833	-0.035480	0.049343
O51	O	1.760167	0.297853	0.382676
C52	C	0.936790	-0.251932	-0.251904
C53	C	1.270123	0.081401	0.081429
C54	C	1.603456	0.414734	0.414762
C55	C	0.848933	-0.251938	-0.251905
C56	C	1.182266	0.081396	0.081428
C57	C	1.515600	0.414729	0.414761
C58	C	0.477410	-0.285360	-0.218460
C59	C	0.810743	0.047973	0.114873
C60	C	1.144077	0.381306	0.448206
C61	C	0.477505	-0.218582	-0.285465
C62	C	0.810838	0.114751	0.047869
C63	C	1.144172	0.448085	0.381202
C64	C	0.560051	-0.218573	-0.285452
C65	C	0.893384	0.114760	0.047881
C66	C	1.226718	0.448093	0.381215
C67	C	0.601280	-0.251959	-0.251943
C68	C	0.934613	0.081374	0.081390
C69	C	1.267947	0.414707	0.414723
C70	C	0.559963	-0.285354	-0.218448
C71	C	0.893297	0.047980	0.114886
C72	C	1.226630	0.381313	0.448219
C73	C	0.601374	-0.185183	-0.318951
C74	C	0.934707	0.148150	0.014383
C75	C	1.268040	0.481483	0.347716
C76	C	0.683925	-0.185174	-0.318940
C77	C	1.017258	0.148160	0.014394
C78	C	1.350591	0.481493	0.347727
C79	C	0.725155	-0.218557	-0.285428
C80	C	1.058489	0.114776	0.047905
C81	C	1.391822	0.448109	0.381238
C82	C	0.683834	-0.251953	-0.251931
C83	C	1.017167	0.081381	0.081402
C84	C	1.350500	0.414714	0.414736
C85	C	0.725063	-0.285339	-0.218422
C86	C	1.058396	0.047995	0.114911
C87	C	1.391730	0.381328	0.448244
C88	C	0.683743	-0.318732	-0.184922
C89	C	1.017076	0.014602	0.148411
C90	C	1.350409	0.347935	0.481745
C91	C	0.601194	-0.318737	-0.184936
C92	C	0.934527	0.014596	0.148397
C93	C	1.267861	0.347929	0.481730
C94	C	0.807704	-0.218552	-0.285414
C95	C	1.141037	0.114782	0.047919
C96	C	1.474370	0.448115	0.381253
C97	C	0.807616	-0.285332	-0.218410
C98	C	1.140950	0.048001	0.114924
C99	C	1.474283	0.381335	0.448257
C100	C	1.142044	-0.387792	-0.251890
C101	C	1.475378	-0.054459	0.081444
C102	C	1.808711	0.278875	0.414777
C103	C	1.142069	-0.445906	-0.251890
C104	C	1.475402	-0.112573	0.081444
C105	C	1.808735	0.220761	0.414777
C106	C	1.192740	-0.806231	-0.285438
C107	C	1.526073	-0.472898	0.047895
C108	C	1.859407	-0.139565	0.381229
C109	C	1.192763	-0.860836	-0.285449
C110	C	1.526097	-0.527502	0.047885
C111	C	1.859430	-0.194169	0.381218
O112	O	1.235713	-0.889040	-0.313930
O113	O	1.569046	-0.555707	0.019403
O114	O	1.902380	-0.222373	0.352736
N115	N	1.142266	-0.888188	-0.251981
N116	N	1.475599	-0.554855	0.081352
N117	N	1.808932	-0.221522	0.414685
C118	C	1.091735	-0.860934	-0.218505
C119	C	1.425069	-0.527601	0.114828
C120	C	1.758402	-0.194268	0.448162
O121	O	1.048785	-0.889214	-0.190040
O122	O	1.382118	-0.555881	0.143294
O123	O	1.715451	-0.222547	0.476627
C124	C	1.091709	-0.806331	-0.218497
C125	C	1.425042	-0.472998	0.114836
C126	C	1.758375	-0.139664	0.448169
C127	C	1.142216	-0.778981	-0.251963
C128	C	1.475549	-0.445647	0.081370
C129	C	1.808882	-0.112314	0.414704
C130	C	1.243242	-0.778881	-0.318901
C131	C	1.576575	-0.445548	0.014432
C132	C	1.909909	-0.112214	0.347765
C133	C	1.243220	-0.724281	-0.318890
C134	C	1.576553	-0.390947	0.014443
C135	C	1.909886	-0.057614	0.347777
C136	C	1.192695	-0.697030	-0.285415
C137	C	1.526028	-0.363697	0.047918
C138	C	1.859362	-0.030363	0.381252
C139	C	1.142193	-0.724380	-0.251952
C140	C	1.475526	-0.391047	0.081382
C141	C	1.808860	-0.057714	0.414715
C142	C	1.041175	-0.779078	-0.185024
C143	C	1.374509	-0.445744	0.148309
C144	C	1.707842	-0.112411	0.481643
C145	C	1.041152	-0.724471	-0.185019
C146	C	1.374486	-0.391137	0.148314
C147	C	1.707819	-0.057804	0.481647
C148	C	1.091659	-0.697121	-0.218485
C149	C	1.424993	-0.363787	0.114848
C150	C	1.758326	-0.030454	0.448181
C151	C	1.091646	-0.642529	-0.218465
C152	C	1.424979	-0.309196	0.114868
C153	C	1.758313	0.024137	0.448201
N154	N	1.142144	-0.615176	-0.251933
N155	N	1.475477	-0.281843	0.081401
N156	N	1.808811	0.051490	0.414734
C157	C	1.192668	-0.642427	-0.285407
C158	C	1.526002	-0.309094	0.047926
C159	C	1.859335	0.024240	0.381259
C160	C	1.091794	-0.975605	-0.218524
C161	C	1.425128	-0.642271	0.114809
C162	C	1.758461	-0.308938	0.448143
C163	C	1.091825	-1.030207	-0.218529
C164	C	1.425158	-0.696874	0.114805
C165	C	1.758491	-0.363540	0.448138
C166	C	1.192852	-1.030105	-0.285473
C167	C	1.526185	-0.696771	0.047860
C168	C	1.859518	-0.363438	0.381194
C169	C	1.192825	-0.975501	-0.285466
C170	C	1.526158	-0.642168	0.047868
C171	C	1.859492	-0.308835	0.381201
C172	C	1.142292	-0.948252	-0.251991
C173	C	1.475626	-0.614919	0.081342
C174	C	1.808959	-0.281585	0.414675
C175	C	1.192618	-0.527762	-0.285381
C176	C	1.525951	-0.194428	0.047953
C177	C	1.859285	0.138905	0.381286
C178	C	1.192593	-0.473156	-0.285365
C179	C	1.525927	-0.139823	0.047969
C180	C	1.859260	0.193510	0.381302
C181	C	1.091564	-0.473264	-0.218422
C182	C	1.424897	-0.139930	0.114911
C183	C	1.758230	0.193403	0.448244
C184	C	1.091591	-0.527864	-0.218436
C185	C	1.424924	-0.194531	0.114897
C186	C	1.758257	0.138802	0.448231
C187	C	1.142121	-0.555112	-0.251919
C188	C	1.475454	-0.221779	0.081414
C189	C	1.808787	0.111555	0.414747
O190	O	1.048716	-0.614290	-0.189999
O191	O	1.382049	-0.280957	0.143334
O192	O	1.715383	0.052377	0.476667
O193	O	1.235605	-0.614140	-0.313873
O194	O	1.568938	-0.280807	0.019461
O195	O	1.902271	0.052526	0.352794
C196	C	1.348324	-0.251967	-0.251957
C197	C	1.681657	0.081366	0.081376
C198	C	2.014991	0.414700	0.414709
C199	C	1.436181	-0.251974	-0.251969
C200	C	1.769514	0.081359	0.081365
C201	C	2.102847	0.414692	0.414698
C202	C	1.142173	-0.251935	-0.388304
C203	C	1.475506	0.081399	-0.054970
C204	C	1.808839	0.414732	0.278363
C205	C	1.142180	-0.251928	-0.446418
C206	C	1.475513	0.081405	-0.113084
C207	C	1.808847	0.414738	0.220249
C208	C	1.142290	-0.115576	-0.251983
C209	C	1.475623	0.217757	0.081350
C210	C	1.808956	0.551090	0.414683
C211	C	1.142347	-0.057462	-0.252006
C212	C	1.475680	0.275871	0.081328
C213	C	1.809013	0.609204	0.414661
C214	C	1.091645	-0.285299	-0.697586
C215	C	1.424978	0.048035	-0.364253
C216	C	1.758312	0.381368	-0.030920
C217	C	1.091631	-0.285310	-0.642982
C218	C	1.424964	0.048023	-0.309649
C219	C	1.758298	0.381356	0.023685
O220	O	1.048589	-0.313735	-0.614724
O221	O	1.381922	0.019598	-0.281390
O222	O	1.715255	0.352931	0.051943
N223	N	1.142210	-0.251886	-0.615692
N224	N	1.475543	0.081447	-0.282358
N225	N	1.808877	0.414781	0.050975
C226	C	1.192801	-0.218444	-0.643009
C227	C	1.526134	0.114889	-0.309676
C228	C	1.859467	0.448223	0.023658
O229	O	1.235820	-0.190015	-0.614783
O230	O	1.569153	0.143318	-0.281449
O231	O	1.902487	0.476652	0.051884
C232	C	1.192810	-0.218430	-0.697612
C233	C	1.526143	0.114903	-0.364279
C234	C	1.859476	0.448237	-0.030946
C235	C	1.142233	-0.251860	-0.724899
C236	C	1.475567	0.081473	-0.391566
C237	C	1.808900	0.414806	-0.058233
C238	C	1.041072	-0.318726	-0.724874
C239	C	1.374405	0.014608	-0.391540
C240	C	1.707738	0.347941	-0.058207
C241	C	1.041087	-0.318714	-0.779474
C242	C	1.374420	0.014619	-0.446141
C243	C	1.707754	0.347952	-0.112807
C244	C	1.091675	-0.285276	-0.806787
C245	C	1.425008	0.048057	-0.473454
C246	C	1.758342	0.381391	-0.140121
C247	C	1.142248	-0.251849	-0.779500
C248	C	1.475582	0.081484	-0.446167
C249	C	1.808915	0.414818	-0.112833
C250	C	1.243396	-0.184986	-0.724928
C251	C	1.576729	0.148348	-0.391595
C252	C	1.910062	0.481681	-0.058262
C253	C	1.243400	-0.184974	-0.779535
C254	C	1.576734	0.148359	-0.446202
C255	C	1.910067	0.481692	-0.112869
C256	C	1.192824	-0.218405	-0.806823
C257	C	1.526157	0.114929	-0.473489
C258	C	1.859490	0.448262	-0.140156
C259	C	1.192852	-0.218400	-0.861414
C260	C	1.526185	0.114934	-0.528081
C261	C	1.859518	0.448267	-0.194747
N262	N	1.142273	-0.251824	-0.888704
N263	N	1.475606	0.081510	-0.555371
N264	N	1.808939	0.414843	-0.222037
C265	C	1.091684	-0.285262	-0.861391
C266	C	1.425018	0.048071	-0.528057
C267	C	1.758351	0.381405	-0.194724
C268	C	1.192776	-0.218475	-0.528338
C269	C	1.526110	0.114858	-0.195005
C270	C	1.859443	0.448191	0.138328
C271	C	1.192772	-0.218492	-0.473736
C272	C	1.526105	0.114842	-0.140402
C273	C	1.859438	0.448175	0.192931
C274	C	1.091601	-0.285357	-0.473713
C275	C	1.424934	0.047976	-0.140379
C276	C	1.758267	0.381309	0.192954
C277	C	1.091610	-0.285343	-0.528316
C278	C	1.424943	0.047990	-0.194983
C279	C	1.758277	0.381323	0.138351
C280	C	1.142197	-0.251900	-0.555628
C281	C	1.475531	0.081434	-0.222295
C282	C	1.808864	0.414767	0.111038
C283	C	1.091720	-0.285236	-0.976056
C284	C	1.425054	0.048097	-0.642722
C285	C	1.758387	0.381430	-0.309389
C286	C	1.091742	-0.285224	-1.030661
C287	C	1.425076	0.048110	-0.697328
C288	C	1.758409	0.381443	-0.363995
C289	C	1.192910	-0.218356	-1.030680
C290	C	1.526243	0.114977	-0.697346
C291	C	1.859576	0.448310	-0.364013
C292	C	1.192891	-0.218371	-0.976079
C293	C	1.526224	0.114963	-0.642746
C294	C	1.859558	0.448296	-0.309412
C295	C	1.142290	-0.251812	-0.948768
C296	C	1.475623	0.081521	-0.615435
C297	C	1.808957	0.414854	-0.282102
O298	O	1.235870	-0.189988	-0.889707
O299	O	1.569203	0.143346	-0.556373
O300	O	1.902536	0.476679	-0.223040
O301	O	1.048665	-0.313682	-0.889624
O302	O	1.381998	0.019652	-0.556290
O303	O	1.715331	0.352985	-0.222957
C304	C	1.142185	-0.251926	-0.116088
C305	C	1.475518	0.081407	0.217245
C306	C	1.808851	0.414740	0.550578
C307	C	1.142331	-0.251785	-0.057974
C308	C	1.475664	0.081548	0.275359
C309	C	1.808997	0.414881	0.608692
H310	H	0.717561	-0.157983	-0.346218
H311	H	1.050894	0.175351	-0.012884
H312	H	1.384227	0.508684	0.320449
Br313	Br	0.545113	-0.364053	-0.139476
Br314	Br	0.878446	-0.030720	0.193857
Br315	Br	1.211779	0.302614	0.527191
H316	H	1.050509	-0.312463	-0.953826
H317	H	1.383843	0.020870	-0.620493
H318	H	1.717176	0.354203	-0.287159
H319	H	1.050408	-0.312584	-0.451464
H320	H	1.383741	0.020749	-0.118131
H321	H	1.717074	0.354083	0.215202
H322	H	1.233725	-0.450890	-0.312616
H323	H	1.567058	-0.117556	0.020717
H324	H	1.900391	0.215777	0.354050
Br325	Br	0.863778	-0.173240	-0.330879
Br326	Br	1.197112	0.160093	0.002455
Br327	Br	1.530445	0.493426	0.335788
Br328	Br	0.972444	-0.364087	-0.816498
Br329	Br	1.305777	-0.030754	-0.483165
Br330	Br	1.639111	0.302580	-0.149832
Br331	Br	0.972567	-0.687492	-0.139588
Br332	Br	1.305900	-0.354159	0.193745
Br333	Br	1.639233	-0.020826	0.527078
H334	H	0.999872	-0.345955	-0.702641
H335	H	1.333205	-0.012622	-0.369307
H336	H	1.666539	0.320712	-0.035974
H337	H	1.000047	-0.801337	-0.157772
H338	H	1.333381	-0.468003	0.175561
H339	H	1.666714	-0.134670	0.508894
H340	H	0.443763	-0.312547	-0.191184
H341	H	0.777097	0.020787	0.142150
H342	H	1.110430	0.354120	0.475483
H343	H	1.284581	-0.157764	-0.702720
H344	H	1.617915	0.175570	-0.369387
H345	H	1.951248	0.508903	-0.036054
H346	H	1.233759	-0.549940	-0.312649
H347	H	1.567092	-0.216607	0.020684
H348	H	1.900425	0.116726	0.354017
Br349	Br	1.023290	-1.067318	-0.173100
Br350	Br	1.356624	-0.733985	0.160233
Br351	Br	1.689957	-0.400652	0.493567
H352	H	1.050425	-0.312565	-0.550530
H353	H	1.383759	0.020768	-0.217196
H354	H	1.717092	0.354102	0.116137
H355	H	1.050470	-0.550134	-0.191181
H356	H	1.383804	-0.216800	0.142152
H357	H	1.717137	0.116533	0.475485
H358	H	1.050429	-0.451068	-0.191166
H359	H	1.383763	-0.117734	0.142168
H360	H	1.717096	0.215599	0.475501
H361	H	1.050556	-0.312449	-1.052876
H362	H	1.383890	0.020885	-0.719543
H363	H	1.717223	0.354218	-0.386209
H364	H	1.233990	-1.052302	-0.312731
H365	H	1.567324	-0.718969	0.020602
H366	H	1.900657	-0.385635	0.353935
H367	H	1.233965	-0.191275	-0.451523
H368	H	1.567298	0.142058	-0.118190
H369	H	1.900631	0.475392	0.215144
H370	H	1.284344	-0.702015	-0.346142
H371	H	1.617678	-0.368682	-0.012809
H372	H	1.951011	-0.035349	0.320525
Br373	Br	0.421551	-0.173282	-0.330945
Br374	Br	0.754884	0.160051	0.002388
Br375	Br	1.088218	0.493385	0.335721
H376	H	1.233977	-0.191242	-0.550573
H377	H	1.567310	0.142091	-0.217239
H378	H	1.900643	0.475424	0.116094
Br379	Br	0.545417	-0.139886	-0.364432
Br380	Br	0.878751	0.193448	-0.031099
Br381	Br	1.212084	0.526781	0.302234
H382	H	1.284385	-0.801063	-0.346164
H383	H	1.617719	-0.467729	-0.012830
H384	H	1.951052	-0.134396	0.320503
H385	H	1.284592	-0.157737	-0.801770
H386	H	1.617925	0.175596	-0.468437
H387	H	1.951259	0.508929	-0.135104
Br388	Br	1.261543	-0.173008	-0.939045
Br389	Br	1.594876	0.160325	-0.605712
Br390	Br	1.928209	0.493658	-0.272378
H391	H	1.234100	-0.191133	-1.052928
H392	H	1.567433	0.142200	-0.719595
H393	H	1.900767	0.475533	-0.386261
H394	H	0.841179	-0.312518	-0.191121
H395	H	1.174513	0.020816	0.142212
H396	H	1.507846	0.354149	0.475546
Br397	Br	0.739706	-0.364045	-0.139453
Br398	Br	1.073040	-0.030711	0.193880
Br399	Br	1.406373	0.302622	0.527214
H400	H	1.050647	-0.953421	-0.191261
H401	H	1.383980	-0.620088	0.142072
H402	H	1.717314	-0.286754	0.475406
H403	H	1.233951	-0.953236	-0.312716
H404	H	1.567285	-0.619903	0.020617
H405	H	1.900618	-0.286569	0.353950
