data_functionalizedCrystal
_audit_creation_method	'MofGen! by Chris Wilmer'
_symmetry_space_group_name_H-M	'P1'
_symmetry_Int_Tables_number	1
_symmetry_cell_setting	triclinic
loop_
_symmetry_equiv_pos_as_xyz
  x,y,z
_cell_length_a	6.817900
_cell_length_b	19.551136
_cell_length_c	10.992410
_cell_angle_alpha	94.498803
_cell_angle_beta	108.764651
_cell_angle_gamma	101.650842
loop_
_atom_site_label
_atom_site_type_symbol
_atom_site_fract_x
_atom_site_fract_y
_atom_site_fract_z
V1	V	-4.078377	-0.096677	-0.401226
O2	O	-4.074100	0.004646	-0.392937
O3	O	-4.020700	-0.191693	-0.399108
O4	O	-4.056521	-0.095190	-0.575929
O5	O	-4.038031	-0.092526	-0.214892
V6	V	-4.559767	-0.084557	-0.378863
O7	O	-4.344313	-0.123261	-0.450281
O8	O	-4.744028	-0.057973	-0.329808
O9	O	-4.394237	0.010460	-0.380981
O10	O	-4.681441	-0.185880	-0.387152
O11	O	-4.717510	-0.088708	-0.565196
O12	O	-4.358417	-0.086044	-0.204160
C13	C	-3.862585	-0.214857	-0.392940
C14	C	-3.896891	-0.292534	-0.392373
C15	C	-3.855901	-0.319024	-0.274366
C16	C	-3.888201	-0.392009	-0.273793
C17	C	-3.961452	-0.438500	-0.391234
C18	C	-4.002457	-0.412002	-0.509257
C19	C	-3.970177	-0.339019	-0.509826
C20	C	-3.938901	-0.559511	-0.476387
C21	C	-3.971166	-0.632492	-0.475812
C22	C	-4.061027	-0.663604	-0.389482
C23	C	-4.118582	-0.621724	-0.303704
C24	C	-4.086302	-0.548741	-0.304274
C25	C	-3.996462	-0.517639	-0.390629
C26	C	-4.055059	-0.769232	-0.270846
C27	C	-4.087374	-0.842218	-0.270279
C28	C	-4.201611	-0.862210	-0.505745
C29	C	-4.169315	-0.789225	-0.506309
C30	C	-4.096030	-0.742740	-0.388856
C31	C	-3.908277	-0.091755	-0.618491
C32	C	-3.971629	-0.091168	-0.761315
C33	C	-3.840737	-0.085818	-0.956404
C34	C	-3.774853	-0.086719	-0.807926
C35	C	-4.144081	-0.160064	-0.838870
C36	C	-4.208621	-0.159455	-0.987433
C37	C	-4.135887	-0.026047	-0.948528
C38	C	-4.065299	-0.025721	-0.799513
C39	C	-4.215693	0.033619	-0.387145
C40	C	-4.160627	0.111296	-0.387721
C41	C	-4.170001	-0.089481	-0.161591
C42	C	-4.085888	-0.090065	-0.018765
H43	H	-4.054004	-0.863784	-0.174180
Br44	Br	-4.302655	-0.024364	-0.745304
H45	H	-3.644779	-0.037179	-0.754261
Br46	Br	-3.650720	-0.164452	-0.767065
Br47	Br	-4.301054	-0.925298	-0.665133
H48	H	-4.313942	-0.028551	-0.989385
H49	H	-3.854816	-0.413581	-0.177695
H50	H	-4.133171	-0.514646	-0.234432
H51	H	-3.742041	-0.035938	-0.974906
Br52	Br	-4.391180	-0.169641	-0.790939
H53	H	-3.924293	-0.666585	-0.545655
Br54	Br	-4.224933	-0.753271	-0.666471
Br55	Br	-3.756455	-0.255941	-0.114966
H56	H	-4.191735	-0.647053	-0.233397
H57	H	-3.995384	-0.731381	-0.175208
H58	H	-3.865728	-0.534186	-0.546693
Br59	Br	-4.508251	-0.169423	-1.058556
Br60	Br	-4.101891	-0.475096	-0.668642
Br61	Br	-4.025812	-0.303066	-0.669992
Br62	Br	-3.996724	0.061154	-0.981894
H63	H	-3.798733	-0.131815	-1.004697
Br64	Br	-4.037774	-0.241057	-0.796725
H65	H	-4.175073	-0.207928	-1.034020
Br66	Br	-3.858052	0.059230	-0.711704
