data_functionalizedCrystal
_audit_creation_method	'MofGen! by Chris Wilmer'
_symmetry_space_group_name_H-M	'P1'
_symmetry_Int_Tables_number	1
_symmetry_cell_setting	triclinic
loop_
_symmetry_equiv_pos_as_xyz
  x,y,z
_cell_length_a	14.044220
_cell_length_b	11.792241
_cell_length_c	13.101039
_cell_angle_alpha	93.376518
_cell_angle_beta	93.667477
_cell_angle_gamma	91.308853
loop_
_atom_site_label
_atom_site_type_symbol
_atom_site_fract_x
_atom_site_fract_y
_atom_site_fract_z
O1	O	0.124790	-1.524822	-0.085117
O2	O	0.458123	-1.191489	0.248216
O3	O	0.791457	-0.858155	0.581550
O4	O	0.138185	-1.195740	-0.085141
O5	O	0.471518	-0.862407	0.248192
O6	O	0.804852	-0.529073	0.581526
O7	O	-0.006522	-1.355341	-0.085119
O8	O	0.326812	-1.022007	0.248214
O9	O	0.660145	-0.688674	0.581548
O10	O	0.269497	-1.365221	-0.085139
O11	O	0.602830	-1.031888	0.248195
O12	O	0.936164	-0.698555	0.581528
O13	O	0.003878	-1.343891	0.085309
O14	O	0.337211	-1.010558	0.418642
O15	O	0.670545	-0.677225	0.751976
O16	O	0.148585	-1.184291	0.085287
O17	O	0.481918	-0.850957	0.418621
O18	O	0.815252	-0.517624	0.751954
O19	O	0.135190	-1.513372	0.085311
O20	O	0.468523	-1.180039	0.418645
O21	O	0.801857	-0.846706	0.751978
Zn22	Zn	0.143539	-1.347014	0.112359
Zn23	Zn	0.476872	-1.013680	0.445692
Zn24	Zn	0.810205	-0.680347	0.779025
Zn25	Zn	0.129836	-1.362099	-0.112188
Zn26	Zn	0.463170	-1.028766	0.221145
Zn27	Zn	0.796503	-0.695432	0.554479
O28	O	0.279897	-1.353772	0.085290
O29	O	0.613230	-1.020438	0.418623
O30	O	0.946563	-0.687105	0.751956
C31	C	0.142543	-1.147646	0.000070
C32	C	0.475877	-0.814312	0.333403
C33	C	0.809210	-0.480979	0.666737
C34	C	0.140024	-1.021396	0.000061
C35	C	0.473357	-0.688063	0.333395
C36	C	0.806691	-0.354729	0.666728
C37	C	-0.036659	-1.345292	0.000095
C38	C	0.296675	-1.011958	0.333428
C39	C	0.630008	-0.678625	0.666762
C40	C	-0.141951	-1.332393	0.000095
C41	C	0.191383	-0.999059	0.333429
C42	C	0.524716	-0.665726	0.666762
N43	N	0.120478	-1.372394	-0.265435
N44	N	0.453811	-1.039061	0.067898
N45	N	0.787145	-0.705727	0.401231
C46	C	-0.334734	-1.308812	0.000079
C47	C	-0.001401	-0.975478	0.333412
C48	C	0.331932	-0.642145	0.666746
C49	C	-0.391897	-1.400296	0.000083
C50	C	-0.058564	-1.066963	0.333416
C51	C	0.274770	-0.733630	0.666749
C52	C	-0.499168	-1.387176	0.000073
C53	C	-0.165835	-1.053842	0.333407
C54	C	0.167498	-0.720509	0.666740
C55	C	-0.227453	-1.321931	0.000088
C56	C	0.105881	-0.988597	0.333421
C57	C	0.439214	-0.655264	0.666755
C58	C	0.310033	-1.363821	0.000073
C59	C	0.643367	-1.030488	0.333406
C60	C	0.976700	-0.697154	0.666740
C61	C	0.415325	-1.376720	0.000066
C62	C	0.748658	-1.043387	0.333399
C63	C	1.081992	-0.710054	0.666733
C64	C	0.130832	-1.561467	0.000098
C65	C	0.464165	-1.228134	0.333431
C66	C	0.797498	-0.894800	0.666765
C67	C	0.133350	-1.687717	0.000100
C68	C	0.466684	-1.354384	0.333434
C69	C	0.800017	-1.021050	0.666767
C70	C	0.135394	-0.790247	0.000091
C71	C	0.468728	-0.456914	0.333424
C72	C	0.802061	-0.123580	0.666758
C73	C	0.137967	-0.918875	0.000075
C74	C	0.471300	-0.585542	0.333408
C75	C	0.804633	-0.252208	0.666741
N76	N	0.152889	-1.336727	0.265606
N77	N	0.486223	-1.003393	0.598939
N78	N	0.819556	-0.670060	0.932272
C79	C	0.165620	-1.322732	0.474646
C80	C	0.498954	-0.989399	0.807980
C81	C	0.832287	-0.656065	1.141313
C82	C	0.107750	-1.386386	0.525531
C83	C	0.441084	-1.053052	0.858864
C84	C	0.774417	-0.719719	1.192197
C85	C	0.114834	-1.378599	0.641848
C86	C	0.448167	-1.045265	0.975181
C87	C	0.781501	-0.711932	1.308515
C88	C	0.158538	-1.330517	0.358318
C89	C	0.491871	-0.997184	0.691652
C90	C	0.825205	-0.663851	1.024985
H91	H	-0.366357	-1.220642	0.000070
H92	H	-0.033024	-0.887309	0.333403
H93	H	0.300310	-0.553976	0.666737
H94	H	-0.360277	-1.488478	0.000020
H95	H	-0.026943	-1.155144	0.333354
H96	H	0.306390	-0.821811	0.666687
O97	O	0.238305	-1.242824	0.532651
O98	O	0.571638	-0.909490	0.865985
O99	O	0.904972	-0.576157	1.199318
H100	H	0.279611	-1.197392	0.477436
H101	H	0.612945	-0.864058	0.810769
H102	H	0.946278	-0.530725	1.144102
H103	H	0.052887	-1.446730	0.481737
H104	H	0.386220	-1.113397	0.815070
H105	H	0.719553	-0.780063	1.148403
