data_functionalizedCrystal
_audit_creation_method	'MofGen! by Chris Wilmer'
_symmetry_space_group_name_H-M	'P1'
_symmetry_Int_Tables_number	1
_symmetry_cell_setting	triclinic
loop_
_symmetry_equiv_pos_as_xyz
  x,y,z
_cell_length_a	10.654550
_cell_length_b	10.540539
_cell_length_c	9.730223
_cell_angle_alpha	90.000775
_cell_angle_beta	89.996251
_cell_angle_gamma	84.505197
loop_
_atom_site_label
_atom_site_type_symbol
_atom_site_fract_x
_atom_site_fract_y
_atom_site_fract_z
O1	O	1.667897	0.178295	-0.114396
O2	O	1.302424	0.195282	-0.114373
O3	O	1.493499	0.002079	-0.114383
O4	O	1.476822	0.371498	-0.114386
O5	O	1.493496	0.002084	0.114197
O6	O	1.302422	0.195287	0.114207
O7	O	1.667895	0.178300	0.114184
Zn8	Zn	1.485158	0.186794	0.150487
Zn9	Zn	1.485161	0.186788	-0.150677
O10	O	1.476820	0.371503	0.114194
C11	C	1.255625	0.194038	-0.000080
C12	C	1.116180	0.190306	-0.000072
C13	C	1.036734	0.304061	-0.000093
C14	C	0.905712	0.300547	-0.000116
C15	C	0.933595	0.069513	-0.000104
C16	C	1.064614	0.073028	-0.000071
C17	C	1.020636	0.437446	-0.000106
C18	C	0.889614	0.433932	-0.000129
C19	C	1.492247	-0.045221	-0.000096
C20	C	1.488505	-0.186168	-0.000103
C21	C	1.345134	-0.369543	-0.000607
C22	C	1.348927	-0.222926	-0.000093
C23	C	1.555675	-0.247847	0.130423
C24	C	1.550912	-0.394389	0.130533
C25	C	1.553753	-0.394914	-0.129405
C26	C	1.555039	-0.247933	-0.131131
C27	C	1.714694	0.179545	-0.000112
C28	C	1.854139	0.183276	-0.000129
C29	C	1.478072	0.418803	-0.000096
C30	C	1.481813	0.559750	-0.000098
N31	N	1.485165	0.186798	0.356024
N32	N	1.485164	0.186774	-0.356213
C33	C	1.569795	0.101277	0.427945
C34	C	1.569791	0.101261	0.571828
C35	C	1.400525	0.272299	0.571855
C36	C	1.400523	0.272308	0.427975
C37	C	1.667523	0.002533	0.427931
C38	C	1.667520	0.002518	0.571814
H39	H	0.843956	0.474245	0.098554
H40	H	1.656802	-0.223748	-0.139019
H41	H	1.654570	-0.442176	-0.130289
C42	C	1.307434	0.366360	0.651006
H43	H	1.319558	0.354112	0.746997
H44	H	1.223495	0.351788	0.627429
H45	H	1.321836	0.451219	0.627435
H46	H	1.331600	0.341935	0.369418
C47	C	1.797900	0.031903	0.624570
H48	H	1.851518	0.044012	0.548629
H49	H	1.833615	-0.037315	0.678796
H50	H	1.788996	0.107165	0.678818
H51	H	1.501268	-0.422569	0.228111
H52	H	1.295701	-0.181149	0.093636
H53	H	1.129295	-0.019602	-0.000034
H54	H	1.056307	0.479916	-0.098793
C55	C	1.270950	-0.410302	0.125146
H56	H	1.322913	-0.470220	0.177961
H57	H	1.198321	-0.448153	0.095142
H58	H	1.245870	-0.337673	0.179938
H59	H	0.847900	0.484188	-0.095797
H60	H	1.646046	-0.095040	0.388879
H61	H	1.758718	0.033451	0.383299
C62	C	1.626279	-0.122046	0.632100
H63	H	1.607921	-0.177511	0.559384
H64	H	1.553148	-0.103405	0.687062
H65	H	1.692349	-0.162084	0.687034
H66	H	1.296074	-0.180306	-0.093659
C67	C	0.876867	-0.059482	-0.000117
H68	H	0.787458	-0.045285	-0.000148
H69	H	0.904047	-0.106370	0.079597
H70	H	0.904087	-0.106366	-0.079835
H71	H	1.289998	-0.398125	-0.094209
C72	C	1.686509	-0.459252	0.138562
H73	H	1.684519	-0.549169	0.138679
H74	H	1.725420	-0.433742	0.220574
H75	H	1.733236	-0.434870	0.061370
H76	H	1.658178	-0.225529	0.135270
C77	C	1.492632	-0.190296	0.261653
H78	H	1.425387	-0.128696	0.237177
H79	H	1.552959	-0.150744	0.314465
H80	H	1.460626	-0.255954	0.314266
H81	H	1.505891	-0.207059	-0.227690
C82	C	1.060292	0.507933	0.129114
H83	H	0.987692	0.534524	0.182244
H84	H	1.101102	0.580365	0.102540
H85	H	1.116535	0.452382	0.182289
C86	C	1.492726	-0.437508	-0.263053
H87	H	1.422793	-0.483343	-0.241237
H88	H	1.552840	-0.490760	-0.314025
H89	H	1.464862	-0.364686	-0.316335
