data_functionalizedCrystal
_audit_creation_method	'MofGen! by Chris Wilmer'
_symmetry_space_group_name_H-M	'P1'
_symmetry_Int_Tables_number	1
_symmetry_cell_setting	triclinic
loop_
_symmetry_equiv_pos_as_xyz
  x,y,z
_cell_length_a	10.489716
_cell_length_b	9.565339
_cell_length_c	11.026607
_cell_angle_alpha	89.997756
_cell_angle_beta	96.557576
_cell_angle_gamma	90.003220
loop_
_atom_site_label
_atom_site_type_symbol
_atom_site_fract_x
_atom_site_fract_y
_atom_site_fract_z
O1	O	1.731774	0.116244	0.171399
O2	O	1.364124	0.116249	0.187532
O3	O	1.517478	0.116242	0.002549
O4	O	1.578419	0.116251	0.356382
O5	O	1.517466	-0.116278	0.002560
O6	O	1.364111	-0.116271	0.187544
O7	O	1.731761	-0.116276	0.171410
Zn8	Zn	1.547934	-0.153191	0.179479
Zn9	Zn	1.547951	0.153164	0.179464
O10	O	1.578407	-0.116269	0.356394
C11	C	1.316318	-0.000010	0.186326
C12	C	1.173890	-0.000008	0.182699
C13	C	1.101169	-0.000002	0.296137
C14	C	1.010631	-0.114655	0.236200
C15	C	1.010644	0.114592	0.236162
C16	C	1.085227	-0.114755	0.122810
C17	C	1.085250	0.114594	0.122788
C18	C	0.994742	-0.000086	0.062768
N19	N	1.547932	-0.362270	0.179489
C20	C	1.476976	-0.453470	0.265009
C21	C	1.597884	-0.546650	0.289602
C22	C	1.427076	-0.546646	0.154905
C23	C	1.668910	-0.453398	0.204137
C24	C	1.498015	-0.453386	0.069392
C25	C	1.618996	-0.546524	0.093939
C26	C	1.779567	-0.000013	0.172617
C27	C	1.921995	-0.000006	0.176243
C28	C	1.506229	-0.000016	-0.042754
C29	C	1.472715	-0.000011	-0.177758
N30	N	1.547961	0.362244	0.179445
C31	C	1.565254	-0.000010	-0.250762
C32	C	1.530617	-0.000004	-0.390297
C33	C	1.589656	-0.000007	0.401696
C34	C	1.623170	-0.000004	0.536700
H35	H	1.118010	-0.211781	0.074955
H36	H	0.977677	-0.211580	0.284092
F37	F	1.802581	-0.400092	0.231432
H38	H	1.425742	0.000006	-0.431090
F39	F	1.293469	-0.600186	0.127749
H40	H	1.455746	-0.412389	-0.023666
F41	F	1.697548	-0.599601	-0.000619
F42	F	1.161795	-0.000140	0.425106
H43	H	1.670122	-0.000020	-0.209963
F44	F	1.335641	0.000004	-0.231078
F45	F	0.934409	-0.000176	-0.066297
F46	F	1.128372	0.241289	0.060248
F47	F	1.760251	0.000001	-0.409987
F48	F	0.967590	0.241269	0.298774
H49	H	1.417056	-0.412613	0.337397
H50	H	1.640124	-0.587615	0.382689
