data_functionalizedCrystal
_audit_creation_method	'MofGen! by Chris Wilmer'
_symmetry_space_group_name_H-M	'P1'
_symmetry_Int_Tables_number	1
_symmetry_cell_setting	triclinic
loop_
_symmetry_equiv_pos_as_xyz
  x,y,z
_cell_length_a	29.839134
_cell_length_b	29.839131
_cell_length_c	19.805399
_cell_angle_alpha	89.962782
_cell_angle_beta	89.969311
_cell_angle_gamma	90.027971
loop_
_atom_site_label
_atom_site_type_symbol
_atom_site_fract_x
_atom_site_fract_y
_atom_site_fract_z
Zn1	Zn	0.686767	-0.178951	-0.382875
Zn2	Zn	1.186767	0.321049	0.117125
Zn3	Zn	0.686699	-0.254078	-0.269668
Zn4	Zn	1.186699	0.245922	0.230332
Zn5	Zn	0.611642	-0.178954	-0.269678
Zn6	Zn	1.111642	0.321046	0.230322
Zn7	Zn	0.611606	-0.254045	-0.382792
Zn8	Zn	1.111606	0.245955	0.117208
O9	O	0.649178	-0.216507	-0.326253
O10	O	1.149178	0.283493	0.173747
O11	O	0.749625	-0.188929	-0.367888
O12	O	1.249625	0.311071	0.132112
O13	O	0.676729	-0.244128	-0.174952
O14	O	1.176729	0.255872	0.325048
O15	O	0.621651	-0.116086	-0.284732
O16	O	1.121651	0.383914	0.215268
O17	O	0.749575	-0.244125	-0.284715
O18	O	1.249575	0.255875	0.215285
O19	O	0.676845	-0.116084	-0.367898
O20	O	1.176845	0.383916	0.132102
O21	O	0.621585	-0.188934	-0.174960
O22	O	1.121585	0.311066	0.325040
O23	O	0.548770	-0.188902	-0.284652
O24	O	1.048770	0.311098	0.215348
O25	O	0.621590	-0.244068	-0.477520
O26	O	1.121590	0.255932	0.022480
O27	O	0.548744	-0.244071	-0.367757
O28	O	1.048744	0.255929	0.132243
O29	O	0.676810	-0.188897	-0.477581
O30	O	1.176810	0.311103	0.022419
O31	O	0.676694	-0.316941	-0.284635
O32	O	1.176694	0.183059	0.215365
O33	O	0.621524	-0.316916	-0.367748
O34	O	1.121524	0.183084	0.132252
C35	C	0.532456	-0.216483	-0.326197
C36	C	1.032456	0.283517	0.173803
C37	C	0.482521	-0.216484	-0.326189
C38	C	0.982521	0.283516	0.173811
C39	C	0.125936	-0.187738	-0.283069
C40	C	0.625936	0.312262	0.216931
C41	C	0.313609	-0.187725	-0.283028
C42	C	0.813609	0.312275	0.216972
O43	O	0.337874	-0.163246	-0.246302
O44	O	0.837874	0.336754	0.253698
N45	N	0.337076	-0.216492	-0.326223
N46	N	0.837076	0.283508	0.173777
C47	C	0.313623	-0.245261	-0.369435
C48	C	0.813623	0.254739	0.130565
O49	O	0.337890	-0.269725	-0.406180
O50	O	0.837890	0.230275	0.093820
C51	C	0.125951	-0.245271	-0.369479
C52	C	0.625951	0.254729	0.130521
C53	C	0.102485	-0.216506	-0.326276
C54	C	0.602485	0.283494	0.173724
C55	C	0.102470	-0.158975	-0.239870
C56	C	0.602470	0.341025	0.260130
C57	C	0.055555	-0.158980	-0.239878
C58	C	0.555555	0.341020	0.260122
C59	C	0.032105	-0.187748	-0.283085
C60	C	0.532105	0.312252	0.216915
C61	C	0.055570	-0.216511	-0.326284
C62	C	0.555570	0.283489	0.173716
C63	C	0.102498	-0.274038	-0.412695
C64	C	0.602498	0.225962	0.087305
C65	C	0.055577	-0.274038	-0.412703
C66	C	0.555577	0.225962	0.087297
C67	C	0.032112	-0.245272	-0.369500
C68	C	0.532112	0.254728	0.130500
C69	C	-0.014796	-0.245285	-0.369500
C70	C	0.485204	0.254715	0.130500
N71	N	-0.038263	-0.216518	-0.326304
N72	N	0.461737	0.283482	0.173696
C73	C	-0.014813	-0.187750	-0.283097
C74	C	0.485187	0.312250	0.216903
C75	C	0.412154	-0.245255	-0.369408
C76	C	0.912154	0.254745	0.130592
C77	C	0.459071	-0.245253	-0.369397
C78	C	0.959071	0.254747	0.130603
C79	C	0.459054	-0.187716	-0.282990
C80	C	0.959054	0.312284	0.217010
C81	C	0.412135	-0.187720	-0.282998
C82	C	0.912135	0.312280	0.217002
C83	C	0.388686	-0.216488	-0.326213
C84	C	0.888686	0.283512	0.173787
C85	C	-0.113339	-0.187763	-0.283117
C86	C	0.386661	0.312237	0.216883
C87	C	-0.160259	-0.187772	-0.283127
C88	C	0.339741	0.312228	0.216873
C89	C	-0.160237	-0.245307	-0.369536
C90	C	0.339763	0.254693	0.130464
C91	C	-0.113321	-0.245300	-0.369524
C92	C	0.386679	0.254700	0.130476
C93	C	-0.089874	-0.216524	-0.326312
C94	C	0.410126	0.283476	0.173688
O95	O	-0.039090	-0.269748	-0.406211
O96	O	0.460910	0.230252	0.093789
O97	O	-0.039088	-0.163282	-0.246368
O98	O	0.460912	0.336718	0.253632
C99	C	0.172851	-0.187733	-0.283061
C100	C	0.672851	0.312267	0.216939
C101	C	0.196316	-0.216496	-0.326260
C102	C	0.696316	0.283504	0.173740
C103	C	0.172866	-0.245264	-0.369467
C104	C	0.672866	0.254736	0.130533
C105	C	0.243234	-0.216494	-0.326248
C106	C	0.743234	0.283506	0.173752
C107	C	0.266684	-0.187725	-0.283041
C108	C	0.766684	0.312275	0.216959
C109	C	0.243217	-0.158959	-0.239845
C110	C	0.743217	0.341041	0.260155
C111	C	0.196301	-0.158964	-0.239853
C112	C	0.696301	0.341036	0.260147
C113	C	0.196334	-0.274031	-0.412663
C114	C	0.696334	0.225969	0.087337
C115	C	0.243250	-0.274023	-0.412651
C116	C	0.743250	0.225977	0.087349
C117	C	0.266700	-0.245255	-0.369443
C118	C	0.766700	0.254745	0.130557
C119	C	0.649110	-0.333229	-0.326196
C120	C	1.149110	0.166771	0.173804
C121	C	0.649122	-0.383164	-0.326194
C122	C	1.149122	0.116836	0.173806
C123	C	0.677912	-0.692771	-0.369619
C124	C	1.177912	-0.192771	0.130381
C125	C	0.677961	-0.880444	-0.369660
C126	C	1.177961	-0.380444	0.130340
O127	O	0.702372	-0.904678	-0.406539
O128	O	1.202372	-0.404678	0.093461
N129	N	0.649255	-0.903949	-0.326328
N130	N	1.149255	-0.403949	0.173672
C131	C	0.620533	-0.880532	-0.282987
C132	C	1.120533	-0.380532	0.217013
O133	O	0.596114	-0.904831	-0.246136
O134	O	1.096114	-0.404831	0.253864
C135	C	0.620482	-0.692860	-0.282950
C136	C	1.120482	-0.192860	0.217050
C137	C	0.649193	-0.669358	-0.326279
C138	C	1.149193	-0.169358	0.173721
C139	C	0.706620	-0.669269	-0.412946
C140	C	1.206620	-0.169269	0.087054
C141	C	0.706610	-0.622353	-0.412933
C142	C	1.206610	-0.122353	0.087067
C143	C	0.677890	-0.598940	-0.369593
C144	C	1.177890	-0.098940	0.130407
C145	C	0.649182	-0.622443	-0.326266
C146	C	1.149182	-0.122443	0.173734
C147	C	0.591758	-0.669445	-0.239612
C148	C	1.091758	-0.169445	0.260388
C149	C	0.591747	-0.622524	-0.239608
C150	C	1.091747	-0.122524	0.260392
C151	C	0.620458	-0.599021	-0.282937
C152	C	1.120458	-0.099021	0.217063
C153	C	0.620452	-0.552114	-0.282913
C154	C	1.120452	-0.052114	0.217087
N155	N	0.649158	-0.528609	-0.326245
N156	N	1.149158	-0.028609	0.173755
C157	C	0.677877	-0.552022	-0.369585
C158	C	1.177877	-0.052022	0.130415
C159	C	0.620562	-0.979063	-0.283008
C160	C	1.120562	-0.479063	0.216992
C161	C	0.620575	-1.025981	-0.283016
C162	C	1.120575	-0.525981	0.216984
C163	C	0.678003	-1.025889	-0.369691
C164	C	1.178003	-0.525889	0.130309
C165	C	0.677991	-0.978971	-0.369678
C166	C	1.177991	-0.478971	0.130322
C167	C	0.649268	-0.955558	-0.326340
C168	C	1.149268	-0.455558	0.173660
C169	C	0.677853	-0.453497	-0.369553
C170	C	1.177853	0.046503	0.130447
C171	C	0.677841	-0.406577	-0.369534
C172	C	1.177841	0.093423	0.130466
C173	C	0.620412	-0.406672	-0.282863
C174	C	1.120412	0.093328	0.217137
C175	C	0.620425	-0.453588	-0.282879
C176	C	1.120425	0.046412	0.217121
C177	C	0.649147	-0.476999	-0.326230
C178	C	1.149147	0.023001	0.173770
O179	O	0.596050	-0.527851	-0.246059
O180	O	1.096050	-0.027851	0.253941
O181	O	0.702285	-0.527716	-0.406440
O182	O	1.202285	-0.027716	0.093560
C183	C	0.677923	-0.739687	-0.369632
C184	C	1.177923	-0.239687	0.130368
C185	C	0.649214	-0.763189	-0.326306
C186	C	1.149214	-0.263189	0.173694
C187	C	0.620495	-0.739776	-0.282966
C188	C	1.120495	-0.239776	0.217034
C189	C	0.649228	-0.810107	-0.326314
C190	C	1.149228	-0.310107	0.173686
C191	C	0.677947	-0.833520	-0.369654
C192	C	1.177947	-0.333520	0.130346
C193	C	0.706653	-0.810015	-0.412985
C194	C	1.206653	-0.310015	0.087015
C195	C	0.706642	-0.763100	-0.412972
C196	C	1.206642	-0.263100	0.087028
C197	C	0.591789	-0.763280	-0.239634
C198	C	1.091789	-0.263280	0.260366
C199	C	0.591803	-0.810196	-0.239651
C200	C	1.091803	-0.310196	0.260349
C201	C	0.620522	-0.833609	-0.282990
C202	C	1.120522	-0.333609	0.217010
C203	C	0.766357	-0.216531	-0.326310
C204	C	1.266357	0.283469	0.173690
C205	C	0.816291	-0.216541	-0.326334
C206	C	1.316291	0.283459	0.173666
C207	C	0.649204	-0.216479	-0.502796
C208	C	1.149204	0.283521	-0.002796
C209	C	0.649214	-0.216466	-0.578028
C210	C	1.149214	0.283534	-0.078028
C211	C	0.649260	-0.099328	-0.326325
C212	C	1.149260	0.400672	0.173675
C213	C	0.649294	-0.049394	-0.326356
C214	C	1.149294	0.450606	0.173644
C215	C	0.677968	-0.187737	-0.613405
C216	C	1.177968	0.312263	-0.113405
C217	C	0.677973	-0.187724	-0.684093
C218	C	1.177973	0.312276	-0.184093
C219	C	0.649226	-0.216443	-0.719404
C220	C	1.149226	0.283557	-0.219404
C221	C	0.620468	-0.245173	-0.684022
C222	C	1.120468	0.254827	-0.184022
C223	C	0.620462	-0.245184	-0.613335
C224	C	1.120462	0.254816	-0.113335
C225	C	0.620494	-0.245132	-0.969095
C226	C	1.120494	0.254868	-0.469095
C227	C	0.620503	-0.245120	-1.039788
C228	C	1.120503	0.254880	-0.539788
C229	C	0.678005	-0.187672	-1.039854
C230	C	1.178005	0.312328	-0.539854
C231	C	0.677998	-0.187682	-0.969167
C232	C	1.177998	0.312318	-0.469167
C233	C	0.649240	-0.216411	-0.933791
C234	C	1.149240	0.283589	-0.433791
C235	C	0.649235	-0.216424	-0.857143
C236	C	1.149235	0.283576	-0.357143
C237	C	0.649233	-0.216432	-0.796051
C238	C	1.149233	0.283568	-0.296051
C239	C	0.649179	-0.216503	-0.150397
C240	C	1.149179	0.283497	0.349603
C241	C	0.649256	-0.216388	-0.075166
C242	C	1.149256	0.283612	0.424834
H243	H	0.121558	-0.135545	-0.204685
H244	H	0.621558	0.364455	0.295315
C245	C	-0.232186	-0.162242	-0.244741
C246	C	0.267814	0.337758	0.255259
C247	C	-0.186052	-0.156160	-0.235622
C248	C	0.313948	0.343840	0.264378
H249	H	-0.248107	-0.142730	-0.215407
H250	H	0.251893	0.357270	0.284593
H251	H	-0.239856	-0.155697	-0.290227
H252	H	0.260144	0.344303	0.209773
H253	H	-0.239883	-0.192423	-0.234759
H254	H	0.260117	0.307577	0.265241
H255	H	-0.178355	-0.125979	-0.245608
H256	H	0.321645	0.374021	0.254392
H257	H	-0.178378	-0.162702	-0.190125
H258	H	0.321622	0.337298	0.309875
H259	H	0.701380	-0.164352	-0.584660
H260	H	1.201380	0.335648	-0.084660
C261	C	0.238542	-0.330892	-0.498072
C262	C	0.738542	0.169108	0.001928
C263	C	0.269039	-0.305644	-0.460146
C264	C	0.769039	0.194356	0.039854
H265	H	0.254464	-0.350408	-0.527398
H266	H	0.754464	0.149592	-0.027398
H267	H	0.220227	-0.348055	-0.468535
H268	H	0.720227	0.151945	0.031465
H269	H	0.220259	-0.311334	-0.524013
H270	H	0.720259	0.188666	-0.024013
H271	H	0.287321	-0.325202	-0.434202
H272	H	0.787321	0.174798	0.065798
H273	H	0.287363	-0.288480	-0.489687
H274	H	0.787363	0.211520	0.010313
C275	C	0.560016	-0.251430	-0.533809
C276	C	1.060016	0.248570	-0.033809
C277	C	0.588855	-0.276767	-0.574451
C278	C	1.088855	0.223233	-0.074451
H279	H	0.540500	-0.270930	-0.509810
H280	H	1.040500	0.229070	-0.009810
H281	H	0.577134	-0.234334	-0.502663
H282	H	1.077134	0.265666	-0.002663
H283	H	0.542851	-0.231850	-0.561395
H284	H	1.042851	0.268150	-0.061395
H285	H	0.606023	-0.296346	-0.546865
H286	H	1.106023	0.203654	-0.046865
H287	H	0.571735	-0.293871	-0.605601
H288	H	1.071735	0.206129	-0.105601
C289	C	-0.118019	-0.302171	-0.454937
C290	C	0.381981	0.197829	0.045063
C291	C	-0.087526	-0.276919	-0.417012
C292	C	0.412474	0.223081	0.082988
H293	H	-0.102095	-0.321686	-0.484262
H294	H	0.397905	0.178314	0.015738
H295	H	-0.136333	-0.319335	-0.425400
H296	H	0.363667	0.180665	0.074600
H297	H	-0.136305	-0.282616	-0.480880
H298	H	0.363695	0.217384	0.019120
H299	H	-0.069242	-0.296474	-0.391065
H300	H	0.430758	0.203526	0.108935
H301	H	-0.069204	-0.259754	-0.446553
H302	H	0.430796	0.240246	0.053447
C303	C	0.738298	-0.506201	-0.379088
C304	C	1.238298	-0.006201	0.120912
C305	C	0.709426	-0.479224	-0.417203
C306	C	1.209426	0.020776	0.082797
H307	H	0.757789	-0.522086	-0.408505
H308	H	1.257789	-0.022086	0.091495
H309	H	0.755485	-0.487902	-0.349624
H310	H	1.255485	0.012098	0.150376
H311	H	0.721200	-0.526918	-0.353294
H312	H	1.221200	-0.026918	0.146706
H313	H	0.726524	-0.458506	-0.442994
H314	H	1.226524	0.041494	0.057006
H315	H	0.692237	-0.497526	-0.446679
H316	H	1.192237	0.002474	0.053321
H317	H	0.701409	-0.164298	-0.940421
H318	H	1.201409	0.335702	-0.440421
H319	H	0.597050	-0.472724	-0.247591
H320	H	1.097050	0.027276	0.252409
C321	C	0.763416	-0.805225	-0.498668
C322	C	1.263416	-0.305225	0.001332
C323	C	0.738218	-0.835757	-0.460631
C324	C	1.238218	-0.335757	0.039369
H325	H	0.782901	-0.821119	-0.528080
H326	H	1.282901	-0.321119	-0.028080
H327	H	0.743828	-0.786924	-0.524516
H328	H	1.243828	-0.286924	-0.024516
H329	H	0.780613	-0.786930	-0.469201
H330	H	1.280613	-0.286930	0.030799
H331	H	0.721018	-0.854050	-0.490098
H332	H	1.221018	-0.354050	0.009902
H333	H	0.757809	-0.854065	-0.434781
H334	H	1.257809	-0.354065	0.065219
H335	H	0.701420	-0.164278	-1.068665
H336	H	1.201420	0.335722	-0.568665
H337	H	0.701222	-0.387443	-0.404818
H338	H	1.201222	0.112557	0.095182
H339	H	0.730007	-0.688327	-0.448242
H340	H	1.230007	-0.188327	0.051758
C341	C	0.598560	-0.392294	-0.168212
C342	C	1.098560	0.107706	0.331788
C343	C	0.588841	-0.380932	-0.235229
C344	C	1.088841	0.119068	0.264771
H345	H	0.579068	-0.376400	-0.138810
H346	H	1.079068	0.123600	0.361190
H347	H	0.594456	-0.423596	-0.162018
H348	H	1.094456	0.076404	0.337982
H349	H	0.628747	-0.384585	-0.158358
H350	H	1.128747	0.115415	0.341642
H351	H	0.558655	-0.388644	-0.245085
H352	H	1.058655	0.111356	0.254915
H353	H	0.592942	-0.349623	-0.241426
H354	H	1.092942	0.150377	0.258574
C355	C	0.703511	-1.097775	-0.408190
C356	C	1.203511	-0.597775	0.091810
C357	C	0.709568	-1.051631	-0.417336
C358	C	1.209568	-0.551631	0.082664
H359	H	0.722994	-1.113667	-0.437609
H360	H	1.222994	-0.613667	0.062391
H361	H	0.710112	-1.105478	-0.362732
H362	H	1.210112	-0.605478	0.137268
H363	H	0.673321	-1.105473	-0.418037
H364	H	1.173321	-0.605473	0.081963
H365	H	0.739758	-1.043932	-0.407484
H366	H	1.239758	-0.543932	0.092516
H367	H	0.702971	-1.043925	-0.462805
H368	H	1.202971	-0.543925	0.037195
C369	C	0.598531	-0.321237	-0.705720
C370	C	1.098531	0.178763	-0.205720
C371	C	0.588868	-0.276742	-0.722833
C372	C	1.088868	0.223258	-0.222833
H373	H	0.579020	-0.340727	-0.729677
H374	H	1.079020	0.159273	-0.229677
H375	H	0.628708	-0.327814	-0.717321
H376	H	1.128708	0.172186	-0.217321
H377	H	0.594410	-0.325349	-0.658557
H378	H	1.094410	0.174651	-0.158557
H379	H	0.592992	-0.272630	-0.769995
H380	H	1.092992	0.227370	-0.269995
H381	H	0.558683	-0.270164	-0.711236
H382	H	1.058683	0.229836	-0.211236
H383	H	0.478155	-0.164292	-0.247808
H384	H	0.978155	0.335708	0.252192
H385	H	0.568423	-0.829327	-0.204360
H386	H	1.068423	-0.329327	0.295640
H387	H	0.597171	-0.960004	-0.247715
H388	H	1.097171	-0.460004	0.252285
C389	C	0.563652	-0.301903	-1.032625
C390	C	1.063652	0.198097	-0.532625
C391	C	0.588898	-0.276686	-1.078602
C392	C	1.088898	0.223314	-0.578602
H393	H	0.544140	-0.321387	-1.056590
H394	H	1.044140	0.178613	-0.556590
H395	H	0.583207	-0.319098	-1.005056
H396	H	1.083207	0.180902	-0.505056
H397	H	0.546480	-0.282323	-1.005057
H398	H	1.046480	0.217677	-0.505057
H399	H	0.606072	-0.296266	-1.106168
H400	H	1.106072	0.203734	-0.606168
H401	H	0.569340	-0.259490	-1.106183
H402	H	1.069340	0.240510	-0.606183
C403	C	0.763371	-0.626990	-0.498609
C404	C	1.263371	-0.126990	0.001391
C405	C	0.738166	-0.596524	-0.460568
C406	C	1.238166	-0.096524	0.039432
H407	H	0.782851	-0.611046	-0.528022
H408	H	1.282851	-0.111046	-0.028022
H409	H	0.780570	-0.645291	-0.469150
H410	H	1.280570	-0.145291	0.030850
H411	H	0.743784	-0.645293	-0.524462
H412	H	1.243784	-0.145293	-0.024462
H413	H	0.757753	-0.578224	-0.434711
H414	H	1.257753	-0.078224	0.065289
H415	H	0.720966	-0.578216	-0.490031
H416	H	1.220966	-0.078216	0.009969
H417	H	-0.179338	-0.268731	-0.404712
H418	H	0.320662	0.231269	0.095288
H419	H	0.393065	-0.268682	-0.404600
H420	H	0.893065	0.231318	0.095400
H421	H	0.177200	-0.135540	-0.204673
H422	H	0.677200	0.364460	0.295327
C423	C	0.767062	-0.710294	-0.422480
C424	C	1.267062	-0.210294	0.077520
C425	C	0.738200	-0.737271	-0.460606
C426	C	1.238200	-0.237271	0.039394
H427	H	0.786547	-0.694352	-0.451891
H428	H	1.286547	-0.194352	0.048109
H429	H	0.749959	-0.689631	-0.396677
H430	H	1.249959	-0.189631	0.103323
H431	H	0.784260	-0.728604	-0.393023
H432	H	1.284260	-0.228604	0.106977
H433	H	0.721000	-0.718960	-0.490060
H434	H	1.221000	-0.218960	0.009940
H435	H	0.755305	-0.757935	-0.486420
H436	H	1.255305	-0.257935	0.013580
C437	C	-0.118082	-0.130899	-0.197695
C438	C	0.381918	0.369101	0.302305
C439	C	-0.087570	-0.156138	-0.235610
C440	C	0.412430	0.343862	0.264390
H441	H	-0.102172	-0.111380	-0.168361
H442	H	0.397828	0.388620	0.331639
H443	H	-0.136359	-0.113740	-0.227239
H444	H	0.363641	0.386260	0.272761
H445	H	-0.136404	-0.150462	-0.171763
H446	H	0.363596	0.349538	0.328237
H447	H	-0.069251	-0.136575	-0.261546
H448	H	0.430749	0.363425	0.238454
H449	H	-0.069286	-0.173299	-0.206063
H450	H	0.430714	0.326701	0.293937
C451	C	0.534978	-0.627330	-0.153941
C452	C	1.034978	-0.127330	0.346059
C453	C	0.560172	-0.596789	-0.191966
C454	C	1.060172	-0.096789	0.308034
H455	H	0.515488	-0.611443	-0.124527
H456	H	1.015488	-0.111443	0.375473
H457	H	0.517789	-0.645625	-0.183410
H458	H	1.017789	-0.145625	0.316590
H459	H	0.554570	-0.645630	-0.128089
H460	H	1.054570	-0.145630	0.371911
H461	H	0.540579	-0.578492	-0.217823
H462	H	1.040579	-0.078492	0.282177
H463	H	0.577361	-0.578487	-0.162494
H464	H	1.077361	-0.078487	0.337506
C465	C	0.614190	-0.305576	-0.889571
C466	C	1.114190	0.194424	-0.389571
C467	C	0.588882	-0.276713	-0.930223
C468	C	1.088882	0.223287	-0.430223
H469	H	0.594672	-0.325072	-0.865571
H470	H	1.094672	0.174928	-0.365571
H471	H	0.633753	-0.322758	-0.917145
H472	H	1.133753	0.177242	-0.417145
H473	H	0.631304	-0.288472	-0.858420
H474	H	1.131304	0.211528	-0.358420
H475	H	0.571771	-0.293817	-0.961377
H476	H	1.071771	0.206183	-0.461377
H477	H	0.569311	-0.259529	-0.902647
H478	H	1.069311	0.240471	-0.402647
H479	H	0.701370	-0.959838	-0.404961
H480	H	1.201370	-0.459838	0.095039
C481	C	0.041179	-0.296014	-0.527261
C482	C	0.541179	0.203986	-0.027261
C483	C	0.029802	-0.305660	-0.460208
C484	C	0.529802	0.194340	0.039792
H485	H	0.025268	-0.315538	-0.556586
H486	H	0.525268	0.184462	-0.056586
H487	H	0.033504	-0.265841	-0.537246
H488	H	0.533504	0.234159	-0.037246
H489	H	0.072481	-0.300129	-0.533428
H490	H	0.572481	0.199871	-0.033428
H491	H	-0.001500	-0.301542	-0.454040
H492	H	0.498500	0.198458	0.045960
H493	H	0.037474	-0.335840	-0.450219
H494	H	0.537474	0.164160	0.049781
C495	C	0.257683	-0.082857	-0.207087
C496	C	0.757683	0.417143	0.292913
C497	C	0.268997	-0.127336	-0.192348
C498	C	0.768997	0.372664	0.307652
H499	H	0.273599	-0.063336	-0.177764
H500	H	0.773599	0.436664	0.322236
H501	H	0.265395	-0.076325	-0.252577
H502	H	0.765395	0.423675	0.247423
H503	H	0.226382	-0.078746	-0.200904
H504	H	0.726382	0.421254	0.299096
H505	H	0.300298	-0.131448	-0.198536
H506	H	0.800298	0.368552	0.301464
H507	H	0.261288	-0.133871	-0.146848
H508	H	0.761288	0.366129	0.353152
H509	H	0.393033	-0.164295	-0.247821
H510	H	0.893033	0.335705	0.252179
C511	C	0.563807	-1.021347	-0.197347
C512	C	1.063807	-0.521347	0.302653
C513	C	0.589018	-1.051811	-0.235383
C514	C	1.089018	-0.551811	0.264617
H515	H	0.544322	-1.037293	-0.167945
H516	H	1.044322	-0.537293	0.332055
H517	H	0.583387	-1.003048	-0.171488
H518	H	1.083387	-0.503048	0.328512
H519	H	0.546610	-1.003043	-0.226814
H520	H	1.046610	-0.503043	0.273186
H521	H	0.606218	-1.070112	-0.205915
H522	H	1.106218	-0.570112	0.294085
H523	H	0.569435	-1.070118	-0.261244
H524	H	1.069435	-0.570118	0.238756
H525	H	0.568378	-0.688572	-0.204328
H526	H	1.068378	-0.188572	0.295672
H527	H	0.177246	-0.297457	-0.447849
H528	H	0.677246	0.202543	0.052151
C529	C	0.454364	-0.302122	-0.454810
C530	C	0.954364	0.197878	0.045190
C531	C	0.484861	-0.276875	-0.416883
C532	C	0.984861	0.223125	0.083117
H533	H	0.470286	-0.321641	-0.484131
H534	H	0.970286	0.178359	0.015869
H535	H	0.436046	-0.319281	-0.425273
H536	H	0.936046	0.180719	0.074727
H537	H	0.436084	-0.282564	-0.480755
H538	H	0.936084	0.217436	0.019245
H539	H	0.503140	-0.296433	-0.390934
H540	H	1.003140	0.203567	0.109066
H541	H	0.503188	-0.259714	-0.446424
H542	H	1.003188	0.240286	0.053576
H543	H	0.701389	-0.164331	-0.712894
H544	H	1.201389	0.335669	-0.212894
C545	C	0.060265	-0.102103	-0.154478
C546	C	0.560265	0.397897	0.345522
C547	C	0.029766	-0.127354	-0.192395
C548	C	0.529766	0.372646	0.307605
H549	H	0.044345	-0.082575	-0.125168
H550	H	0.544345	0.417425	0.374832
H551	H	0.078541	-0.121655	-0.128527
H552	H	0.578541	0.378345	0.371473
H553	H	0.078587	-0.084949	-0.184026
H554	H	0.578587	0.415051	0.315974
H555	H	0.011445	-0.144511	-0.162847
H556	H	0.511445	0.355489	0.337153
H557	H	0.011481	-0.107800	-0.218348
H558	H	0.511481	0.392200	0.281652
C559	C	0.535033	-0.768093	-0.153957
C560	C	1.035033	-0.268093	0.346043
C561	C	0.560222	-0.737549	-0.191985
C562	C	1.060222	-0.237549	0.308015
H563	H	0.515548	-0.752208	-0.124534
H564	H	1.015548	-0.252208	0.375466
H565	H	0.517841	-0.786385	-0.183424
H566	H	1.017841	-0.286385	0.316576
H567	H	0.554630	-0.786395	-0.128116
H568	H	1.054630	-0.286395	0.371884
H569	H	0.540626	-0.719249	-0.217831
H570	H	1.040626	-0.219249	0.282169
H571	H	0.577417	-0.719249	-0.162515
H572	H	1.077417	-0.219249	0.337485
H573	H	0.121596	-0.297462	-0.447875
H574	H	0.621596	0.202538	0.052125
