data_functionalizedCrystal
_audit_creation_method	'MofGen! by Chris Wilmer'
_symmetry_space_group_name_H-M	'P1'
_symmetry_Int_Tables_number	1
_symmetry_cell_setting	triclinic
loop_
_symmetry_equiv_pos_as_xyz
  x,y,z
_cell_length_a	10.723024
_cell_length_b	19.188930
_cell_length_c	9.198806
_cell_angle_alpha	89.991701
_cell_angle_beta	89.996352
_cell_angle_gamma	83.806325
loop_
_atom_site_label
_atom_site_type_symbol
_atom_site_fract_x
_atom_site_fract_y
_atom_site_fract_z
O1	O	1.655155	0.097922	-0.120901
O2	O	1.291808	0.107295	-0.120908
O3	O	1.483967	0.001021	-0.120876
O4	O	1.462996	0.204196	-0.120933
O5	O	1.483952	0.001021	0.120909
O6	O	1.291793	0.107295	0.120877
O7	O	1.655140	0.097922	0.120884
Cu8	Cu	1.473465	0.102608	0.142957
Cu9	Cu	1.473483	0.102609	-0.142982
O10	O	1.462981	0.204196	0.120852
C11	C	1.245315	0.106613	-0.000016
C12	C	1.106803	0.104572	-0.000017
C13	C	1.030586	0.164037	-0.000035
C14	C	0.887427	0.161930	-0.000036
C15	C	1.483280	-0.024995	0.000021
C16	C	1.481242	-0.102512	0.000033
C17	C	1.593994	-0.146704	0.000042
C18	C	1.592079	-0.219540	0.000019
C19	C	1.477405	-0.248182	0.000016
C20	C	1.364638	-0.203981	-0.000002
C21	C	1.366556	-0.131146	0.000007
N22	N	1.389745	-0.356756	0.082298
N23	N	1.387930	-0.425947	0.082293
C24	C	1.471618	-0.467628	-0.000014
N25	N	1.557208	-0.437506	-0.082297
N26	N	1.559026	-0.368310	-0.082285
C27	C	1.475312	-0.327158	0.000005
C28	C	1.582302	-0.590797	-0.000032
C29	C	1.580382	-0.663634	-0.000065
C30	C	1.352937	-0.648073	-0.000070
C31	C	1.354860	-0.575238	-0.000053
C32	C	1.469546	-0.546604	-0.000027
C33	C	1.701633	0.098604	-0.000012
C34	C	1.840145	0.100645	-0.000020
C35	C	1.463668	0.230211	-0.000048
C36	C	1.465706	0.307729	-0.000070
N37	N	1.473462	0.102608	0.344071
N38	N	1.473496	0.102604	-0.344096
C39	C	1.554148	0.057789	0.416282
C40	C	1.554167	0.057787	0.583694
H41	H	0.821937	0.212836	-0.000057
H42	H	1.672202	-0.699615	-0.000065
H43	H	1.623208	0.019418	0.354167
C44	C	1.627487	-0.062764	0.630847
C45	C	1.647424	0.005983	0.667512
H46	H	1.685067	-0.094746	0.682590
H47	H	1.544183	-0.070621	0.655748
H48	H	1.639712	-0.069550	0.529338
H49	H	1.635190	0.012770	0.769020
H50	H	1.730748	0.013843	0.642621
H51	H	1.259567	-0.671393	-0.000080
C52	C	1.305604	0.195845	0.329133
C53	C	1.380216	0.154405	0.427911
H54	H	1.248031	0.227819	0.380893
H55	H	1.357488	0.221165	0.269755
H56	H	1.260675	0.166652	0.269776
H57	H	1.425152	0.183598	0.487261
H58	H	1.328325	0.129082	0.487314
H59	H	1.066070	0.052101	-0.000040
C60	C	1.004302	0.029193	-0.124290
C61	C	0.928538	0.031915	-0.000001
H62	H	1.058883	-0.013236	-0.124271
H63	H	0.952905	0.031046	-0.208590
H64	H	1.052516	0.067919	-0.124286
H65	H	0.880317	-0.006808	-0.000010
H66	H	0.979942	0.030056	0.084321
H67	H	1.687380	-0.123395	0.000058
H68	H	1.404419	0.140979	0.593816
H69	H	1.274736	-0.095165	0.000000
C70	C	1.817091	-0.227612	0.000064
C71	C	1.716025	-0.268127	0.000039
H72	H	1.893608	-0.257608	0.000086
H73	H	1.813128	-0.198877	-0.084247
H74	H	1.813088	-0.198884	0.084385
H75	H	1.720023	-0.296851	-0.084289
H76	H	1.719990	-0.296874	0.084358
C77	C	1.260710	-0.308723	0.000005
C78	C	1.238585	-0.235461	0.000001
H79	H	1.182886	-0.328155	0.000011
H80	H	1.307118	-0.323845	-0.084304
H81	H	1.307116	-0.323854	0.084329
H82	H	1.192187	-0.220329	-0.084328
H83	H	1.192158	-0.220333	0.084319
H84	H	1.263044	-0.539256	-0.000052
C85	C	1.216739	0.223252	-0.000046
C86	C	1.085560	0.234876	-0.000051
H87	H	1.250672	0.266987	-0.000064
H88	H	1.244248	0.197450	0.084272
H89	H	1.244260	0.197446	-0.084360
H90	H	1.058039	0.260678	0.084269
H91	H	1.058040	0.260689	-0.084378
C92	C	1.806926	-0.613491	-0.000063
C93	C	1.708360	-0.559317	-0.000039
H94	H	1.884748	-0.594056	-0.000081
H95	H	1.801454	-0.641582	0.084245
H96	H	1.801433	-0.641568	-0.084387
H97	H	1.713848	-0.531243	0.084291
H98	H	1.713835	-0.531214	-0.084356
