data_functionalizedCrystal
_audit_creation_method	'MofGen! by Chris Wilmer'
_symmetry_space_group_name_H-M	'P1'
_symmetry_Int_Tables_number	1
_symmetry_cell_setting	triclinic
loop_
_symmetry_equiv_pos_as_xyz
  x,y,z
_cell_length_a	25.639242
_cell_length_b	19.077078
_cell_length_c	19.076919
_cell_angle_alpha	85.531530
_cell_angle_beta	87.727009
_cell_angle_gamma	92.323835
loop_
_atom_site_label
_atom_site_type_symbol
_atom_site_fract_x
_atom_site_fract_y
_atom_site_fract_z
Zn1	Zn	0.778183	-0.296781	0.409993
Zn2	Zn	1.278183	0.203219	0.909993
Zn3	Zn	0.778116	-0.409935	0.296833
Zn4	Zn	1.278116	0.090065	0.796833
Zn5	Zn	0.694414	-0.292055	0.292106
Zn6	Zn	1.194414	0.207945	0.792106
Zn7	Zn	0.687063	-0.414620	0.414658
Zn8	Zn	1.187063	0.085380	0.914658
O9	O	0.734444	-0.353348	0.353397
O10	O	1.234444	0.146652	0.853397
O11	O	0.851338	-0.311809	0.395007
O12	O	1.351338	0.188191	0.895007
O13	O	0.770061	-0.390359	0.197559
O14	O	1.270061	0.109641	0.697559
O15	O	0.708630	-0.194033	0.303813
O16	O	1.208630	0.305967	0.803813
O17	O	0.851289	-0.394942	0.311869
O18	O	1.351289	0.105058	0.811869
O19	O	0.770175	-0.197506	0.390424
O20	O	1.270175	0.302494	0.890424
O21	O	0.708566	-0.303753	0.194087
O22	O	1.208566	0.196247	0.694087
O23	O	0.620275	-0.308296	0.308337
O24	O	1.120275	0.191704	0.808337
O25	O	0.696102	-0.402927	0.512685
O26	O	1.196102	0.097073	1.012685
O27	O	0.614874	-0.398344	0.398376
O28	O	1.114874	0.101656	0.898376
O29	O	0.763048	-0.316352	0.509258
O30	O	1.263048	0.183648	1.009258
O31	O	0.762934	-0.509205	0.316393
O32	O	1.262934	-0.009205	0.816393
O33	O	0.696037	-0.512647	0.402959
O34	O	1.196037	-0.012647	0.902959
C35	C	0.728694	-0.536505	0.360711
C36	C	1.228694	-0.036505	0.860711
C37	C	0.726282	-0.614861	0.363863
C38	C	1.226282	-0.114861	0.863863
C39	C	0.598604	-0.353316	0.353350
C40	C	1.098604	0.146684	0.853350
C41	C	0.540490	-0.353320	0.353347
C42	C	1.040490	0.146680	0.853347
C43	C	0.708974	-1.056122	0.386498
C44	C	1.208974	-0.556122	0.886498
C45	C	0.711241	-0.982497	0.383528
C46	C	1.211241	-0.482497	0.883528
C47	C	0.747228	-0.943873	0.337005
C48	C	1.247228	-0.443873	0.837005
C49	C	0.780954	-0.978877	0.293455
C50	C	1.280954	-0.478877	0.793455
C51	C	0.778689	-1.052501	0.296428
C52	C	1.278689	-0.552501	0.796428
C53	C	0.757742	-0.723489	0.323286
C54	C	1.257742	-0.223489	0.823286
C55	C	0.760004	-0.649860	0.320314
C56	C	1.260004	-0.149860	0.820314
C57	C	0.690291	-0.653485	0.410389
C58	C	1.190291	-0.153485	0.910389
C59	C	0.688027	-0.727110	0.413355
C60	C	1.188027	-0.227110	0.913355
C61	C	0.721755	-0.762108	0.369807
C62	C	1.221755	-0.262108	0.869807
N63	N	0.749545	-0.868617	0.333967
N64	N	1.249545	-0.368617	0.833967
N65	N	0.719440	-0.837363	0.372849
N66	N	1.219440	-0.337363	0.872849
C67	C	0.292097	-0.306388	0.306589
C68	C	0.792097	0.193612	0.806589
C69	C	0.346702	-0.306381	0.306580
C70	C	0.846702	0.193619	0.806580
O71	O	0.377323	-0.266434	0.266783
O72	O	0.877323	0.233566	0.766783
N73	N	0.371215	-0.353330	0.353383
N74	N	0.871215	0.146670	0.853383
C75	C	0.341119	-0.400285	0.400204
C76	C	0.841119	0.099715	0.900204
O77	O	0.366983	-0.440218	0.440013
O78	O	0.866983	0.059782	0.940013
C79	C	0.286515	-0.400288	0.400216
C80	C	0.786515	0.099712	0.900216
C81	C	0.262006	-0.353340	0.353405
C82	C	0.762006	0.146660	0.853405
C83	C	0.267588	-0.259443	0.259782
C84	C	0.767588	0.240557	0.759782
C85	C	0.212987	-0.259451	0.259791
C86	C	0.712987	0.240549	0.759791
C87	C	0.182895	-0.306404	0.306606
C88	C	0.682895	0.193596	0.806606
C89	C	0.207405	-0.353348	0.353413
C90	C	0.707405	0.146652	0.853413
C91	C	0.256421	-0.447238	0.447039
C92	C	0.756421	0.052762	0.947039
C93	C	0.201814	-0.447237	0.447048
C94	C	0.701814	0.052763	0.947048
C95	C	0.177304	-0.400289	0.400236
C96	C	0.677304	0.099711	0.900236
C97	C	0.122713	-0.400308	0.400237
C98	C	0.622713	0.099692	0.900237
N99	N	0.098200	-0.353359	0.353434
N100	N	0.598200	0.146641	0.853434
C101	C	0.128291	-0.306407	0.306618
C102	C	0.628291	0.193593	0.806618
C103	C	0.455791	-0.400274	0.400176
C104	C	0.955791	0.099726	0.900176
C105	C	0.510394	-0.400275	0.400161
C106	C	1.010394	0.099725	0.900161
C107	C	0.515973	-0.306370	0.306538
C108	C	1.015973	0.193630	0.806538
C109	C	0.461369	-0.306373	0.306550
C110	C	0.961369	0.193627	0.806550
C111	C	0.431279	-0.353325	0.353372
C112	C	0.931279	0.146675	0.853372
C113	C	0.013625	-0.306427	0.306639
C114	C	0.513625	0.193573	0.806639
C115	C	-0.040981	-0.306441	0.306650
C116	C	0.459019	0.193559	0.806650
C117	C	-0.046555	-0.400344	0.400275
C118	C	0.453445	0.099656	0.900275
C119	C	0.008046	-0.400332	0.400262
C120	C	0.508046	0.099668	0.900262
C121	C	0.038135	-0.353368	0.353442
C122	C	0.538135	0.146632	0.853442
O123	O	0.092059	-0.440233	0.440016
O124	O	0.592059	0.059767	0.940016
O125	O	0.102421	-0.266474	0.266822
O126	O	0.602421	0.233526	0.766822
C127	C	0.870815	-0.353380	0.353445
C128	C	1.370815	0.146620	0.853445
C129	C	0.928928	-0.353394	0.353465
C130	C	1.428928	0.146606	0.853465
C131	C	0.728762	-0.360689	0.537265
C132	C	1.228762	0.139311	1.037265
C133	C	0.726341	-0.363818	0.615618
C134	C	1.226341	0.136182	1.115618
C135	C	0.740230	-0.169476	0.346071
C136	C	1.240230	0.330524	0.846071
C137	C	0.742696	-0.091121	0.342949
C138	C	1.242696	0.408879	0.842949
C139	C	0.740136	-0.345984	0.170243
C140	C	1.240136	0.154016	0.670243
C141	C	0.742664	-0.342657	0.091883
C142	C	1.242664	0.157343	0.591883
C143	C	0.760057	-0.320214	0.650645
C144	C	1.260057	0.179786	1.150645
C145	C	0.757775	-0.323151	0.724266
C146	C	1.257775	0.176849	1.224266
C147	C	0.721781	-0.369695	0.762859
C148	C	1.221781	0.130305	1.262859
C149	C	0.688061	-0.413300	0.727827
C150	C	1.188061	0.086700	1.227827
C151	C	0.690340	-0.410359	0.654207
C152	C	1.190340	0.089641	1.154207
C153	C	0.711224	-0.383321	0.983230
C154	C	1.211224	0.116679	1.483230
C155	C	0.708949	-0.386260	1.056855
C156	C	1.208949	0.113740	1.556855
C157	C	0.778662	-0.296110	1.053290
C158	C	1.278662	0.203890	1.553290
C159	C	0.780940	-0.293176	0.979669
C160	C	1.280940	0.206824	1.479669
C161	C	0.747219	-0.336778	0.944643
C162	C	1.247219	0.163222	1.444643
N163	N	0.719449	-0.372700	0.838112
N164	N	1.219449	0.127300	1.338112
N165	N	0.749549	-0.333769	0.869391
N166	N	1.249549	0.166231	1.369391
H167	H	0.679670	-1.087564	0.424382
H168	H	1.179670	-0.587564	0.924382
N169	N	0.798887	-0.270020	0.609025
N170	N	1.298887	0.229980	1.109025
H171	H	0.795219	-0.274776	0.557072
H172	H	1.295219	0.225224	1.057072
H173	H	0.835479	-0.281527	0.622356
H174	H	1.335479	0.218473	1.122356
H175	H	-0.060934	-0.268210	0.268529
H176	H	0.439066	0.231790	0.768529
H177	H	0.785204	-0.751975	0.287823
H178	H	1.285204	-0.251975	0.787823
H179	H	0.658717	-0.758552	0.451231
H180	H	1.158717	-0.258552	0.951231
N181	N	0.815030	-0.249082	1.091067
N182	N	1.315030	0.250918	1.591067
H183	H	0.808126	-0.258005	1.143561
H184	H	1.308126	0.241995	1.643561
H185	H	0.808874	-0.198220	1.076188
H186	H	1.308874	0.301780	1.576188
N187	N	0.046076	-0.255782	0.256138
N188	N	0.546076	0.244218	0.756138
H189	H	0.068873	-0.224296	0.283526
H190	H	0.568873	0.275704	0.783526
H191	H	0.022225	-0.226095	0.226499
H192	H	0.522225	0.273905	0.726499
N193	N	0.670126	-0.436466	1.098483
N194	N	1.170126	0.063534	1.598483
H195	H	0.649109	-0.463641	1.065124
H196	H	1.149109	0.036359	1.565124
H197	H	0.645891	-0.408983	1.127879
H198	H	1.145891	0.091017	1.627879
N199	N	0.186563	-0.208798	0.209309
N200	N	0.686563	0.291202	0.709309
H201	H	0.164054	-0.177321	0.236716
H202	H	0.664054	0.322679	0.736716
H203	H	0.164040	-0.236126	0.177741
H204	H	0.664040	0.263874	0.677741
H205	H	0.810258	-0.947426	0.255577
H206	H	1.310258	-0.447426	0.755577
H207	H	0.806150	-1.080996	0.260968
H208	H	1.306150	-0.580996	0.760968
H209	H	0.789310	-0.618416	0.282427
H210	H	1.289310	-0.118416	0.782427
N211	N	0.674849	-0.430357	0.945478
N212	N	1.174849	0.069643	1.445478
H213	H	0.696005	-0.461818	0.916241
H214	H	1.196005	0.038182	1.416241
H215	H	0.652468	-0.400439	0.913825
H216	H	1.152468	0.099561	1.413825
N217	N	0.794130	-0.276109	0.762046
N218	N	1.294130	0.223891	1.262046
H219	H	0.817277	-0.246176	0.726426
H220	H	1.317277	0.253824	1.226426
H221	H	0.816479	-0.306018	0.793754
H222	H	1.316479	0.193982	1.293754
H223	H	0.658752	-0.451195	0.759255
H224	H	1.158752	0.048805	1.259255
N225	N	0.653980	-0.457390	0.616419
N226	N	1.153980	0.042610	1.116419
H227	H	0.631600	-0.427512	0.584724
H228	H	1.131600	0.072488	1.084724
H229	H	0.630865	-0.487317	0.652078
H230	H	1.130865	0.012683	1.152078
H231	H	0.292083	-0.221205	0.221659
H232	H	0.792083	0.278795	0.721659
H233	H	0.810253	-0.255277	0.948251
H234	H	1.310253	0.244723	1.448251
H235	H	0.683782	-0.954001	0.418990
H236	H	1.183782	-0.454001	0.918990
H237	H	0.662832	-0.624983	0.445844
H238	H	1.162832	-0.124983	0.945844
H239	H	0.540483	-0.268138	0.268419
H240	H	1.040483	0.231862	0.768419
N241	N	0.434936	-0.255738	0.256061
N242	N	0.934936	0.244262	0.756061
H243	H	0.462289	-0.225997	0.226403
H244	H	0.962289	0.274003	0.726403
H245	H	0.412422	-0.224304	0.283511
H246	H	0.912422	0.275696	0.783511
N247	N	0.536822	-0.450923	0.450642
N248	N	1.036822	0.049077	0.950642
H249	H	0.526114	-0.442066	0.500594
H250	H	1.026114	0.057934	1.000594
H251	H	0.575974	-0.443777	0.443478
H252	H	1.075974	0.056223	0.943478
N253	N	0.423336	-0.450928	0.450669
N254	N	0.923336	0.049072	0.950669
H255	H	0.431639	-0.442074	0.500619
H256	H	0.931639	0.057926	1.000619
H257	H	0.431619	-0.500812	0.441578
H258	H	0.931619	-0.000812	0.941578
N259	N	0.282848	-0.497877	0.497528
N260	N	0.782848	0.002123	0.997528
H261	H	0.255492	-0.527614	0.527184
H262	H	0.755492	-0.027614	1.027184
H263	H	0.305398	-0.470536	0.529052
H264	H	0.805398	0.029464	1.029052
H265	H	0.177317	-0.485469	0.485179
H266	H	0.677317	0.014531	0.985179
H267	H	0.028003	-0.438566	0.438375
H268	H	0.528003	0.061434	0.938375
H269	H	-0.071065	-0.438573	0.438389
H270	H	0.428935	0.061427	0.938389
