data_functionalizedCrystal
_audit_creation_method	'MofGen! by Chris Wilmer'
_symmetry_space_group_name_H-M	'P1'
_symmetry_Int_Tables_number	1
_symmetry_cell_setting	triclinic
loop_
_symmetry_equiv_pos_as_xyz
  x,y,z
_cell_length_a	14.971486
_cell_length_b	12.996460
_cell_length_c	14.971506
_cell_angle_alpha	90.004566
_cell_angle_beta	83.618258
_cell_angle_gamma	90.000625
loop_
_atom_site_label
_atom_site_type_symbol
_atom_site_fract_x
_atom_site_fract_y
_atom_site_fract_z
O1	O	1.186954	0.085445	0.116563
O2	O	1.686954	0.585445	0.616563
O3	O	0.926555	0.085472	0.130522
O4	O	1.426555	0.585472	0.630522
O5	O	1.063725	0.085455	-0.006656
O6	O	1.563725	0.585455	0.493344
O7	O	1.049785	0.085462	0.253741
O8	O	1.549785	0.585462	0.753741
O9	O	1.063710	-0.085679	-0.006664
O10	O	1.563710	0.414321	0.493336
O11	O	0.926541	-0.085661	0.130514
O12	O	1.426541	0.414339	0.630514
O13	O	1.186940	-0.085689	0.116556
O14	O	1.686940	0.414311	0.616556
Cu15	Cu	1.056739	-0.101301	0.123534
Cu16	Cu	1.556739	0.398699	0.623534
Cu17	Cu	1.056756	0.101084	0.123543
Cu18	Cu	1.556756	0.601084	0.623543
O19	O	1.049771	-0.085672	0.253734
O20	O	1.549771	0.414328	0.753734
C21	C	0.893223	-0.000091	0.129894
C22	C	1.393223	0.499909	0.629894
C23	C	0.793926	-0.000080	0.128023
C24	C	1.293926	0.499920	0.628023
N25	N	1.056734	-0.243648	0.123527
N26	N	1.556734	0.256352	0.623527
C27	C	0.736707	-0.000080	0.208612
C28	C	1.236707	0.499920	0.708612
C29	C	0.643407	-0.000095	0.206849
C30	C	1.143407	0.499905	0.706849
C31	C	0.607329	-0.000104	0.124496
C32	C	1.107329	0.499896	0.624496
C33	C	0.664556	-0.000107	0.043901
C34	C	1.164556	0.499893	0.543901
C35	C	0.757853	-0.000099	0.045665
C36	C	1.257853	0.499901	0.545665
C37	C	0.470093	-0.000122	0.040230
C38	C	0.970093	0.499878	0.540230
C39	C	0.376789	-0.000128	0.038466
C40	C	0.876789	0.499872	0.538466
C41	C	0.355647	-0.000117	0.201414
C42	C	0.855647	0.499883	0.701414
C43	C	0.448944	-0.000109	0.203178
C44	C	0.948944	0.499891	0.703178
C45	C	0.506165	-0.000111	0.122582
C46	C	1.006165	0.499889	0.622582
C47	C	1.056755	-0.663462	0.123544
C48	C	1.556755	-0.163462	0.623544
C49	C	1.056746	-0.546657	0.123543
C50	C	1.556746	-0.046657	0.623543
C51	C	1.056745	-0.453559	0.123536
C52	C	1.556745	0.046441	0.623536
C53	C	1.056735	-0.336746	0.123533
C54	C	1.556735	0.163254	0.623533
C55	C	1.220272	-0.000123	0.117184
C56	C	1.720272	0.499877	0.617184
C57	C	1.319569	-0.000127	0.119054
C58	C	1.819569	0.499873	0.619054
C59	C	1.063091	-0.000110	-0.039984
C60	C	1.563091	0.499890	0.460016
C61	C	1.061213	-0.000105	-0.139281
C62	C	1.561213	0.499895	0.360719
N63	N	1.056769	0.243432	0.123543
N64	N	1.556769	0.743432	0.623543
C65	C	1.134631	-0.000114	-0.577563
C66	C	1.634631	0.499886	-0.077563
C67	C	1.136389	-0.000121	-0.484263
C68	C	1.636389	0.499879	0.015737
C69	C	1.055796	-0.000108	-0.427043
C70	C	1.555796	0.499892	0.072957
C71	C	0.973441	-0.000100	-0.463127
C72	C	1.473441	0.499900	0.036873
C73	C	0.971685	-0.000100	-0.556426
C74	C	1.471685	0.499900	-0.056426
C75	C	0.977108	-0.000096	-0.268664
C76	C	1.477108	0.499904	0.231336
C77	C	0.978864	-0.000094	-0.175359
C78	C	1.478864	0.499906	0.324641
C79	C	1.141812	-0.000116	-0.196501
C80	C	1.641812	0.499884	0.303499
C81	C	1.140055	-0.000117	-0.289800
C82	C	1.640055	0.499883	0.210200
C83	C	1.057700	-0.000106	-0.325878
C84	C	1.557700	0.499894	0.174122
C85	C	1.050404	-0.000104	0.287062
C86	C	1.550404	0.499896	0.787062
C87	C	1.052282	-0.000102	0.386358
C88	C	1.552282	0.499898	0.886358
H89	H	0.766074	-0.000072	0.275673
H90	H	1.266074	0.499928	0.775673
H91	H	0.596822	-0.000093	0.272472
H92	H	1.096822	0.499907	0.772472
Cl93	Cl	0.331434	-0.000173	-0.065064
Cl94	Cl	0.831434	0.499827	0.434936
H95	H	0.904628	-0.000099	-0.585799
H96	H	1.404628	0.499901	-0.085799
Cl97	Cl	1.241373	-0.000125	-0.361733
Cl98	Cl	1.741373	0.499875	0.138267
H99	H	1.200259	-0.000115	-0.624146
H100	H	1.700259	0.499885	-0.124146
H101	H	0.478316	-0.000092	0.270236
H102	H	0.978316	0.499908	0.770236
H103	H	0.516680	-0.000125	-0.025399
H104	H	1.016680	0.499875	0.474601
Cl105	Cl	0.829787	-0.000105	-0.055650
Cl106	Cl	1.329787	0.499895	0.444350
H107	H	0.635173	-0.000129	-0.023152
H108	H	1.135173	0.499871	0.476848
Cl109	Cl	1.245345	-0.000129	-0.151147
Cl110	Cl	1.745345	0.499871	0.348853
H111	H	0.309053	-0.000120	0.267037
H112	H	0.809053	0.499880	0.767037
Cl113	Cl	1.239918	-0.000109	-0.438911
Cl114	Cl	1.739918	0.499891	0.061089
Cl115	Cl	0.873574	-0.000088	-0.314018
Cl116	Cl	1.373574	0.499912	0.185982
Cl117	Cl	0.872124	-0.000089	-0.391194
Cl118	Cl	1.372124	0.499911	0.108806
H119	H	0.913239	-0.000090	-0.128772
H120	H	1.413239	0.499910	0.371228
