data_functionalizedCrystal
_audit_creation_method	'MofGen! by Chris Wilmer'
_symmetry_space_group_name_H-M	'P1'
_symmetry_Int_Tables_number	1
_symmetry_cell_setting	triclinic
loop_
_symmetry_equiv_pos_as_xyz
  x,y,z
_cell_length_a	16.109302
_cell_length_b	14.519709
_cell_length_c	14.586319
_cell_angle_alpha	89.995260
_cell_angle_beta	89.994552
_cell_angle_gamma	83.570963
loop_
_atom_site_label
_atom_site_type_symbol
_atom_site_fract_x
_atom_site_fract_y
_atom_site_fract_z
O1	O	1.103336	0.118543	-0.076283
O2	O	1.603336	0.618543	0.423717
O3	O	0.861299	0.133295	-0.076277
O4	O	1.361299	0.633295	0.423723
O5	O	0.988735	-0.008333	-0.076272
O6	O	1.488735	0.491667	0.423728
O7	O	0.975900	0.260171	-0.076288
O8	O	1.475900	0.760171	0.423712
O9	O	0.988726	-0.008335	0.076209
O10	O	1.488726	0.491665	0.576209
O11	O	0.861290	0.133292	0.076204
O12	O	1.361290	0.633292	0.576204
O13	O	1.103327	0.118541	0.076197
O14	O	1.603327	0.618541	0.576197
Cu15	Cu	0.982308	0.125917	0.090124
Cu16	Cu	1.482308	0.625917	0.590124
Cu17	Cu	0.982318	0.125919	-0.090203
Cu18	Cu	1.482318	0.625919	0.409797
O19	O	0.975891	0.260169	0.076193
O20	O	1.475891	0.760169	0.576193
C21	C	0.830319	0.132696	-0.000035
C22	C	1.330319	0.632696	0.499965
C23	C	0.738021	0.130904	-0.000032
C24	C	1.238021	0.630904	0.499968
C25	C	0.525668	0.126760	0.083076
C26	C	1.025668	0.626760	0.583076
C27	C	0.438945	0.125066	0.083073
C28	C	0.938945	0.625066	0.583073
C29	C	0.438965	0.125073	-0.083170
C30	C	0.938965	0.625073	0.416830
C31	C	0.525687	0.126760	-0.083166
C32	C	1.025687	0.626760	0.416834
C33	C	0.569036	0.127608	-0.000040
C34	C	1.069036	0.627608	0.499960
C35	C	0.395590	0.124228	-0.000047
C36	C	0.895590	0.624228	0.499953
C37	C	0.301562	0.122391	-0.000051
C38	C	0.801562	0.622391	0.499949
C39	C	0.663071	0.129442	-0.000036
C40	C	1.163071	0.629442	0.499964
C41	C	0.988132	-0.042693	-0.000031
C42	C	1.488132	0.457307	0.499969
C43	C	0.986340	-0.145070	-0.000031
C44	C	1.486340	0.354930	0.499969
C45	C	0.979741	-0.519952	-0.000054
C46	C	1.479741	-0.019952	0.499946
C47	C	0.981574	-0.415648	-0.000048
C48	C	1.481574	0.084352	0.499952
C49	C	0.983040	-0.332514	-0.000042
C50	C	1.483040	0.167486	0.499958
C51	C	0.984873	-0.228204	-0.000037
C52	C	1.484873	0.271796	0.499963
C53	C	1.134307	0.119140	-0.000046
C54	C	1.634307	0.619140	0.499954
C55	C	1.226605	0.120932	-0.000055
C56	C	1.726605	0.620932	0.499945
C57	C	0.976494	0.294528	-0.000050
C58	C	1.476494	0.794528	0.499950
C59	C	0.978286	0.396906	-0.000056
C60	C	1.478286	0.896906	0.499944
N61	N	0.982306	0.125914	0.216955
N62	N	1.482306	0.625914	0.716955
N63	N	0.982326	0.125914	-0.217034
N64	N	1.482326	0.625914	0.282966
C65	C	1.038754	0.063222	0.451964
C66	C	1.538754	0.563222	0.951964
C67	C	1.038756	0.063220	0.547945
C68	C	1.538756	0.563220	1.047945
C69	C	0.925873	0.188609	0.547950
C70	C	1.425873	0.688609	1.047950
C71	C	0.925867	0.188606	0.451971
C72	C	1.425867	0.688606	0.951971
C73	C	0.982312	0.125914	0.403980
C74	C	1.482312	0.625914	0.903980
C75	C	0.982320	0.125914	0.595941
C76	C	1.482320	0.625914	1.095941
C77	C	0.982323	0.125913	0.700008
C78	C	1.482323	0.625913	1.200008
C79	C	0.982309	0.125914	0.299906
C80	C	1.482309	0.625914	0.799906
H81	H	0.403660	0.124384	-0.150848
H82	H	0.903660	0.624384	0.349152
H83	H	0.560998	0.127448	-0.150853
H84	H	1.060998	0.627448	0.349147
C85	C	1.100065	-0.004951	0.400024
C86	C	1.600065	0.495049	0.900024
C87	C	1.149479	-0.059871	0.462595
C88	C	1.649479	0.440129	0.962595
C89	C	1.205960	-0.122694	0.414785
C90	C	1.705960	0.377306	0.914785
H91	H	1.134801	0.028123	0.362569
H92	H	1.634801	0.528123	0.862569
H93	H	1.070120	-0.043402	0.362613
H94	H	1.570120	0.456598	0.862613
H95	H	1.179422	-0.021425	0.499990
H96	H	1.679422	0.478575	0.999990
H97	H	1.114766	-0.092965	0.500052
H98	H	1.614766	0.407035	1.000052
H99	H	1.176014	-0.161145	0.377373
H100	H	1.676014	0.338855	0.877373
H101	H	1.240689	-0.089612	0.377331
H102	H	1.740689	0.410388	0.877331
H103	H	1.239488	-0.159970	0.457231
H104	H	1.739488	0.340030	0.957231
C105	C	1.099905	-0.004950	0.600090
C106	C	1.599905	0.495050	1.100090
C107	C	1.055541	-0.061438	0.655185
C108	C	1.555541	0.438562	1.155185
C109	C	1.111844	-0.124259	0.703223
C110	C	1.611844	0.375741	1.203223
H111	H	1.134583	0.028128	0.637599
H112	H	1.634583	0.528128	1.137599
H113	H	1.133505	-0.042338	0.557788
H114	H	1.633505	0.457662	1.057788
H115	H	1.021954	-0.024054	0.697482
H116	H	1.521954	0.475946	1.197482
H117	H	1.020865	-0.094537	0.617698
H118	H	1.520865	0.405463	1.117698
H119	H	1.145445	-0.161647	0.660921
H120	H	1.645445	0.338353	1.160921
H121	H	1.146520	-0.091173	0.740727
H122	H	1.646520	0.408827	1.240727
H123	H	1.081751	-0.162599	0.740604
H124	H	1.581751	0.337401	1.240604
C125	C	0.864692	0.256638	0.600223
C126	C	1.364692	0.756638	1.100223
C127	C	0.876792	0.243242	0.694548
C128	C	1.376792	0.743242	1.194548
C129	C	0.820456	0.305905	0.742728
C130	C	1.320456	0.805905	1.242728
H131	H	0.809153	0.246667	0.584617
H132	H	1.309153	0.746667	1.084617
H133	H	0.873819	0.318209	0.584535
H134	H	1.373819	0.818209	1.084535
H135	H	0.867658	0.181686	0.710230
H136	H	1.367658	0.681686	1.210230
H137	H	0.932319	0.253221	0.710181
H138	H	1.432319	0.753221	1.210181
H139	H	0.829583	0.367477	0.727040
H140	H	1.329583	0.867477	1.227040
H141	H	0.764921	0.295930	0.727115
H142	H	1.264921	0.795930	1.227115
H143	H	0.828663	0.296831	0.806732
H144	H	1.328663	0.796831	1.306732
C145	C	0.864548	0.256779	0.400033
C146	C	1.364548	0.756779	0.900033
C147	C	0.815136	0.311705	0.462601
C148	C	1.315136	0.811705	0.962601
C149	C	0.758648	0.374518	0.414790
C150	C	1.258648	0.874518	0.914790
H151	H	0.829812	0.223697	0.362598
H152	H	1.329812	0.723697	0.862598
H153	H	0.894488	0.295228	0.362600
H154	H	1.394488	0.795228	0.862600
H155	H	0.785198	0.273262	0.500019
H156	H	1.285198	0.773262	1.000019
H157	H	0.849849	0.344807	0.500038
H158	H	1.349849	0.844807	1.000038
H159	H	0.788589	0.412966	0.377357
H160	H	1.288589	0.912966	0.877357
H161	H	0.723918	0.341428	0.377357
H162	H	1.223918	0.841428	0.877357
H163	H	0.725121	0.411798	0.457235
H164	H	1.225121	0.911798	0.957235
H165	H	0.560960	0.127450	0.150763
H166	H	1.060960	0.627450	0.650763
H167	H	0.403638	0.124376	0.150755
H168	H	0.903638	0.624376	0.650755
