data_functionalizedCrystal
_audit_creation_method	'MofGen! by Chris Wilmer'
_symmetry_space_group_name_H-M	'P1'
_symmetry_Int_Tables_number	1
_symmetry_cell_setting	triclinic
loop_
_symmetry_equiv_pos_as_xyz
  x,y,z
_cell_length_a	10.654545
_cell_length_b	17.038278
_cell_length_c	9.730223
_cell_angle_alpha	89.988387
_cell_angle_beta	89.997167
_cell_angle_gamma	87.796790
loop_
_atom_site_label
_atom_site_type_symbol
_atom_site_fract_x
_atom_site_fract_y
_atom_site_fract_z
O1	O	1.678042	0.109861	-0.114301
O2	O	2.178042	0.609861	0.385699
O3	O	1.313535	0.120333	-0.114309
O4	O	1.813535	0.620333	0.385691
O5	O	1.493624	0.001270	-0.114270
O6	O	1.993624	0.501270	0.385730
O7	O	1.497953	0.228924	-0.114340
O8	O	1.997953	0.728924	0.385660
O9	O	1.493611	0.001266	0.114310
O10	O	1.993611	0.501266	0.614310
O11	O	1.313522	0.120330	0.114271
O12	O	1.813522	0.620330	0.614271
O13	O	1.678029	0.109858	0.114279
O14	O	2.178029	0.609858	0.614279
Zn15	Zn	1.495774	0.115093	0.150567
Zn16	Zn	1.995774	0.615093	0.650567
Zn17	Zn	1.495790	0.115098	-0.150597
Zn18	Zn	1.995790	0.615098	0.349403
O19	O	1.497940	0.228921	0.114240
O20	O	1.997940	0.728921	0.614240
C21	C	1.266659	0.119563	-0.000020
C22	C	1.766659	0.619563	0.499980
C23	C	1.127002	0.117265	-0.000021
C24	C	1.627002	0.617265	0.499979
C25	C	1.061390	0.116181	0.124579
C26	C	1.561390	0.616181	0.624579
C27	C	0.930169	0.114009	0.124580
C28	C	1.430169	0.614009	0.624580
C29	C	0.930183	0.114007	-0.124631
C30	C	1.430183	0.614007	0.375369
C31	C	1.061402	0.116174	-0.124630
C32	C	1.561402	0.616174	0.375370
C33	C	1.489677	-0.027882	0.000026
C34	C	1.989677	0.472118	0.500026
C35	C	1.477921	-0.114741	0.000043
C36	C	1.977921	0.385259	0.500043
C37	C	1.405699	-0.605555	-0.000084
C38	C	1.905699	-0.105555	0.499916
C39	C	1.416755	-0.523943	-0.000070
C40	C	1.916755	-0.023943	0.499930
C41	C	1.535755	-0.491846	-0.000049
C42	C	2.035755	0.008154	0.499951
C43	C	1.643707	-0.541366	-0.000055
C44	C	2.143707	-0.041366	0.499945
C45	C	1.632650	-0.622976	-0.000078
C46	C	2.132650	-0.122976	0.499922
C47	C	1.574816	-0.245871	0.000014
C48	C	2.074816	0.254129	0.500014
C49	C	1.585865	-0.164254	0.000041
C50	C	2.085865	0.335746	0.500041
C51	C	1.358911	-0.146837	0.000024
C52	C	1.858911	0.353163	0.500024
C53	C	1.347865	-0.228450	0.000008
C54	C	1.847865	0.271550	0.500008
C55	C	1.455817	-0.277962	-0.000005
C56	C	1.955817	0.222038	0.499995
C57	C	1.547059	-0.408426	-0.000030
C58	C	2.047059	0.091574	0.499970
C59	C	1.444512	-0.361381	-0.000033
C60	C	1.944512	0.138619	0.499967
C61	C	1.724905	0.110627	-0.000014
C62	C	2.224905	0.610627	0.499986
C63	C	1.864562	0.112926	-0.000021
C64	C	2.364562	0.612926	0.499979
C65	C	1.501887	0.258073	-0.000059
C66	C	2.001887	0.758073	0.499941
C67	C	1.513643	0.344931	-0.000086
C68	C	2.013643	0.844931	0.499914
N69	N	1.495771	0.115090	0.356103
N70	N	1.995771	0.615090	0.856103
N71	N	1.495802	0.115095	-0.356133
N72	N	1.995802	0.615095	0.143867
C73	C	1.575546	0.062391	0.428046
C74	C	2.075546	0.562391	0.928046
C75	C	1.575558	0.062391	0.571929
C76	C	2.075558	0.562391	1.071929
C77	C	1.416019	0.167796	0.571913
C78	C	1.916019	0.667796	1.071913
C79	C	1.416001	0.167791	0.428033
C80	C	1.916001	0.667791	0.928033
H81	H	1.328855	-0.483632	-0.000073
H82	H	1.828855	0.016368	0.499927
H83	H	0.876754	0.113127	0.226041
H84	H	1.376754	0.613127	0.726041
H85	H	1.351073	0.210706	0.630493
H86	H	1.851073	0.710706	1.130493
N87	N	1.329943	0.224627	0.350424
N88	N	1.829943	0.724627	0.850424
H89	H	1.279416	0.258017	0.417822
H90	H	1.779416	0.758017	0.917822
H91	H	1.381725	0.259489	0.290694
H92	H	1.881725	0.759489	0.790694
H93	H	1.271024	-0.106515	0.000033
H94	H	1.771024	0.393485	0.500033
H95	H	1.662719	-0.286175	0.000011
H96	H	2.162719	0.213825	0.500011
N97	N	1.316161	-0.395990	-0.000055
N98	N	1.816161	0.104010	0.499945
H99	H	1.306523	-0.429445	-0.084799
H100	H	1.806523	0.070555	0.415201
H101	H	1.306594	-0.429440	0.084727
H102	H	1.806594	0.070560	0.584727
H103	H	1.740600	-0.515226	-0.000035
H104	H	2.240600	-0.015226	0.499965
H105	H	1.114798	0.117070	0.226044
H106	H	1.614798	0.617070	0.726044
N107	N	1.749074	-0.676384	-0.000087
N108	N	2.249074	-0.176384	0.499913
H109	H	1.826139	-0.643669	-0.000068
H110	H	2.326139	-0.143669	0.499932
H111	H	1.749421	-0.710644	0.084638
H112	H	2.249421	-0.210644	0.584638
N113	N	1.714223	-0.129636	0.000086
N114	N	2.214223	0.370364	0.500086
H115	H	1.704842	-0.070423	0.000123
H116	H	2.204842	0.429577	0.500123
H117	H	1.761813	-0.147730	0.084832
H118	H	2.261813	0.352270	0.584832
H119	H	0.876756	0.113120	-0.226083
H120	H	1.376756	0.613120	0.273917
H121	H	1.114825	0.117054	-0.226101
H122	H	1.614825	0.617054	0.273899
N123	N	1.675406	-0.373804	0.000027
N124	N	2.175406	0.126196	0.500027
H125	H	1.685072	-0.340310	-0.084689
H126	H	2.185072	0.159690	0.415311
H127	H	1.684928	-0.340390	0.084836
H128	H	2.184928	0.159610	0.584836
N129	N	1.277348	-0.640171	-0.000090
N130	N	1.777348	-0.140171	0.499910
H131	H	1.210645	-0.596418	-0.000087
H132	H	1.710645	-0.096418	0.499913
H133	H	1.267823	-0.673637	-0.084835
H134	H	1.767823	-0.173637	0.415165
H135	H	1.250963	-0.254577	-0.000025
H136	H	1.750963	0.245423	0.499975
N137	N	1.661578	0.005550	0.350462
N138	N	2.161578	0.505550	0.850462
H139	H	1.712114	-0.027835	0.417876
H140	H	2.212114	0.472165	0.917876
H141	H	1.609776	-0.029315	0.290790
H142	H	2.109776	0.470685	0.790790
N143	N	1.661619	0.005563	0.649527
N144	N	2.161619	0.505563	1.149527
H145	H	1.712153	-0.027818	0.582123
H146	H	2.212153	0.472182	1.082123
H147	H	1.720361	0.035851	0.709188
H148	H	2.220361	0.535851	1.209188
