data_functionalizedCrystal
_audit_creation_method	'MofGen! by Chris Wilmer'
_symmetry_space_group_name_H-M	'P1'
_symmetry_Int_Tables_number	1
_symmetry_cell_setting	triclinic
loop_
_symmetry_equiv_pos_as_xyz
  x,y,z
_cell_length_a	12.827892
_cell_length_b	16.959455
_cell_length_c	12.827885
_cell_angle_alpha	89.978773
_cell_angle_beta	90.029976
_cell_angle_gamma	89.990029
loop_
_atom_site_label
_atom_site_type_symbol
_atom_site_fract_x
_atom_site_fract_y
_atom_site_fract_z
Zn1	Zn	-0.416128	-1.208457	0.590896
Zn2	Zn	-0.590906	-1.208377	0.416156
Zn3	Zn	-0.416163	-1.076272	0.416165
Zn4	Zn	-0.590812	-1.076262	0.590851
O5	O	-0.503502	-1.142342	0.503517
O6	O	-0.439337	-1.319058	0.567732
O7	O	-0.567780	-1.190824	0.269921
O8	O	-0.269923	-1.093844	0.439366
O9	O	-0.567746	-1.318999	0.439351
O10	O	-0.269897	-1.190960	0.567741
O11	O	-0.439397	-1.093767	0.269927
O12	O	-0.439306	-0.965660	0.439322
O13	O	-0.567586	-1.093827	0.737093
O14	O	-0.567620	-0.965652	0.567663
O15	O	-0.439247	-1.190951	0.737126
O16	O	-0.737129	-1.190814	0.439307
O17	O	-0.737060	-1.093749	0.567654
C18	C	-0.775012	-1.142293	0.503498
C19	C	-0.891165	-1.142345	0.503524
C20	C	-0.503458	-0.936976	0.503489
C21	C	-0.503464	-0.849119	0.503501
C22	C	-1.062994	-1.190485	0.440114
C23	C	-0.942943	-1.190432	0.440085
C24	C	-0.436601	-0.477623	0.436815
C25	C	-0.570423	-0.477664	0.570251
C26	C	-0.570412	-0.560210	0.570246
C27	C	-0.503496	-0.601466	0.503524
C28	C	-0.436591	-0.560177	0.436807
C29	C	-0.637323	-0.601506	0.636955
C30	C	-0.637316	-0.684057	0.636952
C31	C	-0.570394	-0.725314	0.570234
C32	C	-0.503485	-0.684020	0.503515
C33	C	-0.436569	-0.725276	0.436793
C34	C	-0.369654	-0.683983	0.370078
C35	C	-0.369668	-0.601434	0.370089
C36	C	-0.570380	-0.807863	0.570223
C37	C	-0.436558	-0.807830	0.436784
C38	C	-0.230932	-1.142413	0.503559
C39	C	-0.114779	-1.142443	0.503577
C40	C	-0.503402	-1.142397	0.776087
C41	C	-0.503359	-1.142420	0.892241
C42	C	-0.503535	-0.348510	0.503541
C43	C	-0.503517	-0.436367	0.503537
C44	C	-0.503527	-1.142333	0.232007
C45	C	-0.503275	-1.142463	0.115854
C46	C	-0.439819	-1.094408	0.944028
C47	C	-0.439773	-1.094431	1.064079
H48	H	-1.107535	-1.231650	0.385797
H49	H	-0.691801	-0.717671	0.691276
H50	H	-0.315176	-0.717584	0.315749
H51	H	-0.624864	-0.841480	0.624538
H52	H	-0.315191	-0.567806	0.315772
O53	O	-0.889662	-1.239429	0.375294
C54	C	-0.721426	-1.284108	0.316266
C55	C	-0.781639	-1.228565	0.389679
H56	H	-0.634079	-1.275355	0.327887
H57	H	-0.742824	-1.270284	0.231948
H58	H	-0.742812	-1.347851	0.334668
H59	H	-0.760286	-1.164802	0.371372
H60	H	-0.760236	-1.242457	0.473976
O61	O	-0.568291	-1.191392	1.062691
C62	C	-0.709274	-1.201880	0.939264
C63	C	-0.635726	-1.146380	0.999435
H64	H	-0.763798	-1.165512	0.888090
H65	H	-0.757156	-1.238034	0.996877
H66	H	-0.661256	-1.243195	0.888224
H67	H	-0.683662	-1.105018	1.050477
H68	H	-0.587840	-1.110282	0.941765
H69	H	-1.070239	-1.101270	0.557886
H70	H	-0.385458	-1.053284	0.899489
H71	H	-0.557726	-1.183540	0.936780
H72	H	-0.935693	-1.101215	0.557865
H73	H	-0.382060	-0.841415	0.382457
H74	H	-0.382118	-0.443999	0.382501
H75	H	-0.624909	-0.444068	0.624566
H76	H	-0.691810	-0.567909	0.691268
O77	O	-0.374974	-1.045414	1.117363
C78	C	-0.315774	-1.000797	1.285601
C79	C	-0.389230	-1.056340	1.225386
H80	H	-0.327259	-1.009624	1.372948
H81	H	-0.334107	-0.937022	1.264267
H82	H	-0.231512	-1.014668	1.264155
H83	H	-0.473516	-1.042541	1.246799
H84	H	-0.370807	-1.120099	1.246725
