data_functionalizedCrystal
_audit_creation_method	'MofGen! by Chris Wilmer'
_symmetry_space_group_name_H-M	'P1'
_symmetry_Int_Tables_number	1
_symmetry_cell_setting	triclinic
loop_
_symmetry_equiv_pos_as_xyz
  x,y,z
_cell_length_a	10.654549
_cell_length_b	14.971486
_cell_length_c	9.130313
_cell_angle_alpha	89.995895
_cell_angle_beta	89.998236
_cell_angle_gamma	84.049453
loop_
_atom_site_label
_atom_site_type_symbol
_atom_site_fract_x
_atom_site_fract_y
_atom_site_fract_z
O1	O	1.666491	0.125629	-0.121766
O2	O	2.166491	0.625629	0.378234
O3	O	1.300884	0.137598	-0.121777
O4	O	1.800884	0.637598	0.378223
O5	O	1.493486	0.001467	-0.121761
O6	O	1.993486	0.501467	0.378239
O7	O	1.473888	0.261760	-0.121782
O8	O	1.973888	0.761760	0.378218
O9	O	1.493476	0.001464	0.121838
O10	O	1.993476	0.501464	0.621838
O11	O	1.300873	0.137596	0.121822
O12	O	1.800873	0.637596	0.621822
O13	O	1.666480	0.125626	0.121832
O14	O	2.166480	0.625626	0.621832
Cu15	Cu	1.483676	0.131611	0.144070
Cu16	Cu	1.983676	0.631611	0.644070
Cu17	Cu	1.483688	0.131614	-0.144014
Cu18	Cu	1.983688	0.631614	0.355986
O19	O	1.473877	0.261758	0.121816
O20	O	1.973877	0.761758	0.621816
C21	C	1.254090	0.136718	0.000021
C22	C	1.754090	0.636718	0.500021
C23	C	1.114675	0.134089	0.000018
C24	C	1.614675	0.634089	0.500018
C25	C	0.903327	0.211764	0.000017
C26	C	1.403327	0.711764	0.500017
C27	C	1.034321	0.214241	0.000008
C28	C	1.534321	0.714241	0.500008
C29	C	1.064029	0.051454	0.000021
C30	C	1.564029	0.551454	0.500021
C31	C	0.933037	0.048978	0.000020
C32	C	1.433037	0.548978	0.500020
C33	C	1.492605	-0.031864	0.000038
C34	C	1.992605	0.468136	0.500038
C35	C	1.489978	-0.131175	0.000037
C36	C	1.989978	0.368825	0.500037
C37	C	1.603127	-0.187785	0.000041
C38	C	2.103127	0.312215	0.500041
C39	C	1.600652	-0.281098	0.000026
C40	C	2.100652	0.218902	0.500026
C41	C	1.485026	-0.317799	0.000018
C42	C	1.985026	0.182201	0.500018
C43	C	1.371868	-0.261182	0.000009
C44	C	1.871868	0.238818	0.500009
C45	C	1.374345	-0.167871	0.000013
C46	C	1.874345	0.332129	0.500013
C47	C	1.366714	-0.455673	0.000003
C48	C	1.866714	0.044327	0.500003
C49	C	1.364237	-0.548990	0.000002
C50	C	1.864237	-0.048990	0.500002
C51	C	1.593021	-0.568900	0.000016
C52	C	2.093021	-0.068900	0.500016
C53	C	1.595497	-0.475588	0.000021
C54	C	2.095497	0.024412	0.500021
C55	C	1.482339	-0.418978	0.000015
C56	C	1.982339	0.081022	0.500015
C57	C	1.713274	0.126506	0.000031
C58	C	2.213274	0.626506	0.500031
C59	C	1.852689	0.129136	0.000025
C60	C	2.352689	0.629136	0.500025
C61	C	1.474759	0.295089	0.000014
C62	C	1.974759	0.795089	0.500014
C63	C	1.477386	0.394400	0.000006
C64	C	1.977386	0.894400	0.500006
N65	N	1.483676	0.131608	0.346692
N66	N	1.983676	0.631608	0.846692
N67	N	1.483698	0.131609	-0.346637
N68	N	1.983698	0.631609	0.153363
C69	C	1.568995	0.071352	0.576698
C70	C	2.068995	0.571352	1.076698
C71	C	1.568987	0.071353	0.423361
C72	C	2.068987	0.571353	0.923361
C73	C	1.398375	0.191872	0.423368
C74	C	1.898375	0.691872	0.923368
C75	C	1.398390	0.191875	0.576702
C76	C	1.898390	0.691875	1.076702
H77	H	1.697283	-0.157911	0.000057
H78	H	2.197283	0.342089	0.500057
H79	H	1.692789	-0.327186	0.000033
H80	H	2.192789	0.172814	0.500033
F81	F	1.718559	-0.436530	0.000026
F82	F	2.218559	0.063470	0.500026
F83	F	1.246278	-0.395425	-0.000006
F84	F	1.746278	0.104575	0.499994
F85	F	1.659791	0.007214	0.658280
F86	F	2.159791	0.507214	1.158280
H87	H	1.638445	0.022287	0.360944
H88	H	2.138445	0.522287	0.860944
F89	F	1.307585	0.256006	0.341771
F90	F	1.807585	0.756006	0.841771
F91	F	1.713453	-0.629150	0.000016
F92	F	2.213453	-0.129150	0.500016
F93	F	1.307606	0.256016	0.658302
F94	F	1.807606	0.756016	1.158302
F95	F	0.817819	0.297075	0.000019
F96	F	1.317819	0.797075	0.500019
H97	H	1.075543	0.281525	0.000001
H98	H	1.575543	0.781525	0.500001
F99	F	0.879142	-0.038971	0.000012
F100	F	1.379142	0.461029	0.500012
H101	H	1.270085	-0.578869	0.000018
H102	H	1.770085	-0.078869	0.500018
F103	F	1.149551	-0.033850	0.000026
F104	F	1.649551	0.466150	0.500026
F105	F	1.248810	-0.300245	-0.000017
F106	F	1.748810	0.199755	0.499983
F107	F	1.253917	-0.107623	0.000004
F108	F	1.753917	0.392377	0.500004
