data_functionalizedCrystal
_audit_creation_method	'MofGen! by Chris Wilmer'
_symmetry_space_group_name_H-M	'P1'
_symmetry_Int_Tables_number	1
_symmetry_cell_setting	triclinic
loop_
_symmetry_equiv_pos_as_xyz
  x,y,z
_cell_length_a	12.759400
_cell_length_b	29.839134
_cell_length_c	12.759393
_cell_angle_alpha	90.033122
_cell_angle_beta	89.968436
_cell_angle_gamma	89.989968
loop_
_atom_site_label
_atom_site_type_symbol
_atom_site_fract_x
_atom_site_fract_y
_atom_site_fract_z
Zn1	Zn	-0.418335	-0.686845	-0.594391
Zn2	Zn	-0.594053	-0.686800	-0.418711
Zn3	Zn	-0.418375	-0.611715	-0.418686
Zn4	Zn	-0.593958	-0.611711	-0.594308
O5	O	-0.506180	-0.649268	-0.506524
O6	O	-0.441667	-0.749706	-0.571133
O7	O	-0.570806	-0.676823	-0.271687
O8	O	-0.271348	-0.621702	-0.442018
O9	O	-0.570767	-0.749673	-0.442061
O10	O	-0.271319	-0.676900	-0.571108
O11	O	-0.441736	-0.621659	-0.271668
O12	O	-0.441643	-0.548848	-0.441937
O13	O	-0.570604	-0.621694	-0.741340
O14	O	-0.570643	-0.548844	-0.570966
O15	O	-0.441574	-0.676895	-0.741401
O16	O	-0.741062	-0.676818	-0.441981
O17	O	-0.740992	-0.621650	-0.570991
C18	C	-0.506138	-0.532545	-0.506440
C19	C	-0.506145	-0.482611	-0.506429
C20	C	-0.779148	-0.649241	-0.506502
C21	C	-0.895924	-0.649271	-0.506528
C22	C	-0.573459	-0.172975	-0.573594
C23	C	-0.573493	0.014698	-0.573628
O24	O	-0.630671	0.038956	-0.630705
N25	N	-0.506232	0.038174	-0.506555
C26	C	-0.438954	0.014730	-0.439475
O27	O	-0.381738	0.039004	-0.382434
C28	C	-0.438916	-0.172943	-0.439447
C29	C	-0.506188	-0.196417	-0.506516
C30	C	-0.640725	-0.196449	-0.640658
C31	C	-0.640720	-0.243364	-0.640645
C32	C	-0.573449	-0.266806	-0.573568
C33	C	-0.506183	-0.243332	-0.506503
C34	C	-0.371633	-0.196387	-0.372373
C35	C	-0.371628	-0.243308	-0.372374
C36	C	-0.438900	-0.266782	-0.439443
C37	C	-0.438908	-0.313689	-0.439412
N38	N	-0.506168	-0.337165	-0.506485
C39	C	-0.573439	-0.313724	-0.573562
C40	C	-0.438980	0.113260	-0.439493
C41	C	-0.438991	0.160178	-0.439498
C42	C	-0.573528	0.160143	-0.573652
C43	C	-0.573522	0.113225	-0.573641
C44	C	-0.506240	0.089784	-0.506565
C45	C	-0.573424	-0.412250	-0.573529
C46	C	-0.573416	-0.459169	-0.573507
C47	C	-0.438875	-0.459130	-0.439357
C48	C	-0.438886	-0.412215	-0.439375
C49	C	-0.506164	-0.388776	-0.506469
O50	O	-0.381751	-0.337976	-0.382373
O51	O	-0.630630	-0.338006	-0.630611
C52	C	-0.573464	-0.126059	-0.573607
C53	C	-0.506198	-0.102586	-0.506543
C54	C	-0.438927	-0.126027	-0.439465
C55	C	-0.506209	-0.055668	-0.506548
C56	C	-0.573480	-0.032226	-0.573626
C57	C	-0.640740	-0.055702	-0.640698
C58	C	-0.640735	-0.102618	-0.640685
C59	C	-0.371667	-0.102551	-0.372393
C60	C	-0.371678	-0.055635	-0.372411
C61	C	-0.438949	-0.032194	-0.439488
C62	C	-0.950788	-0.678028	-0.439427
C63	C	-1.060512	-0.678056	-0.439459
C64	C	-1.060499	-0.620564	-0.573697
C65	C	-0.950777	-0.620539	-0.573669
C66	C	-0.895935	-0.706760	-0.372286
C67	C	-0.950799	-0.735520	-0.305178
C68	C	-1.060523	-0.735547	-0.305210
C69	C	-1.115383	-0.706815	-0.372351
C70	C	-0.232147	-0.649307	-0.506569
C71	C	-0.115370	-0.649323	-0.506588
C72	C	-0.506074	-0.649299	-0.780558
C73	C	-0.506029	-0.649313	-0.897334
C74	C	-0.506228	0.233554	-0.506592
C75	C	-0.506262	0.183620	-0.506576
C76	C	-0.438837	-0.678060	-0.952230
C77	C	-0.438799	-0.678070	-1.061954
C78	C	-0.573154	-0.620586	-1.061877
C79	C	-0.573186	-0.620573	-0.952155
C80	C	-0.371680	-0.706799	-0.897409
C81	C	-0.304483	-0.735549	-0.952305
C82	C	-0.304445	-0.735560	-1.062029
C83	C	-0.371604	-0.706821	-1.116857
C84	C	-0.506210	-0.649262	-0.233557
C85	C	-0.505959	-0.649336	-0.116781
H86	H	-0.628201	-0.478279	-0.628123
F87	F	-0.371718	-0.706792	-0.780632
H88	H	-0.249723	-0.758966	-1.106722
F89	F	-0.232998	-0.766127	-0.893951
H90	H	-0.384108	-0.478225	-0.384741
H91	H	-0.906106	-0.597123	-0.628310
H92	H	-0.628303	0.179237	-0.628270
H93	H	-0.384190	0.094179	-0.384866
F94	F	-1.232162	-0.706701	-0.372042
H95	H	-0.316856	-0.177282	-0.317755
F96	F	-0.371547	-0.706828	-1.233637
F97	F	-0.644627	-0.590003	-1.120233
F98	F	-0.367403	0.185156	-0.368101
H99	H	-0.627884	-0.597158	-0.907458
H100	H	-1.105175	-0.597172	-0.628358
H101	H	-0.628206	-0.393171	-0.628166
H102	H	-0.806592	-0.706739	-0.372249
F103	F	-0.300014	-0.268252	-0.300981
H104	H	-0.695506	-0.177368	-0.695287
F105	F	-0.645120	0.088246	-0.645026
F106	F	-0.367304	-0.387231	-0.367977
F107	F	-0.712336	-0.127595	-0.712070
F108	F	-0.712340	-0.030746	-0.712082
F109	F	-0.712317	-0.268341	-0.712035
F110	F	-0.300077	-0.030658	-0.301017
F111	F	-0.892412	-0.766100	-0.233736
H112	H	-1.105190	-0.758968	-0.250576
H113	H	-0.316886	-0.121632	-0.317769
