data_functionalizedCrystal
_audit_creation_method	'MofGen! by Chris Wilmer'
_symmetry_space_group_name_H-M	'P1'
_symmetry_Int_Tables_number	1
_symmetry_cell_setting	triclinic
loop_
_symmetry_equiv_pos_as_xyz
  x,y,z
_cell_length_a	8.559649
_cell_length_b	9.616153
_cell_length_c	8.559649
_cell_angle_alpha	90.000928
_cell_angle_beta	110.221336
_cell_angle_gamma	89.993024
loop_
_atom_site_label
_atom_site_type_symbol
_atom_site_fract_x
_atom_site_fract_y
_atom_site_fract_z
O1	O	-2.126889	0.115647	-0.055042
O2	O	-1.651404	0.115647	0.028739
O3	O	-1.931037	0.115645	-0.250894
O4	O	-1.847256	0.115648	0.224591
O5	O	-1.931002	-0.115646	-0.250885
O6	O	-1.651369	-0.115645	0.028748
O7	O	-2.126854	-0.115645	-0.055033
Zn8	Zn	-1.889106	-0.152367	-0.013141
Zn9	Zn	-1.889152	0.152369	-0.013153
O10	O	-1.847221	-0.115643	0.224600
C11	C	-1.591077	0.000001	0.035093
C12	C	-1.411378	0.000002	0.053992
N13	N	-1.889087	-0.360342	-0.013134
C14	C	-1.739156	-0.580711	0.136060
C15	C	-1.739383	-0.419543	0.136515
C16	C	-2.053825	-0.418791	0.003067
C17	C	-2.052980	-0.580009	0.004095
C18	C	-1.876027	-0.580254	-0.179186
C19	C	-1.871983	-0.419027	-0.177566
C20	C	-1.187180	0.000001	-0.061387
C21	C	-1.366879	0.000002	-0.080286
C22	C	-1.937369	0.000002	-0.311198
C23	C	-1.956268	0.000010	-0.490898
N24	N	-1.889185	0.360344	-0.013174
C25	C	-1.840889	0.000003	0.284904
C26	C	-1.821990	0.000004	0.464604
H27	H	-1.311990	0.000009	0.183420
H28	H	-1.466258	0.000009	-0.209705
H29	H	-2.167003	-0.618998	-0.101425
C30	C	-1.572224	-0.633175	0.127741
N31	N	-1.446487	-0.672709	0.121481
C32	C	-2.012188	-0.364622	-0.332448
N33	N	-2.117813	-0.323655	-0.449104
H34	H	-1.692570	0.000000	-0.436018
H35	H	-1.750906	-0.380827	-0.190345
H36	H	-1.616261	-0.380028	0.129926
H37	H	-1.745184	-0.621209	0.259013
H38	H	-1.745614	-0.380963	0.260146
H39	H	-2.167260	-0.380439	-0.103600
H40	H	-2.085696	-0.000001	-0.590286
H41	H	-2.067747	-0.617596	0.124532
C42	C	-2.074955	-0.364244	0.163760
N43	N	-2.090856	-0.323167	0.284804
H44	H	-1.759645	-0.620991	-0.199924
C45	C	-2.024152	-0.631758	-0.328886
N46	N	-2.135721	-0.670560	-0.441629
