data_functionalizedCrystal
_audit_creation_method	'MofGen! by Chris Wilmer'
_symmetry_space_group_name_H-M	'P1'
_symmetry_Int_Tables_number	1
_symmetry_cell_setting	triclinic
loop_
_symmetry_equiv_pos_as_xyz
  x,y,z
_cell_length_a	12.594517
_cell_length_b	21.295416
_cell_length_c	12.594509
_cell_angle_alpha	90.033772
_cell_angle_beta	89.978673
_cell_angle_gamma	89.969869
loop_
_atom_site_label
_atom_site_type_symbol
_atom_site_fract_x
_atom_site_fract_y
_atom_site_fract_z
Zn1	Zn	1.627161	0.250594	-0.601819
Zn2	Zn	2.127161	0.750594	-0.101819
Zn3	Zn	1.627008	0.355872	-0.423823
Zn4	Zn	2.127008	0.855872	0.076177
Zn5	Zn	1.449165	0.250621	-0.423848
Zn6	Zn	1.949165	0.750621	0.076152
Zn7	Zn	1.449103	0.355829	-0.601753
Zn8	Zn	1.949103	0.855829	-0.101753
O9	O	1.538109	0.303229	-0.512811
O10	O	2.038109	0.803229	-0.012811
O11	O	1.776087	0.264566	-0.578225
O12	O	2.276087	0.764566	-0.078225
O13	O	1.603378	0.341940	-0.274881
O14	O	2.103378	0.841940	0.225119
O15	O	1.472867	0.162528	-0.447494
O16	O	1.972867	0.662528	0.052506
O17	O	1.775974	0.341914	-0.447452
O18	O	2.275974	0.841914	0.052548
O19	O	1.603640	0.162508	-0.578249
O20	O	2.103640	0.662508	-0.078249
O21	O	1.472718	0.264612	-0.274899
O22	O	1.972718	0.764612	0.225101
O23	O	1.300211	0.264570	-0.447430
O24	O	1.800211	0.764570	0.052570
O25	O	1.472761	0.341839	-0.750708
O26	O	1.972761	0.841839	-0.250708
O27	O	1.300166	0.341865	-0.578137
O28	O	1.800166	0.841865	-0.078137
O29	O	1.603580	0.264524	-0.750756
O30	O	2.103580	0.764524	-0.250756
O31	O	1.603318	0.443956	-0.447388
O32	O	2.103318	0.943956	0.052612
O33	O	1.472612	0.443924	-0.578113
O34	O	1.972612	0.943924	-0.078113
C35	C	1.261568	0.303216	-0.512780
C36	C	1.761568	0.803216	-0.012780
C37	C	1.143263	0.303226	-0.512791
C38	C	1.643263	0.803226	-0.012791
C39	C	1.074004	0.261127	-0.441836
C40	C	1.574004	0.761127	0.058164
C41	C	1.003169	0.318547	-0.415646
C42	C	1.503169	0.818547	0.084354
C43	C	1.003299	0.245834	-0.538999
C44	C	1.503299	0.745834	-0.038999
C45	C	1.073986	0.360676	-0.486551
C46	C	1.573986	0.860676	0.013449
C47	C	1.074123	0.287924	-0.609949
C48	C	1.574123	0.787924	-0.109949
C49	C	1.003320	0.345384	-0.583796
C50	C	1.503320	0.845384	-0.083796
C51	C	1.537971	0.466780	-0.512764
C52	C	2.037971	0.966780	-0.012764
C53	C	1.538009	0.536748	-0.512779
C54	C	2.038009	1.036748	-0.012779
C55	C	1.606128	0.569611	-0.444783
C56	C	2.106128	1.069611	0.055217
C57	C	1.606178	0.635353	-0.444812
C58	C	2.106178	1.135353	0.055188
C59	C	1.538090	0.668231	-0.512826
C60	C	2.038090	1.168231	-0.012826
C61	C	1.469966	0.635361	-0.580835
C62	C	1.969966	1.135361	-0.080835
C63	C	1.469925	0.569619	-0.580812
C64	C	1.969925	1.069619	-0.080812
N65	N	1.444980	0.771496	-0.520937
N66	N	1.944980	1.271496	-0.020937
N67	N	1.445022	0.833948	-0.520953
N68	N	1.945022	1.333948	-0.020953
C69	C	1.538210	0.866306	-0.512901
C70	C	2.038210	1.366306	-0.012901
N71	N	1.631358	0.833853	-0.504812
N72	N	2.131358	1.333853	-0.004812
N73	N	1.631315	0.771396	-0.504791
N74	N	2.131315	1.271396	-0.004791
C75	C	1.538127	0.739516	-0.512859
C76	C	2.038127	1.239516	-0.012859
C77	C	1.606390	0.970454	-0.444933
C78	C	2.106390	1.470454	0.055067
C79	C	1.606442	1.036197	-0.444969
C80	C	2.106442	1.536197	0.055031
C81	C	1.470220	1.036203	-0.580986
C82	C	1.970220	1.536203	-0.080986
C83	C	1.470178	0.970461	-0.580956
C84	C	1.970178	1.470461	-0.080956
C85	C	1.538261	0.937590	-0.512923
C86	C	2.038261	1.437590	-0.012923
C87	C	1.815730	0.303242	-0.512843
C88	C	2.315730	0.803242	-0.012843
C89	C	1.934036	0.303247	-0.512857
C90	C	2.434036	0.803247	-0.012857
C91	C	1.538181	0.303174	-0.790432
C92	C	2.038181	0.803174	-0.290432
C93	C	1.538211	0.303150	-0.908737
C94	C	2.038211	0.803150	-0.408737
C95	C	1.538279	1.139038	-0.512900
C96	C	2.038279	1.639038	-0.012900
C97	C	1.538354	1.069070	-0.512984
C98	C	2.038354	1.569070	-0.012984
C99	C	1.467081	0.345178	-0.977964
C100	C	1.967081	0.845178	-0.477964
C101	C	1.564195	0.360559	-1.048752
C102	C	2.064195	0.860559	-0.548752
C103	C	1.441173	0.287731	-1.048749
C104	C	1.941173	0.787731	-0.548749
C105	C	1.635376	0.318561	-0.977967
C106	C	2.135376	0.818561	-0.477967
C107	C	1.512288	0.245707	-0.977957
C108	C	2.012288	0.745707	-0.477957
C109	C	1.609469	0.261066	-1.048713
C110	C	2.109469	0.761066	-0.548713
C111	C	1.538100	0.303238	-0.236270
C112	C	2.038100	0.803238	0.263730
C113	C	1.538276	0.303084	-0.117965
C114	C	2.038276	0.803084	0.382035
H115	H	1.105313	0.274950	-0.692060
H116	H	1.605313	0.774950	-0.192060
C117	C	1.746319	0.336188	-0.936150
C118	C	2.246319	0.836188	-0.436150
H119	H	1.745613	0.336116	-0.860721
H120	H	2.245613	0.836116	-0.360721
H121	H	1.796872	0.306482	-0.960955
H122	H	2.296872	0.806482	-0.460955
H123	H	1.764909	0.376843	-0.960963
H124	H	2.264909	0.876843	-0.460963
C125	C	1.394985	0.533469	-0.655605
C126	C	1.894985	1.033469	-0.155605
H127	H	1.354437	0.562463	-0.696114
H128	H	1.854437	1.062463	-0.196114
H129	H	1.435657	0.507777	-0.702006
H130	H	1.935657	1.007777	-0.202006
H131	H	1.348610	0.507871	-0.614827
H132	H	1.848610	1.007871	-0.114827
H133	H	1.661831	0.943689	-0.389540
H134	H	2.161831	1.443689	0.110460
H135	H	1.406976	0.380775	-0.946901
H136	H	1.906976	0.880775	-0.446901
H137	H	1.105040	0.225561	-0.381757
H138	H	1.605040	0.725561	0.118243
C139	C	1.395240	0.934307	-0.655743
C140	C	1.895240	1.434307	-0.155743
H141	H	1.404973	0.890446	-0.645994
H142	H	1.904973	1.390446	-0.145994
H143	H	1.323740	0.945126	-0.640106
H144	H	1.823740	1.445126	-0.140106
H145	H	1.410793	0.945039	-0.727279
H146	H	1.910793	1.445039	-0.227279
H147	H	1.661919	1.062953	-0.389600
H148	H	2.161919	1.562953	0.110400
H149	H	1.104907	0.409235	-0.464321
H150	H	1.604907	0.909235	0.035679
C151	C	1.330279	0.270147	-1.090749
C152	C	1.830279	0.770147	-0.590749
H153	H	1.279810	0.300073	-1.066511
H154	H	1.779810	0.800073	-0.566511
H155	H	1.331253	0.269872	-1.166166
H156	H	1.831253	0.769872	-0.666166
H157	H	1.311352	0.229650	-1.065458
H158	H	1.811352	0.729650	-0.565458
H159	H	1.490298	0.197170	-0.946837
H160	H	1.990298	0.697170	-0.446837
H161	H	1.669718	0.225496	-1.079581
H162	H	2.169718	0.725496	-0.579581
C163	C	0.961643	0.393542	-0.664891
C164	C	1.461643	0.893542	-0.164891
H165	H	0.985977	0.434282	-0.646123
H166	H	1.485977	0.934282	-0.146123
H167	H	0.987011	0.383013	-0.733677
H168	H	1.487011	0.883013	-0.233677
H169	H	0.886218	0.393051	-0.664882
H170	H	1.386218	0.893051	-0.164882
C171	C	0.961356	0.180256	-0.568916
C172	C	1.461356	0.680256	-0.068916
H173	H	0.985572	0.150391	-0.518408
H174	H	1.485572	0.650391	-0.018408
H175	H	0.885939	0.180825	-0.569363
H176	H	1.385939	0.680825	-0.069363
H177	H	0.986706	0.169090	-0.637428
H178	H	1.486706	0.669090	-0.137428
C179	C	1.593861	0.426143	-1.090772
C180	C	2.093861	0.926143	-0.590772
H181	H	1.543232	0.455980	-1.066556
H182	H	2.043232	0.955980	-0.566556
H183	H	1.662329	0.437363	-1.065497
H184	H	2.162329	0.937363	-0.565497
H185	H	1.594298	0.425547	-1.166195
H186	H	2.094298	0.925547	-0.666195
H187	H	1.661568	0.542849	-0.389390
H188	H	2.161568	1.042849	0.110610
H189	H	0.972004	0.331503	-0.333510
H190	H	1.472004	0.831503	0.166490
H191	H	1.661653	0.662115	-0.389442
H192	H	2.161653	1.162115	0.110558
H193	H	1.414530	0.662134	-0.636214
H194	H	1.914530	1.162134	-0.136214
H195	H	1.414787	1.062971	-0.636369
H196	H	1.914787	1.562971	-0.136369
