data_functionalizedCrystal
_audit_creation_method	'MofGen! by Chris Wilmer'
_symmetry_space_group_name_H-M	'P1'
_symmetry_Int_Tables_number	1
_symmetry_cell_setting	triclinic
loop_
_symmetry_equiv_pos_as_xyz
  x,y,z
_cell_length_a	20.875790
_cell_length_b	14.809374
_cell_length_c	20.875641
_cell_angle_alpha	90.463459
_cell_angle_beta	64.262324
_cell_angle_gamma	54.312780
loop_
_atom_site_label
_atom_site_type_symbol
_atom_site_fract_x
_atom_site_fract_y
_atom_site_fract_z
Zr1	Zr	0.515651	1.032444	0.022445
O2	O	0.657478	0.885991	-0.080298
O3	O	0.384640	1.070370	0.049036
O4	O	0.500858	1.087182	-0.072965
O5	O	0.549158	0.863845	0.143519
O6	O	0.476885	1.253814	-0.061601
O7	O	0.541261	0.869178	0.041703
O8	O	0.268993	1.223740	0.156636
O9	O	0.757050	0.893920	-0.074718
O10	O	0.416630	1.219322	0.074784
O11	O	0.440414	1.090986	0.142287
O12	O	0.577245	1.110780	-0.001353
O13	O	0.601030	0.982445	0.066150
Zr14	Zr	0.490011	1.289698	0.202954
Zr15	Zr	0.477416	1.298203	0.040569
Zr16	Zr	0.528246	1.023939	0.184829
Zr17	Zr	0.674456	1.045090	0.031344
Zr18	Zr	0.331206	1.277052	0.194055
O19	O	0.621021	1.251772	0.176363
O20	O	0.603113	1.263866	-0.054527
O21	O	0.675386	0.873897	0.150592
O22	O	0.348184	1.436152	0.305697
O23	O	0.330276	1.448245	0.074807
O24	O	0.402548	1.058276	0.279926
O25	O	0.456504	1.458297	0.081880
O26	O	0.504804	1.234960	0.298364
O27	O	0.528777	1.068328	0.286999
O28	O	0.464401	1.452964	0.183696
O29	O	0.726658	1.105163	-0.060312
O30	O	0.279004	1.216980	0.285710
O31	O	0.248612	1.428223	0.300117
O32	O	0.238601	1.434983	0.171043
O33	O	0.767061	0.887159	0.054356
O34	O	0.736669	1.098402	0.068762
O35	O	0.428416	1.211362	0.226752
O36	O	0.404632	1.339698	0.159249
O37	O	0.565248	1.231156	0.083112
O38	O	0.589032	1.102821	0.150615
C39	C	0.304190	1.145253	0.101568
C40	C	0.236773	1.139885	0.097790
C41	C	0.141387	1.221833	0.155288
C42	C	0.078068	1.216735	0.151730
C43	C	0.110137	1.129693	0.090672
C44	C	0.205534	1.047736	0.033172
C45	C	0.268851	1.052830	0.036732
C46	C	-0.072397	1.105394	0.073669
C47	C	-0.135725	1.100309	0.070111
C48	C	-0.263186	1.269307	0.188671
C49	C	-0.199862	1.274397	0.192224
C50	C	-0.104471	1.192437	0.134726
N51	N	0.045416	1.124483	0.087033
N52	N	-0.039751	1.197643	0.138368
C53	C	0.550657	0.828647	0.090028
C54	C	0.566888	0.715825	0.082334
C55	C	0.494449	0.719370	0.116673
C56	C	0.511223	0.602764	0.108721
C57	C	0.701472	1.176889	0.123831
C58	C	0.768889	1.182257	0.127608
C59	C	0.487077	1.171710	-0.090419
C60	C	0.481730	1.175321	-0.159356
C61	C	0.455005	1.493495	0.135370
C62	C	0.438774	1.606317	0.143065
C63	C	0.563056	1.120362	-0.231485
C64	C	0.558025	1.123770	-0.296255
C65	C	0.471668	1.182131	-0.288894
C66	C	0.390336	1.237097	-0.216757
C67	C	0.395367	1.233695	-0.151988
C68	C	0.447631	1.198386	-0.478340
C69	C	0.442606	1.201781	-0.543116
C70	C	0.610295	1.088455	-0.622610
C71	C	0.615319	1.085052	-0.557836
C72	C	0.533987	1.140024	-0.485705
N73	N	0.466524	1.185613	-0.355099
N74	N	0.539131	1.136549	-0.419502
C75	C	0.518585	1.150432	0.315818
C76	C	0.523932	1.146821	0.384754
C77	C	0.256364	1.477678	0.124239
C78	C	0.172716	1.585131	0.128156
C79	C	0.319944	1.134614	0.304687
C80	C	0.257874	1.125635	0.369845
C81	C	0.272118	1.467039	0.327358
C82	C	0.193817	1.570881	0.400211
C83	C	0.733543	0.855104	-0.101959
C84	C	0.811845	0.751261	-0.174812
C85	C	0.749297	0.844465	0.101160
C86	C	0.832946	0.737011	0.097243
C87	C	0.685718	1.187528	-0.079288
C88	C	0.747788	1.196507	-0.144447
C89	C	0.139696	1.572757	0.085898
C90	C	0.061108	1.673713	0.089563
C91	C	0.015538	1.787039	0.135489
C92	C	0.048565	1.799411	0.177748
C93	C	0.127155	1.698457	0.174079
C94	C	0.222463	1.184253	0.444541
C95	C	0.164152	1.175812	0.505771
C96	C	0.141247	1.108759	0.492304
C97	C	0.176665	1.050134	0.417600
C98	C	0.234980	1.058569	0.356372
C99	C	0.144629	1.686648	0.399188
C100	C	0.071063	1.784230	0.467636
C101	C	0.046682	1.766043	0.537106
C102	C	0.095878	1.650264	0.538127
C103	C	0.169447	1.552685	0.469680
C104	C	0.861041	0.635495	-0.173789
C105	C	0.934627	0.537914	-0.242236
C106	C	0.959010	0.556102	-0.311705
C107	C	0.909810	0.671880	-0.312726
C108	C	0.836231	0.769459	-0.244280
C109	C	0.865972	0.749386	0.139494
C110	C	0.944576	0.648433	0.135813
C111	C	0.990148	0.535106	0.089884
C112	C	0.957118	0.522735	0.047628
C113	C	0.878520	0.623687	0.051306
C114	C	0.770672	1.263570	-0.130955
C115	C	0.828982	1.272030	-0.192171
C116	C	0.864412	1.213420	-0.266879
C117	C	0.841522	1.146355	-0.280369
C118	C	0.783207	1.137902	-0.219153
H119	H	0.115263	1.292716	0.205006
F120	F	0.126465	1.238216	0.585270
H121	H	0.624248	1.079019	-0.354983
H122	H	0.841194	0.620663	-0.117230
F123	F	-0.364708	1.356526	0.249862
H124	H	-0.013224	1.845509	0.592834
F125	F	0.608526	0.485965	0.062601
H126	H	0.034229	1.663616	0.055150
H127	H	0.158007	0.995540	0.406646
H128	H	-0.048455	1.869232	0.138471
H129	H	0.093762	1.101900	0.542167
H130	H	0.154030	1.708548	0.208495
H131	H	0.209489	1.458425	0.470522
F132	F	0.664186	0.599026	0.036217
F133	F	1.005628	0.402114	-0.001249
F134	F	0.732975	1.325958	-0.051451
H135	H	0.764582	1.083288	-0.230149
H136	H	0.364331	0.695677	0.178356
F137	F	-0.101587	1.007668	0.005118
F138	F	0.879243	1.083974	-0.359884
F139	F	0.986975	0.414705	-0.241133
F140	F	0.000054	1.920031	0.226626
F141	F	1.037323	0.452238	-0.384547
H142	H	0.000400	1.283466	0.198551
F143	F	0.029119	1.018162	0.012474
H144	H	0.241105	1.238854	0.455521
F145	F	0.272657	0.996181	0.276876
F146	F	0.018714	1.907439	0.466534
F147	F	0.397153	0.836167	0.162808
H148	H	0.381404	1.243149	-0.419616
F149	F	0.853338	1.343405	-0.177798
F150	F	0.935771	0.691218	-0.386668
F151	F	0.069919	1.630926	0.612068
H152	H	0.164467	1.701479	0.342629
F153	F	0.817486	0.869987	0.188379
F154	F	0.654970	1.058242	-0.239328
H155	H	1.054147	0.452914	0.086896
H156	H	0.796175	0.863718	-0.245122
H157	H	0.971455	0.658529	0.170226
F158	F	0.843376	0.610498	0.006337
H159	H	0.176797	1.480491	0.048491
F160	F	0.926477	1.222424	-0.332023
H161	H	-0.225985	1.345279	0.241943
F162	F	0.308807	1.292202	-0.075220
H163	H	0.685639	1.037533	-0.563838
H164	H	0.231641	0.976860	-0.016541
H165	H	0.346523	0.986088	-0.010082
H166	H	0.676512	1.043701	-0.681344
H167	H	0.320022	1.284622	-0.210768
F168	F	0.350689	1.263900	-0.535277
