data_functionalizedCrystal
_audit_creation_method	'MofGen! by Chris Wilmer'
_symmetry_space_group_name_H-M	'P1'
_symmetry_Int_Tables_number	1
_symmetry_cell_setting	triclinic
loop_
_symmetry_equiv_pos_as_xyz
  x,y,z
_cell_length_a	14.519709
_cell_length_b	14.044220
_cell_length_c	13.596369
_cell_angle_alpha	89.993157
_cell_angle_beta	90.000291
_cell_angle_gamma	88.434511
loop_
_atom_site_label
_atom_site_type_symbol
_atom_site_fract_x
_atom_site_fract_y
_atom_site_fract_z
O1	O	1.233892	0.124273	-0.081665
O2	O	1.733892	0.624273	0.418335
O3	O	0.966596	0.138907	-0.081695
O4	O	1.466596	0.638907	0.418305
O5	O	1.096232	-0.006402	-0.081671
O6	O	1.596232	0.493598	0.418329
O7	O	1.104256	0.269581	-0.081690
O8	O	1.604256	0.769581	0.418310
O9	O	1.096217	-0.006409	0.081912
O10	O	1.596217	0.493591	0.581912
O11	O	0.966581	0.138899	0.081887
O12	O	1.466581	0.638899	0.581887
O13	O	1.233878	0.124265	0.081918
O14	O	1.733878	0.624265	0.581918
Zn15	Zn	1.100227	0.131581	0.107875
Zn16	Zn	1.600227	0.631581	0.607875
Zn17	Zn	1.100246	0.131591	-0.107653
Zn18	Zn	1.600246	0.631591	0.392347
O19	O	1.104241	0.269574	0.081893
O20	O	1.604241	0.769574	0.581893
C21	C	0.932174	0.138221	0.000092
C22	C	1.432174	0.638221	0.500092
C23	C	0.829628	0.136177	0.000081
C24	C	1.329628	0.636177	0.500081
C25	C	1.092712	-0.041726	0.000120
C26	C	1.592712	0.458274	0.500120
C27	C	1.082235	-0.146969	0.000120
C28	C	1.582235	0.353031	0.500120
C29	C	0.454125	0.128653	0.000126
C30	C	0.954125	0.628653	0.500126
C31	C	0.558601	0.130743	0.000113
C32	C	1.058601	0.630743	0.500113
C33	C	0.641873	0.132415	0.000103
C34	C	1.141873	0.632415	0.500103
C35	C	0.746356	0.134505	0.000092
C36	C	1.246356	0.634505	0.500092
C37	C	1.063081	-0.339663	0.000104
C38	C	1.563081	0.160337	0.500104
C39	C	1.137389	-0.397170	0.000110
C40	C	1.637389	0.102830	0.500110
C41	C	1.126731	-0.504392	0.000101
C42	C	1.626731	-0.004392	0.500101
C43	C	1.073737	-0.232432	0.000113
C44	C	1.573737	0.267568	0.500113
C45	C	1.268300	0.124951	0.000128
C46	C	1.768300	0.624951	0.500128
C47	C	1.370846	0.126995	0.000133
C48	C	1.870846	0.626995	0.500133
C49	C	1.107761	0.304898	0.000100
C50	C	1.607761	0.804898	0.500100
C51	C	1.118238	0.410141	0.000093
C52	C	1.618238	0.910141	0.500093
N53	N	1.100220	0.131573	0.254967
N54	N	1.600220	0.631573	0.754967
N55	N	1.100260	0.131591	-0.254744
N56	N	1.600260	0.631591	0.245256
C57	C	1.100245	0.131592	0.656258
C58	C	1.600245	0.631592	1.156258
C59	C	1.100236	0.131590	0.544606
C60	C	1.600236	0.631590	1.044606
C61	C	1.100233	0.131583	0.455616
C62	C	1.600233	0.631583	0.955616
C63	C	1.100223	0.131580	0.343957
C64	C	1.600223	0.631580	0.843957
H65	H	0.991465	-0.370954	0.000094
H66	H	1.491465	0.129046	0.500094
H67	H	1.209010	-0.365878	0.000052
H68	H	1.709010	0.134122	0.500052
