data_functionalizedCrystal
_audit_creation_method	'MofGen! by Chris Wilmer'
_symmetry_space_group_name_H-M	'P1'
_symmetry_Int_Tables_number	1
_symmetry_cell_setting	triclinic
loop_
_symmetry_equiv_pos_as_xyz
  x,y,z
_cell_length_a	14.044191
_cell_length_b	14.044190
_cell_length_c	8.140239
_cell_angle_alpha	89.991557
_cell_angle_beta	89.999659
_cell_angle_gamma	93.191777
loop_
_atom_site_label
_atom_site_type_symbol
_atom_site_fract_x
_atom_site_fract_y
_atom_site_fract_z
O1	O	1.277176	0.230199	-0.136568
O2	O	1.610509	0.563532	0.196765
O3	O	1.943843	0.896866	0.530099
O4	O	1.000503	0.221886	-0.136588
O5	O	1.333837	0.555220	0.196746
O6	O	1.667170	0.888553	0.530079
O7	O	1.134683	0.087706	-0.136546
O8	O	1.468017	0.421040	0.196787
O9	O	1.801350	0.754373	0.530121
O10	O	1.142996	0.364379	-0.136610
O11	O	1.476329	0.697712	0.196723
O12	O	1.809663	1.031046	0.530057
O13	O	1.134675	0.087704	0.136681
O14	O	1.468008	0.421037	0.470015
O15	O	1.801342	0.754371	0.803348
O16	O	1.000495	0.221884	0.136639
O17	O	1.333828	0.555217	0.469973
O18	O	1.667162	0.888551	0.803306
O19	O	1.277168	0.230197	0.136659
O20	O	1.610501	0.563530	0.469992
O21	O	1.943834	0.896863	0.803326
Zn22	Zn	1.138830	0.226040	0.180030
Zn23	Zn	1.472163	0.559373	0.513363
Zn24	Zn	1.805497	0.892707	0.846697
Zn25	Zn	1.138841	0.226043	-0.179959
Zn26	Zn	1.472174	0.559376	0.153375
Zn27	Zn	1.805508	0.892710	0.486708
O28	O	1.142988	0.364377	0.136617
O29	O	1.476321	0.697710	0.469950
O30	O	1.809654	1.031043	0.803284
C31	C	0.964877	0.218249	0.000024
C32	C	1.298210	0.551582	0.333357
C33	C	1.631544	0.884915	0.666690
C34	C	0.858734	0.207401	0.000018
C35	C	1.192067	0.540735	0.333351
C36	C	1.525400	0.874068	0.666684
C37	C	0.613277	0.264502	0.000021
C38	C	0.946610	0.597835	0.333354
C39	C	1.279943	0.931169	0.666688
C40	C	0.664400	0.187585	0.000036
C41	C	0.997734	0.520919	0.333369
C42	C	1.331067	0.854252	0.666703
C43	C	0.772537	0.198614	0.000026
C44	C	1.105871	0.531947	0.333359
C45	C	1.439204	0.865280	0.666692
C46	C	0.505130	0.253475	0.000031
C47	C	0.838463	0.586809	0.333364
C48	C	1.171796	0.920142	0.666698
C49	C	1.131043	0.052083	0.000072
C50	C	1.464376	0.385416	0.333406
C51	C	1.797709	0.718750	0.666739
C52	C	1.120195	-0.054060	0.000086
C53	C	1.453529	0.279273	0.333419
C54	C	1.786862	0.612606	0.666752
C55	C	1.177296	-0.299517	0.000025
C56	C	1.510629	0.033816	0.333359
C57	C	1.843963	0.367149	0.666692
C58	C	1.100379	-0.248394	0.000031
C59	C	1.433713	0.084940	0.333365
C60	C	1.767046	0.418273	0.666698
C61	C	1.111408	-0.140257	0.000062
C62	C	1.444741	0.193077	0.333395
C63	C	1.778074	0.526410	0.666728
C64	C	1.166269	-0.407664	-0.000005
C65	C	1.499602	-0.074331	0.333329
C66	C	1.832936	0.259002	0.666662
C67	C	1.312794	0.233834	0.000044
C68	C	1.646127	0.567168	0.333377
C69	C	1.979461	0.900501	0.666710
C70	C	1.418937	0.244682	0.000039
C71	C	1.752271	0.578015	0.333372
C72	C	2.085604	0.911348	0.666706
C73	C	1.146628	0.400000	-0.000005
C74	C	1.479962	0.733333	0.333329
C75	C	1.813295	1.066667	0.666662
C76	C	1.157476	0.506143	-0.000029
C77	C	1.490809	0.839477	0.333304
C78	C	1.824142	1.172810	0.666638
N79	N	1.138830	0.226038	0.425712
N80	N	1.472163	0.559371	0.759046
N81	N	1.805496	0.892705	1.092379
N82	N	1.138848	0.226038	-0.425641
N83	N	1.472182	0.559372	-0.092308
N84	N	1.805515	0.892705	0.241025
H85	H	0.626955	0.113453	-0.000063
H86	H	0.960288	0.446786	0.333271
H87	H	1.293622	0.780119	0.666604
H88	H	0.650720	0.338629	-0.000001
H89	H	0.984053	0.671962	0.333332
H90	H	1.317386	1.005295	0.666666
Br91	Br	0.976818	-0.310800	0.000016
Br92	Br	1.310151	0.022534	0.333349
Br93	Br	1.643485	0.355867	0.666682
H94	H	1.251423	-0.262074	0.000048
H95	H	1.584756	0.071259	0.333381
H96	H	1.918089	0.404592	0.666714
