data_functionalizedCrystal
_audit_creation_method	'MofGen! by Chris Wilmer'
_symmetry_space_group_name_H-M	'P1'
_symmetry_Int_Tables_number	1
_symmetry_cell_setting	triclinic
loop_
_symmetry_equiv_pos_as_xyz
  x,y,z
_cell_length_a	14.044220
_cell_length_b	10.654562
_cell_length_c	9.130313
_cell_angle_alpha	89.996930
_cell_angle_beta	89.997493
_cell_angle_gamma	88.839490
loop_
_atom_site_label
_atom_site_type_symbol
_atom_site_fract_x
_atom_site_fract_y
_atom_site_fract_z
O1	O	0.133285	1.681219	-0.121901
O2	O	0.145966	1.317016	-0.121883
O3	O	0.001605	1.493651	-0.121878
O4	O	0.277646	1.504584	-0.121907
O5	O	0.001609	1.493649	0.121721
O6	O	0.145970	1.317014	0.121715
O7	O	0.133289	1.681217	0.121698
Cu8	Cu	0.139630	1.499115	0.143949
Cu9	Cu	0.139625	1.499118	-0.144135
O10	O	0.277650	1.504582	0.121692
C11	C	0.145034	1.270124	-0.000082
C12	C	0.142241	1.130401	-0.000074
C13	C	0.140940	1.064738	0.132700
C14	C	0.138323	0.933453	0.132676
C15	C	0.138312	0.933504	-0.132909
C16	C	0.140922	1.064788	-0.132883
C17	C	0.142259	1.130351	0.265509
C18	C	0.140960	1.064688	0.398294
C19	C	0.138343	0.933403	0.398270
C20	C	0.137025	0.867781	0.265461
C21	C	-0.033739	1.488864	-0.000077
C22	C	-0.139059	1.474588	-0.000075
C23	C	-0.331893	1.448490	-0.000095
C24	C	-0.388857	1.549738	-0.000104
C25	C	-0.496157	1.535216	-0.000115
C26	C	-0.224584	1.463010	-0.000084
C27	C	0.312994	1.509369	-0.000112
C28	C	0.418315	1.523645	-0.000124
C29	C	0.134221	1.728109	-0.000107
C30	C	0.137014	1.867832	-0.000124
N31	N	0.139633	1.499123	0.346572
N32	N	0.139615	1.499119	-0.346757
C33	C	0.075731	1.577361	0.423226
C34	C	0.075720	1.577356	0.576563
C35	C	0.203519	1.420873	0.576577
C36	C	0.203525	1.420872	0.423243
C37	C	0.011839	1.655612	0.346555
C38	C	-0.052067	1.733857	0.423209
C39	C	-0.052079	1.733852	0.576546
C40	C	0.011816	1.655603	0.653228
H41	H	0.134892	0.760880	0.265452
H42	H	0.142025	1.118127	0.506422
N43	N	-0.374030	1.319232	-0.000065
H44	H	-0.321066	1.253677	-0.000050
H45	H	-0.414640	1.308812	-0.090369
H46	H	-0.104119	1.797553	0.638957
N47	N	-0.120999	1.818222	0.340514
H48	H	-0.111301	1.806350	0.231745
H49	H	-0.109427	1.908608	0.367304
N50	N	0.011856	1.655608	0.181173
H51	H	0.026267	1.742537	0.144234
H52	H	-0.052734	1.630064	0.144346
N53	N	0.272442	1.336485	0.340552
H54	H	0.312922	1.286920	0.412388
H55	H	0.314720	1.389290	0.276927
N56	N	-0.346731	1.679011	-0.000093
H57	H	-0.306121	1.689552	-0.090387
H58	H	-0.306187	1.689451	0.090277
H59	H	0.255541	1.357166	0.639022
H60	H	0.137242	0.880064	-0.241036
H61	H	0.144393	1.237250	0.265544
N62	N	0.011808	1.655581	0.818613
H63	H	-0.052773	1.630083	0.855545
H64	H	0.026250	1.742529	0.855435
H65	H	0.141986	1.118251	-0.241000
N66	N	0.136928	0.862578	0.541477
H67	H	0.138159	0.924069	0.625609
H68	H	0.194543	0.804509	0.547243
