data_functionalizedCrystal
_audit_creation_method	'MofGen! by Chris Wilmer'
_symmetry_space_group_name_H-M	'P1'
_symmetry_Int_Tables_number	1
_symmetry_cell_setting	triclinic
loop_
_symmetry_equiv_pos_as_xyz
  x,y,z
_cell_length_a	27.731994
_cell_length_b	27.731996
_cell_length_c	26.210047
_cell_angle_alpha	89.989354
_cell_angle_beta	89.989666
_cell_angle_gamma	82.620961
loop_
_atom_site_label
_atom_site_type_symbol
_atom_site_fract_x
_atom_site_fract_y
_atom_site_fract_z
O1	O	0.640942	0.057393	-0.042363
O2	O	0.890942	0.307393	0.207637
O3	O	1.140942	0.557393	0.457637
O4	O	1.390942	0.807393	0.707637
O5	O	0.500143	0.066166	-0.042381
O6	O	0.750143	0.316166	0.207619
O7	O	1.000143	0.566166	0.457619
O8	O	1.250143	0.816166	0.707619
O9	O	0.574929	-0.008620	-0.042360
O10	O	0.824929	0.241380	0.207640
O11	O	1.074929	0.491380	0.457640
O12	O	1.324929	0.741380	0.707640
O13	O	0.566157	0.132179	-0.042383
O14	O	0.816157	0.382179	0.207617
O15	O	1.066157	0.632179	0.457617
O16	O	1.316157	0.882179	0.707617
O17	O	0.574905	-0.008620	0.042498
O18	O	0.824905	0.241380	0.292498
O19	O	1.074905	0.491380	0.542498
O20	O	1.324905	0.741380	0.792498
O21	O	0.500120	0.066166	0.042477
O22	O	0.750120	0.316166	0.292477
O23	O	1.000120	0.566166	0.542477
O24	O	1.250120	0.816166	0.792477
O25	O	0.640919	0.057393	0.042495
O26	O	0.890919	0.307393	0.292495
O27	O	1.140919	0.557393	0.542495
O28	O	1.390919	0.807393	0.792495
Cu29	Cu	0.570517	0.061779	0.050235
Cu30	Cu	0.820517	0.311779	0.300235
Cu31	Cu	1.070517	0.561779	0.550235
Cu32	Cu	1.320517	0.811779	0.800235
Cu33	Cu	0.570545	0.061779	-0.050120
Cu34	Cu	0.820545	0.311779	0.199880
Cu35	Cu	1.070545	0.561779	0.449880
Cu36	Cu	1.320545	0.811779	0.699880
O37	O	0.566133	0.132179	0.042475
O38	O	0.816133	0.382179	0.292475
O39	O	1.066133	0.632179	0.542475
O40	O	1.316133	0.882179	0.792475
C41	C	0.482124	0.065986	0.000046
C42	C	0.732124	0.315986	0.250046
C43	C	0.982124	0.565986	0.500046
C44	C	1.232124	0.815986	0.750046
C45	C	0.428468	0.065443	0.000040
C46	C	0.678468	0.315443	0.250040
C47	C	0.928468	0.565443	0.500040
C48	C	1.178468	0.815443	0.750040
C49	C	0.095737	0.062027	0.046316
C50	C	0.345737	0.312027	0.296316
C51	C	0.595737	0.562027	0.546316
C52	C	0.845737	0.812027	0.796316
C53	C	-0.105920	0.059966	0.046322
C54	C	0.144080	0.309966	0.296322
C55	C	0.394080	0.559966	0.546322
C56	C	0.644080	0.809966	0.796322
O57	O	-0.132004	0.059678	0.085661
O58	O	0.117996	0.309678	0.335661
O59	O	0.367996	0.559678	0.585661
O60	O	0.617996	0.809678	0.835661
N61	N	-0.131122	0.059710	0.000066
N62	N	0.118878	0.309710	0.250066
N63	N	0.368878	0.559710	0.500066
N64	N	0.618878	0.809710	0.750066
C65	C	-0.105906	0.059966	-0.046195
C66	C	0.144094	0.309966	0.203805
C67	C	0.394094	0.559966	0.453805
C68	C	0.644094	0.809966	0.703805
O69	O	-0.131969	0.059696	-0.085538
O70	O	0.118031	0.309696	0.164462
O71	O	0.368031	0.559696	0.414462
O72	O	0.618031	0.809696	0.664462
C73	C	0.095751	0.062024	-0.046200
C74	C	0.345751	0.312024	0.203800
C75	C	0.595751	0.562024	0.453800
C76	C	0.845751	0.812024	0.703800
C77	C	0.120950	0.062285	0.000059
C78	C	0.370950	0.312285	0.250059
C79	C	0.620950	0.562285	0.500059
C80	C	0.870950	0.812285	0.750059
C81	C	0.120936	0.062288	0.092572
C82	C	0.370936	0.312288	0.342572
C83	C	0.620936	0.562288	0.592572
C84	C	0.870936	0.812288	0.842572
C85	C	0.171347	0.062806	0.092570
C86	C	0.421347	0.312806	0.342570
C87	C	0.671347	0.562806	0.592570
C88	C	0.921347	0.812806	0.842570
C89	C	0.196560	0.063064	0.046312
C90	C	0.446560	0.313064	0.296312
C91	C	0.696560	0.563064	0.546312
C92	C	0.946560	0.813064	0.796312
C93	C	0.171361	0.062803	0.000057
C94	C	0.421361	0.312803	0.250057
C95	C	0.671361	0.562803	0.500057
C96	C	0.921361	0.812803	0.750057
C97	C	0.120966	0.062277	-0.092460
C98	C	0.370966	0.312277	0.157540
C99	C	0.620966	0.562277	0.407540
C100	C	0.870966	0.812277	0.657540
C101	C	0.171384	0.062790	-0.092458
C102	C	0.421384	0.312790	0.157542
C103	C	0.671384	0.562790	0.407542
C104	C	0.921384	0.812790	0.657542
C105	C	0.196583	0.063051	-0.046199
C106	C	0.446583	0.313051	0.203801
C107	C	0.696583	0.563051	0.453801
C108	C	0.946583	0.813051	0.703801
C109	C	0.246984	0.063579	-0.046202
C110	C	0.496984	0.313579	0.203798
C111	C	0.746984	0.563579	0.453798
C112	C	0.996984	0.813579	0.703798
N113	N	0.272186	0.063835	0.000054
N114	N	0.522186	0.313835	0.250054
N115	N	0.772186	0.563835	0.500054
N116	N	1.022186	0.813835	0.750054
C117	C	0.246974	0.063577	0.046311
C118	C	0.496974	0.313577	0.296311
C119	C	0.746974	0.563577	0.546311
C120	C	0.996974	0.813577	0.796311
C121	C	-0.211780	0.058886	-0.046188
C122	C	0.038220	0.308886	0.203812
C123	C	0.288220	0.558886	0.453812
C124	C	0.538220	0.808886	0.703812
C125	C	-0.262194	0.058373	-0.046187
C126	C	-0.012194	0.308373	0.203813
C127	C	0.237806	0.558373	0.453813
C128	C	0.487806	0.808373	0.703813
C129	C	-0.262204	0.058372	0.046330
C130	C	-0.012204	0.308372	0.296330
C131	C	0.237796	0.558372	0.546330
C132	C	0.487796	0.808372	0.796330
C133	C	-0.211789	0.058889	0.046328
C134	C	0.038211	0.308889	0.296328
C135	C	0.288211	0.558889	0.546328
C136	C	0.538211	0.808889	0.796328
C137	C	-0.186578	0.059142	0.000068
C138	C	0.063422	0.309142	0.250068
C139	C	0.313422	0.559142	0.500068
C140	C	0.563422	0.809142	0.750068
C141	C	0.352841	0.064666	0.046303
C142	C	0.602841	0.314666	0.296303
C143	C	0.852841	0.564666	0.546303
C144	C	1.102841	0.814666	0.796303
C145	C	0.403256	0.065186	0.046297
C146	C	0.653256	0.315186	0.296297
C147	C	0.903256	0.565186	0.546297
C148	C	1.153256	0.815186	0.796297
C149	C	0.403262	0.065184	-0.046220
C150	C	0.653262	0.315184	0.203780
C151	C	0.903262	0.565184	0.453780
C152	C	1.153262	0.815184	0.703780
C153	C	0.352851	0.064667	-0.046214
C154	C	0.602851	0.314667	0.203786
C155	C	0.852851	0.564667	0.453786
C156	C	1.102851	0.814667	0.703786
C157	C	0.327642	0.064406	0.000052
C158	C	0.577642	0.314406	0.250052
C159	C	0.827642	0.564406	0.500052
C160	C	1.077642	0.814406	0.750052
O161	O	0.273099	0.063861	-0.085521
O162	O	0.523099	0.313861	0.164479
O163	O	0.773099	0.563861	0.414479
O164	O	1.023099	0.813861	0.664479
O165	O	0.273046	0.063837	0.085649
O166	O	0.523046	0.313837	0.335649
O167	O	0.773046	0.563837	0.585649
O168	O	1.023046	0.813837	0.835649
C169	C	0.045326	0.061509	0.046318
C170	C	0.295326	0.311509	0.296318
C171	C	0.545326	0.561509	0.546318
C172	C	0.795326	0.811509	0.796318
C173	C	0.020127	0.061249	0.000063
C174	C	0.270127	0.311249	0.250063
C175	C	0.520127	0.561249	0.500063
C176	C	0.770127	0.811249	0.750063
C177	C	0.045340	0.061507	-0.046194
C178	C	0.295340	0.311507	0.203806
C179	C	0.545340	0.561507	0.453806
C180	C	0.795340	0.811507	0.703806
C181	C	-0.030287	0.060735	0.000064
C182	C	0.219713	0.310735	0.250064
C183	C	0.469713	0.560735	0.500064
C184	C	0.719713	0.810735	0.750064
C185	C	-0.055499	0.060478	0.046322
C186	C	0.194501	0.310478	0.296322
C187	C	0.444501	0.560478	0.546322
C188	C	0.694501	0.810478	0.796322
C189	C	-0.030297	0.060734	0.092578
C190	C	0.219703	0.310734	0.342578
C191	C	0.469703	0.560734	0.592578
C192	C	0.719703	0.810734	0.842578
C193	C	0.020114	0.061252	0.092576
C194	C	0.270114	0.311252	0.342576
C195	C	0.520114	0.561252	0.592576
C196	C	0.770114	0.811252	0.842576
C197	C	0.020138	0.061251	-0.092450
C198	C	0.270138	0.311251	0.157550
C199	C	0.520138	0.561251	0.407550
C200	C	0.770138	0.811251	0.657550
C201	C	-0.030274	0.060733	-0.092445
C202	C	0.219726	0.310733	0.157555
C203	C	0.469726	0.560733	0.407555
C204	C	0.719726	0.810733	0.657555
C205	C	-0.055486	0.060475	-0.046187
C206	C	0.194514	0.310475	0.203813
C207	C	0.444514	0.560475	0.453813
C208	C	0.694514	0.810475	0.703813
C209	C	0.574737	-0.026628	0.000071
C210	C	0.824737	0.223372	0.250071
C211	C	1.074737	0.473372	0.500071
C212	C	1.324737	0.723372	0.750071
C213	C	0.574194	-0.080284	0.000076
C214	C	0.824194	0.169716	0.250076
C215	C	1.074194	0.419716	0.500076
C216	C	1.324194	0.669716	0.750076
C217	C	0.570792	-0.412999	-0.046206
C218	C	0.820792	-0.162999	0.203794
C219	C	1.070792	0.087001	0.453794
C220	C	1.320792	0.337001	0.703794
C221	C	0.568731	-0.614657	-0.046215
C222	C	0.818731	-0.364657	0.203785
C223	C	1.068731	-0.114657	0.453785
C224	C	1.318731	0.135343	0.703785
O225	O	0.568454	-0.640728	-0.085554
O226	O	0.818454	-0.390728	0.164446
O227	O	1.068454	-0.140728	0.414446
O228	O	1.318454	0.109272	0.664446
N229	N	0.568462	-0.639874	0.000041
N230	N	0.818462	-0.389874	0.250041
N231	N	1.068462	-0.139874	0.500041
N232	N	1.318462	0.110126	0.750041
C233	C	0.568706	-0.614673	0.046302
C234	C	0.818706	-0.364673	0.296302
C235	C	1.068706	-0.114673	0.546302
C236	C	1.318706	0.135327	0.796302
O237	O	0.568425	-0.640748	0.085645
O238	O	0.818425	-0.390748	0.335645
O239	O	1.068425	-0.140748	0.585645
O240	O	1.318425	0.109252	0.835645
C241	C	0.570763	-0.413016	0.046311
C242	C	0.820763	-0.163016	0.296311
C243	C	1.070763	0.086984	0.546311
C244	C	1.320763	0.336984	0.796311
C245	C	0.571037	-0.387802	0.000052
C246	C	0.821037	-0.137802	0.250052
C247	C	1.071037	0.112198	0.500052
C248	C	1.321037	0.362198	0.750052
C249	C	0.571065	-0.387785	-0.092461
C250	C	0.821065	-0.137785	0.157539
C251	C	1.071065	0.112215	0.407539
C252	C	1.321065	0.362215	0.657539
C253	C	0.571583	-0.337374	-0.092458
C254	C	0.821583	-0.087374	0.157542
C255	C	1.071583	0.162626	0.407542
C256	C	1.321583	0.412626	0.657542
C257	C	0.571828	-0.312177	-0.046200
C258	C	0.821828	-0.062177	0.203800
C259	C	1.071828	0.187823	0.453800
C260	C	1.321828	0.437823	0.703800
C261	C	0.571555	-0.337391	0.000055
C262	C	0.821555	-0.087391	0.250055
C263	C	1.071555	0.162609	0.500055
C264	C	1.321555	0.412609	0.750055
C265	C	0.571003	-0.387816	0.092571
C266	C	0.821003	-0.137816	0.342571
C267	C	1.071003	0.112184	0.592571
C268	C	1.321003	0.362184	0.842571
C269	C	0.571516	-0.337398	0.092569
C270	C	0.821516	-0.087398	0.342569
C271	C	1.071516	0.162602	0.592569
C272	C	1.321516	0.412602	0.842569
C273	C	0.571790	-0.312184	0.046311
C274	C	0.821790	-0.062184	0.296311
C275	C	1.071790	0.187816	0.546311
C276	C	1.321790	0.437816	0.796311
C277	C	0.572317	-0.261783	0.046315
C278	C	0.822317	-0.011783	0.296315
C279	C	1.072317	0.238217	0.546315
C280	C	1.322317	0.488217	0.796315
N281	N	0.572586	-0.236566	0.000060
N282	N	0.822586	0.013434	0.250060
N283	N	1.072586	0.263434	0.500060
N284	N	1.322586	0.513434	0.750060
C285	C	0.572341	-0.261763	-0.046198
C286	C	0.822341	-0.011763	0.203802
C287	C	1.072341	0.238237	0.453802
C288	C	1.322341	0.488237	0.703802
C289	C	0.567626	-0.720547	0.046294
C290	C	0.817626	-0.470547	0.296294
C291	C	1.067626	-0.220547	0.546294
C292	C	1.317626	0.029453	0.796294
C293	C	0.567113	-0.770961	0.046292
C294	C	0.817113	-0.520961	0.296292
C295	C	1.067113	-0.270961	0.546292
C296	C	1.317113	-0.020961	0.796292
C297	C	0.567137	-0.770941	-0.046225
C298	C	0.817137	-0.520941	0.203775
C299	C	1.067137	-0.270941	0.453775
C300	C	1.317137	-0.020941	0.703775
C301	C	0.567654	-0.720526	-0.046222
C302	C	0.817654	-0.470526	0.203778
C303	C	1.067654	-0.220526	0.453778
C304	C	1.317654	0.029474	0.703778
C305	C	0.567895	-0.695329	0.000038
C306	C	0.817895	-0.445329	0.250038
C307	C	1.067895	-0.195329	0.500038
C308	C	1.317895	0.054671	0.750038
C309	C	0.573429	-0.155896	-0.046189
C310	C	0.823429	0.094104	0.203811
C311	C	1.073429	0.344104	0.453811
C312	C	1.323429	0.594104	0.703811
C313	C	0.573949	-0.105481	-0.046182
C314	C	0.823949	0.144519	0.203818
C315	C	1.073949	0.394519	0.453818
C316	C	1.323949	0.644519	0.703818
C317	C	0.573922	-0.105505	0.046335
C318	C	0.823922	0.144495	0.296335
C319	C	1.073922	0.394495	0.546335
C320	C	1.323922	0.644495	0.796335
C321	C	0.573405	-0.155916	0.046328
C322	C	0.823405	0.094084	0.296328
C323	C	1.073405	0.344084	0.546328
C324	C	1.323405	0.594084	0.796328
C325	C	0.573157	-0.181110	0.000062
C326	C	0.823157	0.068890	0.250062
C327	C	1.073157	0.318890	0.500062
C328	C	1.323157	0.568890	0.750062
O329	O	0.572589	-0.235680	0.085634
O330	O	0.822589	0.014320	0.335634
O331	O	1.072589	0.264320	0.585634
O332	O	1.322589	0.514320	0.835634
O333	O	0.572611	-0.235678	-0.085535
O334	O	0.822611	0.014322	0.164465
O335	O	1.072611	0.264322	0.414465
O336	O	1.322611	0.514322	0.664465
C337	C	0.570274	-0.463410	-0.046209
C338	C	0.820274	-0.213410	0.203791
C339	C	1.070274	0.036590	0.453791
C340	C	1.320274	0.286590	0.703791
C341	C	0.570001	-0.488624	0.000046
C342	C	0.820001	-0.238624	0.250046
C343	C	1.070001	0.011376	0.500046
C344	C	1.320001	0.261376	0.750046
C345	C	0.570246	-0.463427	0.046304
C346	C	0.820246	-0.213427	0.296304
C347	C	1.070246	0.036573	0.546304
C348	C	1.320246	0.286573	0.796304
C349	C	0.569487	-0.539039	0.000044
C350	C	0.819487	-0.289039	0.250044
C351	C	1.069487	-0.039039	0.500044
C352	C	1.319487	0.210961	0.750044
C353	C	0.569243	-0.564236	-0.046213
C354	C	0.819243	-0.314236	0.203787
C355	C	1.069243	-0.064236	0.453787
C356	C	1.319243	0.185764	0.703787
C357	C	0.569511	-0.539019	-0.092469
C358	C	0.819511	-0.289019	0.157531
C359	C	1.069511	-0.039019	0.407531
C360	C	1.319511	0.210981	0.657531
C361	C	0.570029	-0.488608	-0.092466
C362	C	0.820029	-0.238608	0.157534
C363	C	1.070029	0.011392	0.407534
C364	C	1.320029	0.261392	0.657534
C365	C	0.569977	-0.488644	0.092560
C366	C	0.819977	-0.238644	0.342560
C367	C	1.069977	0.011356	0.592560
C368	C	1.319977	0.261356	0.842560
C369	C	0.569460	-0.539055	0.092553
C370	C	0.819460	-0.289055	0.342553
C371	C	1.069460	-0.039055	0.592553
C372	C	1.319460	0.210945	0.842553
C373	C	0.569215	-0.564253	0.046296
C374	C	0.819215	-0.314253	0.296296
C375	C	1.069215	-0.064253	0.546296
C376	C	1.319215	0.185747	0.796296
C377	C	0.658938	0.057573	0.000067
C378	C	0.908938	0.307573	0.250067
C379	C	1.158938	0.557573	0.500067
C380	C	1.408938	0.807573	0.750067
C381	C	0.712594	0.058115	0.000070
C382	C	0.962594	0.308115	0.250070
C383	C	1.212594	0.558115	0.500070
C384	C	1.462594	0.808115	0.750070
C385	C	0.566325	0.150186	0.000043
C386	C	0.816325	0.400186	0.250043
C387	C	1.066325	0.650186	0.500043
C388	C	1.316325	0.900186	0.750043
C389	C	0.566868	0.203842	0.000034
C390	C	0.816868	0.453842	0.250034
C391	C	1.066868	0.703842	0.500034
C392	C	1.316868	0.953842	0.750034
N393	N	0.570501	0.061779	0.120818
N394	N	0.820501	0.311779	0.370818
N395	N	1.070501	0.561779	0.620818
N396	N	1.320501	0.811779	0.870818
N397	N	0.570565	0.061776	-0.120704
N398	N	0.820565	0.311776	0.129296
N399	N	1.070565	0.561776	0.379296
N400	N	1.320565	0.811776	0.629296
C401	C	0.599632	0.090885	0.473331
C402	C	0.849632	0.340885	0.723331
C403	C	1.099632	0.590885	0.973331
C404	C	1.349632	0.840885	1.223331
C405	C	0.599646	0.090885	0.686990
C406	C	0.849646	0.340885	0.936990
C407	C	1.099646	0.590885	1.186990
C408	C	1.349646	0.840885	1.436990
O409	O	0.624403	0.115626	0.714611
O410	O	0.874403	0.365626	0.964611
O411	O	1.124403	0.615626	1.214611
O412	O	1.374403	0.865626	1.464611
N413	N	0.570556	0.061774	0.713712
N414	N	0.820556	0.311774	0.963712
N415	N	1.070556	0.561774	1.213712
N416	N	1.320556	0.811774	1.463712
C417	C	0.541463	0.032659	0.687017
C418	C	0.791463	0.282659	0.937017
C419	C	1.041463	0.532659	1.187017
C420	C	1.291463	0.782659	1.437017
O421	O	0.516724	0.007895	0.714648
O422	O	0.766724	0.257895	0.964648
O423	O	1.016724	0.507895	1.214648
O424	O	1.266724	0.757895	1.464648
C425	C	0.541452	0.032658	0.473359
C426	C	0.791452	0.282658	0.723359
C427	C	1.041452	0.532658	0.973359
C428	C	1.291452	0.782658	1.223359
C429	C	0.570540	0.061774	0.446640
C430	C	0.820540	0.311774	0.696640
C431	C	1.070540	0.561774	0.946640
C432	C	1.320540	0.811774	1.196640
C433	C	0.628718	0.119998	0.446612
C434	C	0.878718	0.369998	0.696612
C435	C	1.128718	0.619998	0.946612
C436	C	1.378718	0.869998	1.196612
C437	C	0.628713	0.120000	0.393200
C438	C	0.878713	0.370000	0.643200
C439	C	1.128713	0.620000	0.893200
C440	C	1.378713	0.870000	1.143200
C441	C	0.599620	0.090889	0.366509
C442	C	0.849620	0.340889	0.616509
C443	C	1.099620	0.590889	0.866509
C444	C	1.349620	0.840889	1.116509
C445	C	0.570534	0.061775	0.393228
C446	C	0.820534	0.311775	0.643228
C447	C	1.070534	0.561775	0.893228
C448	C	1.320534	0.811775	1.143228
C449	C	0.512361	0.003541	0.446665
C450	C	0.762361	0.253541	0.696665
C451	C	1.012361	0.503541	0.946665
C452	C	1.262361	0.753541	1.196665
C453	C	0.512362	0.003542	0.393247
C454	C	0.762362	0.253542	0.643247
C455	C	1.012362	0.503542	0.893247
C456	C	1.262362	0.753542	1.143247
C457	C	0.541450	0.032658	0.366527
C458	C	0.791450	0.282658	0.616527
C459	C	1.041450	0.532658	0.866527
C460	C	1.291450	0.782658	1.116527
C461	C	0.541436	0.032666	0.313125
C462	C	0.791436	0.282666	0.563125
C463	C	1.041436	0.532666	0.813125
C464	C	1.291436	0.782666	1.063125
N465	N	0.570526	0.061776	0.286403
N466	N	0.820526	0.311776	0.536403
N467	N	1.070526	0.561776	0.786403
N468	N	1.320526	0.811776	1.036403
C469	C	0.599618	0.090888	0.313094
C470	C	0.849618	0.340888	0.563094
C471	C	1.099618	0.590888	0.813094
C472	C	1.349618	0.840888	1.063094
C473	C	0.541470	0.032663	0.799190
C474	C	0.791470	0.282663	1.049190
C475	C	1.041470	0.532663	1.299190
C476	C	1.291470	0.782663	1.549190
C477	C	0.541472	0.032664	0.852604
C478	C	0.791472	0.282664	1.102604
C479	C	1.041472	0.532664	1.352604
C480	C	1.291472	0.782664	1.602604
C481	C	0.599657	0.090889	0.852574
C482	C	0.849657	0.340889	1.102574
C483	C	1.099657	0.590889	1.352574
C484	C	1.349657	0.840889	1.602574
C485	C	0.599652	0.090890	0.799159
C486	C	0.849652	0.340890	1.049159
C487	C	1.099652	0.590890	1.299159
C488	C	1.349652	0.840890	1.549159
C489	C	0.570560	0.061774	0.772468
C490	C	0.820560	0.311774	1.022468
C491	C	1.070560	0.561774	1.272468
C492	C	1.320560	0.811774	1.522468
C493	C	0.599603	0.090890	0.200926
C494	C	0.849603	0.340890	0.450926
C495	C	1.099603	0.590890	0.700926
C496	C	1.349603	0.840890	0.950926
C497	C	0.599593	0.090890	0.147510
C498	C	0.849593	0.340890	0.397510
C499	C	1.099593	0.590890	0.647510
C500	C	1.349593	0.840890	0.897510
C501	C	0.541411	0.032664	0.147545
C502	C	0.791411	0.282664	0.397545
C503	C	1.041411	0.532664	0.647545
C504	C	1.291411	0.782664	0.897545
C505	C	0.541419	0.032665	0.200957
C506	C	0.791419	0.282665	0.450957
C507	C	1.041419	0.532665	0.700957
C508	C	1.291419	0.782665	0.950957
C509	C	0.570519	0.061779	0.227646
C510	C	0.820519	0.311779	0.477646
C511	C	1.070519	0.561779	0.727646
C512	C	1.320519	0.811779	0.977646
O513	O	0.516696	0.007933	0.285471
O514	O	0.766696	0.257933	0.535471
O515	O	1.016696	0.507933	0.785471
O516	O	1.266696	0.757933	1.035471
O517	O	0.624361	0.115640	0.285454
O518	O	0.874361	0.365640	0.535454
O519	O	1.124361	0.615640	0.785454
O520	O	1.374361	0.865640	1.035454
C521	C	0.599638	0.090883	0.526743
C522	C	0.849638	0.340883	0.776743
C523	C	1.099638	0.590883	1.026743
C524	C	1.349638	0.840883	1.276743
C525	C	0.570552	0.061770	0.553463
C526	C	0.820552	0.311770	0.803463
C527	C	1.070552	0.561770	1.053463
C528	C	1.320552	0.811770	1.303463
C529	C	0.541459	0.032659	0.526771
C530	C	0.791459	0.282659	0.776771
C531	C	1.041459	0.532659	1.026771
C532	C	1.291459	0.782659	1.276771
C533	C	0.570554	0.061771	0.606877
C534	C	0.820554	0.311771	0.856877
C535	C	1.070554	0.561771	1.106877
C536	C	1.320554	0.811771	1.356877
C537	C	0.599646	0.090882	0.633569
C538	C	0.849646	0.340882	0.883569
C539	C	1.099646	0.590882	1.133569
C540	C	1.349646	0.840882	1.383569
C541	C	0.628736	0.119993	0.606846
C542	C	0.878736	0.369993	0.856846
C543	C	1.128736	0.619993	1.106846
C544	C	1.378736	0.869993	1.356846
C545	C	0.628730	0.119995	0.553435
C546	C	0.878730	0.369995	0.803435
C547	C	1.128730	0.619995	1.053435
C548	C	1.378730	0.869995	1.303435
C549	C	0.512369	0.003548	0.553493
C550	C	0.762369	0.253548	0.803493
C551	C	1.012369	0.503548	1.053493
C552	C	1.262369	0.753548	1.303493
C553	C	0.512377	0.003549	0.606905
C554	C	0.762377	0.253549	0.856905
C555	C	1.012377	0.503549	1.106905
C556	C	1.262377	0.753549	1.356905
C557	C	0.541469	0.032661	0.633596
C558	C	0.791469	0.282661	0.883596
C559	C	1.041469	0.532661	1.133596
C560	C	1.291469	0.782661	1.383596
H561	H	0.100414	0.062077	0.130242
H562	H	0.350414	0.312077	0.380242
H563	H	0.600414	0.562077	0.630242
H564	H	0.850414	0.812077	0.880242
H565	H	-0.050834	0.060526	0.130242
H566	H	0.199166	0.310526	0.380242
H567	H	0.449166	0.560526	0.630242
H568	H	0.699166	0.810526	0.880242
Br569	Br	0.639131	0.130404	0.762902
Br570	Br	0.889131	0.380404	1.012902
Br571	Br	1.139131	0.630404	1.262902
Br572	Br	1.389131	0.880404	1.512902
H573	H	0.488679	-0.020159	0.531766
H574	H	0.738679	0.229841	0.781766
H575	H	0.988679	0.479841	1.031766
H576	H	1.238679	0.729841	1.281766
H577	H	0.517780	0.008961	0.874355
H578	H	0.767780	0.258961	1.124355
H579	H	1.017780	0.508961	1.374355
H580	H	1.267780	0.758961	1.624355
H581	H	0.569241	-0.559581	0.130225
H582	H	0.819241	-0.309581	0.380225
H583	H	1.069241	-0.059581	0.630225
H584	H	1.319241	0.190419	0.880225
Br585	Br	0.501976	-0.006846	0.762974
Br586	Br	0.751976	0.243154	1.012974
Br587	Br	1.001976	0.493154	1.262974
Br588	Br	1.251976	0.743154	1.512974
Br589	Br	0.318650	0.064322	-0.108994
Br590	Br	0.568650	0.314322	0.141006
Br591	Br	0.818650	0.564322	0.391006
Br592	Br	1.068650	0.814322	0.641006
H593	H	0.517727	0.008963	0.222713
H594	H	0.767727	0.258963	0.472713
H595	H	1.017727	0.508963	0.722713
H596	H	1.267727	0.758963	0.972713
H597	H	0.623343	0.114594	0.874315
H598	H	0.873343	0.364594	1.124315
H599	H	1.123343	0.614594	1.374315
H600	H	1.373343	0.864594	1.624315
H601	H	0.191860	0.063015	0.130239
H602	H	0.441860	0.313015	0.380239
H603	H	0.691860	0.563015	0.630239
H604	H	0.941860	0.813015	0.880239
H605	H	0.573225	-0.176403	-0.083863
H606	H	0.823225	0.073597	0.166137
H607	H	1.073225	0.323597	0.416137
H608	H	1.323225	0.573597	0.666137
H609	H	0.623300	0.114597	0.222651
H610	H	0.873300	0.364597	0.472651
H611	H	1.123300	0.614597	0.722651
H612	H	1.373300	0.864597	0.972651
H613	H	0.488675	-0.020169	0.468411
H614	H	0.738675	0.229831	0.718411
H615	H	0.988675	0.479831	0.968411
H616	H	1.238675	0.729831	1.218411
H617	H	0.423799	0.065396	-0.083881
H618	H	0.673799	0.315396	0.166119
H619	H	0.923799	0.565396	0.416119
H620	H	1.173799	0.815396	0.666119
Br621	Br	0.566803	-0.805146	-0.109003
Br622	Br	0.816803	-0.555146	0.140997
Br623	Br	1.066803	-0.305146	0.390997
Br624	Br	1.316803	-0.055146	0.640997
H625	H	0.652411	0.143704	0.468339
H626	H	0.902411	0.393704	0.718339
H627	H	1.152411	0.643704	0.968339
H628	H	1.402411	0.893704	1.218339
Br629	Br	0.668215	0.159504	0.643081
Br630	Br	0.918215	0.409504	0.893081
Br631	Br	1.168215	0.659504	1.143081
Br632	Br	1.418215	0.909504	1.393081
Br633	Br	0.054346	0.061599	-0.155235
Br634	Br	0.304346	0.311599	0.094765
Br635	Br	0.554346	0.561599	0.344765
Br636	Br	0.804346	0.811599	0.594765
Br637	Br	-0.296388	0.058030	-0.108970
Br638	Br	-0.046388	0.308030	0.141030
Br639	Br	0.203612	0.558030	0.391030
Br640	Br	0.453612	0.808030	0.641030
Br641	Br	0.437451	0.065543	0.109082
Br642	Br	0.687451	0.315543	0.359082
Br643	Br	0.937451	0.565543	0.609082
Br644	Br	1.187451	0.815543	0.859082
Br645	Br	0.472884	-0.035981	0.357027
Br646	Br	0.722884	0.214019	0.607027
Br647	Br	0.972884	0.464019	0.857027
Br648	Br	1.222884	0.714019	1.107027
Br649	Br	0.574256	-0.071299	0.109110
Br650	Br	0.824256	0.178701	0.359110
Br651	Br	1.074256	0.428701	0.609110
Br652	Br	1.324256	0.678701	0.859110
Br653	Br	0.566753	-0.805175	0.109074
Br654	Br	0.816753	-0.555175	0.359074
Br655	Br	1.066753	-0.305175	0.609074
Br656	Br	1.316753	-0.055175	0.859074
Br657	Br	0.318636	0.064310	0.109093
Br658	Br	0.568636	0.314310	0.359093
Br659	Br	0.818636	0.564310	0.609093
Br660	Br	1.068636	0.814310	0.859093
Br661	Br	0.472892	-0.035966	0.643160
Br662	Br	0.722892	0.214034	0.893160
Br663	Br	0.972892	0.464034	1.143160
Br664	Br	1.222892	0.714034	1.393160
H665	H	-0.191276	0.059102	0.083997
H666	H	0.058724	0.309102	0.333997
H667	H	0.308724	0.559102	0.583997
H668	H	0.558724	0.809102	0.833997
H669	H	0.570781	-0.408336	0.130240
H670	H	0.820781	-0.158336	0.380240
H671	H	1.070781	0.091664	0.630240
H672	H	1.320781	0.341664	0.880240
H673	H	0.571804	-0.316850	-0.130126
H674	H	0.821804	-0.066850	0.119874
H675	H	1.071804	0.183150	0.369874
H676	H	1.321804	0.433150	0.619874
Br677	Br	0.574323	-0.071266	-0.108966
Br678	Br	0.824323	0.178734	0.141034
Br679	Br	1.074323	0.428734	0.391034
Br680	Br	1.324323	0.678734	0.641034
Br681	Br	-0.064466	0.060383	-0.155231
Br682	Br	0.185534	0.310383	0.094769
Br683	Br	0.435534	0.560383	0.344769
Br684	Br	0.685534	0.810383	0.594769
H685	H	0.570252	-0.468083	-0.130135
H686	H	0.820252	-0.218083	0.119865
H687	H	1.070252	0.031917	0.369865
H688	H	1.320252	0.281917	0.619865
H689	H	0.517724	0.008964	0.125803
H690	H	0.767724	0.258964	0.375803
H691	H	1.017724	0.508964	0.625803
H692	H	1.267724	0.758964	0.875803
H693	H	0.652417	0.143704	0.531684
H694	H	0.902417	0.393704	0.781684
H695	H	1.152417	0.643704	1.031684
H696	H	1.402417	0.893704	1.281684
Br697	Br	-0.296430	0.058022	0.109108
Br698	Br	-0.046430	0.308022	0.359108
Br699	Br	0.203570	0.558022	0.609108
Br700	Br	0.453570	0.808022	0.859108
Br701	Br	0.569183	-0.573225	-0.155247
Br702	Br	0.819183	-0.323225	0.094753
Br703	Br	1.069183	-0.073225	0.344753
Br704	Br	1.319183	0.176775	0.594753
H705	H	0.100458	0.062064	-0.130130
H706	H	0.350458	0.312064	0.119870
H707	H	0.600458	0.562064	0.369870
H708	H	0.850458	0.812064	0.619870
Br709	Br	0.668182	0.159526	0.356946
Br710	Br	0.918182	0.409526	0.606946
Br711	Br	1.168182	0.659526	0.856946
Br712	Br	1.418182	0.909526	1.106946
H713	H	-0.191257	0.059092	-0.083861
H714	H	0.058743	0.309092	0.166139
H715	H	0.308743	0.559092	0.416139
H716	H	0.558743	0.809092	0.666139
Br717	Br	0.573045	-0.190137	0.109108
Br718	Br	0.823045	0.059863	0.359108
Br719	Br	1.073045	0.309863	0.609108
Br720	Br	1.323045	0.559863	0.859108
H721	H	0.623280	0.114602	0.125758
H722	H	0.873280	0.364602	0.375758
H723	H	1.123280	0.614602	0.625758
H724	H	1.373280	0.864602	0.875758
Br725	Br	0.205598	0.063132	-0.155244
Br726	Br	0.455598	0.313132	0.094756
Br727	Br	0.705598	0.563132	0.344756
Br728	Br	0.955598	0.813132	0.594756
H729	H	0.040627	0.061464	0.130245
H730	H	0.290627	0.311464	0.380245
H731	H	0.540627	0.561464	0.630245
H732	H	0.790627	0.811464	0.880245
H733	H	0.570864	-0.408295	-0.130131
H734	H	0.820864	-0.158295	0.119869
H735	H	1.070864	0.091705	0.369869
H736	H	1.320864	0.341705	0.619869
H737	H	0.571705	-0.316884	0.130242
H738	H	0.821705	-0.066884	0.380242
H739	H	1.071705	0.183116	0.630242
H740	H	1.321705	0.433116	0.880242
H741	H	0.567825	-0.700036	0.083967
H742	H	0.817825	-0.450036	0.333967
H743	H	1.067825	-0.200036	0.583967
H744	H	1.317825	0.049964	0.833967
Br745	Br	0.568025	-0.686313	-0.109004
Br746	Br	0.818025	-0.436313	0.140996
Br747	Br	1.068025	-0.186313	0.390996
Br748	Br	1.318025	0.063687	0.640996
H749	H	0.570177	-0.468134	0.130229
H750	H	0.820177	-0.218134	0.380229
H751	H	1.070177	0.031866	0.630229
H752	H	1.320177	0.281866	0.880229
