data_functionalizedCrystal
_audit_creation_method	'MofGen! by Chris Wilmer'
_symmetry_space_group_name_H-M	'P1'
_symmetry_Int_Tables_number	1
_symmetry_cell_setting	triclinic
loop_
_symmetry_equiv_pos_as_xyz
  x,y,z
_cell_length_a	18.215407
_cell_length_b	19.077114
_cell_length_c	18.215399
_cell_angle_alpha	92.270210
_cell_angle_beta	90.019833
_cell_angle_gamma	87.671157
loop_
_atom_site_label
_atom_site_type_symbol
_atom_site_fract_x
_atom_site_fract_y
_atom_site_fract_z
Zn1	Zn	1.113281	0.280200	0.427879
Zn2	Zn	1.108237	0.397902	0.309754
Zn3	Zn	0.990213	0.280223	0.304827
Zn4	Zn	0.985228	0.397863	0.432777
O5	O	1.049240	0.339047	0.368810
O6	O	1.215596	0.295821	0.412222
O7	O	1.092555	0.382318	0.206117
O8	O	1.010735	0.181729	0.317039
O9	O	1.211890	0.382295	0.325436
O10	O	1.101153	0.181712	0.407444
O11	O	1.005844	0.295860	0.202498
O12	O	0.886567	0.295822	0.321788
O13	O	1.002240	0.382229	0.535111
O14	O	0.882905	0.382251	0.415793
O15	O	1.096320	0.295783	0.531512
O16	O	1.087722	0.496388	0.330185
O17	O	0.997348	0.496359	0.420570
C18	C	0.858034	0.339035	0.368788
C19	C	0.776234	0.339047	0.368797
C20	C	0.586150	0.384121	0.417689
C21	C	0.509291	0.384124	0.417698
C22	C	0.513081	0.293986	0.319947
C23	C	0.589938	0.293980	0.319942
C24	C	0.626471	0.339052	0.368812
C25	C	0.472754	0.339060	0.368826
C26	C	0.389421	0.339062	0.368836
C27	C	0.709810	0.339050	0.368803
C28	C	1.041467	0.521911	0.376460
C29	C	1.038209	0.600141	0.379757
C30	C	1.083768	0.636886	0.334287
C31	C	1.080708	0.710391	0.337393
C32	C	1.032085	0.747151	0.385965
C33	C	0.986525	0.710401	0.431441
C34	C	0.989589	0.636897	0.428338
C35	C	1.017875	0.966985	0.400290
C36	C	1.014813	1.040495	0.403387
C37	C	1.108998	1.040479	0.309340
C38	C	1.112054	0.966974	0.306239
C39	C	1.066497	0.930231	0.351717
N40	N	1.028955	0.822285	0.389139
N41	N	1.069631	0.855098	0.348546
C42	C	1.241192	0.339060	0.368832
C43	C	1.322991	0.339065	0.368841
C44	C	1.049287	0.338999	0.560761
C45	C	1.049306	0.338978	0.642559
C46	C	1.057057	1.155469	0.361155
C47	C	1.060372	1.077239	0.357917
C48	C	1.049237	0.339045	0.177603
C49	C	1.049368	0.338867	0.095797
C50	C	1.098313	0.293923	0.828878
C51	C	1.098322	0.293903	0.905736
C52	C	1.000357	0.383924	0.909472
C53	C	1.000344	0.383940	0.832616
C54	C	1.049326	0.338941	0.792321
C55	C	1.049349	0.338904	0.946035
C56	C	1.049359	0.338882	1.029368
C57	C	1.049315	0.338962	0.708982
H58	H	0.615892	0.420820	0.457484
C59	C	1.130822	0.750806	0.287367
N60	N	1.168569	0.781247	0.249684
C61	C	0.961327	1.080929	0.456828
N62	N	0.921043	1.111384	0.497079
C63	C	0.946451	0.433464	0.792400
N64	N	0.905858	0.470761	0.762109
H65	H	0.483326	0.257291	0.280158
C66	C	1.152188	0.244417	0.784556
N67	N	1.192766	0.207125	0.751174
H68	H	0.960479	0.420562	0.942290
C69	C	0.967797	0.926578	0.450355
N70	N	0.930090	0.896140	0.488080
C71	C	0.464941	0.433710	0.471460
N72	N	0.431537	0.471062	0.511954
C73	C	0.634294	0.244399	0.266170
N74	N	0.667702	0.207054	0.225672
H75	H	1.123358	0.606961	0.294731
H76	H	1.151647	0.937045	0.266687
C77	C	0.939471	0.596479	0.478360
N78	N	0.901722	0.566037	0.516039
C79	C	1.159110	1.080902	0.259320
N80	N	1.196859	1.111349	0.221644
C81	C	0.933036	0.750840	0.484869
N82	N	0.892745	0.781297	0.525109
H83	H	1.138211	0.257244	0.935498
