data_functionalizedCrystal
_audit_creation_method	'MofGen! by Chris Wilmer'
_symmetry_space_group_name_H-M	'P1'
_symmetry_Int_Tables_number	1
_symmetry_cell_setting	triclinic
loop_
_symmetry_equiv_pos_as_xyz
  x,y,z
_cell_length_a	21.395364
_cell_length_b	12.759400
_cell_length_c	21.395355
_cell_angle_alpha	89.987271
_cell_angle_beta	89.975448
_cell_angle_gamma	90.028117
loop_
_atom_site_label
_atom_site_type_symbol
_atom_site_fract_x
_atom_site_fract_y
_atom_site_fract_z
Zn1	Zn	0.957936	-0.417969	-0.354287
Zn2	Zn	0.957870	-0.593633	-0.249520
Zn3	Zn	0.853151	-0.418015	-0.249523
Zn4	Zn	0.853152	-0.593652	-0.354260
O5	O	0.905527	-0.505817	-0.301897
O6	O	1.045605	-0.441244	-0.340399
O7	O	0.943951	-0.570349	-0.161842
O8	O	0.867077	-0.270988	-0.263433
O9	O	1.045557	-0.570304	-0.263427
O10	O	0.944062	-0.270954	-0.340402
O11	O	0.867014	-0.441322	-0.161845
O12	O	0.765473	-0.441341	-0.263407
O13	O	0.867079	-0.570336	-0.441941
O14	O	0.765474	-0.570381	-0.340357
O15	O	0.944064	-0.441262	-0.441961
O16	O	0.943952	-0.740657	-0.263401
O17	O	0.867016	-0.740671	-0.340353
C18	C	0.742739	-0.505868	-0.301880
C19	C	0.673098	-0.505916	-0.301887
C20	C	0.640432	-0.438824	-0.342028
C21	C	0.574997	-0.438796	-0.342031
C22	C	0.542230	-0.505878	-0.301899
C23	C	0.574903	-0.572975	-0.261750
C24	C	0.640338	-0.572993	-0.261744
C25	C	0.438523	-0.600493	-0.296867
C26	C	0.373090	-0.600476	-0.296877
C27	C	0.340409	-0.505821	-0.301913
C28	C	0.373169	-0.411179	-0.306951
C29	C	0.438604	-0.411197	-0.306946
C30	C	0.471277	-0.505865	-0.301900
C31	C	0.236791	-0.438693	-0.342058
C32	C	0.171354	-0.438663	-0.342056
C33	C	0.171262	-0.572851	-0.261779
C34	C	0.236697	-0.572872	-0.261777
C35	C	0.269458	-0.505794	-0.301921
C36	C	0.905494	-0.778785	-0.301888
C37	C	0.905537	-0.895561	-0.301904
C38	C	0.945603	-0.950326	-0.342015
C39	C	0.945633	-1.060050	-0.342030
C40	C	0.865528	-1.060235	-0.261819
C41	C	0.865496	-0.950513	-0.261807
C42	C	0.985645	-0.895374	-0.382112
C43	C	1.025715	-0.950139	-0.422225
C44	C	1.025744	-1.059863	-0.422241
C45	C	0.985703	-1.114822	-0.382143
C46	C	1.068950	-0.505767	-0.301915
C47	C	1.138592	-0.505745	-0.301923
C48	C	0.905579	-0.505796	-0.465321
C49	C	0.905601	-0.505787	-0.534962
C50	C	0.905577	-0.231784	-0.301921
C51	C	0.905598	-0.115007	-0.301931
C52	C	0.945685	-0.438575	-0.567686
C53	C	0.945684	-0.438530	-0.633122
C54	C	0.905606	-0.505715	-0.665830
C55	C	0.865514	-0.572932	-0.633098
C56	C	0.865512	-0.572967	-0.567664
C57	C	0.900647	-0.600316	-0.769502
C58	C	0.900654	-0.600282	-0.834935
C59	C	0.905610	-0.505604	-0.867651
C60	C	0.910572	-0.410957	-0.834927
C61	C	0.910569	-0.410993	-0.769493
C62	C	0.905604	-0.505684	-0.736783
C63	C	0.945695	-0.438338	-0.971328
C64	C	0.945690	-0.438291	-1.036765
C65	C	0.865523	-0.572702	-1.036740
C66	C	0.865525	-0.572739	-0.971305
C67	C	0.905614	-0.505559	-0.938603
C68	C	0.905511	-0.505763	-0.139110
C69	C	0.905610	-0.505476	-0.069469
H70	H	0.144759	-0.384023	-0.374743
H71	H	0.263466	-0.384068	-0.374742
H72	H	0.667102	-0.384203	-0.374716
N73	N	0.822352	-1.119505	-0.218564
H74	H	0.777573	-1.100484	-0.228249
H75	H	0.828507	-1.197305	-0.224676
H76	H	1.058311	-0.905386	-0.454876
H77	H	0.985723	-1.204167	-0.382166
H78	H	0.832884	-0.627395	-1.063371
N79	N	1.068939	-1.118934	-0.465522
H80	H	1.094293	-1.067470	-0.490925
H81	H	1.097963	-1.164446	-0.440065
H82	H	0.666934	-0.627629	-0.229055
H83	H	0.832870	-0.905923	-0.229146
H84	H	0.978328	-0.383870	-0.541065
N85	N	0.988940	-0.365889	-0.936059
H86	H	1.017968	-0.408609	-0.908936
H87	H	1.014288	-0.323325	-0.966768
H88	H	0.978324	-0.383793	-0.659771
N89	N	0.915923	-0.308920	-0.734196
H90	H	0.919065	-0.248932	-0.764846
H91	H	0.877749	-0.299191	-0.707030
N92	N	0.915923	-0.308831	-0.870203
H93	H	0.915170	-0.323165	-0.916621
H94	H	0.879701	-0.261875	-0.858746
H95	H	0.985627	-0.806032	-0.382103
N96	N	0.822281	-0.645231	-0.936015
H97	H	0.831991	-0.720291	-0.947410
H98	H	0.828371	-0.634975	-0.889610
H99	H	0.978330	-0.383553	-1.063408
H100	H	0.896618	-0.677350	-0.861574
H101	H	0.832868	-0.627698	-0.541020
N102	N	0.895310	-0.702441	-0.734217
H103	H	0.892177	-0.762392	-0.764875
H104	H	0.933488	-0.712185	-0.707089
H105	H	0.832880	-0.627631	-0.659734
N106	N	0.473943	-0.309133	-0.312372
H107	H	0.462595	-0.273472	-0.352957
H108	H	0.462544	-0.262104	-0.276160
H109	H	0.346562	-0.334101	-0.311052
N110	N	0.539754	-0.366430	-0.385327
H111	H	0.570437	-0.323939	-0.410755
H112	H	0.512604	-0.409270	-0.414278
N113	N	0.337758	-0.702547	-0.291442
H114	H	0.368388	-0.762513	-0.288242
H115	H	0.310590	-0.700922	-0.252841
N116	N	0.135930	-0.645198	-0.218487
H117	H	0.089520	-0.635005	-0.224579
H118	H	0.147341	-0.720261	-0.228160
H119	H	0.263294	-0.627509	-0.229093
H120	H	0.465126	-0.677579	-0.292765
H121	H	0.548220	-0.627593	-0.229073
