data_functionalizedCrystal
_audit_creation_method	'MofGen! by Chris Wilmer'
_symmetry_space_group_name_H-M	'P1'
_symmetry_Int_Tables_number	1
_symmetry_cell_setting	triclinic
loop_
_symmetry_equiv_pos_as_xyz
  x,y,z
_cell_length_a	15.944551
_cell_length_b	14.519709
_cell_length_c	13.596369
_cell_angle_alpha	90.006778
_cell_angle_beta	89.998652
_cell_angle_gamma	96.410558
loop_
_atom_site_label
_atom_site_type_symbol
_atom_site_fract_x
_atom_site_fract_y
_atom_site_fract_z
O1	O	1.114698	-0.118943	-0.081691
O2	O	1.614698	0.381057	0.418309
O3	O	0.870170	-0.133607	-0.081716
O4	O	1.370170	0.366393	0.418284
O5	O	0.998917	0.007975	-0.081694
O6	O	1.498917	0.507975	0.418306
O7	O	0.985951	-0.260525	-0.081713
O8	O	1.485951	0.239475	0.418287
O9	O	0.998903	0.007982	0.081889
O10	O	1.498903	0.507982	0.581889
O11	O	0.870156	-0.133600	0.081867
O12	O	1.370156	0.366400	0.581867
O13	O	1.114684	-0.118936	0.081892
O14	O	1.614684	0.381064	0.581892
Zn15	Zn	0.992418	-0.126267	0.107852
Zn16	Zn	1.492418	0.373733	0.607852
Zn17	Zn	0.992436	-0.126276	-0.107676
Zn18	Zn	1.492436	0.373724	0.392324
O19	O	0.985937	-0.260518	0.081870
O20	O	1.485937	0.239482	0.581870
C21	C	0.838868	-0.132995	0.000073
C22	C	1.338868	0.367005	0.500073
C23	C	0.745619	-0.131170	0.000064
C24	C	1.245619	0.368830	0.500064
C25	C	0.998306	0.042337	0.000098
C26	C	1.498306	0.542337	0.500098
C27	C	0.996495	0.144715	0.000098
C28	C	1.496495	0.644715	0.500098
N29	N	0.992411	-0.126260	0.254944
N30	N	1.492411	0.373740	0.754944
C31	C	0.530629	-0.039048	0.000089
C32	C	1.030629	0.460952	0.500089
C33	C	0.469678	-0.081830	-0.080569
C34	C	0.969678	0.418170	0.419431
C35	C	0.574889	-0.127868	0.000075
C36	C	1.074889	0.372132	0.500075
C37	C	0.469686	-0.081844	0.080711
C38	C	0.969686	0.418156	0.580711
C39	C	0.409971	-0.124672	0.000091
C40	C	0.909971	0.375328	0.500091
C41	C	0.515166	-0.170674	-0.080649
C42	C	1.015166	0.329326	0.419351
C43	C	0.515180	-0.170676	0.080703
C44	C	1.015180	0.329324	0.580703
C45	C	0.454247	-0.213522	0.000025
C46	C	0.954247	0.286478	0.500025
C47	C	0.669894	-0.129706	0.000065
C48	C	1.169894	0.370294	0.500065
C49	C	0.314967	-0.122840	0.000094
C50	C	0.814967	0.377160	0.500094
C51	C	1.145986	-0.119548	0.000101
C52	C	1.645986	0.380452	0.500101
C53	C	1.239235	-0.121373	0.000104
C54	C	1.739235	0.378627	0.500104
C55	C	0.986548	-0.294880	0.000076
C56	C	1.486548	0.205120	0.500076
C57	C	0.988359	-0.397258	0.000070
C58	C	1.488359	0.102742	0.500070
C59	C	0.989829	0.519599	0.000072
C60	C	1.489829	1.019599	0.500072
C61	C	0.991680	0.415295	0.000080
C62	C	1.491680	0.915295	0.500080
C63	C	0.993162	0.332161	0.000086
C64	C	1.493162	0.832161	0.500086
C65	C	0.995013	0.227849	0.000092
C66	C	1.495013	0.727849	0.500092
C67	C	0.992429	-0.126280	0.656235
C68	C	1.492429	0.373720	1.156235
C69	C	0.992422	-0.126277	0.544583
C70	C	1.492422	0.373723	1.044583
C71	C	0.992420	-0.126271	0.455593
C72	C	1.492420	0.373729	0.955593
C73	C	0.992412	-0.126267	0.343934
C74	C	1.492412	0.373733	0.843934
N75	N	0.992442	-0.126279	0.745233
N76	N	1.492442	0.373721	1.245233
H77	H	0.449519	-0.044266	-0.148754
H78	H	0.949519	0.455734	0.351246
N79	N	0.540295	-0.217757	-0.166304
N80	N	1.040295	0.282243	0.333696
N81	N	0.486105	-0.249931	-0.227302
N82	N	0.986105	0.250069	0.272698
H83	H	0.503853	-0.283180	-0.287797
H84	H	1.003853	0.216820	0.212203
H85	H	0.421196	-0.287311	-0.000025
H86	H	0.921196	0.212689	0.499975
N87	N	0.540492	-0.217756	0.166251
N88	N	1.040492	0.282244	0.666251
N89	N	0.526167	-0.187480	0.249940
N90	N	1.026167	0.312520	0.749940
H91	H	0.544044	-0.220724	0.310367
H92	H	1.044044	0.279276	0.810367
N93	N	0.444414	-0.034684	0.166245
N94	N	0.944414	0.465316	0.666245
N95	N	0.472066	0.048206	0.180599
N96	N	0.972066	0.548206	0.680599
H97	H	0.454220	0.081520	0.241003
H98	H	0.954220	0.581520	0.741003
H99	H	0.563855	0.034665	-0.000005
H100	H	1.063855	0.534665	0.499995
