data_functionalizedCrystal
_audit_creation_method	'MofGen! by Chris Wilmer'
_symmetry_space_group_name_H-M	'P1'
_symmetry_Int_Tables_number	1
_symmetry_cell_setting	triclinic
loop_
_symmetry_equiv_pos_as_xyz
  x,y,z
_cell_length_a	15.995350
_cell_length_b	15.995350
_cell_length_c	15.072220
_cell_angle_alpha	89.998899
_cell_angle_beta	89.991149
_cell_angle_gamma	96.507625
loop_
_atom_site_label
_atom_site_type_symbol
_atom_site_fract_x
_atom_site_fract_y
_atom_site_fract_z
O1	O	1.110996	-0.107921	-0.073703
O2	O	0.867221	-0.121249	-0.073721
O3	O	0.995772	0.007303	-0.073710
O4	O	0.982444	-0.236472	-0.073713
O5	O	0.995740	0.007296	0.073855
O6	O	0.867189	-0.121256	0.073844
O7	O	1.110964	-0.107928	0.073862
Zn8	Zn	0.989071	-0.114593	0.097283
Zn9	Zn	0.989113	-0.114584	-0.097141
O10	O	0.982413	-0.236480	0.073852
C11	C	0.836010	-0.120701	0.000060
C12	C	0.743060	-0.119049	0.000053
C13	C	0.995205	0.038494	0.000070
C14	C	0.993553	0.131444	0.000065
C15	C	0.405312	-0.113117	0.000071
C16	C	0.452746	-0.021565	0.000401
C17	C	0.549436	-0.023217	0.000063
C18	C	0.572873	-0.116060	0.000063
C19	C	0.531804	-0.161212	-0.084201
C20	C	0.435168	-0.158912	-0.084266
C21	C	0.434793	-0.160812	0.083543
C22	C	0.531738	-0.160790	0.084651
C23	C	0.667570	-0.117727	0.000055
C24	C	0.310614	-0.111452	0.000073
C25	C	1.142175	-0.108476	0.000080
C26	C	1.235125	-0.110127	0.000081
C27	C	0.982980	-0.267671	0.000069
C28	C	0.984631	-0.360621	0.000069
N29	N	0.989049	-0.114599	0.229971
C30	C	0.987621	0.469192	0.000068
C31	C	0.896069	0.421758	-0.000270
C32	C	0.897721	0.325068	0.000063
C33	C	0.990564	0.301631	0.000066
C34	C	1.035702	0.342705	0.084335
C35	C	1.033402	0.439341	0.084405
C36	C	1.035330	0.439707	-0.083404
C37	C	1.035308	0.342761	-0.084518
C38	C	0.992231	0.206934	0.000068
C39	C	0.985956	0.563890	0.000072
N40	N	0.989142	-0.114571	-0.229830
C41	C	0.989112	-0.114580	0.589173
C42	C	0.920095	-0.183135	0.551560
C43	C	0.920254	-0.183385	0.448735
C44	C	0.989080	-0.114590	0.410969
C45	C	1.076445	-0.133671	0.448266
C46	C	1.076058	-0.134159	0.551124
C47	C	0.971542	-0.026741	0.551272
C48	C	0.969537	-0.027327	0.448409
C49	C	0.989067	-0.114593	0.310255
C50	C	0.989130	-0.114579	0.689886
H51	H	0.434211	0.015027	0.060830
H52	H	0.414244	-0.130885	0.147414
H53	H	1.100617	0.471588	0.088231
H54	H	1.102831	0.471468	-0.083968
H55	H	1.002306	0.315516	-0.146857
O56	O	0.994144	0.305107	0.167400
H57	H	0.969691	0.355521	0.207058
O58	O	0.995700	0.466906	-0.168013
H59	H	0.941552	0.501748	-0.151511
O60	O	1.097440	-0.217565	0.414144
H61	H	1.156983	-0.208286	0.375739
O62	O	0.989765	0.463591	0.167836
H63	H	0.924677	0.431089	0.169305
O64	O	1.126050	0.323990	0.088507
H65	H	1.139770	0.285119	0.030426
O66	O	0.392711	-0.250219	0.084310
H67	H	0.410011	-0.282972	0.023207
H68	H	0.862238	0.296649	-0.060344
O69	O	0.587077	0.023788	0.080080
H70	H	0.572455	0.089944	0.077594
O71	O	1.096568	-0.219012	0.582897
H72	H	1.043519	-0.249259	0.623314
O73	O	0.586366	0.024113	-0.080090
H74	H	0.535152	0.048264	-0.118766
O75	O	1.124995	0.322421	-0.091262
H76	H	1.160610	0.346764	-0.031699
O77	O	0.935114	-0.269726	0.416117
H78	H	0.996746	-0.285414	0.441029
H79	H	0.433165	0.014865	-0.059694
O80	O	1.038158	0.040868	0.583528
H81	H	1.071765	0.071753	0.525715
O82	O	0.567885	-0.117129	0.167233
H83	H	0.598668	-0.162453	0.208290
H84	H	0.855314	-0.172016	0.423519
O85	O	0.552089	-0.250472	0.091407
H86	H	0.592011	-0.264629	0.034321
H87	H	0.416873	-0.125979	-0.147255
O88	O	0.934753	-0.268995	0.585779
H89	H	0.878879	-0.296180	0.624033
O90	O	0.833793	-0.168344	0.584363
H91	H	0.839163	-0.111976	0.627829
H92	H	0.560191	-0.129845	-0.146912
H93	H	1.129019	-0.086195	0.576003
O94	O	1.146107	-0.069297	0.415866
H95	H	1.119135	-0.022912	0.372728
O96	O	0.550503	-0.251566	-0.088361
H97	H	0.585317	-0.261752	-0.150420
O98	O	0.888974	-0.002439	0.585657
H99	H	0.837103	-0.050526	0.565046
O100	O	0.847607	0.446325	-0.080306
H101	H	0.880465	0.429810	-0.141642
O102	O	0.847791	0.447689	0.079330
H103	H	0.888719	0.494214	0.119133
O104	O	1.031796	0.043418	0.414361
H105	H	1.016188	0.104054	0.442043
H106	H	0.905271	-0.012846	0.424032
O107	O	0.392437	-0.247939	-0.089341
H108	H	0.411864	-0.278026	-0.151226
O109	O	0.850389	0.288144	0.080218
H110	H	0.826235	0.339360	0.118898
