data_functionalizedCrystal
_audit_creation_method	'MofGen! by Chris Wilmer'
_symmetry_space_group_name_H-M	'P1'
_symmetry_Int_Tables_number	1
_symmetry_cell_setting	triclinic
loop_
_symmetry_equiv_pos_as_xyz
  x,y,z
_cell_length_a	16.120490
_cell_length_b	16.120444
_cell_length_c	16.120297
_cell_angle_alpha	95.615117
_cell_angle_beta	90.129683
_cell_angle_gamma	90.165174
loop_
_atom_site_label
_atom_site_type_symbol
_atom_site_fract_x
_atom_site_fract_y
_atom_site_fract_z
Zn1	Zn	1.224982	-0.422332	-0.554792
Zn2	Zn	1.224875	-0.555017	-0.422098
Zn3	Zn	1.093721	-0.408241	-0.408037
Zn4	Zn	1.078872	-0.554241	-0.554034
O5	O	1.155613	-0.484958	-0.484740
O6	O	1.341004	-0.446155	-0.543392
O7	O	1.213647	-0.529974	-0.303600
O8	O	1.117393	-0.293479	-0.421937
O9	O	1.340925	-0.543638	-0.445902
O10	O	1.213829	-0.303832	-0.529757
O11	O	1.117289	-0.422138	-0.293270
O12	O	0.975716	-0.421386	-0.421202
O13	O	1.092084	-0.542316	-0.670767
O14	O	0.964806	-0.528652	-0.528465
O15	O	1.199431	-0.445403	-0.671324
O16	O	1.199248	-0.671545	-0.445167
O17	O	1.091980	-0.670975	-0.542100
C18	C	0.940174	-0.473407	-0.473226
C19	C	0.848006	-0.468486	-0.468321
C20	C	1.144013	-0.701503	-0.495097
C21	C	1.139125	-0.794147	-0.499559
C22	C	1.181163	-1.005308	-0.461782
C23	C	1.130215	-0.963765	-0.507716
C24	C	1.135174	-0.869381	-0.503176
C25	C	1.176206	-1.099701	-0.466320
C26	C	0.632811	-0.510476	-0.510185
C27	C	0.679259	-0.459510	-0.459365
C28	C	0.773158	-0.464506	-0.464350
C29	C	0.538902	-0.505481	-0.505201
C30	C	1.371893	-0.496555	-0.496300
C31	C	1.464058	-0.501497	-0.501226
C32	C	1.144113	-0.495345	-0.702133
C33	C	1.139212	-0.499771	-0.794773
C34	C	1.167279	-0.267569	-0.474363
C35	C	1.172251	-0.174931	-0.469941
C36	C	1.130236	-0.507833	-0.964384
C37	C	1.181166	-0.461842	-1.005945
C38	C	1.176172	-0.466327	-1.100323
C39	C	1.135229	-0.503348	-0.869998
C40	C	1.167119	-0.474554	-0.268193
C41	C	1.172192	-0.469901	-0.175551
H42	H	1.082873	-0.999085	-0.550451
O43	O	0.669590	-0.566899	-0.566589
C44	C	0.760951	-0.588777	-0.684760
C45	C	0.719354	-0.524789	-0.620926
H46	H	0.801181	-0.554754	-0.728719
H47	H	0.801254	-0.632565	-0.650653
H48	H	0.711156	-0.626387	-0.722203
H49	H	0.769093	-0.487120	-0.583466
H50	H	0.679033	-0.481057	-0.655083
H51	H	1.228501	-0.969992	-0.419049
O52	O	0.642682	-0.403023	-0.402868
C53	C	0.625617	-0.354245	-0.257808
C54	C	0.667105	-0.418247	-0.321707
H55	H	0.645332	-0.366542	-0.192174
H56	H	0.645422	-0.288633	-0.270142
H57	H	0.555325	-0.360215	-0.263805
H58	H	0.737401	-0.412353	-0.315746
H59	H	0.647233	-0.483833	-0.309353
O60	O	1.237581	-0.410726	-0.963875
C61	C	1.286875	-0.269869	-0.932472
C62	C	1.222924	-0.327657	-0.980143
H63	H	1.275058	-0.202698	-0.945621
H64	H	1.280900	-0.275209	-0.862739
H65	H	1.352055	-0.288933	-0.953811
H66	H	1.157716	-0.308632	-0.958875
H67	H	1.228973	-0.322310	-1.049867
O68	O	1.073822	-0.558810	-1.006619
C69	C	1.017302	-0.609750	-1.140564
C70	C	1.081238	-0.551997	-1.092825
H71	H	1.023264	-0.604249	-1.210268
H72	H	1.029144	-0.676963	-1.127571
H73	H	0.952119	-0.590749	-1.119180
H74	H	1.146447	-0.570923	-1.114180
H75	H	1.069324	-0.484798	-1.105819
