data_functionalizedCrystal
_audit_creation_method	'MofGen! by Chris Wilmer'
_symmetry_space_group_name_H-M	'P1'
_symmetry_Int_Tables_number	1
_symmetry_cell_setting	triclinic
loop_
_symmetry_equiv_pos_as_xyz
  x,y,z
_cell_length_a	11.169417
_cell_length_b	11.169416
_cell_length_c	17.077383
_cell_angle_alpha	90.081675
_cell_angle_beta	89.944336
_cell_angle_gamma	89.987040
loop_
_atom_site_label
_atom_site_type_symbol
_atom_site_fract_x
_atom_site_fract_y
_atom_site_fract_z
Zn1	Zn	1.835372	0.477043	-0.443825
Zn2	Zn	1.835130	0.677972	-0.312579
Zn3	Zn	1.634533	0.477305	-0.312580
Zn4	Zn	1.634660	0.677685	-0.443810
O5	O	1.734924	0.577501	-0.378198
O6	O	2.003290	0.503707	-0.426420
O7	O	1.808366	0.651583	-0.202732
O8	O	1.661223	0.309320	-0.329996
O9	O	2.003112	0.651329	-0.329995
O10	O	1.808779	0.309128	-0.426421
O11	O	1.660988	0.504153	-0.202732
O12	O	1.466600	0.503875	-0.329982
O13	O	1.661439	0.650840	-0.553659
O14	O	1.466693	0.651094	-0.426397
O15	O	1.808902	0.503428	-0.553670
O16	O	1.808489	0.845884	-0.329981
O17	O	1.661204	0.845673	-0.426396
C18	C	1.423099	0.577483	-0.378188
C19	C	1.289699	0.577504	-0.378203
C20	C	1.734867	0.889326	-0.378204
C21	C	1.734952	1.022726	-0.378232
C22	C	2.047966	0.577520	-0.378209
C23	C	2.181366	0.577528	-0.378213
C24	C	1.735212	0.577073	-0.582943
C25	C	1.735334	0.576891	-0.670193
C26	C	1.735005	1.264459	-0.378221
C27	C	1.735018	1.131059	-0.378257
C28	C	1.734706	0.577841	-0.174250
C29	C	1.734816	0.577685	-0.087000
C30	C	1.811498	0.499663	0.288596
C31	C	1.811391	0.499813	0.206616
C32	C	1.735127	0.577198	0.165848
C33	C	1.658956	0.654429	0.207064
C34	C	1.659057	0.654272	0.289043
C35	C	1.658752	0.654754	0.036195
C36	C	1.658653	0.654913	-0.045790
C37	C	1.811087	0.500295	-0.046233
C38	C	1.811188	0.500138	0.035746
C39	C	1.735018	0.577371	0.076957
H40	H	1.873605	0.436650	0.321784
F41	F	1.892496	0.417658	0.162760
H42	H	1.597025	0.717147	0.322596
H43	H	1.596707	0.717627	0.069746
H44	H	1.873296	0.437131	0.068937
F45	F	1.577474	0.737265	-0.089177
F46	F	1.892155	0.418098	-0.090093
H47	H	1.596856	0.717433	0.173864
