data_functionalizedCrystal
_audit_creation_method	'MofGen! by Chris Wilmer'
_symmetry_space_group_name_H-M	'P1'
_symmetry_Int_Tables_number	1
_symmetry_cell_setting	triclinic
loop_
_symmetry_equiv_pos_as_xyz
  x,y,z
_cell_length_a	14.560438
_cell_length_b	14.560438
_cell_length_c	14.560438
_cell_angle_alpha	90.000931
_cell_angle_beta	60.006620
_cell_angle_gamma	60.000156
loop_
_atom_site_label
_atom_site_type_symbol
_atom_site_fract_x
_atom_site_fract_y
_atom_site_fract_z
Zr1	Zr	1.005210	0.884789	-0.120388
O2	O	1.196795	0.738147	-0.267007
O3	O	0.813625	0.929737	-0.075461
O4	O	1.005213	0.929740	-0.267037
O5	O	1.005204	0.738148	0.075710
O6	O	1.005216	1.080878	-0.267038
O7	O	1.005207	0.738144	-0.075430
O8	O	0.662500	1.080873	0.075657
O9	O	1.347920	0.738153	-0.266985
O10	O	0.892429	1.061706	-0.056277
O11	O	0.892425	0.948917	0.056519
O12	O	1.117995	0.948920	-0.169038
O13	O	1.117991	0.836130	-0.056242
Zr14	Zr	1.005211	1.125843	0.120662
Zr15	Zr	1.005215	1.125837	-0.120390
Zr16	Zr	1.005206	0.884795	0.120664
Zr17	Zr	1.246238	0.884799	-0.120352
Zr18	Zr	0.764183	1.125833	0.120627
O19	O	1.196795	1.080895	0.075735
O20	O	1.196801	1.080886	-0.267010
O21	O	1.196789	0.738156	0.075738
O22	O	0.813626	1.272485	0.267281
O23	O	0.813632	1.272476	-0.075464
O24	O	0.813620	0.929746	0.267285
O25	O	1.005217	1.272484	-0.075436
O26	O	1.005207	1.080892	0.267311
O27	O	1.005204	0.929754	0.267313
O28	O	1.005214	1.272488	0.075705
O29	O	1.347924	0.929754	-0.266986
O30	O	0.662497	1.080878	0.267261
O31	O	0.662501	1.272479	0.267259
O32	O	0.662504	1.272474	0.075655
O33	O	1.347917	0.738158	-0.075380
O34	O	1.347920	0.929759	-0.075382
O35	O	0.892425	1.061712	0.169312
O36	O	0.892429	1.174502	0.056516
O37	O	1.117996	1.061715	-0.056244
O38	O	1.117992	0.948926	0.056552
C39	C	0.703722	1.005304	0.000093
C40	C	0.601399	1.005300	0.000078
C41	C	0.636525	0.922041	-0.083143
C42	C	0.540336	0.922059	-0.083086
C43	C	0.373896	1.088599	0.083422
C44	C	0.470084	1.088585	0.083360
C45	C	0.732618	0.825888	-0.179272
C46	C	0.636429	0.825906	-0.179216
C47	C	1.005205	0.703802	0.000140
C48	C	1.005203	0.601471	0.000141
C49	C	1.005199	0.553401	0.083409
C50	C	1.005211	0.457243	0.083403
C51	C	1.005225	0.457235	-0.083143
C52	C	1.005222	0.553387	-0.083140
C53	C	1.005186	0.553408	0.179565
C54	C	1.005198	0.457250	0.179559
C55	C	1.306699	1.005328	0.000181
C56	C	1.409022	1.005332	0.000196
C57	C	1.005215	1.005308	-0.301382
C58	C	1.005217	1.005306	-0.403715
C59	C	1.005216	1.306830	0.000134
C60	C	1.005218	1.409161	0.000133
C61	C	1.122958	0.946433	-0.510651
C62	C	1.122952	0.946447	-0.606800
C63	C	0.887453	1.064206	-0.489063
C64	C	0.887461	1.064198	-0.392917
C65	C	1.005205	1.005324	0.301657
C66	C	1.005204	1.005326	0.403990
C67	C	0.703727	1.306818	0.000090
C68	C	0.601407	1.409145	0.000074
C69	C	0.703716	1.005312	0.301612
C70	C	0.601392	1.005310	0.403930
C71	C	0.703722	1.306826	0.301609
C72	C	0.601400	1.409155	0.403926
C73	C	1.306699	0.703806	-0.301335
C74	C	1.409021	0.601477	-0.403652
C75	C	1.306693	0.703814	0.000184
C76	C	1.409014	0.601487	0.000201
C77	C	1.306704	1.005320	-0.301338
C78	C	1.409028	1.005322	-0.403656
C79	C	0.553333	1.398343	-0.058808
C80	C	0.457200	1.494494	-0.058827
C81	C	0.457218	1.612245	0.058927
C82	C	0.553356	1.516096	0.058939
C83	C	0.553318	1.064186	0.510877
C84	C	0.457183	1.064172	0.607011
C85	C	0.457200	0.946404	0.489240
C86	C	0.553340	0.946412	0.393108
C87	C	0.553328	1.516105	0.393120
C88	C	0.457194	1.612251	0.489261
C89	C	0.457207	1.494483	0.607013
C90	C	0.553346	1.398340	0.510872
H91	H	0.792290	0.749419	-0.162476
H92	H	0.418069	1.485691	0.694097
F93	F	0.762138	1.126860	-0.279097
H94	H	1.095550	0.534320	0.171343
H95	H	0.418062	0.898453	0.480442
H96	H	0.795595	0.834162	-0.261405
F97	F	0.762136	1.126873	-0.477582
H98	H	0.441472	1.156391	0.151117
H99	H	0.592490	1.311250	0.519680
F100	F	0.650555	0.718585	-0.168353
H101	H	0.592444	1.112140	0.519695
F102	F	0.604513	0.883738	0.279277
H103	H	0.592453	1.524917	0.306043
F104	F	0.406044	1.482990	-0.121500
F105	F	0.883280	0.653346	0.279497
H106	H	0.418081	1.699334	0.106854
H107	H	1.098464	0.380798	0.162776
H108	H	1.218843	0.898479	-0.519450
F109	F	0.887044	0.482212	0.286869
H110	H	0.266970	1.156406	0.151227
F111	F	0.636384	0.847855	-0.279151
F112	F	1.248269	0.883789	-0.720609
H113	H	0.592465	1.311263	-0.106751
F114	F	0.406039	1.726074	0.477752
H115	H	0.592501	1.524899	0.106888
H116	H	0.418047	1.112114	0.694089
F117	F	1.005249	0.604534	-0.171774
F118	F	1.005248	0.406053	-0.171773
