data_functionalizedCrystal
_audit_creation_method	'MofGen! by Chris Wilmer'
_symmetry_space_group_name_H-M	'P1'
_symmetry_Int_Tables_number	1
_symmetry_cell_setting	triclinic
loop_
_symmetry_equiv_pos_as_xyz
  x,y,z
_cell_length_a	15.944551
_cell_length_b	15.944551
_cell_length_c	16.053802
_cell_angle_alpha	87.423060
_cell_angle_beta	87.429376
_cell_angle_gamma	96.501262
loop_
_atom_site_label
_atom_site_type_symbol
_atom_site_fract_x
_atom_site_fract_y
_atom_site_fract_z
O1	O	-0.104801	1.118063	-0.069333
O2	O	-0.118156	0.873514	-0.069353
O3	O	0.010797	1.002467	-0.069347
O4	O	-0.233753	0.989110	-0.069338
O5	O	0.003728	0.995369	0.069511
O6	O	-0.125225	0.866416	0.069506
O7	O	-0.111869	1.110965	0.069526
Zn8	Zn	-0.119669	0.987563	0.091563
Zn9	Zn	-0.110356	0.996915	-0.091390
O10	O	-0.240822	0.982012	0.069520
C11	C	-0.121136	0.838671	0.000074
C12	C	-0.119473	0.745426	0.000066
C13	C	-0.035569	0.530568	0.000079
C14	C	-0.071046	0.473048	-0.068384
C15	C	-0.116466	0.574699	0.000076
C16	C	-0.078035	0.466072	0.068520
C17	C	-0.113556	0.409786	0.000089
C18	C	-0.151963	0.518410	-0.068444
C19	C	-0.158943	0.511437	0.068521
C20	C	-0.194478	0.453935	0.000041
C21	C	-0.118140	0.669702	0.000068
C22	C	-0.111888	0.314785	0.000091
C23	C	-0.268582	0.986115	0.000092
C24	C	-0.361828	0.987778	0.000096
C25	C	-0.576684	1.071682	0.000090
C26	C	-0.641186	1.029220	0.068552
C27	C	-0.532553	0.990785	0.000089
C28	C	-0.634202	1.036199	-0.068352
C29	C	-0.697466	0.993696	0.000078
C30	C	-0.595829	0.948298	0.068607
C31	C	-0.588836	0.955292	-0.068358
C32	C	-0.653321	0.912770	0.000121
C33	C	-0.437551	0.989110	0.000095
C34	C	-0.792467	0.995365	0.000077
C35	C	0.038557	0.998363	0.000079
C36	C	0.131803	0.996702	0.000070
C37	C	-0.108889	1.145808	0.000097
C38	C	-0.110552	1.239054	0.000100
N39	N	-0.126025	0.981187	0.216423
N40	N	-0.103994	1.003298	-0.216250
C41	C	-0.071175	1.036077	0.260119
C42	C	-0.075628	1.031624	0.347525
C43	C	-0.134937	0.972286	0.391234
C44	C	-0.189789	0.917390	0.347532
C45	C	-0.185331	0.921839	0.260127
C46	C	-0.154388	0.952852	0.652643
C47	C	-0.158844	0.948409	0.740054
C48	C	-0.044681	1.062642	0.740042
C49	C	-0.040232	1.067089	0.652635
C50	C	-0.095081	1.012191	0.608940
N51	N	-0.139493	0.967735	0.480578
N52	N	-0.090521	1.016738	0.519598
H53	H	-0.543382	1.138828	0.000163
O54	O	-0.193339	0.548790	-0.145207
H55	H	-0.157060	0.533075	-0.201904
H56	H	-0.261683	0.420778	0.000005
O57	O	-0.208128	0.534207	0.145192
H58	H	-0.177303	0.513365	0.201944
H59	H	0.031573	0.563906	-0.000008
O60	O	-0.671739	1.070618	0.145224
H61	H	-0.640748	1.136569	0.145089
H62	H	-0.033884	0.455896	-0.126267
H63	H	-0.046750	0.443027	0.126398
O64	O	-0.573267	0.899097	0.145368
H65	H	-0.503728	0.898284	0.144788
H66	H	-0.000025	1.107337	0.775626
H67	H	-0.686481	0.845561	0.000154
H68	H	-0.229995	0.877142	0.224550
H69	H	-0.565761	0.924063	-0.126246
H70	H	-0.651346	1.073389	-0.126228
H71	H	-0.022883	1.084400	0.224537
H72	H	-0.030965	1.076319	0.383103
O73	O	0.023744	1.131083	0.605491
H74	H	0.061143	1.168498	0.650561
H75	H	-0.199050	0.908153	0.617074
H76	H	-0.207143	0.900085	0.775638
H77	H	-0.238077	0.869071	0.383124
