data_functionalizedCrystal
_audit_creation_method	'MofGen! by Chris Wilmer'
_symmetry_space_group_name_H-M	'P1'
_symmetry_Int_Tables_number	1
_symmetry_cell_setting	triclinic
loop_
_symmetry_equiv_pos_as_xyz
  x,y,z
_cell_length_a	15.538191
_cell_length_b	10.654550
_cell_length_c	9.130313
_cell_angle_alpha	89.996220
_cell_angle_beta	90.002806
_cell_angle_gamma	65.878499
loop_
_atom_site_label
_atom_site_type_symbol
_atom_site_fract_x
_atom_site_fract_y
_atom_site_fract_z
O1	O	0.131911	1.606169	-0.121900
O2	O	0.144479	1.234815	-0.121874
O3	O	0.001538	1.492779	-0.121899
O4	O	0.274853	1.348205	-0.121875
O5	O	0.001542	1.492775	0.121700
O6	O	0.144483	1.234811	0.121725
O7	O	0.131915	1.606164	0.121699
Cu8	Cu	0.138200	1.420487	0.143954
Cu9	Cu	0.138195	1.420492	-0.144129
O10	O	0.274856	1.348200	0.121724
C11	C	0.143559	1.188446	-0.000072
C12	C	0.140798	1.050294	-0.000063
C13	C	-0.033457	1.507903	-0.000105
C14	C	-0.137736	1.552959	-0.000123
C15	C	0.224959	0.931464	-0.000077
C16	C	0.222359	0.801659	-0.000103
C17	C	0.051429	0.909528	-0.000106
C18	C	0.054030	1.039331	-0.000070
C19	C	0.323644	0.869186	-0.000082
C20	C	0.321045	0.739380	-0.000107
C21	C	-0.428451	1.105338	-0.000061
C22	C	-0.526440	1.147707	-0.000061
C23	C	-0.547326	1.386021	-0.000078
C24	C	-0.449337	1.343672	-0.000085
C25	C	-0.389906	1.203329	-0.000075
C26	C	-0.410792	1.441663	-0.000099
C27	C	-0.312812	1.399317	-0.000099
C28	C	-0.253375	1.258980	-0.000085
C29	C	-0.291926	1.160983	-0.000075
C30	C	-0.470224	1.582005	-0.000099
C31	C	-0.431680	1.679996	-0.000113
C32	C	-0.333697	1.637651	-0.000123
C33	C	-0.274261	1.497314	-0.000109
C34	C	-0.295147	1.735648	-0.000133
C35	C	-0.197166	1.693302	-0.000133
C36	C	-0.176280	1.454968	-0.000109
C37	C	0.309851	1.333076	-0.000073
C38	C	0.414130	1.288020	-0.000065
C39	C	0.132836	1.652533	-0.000106
C40	C	0.135597	1.790686	-0.000125
N41	N	0.138202	1.420493	0.346577
N42	N	0.138185	1.420499	-0.346752
C43	C	0.074930	1.534731	0.423218
C44	C	0.074918	1.534733	0.576555
C45	C	0.201461	1.306251	0.576596
C46	C	0.201467	1.306246	0.423262
C47	C	0.001874	1.666646	0.423196
C48	C	0.001863	1.666648	0.576532
H49	H	-0.014503	1.136082	-0.000038
N50	N	-0.495776	1.831362	-0.000137
H51	H	-0.483284	1.876092	0.090157
H52	H	-0.563671	1.843213	-0.000189
H53	H	-0.165783	1.773097	-0.000143
H54	H	-0.595727	1.500288	-0.000080
N55	N	-0.359250	1.887011	-0.000116
H56	H	-0.427169	1.898967	-0.000103
H57	H	-0.346698	1.931661	-0.090423
H58	H	0.252980	1.213218	0.360862
H59	H	-0.550006	1.616479	-0.000112
N60	N	0.269691	1.183030	0.659306
H61	H	0.260085	1.200363	0.768073
H62	H	0.336424	1.167107	0.632523
H63	H	-0.380059	0.991057	-0.000064
H64	H	0.355066	0.890153	-0.105251
H65	H	-0.127888	1.340687	-0.000112
N66	N	-0.042152	0.897702	-0.000103
H67	H	-0.031031	0.797441	-0.000120
H68	H	-0.079026	0.943963	-0.090401
H69	H	-0.557817	1.067900	-0.000028
N70	N	-0.088500	1.668490	0.639522
H71	H	-0.085207	1.668424	0.750002
H72	H	-0.097284	1.584351	0.605288
H73	H	-0.070316	1.678951	0.381571
N74	N	0.032172	1.773259	0.360175
H75	H	0.046805	1.824777	0.442506
H76	H	-0.020343	1.839907	0.297867
N77	N	0.360559	0.660411	0.139196
H78	H	0.416243	0.571892	0.114973
H79	H	0.310288	0.638800	0.189367
H80	H	0.017955	1.755637	0.618144
H81	H	0.362242	0.880473	0.101873
N82	N	-0.147694	1.213286	-0.000085
H83	H	-0.128184	1.249867	0.090212
H84	H	-0.128267	1.249874	-0.090452
H85	H	0.358226	0.680267	-0.102057
H86	H	-0.243534	1.046702	-0.000078
