data_functionalizedCrystal
_audit_creation_method	'MofGen! by Chris Wilmer'
_symmetry_space_group_name_H-M	'P1'
_symmetry_Int_Tables_number	1
_symmetry_cell_setting	triclinic
loop_
_symmetry_equiv_pos_as_xyz
  x,y,z
_cell_length_a	21.395362
_cell_length_b	19.077068
_cell_length_c	21.395356
_cell_angle_alpha	92.269849
_cell_angle_beta	89.957023
_cell_angle_gamma	92.343691
loop_
_atom_site_label
_atom_site_type_symbol
_atom_site_fract_x
_atom_site_fract_y
_atom_site_fract_z
Zn1	Zn	0.947857	-0.279924	-0.364584
Zn2	Zn	1.281190	0.053409	-0.031251
Zn3	Zn	1.614524	0.386742	0.302083
Zn4	Zn	0.943558	-0.397624	-0.264010
Zn5	Zn	1.276891	-0.064291	0.069323
Zn6	Zn	1.610224	0.269042	0.402656
Zn7	Zn	0.843072	-0.279976	-0.259787
Zn8	Zn	1.176405	0.053357	0.073546
Zn9	Zn	1.509738	0.386691	0.406880
Zn10	Zn	0.838838	-0.397620	-0.368715
Zn11	Zn	1.172171	-0.064287	-0.035382
Zn12	Zn	1.505505	0.269047	0.297952
O13	O	0.893331	-0.338786	-0.314274
O14	O	1.226664	-0.005453	0.019059
O15	O	1.559998	0.327880	0.352393
O16	O	1.034965	-0.295518	-0.351281
O17	O	1.368299	0.037816	-0.017948
O18	O	1.701632	0.371149	0.315385
O19	O	0.930201	-0.382041	-0.175773
O20	O	1.263534	-0.048708	0.157560
O21	O	1.596868	0.284625	0.490894
O22	O	0.860543	-0.181477	-0.270192
O23	O	1.193876	0.151857	0.063141
O24	O	1.527209	0.485190	0.396474
O25	O	1.031807	-0.381991	-0.277390
O26	O	1.365140	-0.048658	0.055943
O27	O	1.698473	0.284675	0.389276
O28	O	0.937528	-0.181439	-0.347186
O29	O	1.270861	0.151894	-0.013853
O30	O	1.604195	0.485228	0.319481
O31	O	0.856374	-0.295606	-0.172670
O32	O	1.189707	0.037728	0.160663
O33	O	1.523041	0.371061	0.493997
O34	O	0.754831	-0.295601	-0.274198
O35	O	1.088165	0.037732	0.059135
O36	O	1.421498	0.371065	0.392469
O37	O	0.853327	-0.381984	-0.455844
O38	O	1.186660	-0.048651	-0.122511
O39	O	1.519993	0.284683	0.210823
O40	O	0.751721	-0.382034	-0.354227
O41	O	1.085054	-0.048701	-0.020893
O42	O	1.418388	0.284633	0.312440
O43	O	0.933423	-0.295514	-0.452809
O44	O	1.266756	0.037820	-0.119476
O45	O	1.600089	0.371153	0.213858
O46	O	0.926095	-0.496116	-0.281396
O47	O	1.259429	-0.162783	0.051937
O48	O	1.592762	0.170551	0.385271
O49	O	0.849158	-0.496113	-0.358322
O50	O	1.182491	-0.162780	-0.024989
O51	O	1.515825	0.170554	0.308345
C52	C	0.730542	-0.338823	-0.314203
C53	C	1.063875	-0.005490	0.019131
C54	C	1.397209	0.327843	0.352464
C55	C	0.660900	-0.338856	-0.314188
C56	C	0.994233	-0.005523	0.019146
C57	C	1.327566	0.327810	0.352479
C58	C	0.626581	-0.383921	-0.355801
C59	C	0.959914	-0.050588	-0.022467
C60	C	1.293248	0.282745	0.310866
C61	C	0.561146	-0.383904	-0.355828
C62	C	0.894480	-0.050571	-0.022495
C63	C	1.227813	0.282763	0.310839
C64	C	0.530032	-0.338829	-0.314231
C65	C	0.863366	-0.005496	0.019102
C66	C	1.196699	0.327837	0.352435
C67	C	0.564359	-0.293755	-0.272615
C68	C	0.897692	0.039578	0.060718
C69	C	1.231026	0.372911	0.394052
C70	C	0.629793	-0.293769	-0.272593
C71	C	0.963126	0.039564	0.060740
C72	C	1.296459	0.372898	0.394073
C73	C	0.426511	-0.333169	-0.257624
C74	C	0.759844	0.000164	0.075709
C75	C	1.093177	0.333497	0.409043
C76	C	0.361078	-0.333161	-0.257645
C77	C	0.694411	0.000173	0.075688
C78	C	1.027745	0.333506	0.409022
C79	C	0.328213	-0.338783	-0.314299
C80	C	0.661547	-0.005450	0.019034
C81	C	0.994880	0.327883	0.352368
C82	C	0.360789	-0.344429	-0.370934
C83	C	0.694122	-0.011096	-0.037601
C84	C	1.027455	0.322237	0.295733
C85	C	0.426222	-0.344443	-0.370912
C86	C	0.759556	-0.011109	-0.037579
C87	C	1.092889	0.322224	0.295754
C88	C	0.459081	-0.338809	-0.314251
C89	C	0.792414	-0.005476	0.019083
C90	C	1.125747	0.327858	0.352416
C91	C	0.222943	-0.383832	-0.355945
C92	C	0.556276	-0.050499	-0.022612
C93	C	0.889609	0.282835	0.310722
C94	C	0.157507	-0.383810	-0.355973
C95	C	0.490840	-0.050477	-0.022640
C96	C	0.824174	0.282857	0.310693
C97	C	0.160721	-0.293665	-0.272755
C98	C	0.494054	0.039669	0.060579
C99	C	0.827388	0.373002	0.393912
C100	C	0.226156	-0.293683	-0.272732
C101	C	0.559489	0.039650	0.060601
C102	C	0.892822	0.372983	0.393935
C103	C	0.257262	-0.338771	-0.314326
C104	C	0.590596	-0.005437	0.019007
C105	C	0.923929	0.327896	0.352340
C106	C	0.886718	-0.521652	-0.320779
C107	C	1.220051	-0.188319	0.012554
C108	C	1.553385	0.145014	0.345887
C109	C	0.883946	-0.599883	-0.323583
C110	C	1.217279	-0.266550	0.009750
C111	C	1.550613	0.066783	0.343083
C112	C	0.922732	-0.636615	-0.284883
C113	C	1.256065	-0.303281	0.048451
C114	C	1.589399	0.030052	0.381784
C115	C	0.920129	-0.710121	-0.287523
C116	C	1.253462	-0.376788	0.045810
C117	C	1.586795	-0.043454	0.379143
C118	C	0.878736	-0.746895	-0.328862
C119	C	1.212069	-0.413561	0.004471
C120	C	1.545402	-0.080228	0.337804
C121	C	0.839948	-0.710158	-0.367567
C122	C	1.173281	-0.376825	-0.034234
C123	C	1.506615	-0.043492	0.299099
C124	C	0.842555	-0.636653	-0.364929
C125	C	1.175888	-0.303320	-0.031596
C126	C	1.509222	0.030013	0.301738
C127	C	0.866643	-0.966733	-0.341047
C128	C	1.199976	-0.633400	-0.007713
C129	C	1.533310	-0.300067	0.325620
C130	C	0.864038	-1.040243	-0.343681
C131	C	1.197371	-0.706910	-0.010347
C132	C	1.530704	-0.373577	0.322986
C133	C	0.944219	-1.040201	-0.263637
C134	C	1.277553	-0.706868	0.069696
C135	C	1.610886	-0.373535	0.403029
C136	C	0.946820	-0.966695	-0.261000
C137	C	1.280153	-0.633362	0.072333
C138	C	1.613487	-0.300028	0.405666
C139	C	0.908035	-0.929965	-0.299707
C140	C	1.241368	-0.596631	0.033626
C141	C	1.574701	-0.263298	0.366959
N142	N	0.876072	-0.822030	-0.331561
N143	N	1.209406	-0.488697	0.001772
N144	N	1.542739	-0.155363	0.335105
N145	N	0.910702	-0.854831	-0.297011
N146	N	1.244035	-0.521498	0.036322
N147	N	1.577368	-0.188164	0.369656
C148	C	1.056756	-0.338749	-0.314346
C149	C	1.390089	-0.005416	0.018987
C150	C	1.723422	0.327917	0.352321
C151	C	1.126398	-0.338734	-0.314377
C152	C	1.459731	-0.005400	0.018957
C153	C	1.793064	0.327933	0.352290
C154	C	0.893382	-0.338743	-0.477696
C155	C	1.226715	-0.005409	-0.144363
C156	C	1.560049	0.327924	0.188971
C157	C	0.893404	-0.338724	-0.547337
C158	C	1.226737	-0.005391	-0.214003
C159	C	1.560070	0.327943	0.119330
C160	C	0.899987	-0.155206	-0.307757
C161	C	1.233321	0.178128	0.025576
C162	C	1.566654	0.511461	0.358909
C163	C	0.902824	-0.076975	-0.304980
C164	C	1.236157	0.256359	0.028353
C165	C	1.569490	0.589692	0.361687
C166	C	0.854973	-0.293712	-0.578424
C167	C	1.188306	0.039622	-0.245091
C168	C	1.521640	0.372955	0.088243
C169	C	0.854971	-0.293699	-0.643859
C170	C	1.188305	0.039635	-0.310526
C171	C	1.521638	0.372968	0.022808
C172	C	0.893412	-0.338690	-0.678204
C173	C	1.226745	-0.005357	-0.344870
C174	C	1.560078	0.327976	-0.011537
C175	C	0.931845	-0.383711	-0.647109
C176	C	1.265178	-0.050378	-0.313775
C177	C	1.598512	0.282955	0.019558
C178	C	0.931841	-0.383728	-0.581675
C179	C	1.265174	-0.050395	-0.248342
C180	C	1.598507	0.282939	0.084992
C181	C	0.949667	-0.344206	-0.782106
C182	C	1.283000	-0.010873	-0.448773
C183	C	1.616333	0.322460	-0.115439
C184	C	0.949672	-0.344185	-0.847538
C185	C	1.283005	-0.010851	-0.514205
C186	C	1.616339	0.322482	-0.180872
C187	C	0.893424	-0.338643	-0.880023
C188	C	1.226757	-0.005310	-0.546690
C189	C	1.560090	0.328024	-0.213356
C190	C	0.837169	-0.333108	-0.847067
C191	C	1.170502	0.000225	-0.513733
C192	C	1.503836	0.333559	-0.180400
C193	C	0.837165	-0.333125	-0.781633
C194	C	1.170498	0.000209	-0.448300
C195	C	1.503832	0.333542	-0.114966
C196	C	0.893420	-0.338678	-0.749156
C197	C	1.226753	-0.005344	-0.415822
C198	C	1.560087	0.327989	-0.082489
C199	C	0.854988	-0.293614	-0.982062
C200	C	1.188321	0.039719	-0.648729
C201	C	1.521655	0.373052	-0.315396
C202	C	0.854985	-0.293606	-1.047499
C203	C	1.188318	0.039727	-0.714165
C204	C	1.521652	0.373061	-0.380832
C205	C	0.931864	-0.383615	-1.050747
C206	C	1.265198	-0.050282	-0.717414
C207	C	1.598531	0.283052	-0.384080
C208	C	0.931862	-0.383627	-0.985312
C209	C	1.265195	-0.050294	-0.651979
C210	C	1.598528	0.283040	-0.318645
C211	C	0.893424	-0.338623	-0.950973
C212	C	1.226758	-0.005289	-0.617640
C213	C	1.560091	0.328044	-0.284307
C214	C	0.893318	-0.338779	-0.151486
C215	C	1.226652	-0.005446	0.181847
C216	C	1.559985	0.327888	0.515180
C217	C	0.893425	-0.338599	-0.081839
C218	C	1.226758	-0.005266	0.251494
C219	C	1.560092	0.328068	0.584828
H220	H	0.135389	-0.256961	-0.238889
H221	H	0.468722	0.076373	0.094445
H222	H	0.802055	0.409706	0.427778
O223	O	0.973303	-0.432238	-0.684154
O224	O	1.306636	-0.098905	-0.350821
O225	O	1.639969	0.234429	-0.017487
H226	H	0.960545	-0.487483	-0.673554
H227	H	1.293878	-0.154149	-0.340221
H228	H	1.627211	0.179184	-0.006887
O229	O	0.795305	-0.749822	-0.412156
O230	O	1.128638	-0.416488	-0.078822
O231	O	1.461971	-0.083155	0.254511
H232	H	0.768777	-0.711929	-0.438628
H233	H	1.102110	-0.378595	-0.105295
H234	H	1.435443	-0.045262	0.228038
O235	O	0.666807	-0.245171	-0.227695
O236	O	1.000141	0.088162	0.105638
O237	O	1.333474	0.421496	0.438971
H238	H	0.656282	-0.189942	-0.236553
H239	H	0.989615	0.143391	0.096781
H240	H	1.322949	0.476724	0.430114
O241	O	0.986063	-1.079826	-0.221910
O242	O	1.319396	-0.746492	0.111423
O243	O	1.652730	-0.413159	0.444756
H244	H	0.956856	-1.113385	-0.191204
H245	H	1.290189	-0.780052	0.142130
H246	H	1.623523	-0.446719	0.475463
H247	H	0.963165	-0.420247	-1.078710
H248	H	1.296498	-0.086913	-0.745377
H249	H	1.629831	0.246420	-0.412043
O250	O	0.813529	-0.245129	-0.677390
O251	O	1.146863	0.088204	-0.344057
O252	O	1.480196	0.421537	-0.010724
H253	H	0.842889	-0.209316	-0.705945
H254	H	1.176222	0.124017	-0.372612
H255	H	1.509555	0.457350	-0.039278
H256	H	0.810972	-0.606747	-0.396444
H257	H	1.144306	-0.273414	-0.063111
H258	H	1.477639	0.059919	0.270223
O259	O	0.824808	-0.927126	-0.382793
O260	O	1.158141	-0.593793	-0.049460
O261	O	1.491475	-0.260460	0.283874
H262	H	0.833577	-0.869835	-0.374023
H263	H	1.166910	-0.536502	-0.040689
H264	H	1.500243	-0.203169	0.292644
O265	O	0.813522	-0.245169	-0.541386
O266	O	1.146856	0.088164	-0.208052
O267	O	1.480189	0.421497	0.125281
H268	H	0.786798	-0.213867	-0.574000
H269	H	1.120131	0.119466	-0.240667
H270	H	1.453465	0.452799	0.092666
O271	O	0.973305	-0.432270	-0.548144
O272	O	1.306638	-0.098937	-0.214811
O273	O	1.639971	0.234397	0.118523
H274	H	0.960564	-0.487511	-0.562655
H275	H	1.293897	-0.154177	-0.229322
H276	H	1.627230	0.179156	0.104011
O277	O	0.325944	-0.327068	-0.196564
O278	O	0.659277	0.006266	0.136769
O279	O	0.992611	0.339599	0.470102
H280	H	0.359789	-0.323144	-0.157166
H281	H	0.693122	0.010189	0.176167
H282	H	1.026455	0.343522	0.509500
H283	H	0.951712	-0.740025	-0.256009
H284	H	1.285045	-0.406691	0.077325
H285	H	1.618379	-0.073358	0.410658
H286	H	0.453264	-0.328588	-0.211486
H287	H	0.786597	0.004746	0.121847
H288	H	1.119930	0.338079	0.455180
O289	O	0.819386	-1.079914	-0.388263
O290	O	1.152719	-0.746580	-0.054929
O291	O	1.486052	-0.413247	0.278404
H292	H	0.846224	-1.113356	-0.421367
H293	H	1.179558	-0.780023	-0.088034
H294	H	1.512891	-0.446689	0.245300
O295	O	0.776495	-0.327127	-0.882092
O296	O	1.109828	0.006207	-0.548759
O297	O	1.443161	0.339540	-0.215425
H298	H	0.744105	-0.371885	-0.871092
H299	H	1.077439	-0.038552	-0.537758
H300	H	1.410772	0.294781	-0.204425
O301	O	0.660134	-0.432539	-0.400669
O302	O	0.993468	-0.099206	-0.067336
O303	O	1.326801	0.234127	0.265997
H304	H	0.625273	-0.463868	-0.429615
H305	H	0.958606	-0.130534	-0.096282
H306	H	1.291940	0.202799	0.237051
H307	H	0.254098	-0.256990	-0.238843
H308	H	0.587431	0.076344	0.094490
H309	H	0.920765	0.409677	0.427824
O310	O	0.776497	-0.327150	-0.746084
O311	O	1.109831	0.006183	-0.412751
O312	O	1.443164	0.339516	-0.079417
H313	H	0.737382	-0.323293	-0.779660
H314	H	1.070715	0.010040	-0.446327
H315	H	1.404049	0.343373	-0.112994
O316	O	0.967380	-0.596952	-0.240298
O317	O	1.300713	-0.263619	0.093035
O318	O	1.634047	0.069714	0.426369
H319	H	0.993918	-0.634846	-0.213836
H320	H	1.327251	-0.301513	0.119497
H321	H	1.660584	0.031820	0.452830
O322	O	0.524131	-0.432540	-0.400698
O323	O	0.857464	-0.099207	-0.067365
O324	O	1.190798	0.234126	0.265968
H325	H	0.537180	-0.420573	-0.449466
H326	H	0.870513	-0.087240	-0.116133
H327	H	1.203846	0.246094	0.217201
O328	O	0.813529	-0.245078	-0.945023
O329	O	1.146862	0.088255	-0.611690
O330	O	1.480196	0.421588	-0.278357
H331	H	0.819990	-0.252643	-0.894299
H332	H	1.153323	0.080690	-0.560966
H333	H	1.486657	0.414024	-0.227633
H334	H	0.823686	-0.256954	-1.072809
H335	H	1.157019	0.076379	-0.739475
H336	H	1.490352	0.409713	-0.406142
O337	O	0.991471	-0.927031	-0.216419
O338	O	1.324804	-0.593698	0.116914
O339	O	1.658138	-0.260365	0.450247
H340	H	1.018010	-0.964923	-0.189956
H341	H	1.351343	-0.631589	0.143378
H342	H	1.684676	-0.298256	0.476711
H343	H	0.963158	-0.420279	-0.960001
H344	H	1.296491	-0.086946	-0.626667
H345	H	1.629824	0.246388	-0.293334
O346	O	1.010339	-0.350179	-0.747070
O347	O	1.343672	-0.016845	-0.413737
O348	O	1.677005	0.316488	-0.080403
H349	H	1.049456	-0.354011	-0.780977
H350	H	1.382789	-0.020678	-0.447644
H351	H	1.716123	0.312655	-0.114310
O352	O	1.010343	-0.350148	-0.883083
O353	O	1.343676	-0.016815	-0.549750
O354	O	1.677010	0.316518	-0.216416
H355	H	1.049454	-0.354017	-0.849504
H356	H	1.382787	-0.020684	-0.516171
H357	H	1.716121	0.312649	-0.182837
H358	H	0.539022	-0.257054	-0.238748
H359	H	0.872355	0.076280	0.094586
H360	H	1.205689	0.409613	0.427919
O361	O	0.461358	-0.350516	-0.431993
O362	O	0.794691	-0.017183	-0.098660
O363	O	1.128024	0.316151	0.234673
H364	H	0.446991	-0.400619	-0.457092
H365	H	0.780325	-0.067285	-0.123759
H366	H	1.113658	0.266048	0.209575
O367	O	0.325357	-0.350483	-0.432049
O368	O	0.658690	-0.017149	-0.098716
O369	O	0.992024	0.316184	0.234618
H370	H	0.293790	-0.398148	-0.432700
H371	H	0.627123	-0.064815	-0.099367
H372	H	0.960457	0.268519	0.233966
O373	O	0.256502	-0.432449	-0.400812
O374	O	0.589835	-0.099116	-0.067479
O375	O	0.923169	0.234218	0.265854
H376	H	0.221642	-0.463775	-0.429762
H377	H	0.554975	-0.130442	-0.096429
H378	H	0.888309	0.202892	0.236904
H379	H	0.129566	-0.420506	-0.389864
H380	H	0.462899	-0.087173	-0.056530
H381	H	0.796232	0.246161	0.276803
