data_functionalizedCrystal
_audit_creation_method	'MofGen! by Chris Wilmer'
_symmetry_space_group_name_H-M	'P1'
_symmetry_Int_Tables_number	1
_symmetry_cell_setting	triclinic
loop_
_symmetry_equiv_pos_as_xyz
  x,y,z
_cell_length_a	27.732048
_cell_length_b	27.732048
_cell_length_c	15.455313
_cell_angle_alpha	92.637842
_cell_angle_beta	87.346468
_cell_angle_gamma	82.642655
loop_
_atom_site_label
_atom_site_type_symbol
_atom_site_fract_x
_atom_site_fract_y
_atom_site_fract_z
O1	O	0.643059	0.055390	-0.072028
O2	O	0.502266	0.064134	-0.072055
O3	O	0.577035	-0.010634	-0.072024
O4	O	0.568290	0.130158	-0.072059
O5	O	0.572759	-0.006376	0.072236
O6	O	0.497991	0.068393	0.072205
O7	O	0.638783	0.059648	0.072233
Cu8	Cu	0.567996	0.064409	0.085391
Cu9	Cu	0.573053	0.059373	-0.085213
O10	O	0.564015	0.134416	0.072202
C11	C	0.482121	0.066080	0.000072
C12	C	0.428467	0.065527	0.000062
C13	C	0.574713	-0.026512	0.000109
C14	C	0.574160	-0.080167	0.000116
C15	C	0.089651	0.106231	0.000089
C16	C	-0.112009	0.104181	0.000098
O17	O	-0.143265	0.141402	0.000126
N18	N	-0.131133	0.059846	0.000107
C19	C	-0.099839	0.016021	0.000120
O20	O	-0.120732	-0.021736	0.000137
C21	C	0.101820	0.018072	0.000118
C22	C	0.120941	0.062409	0.000100
C23	C	0.108773	0.150565	0.000072
C24	C	0.159185	0.151077	0.000065
C25	C	0.190475	0.107256	0.000076
C26	C	0.171353	0.062922	0.000093
C27	C	0.133113	-0.025753	0.000137
C28	C	0.183530	-0.025236	0.000139
C29	C	0.202652	0.019102	0.000121
C30	C	0.253056	0.019612	0.000097
N31	N	0.272180	0.063947	0.000087
C32	C	0.240890	0.107769	0.000077
C33	C	-0.205713	0.014947	0.000120
C34	C	-0.256127	0.014434	0.000118
C35	C	-0.268294	0.102594	0.000098
C36	C	-0.217878	0.103106	0.000093
C37	C	-0.186589	0.059281	0.000110
C38	C	0.346759	0.108841	0.000062
C39	C	0.397176	0.109349	0.000052
C40	C	0.409339	0.021189	0.000077
C41	C	0.358926	0.020680	0.000083
C42	C	0.327637	0.064510	0.000078
O43	O	0.284341	-0.017590	0.000078
O44	O	0.261792	0.145520	0.000079
C45	C	0.039239	0.105719	0.000096
C46	C	0.020117	0.061385	0.000113
C47	C	0.051407	0.017563	0.000124
C48	C	-0.030297	0.060872	0.000112
C49	C	-0.061588	0.104694	0.000102
C50	C	-0.042464	0.149029	0.000093
C51	C	0.007948	0.149541	0.000086
C52	C	0.032283	-0.026771	0.000133
C53	C	-0.018129	-0.027280	0.000139
C54	C	-0.049420	0.016542	0.000129
C55	C	0.614865	-0.418983	0.000079
C56	C	0.612814	-0.620643	0.000067
O57	O	0.650036	-0.651899	0.000036
N58	N	0.568479	-0.639767	0.000059
C59	C	0.524654	-0.608472	0.000048
O60	O	0.486898	-0.629366	0.000032
C61	C	0.526705	-0.406813	0.000054
C62	C	0.571043	-0.387692	0.000071
C63	C	0.659199	-0.399861	0.000095
C64	C	0.659711	-0.349449	0.000103
C65	C	0.615889	-0.318158	0.000095
C66	C	0.571555	-0.337280	0.000079
C67	C	0.482881	-0.375520	0.000038
C68	C	0.483398	-0.325103	0.000037
C69	C	0.527735	-0.305982	0.000054
C70	C	0.528245	-0.255577	0.000079
N71	N	0.572580	-0.236453	0.000087
C72	C	0.616402	-0.267744	0.000095
C73	C	0.523580	-0.714346	0.000047
C74	C	0.523067	-0.764761	0.000047
C75	C	0.611228	-0.776928	0.000063
C76	C	0.611740	-0.726512	0.000069
C77	C	0.567915	-0.695222	0.000054
C78	C	0.617474	-0.161874	0.000112
C79	C	0.617982	-0.111457	0.000123
C80	C	0.529822	-0.099295	0.000102
C81	C	0.529314	-0.149707	0.000095
C82	C	0.573144	-0.180996	0.000097
O83	O	0.491044	-0.224293	0.000100
O84	O	0.654154	-0.246841	0.000091
C85	C	0.614353	-0.469395	0.000071
C86	C	0.570019	-0.488517	0.000055
C87	C	0.526197	-0.457226	0.000048
C88	C	0.569506	-0.538931	0.000055
C89	C	0.613328	-0.570221	0.000063
C90	C	0.657663	-0.551097	0.000071
C91	C	0.658175	-0.500685	0.000079
C92	C	0.481862	-0.476350	0.000040
C93	C	0.481354	-0.526763	0.000033
C94	C	0.525176	-0.558053	0.000041
C95	C	0.658928	0.057702	0.000104
C96	C	0.712583	0.058255	0.000108
C97	C	0.566336	0.150294	0.000067
C98	C	0.566889	0.203949	0.000054
N99	N	0.564444	0.067951	0.205385
N100	N	0.576609	0.055828	-0.205208
C101	C	0.596219	0.036198	0.250792
C102	C	0.593536	0.038881	0.341599
C103	C	0.559081	0.073319	0.386997
C104	C	0.527302	0.105073	0.341583
C105	C	0.529983	0.102388	0.250778
C106	C	0.547511	0.084897	0.658574
C107	C	0.544834	0.087581	0.749385
C108	C	0.611068	0.021387	0.749395
C109	C	0.613747	0.018707	0.658588
C110	C	0.581967	0.050460	0.613182
N111	N	0.556339	0.076063	0.479816
N112	N	0.584707	0.047713	0.520365
H113	H	0.412742	0.145455	0.000036
H114	H	0.647844	-0.710948	0.000082
H115	H	0.504107	0.128243	0.213808
H116	H	-0.180240	-0.020743	0.000134
H117	H	0.499245	0.133112	0.378551
H118	H	0.654089	-0.095892	0.000139
Br119	Br	0.422383	-0.433892	0.000025
Br120	Br	0.642986	-0.010539	0.189191
Br121	Br	-0.282070	-0.045742	0.000117
Br122	Br	0.470352	-0.056820	0.000092
Br123	Br	0.469140	-0.175658	0.000093
H124	H	0.446777	-0.391080	0.000019
H125	H	0.636941	-0.004464	0.786372
H126	H	0.516775	0.115627	0.786344
Br127	Br	-0.191934	0.163280	0.000068
Br128	Br	0.185127	0.211253	0.000045
Br129	Br	0.504383	0.127989	0.596956
H130	H	0.083300	0.186253	0.000067
H131	H	0.117554	-0.061857	0.000153
H132	H	0.447709	-0.299629	0.000024
Br133	Br	0.660510	-0.028029	0.596975
Br134	Br	0.304303	0.168325	0.000057
Br135	Br	0.718351	-0.474743	0.000096
H136	H	-0.293779	0.138275	0.000089
Br137	Br	0.676958	-0.204330	0.000114
H138	H	0.343357	-0.015423	0.000085
Br139	Br	0.225992	-0.084716	0.000167
H140	H	0.434824	-0.014490	0.000082
H141	H	0.023512	0.185645	0.000072
H142	H	-0.067949	0.184710	0.000081
H143	H	-0.033692	-0.063388	0.000147
H144	H	0.695815	-0.333885	0.000113
Br145	Br	0.074742	-0.086250	0.000150
Br146	Br	0.421175	-0.552706	0.000017
Br147	Br	0.670700	-0.819403	0.000072
H148	H	0.619410	0.013025	0.378570
H149	H	0.486963	-0.780324	0.000048
Br150	Br	0.717135	-0.593573	0.000089
Br151	Br	0.464098	-0.671888	0.000025
H152	H	0.694886	-0.425333	0.000098
