data_functionalizedCrystal
_audit_creation_method	'MofGen! by Chris Wilmer'
_symmetry_space_group_name_H-M	'P1'
_symmetry_Int_Tables_number	1
_symmetry_cell_setting	triclinic
loop_
_symmetry_equiv_pos_as_xyz
  x,y,z
_cell_length_a	19.077212
_cell_length_b	16.625545
_cell_length_c	19.077579
_cell_angle_alpha	87.676268
_cell_angle_beta	85.478671
_cell_angle_gamma	92.317691
loop_
_atom_site_label
_atom_site_type_symbol
_atom_site_fract_x
_atom_site_fract_y
_atom_site_fract_z
Zn1	Zn	1.093738	-0.250455	-0.442025
Zn2	Zn	1.088921	-0.390940	-0.324136
Zn3	Zn	0.971119	-0.261752	-0.319402
Zn4	Zn	0.975811	-0.390884	-0.437238
O5	O	1.032397	-0.323507	-0.380700
O6	O	1.191753	-0.264386	-0.430372
O7	O	1.069315	-0.378554	-0.224856
O8	O	0.987437	-0.147417	-0.335690
O9	O	1.188214	-0.367600	-0.343759
O10	O	1.077525	-0.139117	-0.425781
O11	O	0.982766	-0.283640	-0.221378
O12	O	0.873088	-0.283586	-0.331048
O13	O	0.995434	-0.367504	-0.536524
O14	O	0.876535	-0.378458	-0.417621
O15	O	1.082074	-0.264331	-0.540042
O16	O	1.073864	-0.503768	-0.339117
O17	O	0.990763	-0.503727	-0.422212
C18	C	0.849232	-0.332242	-0.373302
C19	C	0.770873	-0.335998	-0.370153
C20	C	0.329601	-0.362897	-0.347605
C21	C	0.403227	-0.359364	-0.350558
C22	C	0.441887	-0.303940	-0.397203
C23	C	0.406918	-0.252041	-0.440892
C24	C	0.333294	-0.255570	-0.437935
C25	C	0.662280	-0.287627	-0.410886
C26	C	0.735909	-0.284104	-0.413841
C27	C	0.732213	-0.391426	-0.323506
C28	C	0.658587	-0.394954	-0.320556
C29	C	0.623624	-0.343052	-0.364243
N30	N	0.517145	-0.300330	-0.400224
N31	N	0.548368	-0.346659	-0.361218
C32	C	1.032320	-0.533003	-0.380675
C33	C	1.032352	-0.622622	-0.380690
C34	C	1.032380	-0.695402	-0.380705
C35	C	1.032422	-0.786708	-0.380723
C36	C	1.032459	-0.859482	-0.380733
C37	C	1.032500	-0.950794	-0.380749
C38	C	1.216278	-0.314739	-0.388128
C39	C	1.294637	-0.311002	-0.391293
C40	C	1.039815	-0.314651	-0.564578
C41	C	1.042976	-0.310877	-0.642935
C42	C	1.032495	-0.113192	-0.380742
C43	C	1.032536	-0.023568	-0.380759
C44	C	1.065646	-0.283869	-1.084204
C45	C	1.062672	-0.287419	-1.010579
C46	C	1.016072	-0.342906	-0.971938
C47	C	0.972449	-0.394852	-1.006926
C48	C	0.975428	-0.391305	-1.080551
C49	C	1.002331	-0.359277	-0.751548
C50	C	0.999354	-0.362818	-0.677919
C51	C	1.089578	-0.255385	-0.681576
C52	C	1.092550	-0.251840	-0.755202
C53	C	1.048929	-0.303789	-0.790184
N54	N	1.013029	-0.346534	-0.896681
N55	N	1.051976	-0.300164	-0.865440
C56	C	1.025049	-0.332269	-0.197539
C57	C	1.022025	-0.335809	-0.119188
H58	H	0.438401	-0.206910	-0.478868
H59	H	0.966811	-0.401576	-0.780022
H60	H	0.934510	-0.440034	-0.975459
H61	H	0.939907	-0.433601	-1.109033
C62	C	0.770673	-0.448511	-0.275448
C63	C	0.851657	-0.444633	-0.278693
C64	C	0.890116	-0.501718	-0.230631
C65	C	0.847591	-0.562681	-0.179322
C66	C	0.766603	-0.566562	-0.176074
C67	C	0.728143	-0.509476	-0.224137
H68	H	0.883140	-0.399502	-0.316677
H69	H	0.950069	-0.498845	-0.233036
H70	H	0.876061	-0.604939	-0.143743
H71	H	0.735119	-0.611692	-0.138091
H72	H	0.668190	-0.512349	-0.221732
C73	C	1.116908	-0.222832	-1.126706
C74	C	1.164895	-0.165703	-1.088221
C75	C	1.216160	-0.104666	-1.130721
C76	C	1.219439	-0.100759	-1.211705
C77	C	1.171452	-0.157890	-1.250194
C78	C	1.120186	-0.218927	-1.207694
H79	H	1.162468	-0.168593	-1.028268
H80	H	1.251684	-0.062374	-1.102228
H81	H	1.257389	-0.055577	-1.243165
H82	H	1.173878	-0.155000	-1.310147
H83	H	1.084662	-0.261219	-1.236187
H84	H	0.767385	-0.238966	-0.451824
H85	H	0.298129	-0.408032	-0.309626
H86	H	1.098195	-0.245126	-0.982099
H87	H	1.130499	-0.206660	-0.786658
H88	H	0.431691	-0.401621	-0.314982
C89	C	0.623819	-0.230559	-0.458953
C90	C	0.571978	-0.171089	-0.426490
C91	C	0.533510	-0.114026	-0.474565
C92	C	0.546883	-0.116433	-0.555102
C93	C	0.598727	-0.175905	-0.587569
C94	C	0.637195	-0.232968	-0.539495
H95	H	0.562076	-0.169305	-0.366868
H96	H	0.495132	-0.070000	-0.450530
H97	H	0.518407	-0.074191	-0.590689
H98	H	0.608629	-0.177689	-0.647191
H99	H	0.675573	-0.276993	-0.563529
H100	H	0.304827	-0.213310	-0.473508
C101	C	1.137564	-0.198252	-0.643094
C102	C	1.105007	-0.138838	-0.591259
C103	C	1.152998	-0.081704	-0.552778
C104	C	1.233546	-0.083985	-0.566131
C105	C	1.266108	-0.143401	-0.617968
C106	C	1.218117	-0.200534	-0.656450
H107	H	1.045376	-0.137148	-0.581372
H108	H	1.128893	-0.037721	-0.514404
H109	H	1.269072	-0.041691	-0.537645
H110	H	1.325739	-0.145090	-0.627856
H111	H	1.242222	-0.244518	-0.694824
H112	H	0.961390	-0.407988	-0.646459
C113	C	0.616067	-0.455923	-0.269244
C114	C	0.622939	-0.452574	-0.189518
C115	C	0.580420	-0.513548	-0.138209
C116	C	0.531029	-0.577871	-0.166625
C117	C	0.524154	-0.581222	-0.246355
C118	C	0.566673	-0.520248	-0.297665
H119	H	0.659504	-0.404957	-0.168479
H120	H	0.585510	-0.511067	-0.079187
H121	H	0.499554	-0.623007	-0.128643
H122	H	0.487590	-0.628839	-0.267395
H123	H	0.561584	-0.522729	-0.356687
