data_functionalizedCrystal
_audit_creation_method	'MofGen! by Chris Wilmer'
_symmetry_space_group_name_H-M	'P1'
_symmetry_Int_Tables_number	1
_symmetry_cell_setting	triclinic
loop_
_symmetry_equiv_pos_as_xyz
  x,y,z
_cell_length_a	9.065215
_cell_length_b	16.109301
_cell_length_c	7.540329
_cell_angle_alpha	89.994987
_cell_angle_beta	89.997574
_cell_angle_gamma	84.238089
loop_
_atom_site_label
_atom_site_type_symbol
_atom_site_fract_x
_atom_site_fract_y
_atom_site_fract_z
O1	O	1.957452	0.121894	-0.147469
O2	O	2.457452	0.621894	0.352531
O3	O	1.527924	0.131895	-0.147477
O4	O	2.027924	0.631895	0.352523
O5	O	1.754487	0.005954	-0.147455
O6	O	2.254487	0.505954	0.352545
O7	O	1.730888	0.247835	-0.147491
O8	O	2.230888	0.747835	0.352509
O9	O	1.754474	0.005952	0.147511
O10	O	2.254474	0.505952	0.647511
O11	O	1.527911	0.131894	0.147488
O12	O	2.027911	0.631894	0.647488
O13	O	1.957438	0.121892	0.147497
O14	O	2.457438	0.621892	0.647497
Cu15	Cu	1.742673	0.126893	0.174425
Cu16	Cu	2.242673	0.626893	0.674425
Cu17	Cu	1.742689	0.126895	-0.174405
Cu18	Cu	2.242689	0.626895	0.325595
O19	O	1.730875	0.247833	0.147474
O20	O	2.230875	0.747833	0.647474
C21	C	1.472954	0.130934	0.000005
C22	C	1.972954	0.630934	0.500005
C23	C	1.309180	0.128061	0.000002
C24	C	1.809180	0.628061	0.500002
C25	C	1.753525	-0.025029	0.000029
C26	C	2.253525	0.474971	0.500029
C27	C	1.750659	-0.117346	0.000031
C28	C	2.250659	0.382654	0.500031
C29	C	1.878433	-0.338638	0.000006
C30	C	2.378433	0.161362	0.500006
C31	C	1.875729	-0.425379	-0.000009
C32	C	2.375729	0.074621	0.499991
C33	C	1.606919	-0.407568	-0.000007
C34	C	2.106919	0.092432	0.499993
C35	C	1.609625	-0.320829	-0.000005
C36	C	2.109625	0.179171	0.499995
C37	C	1.745386	-0.286366	0.000010
C38	C	2.245386	0.213634	0.500010
C39	C	1.739976	-0.459847	-0.000006
C40	C	2.239976	0.040153	0.499994
C41	C	1.737043	-0.553895	-0.000022
C42	C	2.237043	-0.053895	0.499978
C43	C	1.748320	-0.192311	0.000023
C44	C	2.248320	0.307689	0.500023
C45	C	2.012408	0.122853	0.000011
C46	C	2.512408	0.622853	0.500011
C47	C	2.176182	0.125726	0.000002
C48	C	2.676182	0.625726	0.500002
C49	C	1.731838	0.278816	-0.000013
C50	C	2.231838	0.778816	0.499987
C51	C	1.734703	0.371134	-0.000028
C52	C	2.234703	0.871134	0.499972
N53	N	1.742673	0.126891	0.419773
N54	N	2.242673	0.626891	0.919773
N55	N	1.742701	0.126890	-0.419754
N56	N	2.242701	0.626890	0.080246
H57	H	1.984069	-0.467936	-0.000016
H58	H	2.484069	0.032064	0.499984
C59	C	1.457594	-0.445481	0.000001
C60	C	1.957594	0.054519	0.500001
H61	H	1.475035	-0.504626	0.000018
H62	H	1.975035	-0.004626	0.500018
H63	H	1.402809	-0.427604	-0.102855
H64	H	1.902809	0.072396	0.397145
H65	H	1.402821	-0.427609	0.102879
H66	H	1.902821	0.072391	0.602879
C67	C	1.463266	-0.263326	0.000005
C68	C	1.963266	0.236674	0.500005
H69	H	1.382025	-0.296272	0.000021
H70	H	1.882025	0.203728	0.500021
H71	H	1.458738	-0.229113	-0.102854
H72	H	1.958738	0.270887	0.397146
H73	H	1.458739	-0.229125	0.102880
H74	H	1.958739	0.270875	0.602880
H75	H	1.988978	-0.310581	0.000015
H76	H	2.488978	0.189419	0.500015
