data_functionalizedCrystal
_audit_creation_method	'MofGen! by Chris Wilmer'
_symmetry_space_group_name_H-M	'P1'
_symmetry_Int_Tables_number	1
_symmetry_cell_setting	triclinic
loop_
_symmetry_equiv_pos_as_xyz
  x,y,z
_cell_length_a	19.077115
_cell_length_b	13.897448
_cell_length_c	19.076919
_cell_angle_alpha	92.272955
_cell_angle_beta	90.076897
_cell_angle_gamma	87.714091
loop_
_atom_site_label
_atom_site_type_symbol
_atom_site_fract_x
_atom_site_fract_y
_atom_site_fract_z
Zn1	Zn	1.058310	-0.466652	-0.440412
Zn2	Zn	1.558310	0.033348	0.059588
Zn3	Zn	1.062963	-0.621745	-0.322908
Zn4	Zn	1.562963	-0.121745	0.177092
Zn5	Zn	0.945526	-0.453730	-0.318207
Zn6	Zn	1.445526	0.046270	0.181793
Zn7	Zn	0.940785	-0.621163	-0.435662
Zn8	Zn	1.440785	-0.121163	0.064338
O9	O	1.001896	-0.540822	-0.379297
O10	O	1.501896	-0.040822	0.120703
O11	O	1.157259	-0.492876	-0.428781
O12	O	1.657259	0.007124	0.071219
O13	O	1.051317	-0.594293	-0.223953
O14	O	1.551317	-0.094293	0.276047
O15	O	0.960525	-0.320466	-0.334438
O16	O	1.460525	0.179534	0.165562
O17	O	1.160678	-0.606823	-0.342451
O18	O	1.660678	-0.106823	0.157549
O19	O	1.043386	-0.329959	-0.424222
O20	O	1.543386	0.170041	0.075778
O21	O	0.965037	-0.470853	-0.220499
O22	O	1.465037	0.029147	0.279501
O23	O	0.846565	-0.470289	-0.329832
O24	O	1.346565	0.029711	0.170168
O25	O	0.952443	-0.605831	-0.534623
O26	O	1.452443	-0.105831	-0.034623
O27	O	0.843081	-0.593302	-0.416126
O28	O	1.343081	-0.093302	0.083874
O29	O	1.038788	-0.492312	-0.538114
O30	O	1.538788	0.007688	-0.038114
O31	O	1.046719	-0.756646	-0.337844
O32	O	1.546719	-0.256646	0.162156
O33	O	0.956955	-0.756219	-0.420684
O34	O	1.456955	-0.256219	0.079316
C35	C	0.819327	-0.530331	-0.371954
C36	C	1.319327	-0.030331	0.128046
C37	C	0.741222	-0.525867	-0.368829
C38	C	1.241222	-0.025867	0.131171
C39	C	1.001845	-0.791433	-0.379275
C40	C	1.501845	-0.291433	0.120725
C41	C	1.001887	-0.898650	-0.379291
C42	C	1.501887	-0.398650	0.120709
C43	C	0.301769	-0.493806	-0.346423
C44	C	0.801769	0.006194	0.153577
C45	C	0.375156	-0.498007	-0.349363
C46	C	0.875156	0.001993	0.150637
C47	C	0.410055	-0.564250	-0.395688
C48	C	0.910055	-0.064250	0.104312
C49	C	0.371563	-0.626291	-0.439082
C50	C	0.871563	-0.126291	0.060918
C51	C	0.298176	-0.622086	-0.436145
C52	C	0.798176	-0.122086	0.063855
C53	C	0.629344	-0.583702	-0.409285
C54	C	1.129344	-0.083702	0.090715
C55	C	0.702735	-0.587905	-0.412217
C56	C	1.202735	-0.087905	0.087783
C57	C	0.706324	-0.459618	-0.322499
C58	C	1.206324	0.040382	0.177501
C59	C	0.632936	-0.455423	-0.319563
C60	C	1.132936	0.044577	0.180437
C61	C	0.594450	-0.517460	-0.362959
C62	C	1.094450	-0.017460	0.137041
N63	N	0.485069	-0.568547	-0.398693
N64	N	0.985069	-0.068547	0.101307
N65	N	0.519437	-0.513158	-0.359958
N66	N	1.019437	-0.013158	0.140042
C67	C	1.001959	-1.094952	-0.379338
C68	C	1.501959	-0.594952	0.120662
C69	C	1.001917	-0.985715	-0.379314
C70	C	1.501917	-0.485715	0.120686
C71	C	1.185178	-0.551356	-0.386670
C72	C	1.685178	-0.051356	0.113330
C73	C	1.263282	-0.555844	-0.389812
C74	C	1.763282	-0.055844	0.110188
C75	C	0.994567	-0.550448	-0.562578
C76	C	1.494567	-0.050448	-0.062578
C77	C	0.991444	-0.554550	-0.640681
C78	C	1.491444	-0.054550	-0.140681
C79	C	1.001965	-0.289235	-0.379336
C80	C	1.501965	0.210765	0.120664
C81	C	1.001995	-0.182024	-0.379352
C82	C	1.501995	0.317976	0.120648
C83	C	1.034930	-0.497377	-0.679192
C84	C	1.534930	0.002623	-0.179192
C85	C	1.031987	-0.501227	-0.752578
C86	C	1.531987	-0.001227	-0.252578
C87	C	0.985561	-0.562256	-0.787451
C88	C	1.485561	-0.062256	-0.287451
C89	C	0.942071	-0.619432	-0.748935
C90	C	1.442071	-0.119432	-0.248935
C91	C	0.945011	-0.615576	-0.675550
C92	C	1.445011	-0.115576	-0.175550
C93	C	0.971945	-0.580121	-1.006733
C94	C	1.471945	-0.080121	-0.506733
C95	C	0.969010	-0.583974	-1.080123
C96	C	1.469010	-0.083974	-0.580123
C97	C	1.058926	-0.465768	-1.083761
C98	C	1.558926	0.034232	-0.583761
C99	C	1.061864	-0.461922	-1.010375
C100	C	1.561864	0.038078	-0.510375
C101	C	1.018371	-0.519093	-0.971865
C102	C	1.518371	-0.019093	-0.471865
N103	N	0.982554	-0.566195	-0.862464
N104	N	1.482554	-0.066195	-0.362464
N105	N	1.021376	-0.515149	-0.896854
N106	N	1.521376	-0.015149	-0.396854
C107	C	1.009236	-0.531167	-0.196731
C108	C	1.509236	-0.031167	0.303269
C109	C	1.012496	-0.526801	-0.118634
C110	C	1.512496	-0.026801	0.381366
H111	H	0.273360	-0.439864	-0.308699
H112	H	0.773360	0.060136	0.191301
O113	O	0.897033	-0.678693	-0.782920
O114	O	1.397033	-0.178693	-0.282920
C115	C	0.852624	-0.736979	-0.894357
C116	C	1.352624	-0.236979	-0.394357
C117	C	0.903673	-0.669838	-0.855961
C118	C	1.403673	-0.169838	-0.355961
H119	H	0.857964	-0.729828	-0.953416
H120	H	1.357964	-0.229828	-0.453416
H121	H	0.865517	-0.814732	-0.880464
H122	H	1.365517	-0.314732	-0.380464
H123	H	0.796556	-0.716031	-0.877606
H124	H	1.296556	-0.216031	-0.377606
H125	H	0.959758	-0.690698	-0.872690
H126	H	1.459758	-0.190698	-0.372690
H127	H	0.890719	-0.592102	-0.869854
H128	H	1.390719	-0.092102	-0.369854
H129	H	0.931202	-0.633674	-1.108515
H130	H	1.431202	-0.133674	-0.608515
O131	O	0.902751	-0.671223	-0.638246
O132	O	1.402751	-0.171223	-0.138246
C133	C	0.813244	-0.788856	-0.642377
C134	C	1.313244	-0.288856	-0.142377
C135	C	0.861075	-0.725900	-0.684709
C136	C	1.361075	-0.225900	-0.184709
H137	H	0.779527	-0.833064	-0.679924
H138	H	1.279527	-0.333064	-0.179924
H139	H	0.846842	-0.839400	-0.609335
H140	H	1.346842	-0.339400	-0.109335
H141	H	0.777919	-0.740651	-0.606524
H142	H	1.277919	-0.240651	-0.106524
H143	H	0.896409	-0.774030	-0.720600
H144	H	1.396409	-0.274030	-0.220600
H145	H	0.827435	-0.675348	-0.717705
H146	H	1.327435	-0.175348	-0.217705
H147	H	0.406490	-0.447493	-0.314028
H148	H	0.906490	0.052507	0.185972
O149	O	0.599147	-0.390983	-0.274547
O150	O	1.099147	0.109017	0.225453
C151	C	0.610455	-0.264222	-0.185841
C152	C	1.110455	0.235778	0.314159
C153	C	0.648809	-0.337134	-0.236803
C154	C	1.148809	0.162866	0.263197
H155	H	0.650590	-0.220679	-0.155301
H156	H	1.150590	0.279321	0.344699
H157	H	0.574842	-0.213522	-0.216762
H158	H	1.074842	0.286478	0.283238
H159	H	0.577532	-0.304541	-0.147695
H160	H	1.077532	0.195459	0.352305
H161	H	0.681769	-0.296896	-0.274960
H162	H	1.181769	0.203104	0.225040
H163	H	0.684379	-0.387832	-0.205837
H164	H	1.184379	0.112168	0.294163
H165	H	0.737667	-0.409110	-0.287169
H166	H	1.237667	0.090890	0.212831
O167	O	0.736748	-0.652229	-0.457160
O168	O	1.236748	-0.152229	0.042840
C169	C	0.848215	-0.715522	-0.501463
C170	C	1.348215	-0.215522	-0.001463
C171	C	0.809784	-0.642648	-0.450529
C172	C	1.309784	-0.142648	0.049471
H173	H	0.907270	-0.707787	-0.496130
H174	H	1.407270	-0.207787	0.003870
H175	H	0.834316	-0.791817	-0.488447
H176	H	1.334316	-0.291817	0.011553
H177	H	0.831499	-0.700866	-0.557561
H178	H	1.331499	-0.200866	-0.057561
H179	H	0.826479	-0.657215	-0.394414
H180	H	1.326479	-0.157215	0.105586
H181	H	0.823684	-0.566376	-0.463606
H182	H	1.323684	-0.066376	0.036394
H183	H	1.094334	-0.419220	-1.115124
H184	H	1.594334	0.080780	-0.615124
H185	H	0.598017	-0.634220	-0.444619
H186	H	1.098017	-0.134220	0.055381
O187	O	0.405572	-0.690613	-0.484021
O188	O	0.905572	-0.190613	0.015979
C189	C	0.517033	-0.753913	-0.528334
C190	C	1.017033	-0.253913	-0.028334
C191	C	0.478609	-0.681035	-0.477398
C192	C	0.978609	-0.181035	0.022602
H193	H	0.576090	-0.746181	-0.523007
H194	H	1.076090	-0.246181	-0.023007
H195	H	0.503134	-0.830207	-0.515315
H196	H	1.003134	-0.330207	-0.015315
H197	H	0.500313	-0.739259	-0.584431
H198	H	1.000313	-0.239259	-0.084431
H199	H	0.495309	-0.695601	-0.421284
H200	H	0.995309	-0.195601	0.078716
H201	H	0.492509	-0.604765	-0.490478
H202	H	0.992509	-0.104765	0.009522
H203	H	0.266841	-0.672601	-0.471478
H204	H	0.766841	-0.172601	0.028522
H205	H	1.072737	-0.447683	-0.650804
H206	H	1.572737	0.052317	-0.150804
H207	H	1.067400	-0.454673	-0.783931
H208	H	1.567400	0.045327	-0.283931
H209	H	0.936540	-0.626689	-0.975387
H210	H	1.436540	-0.126689	-0.475387
H211	H	1.099671	-0.412228	-0.981986
H212	H	1.599671	0.087772	-0.481986
