data_functionalizedCrystal
_audit_creation_method	'MofGen! by Chris Wilmer'
_symmetry_space_group_name_H-M	'P1'
_symmetry_Int_Tables_number	1
_symmetry_cell_setting	triclinic
loop_
_symmetry_equiv_pos_as_xyz
  x,y,z
_cell_length_a	13.339070
_cell_length_b	14.044220
_cell_length_c	12.376457
_cell_angle_alpha	102.319698
_cell_angle_beta	75.589755
_cell_angle_gamma	104.409086
loop_
_atom_site_label
_atom_site_type_symbol
_atom_site_fract_x
_atom_site_fract_y
_atom_site_fract_z
O1	O	1.404410	0.473359	-0.094060
O2	O	1.104116	0.409471	-0.094052
O3	O	1.249753	0.302247	-0.094045
O4	O	1.258772	0.580583	-0.094067
O5	O	1.213353	0.329006	0.093966
O6	O	1.067716	0.436230	0.093959
O7	O	1.368010	0.500118	0.093950
Zn8	Zn	1.212084	0.472423	0.123805
Zn9	Zn	1.260042	0.437166	-0.123907
O10	O	1.222373	0.607343	0.093943
C11	C	1.047253	0.412059	-0.000045
C12	C	0.932047	0.379891	-0.000042
C13	C	0.589833	0.630012	-0.000080
C14	C	0.698075	0.660238	-0.000087
C15	C	0.756573	0.590154	-0.000075
C16	C	0.706819	0.489838	-0.000057
C17	C	0.598569	0.459608	-0.000059
C18	C	0.765309	0.419750	-0.000054
C19	C	0.715555	0.319434	-0.000037
C20	C	0.607315	0.289209	-0.000038
C21	C	0.548816	0.359293	-0.000049
C22	C	0.873559	0.449980	-0.000053
C23	C	0.882295	0.279576	-0.000032
C24	C	0.774053	0.249350	-0.000025
C25	C	1.227607	0.279274	-0.000039
C26	C	1.215836	0.170953	-0.000037
C27	C	1.194321	-0.027370	-0.000053
C28	C	1.277803	-0.063049	-0.000059
C29	C	1.265831	-0.173403	-0.000068
C30	C	1.206291	0.082993	-0.000044
C31	C	1.424874	0.497530	-0.000059
C32	C	1.540081	0.529697	-0.000070
C33	C	1.244519	0.630315	-0.000065
C34	C	1.256291	0.738635	-0.000074
N35	N	1.179361	0.496486	0.292862
N36	N	1.292772	0.413098	-0.292964
C37	C	1.368731	0.357221	0.647856
C38	C	1.391627	0.340378	0.529517
C39	C	1.338563	0.379403	0.470347
C40	C	1.262597	0.435275	0.529528
C41	C	1.239704	0.452127	0.647878
C42	C	1.209536	0.474309	0.470370
C43	C	1.133571	0.530180	0.529551
C44	C	1.110681	0.547029	0.647889
C45	C	1.163746	0.508003	0.707059
C46	C	1.232429	0.457457	0.352020
C47	C	1.103403	0.552362	0.352042
C48	C	1.080506	0.569206	0.470381
H49	H	0.844709	0.614769	-0.000084
N50	N	1.363253	0.361238	0.342711
H51	H	1.419426	0.319921	0.314198
H52	H	1.297035	0.324532	0.314316
N53	N	1.046155	0.594461	0.288248
H54	H	1.099128	0.640892	0.239130
H55	H	1.006422	0.538222	0.239230
N56	N	1.384387	0.006262	-0.000056
H57	H	1.377945	0.076412	-0.000048
H58	H	1.409755	0.004233	0.069643
H59	H	1.145101	0.521713	0.803420
N60	N	0.526746	0.705595	-0.000102
H61	H	0.495141	0.686922	-0.069802
H62	H	0.468194	0.706739	0.069635
N63	N	0.927208	0.558171	-0.000074
H64	H	0.892961	0.600079	0.069616
H65	H	1.004651	0.566607	-0.000117
N66	N	0.720385	0.141157	0.000002
H67	H	0.642937	0.132647	0.000003
H68	H	0.754703	0.099306	-0.069688
N69	N	0.432061	0.326693	-0.000014
H70	H	0.402555	0.386317	-0.000011
H71	H	0.421262	0.276017	-0.069702
N72	N	1.314334	0.397173	0.288200
H73	H	1.320784	0.392412	0.204252
H74	H	1.384861	0.430694	0.308861
N75	N	0.553657	0.181012	-0.000024
H76	H	0.495444	0.174594	0.069670
H77	H	0.522505	0.154816	-0.069767
H78	H	1.018654	0.614698	0.518581
H79	H	1.113864	-0.079699	-0.000053
N80	N	0.751739	0.768423	-0.000123
H81	H	0.698259	0.808235	-0.000133
H82	H	0.782972	0.794608	0.069569
H83	H	0.929925	0.222507	-0.000027
H84	H	1.453478	0.294889	0.481336
H85	H	1.411935	0.325458	0.696039
H86	H	1.048834	0.592532	0.696075
