data_functionalizedCrystal
_audit_creation_method	'MofGen! by Chris Wilmer'
_symmetry_space_group_name_H-M	'P1'
_symmetry_Int_Tables_number	1
_symmetry_cell_setting	triclinic
loop_
_symmetry_equiv_pos_as_xyz
  x,y,z
_cell_length_a	10.723023
_cell_length_b	11.026607
_cell_length_c	9.198806
_cell_angle_alpha	89.998911
_cell_angle_beta	89.996191
_cell_angle_gamma	96.526782
loop_
_atom_site_label
_atom_site_type_symbol
_atom_site_fract_x
_atom_site_fract_y
_atom_site_fract_z
O1	O	1.693992	0.170514	-0.120884
O2	O	1.334363	0.186836	-0.120887
O3	O	1.484372	0.001774	-0.120881
O4	O	1.543983	0.355576	-0.120891
O5	O	1.484356	0.001773	0.120904
O6	O	1.334347	0.186836	0.120898
O7	O	1.693977	0.170513	0.120901
Cu8	Cu	1.514161	0.178674	0.142976
Cu9	Cu	1.514179	0.178675	-0.142963
O10	O	1.543968	0.355576	0.120894
C11	C	1.287599	0.185649	0.000005
C12	C	1.148278	0.182095	0.000003
C13	C	1.086172	0.180511	-0.125249
C14	C	0.942176	0.176839	-0.125253
C15	C	1.473367	-0.043529	0.000010
C16	C	1.440583	-0.178516	0.000005
C17	C	1.531104	-0.251568	0.000003
C18	C	1.497223	-0.391084	-0.000002
C19	C	1.740740	0.171701	0.000006
C20	C	1.880062	0.175254	-0.000002
C21	C	1.554973	0.400878	0.000000
C22	C	1.587756	0.535865	-0.000004
N23	N	1.514157	0.178673	0.344090
N24	N	1.514190	0.178667	-0.344077
C25	C	1.577067	0.100628	0.416290
C26	C	1.577086	0.100624	0.583702
H27	H	1.139606	0.181880	-0.232479
H28	H	1.094845	0.180739	0.107233
H29	H	1.630909	0.033809	0.354166
H30	H	1.633684	-0.210823	0.000013
H31	H	1.630952	0.033811	0.645791
C32	C	0.867164	0.174917	0.260584
C33	C	0.952141	0.177087	0.144775
H34	H	0.911672	0.176040	0.349961
H35	H	0.822490	0.244387	0.255177
H36	H	0.809713	0.102838	0.255165
H37	H	1.009588	0.249172	0.150188
H38	H	0.996836	0.107611	0.150185
H39	H	1.460333	0.245492	0.593844
C40	C	0.911060	0.280137	-0.349880
C41	C	0.870089	0.175002	-0.270026
H42	H	0.866559	0.278998	-0.439262
H43	H	0.896036	0.350350	-0.295694
H44	H	0.998371	0.282352	-0.368858
H45	H	0.782780	0.172792	-0.251038
H46	H	0.885103	0.104771	-0.324223
H47	H	1.394636	-0.431824	-0.000013
H48	H	1.690344	-0.423397	-0.000112
C49	C	1.295340	-0.361073	-0.000001
C50	C	1.302099	-0.233507	0.000002
H51	H	1.209843	-0.395016	0.000006
H52	H	1.335790	-0.387354	-0.084313
H53	H	1.335790	-0.387361	0.084319
H54	H	1.261657	-0.207218	-0.084324
H55	H	1.261632	-0.207214	0.084323
H56	H	1.460305	0.245483	0.406216
