data_functionalizedCrystal
_audit_creation_method	'MofGen! by Chris Wilmer'
_symmetry_space_group_name_H-M	'P1'
_symmetry_Int_Tables_number	1
_symmetry_cell_setting	triclinic
loop_
_symmetry_equiv_pos_as_xyz
  x,y,z
_cell_length_a	29.839134
_cell_length_b	29.839131
_cell_length_c	17.077396
_cell_angle_alpha	89.960433
_cell_angle_beta	89.980462
_cell_angle_gamma	90.015800
loop_
_atom_site_label
_atom_site_type_symbol
_atom_site_fract_x
_atom_site_fract_y
_atom_site_fract_z
Zn1	Zn	0.686771	-0.179086	-0.443783
Zn2	Zn	0.686702	-0.254217	-0.312491
Zn3	Zn	0.611645	-0.179076	-0.312531
Zn4	Zn	0.611610	-0.254164	-0.443715
O5	O	0.649182	-0.216636	-0.378130
O6	O	0.749629	-0.189079	-0.426379
O7	O	0.676731	-0.244267	-0.202650
O8	O	0.621654	-0.116210	-0.329986
O9	O	0.749578	-0.244277	-0.329919
O10	O	0.676849	-0.116218	-0.426417
O11	O	0.621587	-0.189062	-0.202678
O12	O	0.548773	-0.189011	-0.329921
O13	O	0.621595	-0.244187	-0.553571
O14	O	0.548748	-0.244178	-0.426301
O15	O	0.676816	-0.189028	-0.553621
O16	O	0.676697	-0.317077	-0.329854
O17	O	0.621528	-0.317039	-0.426263
C18	C	0.532460	-0.216588	-0.378108
C19	C	0.482525	-0.216578	-0.378117
C20	C	0.649114	-0.333359	-0.378064
C21	C	0.649125	-0.383293	-0.378062
C22	C	0.125960	-0.187954	-0.428455
C23	C	0.313633	-0.187918	-0.428437
O24	O	0.337917	-0.163524	-0.471232
N25	N	0.337080	-0.216607	-0.378136
C26	C	0.313605	-0.245310	-0.327839
O27	O	0.337854	-0.269715	-0.285061
C28	C	0.125933	-0.245348	-0.327862
C29	C	0.102489	-0.216654	-0.378161
C30	C	0.102516	-0.159262	-0.478750
C31	C	0.055601	-0.159270	-0.478751
C32	C	0.032129	-0.187969	-0.428457
C33	C	0.055574	-0.216661	-0.378162
C34	C	0.102459	-0.274053	-0.277570
C35	C	0.055538	-0.274060	-0.277582
C36	C	0.032094	-0.245366	-0.327880
C37	C	-0.014813	-0.245368	-0.327869
N38	N	-0.038260	-0.216679	-0.378170
C39	C	-0.014788	-0.187979	-0.428464
C40	C	0.412136	-0.245287	-0.327830
C41	C	0.459054	-0.245277	-0.327823
C42	C	0.459079	-0.187886	-0.428422
C43	C	0.412160	-0.187894	-0.428424
C44	C	0.388689	-0.216598	-0.378131
C45	C	-0.113314	-0.187997	-0.428462
C46	C	-0.160234	-0.188006	-0.428456
C47	C	-0.160255	-0.245399	-0.327860
C48	C	-0.113339	-0.245389	-0.327863
C49	C	-0.089870	-0.216686	-0.378170
O50	O	-0.039126	-0.269753	-0.285102
O51	O	-0.039046	-0.163585	-0.471248
C52	C	0.172876	-0.187947	-0.428454
C53	C	0.196320	-0.216638	-0.378159
C54	C	0.172849	-0.245338	-0.327865
C55	C	0.243238	-0.216628	-0.378152
C56	C	0.266709	-0.187929	-0.428446
C57	C	0.243263	-0.159240	-0.478747
C58	C	0.196347	-0.159247	-0.478748
C59	C	0.196295	-0.274027	-0.277564
C60	C	0.243211	-0.274017	-0.277566
C61	C	0.266682	-0.245317	-0.327860
C62	C	0.677916	-0.692905	-0.428413
C63	C	0.677965	-0.880578	-0.428460
O64	O	0.702376	-0.904817	-0.471221
N65	N	0.649258	-0.904078	-0.378217
C66	C	0.620536	-0.880657	-0.327962
O67	O	0.596117	-0.904951	-0.285234
C68	C	0.620485	-0.692984	-0.327920
C69	C	0.649196	-0.669487	-0.378160
C70	C	0.706625	-0.669408	-0.478650
C71	C	0.706614	-0.622492	-0.478634
C72	C	0.677895	-0.599074	-0.428382
C73	C	0.649186	-0.622572	-0.378145
C74	C	0.591760	-0.669564	-0.277670
C75	C	0.591749	-0.622643	-0.277665
C76	C	0.620461	-0.599146	-0.327905
C77	C	0.620455	-0.552238	-0.327877
N78	N	0.649162	-0.528738	-0.378120
C79	C	0.677881	-0.552156	-0.428373
C80	C	0.620565	-0.979187	-0.327987
C81	C	0.620578	-1.026105	-0.327997
C82	C	0.678007	-1.026023	-0.428495
C83	C	0.677995	-0.979105	-0.428481
C84	C	0.649271	-0.955687	-0.378230
C85	C	0.677857	-0.453631	-0.428336
C86	C	0.677845	-0.406711	-0.428314
C87	C	0.620415	-0.406797	-0.327819
C88	C	0.620428	-0.453712	-0.327837
C89	C	0.649151	-0.477128	-0.378103
O90	O	0.596053	-0.527971	-0.285145
O91	O	0.702289	-0.527854	-0.471106
C92	C	0.677927	-0.739821	-0.428428
C93	C	0.649218	-0.763318	-0.378191
C94	C	0.620498	-0.739900	-0.327939
C95	C	0.649231	-0.810236	-0.378200
C96	C	0.677951	-0.833654	-0.428453
C97	C	0.706657	-0.810154	-0.478696
C98	C	0.706646	-0.763239	-0.478680
C99	C	0.591792	-0.763400	-0.277696
C100	C	0.591805	-0.810315	-0.277714
C101	C	0.620525	-0.833733	-0.327967
C102	C	0.766360	-0.216685	-0.378152
C103	C	0.816295	-0.216705	-0.378162
C104	C	0.649209	-0.216603	-0.582874
C105	C	0.649221	-0.216589	-0.670124
C106	C	0.649263	-0.099458	-0.378213
C107	C	0.649298	-0.049523	-0.378249
C108	C	0.677975	-0.187865	-0.711141
C109	C	0.677981	-0.187850	-0.793122
C110	C	0.649234	-0.216561	-0.834084
C111	C	0.620476	-0.245287	-0.793060
C112	C	0.620469	-0.245299	-0.711081
C113	C	0.620494	-0.245260	-0.963931
C114	C	0.620502	-0.245248	-1.045915
C115	C	0.678006	-0.187810	-1.045971
C116	C	0.677999	-0.187823	-0.963992
C117	C	0.649242	-0.216549	-0.922975
C118	C	0.649181	-0.216636	-0.174182
C119	C	0.649256	-0.216524	-0.086933
H120	H	-0.179320	-0.164637	-0.469415
N121	N	0.386824	-0.276247	-0.273579
H122	H	0.408801	-0.294416	-0.241715
H123	H	0.367352	-0.257938	-0.237314
H124	H	0.597068	-0.268663	-0.826418
H125	H	0.730026	-0.744111	-0.519591
N126	N	0.589496	-0.276205	-1.090116
H127	H	0.596440	-0.308313	-1.075840
H128	H	0.557412	-0.269173	-1.075837
H129	H	0.597203	-1.045233	-0.287077
N130	N	0.708984	-1.051286	-0.482697
H131	H	0.704633	-1.084573	-0.475075
H132	H	0.701968	-1.043064	-0.538745
H133	H	0.478197	-0.164517	-0.469372
H134	H	0.597053	-0.472845	-0.286921
H135	H	0.701421	-0.164420	-1.079372
H136	H	0.597049	-0.268685	-0.677686
N137	N	0.708987	-0.156901	-0.666967
H138	H	0.704624	-0.161270	-0.608809
H139	H	0.741066	-0.163912	-0.681310
N140	N	0.589476	-0.276240	-0.919688
H141	H	0.571267	-0.294428	-0.958075
H142	H	0.607746	-0.297043	-0.885664
H143	H	-0.094211	-0.164625	-0.469426
H144	H	0.597174	-0.960124	-0.287065
N145	N	0.030221	-0.305018	-0.223336
H146	H	0.038386	-0.337124	-0.235421
H147	H	0.038385	-0.297963	-0.167295
H148	H	0.036517	-0.135906	-0.519713
N149	N	0.560770	-0.597383	-0.223464
H150	H	0.528669	-0.605559	-0.235608
H151	H	0.567805	-0.605583	-0.167413
N152	N	0.127827	-0.128307	-0.533003
H153	H	0.105849	-0.110135	-0.564861
H154	H	0.147286	-0.107487	-0.501119
H155	H	0.730012	-0.688470	-0.519576
N156	N	0.127738	-0.305001	-0.223316
H157	H	0.105743	-0.323181	-0.191464
H158	H	0.147209	-0.325811	-0.255196
N159	N	-0.088050	-0.276331	-0.273605
H160	H	-0.110040	-0.294512	-0.241742
H161	H	-0.068581	-0.297143	-0.305489
H162	H	0.478138	-0.268638	-0.286856
H163	H	0.568380	-0.688687	-0.236758
N164	N	-0.185575	-0.276349	-0.273610
H165	H	-0.218854	-0.271998	-0.281250
H166	H	-0.177377	-0.308442	-0.285720
N167	N	0.737576	-0.597151	-0.532830
H168	H	0.769681	-0.605307	-0.520698
H169	H	0.730539	-0.605308	-0.588882
H170	H	0.701410	-0.164446	-0.930643
H171	H	0.393075	-0.164528	-0.469381
H172	H	0.701397	-0.164461	-0.826515
N173	N	0.589442	-0.381534	-0.273615
H174	H	0.593794	-0.348247	-0.281235
H175	H	0.557355	-0.389744	-0.285784
N176	N	0.171064	-0.128294	-0.532993
H177	H	0.193058	-0.110114	-0.564847
H178	H	0.151602	-0.146605	-0.569266
N179	N	0.268583	-0.128289	-0.533001
H180	H	0.301861	-0.132643	-0.525365
H181	H	0.260392	-0.135328	-0.589037
H182	H	0.262295	-0.297383	-0.236599
H183	H	0.177190	-0.297399	-0.236608
H184	H	0.701242	-0.472690	-0.469272
N185	N	0.708811	-0.381365	-0.482505
H186	H	0.740916	-0.389521	-0.470370
H187	H	0.701777	-0.389516	-0.538560
N188	N	0.708962	-0.953763	-0.482669
H189	H	0.727157	-0.975722	-0.514501
H190	H	0.690658	-0.934291	-0.518966
H191	H	0.730043	-0.829230	-0.519610
N192	N	0.560839	-0.835656	-0.223517
H193	H	0.542645	-0.813697	-0.191684
H194	H	0.540042	-0.855116	-0.255443
N195	N	0.560816	-0.738145	-0.223489
H196	H	0.542635	-0.760155	-0.191666
H197	H	0.579112	-0.718690	-0.187185
