data_functionalizedCrystal
_audit_creation_method	'MofGen! by Chris Wilmer'
_symmetry_space_group_name_H-M	'P1'
_symmetry_Int_Tables_number	1
_symmetry_cell_setting	triclinic
loop_
_symmetry_equiv_pos_as_xyz
  x,y,z
_cell_length_a	12.759395
_cell_length_b	12.759394
_cell_length_c	12.759393
_cell_angle_alpha	89.968780
_cell_angle_beta	89.978726
_cell_angle_gamma	90.015525
loop_
_atom_site_label
_atom_site_type_symbol
_atom_site_fract_x
_atom_site_fract_y
_atom_site_fract_z
Zn1	Zn	1.606266	-0.418196	-0.594024
Zn2	Zn	2.106266	0.081804	-0.094024
Zn3	Zn	1.606157	-0.593912	-0.418342
Zn4	Zn	2.106157	-0.093912	0.081658
Zn5	Zn	1.430565	-0.418250	-0.418358
Zn6	Zn	1.930565	0.081750	0.081642
Zn7	Zn	1.430556	-0.593836	-0.593978
Zn8	Zn	1.930556	-0.093836	-0.093978
O9	O	1.518386	-0.506049	-0.506176
O10	O	2.018386	-0.006049	-0.006176
O11	O	1.753273	-0.441515	-0.570732
O12	O	2.253273	0.058485	-0.070732
O13	O	1.582822	-0.570664	-0.271323
O14	O	2.082822	-0.070664	0.228677
O15	O	1.453921	-0.271222	-0.441687
O16	O	1.953921	0.228778	0.058313
O17	O	1.753192	-0.570612	-0.441659
O18	O	2.253192	-0.070612	0.058341
O19	O	1.583008	-0.271182	-0.570748
O20	O	2.083008	0.228818	-0.070748
O21	O	1.453815	-0.441606	-0.271335
O22	O	1.953815	0.058394	0.228665
O23	O	1.283543	-0.441532	-0.441642
O24	O	1.783543	0.058468	0.058358
O25	O	1.453907	-0.570483	-0.741006
O26	O	1.953907	-0.070483	-0.241006
O27	O	1.283536	-0.570535	-0.570670
O28	O	1.783536	-0.070535	-0.070670
O29	O	1.583000	-0.441441	-0.741039
O30	O	2.083000	0.058559	-0.241039
O31	O	1.582814	-0.740923	-0.441615
O32	O	2.082814	-0.240923	0.058385
O33	O	1.453801	-0.740867	-0.570654
O34	O	1.953801	-0.240867	-0.070654
C35	C	1.245418	-0.506032	-0.506153
C36	C	1.745418	-0.006032	-0.006153
C37	C	1.128642	-0.506050	-0.506169
C38	C	1.628642	-0.006050	-0.006169
C39	C	0.909250	-0.640621	-0.640347
C40	C	1.409250	-0.140621	-0.140347
C41	C	0.964138	-0.707885	-0.707412
C42	C	1.464138	-0.207885	-0.207412
C43	C	1.073860	-0.707873	-0.707398
C44	C	1.573860	-0.207873	-0.207398
C45	C	1.128696	-0.640591	-0.640311
C46	C	1.628696	-0.140591	-0.140311
C47	C	1.073808	-0.573327	-0.573247
C48	C	1.573808	-0.073327	-0.073247
C49	C	0.964084	-0.573345	-0.573270
C50	C	1.464084	-0.073345	-0.073270
C51	C	1.073754	-0.438786	-0.439104
C52	C	1.573754	0.061214	0.060896
C53	C	0.964032	-0.438792	-0.439121
C54	C	1.464032	0.061208	0.060879
C55	C	1.128590	-0.371504	-0.372017
C56	C	1.628590	0.128496	0.127983
C57	C	1.073702	-0.304233	-0.304956
C58	C	1.573702	0.195767	0.195044
C59	C	0.963974	-0.304248	-0.304973
C60	C	1.463974	0.195752	0.195027
C61	C	0.909144	-0.371528	-0.372057
C62	C	1.409144	0.128472	0.127943
C63	C	1.518323	-0.779016	-0.506150
C64	C	2.018323	-0.279016	-0.006150
C65	C	1.518392	-0.895793	-0.506175
C66	C	2.018392	-0.395793	-0.006175
C67	C	1.652834	-0.895797	-0.371907
C68	C	2.152834	-0.395797	0.128093
C69	C	1.720082	-0.950661	-0.304785
C70	C	2.220082	-0.450661	0.195215
C71	C	1.720144	-1.060382	-0.304814
C72	C	2.220144	-0.560382	0.195186
C73	C	1.652952	-1.115243	-0.371973
C74	C	2.152952	-0.615243	0.128027
C75	C	1.585704	-1.060380	-0.439095
C76	C	2.085704	-0.560380	0.060905
C77	C	1.585647	-0.950656	-0.439057
C78	C	2.085647	-0.450656	0.060943
C79	C	1.451269	-1.060375	-0.573366
C80	C	1.951269	-0.560375	-0.073366
C81	C	1.451200	-0.950654	-0.573334
C82	C	1.951200	-0.450654	-0.073334
C83	C	1.384077	-1.115236	-0.640526
C84	C	1.884077	-0.615236	-0.140526
C85	C	1.316822	-1.060373	-0.707644
C86	C	1.816822	-0.560373	-0.207644
C87	C	1.316762	-0.950645	-0.707612
C88	C	1.816762	-0.450645	-0.207612
C89	C	1.383952	-0.895790	-0.640456
C90	C	1.883952	-0.395790	-0.140456
C91	C	1.792419	-0.506066	-0.506199
C92	C	2.292419	-0.006066	-0.006199
C93	C	1.909196	-0.506074	-0.506209
C94	C	2.409196	-0.006074	-0.006209
C95	C	1.518465	-0.505948	-0.780209
C96	C	2.018465	-0.005948	-0.280209
C97	C	1.518498	-0.505905	-0.896986
C98	C	2.018498	-0.005905	-0.396986
C99	C	1.518478	-0.232015	-0.506224
C100	C	2.018478	0.267985	-0.006224
C101	C	1.518517	-0.115238	-0.506245
C102	C	2.018517	0.384762	-0.006245
C103	C	1.585722	-0.438702	-0.951867
C104	C	2.085722	0.061298	-0.451867
C105	C	1.585740	-0.438657	-1.061591
C106	C	2.085740	0.061343	-0.561591
C107	C	1.451307	-0.573026	-1.061543
C108	C	1.951307	-0.073026	-0.561543
C109	C	1.451285	-0.573065	-0.951821
C110	C	1.951285	-0.073065	-0.451821
C111	C	1.518368	-0.506073	-0.233208
C112	C	2.018368	-0.006073	0.266792
C113	C	1.518538	-0.505820	-0.116432
C114	C	2.018538	-0.005820	0.383568
H115	H	0.819909	-0.640628	-0.640376
H116	H	1.319909	-0.140628	-0.140376
H117	H	0.819803	-0.371542	-0.372082
H118	H	1.319803	0.128458	0.127918
Cl119	Cl	1.142865	-0.792439	-0.791703
Cl120	Cl	1.642865	-0.292439	-0.291703
Cl121	Cl	0.895197	-0.792479	-0.791731
Cl122	Cl	1.395197	-0.292479	-0.291731
H123	H	1.218037	-0.640595	-0.640297
H124	H	1.718037	-0.140595	-0.140297
H125	H	1.217931	-0.371503	-0.372006
H126	H	1.717931	0.128497	0.127994
H127	H	1.640449	-0.384013	-0.907224
H128	H	2.140449	0.115987	-0.407224
Cl129	Cl	1.232369	-1.129345	-0.792070
Cl130	Cl	1.732369	-0.629345	-0.292070
Cl131	Cl	1.804690	-1.129356	-0.220437
Cl132	Cl	2.304690	-0.629356	0.279563
H133	H	1.383903	-0.806449	-0.640416
H134	H	1.883903	-0.306449	-0.140416
Cl135	Cl	1.232222	-0.881683	-0.792004
Cl136	Cl	1.732222	-0.381683	-0.292004
Cl137	Cl	1.670263	-0.354178	-1.130580
Cl138	Cl	2.170263	0.145822	-0.630580
H139	H	1.653017	-1.204584	-0.372000
H140	H	2.153017	-0.704584	0.128000
H141	H	1.396586	-0.627708	-1.106204
H142	H	1.896586	-0.127708	-0.606204
Cl143	Cl	1.366761	-0.657550	-0.882822
Cl144	Cl	1.866761	-0.157550	-0.382822
H145	H	1.118358	-0.249462	-0.250334
H146	H	1.618358	0.250538	0.249666
H147	H	0.919291	-0.249474	-0.250360
H148	H	1.419291	0.250526	0.249640
Cl149	Cl	1.383710	-1.253172	-0.640117
Cl150	Cl	1.883710	-0.753172	-0.140117
H151	H	1.774792	-0.905983	-0.250106
H152	H	2.274792	-0.405983	0.249894
Cl153	Cl	1.653057	-0.757861	-0.372161
Cl154	Cl	2.153057	-0.257861	0.127839
