data_functionalizedCrystal
_audit_creation_method	'MofGen! by Chris Wilmer'
_symmetry_space_group_name_H-M	'P1'
_symmetry_Int_Tables_number	1
_symmetry_cell_setting	triclinic
loop_
_symmetry_equiv_pos_as_xyz
  x,y,z
_cell_length_a	10.654546
_cell_length_b	10.654550
_cell_length_c	9.730223
_cell_angle_alpha	90.000193
_cell_angle_beta	89.998519
_cell_angle_gamma	95.515946
loop_
_atom_site_label
_atom_site_type_symbol
_atom_site_fract_x
_atom_site_fract_y
_atom_site_fract_z
O1	O	1.667837	-0.176368	-0.114327
O2	O	1.302358	-0.193180	-0.114320
O3	O	1.493501	-0.002035	-0.114319
O4	O	1.476694	-0.367514	-0.114329
O5	O	1.493498	-0.002040	0.114261
O6	O	1.302356	-0.193185	0.114260
O7	O	1.667835	-0.176373	0.114253
Zn8	Zn	1.485095	-0.184780	0.150548
Zn9	Zn	1.485098	-0.184773	-0.150616
O10	O	1.476692	-0.367518	0.114251
C11	C	1.255559	-0.191949	-0.000030
C12	C	1.116115	-0.188259	-0.000027
N13	N	1.485102	-0.184783	0.356085
C14	C	1.492265	0.044761	-0.000030
C15	C	1.488574	0.184204	-0.000035
C16	C	1.714634	-0.177604	-0.000041
C17	C	1.854077	-0.181294	-0.000052
C18	C	2.050624	-0.186512	-0.124633
C19	C	1.919603	-0.183034	-0.124647
C20	C	1.919577	-0.183045	0.124564
C21	C	2.050594	-0.186532	0.124576
C22	C	2.050639	-0.186500	-0.268513
C23	C	1.919618	-0.183022	-0.268527
C24	C	1.477927	-0.414314	-0.000040
C25	C	1.481619	-0.553757	-0.000044
C26	C	1.601115	0.263691	-0.000033
C27	C	1.597639	0.394712	-0.000043
C28	C	1.369069	0.366745	-0.000051
C29	C	1.372547	0.235727	-0.000051
C30	C	1.733078	0.279839	-0.000022
C31	C	1.729602	0.410860	-0.000032
N32	N	1.485100	-0.184760	-0.356152
C33	C	1.569762	-0.100173	0.428011
C34	C	1.569759	-0.100158	0.571894
C35	C	1.400431	-0.269374	0.571911
C36	C	1.400430	-0.269382	0.428031
C37	C	1.667526	-0.002481	0.428003
C38	C	1.667522	-0.002466	0.571886
H39	H	1.866214	-0.181640	0.226011
C40	C	1.783484	0.472545	-0.133349
C41	C	1.699837	0.547740	-0.225152
C42	C	1.753716	0.609431	-0.358463
C43	C	1.891243	0.595927	-0.399972
C44	C	1.974898	0.520728	-0.308167
C45	C	1.921019	0.459037	-0.174856
H46	H	1.598024	0.557740	-0.194426
H47	H	1.691787	0.665098	-0.426423
H48	H	1.931127	0.641594	-0.498657
H49	H	2.076711	0.510729	-0.338893
H50	H	1.982948	0.403371	-0.106896
H51	H	1.637009	0.088756	0.616504
C52	C	1.789854	0.231698	0.133300
C53	C	1.727391	0.254394	0.272674
C54	C	1.784165	0.206254	0.405998
C55	C	1.903402	0.135417	0.399948
C56	C	1.965872	0.112717	0.260569
C57	C	1.909098	0.160858	0.127245
H58	H	1.639118	0.306835	0.277157
H59	H	1.737919	0.223058	0.509176
H60	H	1.945430	0.099780	0.498643
H61	H	2.054145	0.060276	0.256086
H62	H	1.955344	0.144053	0.024068
C63	C	2.120528	-0.065677	-0.328811
C64	C	2.265518	-0.051977	-0.337424
C65	C	2.335409	0.068848	-0.397715
C66	C	2.260311	0.175973	-0.449394
C67	C	2.115312	0.162276	-0.440783
C68	C	2.045421	0.041451	-0.380492
H69	H	2.321118	-0.131280	-0.299166
H70	H	2.442747	0.078987	-0.404089
H71	H	2.312048	0.265415	-0.494025
H72	H	2.059712	0.241579	-0.479041
H73	H	1.938083	0.031312	-0.374118
H74	H	2.103911	-0.187969	0.226042
H75	H	1.758709	-0.033068	0.383374
C76	C	2.084180	-0.306296	-0.343135
C77	C	2.046566	-0.328332	-0.494659
C78	C	2.080107	-0.448126	-0.569277
C79	C	2.151262	-0.545884	-0.492373
C80	C	2.188879	-0.523851	-0.340841
C81	C	2.155338	-0.404057	-0.266222
H82	H	1.993890	-0.255963	-0.551595
H83	H	2.052260	-0.464435	-0.681452
H84	H	2.176090	-0.634562	-0.547610
H85	H	2.241556	-0.596220	-0.283904
H86	H	2.183186	-0.387747	-0.154048
H87	H	1.331493	-0.338251	0.630505
C88	C	1.248747	0.148293	-0.000062
C89	C	1.153998	0.154778	-0.118765
C90	C	1.030191	0.067345	-0.118776
C91	C	1.001134	-0.026573	-0.000084
C92	C	1.095886	-0.033063	0.118628
C93	C	1.219692	0.054371	0.118638
H94	H	1.175505	0.224306	-0.206636
H95	H	0.960050	0.072149	-0.206654
H96	H	0.909485	-0.091297	-0.000092
H97	H	1.074378	-0.102590	0.206499
H98	H	1.289833	0.049566	0.206517
C99	C	1.241445	0.423426	-0.000060
C100	C	1.147633	0.393881	0.118632
C101	C	1.020006	0.450559	0.118624
C102	C	0.986192	0.536783	-0.000076
C103	C	1.080006	0.566332	-0.118777
C104	C	1.207633	0.509654	-0.118769
H105	H	1.172663	0.330049	0.206509
H106	H	0.950559	0.428684	0.206495
H107	H	0.891715	0.578739	-0.000082
H108	H	1.054977	0.630164	-0.206653
H109	H	1.277080	0.531529	-0.206640
H110	H	1.867906	-0.272461	-0.313186
H111	H	1.894805	-0.094339	-0.323768
H112	H	1.784695	0.250484	-0.095677
H113	H	1.779323	0.452619	0.095626
H114	H	1.764034	-0.023983	0.610934
H115	H	1.331482	-0.338267	0.369469
H116	H	1.646083	0.094051	0.388952
