data_functionalizedCrystal
_audit_creation_method	'MofGen! by Chris Wilmer'
_symmetry_space_group_name_H-M	'P1'
_symmetry_Int_Tables_number	1
_symmetry_cell_setting	triclinic
loop_
_symmetry_equiv_pos_as_xyz
  x,y,z
_cell_length_a	16.992695
_cell_length_b	16.992694
_cell_length_c	9.130313
_cell_angle_alpha	90.002155
_cell_angle_beta	89.995176
_cell_angle_gamma	90.668223
loop_
_atom_site_label
_atom_site_type_symbol
_atom_site_fract_x
_atom_site_fract_y
_atom_site_fract_z
O1	O	0.166916	1.050849	-0.121617
O2	O	0.666916	1.550849	0.378383
O3	O	0.165085	0.822449	-0.121660
O4	O	0.665085	1.322449	0.378340
O5	O	0.051801	0.935734	-0.121627
O6	O	0.551801	1.435734	0.378373
O7	O	0.280201	0.937565	-0.121650
O8	O	0.780201	1.437565	0.378350
O9	O	0.051797	0.935725	0.121972
O10	O	0.551797	1.435725	0.621972
O11	O	0.165081	0.822441	0.121939
O12	O	0.665081	1.322441	0.621939
O13	O	0.166912	1.050841	0.121982
O14	O	0.666912	1.550841	0.621982
Cu15	Cu	0.165996	0.936640	0.144203
Cu16	Cu	0.665996	1.436640	0.644203
Cu17	Cu	0.166001	0.936650	-0.143881
Cu18	Cu	0.666001	1.436650	0.356119
O19	O	0.280197	0.937557	0.121949
O20	O	0.780197	1.437557	0.621949
C21	C	0.162727	0.793085	0.000134
C22	C	0.662727	1.293085	0.500134
C23	C	0.155699	0.705600	0.000118
C24	C	0.655699	1.205600	0.500118
C25	C	0.223517	0.659610	0.000112
C26	C	0.723517	1.159610	0.500112
C27	C	0.216908	0.577409	0.000133
C28	C	0.716908	1.077409	0.500133
C29	C	0.142480	0.541201	0.000149
C30	C	0.642480	1.041201	0.500149
C31	C	0.074657	0.587198	0.000159
C32	C	0.574657	1.087198	0.500159
C33	C	0.081267	0.669397	0.000148
C34	C	0.581267	1.169397	0.500148
C35	C	0.115086	0.295886	0.000191
C36	C	0.615086	0.795886	0.500191
C37	C	0.108481	0.213681	0.000197
C38	C	0.608481	0.713681	0.500197
C39	C	0.250732	0.203898	0.000173
C40	C	0.750732	0.703898	0.500173
C41	C	0.257336	0.286099	0.000154
C42	C	0.757336	0.786099	0.500154
C43	C	0.189512	0.332089	0.000172
C44	C	0.689512	0.832089	0.500172
N45	N	0.135723	0.457178	0.000166
N46	N	0.635723	0.957178	0.500166
N47	N	0.196270	0.416110	0.000166
N48	N	0.696270	0.916110	0.500166
C49	C	0.022439	0.933374	0.000172
C50	C	0.522439	1.433374	0.500172
C51	C	-0.065046	0.926345	0.000170
C52	C	0.434954	1.426345	0.500170
C53	C	-0.111037	0.994163	0.000184
C54	C	0.388963	1.494163	0.500184
C55	C	-0.193238	0.987554	0.000169
C56	C	0.306762	1.487554	0.500169
C57	C	-0.229446	0.913127	0.000150
C58	C	0.270554	1.413127	0.500150
C59	C	-0.183449	0.845303	0.000131
C60	C	0.316551	1.345303	0.500131
C61	C	-0.101250	0.851913	0.000136
C62	C	0.398750	1.351913	0.500136
C63	C	-0.474760	0.885732	0.000125
C64	C	0.025240	1.385732	0.500125
C65	C	-0.556966	0.879127	0.000124
C66	C	-0.056966	1.379127	0.500124
C67	C	-0.566749	1.021379	0.000159
C68	C	-0.066749	1.521379	0.500159
C69	C	-0.484547	1.027982	0.000173
C70	C	0.015453	1.527982	0.500173
C71	C	-0.438558	0.960159	0.000146
C72	C	0.061442	1.460159	0.500146
N73	N	-0.313468	0.906369	0.000139
N74	N	0.186532	1.406369	0.500139
N75	N	-0.354537	0.966917	0.000147
N76	N	0.145463	1.466917	0.500147
C77	C	0.309559	0.939917	0.000147
C78	C	0.809559	1.439917	0.500147
C79	C	0.397044	0.946945	0.000139
C80	C	0.897044	1.446945	0.500139
C81	C	0.169270	1.080205	0.000184
C82	C	0.669270	1.580205	0.500184
C83	C	0.176299	1.167690	0.000191
C84	C	0.676299	1.667690	0.500191
N85	N	0.165993	0.936639	0.346825
N86	N	0.665993	1.436639	0.846825
N87	N	0.165999	0.936657	-0.346504
N88	N	0.665999	1.436657	0.153496
C89	C	0.115854	0.986821	0.423492
C90	C	0.615854	1.486821	0.923492
C91	C	0.115855	0.986828	0.576829
C92	C	0.615855	1.486828	1.076829
C93	C	0.216140	0.886470	0.576819
C94	C	0.716140	1.386470	1.076819
C95	C	0.216135	0.886459	0.423485
C96	C	0.716135	1.386459	0.923485
H97	H	0.272133	0.539966	0.000126
H98	H	0.772133	1.039966	0.500126
N99	N	0.270230	0.832358	0.659495
N100	N	0.770230	1.332358	1.159495
H101	H	0.257629	0.775920	0.632827
H102	H	0.757629	1.275920	1.132827
H103	H	0.262606	0.840046	0.768240
H104	H	0.762606	1.340046	1.268240
H105	H	0.256964	0.845592	0.361059
H106	H	0.756964	1.345592	0.861059
N107	N	0.337611	0.325151	0.000109
N108	N	0.837611	0.825151	0.500109
H109	H	0.379572	0.283542	0.000102
H110	H	0.879572	0.783542	0.500102
H111	H	0.343460	0.359053	0.090401
H112	H	0.843460	0.859053	0.590401
H113	H	0.075025	1.027679	0.361079
H114	H	0.575025	1.527679	0.861079
N115	N	-0.005616	0.548140	0.000193
N116	N	0.494384	1.048140	0.500193
H117	H	-0.011530	0.514250	-0.090104
H118	H	0.488470	1.014250	0.409896
H119	H	-0.047530	0.589793	0.000257
H120	H	0.452470	1.089793	0.500257
H121	H	-0.437325	0.830505	0.000104
H122	H	0.062675	1.330505	0.500104
H123	H	-0.230680	1.042779	0.000184
H124	H	0.269320	1.542779	0.500184
N125	N	0.303793	0.698660	0.000077
N126	N	0.803793	1.198660	0.500077
H127	H	0.345751	0.657049	0.000078
H128	H	0.845751	1.157049	0.500078
H129	H	0.309636	0.732558	0.090375
H130	H	0.809636	1.232558	0.590375
N131	N	0.323881	0.154296	0.000157
N132	N	0.823881	0.654296	0.500157
H133	H	0.308403	0.096729	0.000167
H134	H	0.808403	0.596729	0.500167
H135	H	0.356093	0.166533	0.090457
H136	H	0.856093	0.666533	0.590457
N137	N	0.028202	0.174625	0.000205
N138	N	0.528202	0.674625	0.500205
H139	H	-0.013762	0.216231	0.000216
H140	H	0.486238	0.716231	0.500216
H141	H	0.022364	0.140733	0.090509
H142	H	0.522364	0.640733	0.590509
H143	H	0.059859	0.333322	0.000206
H144	H	0.559859	0.833322	0.500206
H145	H	-0.063804	0.796688	0.000124
H146	H	0.436196	1.296688	0.500124
H147	H	0.026042	0.706842	0.000152
H148	H	0.526042	1.206842	0.500152
H149	H	-0.081563	1.054770	0.000209
H150	H	0.418437	1.554770	0.500209
N151	N	-0.596017	0.798846	0.000095
N152	N	-0.096017	1.298846	0.500095
H153	H	-0.629902	0.792944	-0.090205
H154	H	-0.129902	1.292944	0.409795
H155	H	-0.629863	0.792979	0.090459
H156	H	-0.129863	1.292979	0.590459
N157	N	-0.445508	1.108264	0.000190
N158	N	0.054492	1.608264	0.500190
H159	H	-0.461951	1.138208	-0.090108
H160	H	0.038049	1.638208	0.409892
H161	H	-0.386465	1.102103	0.000249
H162	H	0.113535	1.602103	0.500249
N163	N	-0.616357	1.094523	0.000186
N164	N	-0.116357	1.594523	0.500186
H165	H	-0.650674	1.094956	-0.090118
H166	H	-0.150674	1.594956	0.409882
H167	H	-0.580896	1.142635	0.000254
H168	H	-0.080896	1.642635	0.500254
H169	H	-0.212936	0.784703	0.000107
H170	H	0.287064	1.284703	0.500107
N171	N	0.061788	1.040964	0.659521
N172	N	0.561788	1.540964	1.159521
H173	H	0.030030	1.072752	0.587685
H174	H	0.530030	1.572752	1.087685
H175	H	0.094143	1.077648	0.723115
H176	H	0.594143	1.577648	1.223115
