data_functionalizedCrystal
_audit_creation_method	'MofGen! by Chris Wilmer'
_symmetry_space_group_name_H-M	'P1'
_symmetry_Int_Tables_number	1
_symmetry_cell_setting	triclinic
loop_
_symmetry_equiv_pos_as_xyz
  x,y,z
_cell_length_a	14.971486
_cell_length_b	15.944551
_cell_length_c	13.448316
_cell_angle_alpha	89.992444
_cell_angle_beta	89.998199
_cell_angle_gamma	83.556434
loop_
_atom_site_label
_atom_site_type_symbol
_atom_site_fract_x
_atom_site_fract_y
_atom_site_fract_z
O1	O	1.186829	0.109463	-0.082580
O2	O	1.686829	0.609463	0.417420
O3	O	0.926415	0.122572	-0.082607
O4	O	1.426415	0.622572	0.417393
O5	O	1.063733	-0.006250	-0.082584
O6	O	1.563733	0.493750	0.417416
O7	O	1.049511	0.238286	-0.082603
O8	O	1.549511	0.738286	0.417397
O9	O	1.063716	-0.006258	0.082800
O10	O	1.563716	0.493742	0.582800
O11	O	0.926398	0.122564	0.082777
O12	O	1.426398	0.622564	0.582777
O13	O	1.186812	0.109456	0.082804
O14	O	1.686812	0.609456	0.582804
Cu15	Cu	1.056603	0.116009	0.097891
Cu16	Cu	1.556603	0.616009	0.597891
Cu17	Cu	1.056624	0.116018	-0.097694
Cu18	Cu	1.556624	0.616018	0.402306
O19	O	1.049494	0.238278	0.082781
O20	O	1.549494	0.738278	0.582781
C21	C	0.893082	0.121982	0.000081
C22	C	1.393082	0.621982	0.500081
C23	C	0.793787	0.120225	0.000071
C24	C	1.293787	0.620225	0.500071
C25	C	0.736480	0.195904	0.000067
C26	C	1.236480	0.695904	0.500067
C27	C	0.643182	0.194249	0.000082
C28	C	1.143182	0.694249	0.500082
C29	C	0.607194	0.116913	0.000094
C30	C	1.107194	0.616913	0.500094
C31	C	0.664508	0.041227	0.000102
C32	C	1.164508	0.541227	0.500102
C33	C	0.757804	0.042884	0.000094
C34	C	1.257804	0.542884	0.500094
C35	C	0.470049	0.037780	0.000116
C36	C	0.970049	0.537780	0.500116
C37	C	0.376747	0.036123	0.000122
C38	C	0.876747	0.536123	0.500122
C39	C	0.355428	0.189145	0.000104
C40	C	0.855428	0.689145	0.500104
C41	C	0.448724	0.190801	0.000096
C42	C	0.948724	0.690801	0.500096
C43	C	0.506032	0.115116	0.000101
C44	C	1.006032	0.615116	0.500101
C45	C	1.063134	-0.037549	0.000108
C46	C	1.563134	0.462451	0.500108
C47	C	1.061364	-0.130797	0.000109
C48	C	1.561364	0.369203	0.500109
C49	C	0.972017	-0.345738	0.000086
C50	C	1.472017	0.154262	0.500086
C51	C	1.013498	-0.406720	0.081634
C52	C	1.513498	0.093280	0.581634
C53	C	1.058162	-0.301526	0.000101
C54	C	1.558162	0.198474	0.500101
C55	C	1.013536	-0.406696	-0.081421
C56	C	1.513536	0.093304	0.418579
C57	C	1.055062	-0.466441	0.000089
C58	C	1.555062	0.033559	0.500089
C59	C	1.099667	-0.361279	0.081717
C60	C	1.599667	0.138721	0.581717
C61	C	1.099692	-0.361248	-0.081412
C62	C	1.599692	0.138752	0.418588
C63	C	1.141236	-0.422212	0.000156
C64	C	1.641236	0.077788	0.500156
C65	C	1.059945	-0.206522	0.000109
C66	C	1.559945	0.293478	0.500109
C67	C	1.053286	-0.561444	0.000088
C68	C	1.553286	-0.061444	0.500088
C69	C	1.220145	0.110046	0.000113
C70	C	1.720145	0.610046	0.500113
C71	C	1.319440	0.111802	0.000117
C72	C	1.819440	0.611802	0.500117
C73	C	1.050093	0.269576	0.000087
C74	C	1.550093	0.769576	0.500087
C75	C	1.051863	0.362824	0.000080
C76	C	1.551863	0.862824	0.500080
N77	N	1.056595	0.116002	0.235456
N78	N	1.556595	0.616002	0.735456
N79	N	1.056639	0.116019	-0.235258
N80	N	1.556639	0.616019	0.264742
C81	C	1.117419	0.058983	0.287506
C82	C	1.617419	0.558983	0.787506
C83	C	1.117425	0.058982	0.391610
C84	C	1.617425	0.558982	0.891610
C85	C	1.056610	0.116005	0.443660
C86	C	1.556610	0.616005	0.943660
C87	C	0.995780	0.173027	0.391602
C88	C	1.495780	0.673027	0.891602
C89	C	0.995771	0.173023	0.287501
C90	C	1.495771	0.673023	0.787501
C91	C	0.995805	0.173033	0.608582
C92	C	1.495805	0.673033	1.108582
C93	C	0.995815	0.173038	0.712691
C94	C	1.495815	0.673038	1.212691
C95	C	1.117459	0.058992	0.712691
C96	C	1.617459	0.558992	1.212691
C97	C	1.117449	0.058988	0.608590
C98	C	1.617449	0.558988	1.108590
C99	C	1.056620	0.116011	0.556539
C100	C	1.556620	0.616011	1.056539
H101	H	0.478022	0.253775	0.000076
H102	H	0.978022	0.753775	0.500076
H103	H	0.946260	0.219453	0.433988
H104	H	1.446260	0.719453	0.933988
H105	H	0.308763	0.250771	0.000103
H106	H	0.808763	0.750771	0.500103
H107	H	0.946269	0.219464	0.566206
H108	H	1.446269	0.719464	1.066206
H109	H	0.516708	-0.023852	0.000122
H110	H	1.016708	0.476148	0.500122
H111	H	0.596526	0.255875	0.000077
H112	H	1.096526	0.755875	0.500077
C113	C	0.875421	-0.300826	0.000187
C114	C	1.375421	0.199174	0.500187
N115	N	0.802668	-0.266995	0.000269
N116	N	1.302668	0.233005	0.500269
C117	C	1.148836	-0.334233	0.174961
C118	C	1.648836	0.165767	0.674961
N119	N	1.185866	-0.313859	0.245194
N120	N	1.685866	0.186141	0.745194
C121	C	1.237917	-0.466925	0.000231
C122	C	1.737917	0.033075	0.500231
N123	N	1.310735	-0.500605	0.000293
N124	N	1.810735	-0.000605	0.500293
C125	C	1.148882	-0.333998	-0.174546
C126	C	1.648882	0.166002	0.325454
N127	N	1.185926	-0.313470	-0.244703
N128	N	1.685926	0.186530	0.255297
H129	H	0.635199	-0.021741	0.000126
H130	H	1.135199	0.478259	0.500126
H131	H	0.347448	-0.026851	0.000133
H132	H	0.847448	0.473149	0.500133
H133	H	0.804463	-0.018742	0.000097
H134	H	1.304463	0.481258	0.500097
C135	C	0.928868	0.235755	0.230246
C136	C	1.428868	0.735755	0.730246
N137	N	0.878474	0.283007	0.187122
N138	N	1.378474	0.783007	0.687122
C139	C	1.184320	-0.003749	0.230260
C140	C	1.684320	0.496251	0.730260
N141	N	1.234710	-0.051003	0.187145
N142	N	1.734710	0.448997	0.687145
H143	H	0.977096	-0.426804	-0.150369
H144	H	1.477096	0.073196	0.349631
C145	C	1.184314	-0.003764	0.448861
C146	C	1.684314	0.496236	0.948861
N147	N	1.234690	-0.051034	0.491981
N148	N	1.734690	0.448966	0.991981
C149	C	0.776058	0.280982	0.000055
C150	C	1.276058	0.780982	0.500055
N151	N	0.805866	0.345064	0.000050
N152	N	1.305866	0.845064	0.500050
H153	H	0.977055	-0.426866	0.150570
H154	H	1.477055	0.073134	0.650570
H155	H	1.166973	0.012560	0.566210
H156	H	1.666973	0.512560	1.066210
C157	C	1.184368	-0.003737	0.769949
C158	C	1.684368	0.496263	1.269949
N159	N	1.234764	-0.050982	0.813080
N160	N	1.734764	0.449018	1.313080
C161	C	0.928911	0.235761	0.769945
C162	C	1.428911	0.735761	1.269945
N163	N	0.878517	0.283004	0.813068
N164	N	1.378517	0.783004	1.313068
