data_functionalizedCrystal
_audit_creation_method	'MofGen! by Chris Wilmer'
_symmetry_space_group_name_H-M	'P1'
_symmetry_Int_Tables_number	1
_symmetry_cell_setting	triclinic
loop_
_symmetry_equiv_pos_as_xyz
  x,y,z
_cell_length_a	15.538191
_cell_length_b	19.188930
_cell_length_c	14.185569
_cell_angle_alpha	76.885558
_cell_angle_beta	97.875798
_cell_angle_gamma	65.208438
loop_
_atom_site_label
_atom_site_type_symbol
_atom_site_fract_x
_atom_site_fract_y
_atom_site_fract_z
O1	O	1.229395	-0.205739	-0.083403
O2	O	0.954801	-0.125034	-0.083413
O3	O	1.100027	-0.269037	-0.083388
O4	O	1.084169	-0.061735	-0.083427
O5	O	1.142929	-0.311574	0.083454
O6	O	0.997702	-0.167570	0.083429
O7	O	1.272296	-0.248275	0.083439
Cu8	Cu	1.138916	-0.211807	0.098668
Cu9	Cu	1.088181	-0.161503	-0.098642
O10	O	1.127070	-0.104272	0.083415
C11	C	0.941121	-0.137858	0.000007
C12	C	0.836443	-0.112707	0.000004
C13	C	1.120966	-0.316188	0.000036
C14	C	1.119427	-0.393308	0.000045
C15	C	0.549690	-0.362580	0.000037
C16	C	0.451326	-0.338928	0.000032
C17	C	0.428328	-0.205894	0.000006
C18	C	0.526694	-0.229535	0.000016
C19	C	0.587368	-0.307879	0.000031
C20	C	0.564371	-0.174835	0.000010
C21	C	0.662727	-0.198474	0.000015
C22	C	0.723406	-0.276813	0.000026
C23	C	0.685724	-0.331518	0.000035
C24	C	0.503694	-0.096489	-0.000011
C25	C	0.541372	-0.041789	-0.000017
C26	C	0.639731	-0.065429	-0.000005
C27	C	0.700410	-0.143769	0.000006
C28	C	0.677414	-0.010724	-0.000015
C29	C	0.775770	-0.034363	-0.000010
C30	C	0.798766	-0.167408	0.000011
C31	C	1.204639	-0.459636	0.000053
C32	C	1.203188	-0.532092	0.000037
C33	C	1.116524	-0.538221	0.000033
C34	C	1.031299	-0.471879	0.000019
C35	C	1.032751	-0.399423	0.000025
N36	N	1.064881	-0.644063	0.056810
N37	N	1.063508	-0.712897	0.056806
C38	C	1.112146	-0.756526	0.000012
N39	N	1.162225	-0.728730	-0.056765
N40	N	1.163601	-0.659893	-0.056757
C41	C	1.114941	-0.616785	0.000025
C42	C	1.195790	-0.901421	0.000001
C43	C	1.194333	-0.973876	-0.000021
C44	C	1.022445	-0.913663	-0.000028
C45	C	1.023901	-0.841208	-0.000016
C46	C	1.110577	-0.835093	0.000003
C47	C	1.285976	-0.235450	0.000017
C48	C	1.390652	-0.260600	0.000014
C49	C	1.106131	-0.057120	-0.000012
C50	C	1.107668	0.020001	-0.000027
N51	N	1.174608	-0.247190	0.237446
N52	N	1.052497	-0.126126	-0.237419
C53	C	0.947635	-0.022200	0.605057
C54	C	0.974678	-0.049000	0.710083
C55	C	1.103301	-0.176486	0.710066
C56	C	1.076267	-0.149699	0.605037
C57	C	0.998434	-0.072555	0.552541
C58	C	1.127065	-0.200053	0.552522
C59	C	1.100036	-0.173266	0.447503
C60	C	1.022208	-0.096124	0.394999
C61	C	0.971404	-0.045768	0.447522
C62	C	1.204902	-0.277194	0.605020
C63	C	1.255701	-0.327549	0.552505
C64	C	1.228667	-0.300764	0.447484
C65	C	1.150839	-0.223623	0.394980
C66	C	1.279470	-0.351121	0.394961
C67	C	1.252441	-0.324334	0.289942
C68	C	1.123810	-0.196836	0.289961
H69	H	0.803490	-0.296055	0.000017
H70	H	1.319076	-0.390359	0.595259
N71	N	0.919872	0.005313	0.766723
H72	H	0.948803	-0.023360	0.841219
H73	H	0.925830	0.056826	0.748359
N74	N	0.928975	-0.920269	-0.000017
H75	H	0.875214	-0.867254	-0.000013
H76	H	0.908719	-0.933243	-0.061867
H77	H	1.266365	-0.896442	0.000013
N78	N	0.940846	-0.327875	0.000024
H79	H	0.887116	-0.311541	-0.061828
H80	H	0.919009	-0.343151	0.061910
N81	N	0.937824	-0.478483	0.000010
H82	H	0.949835	-0.534449	0.000010
H83	H	0.916450	-0.468446	0.061857
N84	N	1.286244	-1.045419	-0.000017
H85	H	1.341369	-1.030548	-0.000000
H86	H	1.305280	-1.092569	0.061830
N87	N	0.751179	-0.416022	0.000065
H88	H	0.712390	-0.447093	0.000074
H89	H	0.776586	-0.412960	-0.061782
H90	H	0.420654	-0.383478	0.000035
H91	H	0.378914	-0.142105	-0.000009
H92	H	0.599096	-0.426377	0.000054
N93	N	0.993039	-0.067236	0.281728
H94	H	0.936023	-0.010727	0.256443
H95	H	1.050595	-0.066869	0.256482
N96	N	1.039855	-0.113631	0.233335
H97	H	1.064539	-0.080682	0.189749
H98	H	0.987042	-0.118743	0.189834
N99	N	0.475928	0.042709	-0.000038
H100	H	0.407902	0.049386	-0.000042
H101	H	0.504002	0.051854	0.061811
N102	N	0.611966	0.073775	-0.000045
H103	H	0.543939	0.080451	-0.000053
H104	H	0.640032	0.082928	0.061801
H105	H	0.954513	-0.787202	-0.000017
H106	H	0.908018	0.017047	0.404777
N107	N	0.863678	0.061001	0.548424
H108	H	0.835591	0.088838	0.597626
H109	H	0.888429	0.093886	0.504838
N110	N	1.187251	-0.259686	0.766689
H111	H	1.196668	-0.269015	0.841188
H112	H	1.171840	-0.301833	0.748343
N113	N	1.363425	-0.434318	0.451586
H114	H	1.372844	-0.443644	0.526085
H115	H	1.348022	-0.476471	0.433246
N116	N	1.298116	-0.453035	0.000044
H117	H	1.286107	-0.397069	0.000042
H118	H	1.351301	-0.494621	0.061892
N119	N	1.295095	-0.603650	0.000051
H120	H	1.317029	-0.588435	-0.061790
H121	H	1.348754	-0.619948	0.061948
H122	H	0.423606	-0.077244	-0.000018
N123	N	0.816415	0.024632	-0.000021
H124	H	0.763055	0.077849	-0.000028
H125	H	0.872627	0.001951	0.061830
N126	N	1.234054	-0.306089	0.718291
H127	H	1.291072	-0.362596	0.743579
H128	H	1.254024	-0.268464	0.743498
N129	N	0.864213	-0.251911	0.000034
H130	H	0.889634	-0.248918	-0.061810
H131	H	0.921383	-0.280400	0.061927
N132	N	1.307230	-0.378639	0.233291
H133	H	1.360636	-0.431574	0.282482
H134	H	1.260046	-0.389292	0.189728
