data_functionalizedCrystal
_audit_creation_method	'MofGen! by Chris Wilmer'
_symmetry_space_group_name_H-M	'P1'
_symmetry_Int_Tables_number	1
_symmetry_cell_setting	triclinic
loop_
_symmetry_equiv_pos_as_xyz
  x,y,z
_cell_length_a	12.827893
_cell_length_b	11.169416
_cell_length_c	11.169409
_cell_angle_alpha	90.028030
_cell_angle_beta	90.023106
_cell_angle_gamma	90.011298
loop_
_atom_site_label
_atom_site_type_symbol
_atom_site_fract_x
_atom_site_fract_y
_atom_site_fract_z
Zn1	Zn	-1.597706	0.477767	-0.678684
Zn2	Zn	-1.097706	0.977767	-0.178684
Zn3	Zn	-1.597601	0.678508	-0.478016
Zn4	Zn	-1.097601	1.178508	0.021984
Zn5	Zn	-1.422942	0.477831	-0.478007
Zn6	Zn	-0.922942	0.977831	0.021993
Zn7	Zn	-1.422940	0.678401	-0.678649
Zn8	Zn	-0.922940	1.178401	-0.178649
O9	O	-1.510297	0.578127	-0.578339
O10	O	-1.010297	1.078127	-0.078339
O11	O	-1.743928	0.504414	-0.652083
O12	O	-1.243928	1.004414	-0.152083
O13	O	-1.574389	0.651959	-0.310065
O14	O	-1.074389	1.151959	0.189935
O15	O	-1.446169	0.309873	-0.504638
O16	O	-0.946169	0.809873	-0.004638
O17	O	-1.743851	0.651897	-0.504653
O18	O	-1.243851	1.151897	-0.004653
O19	O	-1.574568	0.309826	-0.652074
O20	O	-1.074568	0.809826	-0.152074
O21	O	-1.446068	0.504523	-0.310058
O22	O	-0.946068	1.004523	0.189942
O23	O	-1.276705	0.504419	-0.504604
O24	O	-0.776705	1.004419	-0.004604
O25	O	-1.446166	0.651715	-0.846603
O26	O	-0.946166	1.151715	-0.346603
O27	O	-1.276704	0.651777	-0.652015
O28	O	-0.776704	1.151777	-0.152015
O29	O	-1.574566	0.504310	-0.846629
O30	O	-1.074566	1.004310	-0.346629
O31	O	-1.574388	0.846443	-0.504619
O32	O	-1.074388	1.346443	-0.004619
O33	O	-1.446064	0.846365	-0.652024
O34	O	-0.946064	1.346365	-0.152024
C35	C	-1.238787	0.578094	-0.578305
C36	C	-0.738787	1.078094	-0.078305
C37	C	-1.122634	0.578109	-0.578320
C38	C	-0.622634	1.078109	-0.078320
C39	C	-1.070887	0.505257	-0.651384
C40	C	-0.570887	1.005257	-0.151384
C41	C	-0.950837	0.505271	-0.651401
C42	C	-0.450837	1.005271	-0.151401
C43	C	-1.510243	0.889951	-0.578345
C44	C	-1.010243	1.389951	-0.078345
C45	C	-1.510315	1.023351	-0.578388
C46	C	-1.010315	1.523351	-0.078388
C47	C	-0.782867	0.578151	-0.578363
C48	C	-0.282867	1.078151	-0.078363
C49	C	-0.899020	0.578136	-0.578349
C50	C	-0.399020	1.078136	-0.078349
C51	C	-1.510377	0.577993	-0.891381
C52	C	-1.010377	1.077993	-0.391381
C53	C	-1.510412	0.577937	-1.024781
C54	C	-1.010412	1.077937	-0.524781
C55	C	-1.510370	1.265084	-0.578371
C56	C	-1.010370	1.765084	-0.078371
C57	C	-1.510374	1.131684	-0.578417
C58	C	-1.010374	1.631684	-0.078417
C59	C	-1.510277	0.578173	-0.266514
C60	C	-1.010277	1.078173	0.233486
C61	C	-1.510446	0.577892	-0.133115
C62	C	-1.010446	1.077892	0.366885
H63	H	-0.906336	0.442903	-0.713958
H64	H	-0.406336	0.942903	-0.213958
H65	H	-0.943515	0.640517	-0.515799
H66	H	-0.443515	1.140517	-0.015799
H67	H	-1.078060	0.640488	-0.515776
H68	H	-0.578060	1.140488	-0.015776
H69	H	-1.115462	0.442871	-0.713921
H70	H	-0.615462	0.942871	-0.213921
