data_functionalizedCrystal
_audit_creation_method	'MofGen! by Chris Wilmer'
_symmetry_space_group_name_H-M	'P1'
_symmetry_Int_Tables_number	1
_symmetry_cell_setting	triclinic
loop_
_symmetry_equiv_pos_as_xyz
  x,y,z
_cell_length_a	10.723022
_cell_length_b	17.038274
_cell_length_c	16.098662
_cell_angle_alpha	87.128365
_cell_angle_beta	93.039984
_cell_angle_gamma	92.210494
loop_
_atom_site_label
_atom_site_type_symbol
_atom_site_fract_x
_atom_site_fract_y
_atom_site_fract_z
O1	O	1.672654	-0.112851	0.069267
O2	O	1.310474	-0.123355	0.069272
O3	O	1.489409	-0.004275	0.069247
O4	O	1.493719	-0.231931	0.069293
O5	O	1.478763	0.001998	-0.069265
O6	O	1.299828	-0.117082	-0.069240
O7	O	1.662008	-0.106578	-0.069244
Zn8	Zn	1.479228	-0.110834	-0.091234
Zn9	Zn	1.493254	-0.119099	0.091261
O10	O	1.483073	-0.225658	-0.069219
C11	C	1.258580	-0.119454	0.000016
C12	C	1.119815	-0.117168	0.000017
C13	C	0.907582	-0.181435	0.000031
C14	C	1.051004	-0.183799	0.000031
C15	C	1.480170	0.028012	-0.000013
C16	C	1.468487	0.114870	-0.000026
C17	C	1.575742	0.164392	-0.000035
C18	C	1.564757	0.246003	-0.000038
C19	C	1.446516	0.278091	-0.000039
C20	C	1.339254	0.228563	-0.000028
C21	C	1.350240	0.146953	-0.000018
C22	C	1.407705	0.524065	-0.000063
C23	C	1.396727	0.605681	-0.000075
C24	C	1.622231	0.623116	-0.000084
C25	C	1.633207	0.541504	-0.000079
C26	C	1.525944	0.491982	-0.000064
C27	C	1.435285	0.361511	-0.000046
C28	C	1.537177	0.408564	-0.000051
C29	C	1.713902	-0.110479	0.000013
C30	C	1.852668	-0.112765	0.000018
N31	N	1.469664	-0.105193	-0.215782
C32	C	1.492308	0.742057	0.000006
C33	C	1.503981	0.655203	-0.000084
C34	C	1.425415	-0.078842	-0.740597
C35	C	1.432100	-0.082818	-0.653409
C36	C	1.516191	-0.132692	-0.609816
C37	C	1.593612	-0.178587	-0.653415
C38	C	1.586932	-0.174605	-0.740601
C39	C	1.540405	-0.147105	-0.346568
C40	C	1.547076	-0.151085	-0.259375
C41	C	1.385566	-0.055315	-0.259376
C42	C	1.378888	-0.051342	-0.346564
C43	C	1.456313	-0.097233	-0.390156
C44	C	1.523024	-0.136760	-0.520695
C45	C	1.449486	-0.093160	-0.479274
N46	N	1.502827	-0.124734	0.215809
H47	H	0.911833	-0.055726	0.000011
H48	H	1.709558	0.663445	-0.000095
Br49	Br	1.692004	-0.236884	-0.799765
Br50	Br	1.204675	0.079742	0.000001
H51	H	1.633450	0.382433	-0.000032
H52	H	1.672026	0.138273	-0.000039
Br53	Br	0.808984	-0.276512	0.000064
Br54	Br	1.710324	0.313210	-0.000050
H55	H	1.320364	0.483753	-0.000050
Br56	Br	1.041076	-0.019164	-0.000012
Br57	Br	1.264750	0.016340	-0.405721
H58	H	1.242980	0.254695	-0.000023
Br59	Br	1.793684	0.497961	-0.000052
Br60	Br	1.129749	-0.281799	0.000040
H61	H	1.339013	0.387646	-0.000048
H62	H	1.300435	0.631804	-0.000089
H63	H	1.356933	-0.038233	-0.776085
H64	H	1.369066	-0.045445	-0.617920
H65	H	1.322532	-0.017953	-0.223874
H66	H	1.615551	-0.191704	-0.223884
Br67	Br	1.645475	-0.209392	-0.405717
Br68	Br	1.707746	-0.246268	-0.594253
Br69	Br	1.335371	-0.025472	-0.538438
H70	H	1.591490	-0.177369	-0.485191
