data_functionalizedCrystal
_audit_creation_method	'MofGen! by Chris Wilmer'
_symmetry_space_group_name_H-M	'P1'
_symmetry_Int_Tables_number	1
_symmetry_cell_setting	triclinic
loop_
_symmetry_equiv_pos_as_xyz
  x,y,z
_cell_length_a	14.560432
_cell_length_b	20.875641
_cell_length_c	20.875641
_cell_angle_alpha	60.089808
_cell_angle_beta	90.002442
_cell_angle_gamma	62.439975
loop_
_atom_site_label
_atom_site_type_symbol
_atom_site_fract_x
_atom_site_fract_y
_atom_site_fract_z
Zr1	Zr	0.926808	0.694337	-0.105754
O2	O	0.792216	0.820579	-0.209021
O3	O	0.963032	0.563082	-0.070822
O4	O	0.976558	0.687105	-0.204294
O5	O	0.773750	0.704009	0.026010
O6	O	1.127699	0.687103	-0.204291
O7	O	0.778690	0.696556	-0.075549
O8	O	1.103504	0.465249	0.034466
O9	O	0.797944	0.925864	-0.212746
O10	O	1.097360	0.618925	-0.059879
O11	O	0.980879	0.624489	0.015911
O12	O	0.996803	0.770510	-0.141235
O13	O	0.880321	0.776073	-0.065444
Zr14	Zr	1.159980	0.706222	0.056225
Zr15	Zr	1.167860	0.694335	-0.105750
Zr16	Zr	0.918929	0.706225	0.056221
Zr17	Zr	0.935945	0.862255	-0.111696
Zr18	Zr	1.150844	0.538305	0.062168
O19	O	1.123757	0.837478	0.021293
O20	O	1.134961	0.820575	-0.209015
O21	O	0.781012	0.837481	0.021287
O22	O	1.294573	0.579981	0.159492
O23	O	1.305777	0.563078	-0.070816
O24	O	0.951828	0.579984	0.159486
O25	O	1.313039	0.696550	-0.075539
O26	O	1.110231	0.713455	0.154765
O27	O	0.959090	0.713456	0.154762
O28	O	1.308099	0.704004	0.026020
O29	O	0.989548	0.925862	-0.212743
O30	O	1.097241	0.474698	0.163214
O31	O	1.288845	0.474696	0.163218
O32	O	1.295108	0.465247	0.034469
O33	O	0.791681	0.935313	-0.083998
O34	O	0.983285	0.935311	-0.083995
O35	O	1.089986	0.630050	0.091706
O36	O	1.206468	0.624486	0.015915
O37	O	1.105910	0.776071	-0.065440
O38	O	0.989429	0.781635	0.010350
C39	C	1.031967	0.490241	-0.017331
C40	C	1.028088	0.418955	-0.014809
C41	C	1.087065	0.382561	-0.053185
C42	C	1.083423	0.315577	-0.050808
C43	C	1.020797	0.284992	-0.010057
C44	C	0.961818	0.321389	0.028324
C45	C	0.965467	0.388368	0.025950
C46	C	1.003371	0.084981	0.001288
C47	C	0.999724	0.017999	0.003657
C48	C	1.121331	0.012190	-0.075474
C49	C	1.124969	0.079174	-0.077848
C50	C	1.065994	0.115562	-0.039463
N51	N	1.017070	0.216525	-0.007628
N52	N	1.069728	0.184023	-0.041888
C53	C	0.741875	0.700283	-0.024770
C54	C	0.639543	0.700284	-0.024772
C55	C	0.644963	0.692082	-0.136681
C56	C	0.599596	0.687984	-0.192636
C57	C	0.503446	0.687984	-0.192633
C58	C	0.452663	0.692080	-0.136669
C59	C	0.498029	0.696178	-0.080714
C60	C	0.594180	0.696180	-0.080724
C61	C	0.492613	0.704374	0.031197
C62	C	0.588759	0.704380	0.031193
C63	C	0.441829	0.708469	0.087162
C64	C	0.487192	0.712573	0.143115
C65	C	0.583347	0.712574	0.143109
C66	C	0.634126	0.708478	0.087148
C67	C	1.344914	0.700277	-0.024759
C68	C	1.447246	0.700276	-0.024757
C69	C	1.053251	0.685410	-0.227370
C70	C	1.056596	0.680364	-0.296133
C71	C	1.054822	0.910319	-0.032197
C72	C	1.058701	0.981605	-0.034720
C73	C	1.005680	0.757117	-0.370905
C74	C	1.008837	0.752370	-0.435512
C75	C	1.062905	0.670869	-0.425345
C76	C	1.113828	0.594111	-0.350566
C77	C	1.110677	0.598858	-0.285961
C78	C	1.077965	0.648185	-0.614011
C79	C	1.081109	0.643443	-0.678624
C80	C	0.976120	0.801703	-0.763565
C81	C	0.972968	0.806443	-0.698955
C82	C	1.023895	0.729685	-0.624182
N83	N	1.066131	0.666015	-0.491383
N84	N	1.020676	0.734540	-0.558146
C85	C	1.033538	0.715149	0.177842
C86	C	1.030193	0.720196	0.246604
C87	C	1.333486	0.490237	-0.017326
C88	C	1.431940	0.418951	-0.014802
C89	C	1.022110	0.505110	0.185275
C90	C	1.014886	0.438871	0.256560
C91	C	1.323629	0.505107	0.185280
C92	C	1.418738	0.438867	0.256567
C93	C	0.763160	0.895453	-0.234809
C94	C	0.668051	0.961693	-0.306096
C95	C	0.753303	0.910322	-0.032203
C96	C	0.654849	0.981609	-0.034727
C97	C	1.064679	0.895450	-0.234803
C98	C	1.071903	0.961689	-0.306089
C99	C	1.421223	0.382571	-0.053187
C100	C	1.513723	0.315598	-0.050830
C101	C	1.616939	0.285002	-0.010083
C102	C	1.627655	0.321389	0.028303
C103	C	1.535156	0.388365	0.025941
C104	C	1.068446	0.410668	0.329607
C105	C	1.061655	0.348439	0.396593
C106	C	1.001309	0.314410	0.390530
C107	C	0.947742	0.342619	0.317476
C108	C	0.954528	0.404851	0.250491
C109	C	1.524215	0.404856	0.250483
C110	C	1.613590	0.342625	0.317458
C111	C	1.597486	0.314402	0.390517
C112	C	1.491998	0.348420	0.396600
C113	C	1.402626	0.410654	0.329625
C114	C	0.562575	0.995712	-0.300012
C115	C	0.473201	1.057964	-0.366988
C116	C	0.489305	1.086190	-0.440047
C117	C	0.594792	1.052168	-0.446130
C118	C	0.684164	0.989922	-0.379155
C119	C	0.665567	1.017996	0.003651
C120	C	0.573069	1.084986	0.001276
C121	C	0.469853	1.115584	-0.039473
C122	C	0.459137	1.079194	-0.077856
C123	C	0.551635	1.012209	-0.075485
C124	C	1.132258	0.995698	-0.300001
C125	C	1.139067	1.057928	-0.366975
C126	C	1.085513	1.086152	-0.440035
C127	C	1.025156	1.052136	-0.446121
C128	C	1.018354	0.989903	-0.379148
H129	H	1.131448	0.285944	-0.082056
H130	H	1.537348	0.427825	0.191000
H131	H	1.175964	0.104074	-0.111030
H132	H	0.910915	0.427806	0.191016
O133	O	0.432416	0.716987	0.203470
H134	H	0.488820	0.659784	0.262049
O135	O	1.727358	0.305931	0.310889
H136	H	1.723531	0.336001	0.248834
O137	O	1.172153	0.506200	-0.339589
H138	H	1.113842	0.500242	-0.366984
O139	O	0.947363	0.845021	-0.381870
H140	H	0.912497	0.897594	-0.444720
O141	O	1.154606	0.415553	-0.097141
H142	H	1.240929	0.361006	-0.072282
H143	H	0.466512	0.684643	-0.238194
H144	H	1.670268	0.263727	0.445046
O145	O	0.612145	1.082615	-0.524935
H146	H	0.660804	1.112657	-0.532601
H147	H	1.119434	0.585683	-0.553136
H148	H	0.948721	-0.006899	0.036840
O149	O	1.309903	0.415571	-0.097146
H150	H	1.318009	0.379022	-0.123447
O151	O	1.474634	0.317964	0.475402
H152	H	1.554506	0.268965	0.520945
O153	O	0.967383	1.082589	-0.524924
H154	H	0.982248	1.131586	-0.570466
H155	H	1.169346	-0.017445	-0.106724
H156	H	1.105280	0.325479	0.456071
O157	O	0.797926	0.953256	-0.385729
H158	H	0.857378	0.905242	-0.326888
O159	O	1.288859	0.447317	0.336192
H160	H	1.292687	0.417221	0.398249
O161	O	0.939753	0.124234	0.042677
H162	H	0.895583	0.091720	0.071401
O163	O	0.776889	0.985013	0.047591
H164	H	0.768785	1.021588	0.073863
O165	O	0.994014	0.247273	0.462781
H166	H	1.041414	0.233373	0.514592
O167	O	0.894264	0.288410	0.072274
H168	H	0.901623	0.235728	0.067470
O169	O	0.654365	0.683579	-0.253001
H170	H	0.737555	0.624226	-0.223936
H171	H	0.416523	1.136874	-0.494576
O172	O	0.545192	0.965280	-0.221216
H173	H	0.456828	0.999410	-0.228250
H174	H	0.581815	1.114604	0.032535
H175	H	1.152138	0.536358	-0.225078
H176	H	1.504977	0.285979	-0.082089
O177	O	0.901898	0.427591	0.067377
H178	H	0.914981	0.479286	0.058900
O179	O	1.716703	0.212756	-0.007532
H180	H	1.691898	0.192597	-0.041064
O181	O	0.748664	0.692086	-0.136684
H182	H	0.776359	0.688545	-0.184995
H183	H	0.374380	0.692069	-0.136665
O184	O	1.190029	0.965262	-0.221205
H185	H	1.249549	0.893673	-0.187262
O186	O	0.338130	0.708462	0.087185
H187	H	0.274682	0.765861	0.031290
H188	H	0.394544	1.170127	-0.041398
H189	H	0.620283	0.715906	0.188677
O190	O	1.738987	0.288381	0.072248
H191	H	1.730914	0.324930	0.098542
H192	H	1.117586	0.438368	0.334558
H193	H	1.543897	0.417978	0.057204
H194	H	1.091060	1.136827	-0.494563
O195	O	0.359431	1.094636	-0.360419
H196	H	0.363257	1.064531	-0.298362
H197	H	0.375086	1.104117	-0.111033
H198	H	0.967378	0.814870	-0.496392
O199	O	0.737825	0.708485	0.087148
H200	H	0.803603	0.647550	0.094746
H201	H	0.542892	0.982585	-0.106736
O202	O	1.204164	1.094613	-0.360403
H203	H	1.240241	1.064539	-0.298347
O204	O	0.882691	0.305889	0.310941
H205	H	0.887000	0.257863	0.369797
H206	H	0.928943	0.872810	-0.707242
H207	H	0.969202	0.962219	-0.384116
H208	H	1.125137	0.577072	-0.670338
O209	O	0.921215	0.884490	-0.844211
H210	H	0.932499	0.867501	-0.887429
