data_functionalizedCrystal
_audit_creation_method	'MofGen! by Chris Wilmer'
_symmetry_space_group_name_H-M	'P1'
_symmetry_Int_Tables_number	1
_symmetry_cell_setting	triclinic
loop_
_symmetry_equiv_pos_as_xyz
  x,y,z
_cell_length_a	13.032831
_cell_length_b	12.594516
_cell_length_c	13.032268
_cell_angle_alpha	82.847564
_cell_angle_beta	89.113023
_cell_angle_gamma	82.821304
loop_
_atom_site_label
_atom_site_type_symbol
_atom_site_fract_x
_atom_site_fract_y
_atom_site_fract_z
Zn1	Zn	1.498496	-0.718822	0.780872
Zn2	Zn	1.831829	-0.385489	1.114205
Zn3	Zn	2.165163	-0.052155	1.447539
Zn4	Zn	1.520242	-0.877407	0.608900
Zn5	Zn	1.853575	-0.544073	0.942234
Zn6	Zn	2.186909	-0.210740	1.275567
Zn7	Zn	1.348353	-0.674358	0.587111
Zn8	Zn	1.681687	-0.341025	0.920444
Zn9	Zn	2.015020	-0.007691	1.253777
Zn10	Zn	1.326490	-0.871652	0.759025
Zn11	Zn	1.659823	-0.538318	1.092359
Zn12	Zn	1.993157	-0.204985	1.425692
O13	O	1.423395	-0.785560	0.683977
O14	O	1.756729	-0.452226	1.017310
O15	O	2.090062	-0.118893	1.350644
O16	O	1.645302	-0.760876	0.776322
O17	O	1.978635	-0.427542	1.109655
O18	O	2.311969	-0.094209	1.442988
O19	O	1.515691	-0.834272	0.462092
O20	O	1.849025	-0.500938	0.795426
O21	O	2.182358	-0.167605	1.128759
O22	O	1.368319	-0.531320	0.612838
O23	O	1.701653	-0.197986	0.946171
O24	O	2.034986	0.135347	1.279504
O25	O	1.661279	-0.877387	0.649975
O26	O	1.994612	-0.544054	0.983308
O27	O	2.327945	-0.210720	1.316641
O28	O	1.478628	-0.563987	0.755193
O29	O	1.811962	-0.230654	1.088527
O30	O	2.145295	0.102679	1.421860
O31	O	1.389406	-0.685093	0.446084
O32	O	1.722739	-0.351759	0.779417
O33	O	2.056072	-0.018426	1.112750
O34	O	1.201532	-0.679512	0.591654
O35	O	1.534865	-0.346179	0.924987
O36	O	1.868199	-0.012846	1.258320
O37	O	1.331056	-0.867579	0.905841
O38	O	1.664390	-0.534245	1.239174
O39	O	1.997723	-0.200912	1.572507
O40	O	1.185469	-0.824463	0.717958
O41	O	1.518803	-0.491130	1.051292
O42	O	1.852136	-0.157797	1.384625
O43	O	1.457428	-0.755295	0.921892
O44	O	1.790762	-0.421962	1.255225
O45	O	2.124095	-0.088629	1.588558
O46	O	1.494491	-1.025580	0.628791
O47	O	1.827825	-0.692246	0.962124
O48	O	2.161158	-0.358913	1.295457
O49	O	1.352143	-1.021351	0.739087
O50	O	1.685476	-0.688018	1.072420
O51	O	2.018809	-0.354685	1.405753
C52	C	1.156183	-0.746539	0.650071
C53	C	1.489517	-0.413206	0.983405
C54	C	1.822850	-0.079873	1.316738
C55	C	1.041866	-0.729875	0.635591
C56	C	1.375199	-0.396541	0.968924
C57	C	1.708533	-0.063208	1.302258
C58	C	0.982991	-0.794257	0.691535
C59	C	1.316325	-0.460924	1.024868
C60	C	1.649658	-0.127590	1.358201
C61	C	0.864838	-0.777035	0.676569
C62	C	1.198171	-0.443702	1.009903
C63	C	1.531505	-0.110368	1.343236
C64	C	1.423329	-1.062090	0.683958
C65	C	1.756663	-0.728756	1.017292
C66	C	2.089996	-0.395423	1.350625
C67	C	1.423391	-1.180408	0.683997
C68	C	1.756724	-0.847075	1.017330
C69	C	2.090057	-0.513741	1.350663
C70	C	1.345967	-1.247394	0.743938
C71	C	1.679300	-0.914060	1.077271
C72	C	2.012633	-0.580727	1.410604
C73	C	1.332833	-1.304009	0.646920
C74	C	1.666166	-0.970676	0.980253
C75	C	1.999499	-0.637343	1.313586
C76	C	1.436617	-1.334607	0.781043
C77	C	1.769950	-1.001273	1.114376
C78	C	2.103283	-0.667940	1.447709
C79	C	1.410213	-1.235453	0.586923
C80	C	1.743547	-0.902119	0.920256
C81	C	2.076880	-0.568786	1.253589
C82	C	1.514033	-1.266057	0.721115
C83	C	1.847366	-0.932724	1.054448
C84	C	2.180700	-0.599390	1.387781
C85	C	1.500943	-1.322639	0.624037
C86	C	1.834276	-0.989305	0.957370
C87	C	2.167609	-0.655972	1.290703
C88	C	1.691651	-0.824733	0.718016
C89	C	2.024984	-0.491400	1.051349
C90	C	2.358317	-0.158066	1.384682
C91	C	1.805965	-0.841426	0.732521
C92	C	2.139299	-0.508093	1.065854
C93	C	2.472632	-0.174760	1.399188
C94	C	1.389378	-0.815755	0.952226
C95	C	1.722711	-0.482421	1.285559
C96	C	2.056045	-0.149088	1.618892
C97	C	1.374882	-0.828622	1.066537
C98	C	1.708215	-0.495289	1.399871
C99	C	2.041548	-0.161956	1.733204
C100	C	1.423487	-0.507956	0.684022
C101	C	1.756820	-0.174623	1.017355
C102	C	2.090154	0.158710	1.350688
C103	C	1.423526	-0.389658	0.684041
C104	C	1.756859	-0.056325	1.017374
C105	C	2.090193	0.277008	1.350708
C106	C	1.457340	-0.755414	0.416779
C107	C	1.790673	-0.422080	0.750113
C108	C	2.124007	-0.088747	1.083446
C109	C	1.472035	-0.742276	0.302494
C110	C	1.805369	-0.408942	0.635827
C111	C	2.138702	-0.075609	0.969160
C112	C	1.430945	-0.778803	1.125443
C113	C	1.764279	-0.445470	1.458776
C114	C	2.097612	-0.112137	1.792109
C115	C	1.415964	-0.792101	1.243590
C116	C	1.749297	-0.458768	1.576923
C117	C	2.082631	-0.125435	1.910257
H118	H	0.843026	-0.909296	0.791506
H119	H	1.176360	-0.575963	1.124839
H120	H	1.509693	-0.242630	1.458173
H121	H	1.490030	-0.726303	1.088406
H122	H	1.823364	-0.392969	1.421739
H123	H	2.156697	-0.059636	1.755072
H124	H	1.280399	-1.214409	0.794530
H125	H	1.613732	-0.881076	1.127863
H126	H	1.947065	-0.547742	1.461197
H127	H	1.356864	-0.844593	1.280621
H128	H	1.690198	-0.511260	1.613955
H129	H	2.023531	-0.177927	1.947288
H130	H	1.531123	-0.689768	1.265462
H131	H	1.864456	-0.356435	1.598795
H132	H	2.197790	-0.023102	1.932129
H133	H	1.020059	-0.862124	0.750512
H134	H	1.353392	-0.528791	1.083846
H135	H	1.686725	-0.195457	1.417179
H136	H	1.004798	-0.662001	0.576621
H137	H	1.338131	-0.328667	0.909954
H138	H	1.671464	0.004666	1.243287
H139	H	1.256241	-1.321250	0.615556
H140	H	1.589574	-0.987917	0.948890
H141	H	1.922907	-0.654584	1.282223
H142	H	1.315786	-0.881111	1.103573
H143	H	1.649119	-0.547777	1.436907
H144	H	1.982453	-0.214444	1.770240
H145	H	0.827774	-0.709156	0.617595
H146	H	1.161108	-0.375823	0.950929
H147	H	1.494441	-0.042490	1.284262
H148	H	1.398991	-1.192486	0.504836
H149	H	1.732325	-0.859153	0.838169
H150	H	2.065658	-0.525820	1.171503
H151	H	1.566484	-1.355404	0.573298
H152	H	1.899817	-1.022071	0.906632
H153	H	2.233151	-0.688738	1.239965
H154	H	1.590601	-1.248822	0.752521
H155	H	1.923935	-0.915488	1.085854
H156	H	2.257268	-0.582155	1.419187
H157	H	1.447750	-1.377685	0.863096
H158	H	1.781083	-1.044352	1.196429
H159	H	2.114416	-0.711019	1.529763
