data_functionalizedCrystal
_audit_creation_method	'MofGen! by Chris Wilmer'
_symmetry_space_group_name_H-M	'P1'
_symmetry_Int_Tables_number	1
_symmetry_cell_setting	triclinic
loop_
_symmetry_equiv_pos_as_xyz
  x,y,z
_cell_length_a	12.759401
_cell_length_b	12.759399
_cell_length_c	18.101389
_cell_angle_alpha	89.979990
_cell_angle_beta	89.985314
_cell_angle_gamma	90.021469
loop_
_atom_site_label
_atom_site_type_symbol
_atom_site_fract_x
_atom_site_fract_y
_atom_site_fract_z
Zn1	Zn	-1.606143	0.418394	0.418699
Zn2	Zn	-1.106143	0.918394	0.918699
Zn3	Zn	-1.606024	0.594074	0.294863
Zn4	Zn	-1.106024	1.094074	0.794863
Zn5	Zn	-1.430459	0.418403	0.294877
Zn6	Zn	-0.930459	0.918403	0.794877
Zn7	Zn	-1.430406	0.594025	0.418668
Zn8	Zn	-0.930406	1.094025	0.918668
O9	O	-1.518258	0.506224	0.356776
O10	O	-1.018258	1.006224	0.856776
O11	O	-1.753148	0.441715	0.402279
O12	O	-1.253148	0.941715	0.902279
O13	O	-1.582707	0.570795	0.191231
O14	O	-1.082707	1.070795	0.691231
O15	O	-1.453835	0.271381	0.311321
O16	O	-0.953835	0.771381	0.811321
O17	O	-1.753061	0.570786	0.311297
O18	O	-1.253061	1.070786	0.811297
O19	O	-1.582909	0.271374	0.402293
O20	O	-1.082909	0.771374	0.902293
O21	O	-1.453720	0.441731	0.191242
O22	O	-0.953720	0.941731	0.691242
O23	O	-1.283431	0.441683	0.311291
O24	O	-0.783431	0.941683	0.811291
O25	O	-1.453745	0.570703	0.522305
O26	O	-0.953745	1.070703	1.022305
O27	O	-1.283392	0.570712	0.402239
O28	O	-0.783392	1.070712	0.902239
O29	O	-1.582858	0.441668	0.522328
O30	O	-1.082858	0.941668	1.022328
O31	O	-1.582656	0.741089	0.311267
O32	O	-1.082656	1.241089	0.811267
O33	O	-1.453630	0.741053	0.402226
O34	O	-0.953630	1.241053	0.902226
C35	C	-1.245291	0.506194	0.356764
C36	C	-0.745291	1.006194	0.856764
C37	C	-1.128514	0.506207	0.356776
C38	C	-0.628514	1.006207	0.856776
C39	C	-1.073659	0.573497	0.404054
C40	C	-0.573659	1.073497	0.904054
C41	C	-0.963935	0.573506	0.404061
C42	C	-0.463935	1.073506	0.904061
C43	C	-0.963930	0.438931	0.309505
C44	C	-0.463930	0.938931	0.809505
C45	C	-1.073652	0.438918	0.309502
C46	C	-0.573652	0.938918	0.809502
C47	C	-1.128521	0.640786	0.451327
C48	C	-0.628521	1.140786	0.951327
C49	C	-1.073666	0.708083	0.498608
C50	C	-0.573666	1.208083	0.998608
C51	C	-0.963942	0.708092	0.498615
C52	C	-0.463942	1.208092	0.998615
C53	C	-0.909073	0.640804	0.451341
C54	C	-0.409073	1.140804	0.951341
C55	C	-1.518153	0.779192	0.356757
C56	C	-1.018153	1.279192	0.856757
C57	C	-1.518205	0.895968	0.356774
C58	C	-1.018205	1.395968	0.856774
C59	C	-0.792291	0.506245	0.356787
C60	C	-0.292291	1.006245	0.856787
C61	C	-0.909068	0.506229	0.356785
C62	C	-0.409068	1.006229	0.856785
C63	C	-1.585412	1.060467	0.404204
C64	C	-1.085412	1.560467	0.904204
C65	C	-1.585373	0.950743	0.404185
C66	C	-1.085373	1.450743	0.904185
C67	C	-1.451079	0.950923	0.309374
C68	C	-0.951079	1.450923	0.809374
C69	C	-1.451124	1.060645	0.309389
C70	C	-0.951124	1.560645	0.809389
C71	C	-1.652577	1.115236	0.451623
C72	C	-1.152577	1.615236	0.951623
C73	C	-1.719705	1.060289	0.499022
C74	C	-1.219705	1.560289	0.999022
C75	C	-1.719666	0.950565	0.499003
C76	C	-1.219666	1.450565	0.999003
C77	C	-1.652499	0.895788	0.451585
C78	C	-1.152499	1.395788	0.951585
C79	C	-1.518351	1.232191	0.356807
C80	C	-1.018351	1.732191	0.856807
C81	C	-1.518289	1.115414	0.356809
C82	C	-1.018289	1.615414	0.856809
C83	C	-1.518309	0.506179	0.549938
C84	C	-1.018309	1.006179	1.049938
C85	C	-1.518331	0.506159	0.632253
C86	C	-1.018331	1.006159	1.132253
C87	C	-1.518267	0.506194	0.164366
C88	C	-1.018267	1.006194	0.664366
C89	C	-1.518449	0.505917	0.082052
C90	C	-1.018449	1.005917	0.582052
C91	C	-1.518371	0.506078	0.782961
C92	C	-1.018371	1.006078	1.282961
C93	C	-1.437149	0.587247	0.814300
C94	C	-0.937149	1.087247	1.314300
C95	C	-1.436854	0.586962	0.899919
C96	C	-0.936854	1.086962	1.399919
C97	C	-1.518409	0.505999	0.931344
C98	C	-1.018409	1.005999	1.431344
C99	C	-1.488763	0.395207	0.900259
C100	C	-0.988763	0.895207	1.400259
C101	C	-1.488151	0.395722	0.814614
C102	C	-0.988151	0.895722	1.314614
C103	C	-1.629451	0.534715	0.814526
C104	C	-1.129451	1.034715	1.314526
C105	C	-1.628878	0.537112	0.900177
C106	C	-1.128878	1.037112	1.400177
C107	C	-1.518433	0.505948	1.015203
C108	C	-1.018433	1.005948	1.515203
C109	C	-1.518344	0.506121	0.699102
C110	C	-1.018344	1.006121	1.199102
H111	H	-0.919282	0.762881	0.537119
H112	H	-0.419282	1.262881	1.037119
H113	H	-1.455361	0.669105	0.920936
H114	H	-0.955361	1.169105	1.420936
H115	H	-1.652481	0.806443	0.451568
H116	H	-1.152481	1.306443	0.951568
H117	H	-1.774395	1.104895	0.537624
H118	H	-1.274395	1.604895	1.037624
O119	O	-1.328734	0.562411	0.785806
O120	O	-0.828734	1.062411	1.285806
H121	H	-1.332446	0.492506	0.749422
H122	H	-0.832446	0.992506	1.249422
O123	O	-1.246865	0.640778	0.451321
O124	O	-0.746865	1.140778	0.951321
H125	H	-1.275756	0.661900	0.395434
H126	H	-0.775756	1.161900	0.895434
O127	O	-1.652605	1.233581	0.451616
O128	O	-1.152605	1.733581	0.951616
H129	H	-1.673892	1.262506	0.395766
H130	H	-1.173892	1.762506	0.895766
H131	H	-1.406966	0.371492	0.794639
H132	H	-0.906966	0.871492	1.294639
O133	O	-1.132836	0.780634	0.549612
O134	O	-0.632836	1.280634	1.049612
H135	H	-1.218350	0.769325	0.541666
H136	H	-0.718350	1.269325	1.041666
H137	H	-1.455427	0.669669	0.793706
H138	H	-0.955427	1.169669	1.293706
H139	H	-1.692613	0.482315	0.921571
H140	H	-1.192613	0.982315	1.421571
H141	H	-1.354556	0.567957	0.920408
H142	H	-0.854556	1.067957	1.420408
H143	H	-0.819728	0.640808	0.451357
H144	H	-0.319728	1.140808	0.951357
O145	O	-1.563118	0.312848	0.787142
O146	O	-1.063118	0.812848	1.287142
H147	H	-1.599642	0.272575	0.835031
H148	H	-1.099642	0.772575	1.335031
H149	H	-0.919247	0.384149	0.271016
H150	H	-0.419247	0.884149	0.771016
H151	H	-1.396393	0.906317	0.270768
H152	H	-0.896393	1.406317	0.770768
O153	O	-1.378734	1.119930	0.258273
O154	O	-0.878734	1.619930	0.758273
H155	H	-1.296252	1.098943	0.270920
H156	H	-0.796252	1.598943	0.770920
O157	O	-1.564731	0.312866	0.927215
O158	O	-1.064731	0.812866	1.427215
H159	H	-1.624562	0.350123	0.963143
H160	H	-1.124562	0.850123	1.463143
O161	O	-1.132829	0.366351	0.258505
O162	O	-0.632829	0.866351	0.758505
H163	H	-1.076249	0.319577	0.225624
H164	H	-0.576249	0.819577	0.725624
O165	O	-1.382407	0.362531	0.928648
O166	O	-0.882407	0.862531	1.428648
H167	H	-1.350494	0.425012	0.964889
H168	H	-0.850494	0.925012	1.464889
O169	O	-1.792082	0.891294	0.550109
O170	O	-1.292082	1.391294	1.050109
H171	H	-1.838791	0.947816	0.583082
H172	H	-1.338791	1.447816	1.083082
H173	H	-1.656499	0.614158	0.792926
H174	H	-1.156499	1.114158	1.292926
H175	H	-1.651238	0.618651	0.920491
H176	H	-1.151238	1.118651	1.420491
H177	H	-1.689961	0.475592	0.794264
H178	H	-1.189961	0.975592	1.294264
