data_functionalizedCrystal
_audit_creation_method	'MofGen! by Chris Wilmer'
_symmetry_space_group_name_H-M	'P1'
_symmetry_Int_Tables_number	1
_symmetry_cell_setting	triclinic
loop_
_symmetry_equiv_pos_as_xyz
  x,y,z
_cell_length_a	10.654541
_cell_length_b	19.188930
_cell_length_c	9.130307
_cell_angle_alpha	89.991600
_cell_angle_beta	89.999822
_cell_angle_gamma	83.814355
loop_
_atom_site_label
_atom_site_type_symbol
_atom_site_fract_x
_atom_site_fract_y
_atom_site_fract_z
O1	O	1.665764	0.098053	-0.121773
O2	O	1.300087	0.107397	-0.121788
O3	O	1.493478	0.001138	-0.121751
O4	O	1.472373	0.204312	-0.121809
O5	O	1.493472	0.001137	0.121848
O6	O	1.300081	0.107396	0.121811
O7	O	1.665758	0.098052	0.121826
Cu8	Cu	1.482919	0.102724	0.144061
Cu9	Cu	1.482926	0.102725	-0.144023
O10	O	1.472367	0.204311	0.121790
C11	C	1.253300	0.106711	0.000011
C12	C	1.113900	0.104659	0.000006
C13	C	1.083241	0.231721	-0.000048
C14	C	1.002423	0.294284	-0.000081
C15	C	0.871446	0.292352	-0.000082
C16	C	0.821285	0.227849	-0.000046
C17	C	0.902103	0.165286	-0.000013
C18	C	1.033082	0.167225	-0.000016
C19	C	0.932762	0.038226	0.000052
C20	C	1.063740	0.040156	0.000043
C21	C	0.882602	-0.026277	0.000089
C22	C	0.963421	-0.088842	0.000111
C23	C	1.094405	-0.086908	0.000111
C24	C	1.144558	-0.022408	0.000076
C25	C	1.492792	-0.024878	0.000052
C26	C	1.490740	-0.102396	0.000065
C27	C	1.604215	-0.146578	0.000076
C28	C	1.602288	-0.219414	0.000053
C29	C	1.486878	-0.248065	0.000047
C30	C	1.373388	-0.203873	0.000028
C31	C	1.375319	-0.131038	0.000036
N32	N	1.398659	-0.356647	0.082945
N33	N	1.396833	-0.425838	0.082940
C34	C	1.481054	-0.467512	0.000017
N35	N	1.567190	-0.437383	-0.082881
N36	N	1.569020	-0.368186	-0.082869
C37	C	1.484772	-0.327041	0.000037
C38	C	1.592448	-0.590672	0.000001
C39	C	1.590515	-0.663510	-0.000031
C40	C	1.361612	-0.647967	-0.000042
C41	C	1.363548	-0.575131	-0.000024
C42	C	1.478969	-0.546488	0.000005
C43	C	1.712544	0.098738	0.000025
C44	C	1.851944	0.100790	0.000019
C45	C	1.473053	0.230327	-0.000017
C46	C	1.475105	0.307845	-0.000039
N47	N	1.482923	0.102723	0.346684
N48	N	1.482932	0.102721	-0.346646
C49	C	1.654240	0.008658	0.346706
C50	C	1.739906	-0.038372	0.423384
C51	C	1.739919	-0.038373	0.576717
C52	C	1.654253	0.008661	0.653377
C53	C	1.568586	0.055691	0.576699
C54	C	1.568585	0.055688	0.423362
C55	C	1.397265	0.149751	0.576677
C56	C	1.397257	0.149756	0.423343
C57	C	1.311599	0.196785	0.653336
C58	C	1.225937	0.243819	0.576658
C59	C	1.225929	0.243818	0.423315
C60	C	1.311590	0.196786	0.346665
H61	H	0.922569	-0.141356	0.000140
C62	C	1.133060	0.294995	0.340148
C63	C	1.153049	0.363711	0.377402
C64	C	1.067532	0.410874	0.300810
H65	H	1.049245	0.287068	0.365223
H66	H	1.145325	0.288310	0.237834
H67	H	1.140773	0.370393	0.479694
H68	H	1.236847	0.371661	0.352323
H69	H	1.079797	0.404189	0.198495
H70	H	0.983723	0.402940	0.325891
H71	H	1.081091	0.457503	0.326066
C72	C	1.132876	0.294766	0.660077
C73	C	1.056248	0.257168	0.748142
C74	C	0.970517	0.304077	0.825029
H75	H	1.081733	0.322799	0.592626
H76	H	1.177851	0.324051	0.719973
H77	H	1.011276	0.227894	0.688251
H78	H	1.107355	0.229137	0.815620
H79	H	1.015492	0.333363	0.884925
H80	H	0.919384	0.332108	0.757567
H81	H	0.918523	0.278574	0.884800
C82	C	1.181938	-0.154913	0.000069
C83	C	1.109969	-0.211809	0.000065
C84	C	1.190556	-0.274468	0.000006
H85	H	1.233702	-0.156897	0.084992
H86	H	1.233649	-0.156844	-0.084916
H87	H	1.058281	-0.209880	0.085042
H88	H	1.058209	-0.209849	-0.084851
H89	H	1.242267	-0.276398	-0.084979
H90	H	1.242316	-0.276444	0.084930
H91	H	1.141737	-0.313079	-0.000010
C92	C	1.240207	-0.527273	0.000059
C93	C	1.138720	-0.567951	0.000088
C94	C	1.025075	-0.523889	0.000180
H95	H	1.236023	-0.498513	-0.084861
H96	H	1.236134	-0.498557	0.085047
H97	H	1.142791	-0.596655	-0.084891
H98	H	1.142862	-0.596709	0.085001
H99	H	1.021002	-0.495173	0.085167
H100	H	1.020904	-0.495131	-0.084742
H101	H	0.956203	-0.551481	0.000213
C102	C	1.832746	-0.089434	0.339924
C103	C	1.766153	-0.132516	0.251834
C104	C	1.851647	-0.179541	0.174903
H105	H	1.883836	-0.117512	0.407349
H106	H	1.884814	-0.064025	0.280041
H107	H	1.714107	-0.157923	0.311712
H108	H	1.715068	-0.104457	0.184382
H109	H	1.903714	-0.154132	0.115021
H110	H	1.902732	-0.207614	0.242339
H111	H	1.806476	-0.208773	0.115115
H112	H	1.282910	-0.095064	0.000027
C113	C	0.783901	0.360354	-0.000195
C114	C	0.855854	0.417257	-0.000260
C115	C	0.775252	0.479909	-0.000386
H116	H	0.732136	0.362342	0.084726
H117	H	0.732193	0.362271	-0.085182
H118	H	0.907541	0.415340	0.084718
H119	H	0.907616	0.415292	-0.085175
H120	H	0.723543	0.481827	-0.085373
H121	H	0.723491	0.481890	0.084537
H122	H	0.824060	0.518525	-0.000444
C123	C	1.833059	-0.089468	0.659712
C124	C	1.908094	-0.130651	0.559769
C125	C	1.993914	-0.177722	0.636170
H126	H	1.788195	-0.118829	0.719545
H127	H	1.885260	-0.064099	0.719486
H128	H	1.855899	-0.156019	0.500020
H129	H	1.952985	-0.101309	0.499933
H130	H	2.046115	-0.152353	0.695944
H131	H	1.949040	-0.207078	0.696000
H132	H	2.044843	-0.205666	0.568371
H133	H	1.189888	0.233300	-0.000080
H134	H	1.251205	-0.020826	0.000058
H135	H	1.043278	0.346802	-0.000107
H136	H	0.714635	0.226282	-0.000029
H137	H	0.775953	-0.027846	0.000096
H138	H	1.654258	0.008652	0.778229
H139	H	1.698200	-0.123262	0.000095
H140	H	1.694696	-0.255395	0.000056
H141	H	1.311608	0.196779	0.778188
H142	H	1.279421	-0.227205	0.000020
H143	H	1.686430	-0.567350	0.000018
H144	H	1.311595	0.196784	0.221813
H145	H	1.267643	-0.671293	-0.000054
H146	H	1.682925	-0.699483	-0.000030
H147	H	1.654248	0.008659	0.221854
