data_functionalizedCrystal
_audit_creation_method	'MofGen! by Chris Wilmer'
_symmetry_space_group_name_H-M	'P1'
_symmetry_Int_Tables_number	1
_symmetry_cell_setting	triclinic
loop_
_symmetry_equiv_pos_as_xyz
  x,y,z
_cell_length_a	19.288864
_cell_length_b	15.995350
_cell_length_c	17.766277
_cell_angle_alpha	89.995869
_cell_angle_beta	89.976791
_cell_angle_gamma	83.314311
loop_
_atom_site_label
_atom_site_type_symbol
_atom_site_fract_x
_atom_site_fract_y
_atom_site_fract_z
O1	O	0.921624	0.104452	-0.062832
O2	O	0.719400	0.118542	-0.062780
O3	O	0.826040	-0.010412	-0.062807
O4	O	0.814984	0.233405	-0.062805
O5	O	0.826021	-0.010418	0.062382
O6	O	0.719381	0.118535	0.062408
O7	O	0.921605	0.104445	0.062357
Cu8	Cu	0.820492	0.111490	0.073813
Cu9	Cu	0.820514	0.111497	-0.074237
O10	O	0.814965	0.233399	0.062383
C11	C	0.693513	0.118085	-0.000179
C12	C	0.616406	0.116724	-0.000159
C13	C	0.571906	0.192388	-0.000171
C14	C	0.499456	0.191110	-0.000179
C15	C	0.471508	0.114163	-0.000191
C16	C	0.516018	0.038489	-0.000176
C17	C	0.588467	0.039769	-0.000160
C18	C	0.363096	0.053676	-0.044076
C19	C	0.290648	0.052398	-0.044097
C20	C	0.248053	0.110209	-0.000237
C21	C	0.277912	0.169312	0.043634
C22	C	0.350361	0.170593	0.043650
C23	C	0.392951	0.112765	-0.000208
C24	C	0.124993	0.184492	-0.000256
C25	C	0.052542	0.183210	-0.000260
C26	C	0.069106	0.030587	-0.000264
C27	C	0.141556	0.031871	-0.000253
C28	C	0.169495	0.108826	-0.000252
C29	C	0.825574	-0.041608	-0.000214
C30	C	0.824203	-0.134553	-0.000218
C31	C	0.819282	-0.472282	-0.000214
C32	C	0.743335	-0.424562	-0.000475
C33	C	0.744706	-0.327877	-0.000193
C34	C	0.821723	-0.304731	-0.000216
C35	C	0.859172	-0.345953	0.071262
C36	C	0.857264	-0.442582	0.071322
C37	C	0.858855	-0.442939	-0.071041
C38	C	0.858837	-0.345993	-0.071986
C39	C	0.823107	-0.210039	-0.000215
C40	C	0.817901	-0.566975	-0.000210
C41	C	0.947492	0.104902	-0.000246
C42	C	1.024600	0.106263	-0.000271
C43	C	0.815432	0.264595	-0.000211
C44	C	0.816802	0.357540	-0.000212
N45	N	0.820481	0.111484	0.177944
N46	N	0.820530	0.111497	-0.178367
C47	C	0.867717	0.054411	0.217319
C48	C	0.867721	0.054407	0.296120
C49	C	0.820496	0.111490	0.335544
C50	C	0.773251	0.168567	0.296160
C51	C	0.773244	0.168564	0.217359
C52	C	0.811395	0.187781	0.460384
C53	C	0.811407	0.187785	0.539183
C54	C	0.820514	0.111500	0.578590
C55	C	0.829624	0.035208	0.539190
C56	C	0.829617	0.035204	0.460389
C57	C	0.820498	0.111500	0.420990
C58	C	0.867757	0.054419	0.703411
C59	C	0.867756	0.054414	0.782215
C60	C	0.773290	0.168581	0.782252
C61	C	0.773288	0.168579	0.703451
C62	C	0.820525	0.111499	0.664035
H63	H	0.177789	-0.029743	-0.000247
O64	O	0.802649	0.261837	0.422021
C65	C	0.861611	0.268410	0.376422
H66	H	0.889351	0.202841	0.364614
H67	H	0.844373	0.300239	0.321012
H68	H	0.898787	0.307465	0.406764
H69	H	0.734827	0.215056	0.671389
H70	H	0.829941	-0.460783	0.124769
H71	H	0.713107	-0.444044	0.050512
H72	H	0.803994	0.249907	0.571257
H73	H	0.837040	-0.026911	0.571273
H74	H	0.913023	-0.475041	0.074549
H75	H	0.624700	-0.021848	-0.000151
H76	H	0.463217	0.252727	-0.000186
O77	O	0.913661	-0.001114	0.665234
C78	C	0.955361	-0.051482	0.716890
H79	H	0.926889	-0.052340	0.773076
H80	H	0.965957	-0.118384	0.694122
H81	H	1.006957	-0.024455	0.725243
O82	O	0.009342	0.256738	-0.000404
C83	C	0.022054	0.303479	-0.065231
H84	H	0.046838	0.259178	-0.110542
H85	H	-0.029335	0.337251	-0.087004
H86	H	0.058938	0.351802	-0.050569
O87	O	0.261762	-0.005091	-0.086727
C88	C	0.314890	-0.055837	-0.125439
H89	H	0.366505	-0.054819	-0.094412
H90	H	0.301230	-0.123215	-0.128273
H91	H	0.319896	-0.030514	-0.184937
H92	H	0.833147	-0.317477	0.124469
H93	H	0.397772	0.006598	-0.079796
H94	H	0.712988	-0.442976	-0.051732
O95	O	0.913671	-0.000916	0.820550
C96	C	0.956527	0.043802	0.866093
H97	H	0.928856	0.109405	0.877906
H98	H	0.967520	0.008822	0.921503
H99	H	1.007856	0.049339	0.835698
H100	H	0.734799	0.215044	0.328262
O101	O	0.829140	-0.467353	-0.135605
C102	C	0.772109	-0.511415	-0.117733
H103	H	0.752118	-0.492595	-0.059034
H104	H	0.728600	-0.495276	-0.160548
H105	H	0.789490	-0.582002	-0.119166
O106	O	0.488955	-0.036310	-0.000291
C107	C	0.511721	-0.082408	-0.065132
H108	H	0.561982	-0.059780	-0.086733
H109	H	0.521766	-0.152174	-0.050551
H110	H	0.469825	-0.072547	-0.110544
H111	H	0.906178	0.007931	0.185229
O112	O	0.709645	-0.293944	-0.061398
C113	C	0.741886	-0.328411	-0.127461
H114	H	0.772636	-0.391876	-0.113980
H115	H	0.700271	-0.337331	-0.171339
H116	H	0.778822	-0.283897	-0.150485
H117	H	0.837032	-0.026916	0.428312
H118	H	0.734836	0.215056	0.814350
H119	H	0.734778	0.215040	0.185299
H120	H	0.594649	0.255051	-0.000172
H121	H	0.906187	0.007930	0.328186
O122	O	0.925625	-0.481182	-0.071546
C123	C	0.936585	-0.534174	-0.008203
H124	H	0.884361	-0.552220	0.012411
H125	H	0.972119	-0.593462	-0.024316
H126	H	0.962137	-0.499693	0.038514
O127	O	0.925834	-0.327931	-0.077316
C128	C	0.957076	-0.366142	-0.142410
H129	H	0.914772	-0.378083	-0.184548
H130	H	0.993246	-0.322756	-0.168740
H131	H	0.988472	-0.428484	-0.126580
O132	O	0.379257	0.228026	0.086336
C133	C	0.326131	0.278795	0.125032
H134	H	0.278189	0.243715	0.130317
H135	H	0.345433	0.293918	0.183558
H136	H	0.311812	0.339806	0.092513
O137	O	0.709245	-0.294585	0.061032
C138	C	0.639591	-0.313040	0.057819
H139	H	0.636555	-0.370790	0.020904
H140	H	0.620728	-0.326203	0.116997
H141	H	0.605168	-0.257052	0.032959
O142	O	0.926649	-0.329247	0.074324
C143	C	0.941050	-0.279947	0.011690
H144	H	0.890248	-0.245250	-0.010662
H145	H	0.977537	-0.232311	0.029365
H146	H	0.967007	-0.322413	-0.034281
O147	O	0.041851	-0.044087	-0.000310
C148	C	-0.031637	-0.028995	-0.000306
H149	H	-0.048636	0.036414	-0.024005
H150	H	-0.053863	-0.078213	-0.036659
H151	H	-0.051836	-0.032981	0.059749
O152	O	0.152174	0.259220	-0.000377
C153	C	0.193634	0.264527	-0.065195
H154	H	0.176522	0.220847	-0.110521
H155	H	0.187146	0.332036	-0.086950
H156	H	0.250758	0.244991	-0.050528
O157	O	0.826271	-0.313166	-0.135053
C158	C	0.829087	-0.225502	-0.136877
H159	H	0.874700	-0.209309	-0.101062
H160	H	0.836549	-0.204651	-0.197412
H161	H	0.778293	-0.191660	-0.113634
H162	H	0.243232	0.216387	0.079349
