data_functionalizedCrystal
_audit_creation_method	'MofGen! by Chris Wilmer'
_symmetry_space_group_name_H-M	'P1'
_symmetry_Int_Tables_number	1
_symmetry_cell_setting	triclinic
loop_
_symmetry_equiv_pos_as_xyz
  x,y,z
_cell_length_a	16.625546
_cell_length_b	21.295420
_cell_length_c	16.625539
_cell_angle_alpha	89.978382
_cell_angle_beta	90.030397
_cell_angle_gamma	89.980117
loop_
_atom_site_label
_atom_site_type_symbol
_atom_site_fract_x
_atom_site_fract_y
_atom_site_fract_z
Zn1	Zn	-0.321056	-0.962366	0.455920
Zn2	Zn	0.012278	-0.629033	0.789254
Zn3	Zn	0.345611	-0.295699	1.122587
Zn4	Zn	-0.455899	-0.962290	0.321082
Zn5	Zn	-0.122566	-0.628957	0.654416
Zn6	Zn	0.210768	-0.295624	0.987749
Zn7	Zn	-0.321078	-0.857096	0.321098
Zn8	Zn	0.012255	-0.523763	0.654432
Zn9	Zn	0.345589	-0.190430	0.987765
Zn10	Zn	-0.455844	-0.857073	0.455870
Zn11	Zn	-0.122511	-0.523740	0.789203
Zn12	Zn	0.210823	-0.190407	1.122537
O13	O	-0.388469	-0.909707	0.388493
O14	O	-0.055136	-0.576373	0.721826
O15	O	0.278198	-0.243040	1.055159
O16	O	-0.338957	-1.050445	0.438048
O17	O	-0.005623	-0.717112	0.771381
O18	O	0.327710	-0.383779	1.104715
O19	O	-0.438047	-0.948314	0.208252
O20	O	-0.104713	-0.614981	0.541585
O21	O	0.228620	-0.281648	0.874919
O22	O	-0.208243	-0.871102	0.339010
O23	O	0.125091	-0.537769	0.672344
O24	O	0.458424	-0.204435	1.005677
O25	O	-0.438025	-1.050390	0.338983
O26	O	-0.104692	-0.717056	0.672317
O27	O	0.228641	-0.383723	1.005650
O28	O	-0.208226	-0.948443	0.438063
O29	O	0.125107	-0.615110	0.771397
O30	O	0.458440	-0.281776	1.104730
O31	O	-0.338994	-0.871029	0.208264
O32	O	-0.005661	-0.537695	0.541597
O33	O	0.327672	-0.204362	0.874930
O34	O	-0.338941	-0.769004	0.338962
O35	O	-0.005608	-0.435671	0.672295
O36	O	0.327725	-0.102337	1.005628
O37	O	-0.437932	-0.871063	0.568709
O38	O	-0.104599	-0.537729	0.902042
O39	O	0.228735	-0.204396	1.235376
O40	O	-0.437953	-0.768987	0.437978
O41	O	-0.104620	-0.435654	0.771311
O42	O	0.228713	-0.102320	1.104644
O43	O	-0.338904	-0.948421	0.568746
O44	O	-0.005570	-0.615087	0.902079
O45	O	0.327763	-0.281754	1.235413
O46	O	-0.568724	-0.948292	0.338935
O47	O	-0.235391	-0.614959	0.672268
O48	O	0.097943	-0.281625	1.005601
O49	O	-0.568684	-0.870989	0.437962
O50	O	-0.235350	-0.537656	0.771296
O51	O	0.097983	-0.204323	1.104629
C52	C	-0.597960	-0.909647	0.388459
C53	C	-0.264627	-0.576314	0.721792
C54	C	0.068707	-0.242980	1.055126
C55	C	-0.687581	-0.909679	0.388471
C56	C	-0.354248	-0.576346	0.721805
C57	C	-0.020914	-0.243012	1.055138
C58	C	-0.388444	-0.746155	0.388466
C59	C	-0.055111	-0.412822	0.721800
C60	C	0.278222	-0.079488	1.055133
C61	C	-0.388453	-0.676187	0.388474
C62	C	-0.055120	-0.342854	0.721807
C63	C	0.278214	-0.009520	1.055141
C64	C	-1.015757	-0.909789	0.388555
C65	C	-0.682423	-0.576456	0.721889
C66	C	-0.349090	-0.243122	1.055222
C67	C	-0.924448	-0.909756	0.388534
C68	C	-0.591115	-0.576423	0.721868
C69	C	-0.257782	-0.243090	1.055201
C70	C	-0.851672	-0.909733	0.388513
C71	C	-0.518338	-0.576400	0.721846
C72	C	-0.185005	-0.243067	1.055180
C73	C	-0.760358	-0.909702	0.388493
C74	C	-0.427024	-0.576369	0.721826
C75	C	-0.093691	-0.243035	1.055159
C76	C	-0.440106	-0.176737	0.439986
C77	C	-0.106773	0.156597	0.773319
C78	C	0.226561	0.489930	1.106653
C79	C	-0.440107	-0.242479	0.439979
C80	C	-0.106774	0.090854	0.773312
C81	C	0.226559	0.424188	1.106645
C82	C	-0.388476	-0.275347	0.388506
C83	C	-0.055142	0.057986	0.721839
C84	C	0.278191	0.391319	1.055172
C85	C	-0.336853	-0.242468	0.337021
C86	C	-0.003520	0.090866	0.670354
C87	C	0.329814	0.424199	1.003688
C88	C	-0.336859	-0.176727	0.337024
C89	C	-0.003525	0.156607	0.670357
C90	C	0.329808	0.489940	1.003691
N91	N	-0.317880	-0.378581	0.382442
N92	N	0.015454	-0.045247	0.715775
N93	N	0.348787	0.288086	1.049109
N94	N	-0.317877	-0.441032	0.382444
N95	N	0.015457	-0.107699	0.715777
N96	N	0.348790	0.225634	1.049111
C97	C	-0.388457	-0.473422	0.388492
C98	C	-0.055123	-0.140089	0.721826
C99	C	0.278210	0.193245	1.055159
N100	N	-0.459041	-0.441001	0.394554
N101	N	-0.125708	-0.107668	0.727888
N102	N	0.207625	0.225665	1.061221
N103	N	-0.459044	-0.378544	0.394557
N104	N	-0.125710	-0.045211	0.727890
N105	N	0.207623	0.288123	1.061223
C106	C	-0.388464	-0.346633	0.388496
C107	C	-0.055131	-0.013299	0.721830
C108	C	0.278203	0.320034	1.055163
C109	C	-0.440082	-0.577579	0.439962
C110	C	-0.106748	-0.244246	0.773295
C111	C	0.226585	0.089087	1.106628
C112	C	-0.440085	-0.643323	0.439949
C113	C	-0.106751	-0.309990	0.773282
C114	C	0.226582	0.023344	1.106616
C115	C	-0.336823	-0.643311	0.336995
C116	C	-0.003489	-0.309977	0.670329
C117	C	0.329844	0.023356	1.003662
C118	C	-0.336827	-0.577568	0.337004
C119	C	-0.003494	-0.244235	0.670337
C120	C	0.329840	0.089099	1.003671
C121	C	-0.388455	-0.544706	0.388491
C122	C	-0.055122	-0.211373	0.721825
C123	C	0.278211	0.121960	1.055158
C124	C	-0.178160	-0.909783	0.388544
C125	C	0.155173	-0.576450	0.721878
C126	C	0.488506	-0.243117	1.055211
C127	C	-0.088539	-0.909816	0.388566
C128	C	0.244794	-0.576483	0.721900
C129	C	0.578128	-0.243150	1.055233
C130	C	-0.388409	-0.909747	0.598802
C131	C	-0.055076	-0.576414	0.932135
C132	C	0.278258	-0.243081	1.265468
C133	C	-0.388383	-0.909765	0.688423
C134	C	-0.055050	-0.576432	1.021756
C135	C	0.278283	-0.243098	1.355090
C136	C	-0.388490	-0.073897	0.388515
C137	C	-0.055157	0.259437	0.721848
C138	C	0.278177	0.592770	1.055181
C139	C	-0.388487	-0.143865	0.388511
C140	C	-0.055154	0.189468	0.721845
C141	C	0.278180	0.522802	1.055178
C142	C	-0.388471	-0.909702	0.179002
C143	C	-0.055137	-0.576369	0.512335
C144	C	0.278196	-0.243035	0.845669
C145	C	-0.388269	-0.909807	0.089381
C146	C	-0.054936	-0.576473	0.422715
C147	C	0.278397	-0.243140	0.756048
C148	C	-0.388293	-0.909794	1.016599
C149	C	-0.054960	-0.576461	1.349932
C150	C	0.278373	-0.243127	1.683265
C151	C	-0.388321	-0.909784	0.925290
C152	C	-0.054988	-0.576451	1.258624
C153	C	0.278346	-0.243117	1.591957
C154	C	-0.388339	-0.909780	0.852514
C155	C	-0.055006	-0.576446	1.185847
C156	C	0.278328	-0.243113	1.519180
C157	C	-0.388365	-0.909769	0.761199
C158	C	-0.055032	-0.576436	1.094533
C159	C	0.278301	-0.243103	1.427866
H160	H	-0.482149	-0.149985	0.481908
H161	H	-0.148815	0.183349	0.815242
H162	H	0.184518	0.516682	1.148575
H163	H	-0.294822	-0.149963	0.295107
H164	H	0.038511	0.183371	0.628440
H165	H	0.371845	0.516704	0.961774
C166	C	-0.280029	-0.679462	0.280372
C167	C	0.053304	-0.346129	0.613705
C168	C	0.386638	-0.012795	0.947038
N169	N	-0.237252	-0.706694	0.237720
N170	N	0.096081	-0.373361	0.571053
N171	N	0.429415	-0.040028	0.904386
C172	C	-0.496889	-0.278645	0.496613
C173	C	-0.163556	0.054688	0.829946
C174	C	0.169778	0.388022	1.163279
N175	N	-0.539655	-0.305884	0.539272
N176	N	-0.206322	0.027450	0.872605
N177	N	0.127012	0.360783	1.205938
C178	C	-0.280053	-0.278624	0.280405
C179	C	0.053281	0.054709	0.613739
C180	C	0.386614	0.388042	0.947072
N181	N	-0.237269	-0.305857	0.237761
N182	N	0.096064	0.027476	0.571094
N183	N	0.429398	0.360809	0.904427
C184	C	-0.496879	-0.541429	0.496593
C185	C	-0.163546	-0.208096	0.829926
C186	C	0.169788	0.125237	1.163259
N187	N	-0.539660	-0.514203	0.539247
N188	N	-0.206326	-0.180869	0.872580
N189	N	0.127007	0.152464	1.205914
C190	C	-0.496877	-0.679482	0.496574
C191	C	-0.163543	-0.346148	0.829907
C192	C	0.169790	-0.012815	1.163241
N193	N	-0.539654	-0.706717	0.539225
N194	N	-0.206320	-0.373384	0.872559
N195	N	0.127013	-0.040050	1.205892
H196	H	-0.294790	-0.550804	0.295091
H197	H	0.038543	-0.217470	0.628424
H198	H	0.371876	0.115863	0.961757
