data_functionalizedCrystal
_audit_creation_method	'MofGen! by Chris Wilmer'
_symmetry_space_group_name_H-M	'P1'
_symmetry_Int_Tables_number	1
_symmetry_cell_setting	triclinic
loop_
_symmetry_equiv_pos_as_xyz
  x,y,z
_cell_length_a	14.519709
_cell_length_b	10.654541
_cell_length_c	12.996460
_cell_angle_alpha	90.002542
_cell_angle_beta	89.999398
_cell_angle_gamma	84.082036
loop_
_atom_site_label
_atom_site_type_symbol
_atom_site_fract_x
_atom_site_fract_y
_atom_site_fract_z
O1	O	1.224723	0.164615	-0.085426
O2	O	0.956346	0.184001	-0.085457
O3	O	1.096706	-0.008491	-0.085441
O4	O	1.084363	0.357107	-0.085442
O5	O	1.096688	-0.008480	0.085692
O6	O	0.956328	0.184012	0.085677
O7	O	1.224705	0.164626	0.085708
Cu8	Cu	1.090515	0.174320	0.101318
Cu9	Cu	1.090536	0.174307	-0.101067
O10	O	1.084345	0.357118	0.085692
C11	C	0.921973	0.183103	0.000106
C12	C	0.819578	0.180396	0.000094
C13	C	1.095791	-0.055275	0.000123
C14	C	1.093081	-0.194692	0.000116
N15	N	1.090506	0.174329	0.243665
C16	C	0.444630	0.170429	0.000141
C17	C	0.548952	0.173197	0.000128
C18	C	0.632101	0.175412	0.000116
C19	C	0.736429	0.178181	0.000105
C20	C	1.259078	0.165524	0.000142
C21	C	1.361474	0.168231	0.000148
C22	C	1.085260	0.403902	0.000125
C23	C	1.087970	0.543319	0.000126
C24	C	0.920132	0.572904	0.000119
C25	C	0.837489	0.653193	0.000119
C26	C	0.840042	0.784186	0.000120
C27	C	0.925245	0.834892	0.000117
C28	C	1.007887	0.754603	0.000116
C29	C	1.005326	0.623609	0.000119
C30	C	1.175723	0.725019	0.000115
C31	C	1.173173	0.594025	0.000122
C32	C	1.260927	0.775725	0.000112
C33	C	1.343571	0.695436	0.000119
C34	C	1.341015	0.564435	0.000120
C35	C	1.255815	0.513736	0.000122
N36	N	1.090552	0.174289	-0.243415
C37	C	1.090511	0.174332	0.336771
C38	C	1.090519	0.174323	0.453576
C39	C	1.090531	0.174310	0.546675
C40	C	1.090540	0.174302	0.663487
H41	H	0.768118	0.611893	0.000119
H42	H	0.918045	0.466244	0.000121
C43	C	0.750389	0.871512	0.000280
C44	C	0.746965	0.947606	0.088311
C45	C	0.664397	1.028075	0.088486
H46	H	0.699205	0.822715	0.000332
H47	H	0.747895	0.923298	-0.059368
H48	H	0.749449	0.895825	0.147943
H49	H	0.798130	0.996429	0.088278
H50	H	0.661904	1.079862	0.028839
H51	H	0.613220	0.979268	0.088535
H52	H	0.662067	1.079722	0.148209
H53	H	0.927316	0.941555	0.000104
C54	C	1.435976	0.750731	0.000166
C55	C	1.420523	0.882633	0.000182
C56	C	1.505625	0.933619	0.000240
H57	H	1.470114	0.723317	-0.059493
H58	H	1.470046	0.723271	0.059871
H59	H	1.386467	0.910083	-0.059518
H60	H	1.386399	0.910082	0.059836
H61	H	1.539695	0.906158	0.059945
H62	H	1.539757	0.906195	-0.059420
H63	H	1.495152	1.023118	0.000260
C64	C	1.430845	0.477477	0.000169
C65	C	1.506000	0.549927	0.000189
C66	C	1.588767	0.469871	0.000248
H67	H	1.433469	0.425728	-0.059491
H68	H	1.433392	0.425785	0.059873
H69	H	1.503455	0.601597	-0.059508
H70	H	1.503408	0.601674	0.059846
H71	H	1.591314	0.418179	0.059951
H72	H	1.591382	0.418125	-0.059414
H73	H	1.639770	0.519016	0.000271
H74	H	1.262999	0.882388	0.000105
H75	H	1.253726	0.407076	0.000121
