data_functionalizedCrystal
_audit_creation_method	'MofGen! by Chris Wilmer'
_symmetry_space_group_name_H-M	'P1'
_symmetry_Int_Tables_number	1
_symmetry_cell_setting	triclinic
loop_
_symmetry_equiv_pos_as_xyz
  x,y,z
_cell_length_a	29.839134
_cell_length_b	29.839125
_cell_length_c	21.295417
_cell_angle_alpha	90.018987
_cell_angle_beta	89.974633
_cell_angle_gamma	89.978020
loop_
_atom_site_label
_atom_site_type_symbol
_atom_site_fract_x
_atom_site_fract_y
_atom_site_fract_z
Zn1	Zn	0.686754	-0.254121	0.250784
Zn2	Zn	1.186754	0.245879	0.750784
Zn3	Zn	0.686700	-0.178989	0.356031
Zn4	Zn	1.186700	0.321011	0.856031
Zn5	Zn	0.611636	-0.178991	0.250770
Zn6	Zn	1.111636	0.321009	0.750770
Zn7	Zn	0.611599	-0.254078	0.356010
Zn8	Zn	1.111599	0.245922	0.856010
O9	O	0.649172	-0.216545	0.303398
O10	O	1.149172	0.283455	0.803398
O11	O	0.749614	-0.244172	0.264760
O12	O	1.249614	0.255828	0.764760
O13	O	0.676736	-0.116122	0.342071
O14	O	1.176736	0.383878	0.842071
O15	O	0.621639	-0.188975	0.162682
O16	O	1.121639	0.311025	0.662682
O17	O	0.749574	-0.188973	0.342084
O18	O	1.249574	0.311027	0.842084
O19	O	0.676828	-0.244174	0.162693
O20	O	1.176828	0.255826	0.662693
O21	O	0.621587	-0.116123	0.264736
O22	O	1.121587	0.383877	0.764736
O23	O	0.548764	-0.188933	0.264716
O24	O	1.048764	0.311067	0.764716
O25	O	0.621575	-0.316951	0.342048
O26	O	1.121575	0.183049	0.842048
O27	O	0.548736	-0.244100	0.342035
O28	O	1.048736	0.255900	0.842035
O29	O	0.676791	-0.316982	0.264739
O30	O	1.176791	0.183018	0.764739
O31	O	0.676699	-0.188931	0.444117
O32	O	1.176699	0.311069	0.944117
O33	O	0.621523	-0.244098	0.444102
O34	O	1.121523	0.255902	0.944102
C35	C	0.532450	-0.216512	0.303372
C36	C	1.032450	0.283488	0.803372
C37	C	0.482515	-0.216509	0.303375
C38	C	0.982515	0.283491	0.803375
C39	C	0.172867	-0.245234	0.343718
C40	C	0.672867	0.254766	0.843718
C41	C	-0.014806	-0.245254	0.343736
C42	C	0.485194	0.254746	0.843736
O43	O	-0.039075	-0.269659	0.378007
O44	O	0.460925	0.230341	0.878007
N45	N	-0.038270	-0.216578	0.303422
N46	N	0.461730	0.283422	0.803422
C47	C	-0.014812	-0.187898	0.263097
C48	C	0.485188	0.312102	0.763097
O49	O	-0.039076	-0.163511	0.228803
O50	O	0.460924	0.336489	0.728803
C51	C	0.172860	-0.187880	0.263077
C52	C	0.672860	0.312120	0.763077
C53	C	0.196321	-0.216555	0.303398
C54	C	0.696321	0.283445	0.803398
C55	C	0.196328	-0.273907	0.384036
C56	C	0.696328	0.226093	0.884036
C57	C	0.243243	-0.273900	0.384033
C58	C	0.743243	0.226100	0.884033
C59	C	0.266698	-0.245220	0.343713
C60	C	0.766698	0.254780	0.843713
C61	C	0.243236	-0.216548	0.303396
C62	C	0.743236	0.283452	0.803396
C63	C	0.196317	-0.159202	0.222749
C64	C	0.696317	0.340798	0.722749
C65	C	0.243238	-0.159201	0.222747
C66	C	0.743238	0.340799	0.722747
C67	C	0.266699	-0.187876	0.263068
C68	C	0.766699	0.312124	0.763068
C69	C	0.313606	-0.187861	0.263073
C70	C	0.813606	0.312139	0.763073
N71	N	0.337070	-0.216537	0.303387
N72	N	0.837070	0.283463	0.803387
C73	C	0.313616	-0.245217	0.343707
C74	C	0.813616	0.254783	0.843707
C75	C	-0.113343	-0.187908	0.263112
C76	C	0.386657	0.312092	0.763112
C77	C	-0.160261	-0.187912	0.263117
C78	C	0.339739	0.312088	0.763117
C79	C	-0.160251	-0.245269	0.343755
C80	C	0.339749	0.254731	0.843755
C81	C	-0.113333	-0.245263	0.343752
C82	C	0.386667	0.254737	0.843752
C83	C	-0.089879	-0.216584	0.303426
C84	C	0.410121	0.283416	0.803426
C85	C	0.412141	-0.245200	0.343700
C86	C	0.912141	0.254800	0.843700
C87	C	0.459061	-0.245189	0.343696
C88	C	0.959061	0.254811	0.843696
C89	C	0.459048	-0.187833	0.263055
C90	C	0.959048	0.312167	0.763055
C91	C	0.412132	-0.187842	0.263062
C92	C	0.912132	0.312158	0.763062
C93	C	0.388680	-0.216529	0.303386
C94	C	0.888680	0.283471	0.803386
O95	O	0.337904	-0.163473	0.228815
O96	O	0.837904	0.336527	0.728815
O97	O	0.337887	-0.269607	0.377986
O98	O	0.837887	0.230393	0.877986
C99	C	0.125951	-0.245242	0.343721
C100	C	0.625951	0.254758	0.843721
C101	C	0.102490	-0.216569	0.303403
C102	C	0.602490	0.283431	0.803403
C103	C	0.125944	-0.187889	0.263083
C104	C	0.625944	0.312111	0.763083
C105	C	0.055572	-0.216573	0.303409
C106	C	0.555572	0.283427	0.803409
C107	C	0.032118	-0.245252	0.343729
C108	C	0.532118	0.254748	0.843729
C109	C	0.055582	-0.273928	0.384043
C110	C	0.555582	0.226072	0.884043
C111	C	0.102497	-0.273921	0.384041
C112	C	0.602497	0.226079	0.884041
C113	C	0.102481	-0.159213	0.222769
C114	C	0.602481	0.340787	0.722769
C115	C	0.055565	-0.159222	0.222775
C116	C	0.555565	0.340778	0.722775
C117	C	0.032111	-0.187902	0.263095
C118	C	0.532111	0.312098	0.763095
C119	C	0.649184	-0.333723	0.303393
C120	C	1.149184	0.166277	0.803393
C121	C	0.649190	-0.383657	0.303390
C122	C	1.149190	0.116343	0.803390
C123	C	0.677971	-0.693321	0.263030
C124	C	1.177971	-0.193321	0.763030
C125	C	0.677993	-0.880994	0.262977
C126	C	1.177993	-0.380994	0.762977
O127	O	0.702431	-0.905275	0.228720
O128	O	1.202431	-0.405275	0.728720
N129	N	0.649249	-0.904443	0.303222
N130	N	1.149249	-0.404443	0.803222
C131	C	0.620495	-0.880971	0.343480
C132	C	1.120495	-0.380971	0.843480
O133	O	0.596044	-0.905222	0.377706
O134	O	1.096044	-0.405222	0.877706
C135	C	0.620471	-0.693298	0.343531
C136	C	1.120471	-0.193298	0.843531
C137	C	0.649220	-0.669852	0.303287
C138	C	1.149220	-0.169852	0.803287
C139	C	0.706717	-0.669874	0.222790
C140	C	1.206717	-0.169874	0.722790
C141	C	0.706713	-0.622958	0.222806
C142	C	1.206713	-0.122958	0.722806
C143	C	0.677963	-0.599490	0.263063
C144	C	1.177963	-0.099490	0.763063
C145	C	0.649216	-0.622936	0.303303
C146	C	1.149216	-0.122936	0.803303
C147	C	0.591716	-0.669827	0.383786
C148	C	1.091716	-0.169827	0.883786
C149	C	0.591711	-0.622906	0.383793
C150	C	1.091711	-0.122906	0.883793
C151	C	0.620460	-0.599460	0.343550
C152	C	1.120460	-0.099460	0.843550
C153	C	0.620461	-0.552552	0.343576
C154	C	1.120461	-0.052552	0.843576
N155	N	0.649205	-0.529103	0.303331
N156	N	1.149205	-0.029103	0.803331
C157	C	0.677956	-0.552572	0.263074
C158	C	1.177956	-0.052572	0.763074
C159	C	0.620511	-0.979501	0.343452
C160	C	1.120511	-0.479501	0.843452
C161	C	0.620517	-1.026419	0.343441
C162	C	1.120517	-0.526419	0.843441
C163	C	0.678015	-1.026439	0.262936
C164	C	1.178015	-0.526439	0.762936
C165	C	0.678010	-0.979520	0.262951
C166	C	1.178010	-0.479520	0.762951
C167	C	0.649255	-0.956052	0.303207
C168	C	1.149255	-0.456052	0.803207
C169	C	0.677945	-0.454046	0.263112
C170	C	1.177945	0.045954	0.763112
C171	C	0.677940	-0.407126	0.263134
C172	C	1.177940	0.092874	0.763134
C173	C	0.620441	-0.407111	0.343636
C174	C	1.120441	0.092889	0.843636
C175	C	0.620448	-0.454026	0.343617
C176	C	1.120448	0.045974	0.843617
C177	C	0.649202	-0.477493	0.303350
C178	C	1.149202	0.022507	0.803350
O179	O	0.596033	-0.528242	0.377810
O180	O	1.096033	-0.028242	0.877810
O181	O	0.702397	-0.528313	0.228844
O182	O	1.202397	-0.028313	0.728844
C183	C	0.677975	-0.740236	0.263014
C184	C	1.177975	-0.240236	0.763014
C185	C	0.649229	-0.763683	0.303255
C186	C	1.149229	-0.263683	0.803255
C187	C	0.620478	-0.740214	0.343511
C188	C	1.120478	-0.240214	0.843511
C189	C	0.649235	-0.810601	0.303243
C190	C	1.149235	-0.310601	0.803243
C191	C	0.677986	-0.834069	0.262986
C192	C	1.177986	-0.334069	0.762986
C193	C	0.706730	-0.810620	0.222741
C194	C	1.206730	-0.310620	0.722741
C195	C	0.706726	-0.763705	0.222757
C196	C	1.206726	-0.263705	0.722757
C197	C	0.591734	-0.763663	0.383757
C198	C	1.091734	-0.263663	0.883757
C199	C	0.591741	-0.810579	0.383738
C200	C	1.091741	-0.310579	0.883738
C201	C	0.620491	-0.834047	0.343481
C202	C	1.120491	-0.334047	0.843481
C203	C	0.766351	-0.216577	0.303426
C204	C	1.266351	0.283423	0.803426
C205	C	0.816285	-0.216591	0.303437
C206	C	1.316285	0.283409	0.803437
C207	C	0.649113	-0.216520	0.466950
C208	C	1.149113	0.283480	0.966950
C209	C	0.649129	-0.216524	0.536918
C210	C	1.149129	0.283476	1.036918
C211	C	0.649186	-0.099822	0.303359
C212	C	1.149186	0.400178	0.803359
C213	C	0.649268	-0.049888	0.303184
C214	C	1.149268	0.450112	0.803184
C215	C	0.649244	-0.216579	0.139208
C216	C	1.149244	0.283421	0.639208
C217	C	0.649274	-0.216594	0.069240
C218	C	1.149274	0.283406	0.569240
C219	C	0.677885	-0.187828	0.569772
C220	C	1.177885	0.312172	1.069772
C221	C	0.677906	-0.187838	0.635515
C222	C	1.177906	0.312162	1.135515
C223	C	0.649163	-0.216540	0.668401
C224	C	1.149163	0.283460	1.168401
C225	C	0.620405	-0.245241	0.635539
C226	C	1.120405	0.254759	1.135539
C227	C	0.620388	-0.245234	0.569798
C228	C	1.120388	0.254766	1.069798
N229	N	0.609863	-0.219954	0.771663
N230	N	1.109863	0.280046	1.271663
N231	N	0.609880	-0.219958	0.834114
N232	N	1.109880	0.280042	1.334114
C233	C	0.649214	-0.216565	0.866475
C234	C	1.149214	0.283435	1.366475
N235	N	0.688530	-0.213159	0.834026
N236	N	1.188530	0.286841	1.334026
N237	N	0.688512	-0.213152	0.771569
N238	N	1.188512	0.286848	1.271569
C239	C	0.649179	-0.216551	0.739686
C240	C	1.149179	0.283449	1.239686
C241	C	0.677995	-0.187879	0.970615
C242	C	1.177995	0.312121	1.470615
C243	C	0.678017	-0.187892	1.036358
C244	C	1.178017	0.312108	1.536358
C245	C	0.620512	-0.245293	1.036382
C246	C	1.120512	0.254707	1.536382
C247	C	0.620494	-0.245282	0.970639
C248	C	1.120494	0.254718	1.470639
C249	C	0.649235	-0.216572	0.937760
C250	C	1.149235	0.283428	1.437760
H251	H	0.478161	-0.268539	0.376532
H252	H	0.978161	0.231461	0.876532
H253	H	0.478153	-0.164481	0.230230
H254	H	0.978153	0.335519	0.730230
H255	H	-0.094251	-0.164552	0.230272
H256	H	0.405749	0.335448	0.730272
H257	H	0.701353	-0.388038	0.230362
H258	H	1.201353	0.111962	0.730362
H259	H	0.262341	-0.297251	0.416866
H260	H	0.762341	0.202749	0.916866
H261	H	0.597043	-0.473117	0.376392
H262	H	1.097043	0.026883	0.876392
H263	H	0.597112	-1.045506	0.376218
H264	H	1.097112	-0.545506	0.876218
H265	H	0.701399	-0.164503	0.943843
H266	H	1.201399	0.335497	1.443843
H267	H	0.701289	-0.164452	0.543003
H268	H	1.201289	0.335548	1.043003
H269	H	0.597095	-0.960398	0.376238
H270	H	1.097095	-0.460398	0.876238
H271	H	0.568305	-0.688909	0.416556
H272	H	1.068305	-0.188909	0.916556
H273	H	-0.094234	-0.268613	0.376585
H274	H	0.405766	0.231387	0.876585
H275	H	0.596971	-0.268602	0.543047
H276	H	1.096971	0.231398	1.043047
H277	H	0.177237	-0.297264	0.416869
H278	H	0.677237	0.202736	0.916869
H279	H	0.701436	-0.164525	1.063107
H280	H	1.201436	0.335475	1.563107
H281	H	0.730123	-0.603872	0.190034
H282	H	1.230123	-0.103872	0.690034
H283	H	0.701325	-0.164471	0.662269
H284	H	1.201325	0.335529	1.162269
H285	H	0.393029	-0.164492	0.230230
H286	H	0.893029	0.335508	0.730230
H287	H	0.597003	-0.268611	0.662319
H288	H	1.097003	0.231389	1.162319
H289	H	-0.179356	-0.268622	0.376586
H290	H	0.320644	0.231378	0.876586
H291	H	0.597110	-0.268664	1.063157
H292	H	1.097110	0.231336	1.563157
H293	H	0.393052	-0.268560	0.376534
H294	H	0.893052	0.231440	0.876534
H295	H	-0.179359	-0.164558	0.230290
H296	H	0.320641	0.335442	0.730290
H297	H	0.701425	-1.045555	0.230157
H298	H	1.201425	-0.545555	0.730157
H299	H	0.177223	-0.135851	0.189917
H300	H	0.677223	0.364149	0.689917
H301	H	0.121595	-0.297271	0.416874
H302	H	0.621595	0.202729	0.916874
H303	H	0.568290	-0.603801	0.416569
H304	H	1.068290	-0.103801	0.916569
H305	H	0.597035	-0.387994	0.376414
H306	H	1.097035	0.112006	0.876414
H307	H	0.597076	-0.268647	0.943888
H308	H	1.097076	0.231353	1.443888
H309	H	0.701419	-0.960433	0.230180
H310	H	1.201419	-0.460433	0.730180
H311	H	0.262331	-0.135849	0.189904
H312	H	0.762331	0.364151	0.689904
H313	H	0.036467	-0.135868	0.189941
H314	H	0.536467	0.364132	0.689941
H315	H	0.121572	-0.135858	0.189934
H316	H	0.621572	0.364142	0.689934
H317	H	0.036477	-0.297279	0.416875
H318	H	0.536477	0.202721	0.916875
H319	H	0.701358	-0.473147	0.230320
H320	H	1.201358	0.026853	0.730320
H321	H	0.730129	-0.688977	0.190004
H322	H	1.230129	-0.188977	0.690004
H323	H	0.730141	-0.829737	0.189964
H324	H	1.230141	-0.329737	0.689964
H325	H	0.568331	-0.829665	0.416515
H326	H	1.068331	-0.329665	0.916515
H327	H	0.730136	-0.744619	0.189986
H328	H	1.230136	-0.244619	0.689986
H329	H	0.568322	-0.744559	0.416540
H330	H	1.068322	-0.244559	0.916540
