data_functionalizedCrystal
_audit_creation_method	'MofGen! by Chris Wilmer'
_symmetry_space_group_name_H-M	'P1'
_symmetry_Int_Tables_number	1
_symmetry_cell_setting	triclinic
loop_
_symmetry_equiv_pos_as_xyz
  x,y,z
_cell_length_a	16.120530
_cell_length_b	16.120531
_cell_length_c	17.077396
_cell_angle_alpha	87.134749
_cell_angle_beta	87.083390
_cell_angle_gamma	89.826117
loop_
_atom_site_label
_atom_site_type_symbol
_atom_site_fract_x
_atom_site_fract_y
_atom_site_fract_z
Zn1	Zn	1.254425	0.395601	-0.522508
Zn2	Zn	1.247252	0.534661	-0.397525
Zn3	Zn	1.115366	0.388569	-0.384290
Zn4	Zn	1.108262	0.527554	-0.521782
O5	O	1.181326	0.461596	-0.456526
O6	O	1.369838	0.419965	-0.511772
O7	O	1.229729	0.515313	-0.285922
O8	O	1.139788	0.273140	-0.397390
O9	O	1.364569	0.522132	-0.419947
O10	O	1.241954	0.278306	-0.498939
O11	O	1.132832	0.407980	-0.276199
O12	O	0.998059	0.401089	-0.396686
O13	O	1.127679	0.510018	-0.631725
O14	O	0.992839	0.503200	-0.497700
O15	O	1.235065	0.413074	-0.632259
O16	O	1.222840	0.650081	-0.419243
O17	O	1.120724	0.644859	-0.510534
C18	C	0.965277	0.450610	-0.445679
C19	C	0.872849	0.445931	-0.441057
C20	C	0.703623	0.437367	-0.432626
C21	C	0.659867	0.485887	-0.480487
C22	C	0.565704	0.481122	-0.475796
C23	C	0.797795	0.442131	-0.437316
C24	C	1.170255	0.677642	-0.466264
C25	C	1.165595	0.770072	-0.470460
C26	C	1.157092	0.939302	-0.478136
C27	C	1.205592	0.983052	-0.434874
C28	C	1.200861	1.077218	-0.439145
C29	C	1.161822	0.845128	-0.473866
C30	C	1.398219	0.472626	-0.467417
C31	C	1.490646	0.477326	-0.472058
C32	C	1.181380	0.461538	-0.661270
C33	C	1.181403	0.461513	-0.748520
C34	C	1.192434	1.244706	-0.446753
C35	C	1.197091	1.152277	-0.442548
C36	C	1.237320	0.411029	-0.789790
C37	C	1.237332	0.411002	-0.871769
C38	C	1.181429	0.461463	-0.912479
C39	C	1.125505	0.511949	-0.871203
C40	C	1.125490	0.511971	-0.789225
C41	C	1.125541	0.511901	-1.042073
C42	C	1.125556	0.511880	-1.124057
C43	C	1.237383	0.410931	-1.124617
C44	C	1.237368	0.410954	-1.042639
C45	C	1.181445	0.461441	-1.001369
C46	C	1.181324	0.461597	-0.252578
C47	C	1.181474	0.461396	-0.165327
H48	H	0.693125	0.531003	-0.524986
H49	H	1.282868	0.369895	-0.905367
H50	H	1.282916	0.369822	-1.158223
H51	H	0.670367	0.392254	-0.388131
N52	N	1.262121	0.941316	-0.384373
N53	N	1.265922	0.863771	-0.380919
H54	H	1.305836	0.834289	-0.345248
N55	N	1.100542	0.981038	-0.528607
N56	N	1.045186	1.026908	-0.500434
H57	H	1.005246	1.056395	-0.536076
H58	H	1.282846	0.369940	-0.756650
N59	N	1.294484	0.359414	-1.001067
N60	N	1.344411	0.314343	-1.037921
H61	H	1.384751	0.277941	-1.008561
H62	H	1.080034	0.552968	-1.157201
N63	N	1.068406	0.563470	-0.999928
N64	N	1.018497	0.608522	-1.036282
H65	H	0.978147	0.644944	-1.006518
H66	H	1.079985	0.553032	-0.904355
N67	N	1.068361	0.563527	-0.747065
N68	N	0.991916	0.554101	-0.752115
H69	H	0.951563	0.590510	-0.722339
