data_functionalizedCrystal
_audit_creation_method	'MofGen! by Chris Wilmer'
_symmetry_space_group_name_H-M	'P1'
_symmetry_Int_Tables_number	1
_symmetry_cell_setting	triclinic
loop_
_symmetry_equiv_pos_as_xyz
  x,y,z
_cell_length_a	23.096457
_cell_length_b	14.560438
_cell_length_c	14.560438
_cell_angle_alpha	90.001334
_cell_angle_beta	60.000100
_cell_angle_gamma	60.004292
loop_
_atom_site_label
_atom_site_type_symbol
_atom_site_fract_x
_atom_site_fract_y
_atom_site_fract_z
Zr1	Zr	0.633704	0.884862	-0.120481
O2	O	0.754488	0.738230	-0.267124
O3	O	0.512921	0.929800	-0.075531
O4	O	0.633705	0.929814	-0.267129
O5	O	0.633702	0.738219	0.075614
O6	O	0.633704	1.080954	-0.267127
O7	O	0.633704	0.738215	-0.075527
O8	O	0.417644	1.080928	0.075606
O9	O	0.849762	0.738245	-0.267119
O10	O	0.562599	1.061775	-0.056354
O11	O	0.562599	0.948984	0.056439
O12	O	0.704806	0.949001	-0.169142
O13	O	0.704806	0.836209	-0.056349
Zr14	Zr	0.633700	1.125920	0.120574
Zr15	Zr	0.633702	1.125913	-0.120478
Zr16	Zr	0.633701	0.884868	0.120571
Zr17	Zr	0.785656	0.884886	-0.120472
Zr18	Zr	0.481747	1.125895	0.120565
O19	O	0.754482	1.080982	0.075625
O20	O	0.754486	1.080973	-0.267120
O21	O	0.754484	0.738238	0.075621
O22	O	0.512915	1.272552	0.267217
O23	O	0.512919	1.272543	-0.075528
O24	O	0.512918	0.929808	0.267214
O25	O	0.633701	1.272563	-0.075521
O26	O	0.633698	1.080968	0.267222
O27	O	0.633699	0.929828	0.267220
O28	O	0.633699	1.272566	0.075620
O29	O	0.849761	0.929848	-0.267117
O30	O	0.417642	1.080933	0.267210
O31	O	0.417641	1.272537	0.267212
O32	O	0.417643	1.272532	0.075608
O33	O	0.849760	0.738250	-0.075515
O34	O	0.849759	0.929853	-0.075513
O35	O	0.562597	1.061781	0.169235
O36	O	0.562598	1.174572	0.056442
O37	O	0.704804	1.061798	-0.056346
O38	O	0.704804	0.949006	0.056447
C39	C	0.443633	1.005361	0.000036
C40	C	0.379125	1.005350	0.000032
C41	C	0.296338	1.088618	0.083290
C42	C	0.235716	1.088626	0.083301
C43	C	0.257887	1.005374	0.000036
C44	C	0.340687	0.922092	-0.083229
C45	C	0.401307	0.922080	-0.083231
N46	N	0.201778	0.980184	-0.098703
N47	N	0.144188	0.980202	-0.098697
C48	C	0.075248	1.005404	0.000038
N49	N	0.066063	1.030608	0.098772
N50	N	0.123656	1.030595	0.098766
C51	C	0.192161	1.005377	0.000029
C52	C	-0.073276	1.088684	0.083314
C53	C	-0.133897	1.088685	0.083326
C54	C	-0.028923	0.922155	-0.083214
C55	C	0.031695	0.922151	-0.083216
C56	C	0.009514	1.005421	0.000047
C57	C	0.633703	0.703872	0.000043
C58	C	0.633704	0.601540	0.000042
C59	C	0.633707	0.553462	-0.083224
C60	C	0.633701	0.457314	-0.083218
C61	C	0.633694	0.457329	0.083326
C62	C	0.633694	0.553479	0.083323
C63	C	0.585995	0.363739	-0.145415
C64	C	0.586011	0.315646	-0.228697
C65	C	0.633733	0.309004	-0.340063
C66	C	0.681457	0.350437	-0.368166
C67	C	0.681448	0.398519	-0.284889
C68	C	0.633707	0.405178	-0.173511
C69	C	0.681407	0.647050	0.145509
C70	C	0.681404	0.695130	0.228783
C71	C	0.633687	0.701770	0.340153
C72	C	0.585975	0.660324	0.368255
C73	C	0.585979	0.612245	0.284981
C74	C	0.633694	0.605612	0.173612
C75	C	0.823771	1.005421	0.000057
C76	C	0.888278	1.005431	0.000061
C77	C	0.633705	1.005383	-0.301473
C78	C	0.633706	1.005381	-0.403806
C79	C	0.633700	1.306909	0.000050
C80	C	0.633699	1.409242	0.000051
C81	C	0.707935	0.946515	-0.510756
C82	C	0.707931	0.946528	-0.606905
C83	C	0.559462	1.064274	-0.489139
C84	C	0.559467	1.064267	-0.392993
C85	C	0.797108	0.929327	-0.809039
C86	C	0.871341	0.870443	-0.915996
C87	C	0.936883	0.764936	-0.936781
C88	C	0.928194	0.718290	-0.850613
C89	C	0.853960	0.777168	-0.743660
C90	C	0.788421	0.882693	-0.722876
C91	C	0.470295	1.081456	-0.190861
C92	C	0.396060	1.140327	-0.083906
C93	C	0.330512	1.245833	-0.063114
C94	C	0.339192	1.292472	-0.149278
C95	C	0.413428	1.233600	-0.256233
C96	C	0.478976	1.128096	-0.277019
C97	C	0.633698	1.005398	0.301566
C98	C	0.633697	1.005401	0.403899
C99	C	0.443631	1.306879	0.000039
C100	C	0.379123	1.409201	0.000037
C101	C	0.443629	1.005368	0.301555
C102	C	0.379121	1.005361	0.403885
C103	C	0.443628	1.306887	0.301559
C104	C	0.379118	1.409211	0.403889
C105	C	0.823776	0.703895	-0.301466
C106	C	0.888285	0.601570	-0.403796
C107	C	0.823772	0.703903	0.000054
C108	C	0.888281	0.601580	0.000056
C109	C	0.823774	1.005413	-0.301462
C110	C	0.888283	1.005421	-0.403792
C111	C	0.348830	1.398374	-0.058853
C112	C	0.288226	1.494507	-0.058878
C113	C	0.257911	1.601467	-0.000006
C114	C	0.288210	1.612292	0.058886
C115	C	0.348817	1.516160	0.058903
C116	C	0.348826	1.064236	0.510828
C117	C	0.288221	1.064224	0.606987
C118	C	0.257909	1.005344	0.596199
C119	C	0.288210	0.946461	0.489245
C120	C	0.348817	0.946467	0.393089
C121	C	0.348824	1.516150	0.393068
C122	C	0.288219	1.612305	0.489209
C123	C	0.257905	1.601518	0.596170
C124	C	0.288205	1.494567	0.606990
C125	C	0.348813	1.398416	0.510850
C126	C	0.918586	0.494631	-0.392974
C127	C	0.979210	0.398477	-0.489116
C128	C	1.009527	0.409264	-0.596077
C129	C	0.979223	0.516214	-0.606897
C130	C	0.918605	0.612366	-0.510756
C131	C	0.918580	0.612408	0.058936
C132	C	0.979201	0.516274	0.058934
C133	C	1.009517	0.409315	0.000059
C134	C	0.979215	0.398489	-0.058828
C135	C	0.918600	0.494622	-0.058832
C136	C	0.918576	1.064313	-0.392968
C137	C	0.979181	1.064343	-0.489108
C138	C	1.009495	1.005472	-0.596071
C139	C	0.979196	0.946578	-0.606892
C140	C	0.918588	0.946556	-0.510753
H141	H	0.099106	0.854351	-0.151020
F142	F	1.011496	0.527677	-0.720742
H143	H	0.893901	0.699491	0.106887
H144	H	0.720261	0.641652	0.054824
F145	F	0.633750	0.257815	-0.428697
H146	H	1.058846	1.005499	-0.674344
F147	F	0.381049	0.883805	0.279274
H148	H	0.499020	1.112216	-0.480349
F149	F	0.732258	0.343344	-0.486703
F150	F	1.011436	0.527819	0.121616
H151	H	0.388993	1.102338	-0.013753
H152	H	-0.201308	1.156490	0.151131
H153	H	-0.091338	1.156483	0.151118
F154	F	1.074043	0.306920	-0.698390
H155	H	0.373474	1.524991	0.106865
H156	H	0.373497	1.524955	0.305983
F157	F	0.381073	1.126913	0.522334
H158	H	-0.010870	0.854369	-0.151009
F159	F	0.255988	1.482963	-0.121557
F160	F	0.633715	0.604610	-0.171857
H161	H	0.358735	0.854307	-0.151024
F162	F	0.535219	0.271553	-0.198784
F163	F	1.011473	0.883920	-0.720738
F164	F	0.886358	0.726176	-0.522291
H165	H	0.263555	1.699379	0.480379
F166	F	0.786946	0.883850	-0.522268
F167	F	1.074029	0.307011	0.000075
F168	F	0.535198	0.370811	-0.026885
H169	H	0.468719	0.854269	-0.151029
H170	H	0.893930	0.898594	-0.519581
H171	H	0.278270	1.156422	0.151091
F172	F	0.193399	1.703862	0.698483
H173	H	0.523669	0.995544	-0.207782
F174	F	0.732189	0.739234	0.198869
H175	H	0.893905	0.485827	-0.305890
H176	H	1.003873	0.311403	-0.480284
F177	F	1.011487	0.284646	-0.121480
H178	H	0.893932	0.485790	-0.106776
F179	F	0.255934	1.483105	0.720835
F180	F	0.886323	1.126976	-0.279140
H181	H	1.003844	1.112299	-0.480275
H182	H	0.720306	0.432249	-0.307770
F183	F	0.147597	1.177256	0.171918
H184	H	0.633687	0.418187	0.151131
F185	F	0.255937	1.726136	0.121540
F186	F	0.535197	0.568135	0.314893
H187	H	0.547124	0.665728	0.458941
H188	H	0.285815	1.378378	-0.132350
H189	H	0.270063	1.293757	0.023977
F190	F	0.193406	1.703771	-0.000033
H191	H	0.846884	0.739187	-0.673506
F192	F	0.633694	0.752930	0.428776
F193	F	0.255982	1.126901	0.720805
H194	H	0.981564	0.632370	-0.867553
H195	H	0.997325	0.716992	-1.023873
H196	H	0.373471	1.311345	0.519676
H197	H	0.743747	1.015246	-0.792120
F198	F	0.880585	0.920089	-1.007698
H199	H	0.208559	1.005348	0.674505
H200	H	0.420492	1.271583	-0.326391
F201	F	0.255940	0.883800	0.477781
F202	F	0.381083	1.284548	-0.121520
