data_functionalizedCrystal
_audit_creation_method	'MofGen! by Chris Wilmer'
_symmetry_space_group_name_H-M	'P1'
_symmetry_Int_Tables_number	1
_symmetry_cell_setting	triclinic
loop_
_symmetry_equiv_pos_as_xyz
  x,y,z
_cell_length_a	17.699077
_cell_length_b	17.699083
_cell_length_c	13.448316
_cell_angle_alpha	89.992503
_cell_angle_beta	89.993795
_cell_angle_gamma	83.281795
loop_
_atom_site_label
_atom_site_type_symbol
_atom_site_fract_x
_atom_site_fract_y
_atom_site_fract_z
O1	O	1.004081	0.095691	-0.082681
O2	O	0.783702	0.108149	-0.082686
O3	O	0.900118	-0.008269	-0.082674
O4	O	0.887665	0.212109	-0.082692
O5	O	0.900103	-0.008276	0.082710
O6	O	0.783687	0.108142	0.082698
O7	O	1.004066	0.095684	0.082703
Cu8	Cu	0.893876	0.101912	0.097801
Cu9	Cu	0.893893	0.101921	-0.097784
O10	O	0.887651	0.212102	0.082692
C11	C	0.755498	0.107700	0.000006
C12	C	0.671479	0.106363	0.000004
C13	C	0.632004	0.105729	0.090156
C14	C	0.553061	0.104461	0.090157
C15	C	0.513595	0.103832	0.000005
C16	C	0.553076	0.104463	-0.090154
C17	C	0.632018	0.105726	-0.090154
C18	C	0.234713	0.099370	-0.090155
C19	C	0.155765	0.098110	-0.090148
C20	C	0.155756	0.098105	0.090156
C21	C	0.234698	0.099367	0.090155
C22	C	0.274173	0.099995	-0.000003
C23	C	0.359772	0.101369	-0.000003
C24	C	0.427997	0.102464	0.000004
C25	C	0.899664	-0.036470	0.000018
C26	C	0.898326	-0.120488	0.000018
C27	C	0.966659	-0.169110	0.000021
C28	C	0.965397	-0.248054	0.000012
C29	C	0.895800	-0.278373	0.000008
C30	C	0.827461	-0.229744	0.000002
C31	C	0.828724	-0.150803	0.000003
C32	C	0.822366	-0.548107	-0.000007
C33	C	0.821108	-0.627055	-0.000005
C34	C	0.959039	-0.645358	0.000002
C35	C	0.960302	-0.566417	0.000004
C36	C	0.891963	-0.517795	-0.000007
C37	C	0.893333	-0.432196	0.000001
C38	C	0.894430	-0.363971	0.000007
C39	C	1.032271	0.096133	0.000010
C40	C	1.116289	0.097470	0.000005
C41	C	0.888104	0.240303	-0.000002
C42	C	0.889443	0.324321	-0.000009
N43	N	0.893869	0.101906	0.235366
N44	N	0.893905	0.101921	-0.235348
C45	C	0.945434	0.050377	0.287411
C46	C	0.945438	0.050377	0.391514
C47	C	0.893881	0.101909	0.443570
C48	C	0.842311	0.153440	0.391518
C49	C	0.842303	0.153436	0.287416
C50	C	0.842332	0.153445	0.608498
C51	C	0.842341	0.153450	0.712606
C52	C	0.945467	0.050385	0.712596
C53	C	0.945459	0.050382	0.608495
C54	C	0.893890	0.101914	0.556449
H55	H	0.266844	0.099879	-0.163567
O56	O	0.674564	0.106412	0.187396
H57	H	0.736089	0.107405	0.172254
H58	H	1.014683	-0.684956	0.000006
O59	O	0.748658	-0.495676	0.000006
H60	H	0.715343	-0.506439	-0.067394
H61	H	0.520926	0.103932	0.163568
O62	O	0.755019	-0.098360	0.000010
H63	H	0.752296	-0.061954	-0.067401
O64	O	1.001039	-0.005207	0.231266
H65	H	1.036890	-0.041044	0.284950
H66	H	0.266827	0.099883	0.163566
H67	H	0.520937	0.103946	-0.163557
H68	H	0.764431	-0.651737	-0.000007
H69	H	0.800329	0.195396	0.433908
H70	H	0.664157	0.106244	-0.163565
H71	H	1.016974	-0.541735	0.000013
H72	H	0.800313	0.195395	0.245042
O73	O	1.001067	-0.005199	0.552348
H74	H	0.969270	-0.041939	0.504933
O75	O	0.752393	-0.262440	0.000007
H76	H	0.762993	-0.325502	0.000021
H77	H	0.800357	0.195412	0.754985
H78	H	0.800336	0.195406	0.566126
O79	O	1.001068	-0.005187	0.447653
H80	H	1.036928	-0.041009	0.393966
H81	H	0.987457	0.008426	0.754977
H82	H	1.021041	-0.287639	0.000017
O83	O	0.113014	0.097689	0.187302
H84	H	0.083758	0.045640	0.191777
O85	O	0.113196	0.097405	-0.187387
H86	H	0.153909	0.098039	-0.250080
O87	O	1.041725	-0.136409	0.000017
H88	H	1.089028	-0.183485	0.000004
