data_functionalizedCrystal
_audit_creation_method	'MofGen! by Chris Wilmer'
_symmetry_space_group_name_H-M	'P1'
_symmetry_Int_Tables_number	1
_symmetry_cell_setting	triclinic
loop_
_symmetry_equiv_pos_as_xyz
  x,y,z
_cell_length_a	23.096457
_cell_length_b	20.875641
_cell_length_c	23.096457
_cell_angle_alpha	122.412027
_cell_angle_beta	90.002696
_cell_angle_gamma	62.439477
loop_
_atom_site_label
_atom_site_type_symbol
_atom_site_fract_x
_atom_site_fract_y
_atom_site_fract_z
Zr1	Zr	0.581024	0.702126	0.099257
O2	O	0.493009	0.835948	0.196137
O3	O	0.604932	0.568306	0.066484
O4	O	0.609364	0.702131	0.191709
O5	O	0.488576	0.702117	-0.024372
O6	O	0.704645	0.702133	0.191713
O7	O	0.488576	0.702123	0.070912
O8	O	0.696716	0.462743	-0.032292
O9	O	0.496506	0.941507	0.199633
O10	O	0.689949	0.623348	0.056223
O11	O	0.618842	0.623343	-0.014889
O12	O	0.624061	0.780906	0.132547
O13	O	0.552955	0.780900	0.061436
Zr14	Zr	0.732986	0.702120	-0.052704
Zr15	Zr	0.732986	0.702129	0.099262
Zr16	Zr	0.581025	0.702117	-0.052710
Zr17	Zr	0.586602	0.870480	0.104832
Zr18	Zr	0.727409	0.533766	-0.058280
O19	O	0.709079	0.835940	-0.019932
O20	O	0.709078	0.835952	0.196145
O21	O	0.493009	0.835936	-0.019940
O22	O	0.821002	0.568298	-0.149584
O23	O	0.821001	0.568310	0.066492
O24	O	0.604933	0.568294	-0.149593
O25	O	0.825434	0.702129	0.070924
O26	O	0.704646	0.702115	-0.145157
O27	O	0.609366	0.702113	-0.145161
O28	O	0.825435	0.702124	-0.024360
O29	O	0.617295	0.941509	0.199637
O30	O	0.696716	0.462737	-0.153085
O31	O	0.817505	0.462739	-0.153080
O32	O	0.817505	0.462746	-0.032287
O33	O	0.496506	0.941501	0.078839
O34	O	0.617295	0.941503	0.078844
O35	O	0.689949	0.623340	-0.085995
O36	O	0.761056	0.623346	-0.014883
O37	O	0.695168	0.780903	0.061441
O38	O	0.624062	0.780898	-0.009671
C39	C	0.650029	0.491538	0.016302
C40	C	0.647661	0.420067	0.013935
C41	C	0.466925	0.702120	0.023269
C42	C	0.402413	0.702118	0.023267
C43	C	0.683664	0.386493	0.049943
C44	C	0.681441	0.319333	0.047712
C45	C	0.643211	0.285754	0.009477
C46	C	0.607207	0.319331	-0.026535
C47	C	0.609435	0.386485	-0.024308
C48	C	0.632573	0.084910	-0.001168
C49	C	0.630347	0.017754	-0.003390
C50	C	0.704582	0.017759	0.070856
C51	C	0.706802	0.084917	0.073083
C52	C	0.670802	0.118485	0.037068
N53	N	0.640936	0.217109	0.007198
N54	N	0.673081	0.187125	0.039343
C55	C	0.406500	0.619877	-0.016567
C56	C	0.345885	0.619876	-0.016570
C57	C	0.281183	0.702120	0.023274
C58	C	0.277099	0.784372	0.063110
C59	C	0.337714	0.784371	0.063106
N60	N	0.160415	0.763341	0.085714
N61	N	0.102835	0.763336	0.085716
C62	C	0.098550	0.702129	0.023287
N63	N	0.154026	0.640912	-0.039144
N64	N	0.211612	0.640914	-0.039145
C65	C	0.215452	0.702131	0.023283
C66	C	0.036913	0.619881	-0.016553
C67	C	-0.023705	0.619883	-0.016558
C68	C	-0.092491	0.784381	0.063129
C69	C	-0.031873	0.784377	0.063127
C70	C	0.032827	0.702124	0.023287
C71	C	0.847086	0.702127	0.023283
C72	C	0.911597	0.702128	0.023286
C73	C	0.657005	0.702134	0.213363
C74	C	0.657004	0.702137	0.277877
C75	C	0.663982	0.912708	0.030250
C76	C	0.666349	0.984179	0.032617
C77	C	0.622629	0.784363	0.778220
C78	C	0.622622	0.784367	0.717607
C79	C	0.657015	0.702124	0.647453
C80	C	0.691402	0.619871	0.637915
C81	C	0.691401	0.619869	0.698529
N82	N	0.715392	0.640909	0.522628
N83	N	0.715391	0.640917	0.465050
C84	C	0.657017	0.702126	0.464825
N85	N	0.598644	0.763341	0.524359
N86	N	0.598647	0.763336	0.581944
C87	C	0.657019	0.702118	0.581723
C88	C	0.622621	0.784379	0.408643
C89	C	0.622612	0.784381	0.348027
C90	C	0.691399	0.619882	0.268335
C91	C	0.691400	0.619883	0.328952
C92	C	0.657013	0.702135	0.399103
C93	C	0.657008	0.702115	0.833190
C94	C	0.657014	0.702120	0.768681
C95	C	0.840109	0.491541	0.016309
C96	C	0.902253	0.420072	0.013944
C97	C	0.650030	0.491527	-0.173785
C98	C	0.647662	0.420053	-0.240666
C99	C	0.840110	0.491531	-0.173778
C100	C	0.902254	0.420058	-0.240656
C101	C	0.473900	0.912715	0.220330
C102	C	0.411756	0.984189	0.287208
C103	C	0.473901	0.912705	0.030243
C104	C	0.411757	0.984175	0.032608
C105	C	0.663981	0.912719	0.220337
C106	C	0.666348	0.984193	0.287218
C107	C	0.894320	0.386510	0.049957
C108	C	0.952705	0.319366	0.047750
C109	C	1.019023	0.285780	0.009525
C110	C	1.026956	0.319348	-0.026488
C111	C	0.968571	0.386496	-0.024277
C112	C	0.683668	0.386486	-0.309197
C113	C	0.681441	0.319338	-0.372044
C114	C	0.643212	0.285753	-0.366358
C115	C	0.607203	0.319326	-0.297820
C116	C	0.609426	0.386478	-0.234974
C117	C	0.968561	0.386496	-0.234943
C118	C	1.026958	0.319349	-0.297777
C119	C	1.019047	0.285760	-0.366322
C120	C	0.952733	0.319328	-0.372033
C121	C	0.894338	0.386479	-0.309201
C122	C	0.345450	1.017758	0.281496
C123	C	0.287053	1.084927	0.344330
C124	C	0.294965	1.118519	0.412875
C125	C	0.361278	1.084946	0.418586
C126	C	0.419673	1.017784	0.355753
C127	C	0.419691	1.017743	-0.003399
C128	C	0.361307	1.084906	-0.001174
C129	C	0.294989	1.118494	0.037053
C130	C	0.287056	1.084922	0.073064
C131	C	0.345440	1.017766	0.070843
C132	C	0.704583	1.017757	0.281509
C133	C	0.706821	1.084906	0.344344
C134	C	0.670820	1.118494	0.412888
C135	C	0.632583	1.084924	0.418596
C136	C	0.630350	1.017771	0.355761
H137	H	0.714791	0.413832	0.081081
F138	F	0.944324	0.283571	-0.444991
H139	H	0.338995	0.990411	0.225688
F140	F	1.081155	0.214314	0.007177
H141	H	0.719403	0.552895	0.690756
F142	F	0.350231	0.532341	-0.058966
H143	H	1.080960	0.291993	-0.057610
H144	H	0.594618	0.851341	0.725375
F145	F	0.369764	1.120620	-0.039506
H146	H	0.975016	0.413834	-0.179136
F147	F	-0.161348	0.871912	0.105530
H148	H	0.946232	0.292043	0.077077
H149	H	0.580116	0.413822	-0.053627
H150	H	0.576084	0.291982	-0.057671
H151	H	0.089595	0.552905	-0.049008
H152	H	0.733893	-0.009579	0.100177
F153	F	0.232809	1.189999	0.479743
H154	H	0.719403	0.552909	0.580792
F155	F	0.369687	1.120705	0.491544
F156	F	0.490267	0.982010	-0.044085
H157	H	0.599212	0.990451	0.360419
F158	F	0.208238	0.871902	0.105512
H159	H	0.710757	0.291997	0.077031
F160	F	0.823744	0.422245	0.090646
F161	F	1.081203	0.214291	-0.433189
F162	F	0.586026	0.871902	0.852878
F163	F	0.747488	0.120654	0.113781
H164	H	1.080948	0.292024	-0.293114
F165	F	0.977025	0.422203	-0.062614
F166	F	0.640853	0.214283	-0.433252
H167	H	0.594617	0.851353	0.465764
H168	H	0.594607	0.851355	0.355801
H169	H	0.714798	0.413824	-0.313840
F170	F	0.727997	0.532353	0.193676
F171	F	0.571105	0.422190	-0.162040
F172	F	0.823770	0.422187	-0.315292
H173	H	0.247454	1.173177	0.038855
H174	H	0.719404	0.552913	0.321181
F175	F	0.594260	0.120624	-0.039502
H176	H	0.710767	0.292011	-0.427845
F177	F	0.216470	1.120677	0.113744
F178	F	0.566520	0.283572	-0.291780
F179	F	0.336985	0.982042	0.109164
H180	H	-0.020371	0.552910	-0.049001
H181	H	0.233064	1.112250	0.339665
H182	H	0.473661	0.990452	0.360413
F183	F	0.742905	0.982022	0.208565
H184	H	0.603272	1.112282	0.474412
F185	F	0.747516	1.120626	0.338255
H186	H	0.599212	-0.009583	-0.034526
F187	F	0.475355	0.532336	-0.058972
H188	H	0.334381	0.851344	0.095542
H189	H	0.672644	1.173174	0.464047
H190	H	-0.035204	0.851346	0.095569
