data_functionalizedCrystal
_audit_creation_method	'MofGen! by Chris Wilmer'
_symmetry_space_group_name_H-M	'P1'
_symmetry_Int_Tables_number	1
_symmetry_cell_setting	triclinic
loop_
_symmetry_equiv_pos_as_xyz
  x,y,z
_cell_length_a	17.038272
_cell_length_b	16.992694
_cell_length_c	16.053802
_cell_angle_alpha	92.750953
_cell_angle_beta	92.751609
_cell_angle_gamma	89.110110
loop_
_atom_site_label
_atom_site_type_symbol
_atom_site_fract_x
_atom_site_fract_y
_atom_site_fract_z
O1	O	0.163385	-1.054593	-0.069325
O2	O	0.161558	-0.826187	-0.069350
O3	O	0.048571	-0.939032	-0.069331
O4	O	0.276372	-0.941748	-0.069344
O5	O	0.054763	-0.932819	0.069527
O6	O	0.167750	-0.819974	0.069508
O7	O	0.169577	-1.048380	0.069533
Zn8	Zn	0.169646	-0.933190	0.091567
Zn9	Zn	0.161489	-0.941376	-0.091384
O10	O	0.282564	-0.935535	0.069514
C11	C	0.022384	-0.933456	0.000098
C12	C	-0.064871	-0.926089	0.000097
C13	C	0.162304	-0.793711	0.000076
C14	C	0.155293	-0.706200	0.000067
C15	C	0.168831	-1.080856	0.000105
C16	C	0.175841	-1.168367	0.000109
C17	C	-0.110741	-0.993729	0.000105
C18	C	-0.192727	-0.986802	0.000096
C19	C	-0.228840	-0.912235	0.000085
C20	C	-0.182964	-0.844590	0.000075
C21	C	-0.100981	-0.851518	0.000077
C22	C	-0.476135	-0.887761	0.000071
C23	C	-0.558124	-0.880838	0.000071
C24	C	-0.567881	-1.023051	0.000091
C25	C	-0.485895	-1.029972	0.000099
C26	C	-0.440026	-0.962328	0.000084
C27	C	-0.312643	-0.905153	0.000079
C28	C	-0.356226	-0.969410	0.000084
C29	C	0.308751	-0.941111	0.000084
C30	C	0.396006	-0.948478	0.000079
N31	N	0.175214	-0.927609	0.216427
C32	C	0.222933	-0.660472	0.000064
C33	C	0.216342	-0.578245	0.000076
C34	C	0.142110	-0.541748	0.000085
C35	C	0.074465	-0.587482	0.000091
C36	C	0.081057	-0.669707	0.000085
C37	C	0.114789	-0.296327	0.000109
C38	C	0.108201	-0.214096	0.000112
C39	C	0.250079	-0.204864	0.000099
C40	C	0.256665	-0.287091	0.000088
C41	C	0.189020	-0.332818	0.000098
N42	N	0.135371	-0.457699	0.000094
N43	N	0.195760	-0.416865	0.000095
N44	N	0.155915	-0.946963	-0.216243
C45	C	0.127157	-0.975645	0.260129
C46	C	0.131060	-0.971749	0.347535
C47	C	0.183023	-0.919820	0.391237
C48	C	0.231082	-0.871779	0.347529
C49	C	0.227175	-0.875672	0.260125
C50	C	0.200067	-0.902815	0.652644
C51	C	0.203972	-0.898928	0.740055
C52	C	0.103948	-0.998897	0.740054
C53	C	0.100050	-1.002788	0.652648
C54	C	0.148105	-0.954744	0.608948
N55	N	0.187015	-0.915838	0.480580
N56	N	0.144109	-0.958723	0.519606
H57	H	-0.081343	-1.054449	0.000119
Cl58	Cl	-0.018856	-0.541600	0.000107
Cl59	Cl	0.034725	-1.068071	0.597707
H60	H	0.025977	-0.706939	0.000087
H61	H	0.239197	-0.863697	0.617070
H62	H	0.246290	-0.856639	0.775633
H63	H	0.091928	-1.010863	0.383116
Cl64	Cl	0.043536	-1.059288	0.794995
H65	H	0.271422	-0.541016	0.000072
Cl66	Cl	0.296404	-0.806493	0.402468
Cl67	Cl	-0.310824	-1.063149	0.000093
Cl68	Cl	0.014875	-0.168215	0.000142
H69	H	0.266306	-0.836555	0.224543
Cl70	Cl	0.029748	-0.353801	0.000121
Cl71	Cl	0.316258	-0.706345	0.000047
Cl72	Cl	-0.418482	-0.802721	0.000050
H73	H	-0.230071	-1.041882	0.000105
Cl74	Cl	-0.603523	-0.787089	0.000063
H75	H	-0.456497	-1.090692	0.000108
Cl76	Cl	0.335113	-0.147374	0.000090
Cl77	Cl	-0.228365	-0.750848	0.000051
Cl78	Cl	-0.043315	-0.766481	0.000064
H79	H	-0.605236	-1.078123	0.000102
H80	H	-0.342056	-0.844440	0.000072
H81	H	0.317112	-0.316801	0.000071
H82	H	0.084847	-1.017934	0.224552
