data_functionalizedCrystal
_audit_creation_method	'MofGen! by Chris Wilmer'
_symmetry_space_group_name_H-M	'P1'
_symmetry_Int_Tables_number	1
_symmetry_cell_setting	triclinic
loop_
_symmetry_equiv_pos_as_xyz
  x,y,z
_cell_length_a	21.295417
_cell_length_b	21.295420
_cell_length_c	19.120904
_cell_angle_alpha	87.577302
_cell_angle_beta	87.591662
_cell_angle_gamma	90.028757
loop_
_atom_site_label
_atom_site_type_symbol
_atom_site_fract_x
_atom_site_fract_y
_atom_site_fract_z
Zn1	Zn	-0.265835	0.947123	0.397096
Zn2	Zn	0.067498	1.280456	0.730429
Zn3	Zn	0.400832	1.613789	1.063763
Zn4	Zn	-0.366613	0.951531	0.279640
Zn5	Zn	-0.033280	1.284864	0.612973
Zn6	Zn	0.300054	1.618197	0.946307
Zn7	Zn	-0.261359	0.846351	0.279662
Zn8	Zn	0.071974	1.179684	0.612995
Zn9	Zn	0.405307	1.513017	0.946328
Zn10	Zn	-0.371065	0.841817	0.397048
Zn11	Zn	-0.037732	1.175150	0.730381
Zn12	Zn	0.295602	1.508484	1.063714
O13	O	-0.316218	0.896705	0.338361
O14	O	0.017115	1.230039	0.671695
O15	O	0.350449	1.563372	1.005028
O16	O	-0.279213	1.035796	0.381526
O17	O	0.054120	1.369130	0.714860
O18	O	0.387453	1.702463	1.048193
O19	O	-0.348915	0.941320	0.181361
O20	O	-0.015581	1.274654	0.514694
O21	O	0.317752	1.607987	0.848028
O22	O	-0.173865	0.859771	0.295269
O23	O	0.159469	1.193104	0.628602
O24	O	0.492802	1.526437	0.961935
O25	O	-0.353254	1.039035	0.295232
O26	O	-0.019921	1.372368	0.628565
O27	O	0.313412	1.705701	0.961899
O28	O	-0.177153	0.933807	0.381547
O29	O	0.156180	1.267141	0.714880
O30	O	0.489514	1.600474	1.048214
O31	O	-0.271585	0.864045	0.181377
O32	O	0.061748	1.197378	0.514710
O33	O	0.395081	1.530712	0.848043
O34	O	-0.275902	0.757660	0.295222
O35	O	0.057431	1.090994	0.628555
O36	O	0.390764	1.424327	0.961889
O37	O	-0.360842	0.852044	0.495336
O38	O	-0.027509	1.185377	0.828670
O39	O	0.305824	1.518711	1.162003
O40	O	-0.356503	0.754329	0.381465
O41	O	-0.023169	1.087663	0.714798
O42	O	0.310164	1.420996	1.048132
O43	O	-0.283530	0.929411	0.495372
O44	O	0.049803	1.262745	0.828705
O45	O	0.383136	1.596078	1.162038
O46	O	-0.455292	0.936924	0.295185
O47	O	-0.121959	1.270258	0.628519
O48	O	0.211375	1.603591	0.961852
O49	O	-0.458563	0.856318	0.381444
O50	O	-0.125230	1.189652	0.714777
O51	O	0.208104	1.522985	1.048111
C52	C	-0.316200	0.733154	0.338341
C53	C	0.017133	1.066488	0.671675
C54	C	0.350466	1.399821	1.005008
C55	C	-0.316208	0.663186	0.338349
C56	C	0.017125	0.996519	0.671683
C57	C	0.350458	1.329853	1.005016
C58	C	-0.358259	0.162011	0.383224
C59	C	-0.024926	0.495345	0.716558
C60	C	0.308407	0.828678	1.049891
C61	C	-0.358259	0.227754	0.383217
C62	C	-0.024926	0.561087	0.716550
C63	C	0.308408	0.894421	1.049884
C64	C	-0.316233	0.262345	0.338383
C65	C	0.017100	0.595679	0.671717
C66	C	0.350433	0.929012	1.005050
C67	C	-0.274215	0.231189	0.293541
C68	C	0.059118	0.564522	0.626874
C69	C	0.392451	0.897855	0.960208
C70	C	-0.274221	0.165447	0.293545
C71	C	0.059113	0.498781	0.626878
C72	C	0.392446	0.832114	0.960211
N73	N	-0.260915	0.365788	0.333103
N74	N	0.072419	0.699122	0.666437
N75	N	0.405752	1.032455	0.999770
N76	N	-0.260911	0.428240	0.333104
N77	N	0.072422	0.761573	0.666437
N78	N	0.405755	1.094907	0.999770
C79	C	-0.316215	0.460420	0.338368
C80	C	0.017118	0.793754	0.671702
C81	C	0.350452	1.127087	1.005035
N82	N	-0.371524	0.427790	0.343646
N83	N	-0.038190	0.761123	0.676980
N84	N	0.295143	1.094457	1.010313
N85	N	-0.371526	0.365333	0.343649
N86	N	-0.038193	0.698666	0.676983
N87	N	0.295140	1.031999	1.010316
C88	C	-0.316223	0.333631	0.338374
C89	C	0.017111	0.666964	0.671707
C90	C	0.350444	1.000298	1.005041
C91	C	-0.358233	0.562855	0.383197
C92	C	-0.024900	0.896189	0.716530
C93	C	0.308433	1.229522	1.049863
C94	C	-0.358234	0.628599	0.383184
C95	C	-0.024901	0.961933	0.716518
C96	C	0.308433	1.295266	1.049851
C97	C	-0.274185	0.632033	0.293512
C98	C	0.059149	0.965366	0.626845
C99	C	0.392482	1.298699	0.960178
C100	C	-0.274189	0.566290	0.293520
C101	C	0.059144	0.899623	0.626854
C102	C	0.392477	1.232956	0.960187
C103	C	-0.316213	0.531705	0.338367
C104	C	0.017120	0.865038	0.671700
C105	C	0.350454	1.198372	1.005033
C106	C	-0.479768	0.896624	0.338322
C107	C	-0.146435	1.229957	0.671656
C108	C	0.186898	1.563291	1.004989
C109	C	-0.549737	0.896646	0.338329
C110	C	-0.216403	1.229980	0.671663
C111	C	0.116930	1.563313	1.004996
C112	C	-0.580881	0.938652	0.293460
C113	C	-0.247548	1.271985	0.626794
C114	C	0.085786	1.605318	0.960127
C115	C	-0.646624	0.938681	0.293476
C116	C	-0.313291	1.272014	0.626809
C117	C	0.020043	1.605347	0.960143
C118	C	-0.681220	0.896693	0.338354
C119	C	-0.347887	1.230026	0.671687
C120	C	-0.014553	1.563360	1.005020
C121	C	-0.650068	0.854684	0.383231
C122	C	-0.316735	1.188018	0.716565
C123	C	0.016599	1.521351	1.049898
C124	C	-0.584326	0.854661	0.383219
C125	C	-0.250993	1.187994	0.716552
C126	C	0.082340	1.521328	1.049886
N127	N	-0.784689	0.841421	0.343701
N128	N	-0.451355	1.174754	0.677034
N129	N	-0.118022	1.508088	1.010368
N130	N	-0.847140	0.841445	0.343708
N131	N	-0.513807	1.174778	0.677042
N132	N	-0.180474	1.508112	1.010375
C133	C	-0.879296	0.896762	0.338394
C134	C	-0.545963	1.230095	0.671727
C135	C	-0.212630	1.563429	1.005060
N136	N	-0.846641	0.952056	0.333058
N137	N	-0.513307	1.285389	0.666391
N138	N	-0.179974	1.618722	0.999724
N139	N	-0.784183	0.952031	0.333047
N140	N	-0.450850	1.285364	0.666380
N141	N	-0.117516	1.618697	0.999713
C142	C	-0.752506	0.896714	0.338372
C143	C	-0.419173	1.230047	0.671705
C144	C	-0.085839	1.563381	1.005039
C145	C	-0.981727	0.938802	0.293540
C146	C	-0.648393	1.272136	0.626873
C147	C	-0.315060	1.605469	0.960206
C148	C	-1.047471	0.938832	0.293560
C149	C	-0.714138	1.272166	0.626894
C150	C	-0.380805	1.605499	0.960227
C151	C	-1.050914	0.854830	0.383312
C152	C	-0.717580	1.188164	0.716645
C153	C	-0.384247	1.521497	1.049978
C154	C	-0.985171	0.854806	0.383295
C155	C	-0.651837	1.188139	0.716628
C156	C	-0.318504	1.521473	1.049961
C157	C	-0.950581	0.896791	0.338405
C158	C	-0.617248	1.230125	0.671738
C159	C	-0.283914	1.563458	1.005071
C160	C	-0.152030	0.896803	0.338416
C161	C	0.181303	1.230136	0.671749
C162	C	0.514637	1.563470	1.005082
C163	C	-0.082063	0.896845	0.338439
C164	C	0.251271	1.230178	0.671772
C165	C	0.584604	1.563511	1.005106
C166	C	-0.323182	0.889730	0.521550
C167	C	0.010151	1.223064	0.854883
C168	C	0.343485	1.556397	1.188217
C169	C	-0.326150	0.886758	0.599614
C170	C	0.007184	1.220091	0.932947
C171	C	0.340517	1.553425	1.266281
C172	C	-0.316236	1.060895	0.338382
C173	C	0.017097	1.394228	0.671715
C174	C	0.350430	1.727561	1.005049
C175	C	-0.316244	1.130862	0.338391
C176	C	0.017089	1.464196	0.671724
C177	C	0.350422	1.797529	1.005057
C178	C	-0.309236	0.903689	0.155885
C179	C	0.024098	1.237023	0.489219
C180	C	0.357431	1.570356	0.822552
C181	C	-0.306091	0.906784	0.077822
C182	C	0.027242	1.240117	0.411155
C183	C	0.360576	1.573450	0.744489
C184	C	-0.287293	0.925641	0.636308
C185	C	0.046040	1.258974	0.969641
C186	C	0.379373	1.592307	1.302975
C187	C	-0.290080	0.922840	0.709658
C188	C	0.043254	1.256173	1.042991
C189	C	0.376587	1.589507	1.376324
C190	C	-0.331725	0.881160	0.746311
C191	C	0.001608	1.214493	1.079645
C192	C	0.334941	1.547826	1.412978
C193	C	-0.370583	0.842273	0.709612
C194	C	-0.037250	1.175606	1.042946
C195	C	0.296083	1.508940	1.376279
C196	C	-0.367794	0.845071	0.636264
C197	C	-0.034460	1.178404	0.969597
C198	C	0.298873	1.511737	1.302931
C199	C	-0.342159	0.870694	0.967774
C200	C	-0.008826	1.204028	1.301108
C201	C	0.324508	1.537361	1.634441
C202	C	-0.344947	0.867901	1.041128
C203	C	-0.011614	1.201234	1.374461
C204	C	0.321720	1.534568	1.707794
C205	C	-0.264442	0.948468	1.041168
C206	C	0.068891	1.281801	1.374501
C207	C	0.402225	1.615134	1.707835
C208	C	-0.261659	0.951264	0.967818
C209	C	0.071674	1.284598	1.301152
C210	C	0.405008	1.617931	1.634485
C211	C	-0.300514	0.912375	0.931126
C212	C	0.032819	1.245709	1.264459
C213	C	0.366152	1.579042	1.597792
C214	C	-0.334576	0.878298	0.821286
C215	C	-0.001242	1.211631	1.154620
C216	C	0.332091	1.544964	1.487953
C217	C	-0.297661	0.915235	0.856152
C218	C	0.035673	1.248568	1.189485
C219	C	0.369006	1.581901	1.522819
H220	H	-0.392452	0.653960	0.419691
H221	H	-0.059119	0.987293	0.753025
H222	H	0.274215	1.320626	1.086358
Cl223	Cl	-0.245301	0.967625	0.810072
Cl224	Cl	0.088032	1.300958	1.143405
Cl225	Cl	0.421365	1.634291	1.476738
H226	H	-1.079081	0.820646	0.419855
H227	H	-0.745748	1.153979	0.753188
H228	H	-0.412415	1.487312	1.086522
Cl229	Cl	-0.416642	0.796185	0.590134
Cl230	Cl	-0.083308	1.129519	0.923467
Cl231	Cl	0.250025	1.462852	1.256801
H232	H	-0.239998	0.259357	0.257036
H233	H	0.093335	0.592690	0.590369
H234	H	0.426668	0.926024	0.923703
Cl235	Cl	-0.391007	0.821805	0.921656
Cl236	Cl	-0.057674	1.155138	1.254989
Cl237	Cl	0.275660	1.488472	1.588322
Cl238	Cl	-0.221396	0.126287	0.237179
Cl239	Cl	0.111937	0.459620	0.570512
Cl240	Cl	0.445271	0.792953	0.903846
H241	H	-0.404490	0.808333	0.739462
H242	H	-0.071157	1.141667	1.072795
H243	H	0.262177	1.475000	1.406128
H244	H	-0.258440	0.954504	0.739531
H245	H	0.074893	1.287837	1.072864
H246	H	0.408227	1.621171	1.406197
H247	H	-0.392480	0.133856	0.419739
H248	H	-0.059147	0.467190	0.753073
H249	H	0.274186	0.800523	1.086406
H250	H	-0.239968	0.660196	0.257005
H251	H	0.093365	0.993529	0.590338
H252	H	0.426698	1.326863	0.923672
Cl253	Cl	-0.411081	0.266921	0.439585
Cl254	Cl	-0.077748	0.600255	0.772918
Cl255	Cl	0.255586	0.933588	1.106251
H256	H	-0.558968	0.820454	0.419758
H257	H	-0.225635	1.153788	0.753091
H258	H	0.107698	1.487121	1.086424
H259	H	-0.392452	0.534695	0.419712
H260	H	-0.059119	0.868028	0.753045
H261	H	0.274215	1.201361	1.086379
H262	H	-0.953563	0.972991	0.256990
H263	H	-0.620229	1.306325	0.590323
H264	H	-0.286896	1.639658	0.923656
H265	H	-0.232807	0.980128	1.071051
H266	H	0.100526	1.313462	1.404385
H267	H	0.433859	1.646795	1.737718
Cl268	Cl	-0.221362	0.527129	0.237160
Cl269	Cl	0.111971	0.860462	0.570494
Cl270	Cl	0.445304	1.193795	0.903827
H271	H	-0.671987	0.972889	0.256939
H272	H	-0.338653	1.306222	0.590272
H273	H	-0.005320	1.639556	0.923605
Cl274	Cl	-0.537400	0.991442	0.237038
Cl275	Cl	-0.204067	1.324775	0.570371
Cl276	Cl	0.129266	1.658109	0.903704
H277	H	-0.368487	0.844364	0.851138
H278	H	-0.035153	1.177698	1.184472
H279	H	0.298180	1.511031	1.517805
H280	H	-0.678240	0.820499	0.419772
H281	H	-0.344907	1.153832	0.753105
H282	H	-0.011574	1.487165	1.086439
H283	H	-1.072828	0.973042	0.257024
H284	H	-0.739494	1.306375	0.590357
H285	H	-0.406161	1.639709	0.923691
H286	H	-0.378862	0.833958	1.070969
H287	H	-0.045528	1.167291	1.404303
H288	H	0.287805	1.500624	1.737636
Cl289	Cl	-0.946015	0.801993	0.439702
Cl290	Cl	-0.612682	1.135326	0.773035
Cl291	Cl	-0.279349	1.468660	1.106368
H292	H	-0.253383	0.959583	0.606470
H293	H	0.079951	1.292917	0.939803
H294	H	0.413284	1.626250	1.273136
Cl295	Cl	-0.209302	1.003665	0.921745
Cl296	Cl	0.124031	1.336998	1.255078
Cl297	Cl	0.457364	1.670332	1.588411
