data_functionalizedCrystal
_audit_creation_method	'MofGen! by Chris Wilmer'
_symmetry_space_group_name_H-M	'P1'
_symmetry_Int_Tables_number	1
_symmetry_cell_setting	triclinic
loop_
_symmetry_equiv_pos_as_xyz
  x,y,z
_cell_length_a	6.817900
_cell_length_b	11.168121
_cell_length_c	16.255661
_cell_angle_alpha	93.883604
_cell_angle_beta	103.488922
_cell_angle_gamma	108.508496
loop_
_atom_site_label
_atom_site_type_symbol
_atom_site_fract_x
_atom_site_fract_y
_atom_site_fract_z
V1	V	-4.052428	-0.175725	-0.263878
O2	O	-4.013108	0.007395	-0.258848
O3	O	-4.029107	-0.347423	-0.262080
O4	O	-4.003662	-0.173482	-0.378961
O5	O	-4.038730	-0.167750	-0.141158
V6	V	-4.532854	-0.153767	-0.249199
O7	O	-4.320481	-0.223890	-0.296078
O8	O	-4.714999	-0.105601	-0.216999
O9	O	-4.332969	0.017931	-0.250997
O10	O	-4.689571	-0.336886	-0.254229
O11	O	-4.663950	-0.161741	-0.371919
O12	O	-4.358414	-0.156010	-0.134116
C13	C	-3.880221	-0.389265	-0.257919
C14	C	-3.942438	-0.529634	-0.257217
C15	C	-4.144141	-0.598340	-0.260917
C16	C	-4.208449	-0.743419	-0.260191
C17	C	-3.847762	-0.167385	-0.407012
C18	C	-3.889340	-0.166687	-0.501093
C19	C	-3.798677	-0.158357	-0.723911
C20	C	-3.970827	-0.265869	-0.793392
C21	C	-3.965533	-0.165380	-0.673341
C22	C	-3.867493	-0.056637	-0.771498
C23	C	-4.039115	-0.164111	-0.839725
C24	C	-4.137179	-0.272987	-0.741592
C25	C	-4.033769	-0.063661	-0.719683
C26	C	-4.206060	-0.171203	-0.789144
C27	C	-3.923139	-0.166112	-0.577492
C28	C	-4.081528	-0.163389	-0.935573
C29	C	-4.145198	0.059767	-0.255155
C30	C	-4.062220	0.200134	-0.255864
C31	C	-4.177657	-0.162111	-0.106061
C32	C	-4.115317	-0.162802	-0.011979
H33	H	-3.889421	-0.740810	-0.252693
C34	C	-3.755694	-0.653365	-0.178485
C35	C	-3.773564	-0.595202	-0.252210
H36	H	-3.651423	-0.693834	-0.175393
H37	H	-3.890561	-0.715267	-0.180721
H38	H	-3.712943	-0.590433	-0.129340
H39	H	-3.816331	-0.658136	-0.301356
H40	H	-3.638669	-0.533295	-0.249982
H41	H	-4.269220	-0.549758	-0.264628
C42	C	-3.566105	-0.259057	-0.646206
C43	C	-3.565776	-0.151211	-0.685449
H44	H	-3.422327	-0.254644	-0.622457
H45	H	-3.639614	-0.333928	-0.687516
H46	H	-3.636570	-0.261727	-0.602020
H47	H	-3.495325	-0.148546	-0.729640
H48	H	-3.492236	-0.076321	-0.644135
C49	C	-3.774904	-0.338123	-0.878876
C50	C	-3.935519	-0.381271	-0.836723
H51	H	-3.753108	-0.409366	-0.905627
H52	H	-3.645073	-0.285982	-0.838589
H53	H	-3.817627	-0.289775	-0.921010
H54	H	-3.892789	-0.429612	-0.794584
H55	H	-4.065377	-0.433434	-0.877013
H56	H	-3.753881	0.034772	-0.785104
H57	H	-4.381236	-0.802479	-0.263349
C58	C	-4.249855	-0.396144	-0.634882
C59	C	-4.290544	-0.396562	-0.723426
H60	H	-4.344521	-0.472439	-0.623668
H61	H	-4.271917	-0.324421	-0.608960
H62	H	-4.105534	-0.391311	-0.611971
H63	H	-4.434860	-0.401385	-0.746335
H64	H	-4.268499	-0.468305	-0.749358
C65	C	-3.926994	0.164902	-0.690876
C66	C	-4.068974	0.051749	-0.676321
H67	H	-3.948707	0.236157	-0.664099
H68	H	-3.952614	0.166645	-0.750703
H69	H	-3.783367	0.168649	-0.667684
H70	H	-4.212602	0.047997	-0.699520
H71	H	-4.043370	0.050005	-0.616483
H72	H	-4.378731	-0.176663	-0.817491
