data_functionalizedCrystal
_audit_creation_method	'MofGen! by Chris Wilmer'
_symmetry_space_group_name_H-M	'P1'
_symmetry_Int_Tables_number	1
_symmetry_cell_setting	triclinic
loop_
_symmetry_equiv_pos_as_xyz
  x,y,z
_cell_length_a	6.817900
_cell_length_b	13.167930
_cell_length_c	10.992410
_cell_angle_alpha	97.871257
_cell_angle_beta	108.764651
_cell_angle_gamma	105.754568
loop_
_atom_site_label
_atom_site_type_symbol
_atom_site_fract_x
_atom_site_fract_y
_atom_site_fract_z
V1	V	-4.109349	-0.148894	-0.418344
O2	O	-4.072611	0.007155	-0.392114
O3	O	-4.082113	-0.295232	-0.433051
O4	O	-4.087017	-0.146604	-0.592784
O5	O	-4.067674	-0.142502	-0.231276
V6	V	-4.586857	-0.130229	-0.393835
O7	O	-4.383803	-0.189838	-0.472107
O8	O	-4.762601	-0.089285	-0.340073
O9	O	-4.390886	0.016109	-0.379129
O10	O	-4.740992	-0.286278	-0.420065
O11	O	-4.745929	-0.136621	-0.580904
O12	O	-4.385983	-0.132519	-0.219396
C13	C	-3.931419	-0.330906	-0.430984
C14	C	-3.990611	-0.450539	-0.444172
C15	C	-3.981255	-0.644607	-0.229944
C16	C	-4.036868	-0.757012	-0.242328
C17	C	-4.157466	-0.787757	-0.481324
C18	C	-4.101853	-0.675352	-0.468939
C19	C	-4.013744	-0.603780	-0.343245
C20	C	-3.958116	-0.491373	-0.330862
C21	C	-4.078728	-0.522120	-0.569857
C22	C	-4.134341	-0.634525	-0.582241
C23	C	-3.937673	-0.141315	-0.634738
C24	C	-4.000837	-0.140410	-0.777458
C25	C	-3.868231	-0.132171	-0.971599
C26	C	-3.802635	-0.133558	-0.823281
C27	C	-4.195362	-0.246519	-0.867213
C28	C	-4.259706	-0.245581	-1.015667
C29	C	-4.144232	-0.040116	-0.953140
C30	C	-4.073540	-0.039613	-0.804067
C31	C	-4.204923	0.051777	-0.381192
C32	C	-4.124970	0.171409	-0.368014
C33	C	-4.198669	-0.137812	-0.177436
C34	C	-4.114742	-0.138711	-0.034713
H35	H	-3.656690	-0.057261	-0.760845
C36	C	-3.861203	-0.412641	-0.192609
H37	H	-3.832714	-0.339848	-0.201456
H38	H	-3.963190	-0.428253	-0.150066
H39	H	-3.727884	-0.421242	-0.141017
H40	H	-3.909486	-0.586331	-0.127597
H41	H	-4.229240	-0.846050	-0.583659
C42	C	-4.001118	-0.801918	-0.117696
H43	H	-3.940665	-0.743190	-0.041068
H44	H	-4.137947	-0.848637	-0.122081
H45	H	-3.902641	-0.841618	-0.113037
H46	H	-4.043969	0.040461	-0.963892
H47	H	-3.840963	-0.203012	-1.028037
H48	H	-4.105173	-0.488868	-0.662115
C49	C	-4.231248	-0.713258	-0.720492
H50	H	-4.259705	-0.786050	-0.711642
H51	H	-4.364550	-0.704659	-0.772093
H52	H	-4.129235	-0.697645	-0.763026
H53	H	-3.753555	-0.055350	-0.981270
C54	C	-3.722207	-0.230588	-0.801318
H55	H	-3.729563	-0.269318	-0.883114
H56	H	-3.574528	-0.204636	-0.739398
H57	H	-3.812954	-0.277690	-0.767912
H58	H	-4.241688	-0.320235	-1.070838
H59	H	-4.441404	-0.254807	-1.059399
H60	H	-4.215694	-0.038367	-0.771407
H61	H	-4.345447	-0.255365	-0.839464
H62	H	-4.147138	-0.321356	-0.850529
H63	H	-3.932869	0.038882	-0.742351
H64	H	-4.323089	-0.043972	-0.994440
