data_functionalizedCrystal
_audit_creation_method	'MofGen! by Chris Wilmer'
_symmetry_space_group_name_H-M	'P1'
_symmetry_Int_Tables_number	1
_symmetry_cell_setting	triclinic
loop_
_symmetry_equiv_pos_as_xyz
  x,y,z
_cell_length_a	29.917948
_cell_length_b	29.917021
_cell_length_c	29.913391
_cell_angle_alpha	60.005297
_cell_angle_beta	60.010472
_cell_angle_gamma	59.993667
loop_
_atom_site_label
_atom_site_type_symbol
_atom_site_fract_x
_atom_site_fract_y
_atom_site_fract_z
O1	O	0.061938	-0.653075	0.546110
O2	O	0.023328	-0.508466	0.440017
O3	O	0.114898	-0.599963	0.439941
O4	O	-0.029633	-0.561578	0.546186
O5	O	0.145278	-0.569587	0.470242
O6	O	0.053708	-0.478090	0.470318
O7	O	0.092318	-0.622699	0.576411
Zn8	Zn	0.077836	-0.545572	0.528175
Zn9	Zn	0.037809	-0.585593	0.488253
O10	O	0.000747	-0.531202	0.576487
N11	N	0.105154	-0.518262	0.555424
N12	N	0.010496	-0.612908	0.461004
C13	C	0.164136	-0.309209	0.614352
C14	C	0.164251	-0.459335	0.764424
C15	C	0.164150	-0.459313	0.614341
C16	C	0.314282	-0.459305	0.614278
C17	C	0.180666	-0.358742	0.630849
C18	C	0.180732	-0.442815	0.714891
C19	C	0.264747	-0.442797	0.630809
C20	C	0.180676	-0.442802	0.630843
C21	C	0.143097	-0.246161	0.593354
C22	C	0.143120	-0.480326	0.593337
C23	C	0.201706	-0.421790	0.651848
C24	C	0.405963	-0.443499	0.565998
C25	C	0.463273	-0.462598	0.546874
C26	C	0.463297	-0.555329	0.582235
C27	C	0.405988	-0.536228	0.601360
C28	C	0.156905	-0.217495	0.537012
C29	C	0.137776	-0.160180	0.517926
C30	C	0.091035	-0.160201	0.611524
C31	C	0.110164	-0.217516	0.630611
C32	C	0.086772	-0.466488	0.607209
C33	C	0.067659	-0.485590	0.588108
C34	C	0.161236	-0.532368	0.541277
C35	C	0.180352	-0.513266	0.560371
C36	C	0.086942	-0.466529	0.856152
C37	C	0.067877	-0.485647	0.913465
C38	C	0.161489	-0.532436	0.913415
C39	C	0.180552	-0.513318	0.856101
C40	C	0.143277	-0.480363	0.827471
C41	C	0.377323	-0.480313	0.593239
C42	C	-0.111377	-0.650681	0.422736
C43	C	-0.027364	-0.650787	0.422929
C44	C	-0.048335	-0.671770	0.401835
C45	C	-0.064214	-0.763416	0.450041
C46	C	-0.045160	-0.820731	0.469172
C47	C	0.047573	-0.820841	0.433980
C48	C	0.028517	-0.763527	0.414847
C49	C	-0.140115	-0.664483	0.479060
C50	C	-0.197425	-0.645309	0.498058
C51	C	-0.197256	-0.598535	0.404405
C52	C	-0.139946	-0.617709	0.385407
C53	C	-0.041168	-0.594444	0.409067
C54	C	-0.022104	-0.575374	0.428250
C55	C	0.024568	-0.668986	0.475143
C56	C	0.005504	-0.688059	0.455967
C57	C	-0.041000	-0.594453	0.310105
C58	C	-0.021803	-0.575386	0.252792
C59	C	0.024951	-0.669004	0.252854
C60	C	0.005755	-0.688070	0.310168
C61	C	-0.027222	-0.650793	0.338792
C62	C	-0.027377	-0.734817	0.422881
N63	N	0.491125	-0.518235	0.555255
O64	O	0.678406	-0.527360	0.420422
O65	O	0.678588	-0.633782	0.564887
O66	O	0.678516	-0.633539	0.473265
O67	O	0.678478	-0.527602	0.512044
O68	O	0.587469	-0.603251	0.503685
O69	O	0.587541	-0.603493	0.595307
O70	O	0.587359	-0.497071	0.450842
Zn71	Zn	0.572994	-0.545473	0.527905
Zn72	Zn	0.692953	-0.585380	0.487825
O73	O	0.587431	-0.497313	0.542465
N74	N	0.774821	-0.612618	0.460470
N75	N	0.105125	-0.132348	0.555445
O76	O	-0.029633	0.055031	0.546198
O77	O	0.114837	0.055047	0.439777
O78	O	0.023189	0.055024	0.440050
O79	O	0.062016	0.055054	0.545925
O80	O	0.053572	-0.036031	0.470398
O81	O	0.145220	-0.036008	0.470125
O82	O	0.000750	-0.036024	0.576546
Zn83	Zn	0.077809	-0.050473	0.528154
Zn84	Zn	0.037778	0.069496	0.488169
O85	O	0.092399	-0.036001	0.576273
N86	N	0.010456	0.151371	0.460879
N87	N	0.105414	-0.518315	0.941279
O88	O	0.096182	-0.653057	1.128644
O89	O	-0.010215	-0.508539	1.128670
O90	O	-0.009968	-0.600172	1.128636
O91	O	0.095935	-0.561424	1.128678
O92	O	0.020367	-0.569808	1.037586
O93	O	0.020121	-0.478175	1.037620
O94	O	0.126517	-0.622693	1.037594
Zn95	Zn	0.078135	-0.545613	1.023151
Zn96	Zn	0.038167	-0.585619	1.143113
O97	O	0.126270	-0.531061	1.037628
N98	N	0.010887	-0.612923	1.224985
C99	C	0.034899	-0.475056	0.440551
C100	C	0.148298	-0.588365	0.440456
C101	C	0.080746	-0.656109	0.575876
C102	C	-0.032653	-0.542801	0.575971
C103	C	0.633086	-0.633292	0.598298
C104	C	0.632998	-0.632993	0.484834
C105	C	0.632857	-0.497559	0.417433
C106	C	0.632949	-0.497860	0.530895
C107	C	0.148191	0.009634	0.440259
C108	C	0.034733	0.009493	0.440634
C109	C	-0.032641	0.009502	0.576027
C110	C	0.080854	0.009529	0.575690
C111	C	-0.009699	-0.475150	1.083148
C112	C	-0.009388	-0.588620	1.083088
C113	C	0.126001	-0.656082	1.083116
C114	C	0.125697	-0.542605	1.083155
H115	H	0.022003	-0.474373	0.936811
H116	H	0.633132	-0.666701	0.639790
H117	H	0.026418	0.009490	0.407371
C118	C	-0.035306	-0.385224	1.083177
C119	C	-0.054796	-0.419121	1.083159
H120	H	-0.063149	-0.350636	1.083188
H121	H	-0.004205	-0.380432	1.051430
H122	H	-0.025356	-0.401614	1.114933
H123	H	-0.064742	-0.402732	1.051401
H124	H	-0.085907	-0.423912	1.114909
C125	C	0.632958	-0.658192	0.420215
C126	C	0.633014	-0.677921	0.473636
H127	H	0.632964	-0.685928	0.413305
H128	H	0.664682	-0.648202	0.394949
H129	H	0.601182	-0.627069	0.416166
H130	H	0.664793	-0.709041	0.477685
H131	H	0.601286	-0.687918	0.498910
H132	H	0.088995	-0.697649	0.609197
C133	C	0.183783	-0.721943	1.036288
C134	C	0.171098	-0.712111	1.083105
H135	H	0.211622	-0.756534	1.036284
H136	H	0.196327	-0.694090	1.004551
H137	H	0.152001	-0.721881	1.036286
H138	H	0.202879	-0.712169	1.083105
H139	H	0.158556	-0.739972	1.114850
H140	H	0.632798	-0.464146	0.375944
H141	H	0.632941	-0.464583	0.539193
H142	H	0.056452	-0.439666	0.634048
H143	H	-0.067855	-0.564093	0.333408
C144	C	0.411698	-0.353757	0.529128
C145	C	0.374452	-0.382034	0.557075
H146	H	0.392245	-0.315813	0.523621
H147	H	0.434033	-0.359072	0.494694
H148	H	0.434069	-0.367206	0.550121
H149	H	0.352084	-0.368588	0.536080
H150	H	0.352108	-0.376715	0.591514
C151	C	-0.146039	-0.708781	0.573541
C152	C	-0.108711	-0.700723	0.520090
H153	H	-0.126651	-0.731152	0.598872
H154	H	-0.168394	-0.726246	0.578992
H155	H	-0.168383	-0.674410	0.579012
H156	H	-0.086369	-0.735095	0.514618
H157	H	-0.086347	-0.683260	0.514637
C158	C	0.237963	0.010104	0.414481
C159	C	0.204083	0.009986	0.395039
H160	H	0.272467	0.010325	0.386562
H161	H	0.242954	-0.021716	0.445484
H162	H	0.221449	0.041789	0.424573
H163	H	0.220595	-0.021701	0.384950
H164	H	0.199094	0.041809	0.364026
H165	H	0.089168	0.009538	0.608950
H166	H	0.056584	-0.439691	0.832846
C167	C	0.255937	-0.576767	0.907608
C168	C	0.202463	-0.568659	0.944886
H169	H	0.281231	-0.599137	0.927038
H170	H	0.261425	-0.542415	0.885264
H171	H	0.261422	-0.594256	0.885248
H172	H	0.196976	-0.551166	0.967244
H173	H	0.196972	-0.603017	0.967240
H174	H	0.026652	-0.433515	0.407232
H175	H	0.189808	-0.596548	0.407092
C176	C	-0.122573	0.009504	0.601648
C177	C	-0.088655	0.009510	0.621128
H178	H	-0.157155	0.009516	0.629490
H179	H	-0.106202	-0.022253	0.591716
H180	H	-0.127372	0.041253	0.570532
H181	H	-0.083852	-0.022241	0.652242
H182	H	-0.105029	0.041271	0.631067
C183	C	-0.034553	-0.653215	1.082985
C184	C	-0.054284	-0.599786	1.083017
H185	H	-0.062270	-0.660106	1.082938
H186	H	-0.024607	-0.678478	1.114746
H187	H	-0.003406	-0.657292	1.051243
H188	H	-0.085430	-0.595711	1.114761
H189	H	-0.064238	-0.574516	1.051253
H190	H	0.158967	-0.534314	1.083161
H191	H	0.021776	-0.474310	0.599390
C192	C	0.251345	-0.504794	0.768224
C193	C	0.242481	-0.528528	0.824575
H194	H	0.289577	-0.514187	0.748763
H195	H	0.235240	-0.466128	0.758846
H196	H	0.235238	-0.517978	0.758845
H197	H	0.258585	-0.515341	0.833954
H198	H	0.258594	-0.567202	0.833957
C199	C	0.235090	-0.539894	0.457271
C200	C	0.202169	-0.568577	0.505040
H201	H	0.260357	-0.562245	0.434899
H202	H	0.254532	-0.530501	0.466667
H203	H	0.212706	-0.507486	0.437848
H204	H	0.224553	-0.600983	0.524465
H205	H	0.182726	-0.577978	0.495645
C206	C	0.251207	-0.504750	0.568849
C207	C	0.242291	-0.528474	0.545126
H208	H	0.289446	-0.514139	0.559434
H209	H	0.235138	-0.517942	0.607514
H210	H	0.235092	-0.466080	0.555678
H211	H	0.258402	-0.567146	0.558300
H212	H	0.258367	-0.515286	0.506452
C213	C	0.411777	-0.629808	0.634385
C214	C	0.374509	-0.576698	0.631303
H215	H	0.392342	-0.654792	0.652868
H216	H	0.434146	-0.639393	0.653901
H217	H	0.434113	-0.631259	0.598473
H218	H	0.352175	-0.575246	0.667215
H219	H	0.352131	-0.567111	0.611788
C220	C	-0.098491	-0.487770	0.633634
C221	C	-0.088689	-0.531763	0.621016
H222	H	-0.133084	-0.480959	0.661446
H223	H	-0.098401	-0.456084	0.601824
H224	H	-0.070639	-0.496436	0.646198
H225	H	-0.116539	-0.523095	0.608449
H226	H	-0.088783	-0.563455	0.652833
C227	C	0.527790	-0.636596	0.622088
C228	C	0.494809	-0.616791	0.591156
H229	H	0.547247	-0.674540	0.627592
H230	H	0.505450	-0.631286	0.656523
H231	H	0.553046	-0.617399	0.603122
H232	H	0.469549	-0.635986	0.610125
H233	H	0.517151	-0.622106	0.556715
H234	H	0.486593	-0.432619	0.524694
H235	H	0.183721	-0.240813	0.506671
H236	H	0.064226	-0.136878	0.641864
C237	C	0.185899	-0.165912	0.427321
C238	C	0.152951	-0.128665	0.455991
H239	H	0.195268	-0.146457	0.389086
H240	H	0.166461	-0.188271	0.436725
H241	H	0.218317	-0.188263	0.436704
H242	H	0.120530	-0.106316	0.446612
H243	H	0.172388	-0.106297	0.446584
H244	H	-0.033030	-0.529506	0.229442
C245	C	0.062042	-0.211775	0.721211
C246	C	0.094987	-0.249024	0.692544
H247	H	0.052674	-0.231229	0.759447
H248	H	0.029628	-0.189425	0.711830
H249	H	0.081485	-0.189415	0.711805
H250	H	0.075543	-0.271382	0.701947
H251	H	0.127407	-0.271384	0.701929
H252	H	0.016979	-0.733950	0.333522
C253	C	0.032502	-0.742884	0.235186
C254	C	0.061189	-0.709983	0.221396
H255	H	0.054877	-0.768186	0.215768
H256	H	0.000140	-0.720490	0.225716
H257	H	0.023041	-0.762294	0.273426
H258	H	0.070646	-0.690569	0.183156
H259	H	0.093561	-0.732380	0.230863
C260	C	-0.070120	-0.484750	0.379939
C261	C	-0.037256	-0.513439	0.412999
H262	H	-0.079467	-0.446516	0.370517
H263	H	-0.102549	-0.494084	0.399322
H264	H	-0.050628	-0.494190	0.347553
H265	H	-0.056750	-0.504003	0.445387
H266	H	-0.004822	-0.504102	0.393616
H267	H	0.051334	-0.699339	0.502037
C268	C	0.001162	-0.773700	0.528171
C269	C	0.020677	-0.749989	0.471177
H270	H	0.010534	-0.811932	0.537552
H271	H	-0.037501	-0.757563	0.541284
H272	H	0.017228	-0.767691	0.544327
H273	H	0.004608	-0.755994	0.455020
H274	H	0.059348	-0.766131	0.458057
C275	C	0.122095	-0.769395	0.381990
C276	C	0.069012	-0.732089	0.384994
H277	H	0.147093	-0.749986	0.363561
H278	H	0.131704	-0.791753	0.362453
H279	H	0.123489	-0.791742	0.417921
H280	H	0.067617	-0.709745	0.349062
H281	H	0.059401	-0.709722	0.404530
H282	H	-0.067926	-0.564092	0.382165
H283	H	-0.075156	-0.844016	0.491279
C284	C	0.116751	-0.885351	0.475962
C285	C	0.109014	-0.852403	0.425155
H286	H	0.154682	-0.904832	0.470511
H287	H	0.097542	-0.910586	0.494870
H288	H	0.103283	-0.862978	0.496957
H289	H	0.122478	-0.874777	0.404161
H290	H	0.128229	-0.827166	0.406238
H291	H	-0.220824	-0.656545	0.543924
C292	C	-0.143051	-0.745681	0.433233
C293	C	-0.125649	-0.731849	0.458848
H294	H	-0.180977	-0.726186	0.438662
H295	H	-0.136984	-0.783902	0.448524
H296	H	-0.122999	-0.736325	0.395139
H297	H	-0.145698	-0.741209	0.496943
H298	H	-0.131721	-0.693619	0.443560
C299	C	-0.191336	-0.554240	0.309923
C300	C	-0.228663	-0.562297	0.363375
H301	H	-0.210726	-0.531866	0.284594
H302	H	-0.168996	-0.588607	0.304452
H303	H	-0.168977	-0.536775	0.304471
H304	H	-0.251019	-0.579766	0.368829
H305	H	-0.251012	-0.527924	0.368848
H306	H	-0.116547	-0.606465	0.339541
