data_functionalizedCrystal
_audit_creation_method	'MofGen! by Chris Wilmer'
_symmetry_space_group_name_H-M	'P1'
_symmetry_Int_Tables_number	1
_symmetry_cell_setting	triclinic
loop_
_symmetry_equiv_pos_as_xyz
  x,y,z
_cell_length_a	14.853566
_cell_length_b	19.188928
_cell_length_c	13.330367
_cell_angle_alpha	90.009040
_cell_angle_beta	89.997816
_cell_angle_gamma	96.610886
loop_
_atom_site_label
_atom_site_type_symbol
_atom_site_fract_x
_atom_site_fract_y
_atom_site_fract_z
O1	O	1.195859	-0.091148	-0.083374
O2	O	0.933339	-0.102008	-0.083393
O3	O	1.072176	0.005052	-0.083358
O4	O	1.057022	-0.198209	-0.083409
O5	O	1.072161	0.005049	0.083490
O6	O	0.933324	-0.102011	0.083454
O7	O	1.195845	-0.091151	0.083473
Cu8	Cu	1.064583	-0.096582	0.098698
Cu9	Cu	1.064600	-0.096578	-0.098618
O10	O	1.057008	-0.198212	0.083438
C11	C	0.899746	-0.101518	0.000029
C12	C	0.799670	-0.100044	0.000023
C13	C	0.376528	-0.093807	-0.090906
C14	C	0.376533	-0.093811	0.090997
C15	C	0.470560	-0.095195	0.090994
C16	C	0.517574	-0.095886	0.000039
C17	C	0.470562	-0.095193	-0.090912
C18	C	0.517577	-0.095895	0.181943
C19	C	0.611609	-0.097280	0.181943
C20	C	0.658626	-0.097967	0.090988
C21	C	0.611609	-0.097273	0.000033
C22	C	0.658623	-0.097964	-0.090922
C23	C	0.611608	-0.097265	-0.181878
C24	C	0.517579	-0.095880	-0.181868
C25	C	0.752656	-0.099352	0.090978
C26	C	0.752658	-0.099351	-0.090928
C27	C	1.071678	0.031064	0.000070
C28	C	1.070206	0.108573	0.000083
C29	C	1.151671	0.153226	0.000096
C30	C	1.150288	0.226054	0.000084
C31	C	1.067435	0.254227	0.000079
C32	C	0.985960	0.209564	0.000061
C33	C	0.987345	0.136737	0.000063
N34	N	1.004101	0.362442	0.056863
N35	N	1.002790	0.431625	0.056863
C36	C	1.063257	0.473650	0.000071
N37	N	1.125097	0.443879	-0.056708
N38	N	1.126410	0.374690	-0.056704
C39	C	1.065924	0.333194	0.000077
C40	C	1.143228	0.597272	0.000070
C41	C	1.141841	0.670101	0.000052
C42	C	0.977511	0.653610	0.000038
C43	C	0.978900	0.580782	0.000047
C44	C	1.061761	0.552617	0.000067
C45	C	1.229438	-0.091642	0.000049
C46	C	1.329513	-0.093116	0.000049
N47	N	1.064578	-0.096584	0.237480
C48	C	1.057508	0.775777	0.000022
C49	C	1.058988	0.698269	0.000045
N50	N	1.064613	-0.096570	-0.237399
C51	C	1.003092	-0.143976	0.289989
C52	C	1.126069	-0.049189	0.289998
C53	C	1.126078	-0.049186	0.395016
C54	C	1.064592	-0.096578	0.447526
C55	C	1.003098	-0.143973	0.395017
C56	C	1.187565	-0.001788	0.447533
C57	C	1.187576	-0.001783	0.552558
C58	C	1.126094	-0.049179	0.605069
C59	C	1.064598	-0.096576	0.552554
C60	C	1.003113	-0.143967	0.605064
C61	C	0.941620	-0.191368	0.552551
C62	C	0.941616	-0.191369	0.447529
C63	C	1.126098	-0.049178	0.710091
C64	C	1.003118	-0.143965	0.710092
H65	H	0.790931	-0.099911	-0.164996
O66	O	0.662306	-0.098046	0.280045
H67	H	0.652487	-0.050234	0.323680
H68	H	0.479291	-0.095337	0.255993
H69	H	0.790930	-0.099928	0.165033
O70	O	1.241045	0.122856	0.000101
H71	H	1.245611	0.090082	0.068109
O72	O	0.662317	-0.098014	-0.279980
H73	H	0.652494	-0.050198	-0.323581
O74	O	1.253851	0.049329	0.390873
H75	H	1.324106	0.040360	0.411003
H76	H	0.479292	-0.095310	-0.255920
O77	O	1.192352	0.001950	0.233371
H78	H	1.182008	-0.006008	0.151520
O79	O	0.936774	-0.195099	0.233353
H80	H	0.894027	-0.228054	0.287514
O81	O	0.325828	-0.093057	-0.189008
H82	H	0.252544	-0.091981	-0.173730
O83	O	1.253912	0.049326	0.609196
H84	H	1.296672	0.082274	0.555038
H85	H	1.176160	-0.010582	0.752842
H86	H	0.338248	-0.093253	0.165048
O87	O	1.238156	0.274229	0.000112
H88	H	1.296005	0.242410	0.000134
H89	H	0.918501	0.232507	0.000055
O90	O	0.899477	0.088569	0.000066
H91	H	0.841629	0.120391	0.000068
H92	H	0.953052	-0.182560	0.752839
H93	H	0.910051	0.676547	0.000030
H94	H	1.210698	0.574339	0.000082
O95	O	0.891028	0.532621	0.000051
H96	H	0.887725	0.499041	-0.067955
H97	H	1.208183	0.706457	0.000057
H98	H	0.891554	-0.229952	0.595316
O99	O	0.875278	-0.242468	0.390877
H100	H	0.913076	-0.276451	0.342995
