data_functionalizedCrystal
_audit_creation_method	'MofGen! by Chris Wilmer'
_symmetry_space_group_name_H-M	'P1'
_symmetry_Int_Tables_number	1
_symmetry_cell_setting	triclinic
loop_
_symmetry_equiv_pos_as_xyz
  x,y,z
_cell_length_a	19.188905
_cell_length_b	19.188930
_cell_length_c	8.965430
_cell_angle_alpha	89.995304
_cell_angle_beta	89.989084
_cell_angle_gamma	83.139668
loop_
_atom_site_label
_atom_site_type_symbol
_atom_site_fract_x
_atom_site_fract_y
_atom_site_fract_z
O1	O	0.926156	0.087079	-0.124302
O2	O	1.426156	0.587079	0.375698
O3	O	0.722842	0.098832	-0.124253
O4	O	1.222842	0.598832	0.375747
O5	O	0.830366	-0.008701	-0.124250
O6	O	1.330366	0.491299	0.375750
O7	O	0.818632	0.194612	-0.124305
O8	O	1.318632	0.694612	0.375695
O9	O	0.830357	-0.008694	0.123829
O10	O	1.330357	0.491306	0.623829
O11	O	0.722833	0.098839	0.123826
O12	O	1.222833	0.598839	0.623826
O13	O	0.926147	0.087086	0.123777
O14	O	1.426147	0.587086	0.623777
Cu15	Cu	0.824489	0.092963	0.146453
Cu16	Cu	1.324489	0.592963	0.646453
Cu17	Cu	0.824500	0.092955	-0.146929
Cu18	Cu	1.324500	0.592955	0.353071
O19	O	0.818623	0.194619	0.123774
O20	O	1.318623	0.694619	0.623774
C21	C	0.696826	0.098458	-0.000207
C22	C	1.196826	0.598458	0.499793
C23	C	0.619321	0.097324	-0.000187
C24	C	1.119321	0.597324	0.499813
C25	C	0.582934	0.096775	-0.135419
C26	C	1.082934	0.596775	0.364581
C27	C	0.510110	0.095702	-0.135437
C28	C	1.010110	0.595702	0.364563
C29	C	0.473678	0.095164	-0.000216
C30	C	0.973678	0.595164	0.499784
C31	C	0.510073	0.095716	0.135034
C32	C	1.010073	0.595716	0.635034
C33	C	0.582895	0.096796	0.135048
C34	C	1.082895	0.596796	0.635048
N35	N	0.364654	0.053738	0.100427
N36	N	0.864654	0.553738	0.600427
N37	N	0.295477	0.052711	0.100404
N38	N	0.795477	0.552711	0.600404
C39	C	0.254272	0.091911	-0.000251
C40	C	0.754272	0.591911	0.499749
N41	N	0.284857	0.132169	-0.100905
N42	N	0.784857	0.632169	0.399095
N43	N	0.354041	0.133194	-0.100887
N44	N	0.854041	0.633194	0.399113
C45	C	0.394716	0.093993	-0.000216
C46	C	0.894716	0.593993	0.499784
C47	C	0.138921	0.090200	-0.135512
C48	C	0.638921	0.590200	0.364488
C49	C	0.066095	0.089131	-0.135524
C50	C	0.566095	0.589131	0.364476
C51	C	0.066061	0.089138	0.134950
C52	C	0.566061	0.589138	0.634950
C53	C	0.138884	0.090214	0.134959
C54	C	0.638884	0.590214	0.634959
C55	C	0.175310	0.090742	-0.000276
C56	C	0.675310	0.590742	0.499724
C57	C	0.829982	-0.034708	-0.000206
C58	C	1.329982	0.465292	0.499794
C59	C	0.828841	-0.112213	-0.000193
C60	C	1.328841	0.387787	0.499807
C61	C	0.891933	-0.157142	-0.000201
C62	C	1.391933	0.342858	0.499799
C63	C	0.890861	-0.229966	-0.000224
C64	C	1.390861	0.270034	0.499776
C65	C	0.826694	-0.257857	-0.000210
C66	C	1.326694	0.242143	0.499790
C67	C	0.763594	-0.212917	-0.000210
C68	C	1.263594	0.287083	0.499790
C69	C	0.764668	-0.140095	-0.000202
C70	C	1.264668	0.359905	0.499798
N71	N	0.777643	-0.365855	0.084228
N72	N	1.277643	0.134145	0.584228
N73	N	0.776628	-0.435033	0.084223
N74	N	1.276628	0.064967	0.584223
C75	C	0.823456	-0.477265	-0.000239
C76	C	1.323456	0.022735	0.499761
N77	N	0.871349	-0.447706	-0.084678
N78	N	1.371349	0.052294	0.415322
N79	N	0.872366	-0.378522	-0.084666
N80	N	1.372366	0.121478	0.415334
C81	C	0.825523	-0.336819	-0.000220
C82	C	1.325523	0.163181	0.499780
C83	C	0.885390	-0.601159	-0.000275
C84	C	1.385390	-0.101159	0.499725
C85	C	0.884315	-0.673984	-0.000308
C86	C	1.384315	-0.173984	0.499692
C87	C	0.757047	-0.656933	-0.000279
C88	C	1.257047	-0.156933	0.499721
C89	C	0.758123	-0.584110	-0.000261
C90	C	1.258123	-0.084110	0.499739
C91	C	0.822296	-0.556228	-0.000252
C92	C	1.322296	-0.056228	0.499748
C93	C	0.952163	0.087460	-0.000272
C94	C	1.452163	0.587460	0.499728
C95	C	1.029668	0.088594	-0.000302
C96	C	1.529668	0.588594	0.499698
C97	C	0.819007	0.220626	-0.000273
C98	C	1.319007	0.720626	0.499727
C99	C	0.820148	0.298131	-0.000296
C100	C	1.320148	0.798131	0.499704
N101	N	0.824487	0.092969	0.352802
N102	N	1.324487	0.592969	0.852802
N103	N	0.824508	0.092944	-0.353278
N104	N	1.324508	0.592944	0.146722
C105	C	0.774745	0.142683	0.450106
C106	C	1.274745	0.642683	0.950106
C107	C	0.837798	0.156032	0.549500
C108	C	1.337798	0.656032	1.049500
C109	C	0.761461	0.079625	0.549536
C110	C	1.261461	0.579625	1.049536
C111	C	0.887571	0.106350	0.450007
C112	C	1.387571	0.606350	0.950007
C113	C	0.811193	0.029915	0.450034
C114	C	1.311193	0.529915	0.950034
C115	C	0.874291	0.043238	0.549383
C116	C	1.374291	0.543238	1.049383
H117	H	0.480405	0.095279	0.245131
H118	H	0.980405	0.595279	0.745131
H119	H	0.706747	-0.547527	-0.000246
H120	H	1.206747	-0.047527	0.499754
C121	C	0.853004	0.228048	0.608546
C122	C	1.353004	0.728048	1.108546
H123	H	0.817612	0.263329	0.574568
H124	H	1.317612	0.763329	1.074568
H125	H	0.897442	0.237865	0.573011
H126	H	1.397442	0.737865	1.073011
H127	H	0.853321	0.227381	0.714498
H128	H	1.353321	0.727381	1.214498
H129	H	0.732719	0.184762	0.406517
H130	H	1.232719	0.684762	0.906517
C131	C	0.689447	0.064383	0.608579
C132	C	1.189447	0.564383	1.108579
H133	H	0.654156	0.099756	0.574566
H134	H	1.154156	0.599756	1.074566
H135	H	0.690094	0.064055	0.714523
H136	H	1.190094	0.564055	1.214523
H137	H	0.679659	0.019938	0.573038
H138	H	1.179659	0.519938	1.073038
H139	H	0.036398	0.088704	0.245050
H140	H	0.536398	0.588704	0.745050
H141	H	0.480478	0.095257	-0.245562
H142	H	0.980478	0.595257	0.254438
C143	C	0.178991	0.090794	-0.284260
C144	C	0.678991	0.590794	0.215740
H145	H	0.146886	0.090325	-0.364805
H146	H	0.646886	0.590325	0.135195
H147	H	0.212856	0.050508	-0.289876
H148	H	0.712856	0.550508	0.210124
H149	H	0.201942	0.131926	-0.289877
H150	H	0.701942	0.631926	0.210123
H151	H	0.942239	-0.266555	-0.000237
H152	H	1.442239	0.233445	0.499763
H153	H	0.036470	0.088689	-0.245651
H154	H	0.536470	0.588689	0.254349
H155	H	0.711349	-0.235631	-0.000202
H156	H	1.211349	0.264369	0.499798
C157	C	0.695264	-0.090671	-0.000179
C158	C	1.195264	0.409329	0.499821
H159	H	0.656893	-0.117708	-0.000167
H160	H	1.156893	0.382292	0.499833
H161	H	0.693040	-0.061899	-0.086680
H162	H	1.193040	0.438101	0.413320
H163	H	0.693036	-0.061918	0.086353
H164	H	1.193036	0.438082	0.586353
H165	H	0.940891	0.117689	0.406473
H166	H	1.440891	0.617689	0.906473
H167	H	0.612520	0.097244	0.245173
H168	H	1.112520	0.597244	0.745173
H169	H	0.168511	0.090656	0.245079
H170	H	0.668511	0.590656	0.745079
H171	H	0.944187	-0.134445	-0.000198
H172	H	1.444187	0.365555	0.499802
C173	C	0.955976	-0.570485	-0.000282
C174	C	1.455976	-0.070485	0.499718
H175	H	0.993399	-0.607676	-0.000312
H176	H	1.493399	-0.107676	0.499688
H177	H	0.959038	-0.542438	0.086234
H178	H	1.459038	-0.042438	0.586234
H179	H	0.959042	-0.542424	-0.086798
H180	H	1.459042	-0.042424	0.413202
C181	C	0.953720	-0.723407	-0.000314
C182	C	1.453720	-0.223407	0.499686
H183	H	0.992090	-0.696368	-0.000293
H184	H	1.492090	-0.196368	0.499707
H185	H	0.955956	-0.752164	-0.086829
H186	H	1.455956	-0.252164	0.413171
H187	H	0.955937	-0.752174	0.086203
H188	H	1.455937	-0.252174	0.586203
C189	C	0.931186	-0.013572	0.607918
C190	C	1.431186	0.486428	1.107918
H191	H	0.975917	-0.003984	0.573653
H192	H	1.475917	0.496016	1.073653
H193	H	0.922116	-0.058241	0.572354
H194	H	1.422116	0.441759	1.072354
H195	H	0.930635	-0.013525	0.713874
H196	H	1.430635	0.486475	1.213874
H197	H	0.704801	-0.679641	-0.000275
H198	H	1.204801	-0.179641	0.499725
C199	C	0.795956	-0.042079	0.390948
C200	C	1.295956	0.457921	0.890948
H201	H	0.751125	-0.051481	0.424964
H202	H	1.251125	0.448519	0.924964
H203	H	0.830839	-0.077494	0.426415
H204	H	1.330839	0.422506	0.926415
H205	H	0.796486	-0.041671	0.284996
H206	H	1.296486	0.458329	0.784996
H207	H	0.612588	0.097205	-0.245538
H208	H	1.112588	0.597205	0.254462
