data_functionalizedCrystal
_audit_creation_method	'MofGen! by Chris Wilmer'
_symmetry_space_group_name_H-M	'P1'
_symmetry_Int_Tables_number	1
_symmetry_cell_setting	triclinic
loop_
_symmetry_equiv_pos_as_xyz
  x,y,z
_cell_length_a	14.908571
_cell_length_b	12.759393
_cell_length_c	14.908308
_cell_angle_alpha	93.272118
_cell_angle_beta	89.824947
_cell_angle_gamma	93.288695
loop_
_atom_site_label
_atom_site_type_symbol
_atom_site_fract_x
_atom_site_fract_y
_atom_site_fract_z
Zn1	Zn	1.345339	0.548284	0.587623
Zn2	Zn	1.353933	0.714464	0.437275
Zn3	Zn	1.203653	0.528104	0.428619
Zn4	Zn	1.194960	0.713216	0.578927
O5	O	1.274471	0.626017	0.508111
O6	O	1.472306	0.579296	0.574941
O7	O	1.341232	0.681820	0.310302
O8	O	1.222489	0.383763	0.449728
O9	O	1.478619	0.701388	0.464481
O10	O	1.326586	0.398590	0.566547
O11	O	1.230822	0.544902	0.303942
O12	O	1.076673	0.543691	0.441296
O13	O	1.207674	0.699260	0.705906
O14	O	1.070287	0.679693	0.551726
O15	O	1.318157	0.578085	0.712294
O16	O	1.332803	0.861316	0.456049
O17	O	1.216007	0.860399	0.560120
C18	C	1.040854	0.609368	0.494629
C19	C	0.940911	0.602272	0.488882
C20	C	0.746514	0.730754	0.592921
C21	C	0.652607	0.724090	0.587524
C22	C	0.659191	0.582276	0.472699
C23	C	0.753097	0.588940	0.478095
C24	C	0.796755	0.663182	0.538207
C25	C	0.890663	0.669851	0.543598
C26	C	0.897244	0.528032	0.428777
C27	C	0.803338	0.521368	0.423381
C28	C	1.274418	0.898980	0.508101
C29	C	1.274475	1.015763	0.508132
C30	C	1.396177	1.016676	0.399854
C31	C	1.457050	1.071996	0.345730
C32	C	1.457101	1.181723	0.345764
C33	C	1.396274	1.236133	0.399929
C34	C	1.335401	1.180813	0.454053
C35	C	1.335354	1.071083	0.454012
C36	C	1.213705	1.179901	0.562334
C37	C	1.213648	1.070173	0.562297
C38	C	1.152878	1.234311	0.616500
C39	C	1.091999	1.178990	0.670620
C40	C	1.091950	1.069256	0.670584
C41	C	1.152775	1.014853	0.616421
C42	C	1.509000	0.642732	0.521646
C43	C	1.608943	0.649855	0.527415
C44	C	1.260987	0.640785	0.742637
C45	C	1.255241	0.647078	0.842578
C46	C	1.274548	1.351992	0.508156
C47	C	1.274578	1.235221	0.508210
C48	C	1.287955	0.611234	0.274500
C49	C	1.293875	0.604658	0.174569
C50	C	1.359487	0.532699	1.037033
C51	C	1.354091	0.538608	1.130937
C52	C	1.239049	0.664800	1.124291
C53	C	1.244445	0.658890	1.030388
C54	C	1.304667	0.592839	0.986762
C55	C	1.310067	0.586936	0.892856
C56	C	1.195021	0.713121	0.886213
C57	C	1.189625	0.719030	0.980117
H58	H	0.938161	0.473012	0.384223
H59	H	1.396130	0.927329	0.399809
C60	C	0.938686	0.751509	0.609721
H61	H	0.895311	0.790789	0.641540
H62	H	0.977289	0.797658	0.577372
H63	H	0.973073	0.716448	0.651061
C64	C	1.123388	0.791685	1.028106
H65	H	1.091509	0.826652	0.984714
H66	H	1.155668	0.842211	1.066720
H67	H	1.082108	0.751007	1.062478
H68	H	1.359104	0.533155	0.857338
H69	H	0.767778	0.460919	0.374442
C70	C	1.414397	0.472460	1.186232
H71	H	1.451038	0.432285	1.146798
H72	H	1.377910	0.426541	1.220887
H73	H	1.451464	0.517753	1.225117
C74	C	0.794541	0.812418	0.659036
H75	H	0.751168	0.851707	0.690851
H76	H	0.833144	0.858559	0.626680
H77	H	0.828928	0.777363	0.700379
C78	C	1.134716	0.779276	0.830913
H79	H	1.146550	0.766295	0.768738
H80	H	1.146974	0.851770	0.847059
H81	H	1.073417	0.760560	0.842816
H82	H	0.611704	0.779113	0.632080
H83	H	1.506577	1.027686	0.301631
H84	H	1.190019	0.718575	1.159828
C85	C	0.611157	0.500629	0.406574
H86	H	0.548035	0.506348	0.411194
H87	H	0.625788	0.431983	0.420700
H88	H	0.630005	0.513205	0.347021
C89	C	1.524057	1.242577	0.286228
H90	H	1.560273	1.194461	0.253960
H91	H	1.561247	1.290285	0.322923
H92	H	1.491952	1.280515	0.245054
H93	H	1.396328	1.325480	0.399960
C94	C	1.152931	1.355007	0.616536
H95	H	1.197889	1.380162	0.576538
H96	H	1.165112	1.384547	0.675472
H97	H	1.095819	1.374773	0.597600
H98	H	1.042482	1.223300	0.714721
H99	H	1.042383	1.024221	0.714661
H100	H	1.152735	0.925506	0.616380
C101	C	1.425724	0.460046	0.989041
H102	H	1.457598	0.425070	1.032431
H103	H	1.466995	0.500716	0.954662
H104	H	1.393435	0.409511	0.950433
