data_functionalizedCrystal
_audit_creation_method	'MofGen! by Chris Wilmer'
_symmetry_space_group_name_H-M	'P1'
_symmetry_Int_Tables_number	1
_symmetry_cell_setting	triclinic
loop_
_symmetry_equiv_pos_as_xyz
  x,y,z
_cell_length_a	16.109301
_cell_length_b	15.944551
_cell_length_c	15.186229
_cell_angle_alpha	89.995303
_cell_angle_beta	89.999006
_cell_angle_gamma	83.480161
loop_
_atom_site_label
_atom_site_type_symbol
_atom_site_fract_x
_atom_site_fract_y
_atom_site_fract_z
O1	O	1.103165	0.107967	-0.073182
O2	O	1.353165	0.357967	0.176818
O3	O	1.603165	0.607967	0.426818
O4	O	1.853165	0.857967	0.676818
O5	O	0.861108	0.121403	-0.073195
O6	O	1.111108	0.371403	0.176805
O7	O	1.361108	0.621403	0.426805
O8	O	1.611108	0.871403	0.676805
O9	O	0.988747	-0.007592	-0.073180
O10	O	1.238747	0.242408	0.176820
O11	O	1.488747	0.492408	0.426820
O12	O	1.738747	0.742408	0.676820
O13	O	0.975527	0.236962	-0.073197
O14	O	1.225527	0.486962	0.176803
O15	O	1.475527	0.736962	0.426803
O16	O	1.725527	0.986962	0.676803
O17	O	0.988738	-0.007594	0.073277
O18	O	1.238738	0.242406	0.323277
O19	O	1.488738	0.492406	0.573277
O20	O	1.738738	0.742406	0.823277
O21	O	0.861099	0.121401	0.073263
O22	O	1.111099	0.371401	0.323263
O23	O	1.361099	0.621401	0.573263
O24	O	1.611099	0.871401	0.823263
O25	O	1.103157	0.107965	0.073275
O26	O	1.353157	0.357965	0.323275
O27	O	1.603157	0.607965	0.573275
O28	O	1.853157	0.857965	0.823275
Zn29	Zn	0.982127	0.114683	0.096522
Zn30	Zn	1.232127	0.364683	0.346522
Zn31	Zn	1.482127	0.614683	0.596522
Zn32	Zn	1.732127	0.864683	0.846522
Zn33	Zn	0.982138	0.114686	-0.096442
Zn34	Zn	1.232138	0.364686	0.153558
Zn35	Zn	1.482138	0.614686	0.403558
Zn36	Zn	1.732138	0.864686	0.653558
O37	O	0.975518	0.236960	0.073261
O38	O	1.225518	0.486960	0.323261
O39	O	1.475518	0.736960	0.573261
O40	O	1.725518	0.986960	0.823261
C41	C	0.830129	0.120858	0.000032
C42	C	1.080129	0.370858	0.250032
C43	C	1.330129	0.620858	0.500032
C44	C	1.580129	0.870858	0.750032
C45	C	0.737833	0.119226	0.000028
C46	C	0.987833	0.369226	0.250028
C47	C	1.237833	0.619226	0.500028
C48	C	1.487833	0.869226	0.750028
C49	C	0.428858	0.190435	0.000038
C50	C	0.678858	0.440435	0.250038
C51	C	0.928858	0.690435	0.500038
C52	C	1.178858	0.940435	0.750038
C53	C	0.515578	0.191976	0.000033
C54	C	0.765578	0.441976	0.250033
C55	C	1.015578	0.691976	0.500033
C56	C	1.265578	0.941976	0.750033
C57	C	0.535402	0.038928	0.000032
C58	C	0.785402	0.288928	0.250032
C59	C	1.035402	0.538928	0.500032
C60	C	1.285402	0.788928	0.750032
C61	C	0.448683	0.037388	0.000031
C62	C	0.698683	0.287388	0.250031
C63	C	0.948683	0.537388	0.500031
C64	C	1.198683	0.787388	0.750031
C65	C	0.395412	0.113144	0.000038
C66	C	0.645412	0.363144	0.250038
C67	C	0.895412	0.613144	0.500038
C68	C	1.145412	0.863144	0.750038
C69	C	0.568852	0.116225	0.000034
C70	C	0.818852	0.366225	0.250034
C71	C	1.068852	0.616225	0.500034
C72	C	1.318852	0.866225	0.750034
C73	C	0.662879	0.117895	0.000029
C74	C	0.912879	0.367895	0.250029
C75	C	1.162879	0.617895	0.500029
C76	C	1.412879	0.867895	0.750029
C77	C	0.301380	0.111474	0.000042
C78	C	0.551380	0.361474	0.250042
C79	C	0.801380	0.611474	0.500042
C80	C	1.051380	0.861474	0.750042
C81	C	0.988194	-0.038886	0.000049
C82	C	1.238194	0.211114	0.250049
C83	C	1.488194	0.461114	0.500049
C84	C	1.738194	0.711114	0.750049
C85	C	0.986548	-0.132132	0.000049
C86	C	1.236548	0.117868	0.250049
C87	C	1.486548	0.367868	0.500049
C88	C	1.736548	0.617868	0.750049
C89	C	0.903499	-0.346961	0.000033
C90	C	1.153499	-0.096961	0.250033
C91	C	1.403499	0.153039	0.500033
C92	C	1.653499	0.403039	0.750033
C93	C	0.942060	-0.407992	0.072247
C94	C	1.192060	-0.157992	0.322247
C95	C	1.442060	0.092008	0.572247
C96	C	1.692060	0.342008	0.822247
C97	C	0.983572	-0.302857	0.000042
C98	C	1.233572	-0.052857	0.250042
C99	C	1.483572	0.197143	0.500042
C100	C	1.733572	0.447143	0.750042
C101	C	0.942087	-0.407974	-0.072148
C102	C	1.192087	-0.157974	0.177852
C103	C	1.442087	0.092026	0.427852
C104	C	1.692087	0.342026	0.677852
C105	C	0.980691	-0.467769	0.000032
C106	C	1.230691	-0.217769	0.250032
C107	C	1.480691	0.032231	0.500032
C108	C	1.730691	0.282231	0.750032
C109	C	1.022155	-0.362660	0.072316
C110	C	1.272155	-0.112660	0.322316
C111	C	1.522155	0.137340	0.572316
C112	C	1.772155	0.387340	0.822316
C113	C	1.022171	-0.362635	-0.072144
C114	C	1.272171	-0.112635	0.177856
C115	C	1.522171	0.137365	0.427856
C116	C	1.772171	0.387365	0.677856
C117	C	1.060790	-0.423648	0.000088
C118	C	1.310790	-0.173648	0.250088
C119	C	1.560790	0.076352	0.500088
C120	C	1.810790	0.326352	0.750088
C121	C	0.985229	-0.207855	0.000049
C122	C	1.235229	0.042145	0.250049
C123	C	1.485229	0.292145	0.500049
C124	C	1.735229	0.542145	0.750049
C125	C	0.979039	-0.562769	0.000031
C126	C	1.229039	-0.312769	0.250031
C127	C	1.479039	-0.062769	0.500031
C128	C	1.729039	0.187231	0.750031
C129	C	1.134136	0.108511	0.000046
C130	C	1.384136	0.358511	0.250046
C131	C	1.634136	0.608511	0.500046
C132	C	1.884136	0.858511	0.750046
C133	C	1.226432	0.110142	0.000045
C134	C	1.476432	0.360142	0.250045
C135	C	1.726432	0.610142	0.500045
C136	C	1.976432	0.860142	0.750045
C137	C	0.976071	0.268255	0.000030
C138	C	1.226071	0.518255	0.250030
C139	C	1.476071	0.768255	0.500030
C140	C	1.726071	1.018255	0.750030
C141	C	0.977717	0.361501	0.000024
C142	C	1.227717	0.611501	0.250024
C143	C	1.477717	0.861501	0.500024
C144	C	1.727717	1.111501	0.750024
N145	N	0.982125	0.114681	0.228215
N146	N	1.232125	0.364681	0.478215
N147	N	1.482125	0.614681	0.728215
N148	N	1.732125	0.864681	0.978215
N149	N	0.982146	0.114681	-0.228134
N150	N	1.232146	0.364681	0.021866
N151	N	1.482146	0.614681	0.271866
N152	N	1.732146	0.864681	0.521866
C153	C	1.038663	0.057581	0.453944
C154	C	1.288663	0.307581	0.703944
C155	C	1.538663	0.557581	0.953944
C156	C	1.788663	0.807581	1.203944
C157	C	1.038666	0.057579	0.546134
C158	C	1.288666	0.307579	0.796134
C159	C	1.538666	0.557579	1.046134
C160	C	1.788666	0.807579	1.296134
C161	C	0.925602	0.171784	0.546130
C162	C	1.175602	0.421784	0.796130
C163	C	1.425602	0.671784	1.046130
C164	C	1.675602	0.921784	1.296130
C165	C	0.925597	0.171781	0.453942
C166	C	1.175597	0.421781	0.703942
C167	C	1.425597	0.671781	0.953942
C168	C	1.675597	0.921781	1.203942
C169	C	0.982131	0.114681	0.407851
C170	C	1.232131	0.364681	0.657851
C171	C	1.482131	0.614681	0.907851
C172	C	1.732131	0.864681	1.157851
C173	C	0.982140	0.114681	0.592229
C174	C	1.232140	0.364681	0.842229
C175	C	1.482140	0.614681	1.092229
C176	C	1.732140	0.864681	1.342229
C177	C	0.982142	0.114680	0.692185
C178	C	1.232142	0.364680	0.942185
C179	C	1.482142	0.614680	1.192185
C180	C	1.732142	0.864680	1.442185
C181	C	0.982128	0.114681	0.307889
C182	C	1.232128	0.364681	0.557889
C183	C	1.482128	0.614681	0.807889
C184	C	1.732128	0.864681	1.057889
H185	H	0.837035	-0.313632	0.000101
H186	H	1.087035	-0.063632	0.250101
H187	H	1.337035	0.186368	0.500101
H188	H	1.587035	0.436368	0.750101
Br189	Br	1.078555	-0.329368	0.174183
Br190	Br	1.328555	-0.079368	0.424183
Br191	Br	1.578555	0.170632	0.674183
Br192	Br	1.828555	0.420632	0.924183
H193	H	0.385487	0.252121	0.000044
H194	H	0.635487	0.502121	0.250044
H195	H	0.885487	0.752121	0.500044
H196	H	1.135487	1.002121	0.750044
Br197	Br	0.560965	0.296876	0.000026
Br198	Br	0.810965	0.546876	0.250026
Br199	Br	1.060965	0.796876	0.500026
Br200	Br	1.310965	1.046876	0.750026
H201	H	1.084698	0.011083	0.583660
H202	H	1.334698	0.261083	0.833660
H203	H	1.584698	0.511083	1.083660
H204	H	1.834698	0.761083	1.333660
H205	H	0.879558	0.218278	0.416411
H206	H	1.129558	0.468278	0.666411
H207	H	1.379558	0.718278	0.916411
H208	H	1.629558	0.968278	1.166411
Br209	Br	0.885621	-0.441443	-0.173896
Br210	Br	1.135621	-0.191443	0.076104
Br211	Br	1.385621	0.058557	0.326104
Br212	Br	1.635621	0.308557	0.576104
Br213	Br	0.403288	-0.067516	0.000015
Br214	Br	0.653288	0.182484	0.250015
Br215	Br	0.903288	0.432484	0.500015
Br216	Br	1.153288	0.682484	0.750015
Br217	Br	0.607702	-0.063879	0.000028
Br218	Br	0.857702	0.186121	0.250028
Br219	Br	1.107702	0.436121	0.500028
Br220	Br	1.357702	0.686121	0.750028
H221	H	0.879574	0.218274	0.583666
H222	H	1.129574	0.468274	0.833666
H223	H	1.379574	0.718274	1.083666
H224	H	1.629574	0.968274	1.333666
H225	H	1.084696	0.011086	0.416419
H226	H	1.334696	0.261086	0.666419
H227	H	1.584696	0.511086	0.916419
H228	H	1.834696	0.761086	1.166419
Br229	Br	1.171664	-0.478954	0.000155
Br230	Br	1.421664	-0.228954	0.250155
Br231	Br	1.671664	0.021046	0.500155
Br232	Br	1.921664	0.271046	0.750155
Br233	Br	0.885610	-0.441489	0.174000
Br234	Br	1.135610	-0.191489	0.424000
Br235	Br	1.385610	0.058511	0.674000
Br236	Br	1.635610	0.308511	0.924000
H237	H	1.056013	-0.342515	-0.133195
H238	H	1.306013	-0.092515	0.116805
H239	H	1.556013	0.157485	0.366805
H240	H	1.806013	0.407485	0.616805
