data_functionalizedCrystal
_audit_creation_method	'MofGen! by Chris Wilmer'
_symmetry_space_group_name_H-M	'P1'
_symmetry_Int_Tables_number	1
_symmetry_cell_setting	triclinic
loop_
_symmetry_equiv_pos_as_xyz
  x,y,z
_cell_length_a	11.792241
_cell_length_b	10.868271
_cell_length_c	10.723024
_cell_angle_alpha	90.003962
_cell_angle_beta	95.669357
_cell_angle_gamma	90.000539
loop_
_atom_site_label
_atom_site_type_symbol
_atom_site_fract_x
_atom_site_fract_y
_atom_site_fract_z
O1	O	-1.507283	0.102181	0.171039
O2	O	-1.176980	0.102213	0.188667
O3	O	-1.349750	0.102192	-0.001743
O4	O	-1.334513	0.102202	0.361449
O5	O	-1.349736	-0.102453	-0.001751
O6	O	-1.176966	-0.102431	0.188659
O7	O	-1.507268	-0.102464	0.171032
Zn8	Zn	-1.342115	-0.134939	0.179844
Zn9	Zn	-1.342134	0.134689	0.179854
O10	O	-1.334498	-0.102442	0.361442
C11	C	-1.134680	-0.000105	0.187556
C12	C	-1.008659	-0.000093	0.184242
N13	N	-1.342110	-0.318953	0.179837
C14	C	-0.777933	-0.000125	0.178147
C15	C	-0.906326	-0.000107	0.181533
C16	C	-1.342128	-0.569959	0.179852
C17	C	-1.342114	-0.430282	0.179847
C18	C	-0.549569	-0.000140	0.172143
C19	C	-0.675590	-0.000135	0.175457
C20	C	-1.348634	-0.000129	-0.048244
C21	C	-1.345317	-0.000124	-0.186789
N22	N	-1.342147	0.318703	0.179852
C23	C	-1.441990	-0.000132	-0.262028
C24	C	-1.438563	-0.000127	-0.405222
C25	C	-1.335614	-0.000119	0.407942
C26	C	-1.338932	-0.000115	0.546488
H27	H	-1.527292	-0.000148	-0.220431
H28	H	-1.260014	-0.000108	-0.228386
C29	C	-1.550372	-0.000137	-0.492560
N30	N	-1.634591	-0.000143	-0.558347
H31	H	-1.256168	-0.000117	-0.388868
