data_functionalizedCrystal
_audit_creation_method	'MofGen! by Chris Wilmer'
_symmetry_space_group_name_H-M	'P1'
_symmetry_Int_Tables_number	1
_symmetry_cell_setting	triclinic
loop_
_symmetry_equiv_pos_as_xyz
  x,y,z
_cell_length_a	15.538191
_cell_length_b	8.965430
_cell_length_c	15.624967
_cell_angle_alpha	108.083682
_cell_angle_beta	66.740751
_cell_angle_gamma	89.997977
loop_
_atom_site_label
_atom_site_type_symbol
_atom_site_fract_x
_atom_site_fract_y
_atom_site_fract_z
O1	O	1.249517	-0.034277	-0.292691
O2	O	0.975395	0.022011	-0.188636
O3	O	1.119777	-0.078435	-0.374301
O4	O	1.105135	0.066169	-0.107025
O5	O	1.119783	-0.326513	-0.374299
O6	O	0.975402	-0.226067	-0.188634
O7	O	1.249523	-0.282355	-0.292689
Cu8	Cu	1.112463	-0.276862	-0.240661
Cu9	Cu	1.112455	0.016518	-0.240663
O10	O	1.105142	-0.181909	-0.107023
C11	C	0.940317	-0.096139	-0.177748
C12	C	0.835786	-0.078597	-0.145319
C13	C	0.547571	-0.252875	-0.467487
C14	C	0.449345	-0.236376	-0.436993
C15	C	0.427129	-0.143578	-0.265471
C16	C	0.525354	-0.160077	-0.295950
C17	C	0.585568	-0.214724	-0.396960
C18	C	0.563351	-0.121926	-0.225423
C19	C	0.661569	-0.138416	-0.255901
C20	C	0.721789	-0.193056	-0.356906
C21	C	0.683785	-0.231214	-0.427438
C22	C	0.503136	-0.067268	-0.124414
C23	C	0.541133	-0.029117	-0.053887
C24	C	0.639352	-0.045617	-0.084364
C25	C	0.699572	-0.100258	-0.185369
C26	C	0.677355	-0.007459	-0.013832
C27	C	0.775572	-0.023949	-0.044310
C28	C	0.797789	-0.116748	-0.215847
N29	N	1.112476	-0.483212	-0.240662
C30	C	1.179269	-0.626932	-0.326529
C31	C	1.094159	-0.720745	-0.316188
C32	C	1.197552	-0.685553	-0.251050
C33	C	1.027323	-0.574850	-0.230348
C34	C	1.130772	-0.539640	-0.165192
C35	C	1.045601	-0.633378	-0.154797
C36	C	1.284601	-0.164202	-0.303576
C37	C	1.389132	-0.181734	-0.336005
C38	C	1.119116	-0.220526	-0.407671
C39	C	1.117127	-0.274313	-0.507104
N40	N	1.112450	0.222863	-0.240672
C41	C	1.114328	-0.485343	-0.647256
C42	C	1.116197	-0.434786	-0.553823
C43	C	1.116194	-0.164333	-0.553809
C44	C	1.114329	-0.214869	-0.647246
C45	C	1.113395	-0.375375	-0.693961
C46	C	1.113397	-0.104901	-0.693951
C47	C	1.111528	-0.155431	-0.787378
C48	C	1.110591	-0.315930	-0.834098
C49	C	1.111526	-0.425906	-0.787388
C50	C	1.114324	0.055607	-0.647231
C51	C	1.113392	0.165575	-0.693937
C52	C	1.111530	0.115043	-0.787368
C53	C	1.110593	-0.045456	-0.834088
C54	C	1.110594	0.225019	-0.834078
C55	C	1.108725	0.174488	-0.927504
C56	C	1.108724	-0.095986	-0.927514
C57	C	1.105802	-0.039815	-0.073653
C58	C	1.107791	0.013982	0.025780
H59	H	0.596601	-0.297384	-0.549739
C60	C	1.294760	-0.751005	-0.262898
C61	C	1.302571	-0.805266	-0.181578
C62	C	1.399781	-0.870716	-0.193435
C63	C	1.489181	-0.881906	-0.286613
C64	C	1.481374	-0.827643	-0.367940
C65	C	1.384164	-0.762193	-0.356082
H66	H	1.236389	-0.796984	-0.112597
H67	H	1.405560	-0.910885	-0.133231
H68	H	1.561142	-0.930356	-0.295390
H69	H	1.547556	-0.835925	-0.436921
H70	H	1.378385	-0.722024	-0.416286
H71	H	1.146292	-0.461425	-0.101399
H72	H	0.628315	0.037050	0.068410
H73	H	1.107969	-0.226688	-0.965555
H74	H	1.235700	-0.622598	-0.399154
H75	H	1.078666	-0.798944	-0.380012
H76	H	1.109061	-0.357068	-0.910168
H77	H	1.110771	-0.556608	-0.825429
C78	C	0.750033	-0.291340	-0.538549
C79	C	0.745702	-0.456180	-0.605113
C80	C	0.811951	-0.516303	-0.716218
C81	C	0.882531	-0.411585	-0.760760
C82	C	0.886865	-0.246735	-0.694195
C83	C	0.820616	-0.186612	-0.583090
H84	H	0.693453	-0.533708	-0.572142
H85	H	0.808743	-0.638337	-0.765494
H86	H	0.931572	-0.456092	-0.843007
H87	H	0.939114	-0.169208	-0.727166
H88	H	0.823824	-0.064579	-0.533814
C89	C	0.930089	-0.509713	-0.218597
C90	C	0.922390	-0.454282	-0.299559
C91	C	0.825160	-0.389145	-0.287814
C92	C	0.735628	-0.379439	-0.195106
C93	C	0.743325	-0.434871	-0.114137
C94	C	0.840555	-0.500008	-0.125883
H95	H	0.988669	-0.461465	-0.368193
H96	H	0.819463	-0.348110	-0.347752
H97	H	0.663653	-0.331221	-0.186411
H98	H	0.677045	-0.427688	-0.045503
H99	H	0.846252	-0.541043	-0.065944
H100	H	1.113573	-0.616045	-0.685297
H101	H	0.423162	-0.053839	-0.099602
H102	H	0.846819	-0.161256	-0.298099
H103	H	1.116931	-0.524342	-0.515788
C104	C	0.407544	-0.278359	-0.514578
C105	C	0.430212	-0.447729	-0.589521
C106	C	0.388409	-0.489708	-0.667101
C107	C	0.323938	-0.362317	-0.669738
C108	C	0.301267	-0.192936	-0.594792
C109	C	0.343070	-0.150957	-0.517212
H110	H	0.477941	-0.542042	-0.587572
H111	H	0.405192	-0.615096	-0.722581
H112	H	0.292993	-0.393393	-0.727167
H113	H	0.253538	-0.098623	-0.596741
H114	H	0.326287	-0.025569	-0.461732
H115	H	1.107959	0.264038	-0.965530
H116	H	0.801763	-0.206462	-0.381719
H117	H	1.111346	0.355706	-0.796024
H118	H	0.989044	-0.637430	-0.082163
H119	H	1.116951	-0.033647	-0.515760
H120	H	1.115832	0.096747	-0.571151
H121	H	1.114150	0.296261	-0.655887
H122	H	0.378089	-0.099077	-0.183228
H123	H	0.492094	0.015384	0.028355
H124	H	0.806509	0.007104	0.013121
