data_functionalizedCrystal
_audit_creation_method	'MofGen! by Chris Wilmer'
_symmetry_space_group_name_H-M	'P1'
_symmetry_Int_Tables_number	1
_symmetry_cell_setting	triclinic
loop_
_symmetry_equiv_pos_as_xyz
  x,y,z
_cell_length_a	27.732048
_cell_length_b	19.288865
_cell_length_c	18.366186
_cell_angle_alpha	90.011479
_cell_angle_beta	90.003554
_cell_angle_gamma	82.889452
loop_
_atom_site_label
_atom_site_type_symbol
_atom_site_fract_x
_atom_site_fract_y
_atom_site_fract_z
O1	O	-0.641180	-0.082649	-0.060464
O2	O	-0.500424	-0.095216	-0.060487
O3	O	-0.574869	0.012223	-0.060461
O4	O	-0.566735	-0.190088	-0.060491
O5	O	-0.574857	0.012228	0.060639
O6	O	-0.500412	-0.095211	0.060612
O7	O	-0.641167	-0.082644	0.060635
Zn8	Zn	-0.570788	-0.088927	0.079851
Zn9	Zn	-0.570804	-0.088933	-0.079703
O10	O	-0.566722	-0.190083	0.060609
C11	C	-0.482410	-0.094950	0.000060
C12	C	-0.428753	-0.094155	0.000052
C13	C	-0.659181	-0.082910	0.000087
C14	C	-0.712839	-0.083705	0.000090
C15	C	-0.574601	0.038100	0.000091
C16	C	-0.573816	0.115199	0.000098
C17	C	-0.090115	-0.152644	0.000074
C18	C	0.111554	-0.149697	0.000081
O19	O	0.142648	-0.203181	0.000105
N20	N	0.130870	-0.085990	0.000089
C21	C	0.099766	-0.023015	0.000101
O22	O	0.120823	0.031239	0.000115
C23	C	-0.101902	-0.025963	0.000099
C24	C	-0.121215	-0.089674	0.000083
C25	C	-0.109428	-0.216350	0.000060
C26	C	-0.159843	-0.217086	0.000054
C27	C	-0.190943	-0.154116	0.000063
C28	C	-0.171629	-0.090410	0.000078
C29	C	-0.133005	0.037011	0.000115
C30	C	-0.183425	0.036268	0.000117
C31	C	-0.202738	-0.027443	0.000101
C32	C	-0.253144	-0.028177	0.000081
N33	N	-0.272460	-0.091884	0.000073
C34	C	-0.241360	-0.154853	0.000064
C35	C	0.205644	-0.021472	0.000100
C36	C	0.256061	-0.020735	0.000099
C37	C	0.267846	-0.147417	0.000081
C38	C	0.217428	-0.148153	0.000077
C39	C	0.186328	-0.085179	0.000092
C40	C	-0.347234	-0.156395	0.000051
C41	C	-0.397653	-0.157125	0.000042
C42	C	-0.409433	-0.030444	0.000064
C43	C	-0.359018	-0.029713	0.000069
C44	C	-0.327919	-0.092694	0.000065
O45	O	-0.284266	0.025278	0.000066
O46	O	-0.262426	-0.209100	0.000065
C47	C	-0.039701	-0.151908	0.000080
C48	C	-0.020387	-0.088202	0.000095
C49	C	-0.051487	-0.025232	0.000104
C50	C	0.030030	-0.087465	0.000094
C51	C	0.061130	-0.150435	0.000085
C52	C	0.041814	-0.214142	0.000077
C53	C	-0.008600	-0.214878	0.000071
C54	C	-0.032171	0.038475	0.000112
C55	C	0.018244	0.039206	0.000117
C56	C	0.049344	-0.023764	0.000108
C57	C	-0.566990	-0.215961	0.000055
C58	C	-0.567776	-0.293059	0.000044
N59	N	-0.570780	-0.088922	0.188742
C60	C	-0.617496	0.160168	0.000108
C61	C	-0.616758	0.232610	0.000097
C62	C	-0.572337	0.260081	0.000089
C63	C	-0.528650	0.215102	0.000074
C64	C	-0.529390	0.142661	0.000078
C65	C	-0.537412	0.368152	0.042502
C66	C	-0.536674	0.440592	0.042502
C67	C	-0.570054	0.483512	0.000072
C68	C	-0.604180	0.453985	-0.042348
C69	C	-0.604920	0.381544	-0.042344
C70	C	-0.571530	0.338630	0.000084
C71	C	-0.612938	0.607032	0.000069
C72	C	-0.612198	0.679475	0.000053
C73	C	-0.524089	0.661966	0.000038
C74	C	-0.524830	0.589524	0.000047
C75	C	-0.569256	0.562062	0.000066
N76	N	-0.570816	-0.088933	-0.188594
C77	C	-0.603755	-0.041371	0.226854
C78	C	-0.603758	-0.041368	0.303082
C79	C	-0.570790	-0.088927	0.341195
C80	C	-0.537809	-0.136482	0.303073
C81	C	-0.537804	-0.136479	0.226847
C82	C	-0.564320	-0.152255	0.461945
C83	C	-0.564328	-0.152259	0.538170
C84	C	-0.570804	-0.088936	0.576302
C85	C	-0.577281	-0.025606	0.538200
C86	C	-0.577276	-0.025603	0.461974
C87	C	-0.570792	-0.088935	0.423850
C88	C	-0.603784	-0.041378	0.697069
C89	C	-0.603784	-0.041374	0.773299
C90	C	-0.537838	-0.136494	0.773289
C91	C	-0.537836	-0.136492	0.697061
C92	C	-0.570812	-0.088934	0.658956
H93	H	-0.413374	-0.209008	0.000029
H94	H	-0.489260	0.552909	0.000042
H95	H	0.201707	-0.200032	0.000068
H96	H	-0.631362	0.488930	-0.076899
H97	H	0.033963	0.091091	0.000124
H98	H	-0.582549	0.025962	0.430954
H99	H	-0.582554	0.025958	0.569246
H100	H	-0.510228	0.333212	0.077057
H101	H	0.067145	-0.265414	0.000066
H102	H	-0.492482	0.237473	0.000066
H103	H	-0.652330	0.269231	0.000103
H104	H	-0.508885	0.464627	0.077039
H105	H	-0.487920	0.684331	0.000028
H106	H	-0.493818	0.106047	0.000070
H107	H	-0.630634	-0.002651	0.666043
H108	H	-0.175562	-0.268966	0.000041
H109	H	-0.510951	-0.175201	0.195815
H110	H	-0.647770	0.716089	0.000058
H111	H	-0.630604	-0.002645	0.195831
H112	H	-0.649112	0.584671	0.000082
H113	H	-0.510966	-0.175205	0.334109
H114	H	-0.208745	0.087550	0.000130
H115	H	-0.630635	-0.002648	0.804330
H116	H	-0.630611	-0.002644	0.334119
H117	H	-0.510993	-0.175215	0.804319
H118	H	-0.559038	-0.203824	0.430904
H119	H	-0.510986	-0.175215	0.666028
H120	H	-0.559057	-0.203826	0.569187
H121	H	-0.321918	-0.207680	0.000050
H122	H	-0.084111	-0.267630	0.000055
H123	H	0.271781	0.031145	0.000101
H124	H	0.180326	0.029812	0.000113
H125	H	0.293177	-0.198689	0.000074
H126	H	-0.117290	0.088891	0.000129
H127	H	-0.343293	0.022166	0.000071
H128	H	-0.024320	-0.266758	0.000059
H129	H	-0.434764	0.020825	0.000069
H130	H	-0.057489	0.089753	0.000121
H131	H	-0.653672	0.137813	0.000121
H132	H	-0.632705	0.357506	-0.076885
