data_functionalizedCrystal
_audit_creation_method	'MofGen! by Chris Wilmer'
_symmetry_space_group_name_H-M	'P1'
_symmetry_Int_Tables_number	1
_symmetry_cell_setting	triclinic
loop_
_symmetry_equiv_pos_as_xyz
  x,y,z
_cell_length_a	16.959453
_cell_length_b	17.077404
_cell_length_c	17.077396
_cell_angle_alpha	90.021457
_cell_angle_beta	89.970430
_cell_angle_gamma	89.978170
loop_
_atom_site_label
_atom_site_type_symbol
_atom_site_fract_x
_atom_site_fract_y
_atom_site_fract_z
Zn1	Zn	-0.314700	-1.200056	-0.443878
Zn2	Zn	-0.446888	-1.199963	-0.312609
Zn3	Zn	-0.314726	-1.068787	-0.312621
Zn4	Zn	-0.446839	-1.068756	-0.443828
O5	O	-0.380788	-1.134390	-0.378234
O6	O	-0.332246	-1.309890	-0.426480
O7	O	-0.429388	-1.182537	-0.202764
O8	O	-0.204111	-1.086252	-0.330058
O9	O	-0.429363	-1.309822	-0.330038
O10	O	-0.204093	-1.182694	-0.426492
O11	O	-0.332289	-1.086163	-0.202773
O12	O	-0.332241	-0.958936	-0.330010
O13	O	-0.429279	-1.086198	-0.553682
O14	O	-0.429304	-0.958913	-0.426408
O15	O	-0.332198	-1.182664	-0.553718
O16	O	-0.557493	-1.182506	-0.329990
O17	O	-0.557456	-1.086109	-0.426396
C18	C	-0.380770	-0.930442	-0.378205
C19	C	-0.380781	-0.843193	-0.378212
C20	C	-0.431397	-0.802211	-0.428324
C21	C	-0.431397	-0.720231	-0.428334
C22	C	-0.380785	-0.679233	-0.378227
C23	C	-0.330163	-0.720221	-0.328112
C24	C	-0.330160	-0.802200	-0.328107
C25	C	-0.330175	-0.549351	-0.328126
C26	C	-0.330180	-0.467366	-0.328129
C27	C	-0.431413	-0.467382	-0.428352
C28	C	-0.431410	-0.549360	-0.428347
C29	C	-0.380789	-0.590342	-0.378231
C30	C	-0.586155	-1.134315	-0.378204
C31	C	-0.674011	-1.134355	-0.378217
C32	C	-0.715363	-1.084203	-0.327973
C33	C	-0.715213	-1.184540	-0.428478
C34	C	-0.797759	-1.184577	-0.428495
C35	C	-0.839111	-1.134425	-0.378251
C36	C	-0.797916	-1.084236	-0.327990
C37	C	-0.838959	-1.234759	-0.478761
C38	C	-0.921510	-1.234797	-0.478781
C39	C	-0.962863	-1.184649	-0.428532
C40	C	-0.921664	-1.134458	-0.378268
C41	C	-0.963016	-1.084306	-0.328024
C42	C	-0.921818	-1.034120	-0.277756
C43	C	-0.839270	-1.034087	-0.277741
C44	C	-1.045412	-1.184681	-0.428547
C45	C	-1.045569	-1.084340	-0.328041
C46	C	-0.174620	-1.134487	-0.378282
C47	C	-0.086763	-1.134529	-0.378302
C48	C	-0.380730	-1.134438	-0.582978
C49	C	-0.380705	-1.134458	-0.670228
C50	C	-0.380802	-0.339135	-0.378255
C51	C	-0.380796	-0.426384	-0.378242
C52	C	-0.330151	-1.184689	-0.711239
C53	C	-0.330124	-1.184699	-0.793219
C54	C	-0.380657	-1.134480	-0.834188
C55	C	-0.431214	-1.084243	-0.793172
C56	C	-0.431236	-1.084231	-0.711193
C57	C	-0.431166	-1.084275	-0.964042
C58	C	-0.431146	-1.084289	-1.046027
C59	C	-0.330055	-1.184743	-1.046068
C60	C	-0.330077	-1.184731	-0.964089
C61	C	-0.380635	-1.134494	-0.923079
C62	C	-0.380789	-1.134388	-0.174286
C63	C	-0.380591	-1.134520	-0.087037
H64	H	-0.472627	-0.582738	-0.469144
H65	H	-0.288960	-1.225604	-0.826606
O66	O	-0.275580	-1.238897	-0.919896
H67	H	-0.240415	-1.273827	-0.962184
H68	H	-0.472292	-1.043395	-1.079381
H69	H	-0.472324	-1.043355	-0.930654
O70	O	-0.485711	-1.030073	-0.837359
H71	H	-0.547754	-1.043495	-0.821609
H72	H	-0.955498	-0.993282	-0.236851
H73	H	-0.472615	-0.686867	-0.469139
O74	O	-0.485973	-0.846430	-0.482381
H75	H	-0.526150	-0.883753	-0.447186
H76	H	-1.078951	-1.225532	-0.469485
H77	H	-0.288957	-0.433988	-0.287337
H78	H	-0.288938	-0.835566	-0.287305
H79	H	-0.288888	-1.225646	-1.079463
H80	H	-0.472628	-0.434010	-0.469160
H81	H	-0.472394	-1.043319	-0.677803
O82	O	-0.794838	-0.979956	-0.223531
H83	H	-0.730490	-0.988352	-0.231968
H84	H	-0.681818	-1.043343	-0.287042
O85	O	-0.275586	-0.593557	-0.274066
H86	H	-0.240400	-0.551279	-0.239216
H87	H	-0.288950	-0.686834	-0.287318
O88	O	-0.670618	-1.238634	-0.482666
H89	H	-0.606296	-1.230183	-0.474207
O90	O	-0.275651	-1.238857	-0.667051
H91	H	-0.213608	-1.225422	-0.682791
O92	O	-1.090171	-1.030245	-0.273850
H93	H	-1.047653	-0.995341	-0.238900
H94	H	-0.805288	-1.275588	-0.519672
H95	H	-0.955046	-1.275664	-0.519711
