data_functionalizedCrystal
_audit_creation_method	'MofGen! by Chris Wilmer'
_symmetry_space_group_name_H-M	'P1'
_symmetry_Int_Tables_number	1
_symmetry_cell_setting	triclinic
loop_
_symmetry_equiv_pos_as_xyz
  x,y,z
_cell_length_a	19.121368
_cell_length_b	21.395362
_cell_length_c	21.395355
_cell_angle_alpha	90.043940
_cell_angle_beta	87.554239
_cell_angle_gamma	87.543950
loop_
_atom_site_label
_atom_site_type_symbol
_atom_site_fract_x
_atom_site_fract_y
_atom_site_fract_z
Zn1	Zn	0.279399	0.947354	0.344002
Zn2	Zn	0.396832	0.942840	0.234777
Zn3	Zn	0.279431	0.842567	0.239202
Zn4	Zn	0.396846	0.838121	0.339481
O5	O	0.338127	0.892721	0.289366
O6	O	0.294957	1.034433	0.329553
O7	O	0.381266	0.929511	0.147686
O8	O	0.181142	0.860217	0.256849
O9	O	0.381234	1.031118	0.249306
O10	O	0.181118	0.937203	0.333845
O11	O	0.295012	0.855840	0.150937
O12	O	0.295026	0.754299	0.252464
O13	O	0.381259	0.852639	0.427759
O14	O	0.381291	0.751032	0.326139
O15	O	0.294971	0.932892	0.431081
O16	O	0.495119	0.925200	0.244921
O17	O	0.495129	0.848263	0.321847
C18	C	0.338164	0.729932	0.289291
C19	C	0.338197	0.660289	0.289274
C20	C	0.154933	0.899709	0.296345
C21	C	0.076867	0.902687	0.299319
C22	C	0.383174	0.625889	0.327574
C23	C	0.383157	0.560454	0.327602
C24	C	0.338170	0.529422	0.289320
C25	C	0.293184	0.563830	0.251017
C26	C	0.293197	0.629263	0.250994
C27	C	0.332512	0.425910	0.233129
C28	C	0.332503	0.360477	0.233150
C29	C	0.338124	0.327603	0.289391
C30	C	0.343768	0.360169	0.345610
C31	C	0.343782	0.425602	0.345588
C32	C	0.338150	0.458470	0.289340
C33	C	0.383085	0.222251	0.327725
C34	C	0.383063	0.156815	0.327755
C35	C	0.293093	0.160192	0.251164
C36	C	0.293112	0.225626	0.251140
C37	C	0.338112	0.256652	0.289419
C38	C	0.040203	0.864006	0.260630
C39	C	-0.033149	0.866804	0.263431
C40	C	-0.069835	0.908285	0.304918
C41	C	-0.033165	0.946968	0.343611
C42	C	0.040185	0.944167	0.340813
C43	C	-0.291306	0.918744	0.315375
C44	C	-0.364661	0.921544	0.318169
C45	C	-0.364640	0.841378	0.237989
C46	C	-0.291288	0.838584	0.235192
C47	C	-0.254625	0.877264	0.273887
C48	C	-0.144812	0.911147	0.307781
C49	C	-0.179649	0.874399	0.271027
C50	C	0.520608	0.885776	0.282427
C51	C	0.598675	0.882863	0.279480
C52	C	0.338113	0.892773	0.452789
C53	C	0.338107	0.892796	0.522431
C54	C	0.338090	1.056145	0.289440
C55	C	0.338075	1.125787	0.289472
C56	C	0.338091	0.892706	0.126579
C57	C	0.337899	0.892813	0.056946
C58	C	0.293174	0.934581	0.556875
C59	C	0.293144	0.934582	0.622312
C60	C	0.338059	0.892802	0.653301
C61	C	0.382994	0.851009	0.618849
C62	C	0.383018	0.851005	0.553414
C63	C	0.401301	0.885448	0.754570
C64	C	0.401278	0.885456	0.820003
C65	C	0.337985	0.892809	0.855125
C66	C	0.274712	0.900167	0.824804
C67	C	0.274736	0.900164	0.759369
C68	C	0.338038	0.892801	0.724254
C69	C	0.293016	0.934597	0.960523
C70	C	0.292984	0.934593	1.025961
C71	C	0.382841	0.851023	1.022497
C72	C	0.382866	0.851024	0.957060
C73	C	0.337954	0.892815	0.926077
H74	H	0.419816	0.651146	0.358745
H75	H	0.419688	0.128808	0.358947
H76	H	-0.394527	0.955325	0.351954
H77	H	0.256554	0.538559	0.219848
O78	O	-0.072697	0.825094	0.221693
H79	H	-0.034864	0.795788	0.192365
O80	O	0.431483	0.805925	0.516269
H81	H	0.467226	0.832594	0.485119
O82	O	0.079738	0.985884	0.382542
H83	H	0.065660	1.035595	0.372354
O84	O	0.349826	0.324723	0.406278
H85	H	0.348858	0.273753	0.396853
O86	O	0.244606	0.262725	0.209817
H87	H	0.208916	0.293939	0.239253
O88	O	-0.251719	0.793841	0.190447
H89	H	-0.289538	0.767409	0.164017
O90	O	0.206499	0.908097	0.726663
H91	H	0.162480	0.913208	0.762074
O92	O	0.206436	0.908098	0.862671
H93	H	0.171966	0.869576	0.851376
O94	O	0.349853	0.460727	0.406222
H95	H	0.399855	0.446270	0.427637
H96	H	0.256461	0.134926	0.219996
H97	H	-0.149776	0.840622	0.237252
H98	H	0.256442	0.968622	0.935295
H99	H	-0.174688	0.944923	0.341559
H100	H	0.327912	0.333967	0.187373
O101	O	0.079761	0.819265	0.215877
H102	H	0.113167	0.846024	0.182733
O103	O	0.431697	0.523338	0.368887
H104	H	0.463001	0.555905	0.395490
O105	O	0.326451	0.461366	0.172466
H106	H	0.322536	0.427730	0.133377
H107	H	0.256569	0.657272	0.219806
O108	O	-0.404181	0.799655	0.196259
H109	H	-0.461350	0.808566	0.205176
O110	O	0.244663	0.979641	0.659470
H111	H	0.252184	0.972614	0.710176
H112	H	0.452829	0.879293	0.725979
H113	H	0.419562	0.816990	0.644085
O114	O	0.431608	0.255723	0.369017
H115	H	0.462873	0.220806	0.395664
O116	O	0.244730	0.979649	0.523459
H117	H	0.276170	1.010328	0.492483
H118	H	-0.261464	0.950247	0.346877
H119	H	0.419459	0.817001	0.929016
H120	H	-0.063039	0.980741	0.377394
O121	O	0.244521	0.979665	1.063116
H122	H	0.213303	1.008726	1.030575
H123	H	0.452798	0.879468	0.844685
O124	O	0.431286	0.805958	1.055910
H125	H	0.423724	0.812982	1.107199
