data_functionalizedCrystal
_audit_creation_method	'MofGen! by Chris Wilmer'
_symmetry_space_group_name_H-M	'P1'
_symmetry_Int_Tables_number	1
_symmetry_cell_setting	triclinic
loop_
_symmetry_equiv_pos_as_xyz
  x,y,z
_cell_length_a	10.540539
_cell_length_b	10.654541
_cell_length_c	9.130307
_cell_angle_alpha	89.997370
_cell_angle_beta	90.003133
_cell_angle_gamma	95.495290
loop_
_atom_site_label
_atom_site_type_symbol
_atom_site_fract_x
_atom_site_fract_y
_atom_site_fract_z
O1	O	0.178287	-1.667906	0.121747
O2	O	0.195278	-1.302433	0.121759
O3	O	0.002073	-1.493507	0.121751
O4	O	0.371492	-1.476831	0.121755
O5	O	0.002065	-1.493492	-0.121848
O6	O	0.195269	-1.302418	-0.121840
O7	O	0.178279	-1.667891	-0.121852
Cu8	Cu	0.186773	-1.485153	-0.144088
Cu9	Cu	0.186783	-1.485170	0.143996
O10	O	0.371484	-1.476816	-0.121844
C11	C	-0.045234	-1.492249	-0.000046
C12	C	-0.186180	-1.488508	-0.000038
C13	C	0.194027	-1.255627	-0.000039
C14	C	0.190296	-1.116182	-0.000034
C15	C	0.179530	-1.714697	-0.000051
C16	C	0.183260	-1.854142	-0.000046
C17	C	-0.369554	-1.345136	0.000514
C18	C	-0.222938	-1.348929	-0.000035
C19	C	-0.247868	-1.555671	-0.139147
C20	C	-0.394410	-1.550907	-0.139264
C21	C	-0.394920	-1.553763	0.137753
C22	C	-0.247939	-1.555048	0.139593
C23	C	0.418790	-1.478074	-0.000044
C24	C	0.559737	-1.481816	-0.000042
N25	N	0.186766	-1.485150	-0.346711
C26	C	0.421325	-1.088292	-0.000013
C27	C	0.535081	-1.008838	0.000003
C28	C	0.531569	-0.877819	0.000005
C29	C	0.414286	-0.826252	-0.000015
C30	C	0.300530	-0.905707	-0.000031
C31	C	0.304055	-1.036727	-0.000028
C32	C	0.069504	-0.933596	-0.000062
C33	C	0.073014	-1.064615	-0.000053
C34	C	-0.047778	-0.882029	-0.000082
C35	C	-0.161538	-0.961484	-0.000088
C36	C	-0.158020	-1.092511	-0.000088
C37	C	-0.040742	-1.144070	-0.000070
C38	C	0.031333	-1.331451	-0.346768
C39	C	-0.046386	-1.254614	-0.423462
C40	C	-0.046386	-1.254632	-0.576796
C41	C	0.031343	-1.331492	-0.653438
C42	C	0.109062	-1.408329	-0.576743
C43	C	0.109052	-1.408305	-0.423406
C44	C	0.264500	-1.562020	-0.576687
C45	C	0.264496	-1.562010	-0.423353
C46	C	0.342230	-1.638880	-0.653329
C47	C	0.419944	-1.715725	-0.576634
C48	C	0.419940	-1.715704	-0.423291
C49	C	0.342215	-1.638847	-0.346658
N50	N	0.186781	-1.485183	0.346618
H51	H	-0.180312	-1.296081	0.099684
Br52	Br	0.426101	-1.266105	0.000020
Br53	Br	0.031308	-1.331441	-0.138671
H54	H	-0.250655	-1.157196	-0.000106
Br55	Br	-0.447457	-1.478468	0.313489
H56	H	-0.050630	-0.775346	-0.000089
Br57	Br	-0.417176	-1.253239	0.166787
Br58	Br	0.694243	-1.078826	0.000026
Br59	Br	-0.210681	-1.726518	-0.147782
H60	H	0.624199	-0.813126	0.000008
H61	H	0.411436	-0.719568	-0.000031
H62	H	-0.399745	-1.290218	-0.098682
Br63	Br	-0.320689	-0.891495	-0.000132
Br64	Br	-0.178979	-1.473841	0.311145
H65	H	-0.037867	-1.250751	-0.000052
Br66	Br	-0.151862	-1.150300	-0.319444
H67	H	0.483232	-1.778291	-0.639048
H68	H	-0.181166	-1.295698	-0.099917
H69	H	-0.442183	-1.654580	0.138686
Br70	Br	-0.151852	-1.150345	-0.680888
H71	H	0.031348	-1.331489	-0.778290
H72	H	0.342230	-1.638883	-0.778181
Br73	Br	-0.441394	-1.468152	-0.312573
Br74	Br	0.342195	-1.638821	-0.138562
Br75	Br	-0.474430	-1.718211	-0.149807
Br76	Br	-0.176849	-1.477894	-0.311689
H77	H	0.483235	-1.778267	-0.360855
H78	H	-0.223755	-1.656812	0.147989
