data_functionalizedCrystal
_audit_creation_method	'MofGen! by Chris Wilmer'
_symmetry_space_group_name_H-M	'P1'
_symmetry_Int_Tables_number	1
_symmetry_cell_setting	triclinic
loop_
_symmetry_equiv_pos_as_xyz
  x,y,z
_cell_length_a	14.519709
_cell_length_b	9.565339
_cell_length_c	14.519709
_cell_angle_alpha	89.999284
_cell_angle_beta	96.319855
_cell_angle_gamma	89.997945
loop_
_atom_site_label
_atom_site_type_symbol
_atom_site_fract_x
_atom_site_fract_y
_atom_site_fract_z
O1	O	1.223867	0.116081	-0.120885
O2	O	1.557200	0.449414	0.212449
O3	O	1.890534	0.782748	0.545782
O4	O	0.955390	0.116124	-0.135121
O5	O	1.288723	0.449457	0.198212
O6	O	1.622057	0.782791	0.531546
O7	O	1.096747	0.116089	0.006236
O8	O	1.430080	0.449422	0.339569
O9	O	1.763413	0.782755	0.672902
O10	O	1.082510	0.116116	-0.262241
O11	O	1.415844	0.449450	0.071092
O12	O	1.749177	0.782783	0.404425
O13	O	1.096736	-0.116431	0.006227
O14	O	1.430069	0.216902	0.339560
O15	O	1.763402	0.550235	0.672893
O16	O	0.955379	-0.116396	-0.135130
O17	O	1.288712	0.216937	0.198203
O18	O	1.622046	0.550271	0.531537
O19	O	1.223856	-0.116439	-0.120893
O20	O	1.557189	0.216894	0.212440
O21	O	1.890522	0.550228	0.545773
Zn22	Zn	1.089616	-0.153335	-0.128013
Zn23	Zn	1.422949	0.179998	0.205320
Zn24	Zn	1.756282	0.513332	0.538654
Zn25	Zn	1.089630	0.153020	-0.128001
Zn26	Zn	1.422964	0.486353	0.205332
Zn27	Zn	1.756297	0.819687	0.538665
O28	O	1.082499	-0.116404	-0.262250
O29	O	1.415832	0.216929	0.071083
O30	O	1.749166	0.550263	0.404417
C31	C	0.921025	-0.000131	-0.134462
C32	C	1.254358	0.333203	0.198871
C33	C	1.587691	0.666536	0.532205
C34	C	0.818643	-0.000115	-0.132474
C35	C	1.151977	0.333219	0.200859
C36	C	1.485310	0.666552	0.534193
N37	N	1.089612	-0.362415	-0.128020
N38	N	1.422946	-0.029081	0.205313
N39	N	1.756279	0.304252	0.538646
C40	C	0.443748	-0.000179	-0.125154
C41	C	0.777081	0.333154	0.208179
C42	C	1.110414	0.666488	0.541512
C43	C	0.548056	-0.000161	-0.127187
C44	C	0.881389	0.333173	0.206146
C45	C	1.214722	0.666506	0.539480
C46	C	0.631192	-0.000145	-0.128814
C47	C	0.964526	0.333188	0.204519
C48	C	1.297859	0.666521	0.537853
C49	C	0.735507	-0.000130	-0.130847
C50	C	1.068840	0.333204	0.202486
C51	C	1.402173	0.666537	0.535820
C52	C	1.024220	-0.453601	-0.193372
C53	C	1.357553	-0.120268	0.139962
C54	C	1.690886	0.213065	0.473295
C55	C	1.107587	-0.546792	-0.211404
C56	C	1.440920	-0.213458	0.121929
C57	C	1.774253	0.119875	0.455263
C58	C	1.006281	-0.546780	-0.109995
C59	C	1.339615	-0.213446	0.223338
C60	C	1.672948	0.119887	0.556671
C61	C	1.173021	-0.453553	-0.146094
C62	C	1.506355	-0.120220	0.187239
C63	C	1.839688	0.213114	0.520572
C64	C	1.071661	-0.453533	-0.044649
C65	C	1.404994	-0.120200	0.288684
C66	C	1.738328	0.213134	0.622017
C67	C	1.155088	-0.546681	-0.062646
C68	C	1.488422	-0.213348	0.270687
C69	C	1.821755	0.119986	0.604020
C70	C	1.258221	-0.000181	-0.121553
C71	C	1.591554	0.333152	0.211781
C72	C	1.924888	0.666485	0.545114
C73	C	1.360602	-0.000188	-0.123541
C74	C	1.693936	0.333145	0.209793
C75	C	2.027269	0.666478	0.543126
C76	C	1.096078	-0.000171	0.040591
C77	C	1.429411	0.333162	0.373924
C78	C	1.762744	0.666495	0.707258
C79	C	1.094090	-0.000172	0.142972
C80	C	1.427423	0.333161	0.476306
C81	C	1.760756	0.666495	0.809639
N82	N	1.089641	0.362099	-0.127987
N83	N	1.422974	0.695433	0.205346
N84	N	1.756308	1.028766	0.538680
C85	C	1.083168	-0.000141	-0.296606
C86	C	1.416501	0.333193	0.036728
C87	C	1.749835	0.666526	0.370061
C88	C	1.085156	-0.000131	-0.398987
C89	C	1.418490	0.333202	-0.065653
C90	C	1.751823	0.666536	0.267680
C91	C	1.086770	-0.000134	0.517868
C92	C	1.420103	0.333199	0.851201
C93	C	1.753437	0.666532	1.184535
C94	C	1.088803	-0.000145	0.413560
C95	C	1.422136	0.333188	0.746893
C96	C	1.755469	0.666521	1.080227
C97	C	1.090430	-0.000154	0.330423
C98	C	1.423763	0.333179	0.663757
C99	C	1.757096	0.666512	0.997090
C100	C	1.092463	-0.000163	0.226109
C101	C	1.425796	0.333171	0.559442
C102	C	1.759129	0.666504	0.892776
H103	H	0.968970	-0.412733	-0.248688
H104	H	1.302303	-0.079399	0.084646
H105	H	1.635636	0.253934	0.417979
N106	N	1.228425	-0.600499	0.010583
N107	N	1.561759	-0.267166	0.343916
N108	N	1.895092	0.066168	0.677249
H109	H	1.261934	-0.518956	0.043314
H110	H	1.595267	-0.185623	0.376648
H111	H	1.928601	0.147711	0.709981
H112	H	1.274129	-0.659988	-0.019586
H113	H	1.607462	-0.326655	0.313748
H114	H	1.940796	0.006679	0.647081
H115	H	1.122789	-0.587755	-0.281894
H116	H	1.456123	-0.254421	0.051439
H117	H	1.789456	0.078912	0.384772
N118	N	1.051499	-0.399227	0.048696
N119	N	1.384832	-0.065894	0.382030
N120	N	1.718165	0.267439	0.715363
H121	H	0.988493	-0.433079	0.062243
H122	H	1.321826	-0.099746	0.395577
H123	H	1.655159	0.233587	0.728910
H124	H	1.052295	-0.293654	0.048104
H125	H	1.385628	0.039679	0.381438
H126	H	1.718961	0.373013	0.714771
H127	H	1.243520	-0.412775	-0.161410
H128	H	1.576853	-0.079441	0.171923
H129	H	1.910187	0.253892	0.505257
H130	H	0.935798	-0.587734	-0.094764
H131	H	1.269131	-0.254401	0.238569
H132	H	1.602465	0.078933	0.571902
