data_functionalizedCrystal
_audit_creation_method	'MofGen! by Chris Wilmer'
_symmetry_space_group_name_H-M	'P1'
_symmetry_Int_Tables_number	1
_symmetry_cell_setting	triclinic
loop_
_symmetry_equiv_pos_as_xyz
  x,y,z
_cell_length_a	16.959455
_cell_length_b	16.625546
_cell_length_c	16.959447
_cell_angle_alpha	90.032216
_cell_angle_beta	90.014322
_cell_angle_gamma	90.019415
loop_
_atom_site_label
_atom_site_type_symbol
_atom_site_fract_x
_atom_site_fract_y
_atom_site_fract_z
Zn1	Zn	1.208371	-0.321051	0.446898
Zn2	Zn	1.541704	0.012282	0.780232
Zn3	Zn	1.875037	0.345615	1.113565
Zn4	Zn	1.208288	-0.455899	0.314715
Zn5	Zn	1.541621	-0.122565	0.648049
Zn6	Zn	1.874954	0.210768	0.981382
Zn7	Zn	1.076199	-0.321077	0.314736
Zn8	Zn	1.409532	0.012257	0.648069
Zn9	Zn	1.742866	0.345590	0.981402
Zn10	Zn	1.076158	-0.455839	0.446854
Zn11	Zn	1.409492	-0.122505	0.780187
Zn12	Zn	1.742825	0.210828	1.113521
O13	O	1.142254	-0.388466	0.380801
O14	O	1.475587	-0.055133	0.714134
O15	O	1.808921	0.278200	1.047467
O16	O	1.318970	-0.338954	0.429374
O17	O	1.652304	-0.005621	0.762707
O18	O	1.985637	0.327713	1.096041
O19	O	1.190748	-0.438050	0.204107
O20	O	1.524081	-0.104717	0.537440
O21	O	1.857415	0.228616	0.870774
O22	O	1.093784	-0.208241	0.332295
O23	O	1.427117	0.125092	0.665628
O24	O	1.760450	0.458426	0.998961
O25	O	1.318909	-0.438026	0.332260
O26	O	1.652243	-0.104692	0.665593
O27	O	1.985576	0.228641	0.998926
O28	O	1.190890	-0.208222	0.429394
O29	O	1.524223	0.125111	0.762727
O30	O	1.857556	0.458444	1.096060
O31	O	1.093703	-0.338997	0.204122
O32	O	1.427037	-0.005664	0.537455
O33	O	1.760370	0.327670	0.870789
O34	O	0.965583	-0.338939	0.332252
O35	O	1.298916	-0.005605	0.665585
O36	O	1.632249	0.327728	0.998918
O37	O	1.093714	-0.437923	0.557471
O38	O	1.427047	-0.104590	0.890804
O39	O	1.760381	0.228744	1.224137
O40	O	0.965553	-0.437947	0.429318
O41	O	1.298886	-0.104614	0.762652
O42	O	1.632219	0.228719	1.095985
O43	O	1.190850	-0.338895	0.557503
O44	O	1.524183	-0.005562	0.890837
O45	O	1.857517	0.327771	1.224170
O46	O	1.190709	-0.568723	0.332217
O47	O	1.524042	-0.235390	0.665550
O48	O	1.857375	0.097943	0.998883
O49	O	1.093634	-0.568679	0.429298
O50	O	1.426967	-0.235346	0.762632
O51	O	1.760300	0.097988	1.095965
C52	C	0.936888	-0.388440	0.380783
C53	C	1.270221	-0.055106	0.714116
C54	C	1.603554	0.278227	1.047449
C55	C	0.849031	-0.388448	0.380794
C56	C	1.182364	-0.055114	0.714127
C57	C	1.515698	0.278219	1.047460
C58	C	0.477547	-0.336870	0.330364
C59	C	0.810880	-0.003537	0.663697
C60	C	1.144213	0.329796	0.997030
C61	C	0.477564	-0.440129	0.431283
C62	C	0.810898	-0.106796	0.764616
C63	C	1.144231	0.226538	1.097950
C64	C	0.560110	-0.440117	0.431278
C65	C	0.893443	-0.106784	0.764612
C66	C	1.226777	0.226549	1.097945
C67	C	0.601378	-0.388482	0.380815
C68	C	0.934711	-0.055149	0.714148
C69	C	1.268045	0.278184	1.047481
C70	C	0.560100	-0.336859	0.330356
C71	C	0.893434	-0.003525	0.663689
C72	C	1.226767	0.329808	0.997022
C73	C	0.601394	-0.491746	0.481731
C74	C	0.934727	-0.158412	0.815064
C75	C	1.268061	0.174921	1.148397
C76	C	0.683945	-0.491737	0.481727
C77	C	1.017278	-0.158404	0.815060
C78	C	1.350612	0.174930	1.148394
C79	C	0.725215	-0.440097	0.431267
C80	C	1.058548	-0.106764	0.764600
C81	C	1.391881	0.226570	1.097933
C82	C	0.683932	-0.388471	0.380807
C83	C	1.017265	-0.055137	0.714140
C84	C	1.350598	0.278196	1.047473
C85	C	0.725200	-0.336836	0.330343
C86	C	1.058533	-0.003502	0.663676
C87	C	1.391866	0.329831	0.997010
C88	C	0.683918	-0.285205	0.279886
C89	C	1.017251	0.048129	0.613219
C90	C	1.350585	0.381462	0.946553
C91	C	0.601370	-0.285219	0.279895
C92	C	0.934703	0.048114	0.613229
C93	C	1.268036	0.381448	0.946562
C94	C	0.807763	-0.440083	0.431257
C95	C	1.141096	-0.106750	0.764591
C96	C	1.474430	0.226584	1.097924
C97	C	0.807753	-0.336824	0.330335
C98	C	1.141086	-0.003491	0.663668
C99	C	1.474420	0.329842	0.997001
C100	C	1.142179	-0.597957	0.380768
C101	C	1.475512	-0.264624	0.714101
C102	C	1.808846	0.068709	1.047434
C103	C	1.142219	-0.687578	0.380780
C104	C	1.475553	-0.354245	0.714113
C105	C	1.808886	-0.020912	1.047447
C106	C	1.142357	-1.015754	0.380862
C107	C	1.475691	-0.682421	0.714196
C108	C	1.809024	-0.349087	1.047529
C109	C	1.142316	-0.924445	0.380842
C110	C	1.475650	-0.591112	0.714175
C111	C	1.808983	-0.257779	1.047508
C112	C	1.142288	-0.851669	0.380821
C113	C	1.475621	-0.518336	0.714154
C114	C	1.808954	-0.185002	1.047487
C115	C	1.142248	-0.760355	0.380801
C116	C	1.475581	-0.427021	0.714134
C117	C	1.808915	-0.093688	1.047468
C118	C	1.348422	-0.388494	0.380819
C119	C	1.681755	-0.055160	0.714153
C120	C	2.015089	0.278173	1.047486
C121	C	1.436279	-0.388505	0.380827
C122	C	1.769612	-0.055172	0.714161
C123	C	2.102945	0.278161	1.047494
C124	C	1.142287	-0.388400	0.586969
C125	C	1.475620	-0.055066	0.920302
C126	C	1.808953	0.278267	1.253636
C127	C	1.142301	-0.388371	0.674826
C128	C	1.475634	-0.055038	1.008159
C129	C	1.808967	0.278295	1.341492
C130	C	1.142351	-0.178157	0.380851
C131	C	1.475684	0.155176	0.714185
C132	C	1.809017	0.488509	1.047518
C133	C	1.142392	-0.088536	0.380873
C134	C	1.475725	0.244797	0.714206
C135	C	1.809058	0.578130	1.047540
C136	C	1.142267	-0.388475	0.175435
C137	C	1.475600	-0.055141	0.508768
C138	C	1.808933	0.278192	0.842101
C139	C	1.142406	-0.388276	0.087578
C140	C	1.475739	-0.054943	0.420912
C141	C	1.809072	0.278391	0.754245
C142	C	1.091821	-0.439845	1.046287
C143	C	1.425154	-0.106512	1.379620
C144	C	1.758488	0.226821	1.712954
C145	C	1.192969	-0.336727	1.046316
C146	C	1.526303	-0.003394	1.379649
C147	C	1.859636	0.329940	1.712983
C148	C	1.192948	-0.336744	0.963770
C149	C	1.526282	-0.003411	1.297104
C150	C	1.859615	0.329922	1.630437
C151	C	1.142364	-0.388313	0.922479
C152	C	1.475697	-0.054980	1.255812
C153	C	1.809030	0.278353	1.589146
C154	C	1.091800	-0.439866	0.963734
C155	C	1.425133	-0.106532	1.297067
C156	C	1.758467	0.226801	1.630400
C157	C	1.243517	-0.285199	0.922509
C158	C	1.576850	0.048135	1.255843
C159	C	1.910184	0.381468	1.589176
C160	C	1.243498	-0.285214	0.839958
C161	C	1.576832	0.048119	1.173292
C162	C	1.910165	0.381452	1.506625
C163	C	1.192909	-0.336780	0.798666
C164	C	1.526242	-0.003447	1.131999
C165	C	1.859576	0.329886	1.465332
C166	C	1.142343	-0.388334	0.839925
C167	C	1.475676	-0.055000	1.173259
C168	C	1.809009	0.278333	1.506592
C169	C	1.091758	-0.439903	0.798634
C170	C	1.425091	-0.106570	1.131967
C171	C	1.758425	0.226764	1.465301
C172	C	1.041187	-0.491453	0.839892
C173	C	1.374520	-0.158120	1.173226
C174	C	1.707854	0.175214	1.506559
C175	C	1.041211	-0.491431	0.922441
C176	C	1.374544	-0.158098	1.255774
C177	C	1.707877	0.175235	1.589107
C178	C	1.192886	-0.336802	0.716117
C179	C	1.526219	-0.003469	1.049450
C180	C	1.859552	0.329865	1.382784
C181	C	1.091737	-0.439923	0.716080
C182	C	1.425070	-0.106590	1.049414
C183	C	1.758404	0.226743	1.382747
H184	H	1.050537	-0.481911	0.682467
H185	H	1.383871	-0.148577	1.015800
H186	H	1.717204	0.184756	1.349134
H187	H	0.717550	-0.533777	0.522813
H188	H	1.050883	-0.200444	0.856146
H189	H	1.384216	0.132889	1.189479
C190	C	1.036200	-0.496548	1.091666
C191	C	1.369533	-0.163215	1.424999
C192	C	1.702866	0.170118	1.758332
H193	H	1.043457	-0.489156	1.146743
H194	H	1.376790	-0.155823	1.480077
H195	H	1.710123	0.177510	1.813410
H196	H	0.983094	-0.484747	1.078138
H197	H	1.316427	-0.151414	1.411471
H198	H	1.649760	0.181920	1.744805
H199	H	1.047747	-0.550731	1.078120
H200	H	1.381081	-0.217398	1.411454
H201	H	1.714414	0.115936	1.744787
C202	C	0.432176	-0.496864	0.486849
C203	C	0.765509	-0.163531	0.820182
C204	C	1.098842	0.169803	1.153515
H205	H	0.468584	-0.527592	0.516913
H206	H	0.801917	-0.194258	0.850247
H207	H	1.135250	0.139075	1.183580
H208	H	0.400020	-0.466010	0.521322
H209	H	0.733353	-0.132677	0.854656
H210	H	1.066686	0.200656	1.187989
H211	H	0.399928	-0.531988	0.456604
H212	H	0.733261	-0.198654	0.789938
H213	H	1.066595	0.134679	1.123271
H214	H	1.234158	-0.294746	1.079940
H215	H	1.567491	0.038587	1.413274
H216	H	1.900824	0.371920	1.746607
H217	H	0.717529	-0.243167	0.238795
H218	H	1.050863	0.090166	0.572128
H219	H	1.384196	0.423500	0.905462
H220	H	0.841371	-0.482122	0.472336
H221	H	1.174704	-0.148789	0.805669
H222	H	1.508037	0.184544	1.139003
C223	C	1.299144	-0.228468	0.967929
C224	C	1.632477	0.104865	1.301262
C225	C	1.965811	0.438199	1.634596
H226	H	1.291903	-0.235830	1.023001
H227	H	1.625236	0.097503	1.356334
H228	H	1.958569	0.430837	1.689667
H229	H	1.352249	-0.240268	0.954407
H230	H	1.685582	0.093065	1.287741
H231	H	2.018915	0.426399	1.621074
H232	H	1.287584	-0.174295	0.954411
H233	H	1.620918	0.159038	1.287744
H234	H	1.954251	0.492372	1.621078
C235	C	1.299116	-0.228506	0.794581
C236	C	1.632450	0.104827	1.127915
C237	C	1.965783	0.438160	1.461248
H238	H	1.329241	-0.197788	0.830997
H239	H	1.662574	0.135546	1.164330
H240	H	1.995907	0.468879	1.497664
H241	H	1.333534	-0.259357	0.762364
H242	H	1.666867	0.073977	1.095697
H243	H	2.000200	0.407310	1.429031
H244	H	1.268879	-0.193374	0.762396
H245	H	1.602212	0.139959	1.095729
H246	H	1.935546	0.473293	1.429063
C247	C	1.248506	-0.280108	0.670733
C248	C	1.581840	0.053225	1.004066
C249	C	1.915173	0.386558	1.337399
H250	H	1.241253	-0.287508	0.615656
H251	H	1.574586	0.045825	0.948989
H252	H	1.907919	0.379159	1.282323
H253	H	1.236974	-0.225927	0.684279
H254	H	1.570308	0.107406	1.017613
H255	H	1.903641	0.440740	1.350946
H256	H	1.301615	-0.291924	0.684256
H257	H	1.634948	0.041409	1.017590
H258	H	1.968281	0.374743	1.350923
H259	H	0.567788	-0.533790	0.522810
H260	H	0.901121	-0.200457	0.856143
H261	H	1.234454	0.132877	1.189476
H262	H	0.841348	-0.294771	0.289245
H263	H	1.174681	0.038562	0.622579
H264	H	1.508014	0.371895	0.955912
H265	H	1.000005	-0.533444	0.806262
H266	H	1.333338	-0.200111	1.139595
H267	H	1.666671	0.133222	1.472929
H268	H	0.443932	-0.294831	0.289285
H269	H	0.777265	0.038502	0.622619
H270	H	1.110598	0.371835	0.955952
C271	C	0.555959	-0.228443	0.224389
C272	C	0.889293	0.104890	0.557722
C273	C	1.222626	0.438224	0.891055
H274	H	0.500886	-0.235855	0.231614
H275	H	0.834220	0.097478	0.564947
H276	H	1.167553	0.430812	0.898281
H277	H	0.569495	-0.174277	0.236042
H278	H	0.902828	0.159057	0.569375
H279	H	1.236162	0.492390	0.902709
H280	H	0.569471	-0.240186	0.171258
H281	H	0.902805	0.093147	0.504591
H282	H	1.236138	0.426480	0.837924
C283	C	0.985595	-0.548135	0.967825
C284	C	1.318928	-0.214802	1.301159
C285	C	1.652261	0.118532	1.634492
H286	H	0.992860	-0.540743	1.022902
H287	H	1.326194	-0.207409	1.356235
H288	H	1.659527	0.125924	1.689568
H289	H	0.932487	-0.536335	0.954306
H290	H	1.265820	-0.203001	1.287639
H291	H	1.599153	0.130332	1.620972
H292	H	0.997141	-0.602317	0.954278
H293	H	1.330474	-0.268984	1.287612
H294	H	1.663808	0.064349	1.620945
