data_functionalizedCrystal
_audit_creation_method	'MofGen! by Chris Wilmer'
_symmetry_space_group_name_H-M	'P1'
_symmetry_Int_Tables_number	1
_symmetry_cell_setting	triclinic
loop_
_symmetry_equiv_pos_as_xyz
  x,y,z
_cell_length_a	10.540539
_cell_length_b	10.540539
_cell_length_c	9.616153
_cell_angle_alpha	89.999906
_cell_angle_beta	89.995174
_cell_angle_gamma	84.525492
loop_
_atom_site_label
_atom_site_type_symbol
_atom_site_fract_x
_atom_site_fract_y
_atom_site_fract_z
O1	O	1.685892	0.178895	-0.115573
O2	O	1.316479	0.195751	-0.115589
O3	O	1.509614	0.002617	-0.115579
O4	O	1.492758	0.372030	-0.115583
O5	O	1.509587	0.002621	0.115712
O6	O	1.316452	0.195755	0.115702
O7	O	1.685865	0.178899	0.115718
Zn8	Zn	1.501155	0.187328	0.152433
Zn9	Zn	1.501190	0.187323	-0.152304
O10	O	1.492731	0.372034	0.115708
C11	C	1.269163	0.194489	0.000054
C12	C	1.128215	0.190707	0.000048
C13	C	0.944788	0.045790	0.000589
C14	C	1.091406	0.049624	0.000054
C15	C	1.066557	0.258600	-0.132027
C16	C	0.920013	0.253785	-0.132123
C17	C	0.919494	0.256660	0.130899
C18	C	1.066476	0.257959	0.132630
C19	C	1.508336	-0.044684	0.000064
C20	C	1.504554	-0.185632	0.000056
C21	C	1.359637	-0.369059	-0.000469
C22	C	1.363471	-0.222441	0.000052
C23	C	1.572435	-0.247288	0.132138
C24	C	1.567620	-0.393832	0.132249
C25	C	1.570519	-0.394355	-0.130772
C26	C	1.571819	-0.247373	-0.132518
C27	C	1.733182	0.180161	0.000072
C28	C	1.874130	0.183943	0.000069
C29	C	1.494008	0.419335	0.000062
C30	C	1.497790	0.560283	0.000060
N31	N	1.501140	0.187331	0.360407
N32	N	1.501215	0.187310	-0.360278
C33	C	1.397510	0.290298	0.580772
C34	C	1.397739	0.290684	0.419604
C35	C	1.633864	0.217464	0.418862
C36	C	1.633299	0.218193	0.580080
C37	C	1.473368	0.053892	0.580319
C38	C	1.470321	0.054757	0.419092
H39	H	1.090701	0.360819	0.140603
Br40	Br	1.273777	-0.152829	0.158111
H41	H	1.712941	0.146204	0.619073
H42	H	0.914592	-0.009712	-0.093600
Br43	Br	1.740365	-0.473066	-0.132249
Br44	Br	1.483964	-0.440837	0.296801
H45	H	1.299122	0.272553	0.380085
H46	H	1.088911	0.362208	-0.136942
H47	H	1.298585	0.272445	0.619578
Br48	Br	1.673892	0.380427	0.642738
Br49	Br	1.736727	-0.473790	0.142262
Br50	Br	1.427512	0.455681	0.355289
H51	H	1.712918	0.144501	0.380514
H52	H	1.676042	-0.224933	0.137054
Br53	Br	0.897121	-0.047107	0.158462
Br54	Br	1.493811	-0.176289	0.295962
Br55	Br	1.426968	0.454353	0.648238
H56	H	1.524869	-0.425910	-0.230881
Br57	Br	1.160965	-0.039648	-0.158293
H58	H	1.658761	0.313702	0.378472
H59	H	1.107427	0.208361	0.230338
H60	H	1.109157	0.211434	-0.230318
H61	H	1.378631	0.025213	0.621052
H62	H	1.522152	-0.206516	-0.230229
H63	H	1.674680	-0.223152	-0.140490
H64	H	1.548980	-0.022762	0.618439
Br65	Br	1.162422	-0.039416	0.157854
Br66	Br	0.873005	0.170146	-0.296672
Br67	Br	0.840055	0.422894	-0.142116
Br68	Br	0.866904	0.180560	0.297760
H69	H	0.872267	0.358563	0.131790
Br70	Br	1.307582	0.016682	0.355422
Br71	Br	1.274447	-0.151428	-0.157758
H72	H	1.540848	-0.025564	0.378801
H73	H	1.303917	-0.397661	-0.095187
Br74	Br	1.266835	-0.420010	0.156028
