data_functionalizedCrystal
_audit_creation_method	'MofGen! by Chris Wilmer'
_symmetry_space_group_name_H-M	'P1'
_symmetry_Int_Tables_number	1
_symmetry_cell_setting	triclinic
loop_
_symmetry_equiv_pos_as_xyz
  x,y,z
_cell_length_a	16.120566
_cell_length_b	16.120531
_cell_length_c	11.169409
_cell_angle_alpha	92.857236
_cell_angle_beta	87.076307
_cell_angle_gamma	90.174626
loop_
_atom_site_label
_atom_site_type_symbol
_atom_site_fract_x
_atom_site_fract_y
_atom_site_fract_z
Zn1	Zn	-1.254464	0.395511	0.798980
Zn2	Zn	-1.247282	0.534589	0.607888
Zn3	Zn	-1.115395	0.388501	0.587642
Zn4	Zn	-1.108301	0.527465	0.797858
O5	O	-1.181361	0.461516	0.698092
O6	O	-1.369877	0.419875	0.782574
O7	O	-1.229751	0.515258	0.437253
O8	O	-1.139817	0.273069	0.607673
O9	O	-1.364600	0.522056	0.642179
O10	O	-1.241991	0.278219	0.762943
O11	O	-1.132853	0.407928	0.422379
O12	O	-0.998089	0.401019	0.606585
O13	O	-1.127727	0.509913	0.965956
O14	O	-0.992877	0.503116	0.761030
O15	O	-1.235112	0.412967	0.966780
O16	O	-1.222872	0.650006	0.641091
O17	O	-1.120763	0.644772	0.780661
C18	C	-0.965310	0.450534	0.681490
C19	C	-0.872882	0.445856	0.674417
C20	C	-1.170291	0.677561	0.712979
C21	C	-1.165631	0.769990	0.719394
C22	C	-0.703655	0.437296	0.661513
C23	C	-0.659903	0.485809	0.734686
C24	C	-0.565739	0.481046	0.727506
C25	C	-0.797828	0.442058	0.668691
C26	C	-1.157128	0.939219	0.731130
C27	C	-1.205625	0.982975	0.664988
C28	C	-1.200894	1.077140	0.671518
C29	C	-1.161858	0.845045	0.724602
C30	C	-0.398254	0.472545	0.714741
C31	C	-0.490681	0.477251	0.721785
C32	C	-1.181429	0.461427	1.011133
C33	C	-1.181459	0.461389	1.144533
C34	C	-1.192467	1.244628	0.683151
C35	C	-1.197124	1.152199	0.676721
C36	C	-1.181343	0.461548	0.386268
C37	C	-1.181487	0.461360	0.252866
H38	H	-0.670396	0.392189	0.593481
O39	O	-1.259320	0.943172	0.591595
C40	C	-1.313099	0.811664	0.518170
C41	C	-1.252247	0.856639	0.601318
H42	H	-1.307415	0.741695	0.526022
H43	H	-1.297682	0.827955	0.421392
H44	H	-1.379301	0.832057	0.545604
H45	H	-1.186025	0.836270	0.573992
H46	H	-1.267736	0.840347	0.698076
O47	O	-1.103466	0.978986	0.804599
C48	C	-1.087384	1.076495	0.972458
C49	C	-1.148247	1.031516	0.889332
H50	H	-1.123567	1.118962	1.041001
H51	H	-1.041934	1.115084	0.916792
H52	H	-1.051589	1.028683	1.021174
H53	H	-1.184099	1.079270	0.840597
H54	H	-1.193643	0.992912	0.945061
O55	O	-0.699706	0.539609	0.815748
C56	C	-0.831219	0.593409	0.896977
C57	C	-0.786243	0.532459	0.805108
H58	H	-0.901192	0.587636	0.888423
H59	H	-0.810821	0.659619	0.879088
H60	H	-0.814934	0.578051	0.991503
H61	H	-0.802506	0.547741	0.710547
H62	H	-0.806644	0.466267	0.823101
