data_functionalizedCrystal
_audit_creation_method	'MofGen! by Chris Wilmer'
_symmetry_space_group_name_H-M	'P1'
_symmetry_Int_Tables_number	1
_symmetry_cell_setting	triclinic
loop_
_symmetry_equiv_pos_as_xyz
  x,y,z
_cell_length_a	14.044220
_cell_length_b	19.288865
_cell_length_c	17.766277
_cell_angle_alpha	89.988397
_cell_angle_beta	89.995720
_cell_angle_gamma	88.162563
loop_
_atom_site_label
_atom_site_type_symbol
_atom_site_fract_x
_atom_site_fract_y
_atom_site_fract_z
O1	O	-1.256998	-0.167413	0.062531
O2	O	-0.756998	0.332587	0.562531
O3	O	-0.981055	-0.161372	0.062549
O4	O	-0.481055	0.338628	0.562549
O5	O	-1.127000	-0.063774	0.062525
O6	O	-0.627000	0.436226	0.562525
O7	O	-1.111053	-0.265010	0.062556
O8	O	-0.611053	0.234990	0.562556
O9	O	-1.126975	-0.063767	-0.062664
O10	O	-0.626975	0.436233	0.437336
O11	O	-0.981029	-0.161365	-0.062639
O12	O	-0.481029	0.338635	0.437361
O13	O	-1.256973	-0.167406	-0.062658
O14	O	-0.756973	0.332594	0.437342
Cu15	Cu	-1.118999	-0.164385	-0.074079
Cu16	Cu	-0.618999	0.335615	0.425921
Cu17	Cu	-1.119029	-0.164393	0.073971
Cu18	Cu	-0.619029	0.335607	0.573971
O19	O	-1.111028	-0.265003	-0.062633
O20	O	-0.611028	0.234997	0.437367
C21	C	-0.945739	-0.158724	-0.000043
C22	C	-0.445739	0.341276	0.499957
C23	C	-0.840547	-0.150836	-0.000036
C24	C	-0.340547	0.349164	0.499964
C25	C	-1.126474	-0.037862	-0.000072
C26	C	-0.626474	0.462138	0.499928
C27	C	-1.124934	0.039341	-0.000078
C28	C	-0.624934	0.539341	0.499922
C29	C	-1.292289	-0.170054	-0.000064
C30	C	-0.792289	0.329946	0.499936
C31	C	-1.397481	-0.177942	-0.000065
C32	C	-0.897481	0.322058	0.499935
C33	C	-0.647947	-0.136416	-0.000053
C34	C	-0.147947	0.363584	0.499947
C35	C	-0.590075	-0.192359	-0.000048
C36	C	-0.090075	0.307641	0.499952
C37	C	-0.482906	-0.184335	-0.000058
C38	C	0.017094	0.315665	0.499942
C39	C	-0.755126	-0.144438	-0.000044
C40	C	-0.255126	0.355562	0.499956
C41	C	-1.111554	-0.290916	-0.000035
C42	C	-0.611554	0.209084	0.499965
C43	C	-1.113094	-0.368119	-0.000023
C44	C	-0.613094	0.131881	0.499977
N45	N	-1.118984	-0.164379	-0.178209
N46	N	-0.618984	0.335621	0.321791
C47	C	-1.210568	0.078535	-0.000088
C48	C	-0.710568	0.578535	0.499912
C49	C	-1.209121	0.151075	-0.000076
C50	C	-0.709121	0.651075	0.499924
C51	C	-1.122035	0.184418	-0.000069
C52	C	-0.622035	0.684418	0.499931
C53	C	-1.036390	0.145215	-0.000056
C54	C	-0.536390	0.645215	0.499944
C55	C	-1.037839	0.072676	-0.000060
C56	C	-0.537839	0.572676	0.499940
C57	C	-1.053566	0.297107	-0.043916
C58	C	-0.553566	0.797107	0.456084
C59	C	-1.052120	0.369644	-0.043916
C60	C	-0.552120	0.869644	0.456084
C61	C	-1.117560	0.408151	-0.000052
C62	C	-0.617560	0.908151	0.499948
C63	C	-1.184463	0.374113	0.043802
C64	C	-0.684463	0.874113	0.543802
C65	C	-1.185912	0.301574	0.043797
C66	C	-0.685912	0.801574	0.543797
C67	C	-1.120453	0.263074	-0.000064
C68	C	-0.620453	0.763074	0.499936
C69	C	-1.201631	0.526002	-0.000048
C70	C	-0.701631	1.026002	0.499952
C71	C	-1.200181	0.598543	-0.000031
C72	C	-0.700181	1.098543	0.499969
C73	C	-1.027447	0.592681	-0.000019
C74	C	-0.527447	1.092681	0.499981
C75	C	-1.028900	0.520142	-0.000028
C76	C	-0.528900	1.020142	0.499972
C77	C	-1.115995	0.486806	-0.000046
C78	C	-0.615995	0.986806	0.499954
C79	C	-1.183630	-0.121187	-0.217607
C80	C	-0.683630	0.378813	0.282393
C81	C	-1.183635	-0.121184	-0.296409
C82	C	-0.683635	0.378816	0.203591
C83	C	-1.119004	-0.164386	-0.335810
C84	C	-0.619004	0.335614	0.164190
C85	C	-1.054347	-0.207580	-0.296403
C86	C	-0.554347	0.292420	0.203597
C87	C	-1.054337	-0.207577	-0.217602
C88	C	-0.554337	0.292423	0.282398
C89	C	-1.106318	-0.226858	-0.460638
C90	C	-0.606318	0.273142	0.039362
C91	C	-1.106335	-0.226863	-0.539437
C92	C	-0.606335	0.273137	-0.039437
C93	C	-1.119030	-0.164396	-0.578856
C94	C	-0.619030	0.335604	-0.078856
C95	C	-1.131728	-0.101922	-0.539467
C96	C	-0.631728	0.398078	-0.039467
C97	C	-1.131718	-0.101919	-0.460667
C98	C	-0.631718	0.398081	0.039333
C99	C	-1.119008	-0.164394	-0.421256
C100	C	-0.619008	0.335606	0.078744
C101	C	-1.183684	-0.121197	-0.703700
C102	C	-0.683684	0.378803	-0.203700
C103	C	-1.183683	-0.121193	-0.782503
C104	C	-0.683683	0.378807	-0.282503
C105	C	-1.054400	-0.207595	-0.782495
C106	C	-0.554400	0.292405	-0.282495
C107	C	-1.054396	-0.207593	-0.703694
C108	C	-0.554396	0.292407	-0.203694
C109	C	-1.119044	-0.164395	-0.664301
C110	C	-0.619044	0.335605	-0.164301
N111	N	-1.119051	-0.164394	0.178101
N112	N	-0.619051	0.335606	0.678101
H113	H	-0.621016	-0.246280	-0.000036
H114	H	-0.121016	0.253720	0.499964
C115	C	-1.254762	-0.073676	-0.339755
C116	C	-0.754762	0.426324	0.160245
N117	N	-1.308339	-0.037895	-0.372402
N118	N	-0.808339	0.462105	0.127598
H119	H	-0.617008	-0.082499	-0.000066
H120	H	-0.117008	0.417501	0.499934
C121	C	-1.306375	0.041871	-0.000101
C122	C	-0.806375	0.541871	0.499899
N123	N	-1.378538	0.014254	-0.000109
N124	N	-0.878538	0.514254	0.499891
C125	C	-1.303328	0.194197	-0.000091
C126	C	-0.803328	0.694197	0.499909
N127	N	-1.374286	0.226675	-0.000104
N128	N	-0.874286	0.726675	0.499896
H129	H	-1.236322	-0.086020	-0.671625
H130	H	-0.736322	0.413980	-0.171625
H131	H	-1.240385	0.273863	0.079506
H132	H	-0.740385	0.773863	0.579506
H133	H	-1.001694	-0.242749	-0.185524
H134	H	-0.501694	0.257251	0.314476
H135	H	-1.142065	-0.051055	-0.571561
H136	H	-0.642065	0.448945	-0.071561
H137	H	-1.001760	-0.242767	-0.671614
H138	H	-0.501760	0.257233	-0.171614
H139	H	-1.237750	0.405464	0.079520
H140	H	-0.737750	0.905464	0.579520
H141	H	-1.236267	-0.086011	-0.185536
H142	H	-0.736267	0.413989	0.314464
C143	C	-1.297436	0.489331	-0.000056
C144	C	-0.797436	0.989331	0.499944
N145	N	-1.369598	0.461712	-0.000060
N146	N	-0.869598	0.961712	0.499940
C147	C	-1.092352	-0.295582	-0.417284
C148	C	-0.592352	0.204418	0.082716
N149	N	-1.081833	-0.347343	-0.384631
N150	N	-0.581833	0.152657	0.115369
H151	H	-1.236323	-0.086017	-0.814582
H152	H	-0.736323	0.413983	-0.314582
H153	H	-1.269917	0.630454	-0.000034
H154	H	-0.769917	1.130454	0.499966
C155	C	-0.983249	-0.255099	-0.339745
C156	C	-0.483249	0.244901	0.160255
N157	N	-0.929692	-0.290888	-0.372391
N158	N	-0.429692	0.209112	0.127609
C159	C	-0.931651	0.629354	-0.000009
C160	C	-0.431651	1.129354	0.499991
N161	N	-0.859495	0.656980	0.000000
N162	N	-0.359495	1.156980	0.500000
H163	H	-1.001772	-0.242768	-0.814575
H164	H	-0.501772	0.257232	-0.314575
C165	C	-1.092357	-0.295584	-0.582757
C166	C	-0.592357	0.204416	-0.082757
N167	N	-1.081823	-0.347346	-0.615384
N168	N	-0.581823	0.152654	-0.115384
H169	H	-0.959167	0.488229	-0.000024
H170	H	-0.459167	0.988229	0.499976
C171	C	-0.978527	0.407080	-0.092156
C172	C	-0.478527	0.907080	0.407844
N173	N	-0.923093	0.435274	-0.128490
N174	N	-0.423093	0.935274	0.371510
H175	H	-1.000274	0.265760	-0.079639
H176	H	-0.500274	0.765760	0.420361
C177	C	-0.943631	0.029561	-0.000052
C178	C	-0.443631	0.529561	0.499948
N179	N	-0.872671	-0.002914	-0.000047
N180	N	-0.372671	0.497086	0.499953
C181	C	-0.940595	0.181894	-0.000054
C182	C	-0.440595	0.681894	0.499946
N183	N	-0.868439	0.209520	-0.000053
N184	N	-0.368439	0.709520	0.499947
H185	H	-1.142055	-0.051051	-0.428600
H186	H	-0.642055	0.448949	0.071400
