data_functionalizedCrystal
_audit_creation_method	'MofGen! by Chris Wilmer'
_symmetry_space_group_name_H-M	'P1'
_symmetry_Int_Tables_number	1
_symmetry_cell_setting	triclinic
loop_
_symmetry_equiv_pos_as_xyz
  x,y,z
_cell_length_a	16.956995
_cell_length_b	9.130307
_cell_length_c	16.992695
_cell_angle_alpha	90.003719
_cell_angle_beta	83.361347
_cell_angle_gamma	90.004660
loop_
_atom_site_label
_atom_site_type_symbol
_atom_site_fract_x
_atom_site_fract_y
_atom_site_fract_z
O1	O	1.060096	0.121901	0.032362
O2	O	0.829686	0.121882	0.059776
O3	O	0.943967	0.121880	-0.068014
O4	O	0.945814	0.121903	0.160152
O5	O	0.943963	-0.121719	-0.068015
O6	O	0.829682	-0.121717	0.059775
O7	O	1.060092	-0.121698	0.032361
Cu8	Cu	0.944886	-0.143950	0.046068
Cu9	Cu	0.944891	0.144134	0.046069
O10	O	0.945810	-0.121696	0.160151
C11	C	0.800065	0.000080	0.061179
C12	C	0.711811	0.000073	0.065352
N13	N	0.944889	-0.346573	0.046067
C14	C	0.214500	0.000131	0.096570
C15	C	0.297425	0.000129	0.092643
C16	C	0.343815	0.000110	0.018931
C17	C	0.307278	0.000108	-0.050860
C18	C	0.224354	0.000120	-0.046932
C19	C	0.592349	0.000083	-0.000510
C20	C	0.675278	0.000066	-0.004433
C21	C	0.665419	0.000090	0.139071
C22	C	0.582495	0.000093	0.142992
C23	C	0.545964	0.000099	0.073202
N24	N	0.428578	0.000104	0.014915
N25	N	0.461203	0.000115	0.077218
C26	C	1.046131	-0.346565	-0.067063
C27	C	1.096757	-0.423228	-0.123626
C28	C	1.096765	-0.576561	-0.123628
C29	C	1.046139	-0.653235	-0.067061
C30	C	0.995513	-0.576573	-0.010498
C31	C	0.995512	-0.423236	-0.010501
C32	C	0.894268	-0.576580	0.102627
C33	C	0.894263	-0.423247	0.102633
C34	C	0.843643	-0.653255	0.159194
C35	C	0.793019	-0.576592	0.215762
C36	C	0.793014	-0.423249	0.215761
C37	C	0.843637	-0.346584	0.159196
C38	C	1.089712	0.000107	0.030958
C39	C	1.177967	0.000124	0.026785
N40	N	0.944895	0.346757	0.046064
C41	C	0.941589	0.000080	-0.097073
C42	C	0.934498	0.000080	-0.183657
C43	C	1.002913	0.000084	-0.238332
C44	C	0.996246	0.000097	-0.319686
C45	C	0.921163	0.000096	-0.346365
C46	C	0.852743	0.000097	-0.291683
C47	C	0.859411	0.000094	-0.210331
C48	C	0.893527	0.000114	-0.588171
C49	C	0.886865	0.000113	-0.669531
C50	C	1.030368	0.000116	-0.697528
C51	C	1.037029	0.000104	-0.616172
C52	C	0.968609	0.000113	-0.561498
N53	N	0.914346	0.000105	-0.429522
N54	N	0.975427	0.000114	-0.478343
C55	C	0.948189	0.000107	0.189210
C56	C	0.955280	0.000117	0.275795
H57	H	0.176733	0.000135	0.156595
H58	H	1.064053	0.000076	-0.216618
H59	H	1.086071	0.000112	-0.742052
H60	H	0.791609	0.000105	-0.313411
H61	H	0.194611	0.000118	-0.103758
F62	F	0.843647	-0.816446	0.159189
H63	H	0.695172	0.000088	0.195890
H64	H	0.327165	0.000148	0.149470
H65	H	0.825720	0.000088	-0.691248
F66	F	0.724650	0.000048	-0.082892
H67	H	0.837815	0.000121	-0.543665
H68	H	0.562616	0.000083	-0.057338
F69	F	1.116943	0.000143	-0.587786
H70	H	0.843640	-0.221732	0.159193
H71	H	0.803700	0.000091	-0.165814
H72	H	0.544728	0.000113	0.203017
H73	H	1.046136	-0.221713	-0.067062
H74	H	0.345056	0.000102	-0.110878
F75	F	0.739141	-0.658199	0.275954
F76	F	1.150632	-0.341619	-0.183829
F77	F	1.150643	-0.658152	-0.183832
H78	H	1.046142	-0.778088	-0.067071
H79	H	0.751785	-0.360838	0.261819
F80	F	1.069063	0.000099	-0.377872
