data_functionalizedCrystal
_audit_creation_method	'MofGen! by Chris Wilmer'
_symmetry_space_group_name_H-M	'P1'
_symmetry_Int_Tables_number	1
_symmetry_cell_setting	triclinic
loop_
_symmetry_equiv_pos_as_xyz
  x,y,z
_cell_length_a	27.732048
_cell_length_b	23.532355
_cell_length_c	22.010155
_cell_angle_alpha	89.997414
_cell_angle_beta	89.988014
_cell_angle_gamma	97.264924
loop_
_atom_site_label
_atom_site_type_symbol
_atom_site_fract_x
_atom_site_fract_y
_atom_site_fract_z
O1	O	-0.058552	0.755158	-0.050433
O2	O	-0.067069	0.589272	-0.050451
O3	O	0.007579	0.677367	-0.050449
O4	O	-0.133200	0.667063	-0.050434
O5	O	0.007568	0.677351	0.050601
O6	O	-0.067080	0.589256	0.050600
O7	O	-0.058564	0.755142	0.050618
Cu8	Cu	-0.062823	0.672198	0.059835
Cu9	Cu	-0.062810	0.672216	-0.059668
O10	O	-0.133212	0.667047	0.050616
C11	C	-0.066862	0.568048	0.000072
C12	C	-0.066222	0.504831	0.000065
C13	C	-0.062206	0.112817	0.055172
C14	C	-0.061597	0.053419	0.055175
O15	O	-0.061271	0.022693	0.102020
N16	N	-0.061289	0.023720	0.000092
C17	C	-0.061585	0.053422	-0.054996
O18	O	-0.061267	0.022707	-0.101848
C19	C	-0.062191	0.112820	-0.054998
C20	C	-0.062504	0.142515	0.000088
C21	C	-0.062519	0.142512	0.110254
C22	C	-0.063129	0.201906	0.110251
C23	C	-0.063426	0.231604	0.055167
C24	C	-0.063114	0.201909	0.000086
C25	C	-0.062483	0.142522	-0.110085
C26	C	-0.063088	0.201924	-0.110082
C27	C	-0.063401	0.231619	-0.054996
C28	C	-0.064021	0.291001	-0.055001
N29	N	-0.064329	0.320701	0.000082
C30	C	-0.064031	0.291002	0.055166
C31	C	-0.060313	-0.071316	-0.054988
C32	C	-0.059711	-0.130713	-0.054987
C33	C	-0.059722	-0.130713	0.055184
C34	C	-0.060328	-0.071315	0.055182
C35	C	-0.060621	-0.041617	0.000094
C36	C	-0.065312	0.415733	0.055156
C37	C	-0.065924	0.475132	0.055149
C38	C	-0.065911	0.475127	-0.055022
C39	C	-0.065301	0.415733	-0.055015
C40	C	-0.065001	0.386038	0.000079
O41	O	-0.064345	0.321765	-0.101822
O42	O	-0.064343	0.321726	0.102009
C43	C	-0.151213	0.667271	0.000093
C44	C	-0.204869	0.667923	0.000099
C45	C	-0.543618	0.619965	0.000065
C46	C	-0.745281	0.622381	0.000058
O47	O	-0.776476	0.578527	0.000026
N48	N	-0.764477	0.674618	0.000064
C49	C	-0.733253	0.726254	0.000069
O50	O	-0.754208	0.770740	0.000068
C51	C	-0.531591	0.723837	0.000071
C52	C	-0.512398	0.671597	0.000071
C53	C	-0.524424	0.567729	0.000064
C54	C	-0.474012	0.567125	0.000069
C55	C	-0.442792	0.618757	0.000075
C56	C	-0.461986	0.670993	0.000076
C57	C	-0.500369	0.775472	0.000071
C58	C	-0.449951	0.774863	0.000070
C59	C	-0.430758	0.722623	0.000070
C60	C	-0.380353	0.722022	0.000087
N61	N	-0.361158	0.669785	0.000080
C62	C	-0.392377	0.618153	0.000074
C63	C	-0.839129	0.727519	0.000068
C64	C	-0.889544	0.728124	0.000069
C65	C	-0.901568	0.624251	0.000057
C66	C	-0.851152	0.623647	0.000061
C67	C	-0.819933	0.675283	0.000062
C68	C	-0.286506	0.616889	0.000086
C69	C	-0.236088	0.616290	0.000093
C70	C	-0.224069	0.720163	0.000102
C71	C	-0.274482	0.720762	0.000097
C72	C	-0.305700	0.669121	0.000087
O73	O	-0.349130	0.765852	0.000111
O74	O	-0.371413	0.573673	0.000062
C75	C	-0.594031	0.620568	0.000060
C76	C	-0.613224	0.672804	0.000061
C77	C	-0.582005	0.724436	0.000067
C78	C	-0.663639	0.673408	0.000061
C79	C	-0.694859	0.621776	0.000055
C80	C	-0.675663	0.569539	0.000048
C81	C	-0.625250	0.568936	0.000054
C82	C	-0.601200	0.776673	0.000073
C83	C	-0.651614	0.777272	0.000069
C84	C	-0.682833	0.725640	0.000063
C85	C	0.025580	0.677143	0.000073
C86	C	0.079236	0.676491	0.000063
C87	C	-0.058771	0.776366	0.000094
C88	C	-0.059411	0.839583	0.000097
N89	N	-0.062832	0.672188	0.143888
N90	N	-0.062797	0.672230	-0.143721
C91	C	-0.029760	0.711227	0.563668
C92	C	-0.029757	0.711230	0.627276
O93	O	-0.001645	0.744399	0.660168
N94	N	-0.062800	0.672216	0.659095
C95	C	-0.095844	0.633194	0.627304
O96	O	-0.123949	0.600009	0.660209
C97	C	-0.095845	0.633189	0.563697
C98	C	-0.062804	0.672209	0.531881
C99	C	0.003279	0.750243	0.531852
C100	C	0.003275	0.750241	0.468249
C101	C	-0.029768	0.711223	0.436462
C102	C	-0.062808	0.672206	0.468278
C103	C	-0.128887	0.594164	0.531907
C104	C	-0.128885	0.594162	0.468296
C105	C	-0.095843	0.633182	0.436480
C106	C	-0.095855	0.633186	0.372888
N107	N	-0.062812	0.672199	0.341068
C108	C	-0.029769	0.711218	0.372855
C109	C	-0.095840	0.633206	0.760881
C110	C	-0.095842	0.633213	0.824487
C111	C	-0.029754	0.711249	0.824454
C112	C	-0.029754	0.711244	0.760848
C113	C	-0.062797	0.672220	0.729062
C114	C	-0.029780	0.711211	0.239284
C115	C	-0.029789	0.711207	0.175675
C116	C	-0.095875	0.633170	0.175713
C117	C	-0.095869	0.633175	0.239316
C118	C	-0.062817	0.672198	0.271100
O119	O	-0.123952	0.600032	0.339955
O120	O	-0.001665	0.744392	0.339942
H121	H	-0.059464	-0.154888	-0.099844
H122	H	-0.002848	0.743019	0.850347
H123	H	-0.002882	0.742984	0.149772
C124	C	-0.165238	0.551246	0.566891
H125	H	-0.184912	0.528009	0.538841
H126	H	-0.185270	0.571554	0.591705
H127	H	-0.147957	0.527688	0.591702
H128	H	-0.155792	0.562382	0.442419
C129	C	-0.910654	0.785586	0.000080
H130	H	-0.945151	0.778557	0.000084
H131	H	-0.899912	0.806833	-0.035156
H132	H	-0.899925	0.806817	0.035326
H133	H	-0.575786	0.818719	0.000078
C134	C	-0.063413	0.234591	-0.170679
H135	H	-0.063817	0.274220	-0.162795
H136	H	-0.091501	0.220260	-0.193311
H137	H	-0.035113	0.229452	-0.193310
H138	H	-0.311918	0.574838	0.000077
C139	C	-0.060646	-0.038655	-0.115589
H140	H	-0.060380	-0.064855	-0.148390
H141	H	-0.032691	-0.010888	-0.117890
H142	H	-0.089079	-0.020082	-0.117876
C143	C	0.006573	0.754137	0.274237
H144	H	0.026244	0.777374	0.246172
H145	H	0.026609	0.733836	0.299046
H146	H	-0.010711	0.777695	0.299052
H147	H	-0.059479	-0.154904	0.100036
H148	H	-0.122753	0.601446	0.850387
C149	C	-0.064973	0.383064	-0.115607
H150	H	-0.065239	0.409261	-0.148413
H151	H	-0.092928	0.355299	-0.117886
H152	H	-0.036540	0.364489	-0.117908
H153	H	-0.458390	0.524586	0.000063
H154	H	-0.122751	0.601429	0.735004
H155	H	-0.424534	0.816913	0.000068
H156	H	-0.002849	0.743017	0.734947
C157	C	-0.604144	0.511471	0.000046
H158	H	-0.629963	0.480812	0.000036
H159	H	-0.584734	0.509064	0.035284
H160	H	-0.584722	0.509081	-0.035198
C161	C	-0.521470	0.832937	0.000063
H162	H	-0.495650	0.863596	0.000057
H163	H	-0.540896	0.835339	0.035298
H164	H	-0.540876	0.835335	-0.035184
C165	C	-0.935916	0.567456	0.000042
H166	H	-0.968689	0.575303	0.000036
H167	H	-0.930137	0.546003	0.035273
H168	H	-0.930117	0.546031	-0.035208
C169	C	-0.295595	0.778224	0.000105
H170	H	-0.269780	0.808888	0.000108
H171	H	-0.315023	0.780614	0.035340
H172	H	-0.315001	0.780625	-0.035142
C173	C	-0.132195	0.590233	0.274315
H174	H	-0.151867	0.566987	0.246272
H175	H	-0.152233	0.610514	0.299152
H176	H	-0.114884	0.566688	0.299105
C177	C	-0.062128	0.109872	-0.170681
H178	H	-0.062384	0.136076	-0.203482
H179	H	-0.090079	0.082102	-0.172984
H180	H	-0.033692	0.091304	-0.172967
C181	C	-0.710010	0.512746	0.000038
H182	H	-0.742783	0.520593	0.000030
H183	H	-0.704232	0.491296	0.035272
H184	H	-0.704212	0.491316	-0.035209
C185	C	-0.066233	0.507804	-0.115609
H186	H	-0.066635	0.547431	-0.107716
H187	H	-0.094320	0.493480	-0.138248
H188	H	-0.037933	0.502667	-0.138239
H189	H	0.030181	0.782013	0.442347
H190	H	-0.220465	0.573748	0.000096
C191	C	-0.672720	0.834740	0.000068
H192	H	-0.646902	0.865401	0.000066
H193	H	-0.692147	0.837137	0.035302
H194	H	-0.692125	0.837138	-0.035179
C195	C	-0.132216	0.590249	0.140739
H196	H	-0.127479	0.595834	0.098302
H197	H	-0.164453	0.596139	0.151167
H198	H	-0.127127	0.552287	0.151165
H199	H	0.030189	0.782017	0.557727
C200	C	-0.804794	0.784322	0.000078
H201	H	-0.823451	0.815515	0.000088
H202	H	-0.784868	0.786260	-0.035159
H203	H	-0.784886	0.786240	0.035322
C204	C	-0.189724	0.776955	0.000105
H205	H	-0.208372	0.808156	0.000109
H206	H	-0.169800	0.778877	-0.035133
H207	H	-0.169814	0.778874	0.035349
C208	C	-0.066267	0.507797	0.115744
H209	H	-0.066677	0.547425	0.107857
H210	H	-0.037978	0.502657	0.138375
H211	H	-0.094366	0.493463	0.138378
C212	C	-0.063470	0.234564	0.170846
H213	H	-0.063202	0.208363	0.203648
H214	H	-0.091900	0.253140	0.173143
H215	H	-0.035512	0.262329	0.173137
C216	C	-0.064987	0.383076	0.115758
H217	H	-0.065265	0.409275	0.148558
H218	H	-0.036559	0.364499	0.118055
H219	H	-0.092947	0.355312	0.118051
C220	C	-0.062326	0.109828	0.170850
H221	H	-0.061959	0.070192	0.162972
H222	H	-0.090662	0.115026	0.193374
H223	H	-0.034273	0.124095	0.193586
C224	C	-0.830044	0.566184	0.000051
H225	H	-0.855862	0.535523	0.000044
H226	H	-0.810632	0.563778	0.035287
H227	H	-0.810625	0.563794	-0.035195
C228	C	-0.060659	-0.038654	0.115776
H229	H	-0.060391	-0.064853	0.148579
H230	H	-0.089084	-0.020070	0.118078
H231	H	-0.032696	-0.010895	0.118058
H232	H	-0.549839	0.525681	0.000057
