data_functionalizedCrystal
_audit_creation_method	'MofGen! by Chris Wilmer'
_symmetry_space_group_name_H-M	'P1'
_symmetry_Int_Tables_number	1
_symmetry_cell_setting	triclinic
loop_
_symmetry_equiv_pos_as_xyz
  x,y,z
_cell_length_a	8.559649
_cell_length_b	12.837942
_cell_length_c	7.681481
_cell_angle_alpha	83.650030
_cell_angle_beta	94.913240
_cell_angle_gamma	82.303802
loop_
_atom_site_label
_atom_site_type_symbol
_atom_site_fract_x
_atom_site_fract_y
_atom_site_fract_z
O1	O	2.101390	-0.023863	-0.146400
O2	O	1.644239	0.029032	-0.146410
O3	O	1.862678	-0.147512	-0.146394
O4	O	1.882950	0.152681	-0.146416
O5	O	1.889558	-0.169285	0.146465
O6	O	1.671118	0.007259	0.146450
O7	O	2.128269	-0.045636	0.146459
Zn8	Zn	1.903962	-0.022646	0.192952
Zn9	Zn	1.868546	0.006042	-0.192903
O10	O	1.909830	0.130908	0.146444
C11	C	1.598759	0.022154	0.000019
C12	C	1.423195	0.034086	0.000015
C13	C	1.869269	-0.196474	0.000034
C14	C	1.848843	-0.309925	0.000031
C15	C	2.094400	-0.570430	-0.000001
C16	C	2.075215	-0.677028	-0.000004
C17	C	1.791288	-0.629721	0.000008
C18	C	1.810473	-0.523122	0.000012
C19	C	1.962034	-0.493482	0.000010
C20	C	1.981219	-0.386882	0.000026
C21	C	1.697292	-0.339576	0.000025
C22	C	1.678107	-0.446174	0.000022
C23	C	2.173749	-0.038758	0.000027
C24	C	2.349311	-0.050689	0.000019
C25	C	1.903238	0.179870	0.000011
C26	C	1.923664	0.293322	0.000003
N27	N	1.928143	-0.042226	0.456288
N28	N	1.844376	0.025613	-0.456239
H29	H	1.420367	-0.132396	0.000016
C30	C	1.444020	-0.449867	0.150576
C31	C	1.511513	-0.478756	0.000023
H32	H	1.341166	-0.469974	0.150570
H33	H	1.508579	-0.484661	0.252678
H34	H	1.436519	-0.375367	0.150566
H35	H	1.519025	-0.553257	0.000040
H36	H	1.446938	-0.443965	-0.102104
H37	H	1.352129	0.115800	0.000000
H38	H	2.104628	-0.362752	0.000031
H39	H	2.217808	-0.546298	0.000015
H40	H	2.183001	-0.739677	-0.000018
H41	H	1.758867	0.094856	0.468558
C42	C	2.117475	-0.195545	0.438138
C43	C	2.043594	-0.135708	0.557805
H44	H	2.188752	-0.253252	0.500813
H45	H	2.039515	-0.221802	0.366250
H46	H	2.174285	-0.152163	0.366212
H47	H	1.986773	-0.179089	0.629723
H48	H	2.121565	-0.109451	0.629723
C49	C	1.635826	-0.772131	0.000003
C50	C	1.624702	-0.662316	0.000011
H51	H	1.532982	-0.792252	0.000017
H52	H	1.681624	-0.791708	-0.102124
H53	H	1.700398	-0.806907	0.102130
H54	H	1.560139	-0.627540	-0.102123
H55	H	1.578882	-0.642729	0.102148
H56	H	1.589511	-0.276913	0.000048
