data_functionalizedCrystal
_audit_creation_method	'MofGen! by Chris Wilmer'
_symmetry_space_group_name_H-M	'P1'
_symmetry_Int_Tables_number	1
_symmetry_cell_setting	triclinic
loop_
_symmetry_equiv_pos_as_xyz
  x,y,z
_cell_length_a	6.394989
_cell_length_b	10.654550
_cell_length_c	9.730223
_cell_angle_alpha	90.003749
_cell_angle_beta	89.998443
_cell_angle_gamma	85.491307
loop_
_atom_site_label
_atom_site_type_symbol
_atom_site_fract_x
_atom_site_fract_y
_atom_site_fract_z
O1	O	-0.293432	-1.670942	-0.114394
O2	O	-0.321390	-1.305759	-0.114371
O3	O	-0.003422	-1.493534	-0.114383
O4	O	-0.611400	-1.483167	-0.114381
O5	O	-0.003430	-1.493532	0.114197
O6	O	-0.321398	-1.305757	0.114209
O7	O	-0.293440	-1.670940	0.114186
Zn8	Zn	-0.307420	-1.488348	0.150490
Zn9	Zn	-0.307410	-1.488351	-0.150674
O10	O	-0.611408	-1.483165	0.114199
C11	C	-0.319341	-1.258939	-0.000078
C12	C	-0.313199	-1.119430	-0.000069
C13	C	-0.295489	-1.717760	-0.000109
C14	C	-0.301631	-1.857269	-0.000127
N15	N	-0.307426	-1.488355	0.356026
C16	C	0.074425	-1.491483	-0.000098
C17	C	0.310751	-1.485219	-0.000099
N18	N	-0.307387	-1.488353	-0.356210
C19	C	-0.500414	-1.041927	-0.000089
C20	C	-0.494630	-0.910845	-0.000112
C21	C	-0.114402	-0.934782	-0.000103
C22	C	-0.120188	-1.065861	-0.000070
C23	C	-0.719936	-1.028107	-0.000100
C24	C	-0.714152	-0.897025	-0.000124
C25	C	-0.166678	-1.571524	0.427947
C26	C	-0.166653	-1.571521	0.571830
C27	C	-0.448142	-1.405175	0.571859
C28	C	-0.448156	-1.405174	0.427979
C29	C	-0.004169	-1.667567	0.427931
C30	C	-0.004143	-1.667563	0.571814
H31	H	0.032261	-1.128960	-0.000034
Br32	Br	-0.852002	-0.828917	-0.159567
Br33	Br	-0.824729	-0.822059	0.164349
H34	H	-0.562719	-1.337450	0.630458
Br35	Br	-0.639138	-1.292278	0.330369
Br36	Br	0.263471	-1.628996	0.362826
H37	H	-0.055053	-1.759289	0.383299
H38	H	-0.039939	-1.764454	0.610859
Br39	Br	0.248760	-1.614012	0.646194
Br40	Br	-0.863050	-1.078520	0.159337
H41	H	-0.789831	-1.064504	-0.098787
H42	H	0.042742	-0.891149	-0.000125
