data_functionalizedCrystal
_audit_creation_method	'MofGen! by Chris Wilmer'
_symmetry_space_group_name_H-M	'P1'
_symmetry_Int_Tables_number	1
_symmetry_cell_setting	triclinic
loop_
_symmetry_equiv_pos_as_xyz
  x,y,z
_cell_length_a	23.096457
_cell_length_b	23.096457
_cell_length_c	19.851628
_cell_angle_alpha	90.000314
_cell_angle_beta	60.006501
_cell_angle_gamma	59.999659
loop_
_atom_site_label
_atom_site_type_symbol
_atom_site_fract_x
_atom_site_fract_y
_atom_site_fract_z
Zr1	Zr	0.633718	0.557789	-0.088378
O2	O	0.754493	0.465345	-0.195924
O3	O	0.512935	0.586126	-0.055413
O4	O	0.633707	0.586132	-0.195933
O5	O	0.633733	0.465336	0.055444
O6	O	0.633706	0.681414	-0.195935
O7	O	0.633722	0.465339	-0.055405
O8	O	0.417668	0.681402	0.055428
O9	O	0.849771	0.465348	-0.195919
O10	O	0.562617	0.669321	-0.041351
O11	O	0.562626	0.598211	0.041376
O12	O	0.704819	0.598219	-0.124068
O13	O	0.704828	0.527110	-0.041341
Zr14	Zr	0.633735	0.709747	0.088409
Zr15	Zr	0.633717	0.709752	-0.088382
Zr16	Zr	0.633736	0.557784	0.088413
Zr17	Zr	0.785675	0.557793	-0.088370
Zr18	Zr	0.481778	0.709743	0.088402
O19	O	0.754518	0.681410	0.055445
O20	O	0.754492	0.681417	-0.195929
O21	O	0.754519	0.465339	0.055450
O22	O	0.512960	0.802191	0.195955
O23	O	0.512934	0.802197	-0.055419
O24	O	0.512961	0.586119	0.195961
O25	O	0.633720	0.802200	-0.055413
O26	O	0.633746	0.681404	0.195964
O27	O	0.633746	0.586122	0.195967
O28	O	0.633731	0.802197	0.055436
O29	O	0.849771	0.586138	-0.195922
O30	O	0.417682	0.681398	0.195954
O31	O	0.417682	0.802188	0.195951
O32	O	0.417667	0.802192	0.055426
O33	O	0.849785	0.465344	-0.055394
O34	O	0.849785	0.586134	-0.055397
O35	O	0.562634	0.669317	0.124099
O36	O	0.562625	0.740426	0.041372
O37	O	0.704827	0.669325	-0.041344
O38	O	0.704836	0.598215	0.041383
C39	C	0.443651	0.633763	0.000006
C40	C	0.379141	0.633762	0.000003
C41	C	0.633727	0.443686	0.000020
C42	C	0.633728	0.379174	0.000022
C43	C	0.348836	0.670875	-0.043182
C44	C	0.288213	0.670882	-0.043176
C45	C	0.257910	0.633762	0.000006
C46	C	0.288220	0.596646	0.043201
C47	C	0.348835	0.596646	0.043200
N48	N	0.195514	0.573357	-0.005981
N49	N	0.137934	0.573358	-0.005984
C50	C	0.075278	0.633761	0.000013
N51	N	0.072387	0.694161	0.005998
N52	N	0.129975	0.694158	0.005997
C53	C	0.192183	0.633758	0.000012
C54	C	-0.020762	0.670885	-0.043167
C55	C	-0.081389	0.670894	-0.043154
C56	C	-0.081375	0.596652	0.043216
C57	C	-0.020755	0.596650	0.043209
C58	C	0.009551	0.633765	0.000013
C59	C	0.633741	-0.081343	0.061072
C60	C	0.633736	-0.020724	0.061078
C61	C	0.633730	0.009590	0.000010
C62	C	0.633710	-0.020710	-0.061057
C63	C	0.633707	-0.081323	-0.061057
N64	N	0.680078	0.081586	-0.072407
N65	N	0.680082	0.139166	-0.072403
C66	C	0.633736	0.192216	0.000008
N67	N	0.587396	0.185506	0.072421
N68	N	0.587396	0.127920	0.072417
C69	C	0.633733	0.075315	0.000004
C70	C	0.633745	0.288241	0.061083
C71	C	0.633734	0.348863	0.061090
C72	C	0.633717	0.348872	-0.061052
C73	C	0.633719	0.288255	-0.061053
C74	C	0.633737	0.257941	0.000014
C75	C	0.823802	0.633773	0.000025
C76	C	0.888312	0.633774	0.000028
C77	C	0.633704	0.633774	-0.221123
C78	C	0.633697	0.633776	-0.296175
C79	C	0.633726	0.823850	0.000011
C80	C	0.633725	0.888363	0.000010
C81	C	0.556180	0.672541	-0.432441
C82	C	0.594938	0.605682	-0.499890
C83	C	0.633718	0.633769	-0.433607
C84	C	0.594955	0.700615	-0.499892
C85	C	0.633732	0.633768	-0.566356
C86	C	0.672475	0.566870	-0.500068
C87	C	0.672482	0.661851	-0.500059
C88	C	0.711296	0.594952	-0.567521
C89	C	0.633707	0.633770	-0.357132
C90	C	0.633749	0.633759	-0.642832
C91	C	0.633749	0.633762	0.221154
C92	C	0.633756	0.633760	0.296207
C93	C	0.443650	0.823846	0.000002
C94	C	0.379140	0.888356	-0.000003
C95	C	0.443673	0.633757	0.221145
C96	C	0.379171	0.633754	0.296194
C97	C	0.443672	0.823840	0.221140
C98	C	0.379170	0.888348	0.296188
C99	C	0.823780	0.443696	-0.221109
C100	C	0.888283	0.379188	-0.296157
C101	C	0.823803	0.443691	0.000030
C102	C	0.888313	0.379180	0.000034
C103	C	0.823780	0.633779	-0.221113
C104	C	0.888282	0.633782	-0.296163
C105	C	0.348841	0.881535	-0.043193
C106	C	0.288235	0.942143	-0.043214
C107	C	0.257925	1.009573	-0.000039
C108	C	0.288230	1.016393	0.043152
C109	C	0.348839	0.955785	0.043168
C110	C	0.348884	0.670868	0.374626
C111	C	0.288286	0.670862	0.445150
C112	C	0.257971	0.633745	0.437239
C113	C	0.288264	0.596626	0.358799
C114	C	0.348865	0.596629	0.288277
C115	C	0.348874	0.955767	0.288249
C116	C	0.288276	1.016386	0.358757
C117	C	0.257970	1.009584	0.437204
C118	C	0.288271	0.942158	0.445142
C119	C	0.348873	0.881541	0.374634
C120	C	0.918586	0.311769	-0.288217
C121	C	0.979203	0.251150	-0.358726
C122	C	1.009513	0.257952	-0.437173
C123	C	0.979207	0.325378	-0.445111
C124	C	0.918595	0.385995	-0.374603
C125	C	0.918618	0.386001	0.043218
C126	C	0.979241	0.325393	0.043219
C127	C	1.009553	0.257963	0.000042
C128	C	0.979245	0.251143	-0.043147
C129	C	0.918628	0.311751	-0.043152
C130	C	0.918577	0.670906	-0.288226
C131	C	0.979176	0.670924	-0.358736
C132	C	1.009482	0.633812	-0.437182
C133	C	0.979181	0.596687	-0.445117
C134	C	0.918579	0.596674	-0.374608
H135	H	0.373507	0.701099	-0.078353
H136	H	0.263573	0.566407	0.352370
C137	C	0.716712	0.693962	-0.499090
H138	H	0.762531	0.659650	-0.499413
H139	H	0.680103	0.734233	-0.450790
H140	H	0.734797	0.707810	-0.546480
H141	H	0.263610	1.071281	0.352279
C142	C	0.191311	1.076264	0.514758
H143	H	0.177601	1.062563	0.562619
H144	H	0.144022	1.103687	0.514754
H145	H	0.211196	1.103677	0.514749
H146	H	0.263629	0.701092	0.509012
H147	H	0.208626	0.633749	0.494670
H148	H	0.373517	0.566408	0.224417
H149	H	1.003934	0.196234	-0.078300
H150	H	0.373519	0.826636	-0.078361
H151	H	0.373540	0.961319	0.224379
H152	H	1.003893	0.330908	-0.508991
C153	C	0.550675	0.776985	-0.500777
H154	H	0.495592	0.804466	-0.453367
H155	H	0.551426	0.776418	-0.549060
H156	H	0.577684	0.797194	-0.500427
C157	C	-0.114701	0.555820	0.090715
H158	H	-0.155139	0.561132	0.084528
H159	H	-0.138337	0.574146	0.147524
H160	H	-0.071185	0.506985	0.069386
H161	H	0.263568	0.936577	-0.078386
C162	C	0.254922	0.934685	0.531436
H163	H	0.214484	0.980446	0.572284
H164	H	0.298424	0.909501	0.537643
H165	H	0.231262	0.909508	0.537624
H166	H	0.208573	1.058918	-0.000058
H167	H	1.003866	0.566472	-0.508997
C168	C	0.885288	0.304239	-0.090645
H169	H	0.912020	0.255399	-0.116348
H170	H	0.895209	0.326340	-0.131513
H171	H	0.828065	0.326332	-0.053366
H172	H	1.003868	0.196255	-0.352246
H173	H	0.373560	0.701094	0.381083
C174	C	1.076173	0.191270	-0.514724
H175	H	1.089868	0.150145	-0.498753
H176	H	1.123470	0.191255	-0.546634
H177	H	1.056294	0.191263	-0.546621
C178	C	0.885258	0.460152	-0.383346
H179	H	0.911988	0.455514	-0.440166
H180	H	0.895184	0.485356	-0.357635
H181	H	0.828034	0.485331	-0.357646
C182	C	0.382182	0.807384	0.383378
H183	H	0.355443	0.812022	0.440198
H184	H	0.439406	0.782184	0.357671
H185	H	0.372229	0.782202	0.357673
C186	C	0.885271	0.555823	-0.383344
H187	H	0.844837	0.561127	-0.330121
H188	H	0.928797	0.506996	-0.412648
H189	H	0.861620	0.574152	-0.412648
C190	C	0.885257	0.304277	-0.201933
H191	H	0.844813	0.350030	-0.161070
H192	H	0.928773	0.279096	-0.195745
H193	H	0.861614	0.279086	-0.195750
H194	H	0.893943	0.440900	0.078383
H195	H	0.373511	0.566422	0.078367
C196	C	0.382164	0.963293	0.090680
H197	H	0.422607	0.917544	0.084506
H198	H	0.338650	0.988483	0.147485
H199	H	0.405809	0.988480	0.069345
H200	H	0.263543	1.071302	0.078303
H201	H	1.058911	0.208618	0.000053
C202	C	0.254875	0.711704	-0.090687
H203	H	0.281609	0.733804	-0.116417
H204	H	0.197653	0.746827	-0.053422
H205	H	0.264813	0.679656	-0.131548
C206	C	1.012560	0.332907	0.090737
H207	H	0.985812	0.381747	0.116461
H208	H	1.069780	0.310818	0.053477
H209	H	1.002627	0.310802	0.131604
H210	H	0.776911	0.562117	-0.625258
C211	C	0.885246	0.711734	-0.201943
H212	H	0.844817	0.706410	-0.161078
H213	H	0.861597	0.760565	-0.195761
H214	H	0.928764	0.693404	-0.195755
H215	H	1.058828	0.633828	-0.494588
C216	C	0.254892	0.555812	0.090696
H217	H	0.214457	0.561122	0.084504
H218	H	0.231252	0.574139	0.147505
H219	H	0.298409	0.506978	0.069368
C220	C	0.012564	0.711723	-0.090665
H221	H	-0.014180	0.733838	-0.116372
H222	H	0.069785	0.679691	-0.131529
H223	H	0.002629	0.746846	-0.053385
H224	H	0.562168	0.581925	-0.500567
H225	H	1.003841	0.701154	-0.352259
C226	C	0.716716	0.490465	-0.499265
H227	H	0.716417	0.490934	-0.451237
H228	H	0.771646	0.462867	-0.546935
H229	H	0.689362	0.470463	-0.499112
C230	C	0.633745	-0.114677	0.128252
H231	H	0.633744	-0.087945	0.164625
H232	H	0.681227	-0.162069	0.103174
H233	H	0.586248	-0.114569	0.158417
C234	C	0.012592	0.555815	0.090703
H235	H	-0.014131	0.533702	0.116416
H236	H	0.002667	0.587848	0.131563
H237	H	0.069817	0.520688	0.053424
C238	C	-0.114724	0.711721	-0.090662
H239	H	-0.087985	0.733818	-0.116393
H240	H	-0.171944	0.746847	-0.053396
H241	H	-0.104792	0.679677	-0.131523
H242	H	0.633748	0.003946	0.110804
H243	H	0.633704	0.003976	-0.110779
H244	H	0.633708	0.373556	-0.110772
C245	C	0.633698	-0.114653	-0.128233
H246	H	0.633698	-0.087921	-0.164606
H247	H	0.586213	-0.114558	-0.103151
H248	H	0.681192	-0.162043	-0.158399
H249	H	0.633756	0.263560	0.110809
H250	H	0.633711	0.263585	-0.110778
C251	C	0.633751	0.382190	0.128260
H252	H	0.633741	0.422636	0.119521
H253	H	0.681244	0.348510	0.125723
H254	H	0.586265	0.395998	0.180980
C255	C	0.467619	0.716759	-0.354312
H256	H	0.440197	0.696692	-0.353748
H257	H	0.439803	0.764054	-0.354170
H258	H	0.468227	0.716796	-0.306815
