data_functionalizedCrystal
_audit_creation_method	'MofGen! by Chris Wilmer'
_symmetry_space_group_name_H-M	'P1'
_symmetry_Int_Tables_number	1
_symmetry_cell_setting	triclinic
loop_
_symmetry_equiv_pos_as_xyz
  x,y,z
_cell_length_a	14.519709
_cell_length_b	17.699077
_cell_length_c	16.176319
_cell_angle_alpha	89.993140
_cell_angle_beta	90.000602
_cell_angle_gamma	96.519640
loop_
_atom_site_label
_atom_site_type_symbol
_atom_site_fract_x
_atom_site_fract_y
_atom_site_fract_z
O1	O	-0.116598	1.004415	-0.068724
O2	O	0.383402	1.504415	0.431276
O3	O	-0.131777	0.784080	-0.068727
O4	O	0.368223	1.284080	0.431273
O5	O	0.010076	0.900090	-0.068733
O6	O	0.510076	1.400090	0.431267
O7	O	-0.258451	0.888406	-0.068718
O8	O	0.241549	1.388406	0.431282
O9	O	0.010085	0.900074	0.068760
O10	O	0.510085	1.400074	0.568760
O11	O	-0.131768	0.784064	0.068766
O12	O	0.368232	1.284064	0.568766
O13	O	-0.116589	1.004399	0.068769
O14	O	0.383411	1.504399	0.568769
Cu15	Cu	-0.124178	0.894230	0.081322
Cu16	Cu	0.375822	1.394230	0.581322
Cu17	Cu	-0.124188	0.894249	-0.081280
Cu18	Cu	0.375812	1.394249	0.418720
O19	O	-0.258442	0.888390	0.068775
O20	O	0.241558	1.388390	0.568775
C21	C	-0.131230	0.755873	0.000019
C22	C	0.368770	1.255873	0.500019
C23	C	-0.129601	0.671850	0.000018
C24	C	0.370399	1.171850	0.500018
C25	C	-0.128828	0.632372	0.074966
C26	C	0.371172	1.132372	0.574966
C27	C	-0.127283	0.553425	0.074967
C28	C	0.372717	1.053425	0.574967
C29	C	-0.126517	0.513957	0.000018
C30	C	0.373483	1.013957	0.500018
C31	C	-0.127287	0.553441	-0.074936
C32	C	0.372713	1.053441	0.425064
C33	C	-0.128825	0.632387	-0.074936
C34	C	0.371175	1.132387	0.425064
C35	C	-0.121081	0.235060	-0.074938
C36	C	0.378919	0.735060	0.425062
C37	C	-0.119545	0.156108	-0.074932
C38	C	0.380455	0.656108	0.425068
C39	C	-0.119538	0.156098	0.074965
C40	C	0.380462	0.656098	0.574965
C41	C	-0.121077	0.235044	0.074965
C42	C	0.378923	0.735044	0.574965
C43	C	-0.121842	0.274522	0.000011
C44	C	0.378158	0.774522	0.500011
C45	C	-0.123515	0.360125	0.000011
C46	C	0.376485	0.860125	0.500011
C47	C	-0.124850	0.428354	0.000017
C48	C	0.375150	0.928354	0.500017
C49	C	-0.292804	0.888942	0.000030
C50	C	0.207196	1.388942	0.500030
C51	C	-0.395178	0.890574	0.000036
C52	C	0.104822	1.390574	0.500036
C53	C	-0.770048	0.896581	0.000003
C54	C	-0.270048	1.396581	0.500003
C55	C	-0.665748	0.894913	0.000013
C56	C	-0.165748	1.394913	0.500013
C57	C	-0.582617	0.893578	0.000020
C58	C	-0.082617	1.393578	0.500020
C59	C	-0.478309	0.891909	0.000028
C60	C	0.021691	1.391909	0.500028
C61	C	0.044438	0.899537	0.000010
C62	C	0.544438	1.399537	0.500010
C63	C	0.146812	0.897905	-0.000001
C64	C	0.646812	1.397905	0.499999
C65	C	-0.117137	1.032606	0.000021
C66	C	0.382863	1.532606	0.500021
C67	C	-0.118766	1.116629	0.000017
C68	C	0.381234	1.616629	0.500017
N69	N	-0.124170	0.894222	0.195687
N70	N	0.375830	1.394222	0.695687
N71	N	-0.124189	0.894263	-0.195645
N72	N	0.375811	1.394263	0.304355
C73	C	-0.061383	0.945607	0.238949
C74	C	0.438617	1.445607	0.738949
C75	C	-0.061382	0.945611	0.325496
C76	C	0.438618	1.445611	0.825496
C77	C	-0.124173	0.894233	0.368780
C78	C	0.375827	1.394233	0.868780
C79	C	-0.186963	0.842843	0.325512
C80	C	0.313037	1.342843	0.825512
C81	C	-0.186959	0.842836	0.238967
C82	C	0.313041	1.342836	0.738967
C83	C	-0.186980	0.842869	0.674540
C84	C	0.313020	1.342869	1.174540
C85	C	-0.186981	0.842881	0.761092
C86	C	0.313019	1.342881	1.261092
C87	C	-0.061403	0.945644	0.761069
C88	C	0.438597	1.445644	1.261069
C89	C	-0.061399	0.945637	0.674524
C90	C	0.438601	1.445637	1.174524
C91	C	-0.124185	0.894244	0.631264
C92	C	0.375815	1.394244	1.131264
C93	C	-0.124184	0.894240	0.537420
C94	C	0.375816	1.394240	1.037420
C95	C	-0.124179	0.894241	0.462622
C96	C	0.375821	1.394241	0.962622
H97	H	-0.121700	0.267194	-0.135970
H98	H	0.378300	0.767194	0.364030
N99	N	0.002773	0.998088	0.194754
N100	N	0.502773	1.498088	0.694754
N101	N	-0.026367	1.045123	0.146447
N102	N	0.473633	1.545123	0.646447
H103	H	0.018956	1.082188	0.115246
H104	H	0.518956	1.582188	0.615246
N105	N	-0.129607	0.672729	-0.151486
N106	N	0.370393	1.172729	0.348514
N107	N	-0.065482	0.723675	-0.168208
N108	N	0.434518	1.223675	0.331792
H109	H	-0.066029	0.752168	-0.222273
H110	H	0.433971	1.252168	0.277727
N111	N	-0.126521	0.513127	-0.151495
N112	N	0.373479	1.013127	0.348505
N113	N	-0.191678	0.515059	-0.201676
N114	N	0.308322	1.015059	0.298324
H115	H	-0.191140	0.486588	-0.255748
H116	H	0.308860	0.986588	0.244252
N117	N	-0.251131	0.790392	0.805294
N118	N	0.248869	1.290392	1.305294
N119	N	-0.307184	0.744510	0.766661
N120	N	0.192816	1.244510	1.266661
H121	H	-0.352489	0.707442	0.797878
H122	H	0.147511	1.207442	1.297878
N123	N	0.002744	0.998124	0.805271
N124	N	0.502744	1.498124	1.305271
N125	N	0.059954	0.974039	0.853568
N126	N	0.559954	1.474039	1.353568
H127	H	0.105257	1.011102	0.884785
H128	H	0.605257	1.511102	1.384785
H129	H	-0.238085	0.800993	0.203744
H130	H	0.261915	1.300993	0.703744
N131	N	0.002763	0.998101	0.369673
N132	N	0.502763	1.498101	0.869673
N133	N	0.058819	1.043972	0.331017
N134	N	0.558819	1.543972	0.831017
H135	H	0.104126	1.081046	0.362216
H136	H	0.604126	1.581046	0.862216
N137	N	0.002734	0.998133	0.630324
N138	N	0.502734	1.498133	1.130324
N139	N	0.058787	1.044013	0.668961
N140	N	0.558787	1.544013	1.168961
H141	H	0.104082	1.081091	0.637747
H142	H	0.604082	1.581091	1.137747
N143	N	-0.251115	0.790367	0.630372
N144	N	0.248885	1.290367	1.130372
N145	N	-0.307171	0.744499	0.669031
N146	N	0.192829	1.244499	1.169031
H147	H	-0.352469	0.707416	0.637835
H148	H	0.147531	1.207416	1.137835
H149	H	-0.238085	0.801006	0.360759
H150	H	0.261915	1.301006	0.860759
N151	N	-0.129639	0.672685	0.151523
N152	N	0.370361	1.172685	0.651523
N153	N	-0.194453	0.656968	0.201704
N154	N	0.305547	1.156968	0.701704
H155	H	-0.195028	0.685439	0.255774
H156	H	0.304972	1.185439	0.755774
N157	N	-0.121848	0.275371	0.151516
N158	N	0.378152	0.775371	0.651516
N159	N	-0.123217	0.345859	0.151504
N160	N	0.376783	0.845859	0.651504
H161	H	-0.123758	0.374341	0.205569
H162	H	0.376242	0.874341	0.705569
H163	H	-0.126639	0.521287	0.135997
H164	H	0.373361	1.021287	0.635997
N165	N	-0.118758	0.115759	0.151523
N166	N	0.381242	0.615759	0.651523
N167	N	-0.117385	0.045272	0.151519
N168	N	0.382615	0.545272	0.651519
H169	H	-0.116839	0.016783	0.205586
H170	H	0.383161	0.516783	0.705586
N171	N	-0.118764	0.115803	-0.151502
N172	N	0.381236	0.615803	0.348498
N173	N	-0.119447	0.151058	-0.218419
N174	N	0.380553	0.651058	0.281581
H175	H	-0.118897	0.122593	-0.272494
H176	H	0.381103	0.622593	0.227506
