data_functionalizedCrystal
_audit_creation_method	'MofGen! by Chris Wilmer'
_symmetry_space_group_name_H-M	'P1'
_symmetry_Int_Tables_number	1
_symmetry_cell_setting	triclinic
loop_
_symmetry_equiv_pos_as_xyz
  x,y,z
_cell_length_a	19.288867
_cell_length_b	11.792254
_cell_length_c	18.366186
_cell_angle_alpha	89.993617
_cell_angle_beta	89.992441
_cell_angle_gamma	83.667833
loop_
_atom_site_label
_atom_site_type_symbol
_atom_site_fract_x
_atom_site_fract_y
_atom_site_fract_z
O1	O	0.922160	0.141592	-0.060524
O2	O	0.720009	0.160689	-0.060532
O3	O	0.825985	-0.014103	-0.060523
O4	O	0.816183	0.316384	-0.060533
O5	O	0.825967	-0.014112	0.060577
O6	O	0.719990	0.160680	0.060568
O7	O	0.922142	0.141584	0.060575
Zn8	Zn	0.821063	0.151131	0.079799
Zn9	Zn	0.821087	0.151142	-0.079755
O10	O	0.816165	0.316376	0.060566
C11	C	0.694120	0.160070	0.000017
C12	C	0.617006	0.158224	0.000015
C13	C	0.061374	0.144934	-0.065988
C14	C	0.133832	0.146662	-0.065991
C15	C	0.170055	0.147526	0.000021
C16	C	0.133818	0.146634	0.066039
C17	C	0.061363	0.144895	0.066040
C18	C	0.279770	0.216750	0.050591
C19	C	0.352224	0.218496	0.050588
C20	C	0.393532	0.152884	0.000021
C21	C	0.362376	0.085541	-0.050555
C22	C	0.289921	0.083802	-0.050554
C23	C	0.248621	0.149411	0.000027
C24	C	0.508328	0.155641	-0.065997
C25	C	0.580787	0.157362	-0.065997
C26	C	0.580771	0.157345	0.066035
C27	C	0.508314	0.155613	0.066033
C28	C	0.472096	0.154767	0.000015
C29	C	0.825359	-0.056389	0.000027
C30	C	0.823511	-0.182374	0.000026
C31	C	0.822009	-0.284688	0.000023
C32	C	0.820131	-0.413046	0.000017
C33	C	0.948031	0.142203	0.000024
C34	C	1.025145	0.144048	0.000022
C35	C	0.816792	0.358661	0.000015
C36	C	0.818640	0.484646	0.000011
N37	N	0.821052	0.151122	0.188690
N38	N	0.821104	0.151141	-0.188646
C39	C	0.867994	0.073762	0.226794
C40	C	0.867999	0.073757	0.303022
C41	C	0.821068	0.151132	0.341142
C42	C	0.774116	0.228498	0.303029
C43	C	0.774109	0.228493	0.226802
C44	C	0.812360	0.254542	0.461899
C45	C	0.812372	0.254548	0.538124
C46	C	0.821087	0.151146	0.576250
C47	C	0.829805	0.047733	0.538141
C48	C	0.829797	0.047728	0.461915
C49	C	0.821070	0.151145	0.423797
C50	C	0.868037	0.073774	0.697009
C51	C	0.868036	0.073767	0.773238
C52	C	0.774158	0.228518	0.773244
C53	C	0.774155	0.228514	0.697016
C54	C	0.821098	0.151144	0.658903
H55	H	0.163335	0.147389	-0.119745
O56	O	0.256316	0.011152	-0.105086
H57	H	0.297207	-0.034194	-0.140246
O58	O	0.385789	0.291047	0.105209
H59	H	0.364934	0.381855	0.097802
H60	H	0.735943	0.291513	0.804281
H61	H	0.396008	0.032117	-0.091734
H62	H	0.478838	0.154948	-0.119753
O63	O	0.918622	-0.009693	0.185691
H64	H	0.910736	0.003303	0.126283
H65	H	0.031865	0.144178	0.119795
H66	H	0.610284	0.158074	-0.119753
O67	O	0.619828	0.158281	0.137236
H68	H	0.676298	0.159646	0.126147
O69	O	0.918669	-0.009683	0.814337
H70	H	0.910783	0.003306	0.873745
O71	O	0.172886	0.147582	0.137236
H72	H	0.135517	0.146671	0.183140
O73	O	0.469229	0.154679	0.137229
H74	H	0.506587	0.155582	0.183132
H75	H	0.246143	0.270174	0.091777
O76	O	0.918638	-0.009672	0.344135
H77	H	0.951282	-0.063466	0.304826
O78	O	0.723500	0.311961	0.344138
H79	H	0.731397	0.298978	0.403545
O80	O	0.839186	-0.063799	0.420809
H81	H	0.845242	-0.135706	0.460120
O82	O	0.839221	-0.063811	0.579244
H83	H	0.796575	-0.115558	0.564621
O84	O	0.918656	-0.009684	0.655893
H85	H	0.951291	-0.063495	0.695199
O86	O	0.723532	0.311966	0.655910
H87	H	0.690902	0.365777	0.695221
H88	H	0.805279	0.338753	0.569146
O89	O	0.802964	0.366075	0.420779
H90	H	0.796917	0.437982	0.460082
O91	O	0.723482	0.311943	0.185697
H92	H	0.690849	0.365752	0.225007
H93	H	0.031891	0.144240	-0.119745
