data_functionalizedCrystal
_audit_creation_method	'MofGen! by Chris Wilmer'
_symmetry_space_group_name_H-M	'P1'
_symmetry_Int_Tables_number	1
_symmetry_cell_setting	triclinic
loop_
_symmetry_equiv_pos_as_xyz
  x,y,z
_cell_length_a	13.897449
_cell_length_b	13.897448
_cell_length_c	13.897449
_cell_angle_alpha	89.992317
_cell_angle_beta	89.988684
_cell_angle_gamma	90.019497
loop_
_atom_site_label
_atom_site_type_symbol
_atom_site_fract_x
_atom_site_fract_y
_atom_site_fract_z
Zn1	Zn	-1.474550	0.384180	0.545535
Zn2	Zn	-0.974550	0.884180	1.045535
Zn3	Zn	-1.474480	0.545444	0.384244
Zn4	Zn	-0.974480	1.045444	0.884244
Zn5	Zn	-1.313280	0.384164	0.384239
Zn6	Zn	-0.813280	0.884164	0.884239
Zn7	Zn	-1.313215	0.545434	0.545482
Zn8	Zn	-0.813215	1.045434	1.045482
O9	O	-1.393881	0.464805	0.464875
O10	O	-0.893881	0.964805	0.964875
O11	O	-1.609522	0.405582	0.524165
O12	O	-1.109522	0.905582	1.024165
O13	O	-1.453094	0.524048	0.249262
O14	O	-0.953094	1.024048	0.749262
O15	O	-1.334729	0.249185	0.405655
O16	O	-0.834729	0.749185	0.905655
O17	O	-1.609471	0.524062	0.405665
O18	O	-1.109471	1.024062	0.905665
O19	O	-1.453213	0.249196	0.524159
O20	O	-0.953213	0.749196	1.024159
O21	O	-1.334662	0.405556	0.249258
O22	O	-0.834662	0.905556	0.749258
O23	O	-1.178290	0.405547	0.405603
O24	O	-0.678290	0.905547	0.905603
O25	O	-1.334618	0.524045	0.680470
O26	O	-0.834618	1.024045	1.180470
O27	O	-1.178242	0.524031	0.524068
O28	O	-0.678242	1.024031	1.024068
O29	O	-1.453150	0.405572	0.680510
O30	O	-0.953150	0.905572	1.180510
O31	O	-1.453031	0.680424	0.405612
O32	O	-0.953031	1.180424	0.905612
O33	O	-1.334551	0.680417	0.524073
O34	O	-0.834551	1.180417	1.024073
C35	C	-1.143267	0.464787	0.464830
C36	C	-0.643267	0.964787	0.964830
C37	C	-1.036053	0.464802	0.464833
C38	C	-0.536053	0.964802	0.964833
C39	C	-0.948983	0.464804	0.464845
C40	C	-0.448983	0.964804	0.964845
C41	C	-0.839751	0.464809	0.464869
C42	C	-0.339751	0.964809	0.964869
C43	C	-1.393803	0.715420	0.464858
C44	C	-0.893803	1.215420	0.964858
C45	C	-1.393857	0.822634	0.464884
C46	C	-0.893857	1.322634	0.964884
C47	C	-1.393885	0.464810	0.716468
C48	C	-0.893885	0.964810	1.216468
C49	C	-1.393886	0.464811	0.823682
C50	C	-0.893886	0.964811	1.323682
C51	C	-0.645474	0.464821	0.464909
C52	C	-0.145474	0.964821	0.964909
C53	C	-0.752688	0.464818	0.464894
C54	C	-0.252688	0.964818	0.964894
C55	C	-1.393952	1.018929	0.464953
C56	C	-0.893952	1.518929	0.964953
C57	C	-1.393897	0.909696	0.464917
C58	C	-0.893897	1.409696	0.964917
C59	C	-1.393978	1.213213	0.464924
C60	C	-0.893978	1.713213	0.964924
C61	C	-1.393998	1.105999	0.464974
C62	C	-0.893998	1.605999	0.964974
C63	C	-1.393862	0.464816	1.019977
C64	C	-0.893862	0.964816	1.519977
C65	C	-1.393873	0.464816	0.910745
C66	C	-0.893873	0.964816	1.410745
C67	C	-1.393868	0.464821	1.214261
C68	C	-0.893868	0.964821	1.714261
C69	C	-1.393861	0.464813	1.107047
C70	C	-0.893861	0.964813	1.607047
