data_functionalizedCrystal
_audit_creation_method	'MofGen! by Chris Wilmer'
_symmetry_space_group_name_H-M	'P1'
_symmetry_Int_Tables_number	1
_symmetry_cell_setting	triclinic
loop_
_symmetry_equiv_pos_as_xyz
  x,y,z
_cell_length_a	27.732048
_cell_length_b	23.532355
_cell_length_c	22.610064
_cell_angle_alpha	89.997644
_cell_angle_beta	89.988193
_cell_angle_gamma	97.264924
loop_
_atom_site_label
_atom_site_type_symbol
_atom_site_fract_x
_atom_site_fract_y
_atom_site_fract_z
O1	O	-0.058553	0.755158	-0.049095
O2	O	-0.067069	0.589272	-0.049112
O3	O	0.007579	0.677367	-0.049110
O4	O	-0.133201	0.667063	-0.049096
O5	O	0.007568	0.677351	0.049259
O6	O	-0.067080	0.589256	0.049257
O7	O	-0.058564	0.755142	0.049275
Zn8	Zn	-0.062824	0.672197	0.064884
Zn9	Zn	-0.062809	0.672217	-0.064721
O10	O	-0.133211	0.667047	0.049273
C11	C	-0.066862	0.568048	0.000070
C12	C	-0.066222	0.504831	0.000063
C13	C	-0.062206	0.112817	0.053708
C14	C	-0.061597	0.053419	0.053711
O15	O	-0.061271	0.022694	0.099313
N16	N	-0.061289	0.023720	0.000090
C17	C	-0.061585	0.053422	-0.053537
O18	O	-0.061267	0.022706	-0.099145
C19	C	-0.062191	0.112820	-0.053538
C20	C	-0.062504	0.142515	0.000086
C21	C	-0.062518	0.142513	0.107328
C22	C	-0.063128	0.201906	0.107326
C23	C	-0.063426	0.231605	0.053704
C24	C	-0.063114	0.201909	0.000084
C25	C	-0.062484	0.142522	-0.107164
C26	C	-0.063089	0.201924	-0.107161
C27	C	-0.063402	0.231619	-0.053537
C28	C	-0.064021	0.291001	-0.053541
N29	N	-0.064329	0.320701	0.000079
C30	C	-0.064031	0.291002	0.053702
C31	C	-0.060313	-0.071317	-0.053529
C32	C	-0.059711	-0.130714	-0.053528
C33	C	-0.059722	-0.130713	0.053719
C34	C	-0.060327	-0.071315	0.053718
C35	C	-0.060621	-0.041617	0.000092
C36	C	-0.065312	0.415734	0.053693
C37	C	-0.065924	0.475132	0.053686
C38	C	-0.065911	0.475127	-0.053562
C39	C	-0.065301	0.415733	-0.053555
C40	C	-0.065001	0.386038	0.000077
O41	O	-0.064346	0.321764	-0.099120
O42	O	-0.064343	0.321726	0.099303
C43	C	-0.151213	0.667271	0.000091
C44	C	-0.204869	0.667923	0.000097
C45	C	-0.543618	0.619965	0.000063
C46	C	-0.745281	0.622381	0.000056
O47	O	-0.776476	0.578527	0.000026
N48	N	-0.764477	0.674618	0.000063
C49	C	-0.733253	0.726254	0.000067
O50	O	-0.754208	0.770740	0.000066
C51	C	-0.531591	0.723837	0.000069
C52	C	-0.512398	0.671597	0.000069
C53	C	-0.524424	0.567729	0.000062
C54	C	-0.474012	0.567125	0.000067
C55	C	-0.442792	0.618757	0.000073
C56	C	-0.461986	0.670993	0.000074
C57	C	-0.500369	0.775472	0.000069
C58	C	-0.449951	0.774863	0.000068
C59	C	-0.430758	0.722623	0.000068
C60	C	-0.380353	0.722022	0.000085
N61	N	-0.361158	0.669785	0.000078
C62	C	-0.392377	0.618153	0.000072
C63	C	-0.839129	0.727519	0.000067
C64	C	-0.889544	0.728124	0.000067
C65	C	-0.901568	0.624251	0.000055
C66	C	-0.851152	0.623647	0.000059
C67	C	-0.819933	0.675283	0.000060
C68	C	-0.286506	0.616889	0.000083
C69	C	-0.236088	0.616290	0.000091
C70	C	-0.224069	0.720163	0.000099
C71	C	-0.274482	0.720762	0.000095
C72	C	-0.305700	0.669121	0.000085
O73	O	-0.349130	0.765852	0.000109
O74	O	-0.371413	0.573673	0.000060
C75	C	-0.594031	0.620568	0.000058
C76	C	-0.613224	0.672804	0.000059
C77	C	-0.582005	0.724436	0.000065
C78	C	-0.663639	0.673408	0.000059
C79	C	-0.694859	0.621776	0.000054
C80	C	-0.675663	0.569539	0.000047
C81	C	-0.625250	0.568936	0.000052
C82	C	-0.601200	0.776673	0.000071
C83	C	-0.651614	0.777272	0.000067
C84	C	-0.682833	0.725640	0.000061
C85	C	0.025580	0.677143	0.000071
C86	C	0.079236	0.676491	0.000061
C87	C	-0.058771	0.776366	0.000091
C88	C	-0.059411	0.839583	0.000095
N89	N	-0.062833	0.672187	0.153337
N90	N	-0.062796	0.672232	-0.153174
C91	C	-0.029760	0.711227	0.561979
C92	C	-0.029757	0.711230	0.623899
O93	O	-0.001644	0.744400	0.655918
N94	N	-0.062799	0.672217	0.654874
C95	C	-0.095844	0.633194	0.623926
O96	O	-0.123949	0.600010	0.655958
C97	C	-0.095845	0.633189	0.562007
C98	C	-0.062803	0.672209	0.531035
C99	C	0.003279	0.750244	0.531007
C100	C	0.003275	0.750241	0.469091
C101	C	-0.029769	0.711223	0.438147
C102	C	-0.062808	0.672206	0.469119
C103	C	-0.128887	0.594164	0.531060
C104	C	-0.128885	0.594162	0.469137
C105	C	-0.095843	0.633182	0.438165
C106	C	-0.095855	0.633185	0.376260
N107	N	-0.062813	0.672199	0.345285
C108	C	-0.029769	0.711217	0.376229
C109	C	-0.095839	0.633207	0.753960
C110	C	-0.095841	0.633215	0.815877
C111	C	-0.029753	0.711250	0.815846
C112	C	-0.029754	0.711245	0.753927
C113	C	-0.062797	0.672221	0.722984
C114	C	-0.029781	0.711210	0.246201
C115	C	-0.029790	0.711206	0.184280
C116	C	-0.095876	0.633168	0.184317
C117	C	-0.095869	0.633174	0.246233
C118	C	-0.062818	0.672197	0.277173
O119	O	-0.123952	0.600031	0.344202
O120	O	-0.001665	0.744391	0.344189
H121	H	-0.311918	0.574838	0.000075
H122	H	-0.609628	0.526397	0.000052
O123	O	-0.808756	0.777644	0.000149
C124	C	-0.779251	0.780405	0.051103
H125	H	-0.776917	0.735220	0.068082
H126	H	-0.795723	0.806258	0.086781
C127	C	-0.730790	0.865031	0.014775
C128	C	-0.727920	0.809534	0.035627
H129	H	-0.699128	0.883002	0.005231
H130	H	-0.750669	0.863173	-0.019552
H131	H	-0.744519	0.886568	0.044510
H132	H	-0.714198	0.787997	0.005889
H133	H	-0.708038	0.811389	0.069949
H134	H	-0.667235	0.819815	0.000072
O135	O	-0.127983	0.595216	0.276231
C136	C	-0.157157	0.560787	0.235638
H137	H	-0.137347	0.560327	0.191491
H138	H	-0.192988	0.578955	0.229071
C139	C	-0.191716	0.499824	0.314026
C140	C	-0.167382	0.499255	0.259805
H141	H	-0.198025	0.461869	0.328934
H142	H	-0.172062	0.523020	0.341375
H143	H	-0.221572	0.514967	0.308546
H144	H	-0.137524	0.484120	0.265287
H145	H	-0.187031	0.476055	0.232458
O146	O	0.002390	0.749093	0.276188
C147	C	0.050199	0.740249	0.261048
H148	H	0.050035	0.718290	0.216095
H149	H	0.065026	0.712039	0.295895
C150	C	0.082815	0.825330	0.313376
C151	C	0.082614	0.798364	0.258161
H152	H	0.102811	0.861177	0.311597
H153	H	0.050605	0.831287	0.323577
H154	H	0.095170	0.801815	0.342409
H155	H	0.070254	0.821875	0.229130
H156	H	0.114822	0.792412	0.247954
O157	O	-0.065086	0.386820	0.105752
C158	C	-0.106611	0.345648	0.108976
H159	H	-0.120471	0.334468	0.062421
H160	H	-0.136169	0.363764	0.135434
C161	C	-0.076296	0.305035	0.196825
C162	C	-0.093317	0.291300	0.139645
H163	H	-0.068097	0.271512	0.215745
H164	H	-0.048321	0.332775	0.194655
H165	H	-0.100930	0.320132	0.218866
H166	H	-0.068681	0.276210	0.117603
H167	H	-0.121288	0.263556	0.141812
O168	O	-0.060672	-0.042419	-0.105588
C169	C	-0.102899	-0.014898	-0.108802
H170	H	-0.116951	-0.008269	-0.062244
H171	H	-0.131982	-0.042571	-0.135254
C172	C	-0.073497	0.035451	-0.196656
C173	C	-0.090754	0.043597	-0.139472
H174	H	-0.066007	0.071532	-0.215577
H175	H	-0.045048	0.016907	-0.194492
H176	H	-0.097736	0.012388	-0.218692
H177	H	-0.066513	0.066653	-0.117435
H178	H	-0.119198	0.062145	-0.141632
H179	H	-0.063328	0.226100	-0.150831
H180	H	-0.066180	0.499308	0.097355
O181	O	-0.064986	0.386973	-0.105697
C182	C	-0.065398	0.425923	-0.153025
H183	H	-0.050528	0.470758	-0.137309
H184	H	-0.104247	0.425916	-0.169504
C185	C	-0.051718	0.352846	-0.222998
C186	C	-0.033450	0.407912	-0.203696
H187	H	-0.032013	0.341735	-0.254255
H188	H	-0.051442	0.326604	-0.191113
H189	H	-0.084092	0.352847	-0.236726
H190	H	-0.001079	0.407908	-0.189961
H191	H	-0.033720	0.434154	-0.235580
H192	H	-0.063380	0.226080	0.150993
H193	H	-0.198641	0.762201	0.000107
O194	O	-0.554796	0.517606	0.000136
C195	C	-0.584317	0.514830	0.051091
H196	H	-0.586660	0.560009	0.068078
H197	H	-0.567855	0.488969	0.086764
C198	C	-0.632762	0.430210	0.014755
C199	C	-0.635642	0.485700	0.035615
H200	H	-0.664421	0.412239	0.005209
H201	H	-0.612872	0.432079	-0.019574
H202	H	-0.619042	0.408667	0.044486
H203	H	-0.649357	0.507245	0.005881
H204	H	-0.655536	0.483834	0.069938
O205	O	-0.518924	0.826269	0.000041
C206	C	-0.480549	0.871704	0.000058
H207	H	-0.446374	0.856040	-0.018563
H208	H	-0.473346	0.887605	0.047251
C209	C	-0.536500	0.940253	-0.015651
C210	C	-0.494527	0.921016	-0.038526
H211	H	-0.545123	0.970673	-0.039448
H212	H	-0.562355	0.909644	-0.015660
H213	H	-0.530492	0.953500	0.023676
H214	H	-0.500537	0.907763	-0.077849
H215	H	-0.468674	0.951624	-0.038524
O216	O	-0.455396	0.516363	-0.000045
C217	C	-0.471380	0.484925	-0.050989
H218	H	-0.481708	0.515491	-0.086592
H219	H	-0.504400	0.452898	-0.039477
C220	C	-0.417597	0.415016	-0.030369
C221	C	-0.430278	0.452559	-0.074099
H222	H	-0.392245	0.395049	-0.044623
H223	H	-0.406830	0.436195	0.003955
H224	H	-0.445118	0.388332	-0.020779
H225	H	-0.402759	0.479247	-0.083683
H226	H	-0.441040	0.431383	-0.108424
H227	H	0.030181	0.782013	0.443877
O228	O	-0.062254	0.113753	0.159475
C229	C	-0.062646	0.152714	0.206793
H230	H	-0.078378	0.192560	0.191061
H231	H	-0.023928	0.165351	0.223280
C232	C	-0.074802	0.075439	0.276782
C233	C	-0.094129	0.124376	0.257461
H234	H	-0.094220	0.057958	0.308038
H235	H	-0.074536	0.049190	0.244904
H236	H	-0.042538	0.085977	0.290517
H237	H	-0.126390	0.113836	0.243720
H238	H	-0.094401	0.150622	0.289339
H239	H	-0.059479	-0.154904	0.097382
H240	H	-0.060583	-0.047141	0.097384
O241	O	-0.127922	0.595370	0.846051
C242	C	-0.120830	0.603722	0.907340
H243	H	-0.102562	0.649160	0.915793
H244	H	-0.096729	0.571701	0.924904
C245	C	-0.192755	0.538913	0.928759
C246	C	-0.170321	0.594722	0.939142
H247	H	-0.223283	0.533359	0.948377
H248	H	-0.197532	0.533284	0.887468
H249	H	-0.172665	0.512236	0.943396
H250	H	-0.190408	0.621398	0.924498
H251	H	-0.165549	0.600356	0.980431
H252	H	-0.002883	0.742982	0.159065
H253	H	-0.835529	0.581108	0.000061
O254	O	-0.931968	0.574146	0.000019
C255	C	-0.980580	0.585889	0.000033
H256	H	-0.982287	0.630613	-0.018577
H257	H	-0.995183	0.583585	0.047225
C258	C	-1.009550	0.486481	-0.015700
C259	C	-1.011647	0.541410	-0.038563
H260	H	-1.028715	0.459044	-0.039505
H261	H	-0.976800	0.478569	-0.015707
H262	H	-1.021719	0.484569	0.023626
H263	H	-0.999473	0.543323	-0.077884
H264	H	-1.044396	0.549321	-0.038563
O265	O	-0.059393	-0.159466	-0.105672
C266	C	-0.059800	-0.120511	-0.152997
H267	H	-0.044930	-0.075678	-0.137274
H268	H	-0.098648	-0.120515	-0.169479
C269	C	-0.046117	-0.193582	-0.222975
C270	C	-0.027849	-0.138518	-0.203666
H271	H	-0.026410	-0.204690	-0.254232
H272	H	-0.045844	-0.219827	-0.191092
H273	H	-0.078490	-0.193578	-0.236706
H274	H	0.004521	-0.138525	-0.189928
H275	H	-0.028116	-0.112273	-0.235548
H276	H	-0.122751	0.601430	0.728769
O277	O	-0.419605	0.825009	-0.000034
C278	C	-0.390063	0.827770	-0.050970
H279	H	-0.408658	0.798482	-0.086581
H280	H	-0.353471	0.813361	-0.039449
C281	C	-0.359263	0.925782	-0.030329
C282	C	-0.382104	0.889815	-0.074070
H283	H	-0.354352	0.964055	-0.044577
H284	H	-0.379165	0.923923	0.003989
H285	H	-0.328772	0.913768	-0.020733
H286	H	-0.412597	0.901825	-0.083660
H287	H	-0.362207	0.891678	-0.108390
O288	O	0.035397	0.788206	0.560968
C289	C	0.064562	0.822626	0.520341
H290	H	0.044740	0.823078	0.476211
H291	H	0.100390	0.804455	0.513748
C292	C	0.099143	0.883602	0.598684
C293	C	0.074796	0.884162	0.544484
H294	H	0.105457	0.921560	0.613577
H295	H	0.079495	0.860412	0.626055
H296	H	0.128997	0.868457	0.593182
H297	H	0.044939	0.899300	0.549988
H298	H	0.094438	0.907357	0.517114
O299	O	-0.127925	0.595287	0.154161
C300	C	-0.120845	0.603664	0.092870
H301	H	-0.082319	0.625297	0.084406
H302	H	-0.148081	0.631980	0.075301
C303	C	-0.175677	0.518772	0.071478
C304	C	-0.128359	0.545337	0.061083
H305	H	-0.180315	0.482794	0.051870
H306	H	-0.180449	0.513129	0.112771
H307	H	-0.198369	0.542374	0.056838
H308	H	-0.105668	0.521738	0.075730
H309	H	-0.123584	0.550975	0.019791
H310	H	-0.066155	0.499317	-0.097220
H311	H	-0.905166	0.770663	0.000076
O312	O	-0.706014	0.519398	-0.000065
C313	C	-0.735531	0.516664	-0.051007
H314	H	-0.716912	0.545958	-0.086609
H315	H	-0.772124	0.531080	-0.039490
C316	C	-0.766361	0.418650	-0.030392
C317	C	-0.743491	0.454626	-0.074121
H318	H	-0.771273	0.380382	-0.044648
H319	H	-0.746476	0.420492	0.003930
H320	H	-0.796853	0.430670	-0.020798
H321	H	-0.712997	0.442610	-0.083708
H322	H	-0.763371	0.452780	-0.108445
H323	H	-0.220465	0.573748	0.000093
O324	O	0.002392	0.749168	0.723935
C325	C	0.031544	0.783616	0.764532
H326	H	0.031983	0.760272	0.808672
H327	H	0.016037	0.825783	0.771115
C328	C	0.083208	0.824487	0.686145
C329	C	0.083749	0.795814	0.740357
H330	H	0.115410	0.832014	0.671233
H331	H	0.063566	0.801280	0.658794
H332	H	0.070282	0.859623	0.691639
H333	H	0.096669	0.760675	0.734862
H334	H	0.103395	0.819015	0.767708
O335	O	0.002331	0.749096	0.846002
C336	C	-0.004764	0.740737	0.907293
H337	H	-0.023036	0.695299	0.915753
H338	H	-0.028863	0.772758	0.924870
C339	C	0.067165	0.805535	0.928682
C340	C	0.044726	0.749727	0.939073
H341	H	0.097692	0.811083	0.948286
H342	H	0.071944	0.811169	0.887389
H343	H	0.047077	0.832214	0.943329
H344	H	0.064811	0.723050	0.924419
H345	H	0.039952	0.744089	0.980364
H346	H	-0.290109	0.763300	0.000104
H347	H	-0.062228	0.118354	-0.150831
H348	H	-0.575786	0.818719	0.000076
H349	H	-0.155792	0.562390	0.556269
H350	H	-0.155792	0.562382	0.443947
