data_functionalizedCrystal
_audit_creation_method	'MofGen! by Chris Wilmer'
_symmetry_space_group_name_H-M	'P1'
_symmetry_Int_Tables_number	1
_symmetry_cell_setting	triclinic
loop_
_symmetry_equiv_pos_as_xyz
  x,y,z
_cell_length_a	25.639243
_cell_length_b	25.639239
_cell_length_c	12.759393
_cell_angle_alpha	89.962948
_cell_angle_beta	89.975751
_cell_angle_gamma	90.041410
loop_
_atom_site_label
_atom_site_type_symbol
_atom_site_fract_x
_atom_site_fract_y
_atom_site_fract_z
Zn1	Zn	0.799268	-0.208082	-0.594103
Zn2	Zn	1.299268	0.291918	-0.094103
Zn3	Zn	0.799179	-0.295529	-0.418406
Zn4	Zn	1.299179	0.204471	0.081594
Zn5	Zn	0.711832	-0.208113	-0.418424
Zn6	Zn	1.211832	0.291887	0.081576
Zn7	Zn	0.711789	-0.295492	-0.594030
Zn8	Zn	1.211789	0.204508	-0.094030
O9	O	0.755517	-0.251804	-0.506241
O10	O	1.255517	0.248196	-0.006241
O11	O	0.872421	-0.219684	-0.570819
O12	O	1.372421	0.280316	-0.070819
O13	O	0.787572	-0.283961	-0.271387
O14	O	1.287572	0.216039	0.228613
O15	O	0.723485	-0.134944	-0.441767
O16	O	1.223485	0.365056	0.058233
O17	O	0.872356	-0.283931	-0.441735
O18	O	1.372356	0.216069	0.058265
O19	O	0.787724	-0.134921	-0.570837
O20	O	1.287724	0.365079	-0.070837
O21	O	0.723399	-0.219737	-0.271401
O22	O	1.223399	0.280263	0.228599
O23	O	0.638661	-0.219702	-0.441696
O24	O	1.138661	0.280298	0.058304
O25	O	0.723413	-0.283869	-0.741060
O26	O	1.223413	0.216131	-0.241060
O27	O	0.638630	-0.283899	-0.570712
O28	O	1.138630	0.216101	-0.070712
O29	O	0.787683	-0.219649	-0.741114
O30	O	1.287683	0.280351	-0.241114
O31	O	0.787531	-0.368689	-0.441664
O32	O	1.287531	0.131311	0.058336
O33	O	0.723327	-0.368662	-0.570694
O34	O	1.223327	0.131338	-0.070694
C35	C	0.619674	-0.251800	-0.506199
C36	C	1.119674	0.248200	-0.006199
C37	C	0.561560	-0.251812	-0.506206
C38	C	1.061560	0.248188	-0.006206
C39	C	0.201226	-0.218403	-0.573566
C40	C	0.701226	0.281597	-0.073566
C41	C	0.146621	-0.218403	-0.573573
C42	C	0.646621	0.281597	-0.073573
O43	O	0.118409	-0.189988	-0.630793
O44	O	0.618409	0.310012	-0.130793
N45	N	0.119278	-0.251803	-0.506269
N46	N	0.619278	0.248197	-0.006269
C47	C	0.146541	-0.285201	-0.438947
C48	C	0.646541	0.214799	0.061053
O49	O	0.118269	-0.313610	-0.381700
O50	O	0.618269	0.186390	0.118300
C51	C	0.201145	-0.285198	-0.438936
C52	C	0.701145	0.214802	0.061064
C53	C	0.228485	-0.251800	-0.506252
C54	C	0.728485	0.248200	-0.006252
C55	C	0.228567	-0.185007	-0.640876
C56	C	0.728567	0.314993	-0.140876
C57	C	0.283167	-0.185009	-0.640870
C58	C	0.783167	0.314991	-0.140870
C59	C	0.310427	-0.218406	-0.573556
C60	C	0.810427	0.281594	-0.073556
C61	C	0.283086	-0.251802	-0.506246
C62	C	0.783086	0.248198	-0.006246
C63	C	0.228407	-0.318594	-0.371610
C64	C	0.728407	0.181406	0.128390
C65	C	0.283014	-0.318588	-0.371604
C66	C	0.783014	0.181412	0.128396
C67	C	0.310355	-0.285190	-0.438920
C68	C	0.810355	0.214810	0.061080
C69	C	0.364946	-0.285200	-0.438927
C70	C	0.864946	0.214800	0.061073
N71	N	0.392290	-0.251800	-0.506230
N72	N	0.892290	0.248200	-0.006230
C73	C	0.365030	-0.218403	-0.573545
C74	C	0.865030	0.281597	-0.073545
C75	C	0.031871	-0.285203	-0.438974
C76	C	0.531871	0.214797	0.061026
C77	C	-0.022732	-0.285209	-0.438990
C78	C	0.477268	0.214791	0.061010
C79	C	-0.022648	-0.218410	-0.573614
C80	C	0.477352	0.281590	-0.073614
C81	C	0.031956	-0.218407	-0.573603
C82	C	0.531956	0.281593	-0.073603
C83	C	0.059214	-0.251804	-0.506278
C84	C	0.559214	0.248196	-0.006278
C85	C	0.479695	-0.218409	-0.573529
C86	C	0.979695	0.281591	-0.073529
C87	C	0.534301	-0.218415	-0.573521
C88	C	1.034301	0.281585	-0.073521
C89	C	0.534212	-0.285211	-0.438893
C90	C	1.034212	0.214789	0.061107
C91	C	0.479611	-0.285208	-0.438904
C92	C	0.979611	0.214792	0.061096
C93	C	0.452354	-0.251802	-0.506226
C94	C	0.952354	0.248198	-0.006226
O95	O	0.393193	-0.313599	-0.381732
O96	O	0.893193	0.186401	0.118268
O97	O	0.393309	-0.189995	-0.630772
O98	O	0.893309	0.310005	-0.130772
C99	C	0.755429	-0.387647	-0.506192
C100	C	1.255429	0.112353	-0.006192
C101	C	0.755439	-0.445761	-0.506207
C102	C	1.255439	0.054239	-0.006207
C103	C	0.789035	-0.806125	-0.439169
C104	C	1.289035	-0.306125	0.060831
C105	C	0.789056	-0.860729	-0.439183
C106	C	1.289056	-0.360729	0.060817
O107	O	0.817529	-0.888967	-0.382132
O108	O	1.317529	-0.388967	0.117868
N109	N	0.755609	-0.888043	-0.506310
N110	N	1.255609	-0.388043	-0.006310
C111	C	0.722143	-0.860750	-0.573435
C112	C	1.222143	-0.360750	-0.073435
O113	O	0.693696	-0.888996	-0.630534
O114	O	1.193696	-0.388996	-0.130534
C115	C	0.722126	-0.806146	-0.573426
C116	C	1.222126	-0.306146	-0.073426
C117	C	0.755571	-0.778835	-0.506287
C118	C	1.255571	-0.278835	-0.006287
C119	C	0.822479	-0.778814	-0.372036
C120	C	1.322479	-0.278814	0.127964
C121	C	0.822457	-0.724213	-0.372021
C122	C	1.322457	-0.224213	0.127979
C123	C	0.788993	-0.696924	-0.439139
C124	C	1.288993	-0.196924	0.060861
C125	C	0.755550	-0.724235	-0.506271
C126	C	1.255550	-0.224235	-0.006271
C127	C	0.688663	-0.778854	-0.640555
C128	C	1.188663	-0.278854	-0.140555
C129	C	0.688649	-0.724247	-0.640540
C130	C	1.188649	-0.224247	-0.140540
C131	C	0.722095	-0.696936	-0.573401
C132	C	1.222095	-0.196936	-0.073401
C133	C	0.722065	-0.642345	-0.573374
C134	C	1.222065	-0.142345	-0.073374
N135	N	0.755512	-0.615031	-0.506247
N136	N	1.255512	-0.115031	-0.006247
C137	C	0.788976	-0.642321	-0.439129
C138	C	1.288976	-0.142321	0.060871
C139	C	0.722183	-0.975420	-0.573451
C140	C	1.222183	-0.475420	-0.073451
C141	C	0.722197	-1.030023	-0.573456
C142	C	1.222197	-0.530023	-0.073456
C143	C	0.789110	-1.029998	-0.439205
C144	C	1.289110	-0.529998	0.060795
C145	C	0.789093	-0.975395	-0.439196
C146	C	1.289093	-0.475395	0.060804
C147	C	0.755629	-0.948107	-0.506324
C148	C	1.255629	-0.448107	-0.006324
C149	C	0.788929	-0.527656	-0.439102
C150	C	1.288929	-0.027656	0.060898
C151	C	0.788903	-0.473050	-0.439090
C152	C	1.288903	0.026950	0.060910
C153	C	0.721992	-0.473079	-0.573344
C154	C	1.221992	0.026921	-0.073344
C155	C	0.722015	-0.527680	-0.573353
C156	C	1.222015	-0.027680	-0.073353
C157	C	0.755488	-0.554967	-0.506228
C158	C	1.255488	-0.054967	-0.006228
O159	O	0.693607	-0.614072	-0.630398
O160	O	1.193607	-0.114072	-0.130398
O161	O	0.817423	-0.614067	-0.382050
O162	O	1.317423	-0.114067	0.117950
C163	C	0.891890	-0.251808	-0.506283
C164	C	1.391890	0.248192	-0.006283
C165	C	0.950004	-0.251810	-0.506301
C166	C	1.450004	0.248190	-0.006301
C167	C	0.755553	-0.251751	-0.780274
C168	C	1.255553	0.248249	-0.280274
C169	C	0.755569	-0.251729	-0.897051
C170	C	1.255569	0.248271	-0.397051
C171	C	0.755619	-0.115431	-0.506312
C172	C	1.255619	0.384569	-0.006312
C173	C	0.755663	-0.057317	-0.506342
C174	C	1.255663	0.442683	-0.006342
C175	C	0.789039	-0.218286	-0.951942
C176	C	1.289039	0.281714	-0.451942
C177	C	0.789052	-0.218267	-1.061667
C178	C	1.289052	0.281733	-0.561667
C179	C	0.722122	-0.285138	-1.061598
C180	C	1.222122	0.214862	-0.561598
C181	C	0.722108	-0.285154	-0.951876
C182	C	1.222108	0.214846	-0.451876
C183	C	0.822501	-0.184861	-0.897118
C184	C	1.322501	0.315139	-0.397118
C185	C	0.855974	-0.151416	-0.952009
C186	C	1.355974	0.348584	-0.452009
C187	C	0.855986	-0.151397	-1.061733
C188	C	1.355986	0.348603	-0.561733
C189	C	0.822525	-0.184823	-1.116566
C190	C	1.322525	0.315177	-0.616566
C191	C	0.755510	-0.251819	-0.233273
C192	C	1.255510	0.248181	0.266727
C193	C	0.755596	-0.251694	-0.116497
C194	C	1.255596	0.248306	0.383503
H195	H	0.206156	-0.345790	-0.316793
H196	H	0.706156	0.154210	0.183207
N197	N	0.858576	-0.808242	-0.299641
N198	N	1.358576	-0.308242	0.200359
H199	H	0.879756	-0.782648	-0.257118
H200	H	1.379756	-0.282648	0.242882
H201	H	0.837314	-0.830936	-0.250978
H202	H	1.337314	-0.330936	0.249022
H203	H	0.883238	-0.124161	-1.106423
H204	H	1.383238	0.375839	-0.606423
N205	N	0.822488	-0.184872	-0.778774
N206	N	1.322488	0.315128	-0.278774
H207	H	0.786626	-0.175260	-0.752340
H208	H	1.286626	0.324740	-0.252340
H209	H	0.832087	-0.220750	-0.752400
H210	H	1.332087	0.279250	-0.252400
N211	N	0.686043	-0.321195	-1.120737
N212	N	1.186043	0.178805	-0.620737
H213	H	0.664837	-0.342384	-1.069312
H214	H	1.164837	0.157616	-0.569312
H215	H	0.661869	-0.299906	-1.166272
H216	H	1.161869	0.200094	-0.666272
H217	H	-0.044853	-0.191215	-0.628423
H218	H	0.455147	0.308785	-0.128423
H219	H	0.883213	-0.124199	-0.907358
H220	H	1.383213	0.375801	-0.407358
N221	N	0.822532	-0.184799	-1.234911
N222	N	1.322532	0.315201	-0.734911
H223	H	0.848811	-0.158539	-1.261368
H224	H	1.348811	0.341461	-0.761368
H225	H	0.832102	-0.220679	-1.261242
H226	H	1.332102	0.279321	-0.761242
H227	H	0.694957	-1.052255	-0.628118
H228	H	1.194957	-0.552255	-0.128118
N229	N	0.563790	-0.182393	-0.646131
N230	N	1.063790	0.317607	-0.146131
H231	H	0.538232	-0.161236	-0.688772
H232	H	1.038232	0.338764	-0.188772
H233	H	0.586453	-0.158172	-0.603455
H234	H	1.086453	0.341828	-0.103455
N235	N	0.450301	-0.182377	-0.646133
N236	N	0.950301	0.317623	-0.146133
H237	H	0.475914	-0.161224	-0.688766
H238	H	0.975914	0.338776	-0.188766
H239	H	0.427642	-0.203685	-0.694683
H240	H	0.927642	0.296315	-0.194683
N241	N	0.686008	-0.321222	-0.892662
N242	N	1.186008	0.178778	-0.392662
H243	H	0.664816	-0.342398	-0.944040
H244	H	1.164816	0.157602	-0.444040
H245	H	0.707267	-0.345425	-0.847125
H246	H	1.207267	0.154575	-0.347125
H247	H	0.305423	-0.157812	-0.695684
H248	H	0.805423	0.342188	-0.195684
H249	H	0.816327	-0.953162	-0.384526
H250	H	1.316327	-0.453162	0.115474
N251	N	0.686082	-0.945987	-0.645843
N252	N	1.186082	-0.445987	-0.145843
H253	H	0.694182	-0.955455	-0.720927
H254	H	1.194182	-0.455455	-0.220927
H255	H	0.648749	-0.955549	-0.629357
H256	H	1.148749	-0.455549	-0.129357
N257	N	0.199170	-0.148978	-0.713474
N258	N	0.699170	0.351022	-0.213474
H259	H	0.224784	-0.127823	-0.756102
H260	H	0.724784	0.372177	-0.256102
H261	H	0.176512	-0.170284	-0.762030
H262	H	0.676512	0.329716	-0.262030
N263	N	0.061443	-0.182386	-0.646207
N264	N	0.561443	0.317614	-0.146207
H265	H	0.035883	-0.161232	-0.688850
H266	H	0.535883	0.338768	-0.188850
H267	H	0.084102	-0.158161	-0.603528
H268	H	0.584102	0.341839	-0.103528
H269	H	-0.044988	-0.312411	-0.384187
H270	H	0.455012	0.187589	0.115813
H271	H	0.054061	-0.312403	-0.384153
H272	H	0.554061	0.187597	0.115847
H273	H	0.816187	-0.549866	-0.384445
H274	H	1.316187	-0.049866	0.115555
N275	N	0.312414	-0.354607	-0.298983
N276	N	0.812414	0.145393	0.201017
H277	H	0.286805	-0.375762	-0.256345
H278	H	0.786805	0.124238	0.243655
H279	H	0.335063	-0.378831	-0.341651
H280	H	0.835063	0.121169	0.158349
H281	H	0.457349	-0.312409	-0.384103
H282	H	0.957349	0.187591	0.115897
H283	H	0.556417	-0.312403	-0.384089
H284	H	1.056417	0.187597	0.115911
H285	H	0.816139	-0.450815	-0.384413
H286	H	1.316139	0.049185	0.115587
H287	H	0.849693	-0.701980	-0.317354
H288	H	1.349693	-0.201980	0.182646
H289	H	0.661426	-0.801081	-0.695222
H290	H	1.161426	-0.301081	-0.195222
N291	N	0.825205	-1.059437	-0.366811
N292	N	1.325205	-0.559437	0.133189
H293	H	0.820139	-1.098172	-0.377013
H294	H	1.320139	-0.598172	0.122987
H295	H	0.862539	-1.049849	-0.383234
H296	H	1.362539	-0.549849	0.116766
N297	N	0.652557	-0.694814	-0.712947
N298	N	1.152557	-0.194814	-0.212947
H299	H	0.631375	-0.720405	-0.755476
H300	H	1.131375	-0.220405	-0.255476
H301	H	0.628362	-0.672202	-0.670133
H302	H	1.128362	-0.172202	-0.170133
N303	N	0.685939	-0.557137	-0.645759
N304	N	1.185939	-0.057137	-0.145759
H305	H	0.707182	-0.579748	-0.694497
H306	H	1.207182	-0.079748	-0.194497
H307	H	0.661737	-0.579807	-0.602951
H308	H	1.161737	-0.079807	-0.102951
N309	N	0.685896	-0.443640	-0.645725
N310	N	1.185896	0.056360	-0.145725
H311	H	0.690962	-0.404906	-0.635524
H312	H	1.190962	0.095094	-0.135524
H313	H	0.694018	-0.453144	-0.720779
H314	H	1.194018	0.046856	-0.220779
