data_functionalizedCrystal
_audit_creation_method	'MofGen! by Chris Wilmer'
_symmetry_space_group_name_H-M	'P1'
_symmetry_Int_Tables_number	1
_symmetry_cell_setting	triclinic
loop_
_symmetry_equiv_pos_as_xyz
  x,y,z
_cell_length_a	16.109302
_cell_length_b	23.532407
_cell_length_c	14.586319
_cell_angle_alpha	89.991566
_cell_angle_beta	89.994552
_cell_angle_gamma	83.155229
loop_
_atom_site_label
_atom_site_type_symbol
_atom_site_fract_x
_atom_site_fract_y
_atom_site_fract_z
O1	O	1.102555	0.073204	-0.076291
O2	O	0.860421	0.082313	-0.076285
O3	O	0.988790	-0.005146	-0.076271
O4	O	0.974187	0.160663	-0.076305
O5	O	0.988781	-0.005147	0.076209
O6	O	0.860412	0.082312	0.076196
O7	O	1.102546	0.073203	0.076190
Cu8	Cu	0.981478	0.077757	0.090116
Cu9	Cu	0.981489	0.077759	-0.090211
O10	O	0.974178	0.160662	0.076176
C11	C	0.829445	0.081944	-0.000044
C12	C	0.737158	0.080837	-0.000041
C13	C	0.524833	0.078278	0.083068
C14	C	0.438121	0.077232	0.083065
C15	C	0.438141	0.077236	-0.083178
C16	C	0.524852	0.078278	-0.083174
C17	C	0.568195	0.078802	-0.000048
C18	C	0.394772	0.076714	-0.000055
C19	C	0.300755	0.075580	-0.000059
C20	C	0.662218	0.079935	-0.000044
C21	C	0.988413	-0.026364	-0.000029
C22	C	0.987295	-0.089585	-0.000022
C23	C	1.056248	-0.488434	-0.000074
C24	C	1.055210	-0.547838	-0.000080
O25	O	1.119130	-0.584347	-0.000116
N26	N	0.978895	-0.570746	-0.000078
C27	C	0.903614	-0.534246	-0.000078
O28	O	0.838607	-0.559186	-0.000077
C29	C	0.904653	-0.474843	-0.000077
C30	C	0.980973	-0.451939	-0.000071
C31	C	1.132562	-0.465529	-0.000068
C32	C	1.133600	-0.406129	-0.000059
C33	C	1.058325	-0.369634	-0.000056
C34	C	0.982011	-0.392539	-0.000062
C35	C	0.829373	-0.438345	-0.000084
C36	C	0.830419	-0.378938	-0.000084
C37	C	0.906739	-0.356034	-0.000077
C38	C	0.907774	-0.296644	-0.000050
N39	N	0.984089	-0.273736	-0.000053
C40	C	1.059364	-0.310231	-0.000056
C41	C	0.901436	-0.658997	-0.000080
C42	C	0.900396	-0.718398	-0.000074
C43	C	1.051993	-0.731986	-0.000078
C44	C	1.053032	-0.672583	-0.000078
C45	C	0.977751	-0.636089	-0.000083
C46	C	1.061539	-0.185486	-0.000037
C47	C	1.062571	-0.126080	-0.000024
C48	C	0.910975	-0.112498	-0.000025
C49	C	0.909943	-0.171898	-0.000032
C50	C	0.985232	-0.208392	-0.000042
O51	O	0.843887	-0.260100	-0.000019
O52	O	1.124361	-0.285283	-0.000069
C53	C	1.133522	0.073572	-0.000054
C54	C	1.225809	0.074679	-0.000063
C55	C	0.974554	0.181880	-0.000069
C56	C	0.975672	0.245101	-0.000082
N57	N	0.981477	0.077756	0.216947
N58	N	0.981497	0.077756	-0.217042
C59	C	1.038337	0.039042	0.451960
C60	C	1.038340	0.039040	0.547941
C61	C	0.924631	0.116472	0.547938
C62	C	0.924625	0.116470	0.451959
C63	C	0.981483	0.077756	0.403972
C64	C	0.981491	0.077756	0.595933
C65	C	0.981493	0.077755	0.700000
C66	C	0.981480	0.077756	0.299898
H67	H	0.560159	0.078703	-0.150861
H68	H	1.084634	0.007515	0.587010
H69	H	0.402819	0.076806	0.150747
H70	H	1.193864	-0.495238	-0.000074
C71	C	0.828176	-0.072349	-0.000028
H72	H	0.782571	-0.094494	-0.000027
H73	H	0.825445	-0.048888	-0.053200
H74	H	0.825426	-0.048899	0.053153
H75	H	0.769115	-0.349227	-0.000089
H76	H	1.115178	-0.653939	-0.000073
C77	C	0.816445	-0.743587	-0.000074
H78	H	0.771767	-0.713339	-0.000078
H79	H	0.812878	-0.766485	0.053095
H80	H	0.812890	-0.766468	-0.053259
H81	H	0.847797	-0.190548	-0.000012
H82	H	0.402840	0.076811	-0.150856
H83	H	0.840130	-0.629285	-0.000076
H84	H	1.113286	-0.761712	-0.000084
C85	C	0.745422	-0.463529	-0.000102
H86	H	0.755571	-0.504135	-0.000100
H87	H	0.714463	-0.450990	-0.053279
H88	H	0.714441	-0.451005	0.053074
H89	H	1.084633	0.007517	0.412891
H90	H	1.124722	-0.107435	-0.000017
H91	H	1.122847	-0.215193	-0.000048
C92	C	1.217553	-0.380942	-0.000069
H93	H	1.262229	-0.411191	-0.000083
H94	H	1.221120	-0.358055	0.053101
H95	H	1.221110	-0.358049	-0.053252
C96	C	0.862100	0.159059	0.600727
H97	H	0.870251	0.153520	0.664762
H98	H	0.806664	0.152866	0.585012
H99	H	0.870821	0.197070	0.584981
H100	H	0.878323	0.147996	0.412885
C101	C	0.572511	0.078837	0.174502
H102	H	0.534265	0.078367	0.224002
H103	H	0.599728	0.112430	0.177969
H104	H	0.612946	0.046045	0.177950
