data_functionalizedCrystal
_audit_creation_method	'MofGen! by Chris Wilmer'
_symmetry_space_group_name_H-M	'P1'
_symmetry_Int_Tables_number	1
_symmetry_cell_setting	triclinic
loop_
_symmetry_equiv_pos_as_xyz
  x,y,z
_cell_length_a	14.519731
_cell_length_b	14.519709
_cell_length_c	7.540329
_cell_angle_alpha	89.995460
_cell_angle_beta	89.996948
_cell_angle_gamma	83.684499
loop_
_atom_site_label
_atom_site_type_symbol
_atom_site_fract_x
_atom_site_fract_y
_atom_site_fract_z
O1	O	1.223853	0.120983	-0.147490
O2	O	1.557187	0.454317	0.185843
O3	O	1.890520	0.787650	0.519177
O4	O	0.955379	0.135199	-0.147493
O5	O	1.288713	0.468533	0.185840
O6	O	1.622046	0.801866	0.519173
O7	O	1.096735	-0.006146	-0.147476
O8	O	1.430068	0.327187	0.185858
O9	O	1.763401	0.660520	0.519191
O10	O	1.082498	0.262329	-0.147508
O11	O	1.415831	0.595663	0.185826
O12	O	1.749165	0.928996	0.519159
O13	O	1.096726	-0.006148	0.147489
O14	O	1.430059	0.327185	0.480823
O15	O	1.763393	0.660518	0.814156
O16	O	0.955371	0.135198	0.147472
O17	O	1.288704	0.468531	0.480805
O18	O	1.622037	0.801864	0.814138
O19	O	1.223845	0.120982	0.147475
O20	O	1.557178	0.454315	0.480808
O21	O	1.890512	0.787648	0.814142
Cu22	Cu	1.089607	0.128090	0.174406
Cu23	Cu	1.422941	0.461423	0.507739
Cu24	Cu	1.756274	0.794756	0.841073
Cu25	Cu	1.089617	0.128092	-0.174424
Cu26	Cu	1.422950	0.461425	0.158909
Cu27	Cu	1.756284	0.794758	0.492242
O28	O	1.082490	0.262328	0.147457
O29	O	1.415823	0.595661	0.480791
O30	O	1.749156	0.928994	0.814124
C31	C	0.921016	0.134532	-0.000011
C32	C	1.254349	0.467866	0.333322
C33	C	1.587682	0.801199	0.666656
C34	C	0.818635	0.132536	-0.000012
C35	C	1.151969	0.465870	0.333322
C36	C	1.485302	0.799203	0.666655
C37	C	1.096067	-0.040507	0.000007
C38	C	1.429400	0.292826	0.333341
C39	C	1.762734	0.626160	0.666674
C40	C	1.094079	-0.142889	0.000008
C41	C	1.427412	0.190445	0.333341
C42	C	1.760745	0.523778	0.666675
C43	C	1.086759	-0.517785	-0.000038
C44	C	1.420093	-0.184452	0.333295
C45	C	1.753426	0.148882	0.666629
C46	C	1.088792	-0.413477	-0.000025
C47	C	1.422125	-0.080143	0.333309
C48	C	1.755459	0.253190	0.666642
C49	C	1.090419	-0.330340	-0.000013
C50	C	1.423752	0.002993	0.333320
C51	C	1.757085	0.336327	0.666653
C52	C	1.092452	-0.226025	-0.000003
C53	C	1.425785	0.107308	0.333330
C54	C	1.759118	0.440641	0.666663
C55	C	0.735491	0.130915	-0.000019
C56	C	1.068825	0.464248	0.333315
C57	C	1.402158	0.797581	0.666648
C58	C	0.631182	0.128888	-0.000019
C59	C	0.964516	0.462221	0.333314
C60	C	1.297849	0.795555	0.666648
C61	C	0.548043	0.127280	-0.000019
C62	C	0.881377	0.460613	0.333315
C63	C	1.214710	0.793946	0.666648
C64	C	0.443728	0.125253	-0.000023
C65	C	0.777061	0.458586	0.333311
C66	C	1.110395	0.791920	0.666644
C67	C	1.258209	0.121649	-0.000011
C68	C	1.591542	0.454982	0.333322
C69	C	1.924875	0.788315	0.666655
C70	C	1.360589	0.123645	-0.000022
C71	C	1.693922	0.456978	0.333311
C72	C	2.027256	0.790311	0.666644
C73	C	1.083157	0.296688	-0.000029
C74	C	1.416491	0.630022	0.333304
C75	C	1.749824	0.963355	0.666637
C76	C	1.085146	0.399070	-0.000042
C77	C	1.418479	0.732403	0.333291
C78	C	1.751812	1.065736	0.666625
N79	N	1.089607	0.128088	0.419754
N80	N	1.422940	0.461421	0.753088
N81	N	1.756274	0.794754	1.086421
N82	N	1.089625	0.128086	-0.419773
N83	N	1.422958	0.461420	-0.086440
N84	N	1.756291	0.794753	0.246894
