data_functionalizedCrystal
_audit_creation_method	'MofGen! by Chris Wilmer'
_symmetry_space_group_name_H-M	'P1'
_symmetry_Int_Tables_number	1
_symmetry_cell_setting	triclinic
loop_
_symmetry_equiv_pos_as_xyz
  x,y,z
_cell_length_a	14.044220
_cell_length_b	10.654550
_cell_length_c	9.130313
_cell_angle_alpha	89.997153
_cell_angle_beta	90.001107
_cell_angle_gamma	88.836904
loop_
_atom_site_label
_atom_site_type_symbol
_atom_site_fract_x
_atom_site_fract_y
_atom_site_fract_z
O1	O	-1.259698	-0.302983	0.121643
O2	O	-0.983657	-0.292050	0.121680
O3	O	-1.128024	-0.115415	0.121651
O4	O	-1.115330	-0.479618	0.121672
O5	O	-1.128013	-0.115414	-0.121947
O6	O	-0.983646	-0.292049	-0.121919
O7	O	-1.259687	-0.302982	-0.121956
Cu8	Cu	-1.121665	-0.297515	-0.144180
Cu9	Cu	-1.121678	-0.297517	0.143904
O10	O	-1.115319	-0.479617	-0.121927
C11	C	-1.127086	-0.068523	-0.000147
C12	C	-1.124298	0.071201	-0.000144
C13	C	-0.948305	-0.287263	-0.000115
C14	C	-0.842986	-0.272988	-0.000101
C15	C	-1.295038	-0.307769	-0.000158
C16	C	-1.400358	-0.322044	-0.000162
C17	C	-0.650153	-0.246889	-0.000131
C18	C	-0.593185	-0.348137	-0.000132
C19	C	-0.485886	-0.333615	-0.000149
C20	C	-0.757462	-0.261409	-0.000114
C21	C	-1.116257	-0.526509	-0.000126
C22	C	-1.119045	-0.666233	-0.000119
N23	N	-1.121663	-0.297514	-0.346803
C24	C	-1.209299	0.142144	-0.000155
C25	C	-1.206673	0.273429	-0.000137
C26	C	-1.034038	0.262814	-0.000103
C27	C	-1.036665	0.131532	-0.000111
C28	C	-1.179693	-0.380228	-0.423453
C29	C	-1.179708	-0.380222	-0.576790
C30	C	-1.063656	-0.214786	-0.576812
C31	C	-1.063646	-0.214786	-0.423478
N32	N	-1.121688	-0.297508	0.346527
H33	H	-0.624998	-0.445725	-0.000119
O34	O	-1.298355	0.349946	-0.000170
H35	H	-1.340266	0.327275	0.099094
H36	H	-1.226962	-0.447575	-0.639191
H37	H	-0.967442	0.073767	-0.000098
H38	H	-0.618342	-0.149310	-0.000145
H39	H	-1.226934	-0.447590	-0.361028
O40	O	-1.001071	-0.125572	-0.659510
H41	H	-1.010817	-0.139477	-0.779011
H42	H	-1.280656	0.093027	-0.000179
O43	O	-1.001051	-0.125575	-0.340788
H44	H	-0.960698	-0.068064	-0.419863
H45	H	-0.962690	0.311952	-0.000079
