data_functionalizedCrystal
_audit_creation_method	'MofGen! by Chris Wilmer'
_symmetry_space_group_name_H-M	'P1'
_symmetry_Int_Tables_number	1
_symmetry_cell_setting	triclinic
loop_
_symmetry_equiv_pos_as_xyz
  x,y,z
_cell_length_a	17.019282
_cell_length_b	17.038272
_cell_length_c	15.186229
_cell_angle_alpha	89.995962
_cell_angle_beta	93.877867
_cell_angle_gamma	87.241387
loop_
_atom_site_label
_atom_site_type_symbol
_atom_site_fract_x
_atom_site_fract_y
_atom_site_fract_z
O1	O	1.053361	0.099546	0.006677
O2	O	0.824549	0.112258	-0.010682
O3	O	0.937595	-0.007912	-0.002099
O4	O	0.940315	0.219716	-0.001906
O5	O	0.937587	-0.007914	0.144358
O6	O	0.824541	0.112257	0.135775
O7	O	1.053353	0.099544	0.153134
Zn8	Zn	0.938946	0.105900	0.167707
Zn9	Zn	0.938956	0.105902	-0.025256
O10	O	0.940307	0.219715	0.144550
C11	C	0.795123	0.111778	0.060314
C12	C	0.707456	0.110338	0.053663
C13	C	0.666270	0.109658	0.130374
C14	C	0.583899	0.108293	0.124128
C15	C	0.542714	0.107612	0.041169
C16	C	0.583906	0.108290	-0.035548
C17	C	0.666276	0.109649	-0.029300
C18	C	0.294008	0.103502	0.018312
C19	C	0.211632	0.102144	0.012070
C20	C	0.211630	0.102146	0.171746
C21	C	0.294002	0.103511	0.177986
C22	C	0.335187	0.104184	0.101269
C23	C	0.458517	0.106219	0.034782
C24	C	0.419383	0.105571	0.107657
C25	C	0.935117	-0.037039	0.070942
C26	C	0.927737	-0.123825	0.070382
C27	C	0.995497	-0.174001	0.075523
C28	C	0.988558	-0.255545	0.074989
C29	C	0.913858	-0.286912	0.069318
C30	C	0.846093	-0.236730	0.064174
C31	C	0.853033	-0.155187	0.064702
C32	C	0.889340	-0.532647	0.067446
C33	C	0.882405	-0.614197	0.066921
C34	C	1.024871	-0.633006	0.077734
C35	C	1.031804	-0.551461	0.078267
C36	C	0.964039	-0.501286	0.073118
C37	C	0.906763	-0.370263	0.068774
C38	C	0.971135	-0.417937	0.073656
C39	C	1.082779	0.100025	0.082136
C40	C	1.170446	0.101465	0.088781
C41	C	0.942785	0.248841	0.071508
C42	C	0.950165	0.335628	0.072062
N43	N	0.938944	0.105898	0.299400
N44	N	0.938964	0.105898	-0.156948
C45	C	0.989020	0.052705	0.528925
C46	C	0.989023	0.052703	0.621115
C47	C	0.888882	0.159094	0.613520
C48	C	0.888876	0.159092	0.521332
C49	C	0.938950	0.105898	0.479037
C50	C	0.938958	0.105899	0.663415
C51	C	0.938960	0.105897	0.763372
C52	C	0.938947	0.105898	0.379074
H53	H	1.056326	-0.148469	0.080146
O54	O	1.037568	0.000906	0.487891
C55	C	1.019544	-0.076463	0.509108
H56	H	0.956363	-0.076782	0.529653
H57	H	1.061711	-0.099443	0.565834
C58	C	1.105843	-0.129116	0.402671
C59	C	1.028241	-0.129508	0.427898
H60	H	1.111211	-0.161838	0.352579
H61	H	1.117989	-0.076991	0.388379
H62	H	1.140973	-0.148264	0.449950
H63	H	0.993113	-0.110351	0.380624
H64	H	1.016090	-0.181631	0.442180
H65	H	1.080041	-0.673867	0.081925
O66	O	1.037549	0.000955	0.669607
C67	C	0.992078	-0.047240	0.719508
H68	H	0.929783	-0.048524	0.687009
H69	H	0.989588	-0.022771	0.789185
C70	C	1.106431	-0.129631	0.763711
C71	C	1.029921	-0.131212	0.723790
H72	H	1.129776	-0.181428	0.766357
H73	H	1.137068	-0.097159	0.730094
H74	H	1.104346	-0.109236	0.821771
H75	H	1.032008	-0.151597	0.665727
H76	H	0.999286	-0.163690	0.757397
H77	H	0.699796	0.110219	0.197928
O78	O	0.333961	0.104297	-0.056237
C79	C	0.309421	0.171631	-0.106680
H80	H	0.283710	0.218562	-0.061918
H81	H	0.262596	0.155543	-0.160002
C82	C	0.412174	0.145879	-0.205196
C83	C	0.380602	0.203523	-0.150217
H84	H	0.456080	0.165550	-0.232055
H85	H	0.428706	0.100513	-0.171214
H86	H	0.373146	0.132478	-0.249623
H87	H	0.419626	0.216916	-0.105784
H88	H	0.364079	0.248892	-0.184192
O89	O	1.054461	-0.304174	0.080034
C90	C	1.121880	-0.259003	0.085138
H91	H	1.105939	-0.198122	0.111656
H92	H	1.144532	-0.253218	0.016597
C93	C	1.206041	-0.374495	0.114911
C94	C	1.186463	-0.299721	0.147488
H95	H	1.245880	-0.399612	0.153367
H96	H	1.160620	-0.404928	0.111469
H97	H	1.224912	-0.369663	0.057793
H98	H	1.167583	-0.304554	0.204599
H99	H	1.231883	-0.269289	0.150940
H100	H	0.327529	0.104061	0.245540
O101	O	0.840285	0.210874	0.654512
C102	C	0.858308	0.288258	0.633355
H103	H	0.888704	0.288140	0.568723
H104	H	0.899193	0.312415	0.688333
C105	C	0.744375	0.340461	0.702667
C106	C	0.781702	0.340316	0.623281
H107	H	0.697122	0.372574	0.696456
H108	H	0.732234	0.288326	0.716924
H109	H	0.778454	0.360589	0.748474
H110	H	0.747627	0.320179	0.577478
H111	H	0.793836	0.392449	0.609015
O112	O	0.840347	0.210803	0.472778
C113	C	0.885825	0.259018	0.422907
H114	H	0.945456	0.227839	0.413617
H115	H	0.895063	0.316796	0.459127
C116	C	0.769231	0.314045	0.343462
C117	C	0.842469	0.275749	0.332045
H118	H	0.742487	0.324369	0.287415
H119	H	0.738591	0.281564	0.377063
H120	H	0.776940	0.362190	0.373648
H121	H	0.834759	0.227601	0.301869
H122	H	0.873107	0.308222	0.298437
H123	H	1.092633	-0.525929	0.082885
O124	O	0.543792	0.107730	0.198578
C125	C	0.491753	0.174623	0.199416
H126	H	0.477953	0.196987	0.129051
H127	H	0.520408	0.222537	0.240992
C128	C	0.431793	0.125292	0.325640
C129	C	0.414838	0.152755	0.239217
H130	H	0.384349	0.111805	0.350195
H131	H	0.466854	0.080226	0.325078
H132	H	0.455674	0.165225	0.360276
H133	H	0.390967	0.112819	0.204580
H134	H	0.379771	0.197814	0.239774
O135	O	0.171743	0.101521	0.246351
C136	C	0.225759	0.102390	0.320911
H137	H	0.282867	0.128101	0.301835
H138	H	0.238594	0.039843	0.346432
C139	C	0.120138	0.121520	0.417079
C140	C	0.190278	0.153105	0.393651
H141	H	0.098252	0.152800	0.461951
H142	H	0.083746	0.120932	0.366848
H143	H	0.130844	0.069398	0.438341
H144	H	0.179570	0.205221	0.372379
H145	H	0.226668	0.153703	0.443881
O146	O	0.171576	0.101619	-0.068500
C147	C	0.119522	0.168501	-0.077216
H148	H	0.141279	0.216213	-0.030272
H149	H	0.058090	0.152175	-0.060412
C150	C	0.089531	0.140561	-0.230507
C151	C	0.116258	0.199165	-0.172855
H152	H	0.087514	0.159475	-0.289502
H153	H	0.124599	0.095499	-0.224635
H154	H	0.038340	0.126961	-0.216493
H155	H	0.167451	0.212756	-0.186862
H156	H	0.081199	0.244230	-0.178732
O157	O	0.773512	-0.267161	0.058506
C158	C	0.731872	-0.241492	-0.020495
H159	H	0.775463	-0.224577	-0.070202
H160	H	0.691483	-0.188297	-0.006412
C161	C	0.628526	-0.328940	0.002382
C162	C	0.682065	-0.308170	-0.058672
H163	H	0.597799	-0.370068	-0.021167
H164	H	0.656577	-0.346232	0.055608
H165	H	0.594876	-0.284604	0.014112
H166	H	0.715720	-0.352503	-0.070394
H167	H	0.654018	-0.290888	-0.111902
H168	H	0.550367	0.107730	-0.103094
O169	O	0.787234	-0.106411	0.059556
C170	C	0.787004	-0.058663	-0.016303
H171	H	0.825338	-0.088573	-0.066408
H172	H	0.811400	0.000608	0.002698
C173	C	0.654929	-0.009432	0.004392
C174	C	0.702007	-0.046171	-0.057151
H175	H	0.602499	-0.001722	-0.020804
H176	H	0.655085	-0.041598	0.055502
H177	H	0.675268	0.039957	0.020221
H178	H	0.681673	-0.095562	-0.072970
H179	H	0.701846	-0.014013	-0.108265
H180	H	0.699809	0.110204	-0.091767
H181	H	0.452920	0.106121	0.175202
O182	O	0.809821	-0.644633	0.061247
C183	C	0.768185	-0.618971	-0.017758
H184	H	0.811777	-0.602051	-0.067461
H185	H	0.727788	-0.565780	-0.003681
C186	C	0.664848	-0.706432	0.005110
C187	C	0.718389	-0.685656	-0.055939
H188	H	0.634128	-0.747564	-0.018440
H189	H	0.692897	-0.723719	0.058339
H190	H	0.631191	-0.662100	0.016836
H191	H	0.752051	-0.729985	-0.067655
H192	H	0.690344	-0.668378	-0.109171
O193	O	0.834184	-0.400699	0.063114
C194	C	0.792538	-0.375032	-0.015883
H195	H	0.836122	-0.358106	-0.065592
H196	H	0.752142	-0.321842	-0.001793
C197	C	0.689206	-0.462497	0.006994
C198	C	0.742738	-0.441715	-0.054062
H199	H	0.658484	-0.503628	-0.016555
H200	H	0.717262	-0.479788	0.060218
H201	H	0.655551	-0.418166	0.018730
H202	H	0.776398	-0.486042	-0.065788
H203	H	0.714686	-0.424433	-0.107288
H204	H	0.424975	0.105665	-0.032763
H205	H	0.834160	-0.491804	0.063253
H206	H	1.031955	-0.392394	0.078253
