data_functionalizedCrystal
_audit_creation_method	'MofGen! by Chris Wilmer'
_symmetry_space_group_name_H-M	'P1'
_symmetry_Int_Tables_number	1
_symmetry_cell_setting	triclinic
loop_
_symmetry_equiv_pos_as_xyz
  x,y,z
_cell_length_a	19.077236
_cell_length_b	13.897448
_cell_length_c	13.897441
_cell_angle_alpha	90.030599
_cell_angle_beta	92.323336
_cell_angle_gamma	92.310527
loop_
_atom_site_label
_atom_site_type_symbol
_atom_site_fract_x
_atom_site_fract_y
_atom_site_fract_z
Zn1	Zn	1.076057	-0.324857	0.604760
Zn2	Zn	1.576057	0.175143	1.104760
Zn3	Zn	1.075980	-0.486183	0.443457
Zn4	Zn	1.575980	0.013817	0.943457
Zn5	Zn	0.958352	-0.331367	0.436983
Zn6	Zn	1.458352	0.168633	0.936983
Zn7	Zn	0.958339	-0.492580	0.598218
Zn8	Zn	1.458339	0.007420	1.098218
O9	O	1.017182	-0.408747	0.520854
O10	O	1.517182	0.091253	1.020854
O11	O	1.174540	-0.340856	0.588810
O12	O	1.674540	0.159144	1.088810
O13	O	1.060350	-0.465694	0.307615
O14	O	1.560350	0.034306	0.807615
O15	O	0.974004	-0.195520	0.459267
O16	O	1.474004	0.304480	0.959267
O17	O	1.174483	-0.459381	0.470301
O18	O	1.674483	0.040619	0.970301
O19	O	1.060481	-0.190737	0.582532
O20	O	1.560481	0.309263	1.082532
O21	O	0.973929	-0.351951	0.302859
O22	O	1.473929	0.148049	0.802859
O23	O	0.859858	-0.358154	0.452924
O24	O	1.359858	0.141846	0.952924
O25	O	0.973981	-0.470284	0.734069
O26	O	1.473981	0.029716	1.234069
O27	O	0.859848	-0.476597	0.571383
O28	O	1.359848	0.023403	1.071383
O29	O	1.060468	-0.347059	0.738875
O30	O	1.560468	0.152941	1.238875
O31	O	1.060337	-0.622015	0.463958
O32	O	1.560337	-0.122015	0.963958
O33	O	0.973906	-0.626715	0.577660
O34	O	1.473906	-0.126715	1.077660
C35	C	0.834314	-0.418777	0.510741
C36	C	1.334314	0.081223	1.010741
C37	C	0.756083	-0.423091	0.506438
C38	C	1.256083	0.076909	1.006438
C39	C	0.719360	-0.363505	0.566211
C40	C	1.219360	0.136495	1.066211
C41	C	0.645853	-0.367554	0.562159
C42	C	1.145853	0.132446	1.062159
C43	C	0.609070	-0.431194	0.498338
C44	C	1.109070	0.068806	0.998338
C45	C	0.645799	-0.490781	0.438558
C46	C	1.145799	0.009219	0.938558
C47	C	0.719304	-0.486727	0.442606
C48	C	1.219304	0.013273	0.942606
C49	C	0.389229	-0.449922	0.479602
C50	C	0.889229	0.050078	0.979602
C51	C	0.315719	-0.453973	0.475560
C52	C	0.815719	0.046027	0.975560
C53	C	0.315778	-0.330744	0.599161
C54	C	0.815778	0.169256	1.099161
C55	C	0.389285	-0.326700	0.603207
C56	C	0.889285	0.173300	1.103207
C57	C	0.426007	-0.386284	0.543423
C58	C	0.926007	0.113716	1.043423
N59	N	0.533935	-0.435336	0.494197
N60	N	1.033935	0.064664	0.994197
N61	N	0.501141	-0.382136	0.547560
N62	N	1.001141	0.117864	1.047560
C63	C	1.017131	-0.659364	0.520824
C64	C	1.517131	-0.159364	1.020824
C65	C	1.017173	-0.766576	0.520846
C66	C	1.517173	-0.266576	1.020846
C67	C	1.017247	-0.962867	0.520911
C68	C	1.517247	-0.462867	1.020911
C69	C	1.017204	-0.853637	0.520878
C70	C	1.517204	-0.353637	1.020878
C71	C	1.200764	-0.398679	0.531007
C72	C	1.700764	0.101321	1.031007
C73	C	1.278995	-0.394388	0.535334
C74	C	1.778995	0.105612	1.035334
C75	C	1.017253	-0.157150	0.520907
C76	C	1.517253	0.342850	1.020907
C77	C	1.017283	-0.049934	0.520930
C78	C	1.517283	0.450066	1.020930
C79	C	1.017232	-0.408659	0.772450
C80	C	1.517232	0.091341	1.272450
C81	C	1.017253	-0.408621	0.879665
C82	C	1.517253	0.091379	1.379665
C83	C	1.017173	-0.408763	0.270239
C84	C	1.517173	0.091237	0.770239
C85	C	1.017288	-0.408521	0.163032
C86	C	1.517288	0.091479	0.663032
C87	C	1.017272	-0.408555	1.075962
C88	C	1.517272	0.091445	1.575962
C89	C	1.017260	-0.408595	0.966728
C90	C	1.517260	0.091405	1.466728
H91	H	0.749303	-0.311686	0.618184
H92	H	1.249303	0.188314	1.118184
H93	H	0.615956	-0.319035	0.610835
H94	H	1.115956	0.180965	1.110835
H95	H	0.419228	-0.274881	0.655180
H96	H	0.919228	0.225119	1.155180
Cl97	Cl	0.269609	-0.255841	0.674310
Cl98	Cl	0.769609	0.244159	1.174310
H99	H	0.615845	-0.542593	0.386589
H100	H	1.115845	-0.042593	0.886589
Cl101	Cl	0.269479	-0.534006	0.395344
Cl102	Cl	0.769479	-0.034006	0.895344
H103	H	0.419119	-0.498440	0.430923
H104	H	0.919119	0.001560	0.930923
Cl105	Cl	0.765471	-0.561638	0.367460
Cl106	Cl	1.265471	-0.061638	0.867460
