data_functionalizedCrystal
_audit_creation_method	'MofGen! by Chris Wilmer'
_symmetry_space_group_name_H-M	'P1'
_symmetry_Int_Tables_number	1
_symmetry_cell_setting	triclinic
loop_
_symmetry_equiv_pos_as_xyz
  x,y,z
_cell_length_a	16.956995
_cell_length_b	23.532357
_cell_length_c	16.053802
_cell_angle_alpha	92.543277
_cell_angle_beta	87.607939
_cell_angle_gamma	79.441381
loop_
_atom_site_label
_atom_site_type_symbol
_atom_site_fract_x
_atom_site_fract_y
_atom_site_fract_z
O1	O	1.061232	0.021053	-0.069490
O2	O	0.828911	0.041055	-0.069482
O3	O	0.952097	-0.052181	-0.069469
O4	O	0.938046	0.114290	-0.069503
O5	O	0.945317	-0.047069	0.069389
O6	O	0.822131	0.046167	0.069377
O7	O	1.054452	0.026165	0.069368
Zn8	Zn	0.937214	0.036978	0.091419
Zn9	Zn	0.946148	0.030242	-0.091532
O10	O	0.931265	0.119402	0.069356
C11	C	0.795804	0.044635	-0.000051
C12	C	0.707259	0.047680	-0.000047
C13	C	0.207774	0.070456	-0.000083
C14	C	0.290973	0.067591	-0.000082
C15	C	0.342499	0.013810	-0.000065
C16	C	0.310825	-0.037110	-0.000057
C17	C	0.227628	-0.034244	-0.000064
C18	C	0.592387	-0.000374	-0.000047
C19	C	0.675589	-0.003236	-0.000037
C20	C	0.655731	0.101465	-0.000064
C21	C	0.572533	0.104326	-0.000066
C22	C	0.540866	0.053407	-0.000063
N23	N	0.427542	0.010880	-0.000061
N24	N	0.455825	0.056337	-0.000073
C25	C	0.948355	-0.070827	-0.000037
C26	C	0.947298	-0.133999	-0.000029
C27	C	0.944362	-0.528514	-0.075766
C28	C	0.943357	-0.587870	-0.075770
O29	O	0.945954	-0.620933	-0.140143
N30	N	0.939163	-0.614773	-0.000080
C31	C	0.935965	-0.582315	0.075621
O32	O	0.932305	-0.610649	0.140001
C33	C	0.936964	-0.522959	0.075624
C34	C	0.941166	-0.496061	-0.000071
C35	C	0.948563	-0.501614	-0.151455
C36	C	0.949569	-0.442262	-0.151450
C37	C	0.946373	-0.409809	-0.075756
C38	C	0.942172	-0.436709	-0.000066
C39	C	0.933760	-0.490502	0.151324
C40	C	0.934758	-0.431142	0.151321
C41	C	0.938961	-0.404243	0.075626
C42	C	0.939982	-0.344904	0.075633
N43	N	0.944176	-0.318000	-0.000057
C44	C	0.947372	-0.350453	-0.075752
C45	C	0.933867	-0.706967	0.075607
C46	C	0.932874	-0.766323	0.075604
C47	C	0.940264	-0.771873	-0.075788
C48	C	0.941263	-0.712517	-0.075784
C49	C	0.938061	-0.680064	-0.000084
C50	C	0.949484	-0.225809	-0.075735
C51	C	0.950493	-0.166452	-0.075724
C52	C	0.943098	-0.160907	0.075667
C53	C	0.942094	-0.220259	0.075656
C54	C	0.945284	-0.252709	-0.000052
O55	O	0.937385	-0.311804	0.139973
O56	O	0.951021	-0.322111	-0.140121
C57	C	1.087558	0.022585	-0.000064
C58	C	1.176104	0.019540	-0.000073
C59	C	0.935007	0.138047	-0.000078
C60	C	0.936065	0.201220	-0.000091
N61	N	0.931124	0.041574	0.216279
N62	N	0.952245	0.025641	-0.216392
C63	C	0.983558	0.001914	0.259978
C64	C	0.979305	0.005134	0.347385
C65	C	0.922620	0.048017	0.391090
C66	C	0.870180	0.087679	0.347384
C67	C	0.874430	0.084456	0.259980
C68	C	0.904055	0.062080	0.652498
C69	C	0.899810	0.065301	0.739909
C70	C	1.008935	-0.017244	0.739903
C71	C	1.013183	-0.020462	0.652496
C72	C	0.960740	0.019198	0.608798
N73	N	0.918273	0.051311	0.480433
N74	N	0.965084	0.015902	0.519457
H75	H	0.316754	0.109051	-0.000098
F76	F	0.517700	0.161567	-0.000089
H77	H	0.824022	0.122594	0.382974
F78	F	0.931349	-0.396606	0.231894
F79	F	1.035111	-0.037077	0.393893
H80	H	0.201844	-0.075705	-0.000058
H81	H	0.831731	0.116750	0.224400
H82	H	0.681524	0.142921	-0.000067
F83	F	1.064743	-0.059452	0.786414
F84	F	0.928415	-0.794946	0.156169
H85	H	0.717542	-0.047033	-0.000027
H86	H	0.953917	-0.144555	-0.137367
H87	H	0.952079	-0.252223	-0.137384
F88	F	0.951964	-0.536145	-0.232027
H89	H	0.165825	0.114250	-0.000091
F90	F	0.945734	-0.683895	-0.156348
H91	H	0.566614	-0.041836	-0.000042
F92	F	0.839476	0.110947	0.786418
H93	H	0.861355	0.094374	0.616926
F94	F	0.937636	-0.248890	0.156219
F95	F	0.954036	-0.413641	-0.232016
F96	F	0.365666	-0.094348	-0.000042
H97	H	1.059341	-0.055380	0.616913
H98	H	0.942864	-0.798307	-0.137422
H99	H	1.029720	-0.033003	0.224399
F100	F	0.930464	-0.672434	0.156182
H101	H	0.940500	-0.134474	0.137296
H102	H	0.930339	-0.512393	0.212963
