data_functionalizedCrystal
_audit_creation_method	'MofGen! by Chris Wilmer'
_symmetry_space_group_name_H-M	'P1'
_symmetry_Int_Tables_number	1
_symmetry_cell_setting	triclinic
loop_
_symmetry_equiv_pos_as_xyz
  x,y,z
_cell_length_a	12.811438
_cell_length_b	15.995292
_cell_length_c	11.295483
_cell_angle_alpha	94.097347
_cell_angle_beta	91.289945
_cell_angle_gamma	83.758331
loop_
_atom_site_label
_atom_site_type_symbol
_atom_site_fract_x
_atom_site_fract_y
_atom_site_fract_z
O1	O	1.388987	0.115687	0.051004
O2	O	1.085742	0.126090	0.018250
O3	O	1.245686	-0.000922	0.035524
O4	O	1.229043	0.242700	0.033730
O5	O	1.231637	0.010216	0.232058
O6	O	1.071694	0.137229	0.214784
O7	O	1.374939	0.126826	0.247538
Cu8	Cu	1.222034	0.133044	0.249106
Cu9	Cu	1.238647	0.119872	0.016682
O10	O	1.214995	0.253838	0.230264
C11	C	1.039914	0.130734	0.112326
C12	C	0.924290	0.127967	0.099836
C13	C	1.237984	-0.026555	0.133715
C14	C	1.235954	-0.119528	0.133487
C15	C	0.768976	0.117996	-0.024884
C16	C	0.877616	0.120595	-0.013159
C17	C	0.862315	0.132739	0.201114
C18	C	0.753675	0.130140	0.189390
C19	C	0.707010	0.122770	0.076387
C20	C	0.598367	0.120177	0.064663
C21	C	0.583068	0.132314	0.278936
C22	C	0.691708	0.134913	0.290660
C23	C	1.228489	-0.457338	0.132691
C24	C	1.343900	-0.432887	0.145599
C25	C	1.346126	-0.336216	0.145389
C26	C	1.232193	-0.289747	0.133087
C27	C	1.182499	-0.325765	0.014626
C28	C	1.181116	-0.422574	0.014386
C29	C	1.162783	-0.409787	0.237627
C30	C	1.166955	-0.313169	0.239568
C31	C	1.234281	-0.195031	0.133305
C32	C	1.226398	-0.552054	0.132464
C33	C	1.420767	0.122182	0.153460
C34	C	1.536392	0.124948	0.165941
C35	C	1.222697	0.279471	0.132071
C36	C	1.224727	0.372444	0.132291
N37	N	1.210356	0.142309	0.412581
N38	N	1.250333	0.110601	-0.146792
C39	C	1.334394	0.043864	0.675267
C40	C	1.325577	0.050871	0.798978
C41	C	1.183900	0.163325	0.783717
C42	C	1.192717	0.156318	0.660006
C43	C	1.267968	0.096587	0.605785
C44	C	1.276790	0.089584	0.482072
C45	C	1.135108	0.202033	0.466813
C46	C	1.126291	0.209041	0.590524
H47	H	0.560373	0.114180	-0.027349
N48	N	0.721303	0.110455	-0.140305
N49	N	0.672006	0.048755	-0.169715
H50	H	0.638337	0.043427	-0.251234
H51	H	0.900331	0.138729	0.293116
H52	H	0.928066	0.116708	-0.095624
H53	H	1.338065	0.040950	0.437928
H54	H	1.065020	0.257671	0.634684
N55	N	0.739399	0.142434	0.406075
N56	N	0.836399	0.144749	0.416531
H57	H	0.870080	0.150062	0.498044
N58	N	0.519771	0.137216	0.382393
N59	N	0.447839	0.196024	0.398713
H60	H	0.403135	0.199493	0.471779
H61	H	1.096835	-0.438228	0.000161
H62	H	1.098958	-0.294942	0.001400
H63	H	1.395673	-0.004766	0.631121
H64	H	1.083311	-0.280618	0.237366
H65	H	1.081022	0.244966	0.410226
N66	N	1.395618	-0.306089	0.252437
N67	N	1.428754	-0.356482	0.327824
H68	H	1.463714	-0.335210	0.403429
N69	N	1.393433	-0.002994	0.869934
N70	N	1.460609	-0.056322	0.821502
H71	H	1.508535	-0.094368	0.871614
H72	H	1.382644	-0.455894	0.230888
N73	N	1.056123	-0.428332	0.227090
N74	N	1.016196	-0.462872	0.308260
H75	H	0.940872	-0.475977	0.300813
N76	N	1.406580	-0.474447	0.051194
N77	N	1.366622	-0.521994	-0.025553
H78	H	1.410887	-0.551347	-0.092230
N79	N	1.410394	-0.318313	0.050449
N80	N	1.453735	-0.377262	-0.015868
H81	H	1.499125	-0.364620	-0.082926
N82	N	1.238802	-0.461688	-0.085432
N83	N	1.333572	-0.451737	-0.095267
H84	H	1.374318	-0.479356	-0.165765
N85	N	1.240274	-0.306050	-0.084712
N86	N	1.318055	-0.265499	-0.068558
H87	H	1.358864	-0.251576	-0.138712
N88	N	1.200524	-0.438760	0.349231
N89	N	1.276315	-0.494815	0.352783
H90	H	1.302980	-0.515282	0.431599
H91	H	1.122625	0.211952	0.827879
H92	H	1.203047	-0.289493	0.327132
