data_functionalizedCrystal
_audit_creation_method	'MofGen! by Chris Wilmer'
_symmetry_space_group_name_H-M	'P1'
_symmetry_Int_Tables_number	1
_symmetry_cell_setting	triclinic
loop_
_symmetry_equiv_pos_as_xyz
  x,y,z
_cell_length_a	17.640112
_cell_length_b	16.994747
_cell_length_c	17.640968
_cell_angle_alpha	101.211591
_cell_angle_beta	87.860920
_cell_angle_gamma	101.231708
loop_
_atom_site_label
_atom_site_type_symbol
_atom_site_fract_x
_atom_site_fract_y
_atom_site_fract_z
Zn1	Zn	1.247784	-0.022661	0.195088
Zn2	Zn	1.222059	-0.185380	0.068161
Zn3	Zn	1.095130	-0.073965	0.093751
Zn4	Zn	1.120797	-0.174998	0.220739
O5	O	1.171443	-0.114251	0.144435
O6	O	1.350637	-0.027120	0.156806
O7	O	1.183714	-0.196416	-0.034709
O8	O	1.115405	0.043222	0.107168
O9	O	1.331736	-0.146669	0.063553
O10	O	1.227559	0.080914	0.181620
O11	O	1.090460	-0.114560	-0.015908
O12	O	0.992271	-0.104493	0.132041
O13	O	1.159150	-0.128975	0.323601
O14	O	1.011128	-0.178722	0.225339
O15	O	1.252447	-0.017053	0.304755
O16	O	1.208602	-0.294384	0.088426
O17	O	1.134205	-0.286756	0.200525
C18	C	0.974146	-0.146049	0.184251
C19	C	0.889745	-0.159666	0.201303
C20	C	1.171406	-0.319190	0.144478
C21	C	1.171411	-0.408511	0.144474
Zn22	Zn	1.095148	-0.705053	0.093725
Zn23	Zn	1.247811	-0.653729	0.195047
Zn24	Zn	1.120820	-0.542389	0.220721
Zn25	Zn	1.222068	-0.552639	0.068133
O26	O	1.171462	-0.613452	0.144407
O27	O	1.115429	-0.808627	0.107132
O28	O	1.252484	-0.613190	0.304715
O29	O	1.011152	-0.581157	0.225330
O30	O	1.227590	-0.770919	0.181573
O31	O	0.992291	-0.700665	0.132027
O32	O	1.159184	-0.531390	0.323578
O33	O	1.134221	-0.433367	0.200514
O34	O	1.183714	-0.598626	-0.034734
O35	O	1.208607	-0.440897	0.088408
O36	O	1.090466	-0.710604	-0.015932
O37	O	1.350659	-0.623129	0.156757
O38	O	1.331745	-0.548858	0.063513
C39	C	0.563042	-0.010783	0.014902
C40	C	0.483737	-0.023592	0.030935
C41	C	0.503393	-0.101066	0.127918
C42	C	0.582702	-0.088260	0.111896
C43	C	0.612520	-0.043118	0.055386
C44	C	0.632180	-0.120595	0.152380
C45	C	0.711482	-0.107793	0.136356
C46	C	0.741305	-0.062656	0.079848
C47	C	0.691821	-0.030316	0.039362
C48	C	0.602360	-0.165741	0.208886
C49	C	0.651838	-0.198077	0.249370
C50	C	0.731142	-0.185270	0.233350
C51	C	0.760966	-0.140133	0.176842
C52	C	0.780626	-0.217610	0.273836
C53	C	0.859927	-0.204808	0.257812
C54	C	0.840267	-0.127331	0.160818
C55	C	1.369510	-0.082330	0.104463
C56	C	1.453914	-0.068727	0.087430
C57	C	1.211531	-0.066133	0.342501
C58	C	1.228614	-0.045628	0.426905
C59	C	1.171483	0.091488	0.144386
C60	C	1.171503	0.180809	0.144365
C61	C	1.131554	-0.162118	-0.052870
C62	C	1.114618	-0.182377	-0.137304
C63	C	1.041954	-0.269549	0.753555
C64	C	1.058023	-0.250269	0.832862
C65	C	1.155164	-0.133735	0.813229
C66	C	1.139102	-0.153003	0.733919
C67	C	1.082496	-0.220912	0.704088
C68	C	1.179644	-0.104366	0.684452
C69	C	1.163585	-0.123635	0.605149
C70	C	1.106984	-0.191542	0.575311
C71	C	1.066437	-0.240181	0.624784
C72	C	1.236253	-0.036461	0.714284
C73	C	1.276795	0.012176	0.664817
C74	C	1.260732	-0.007089	0.585513
C75	C	1.204131	-0.074996	0.555676
C76	C	1.301279	0.041550	0.536040
C77	C	1.285220	0.022280	0.456736
C78	C	1.188072	-0.094265	0.476372
C79	C	1.368755	-0.581538	0.104574
C80	C	1.453163	-0.567903	0.087556
C81	C	1.131355	-0.661483	-0.053656
C82	C	1.114263	-0.681951	-0.138059
C83	C	0.973398	-0.645493	0.184397
C84	C	0.888996	-0.659147	0.201438
C85	C	1.211359	-0.565662	0.341710
C86	C	1.228238	-0.545379	0.426155
C87	C	1.502619	-0.600228	0.128076
C88	C	1.581929	-0.587432	0.112085
C89	C	1.611782	-0.542305	0.055578
C90	C	1.562319	-0.509979	0.015054
C91	C	1.483010	-0.522781	0.031041
C92	C	1.057681	-0.749866	-0.167908
C93	C	1.041607	-0.769101	-0.247210
C94	C	1.082120	-0.720422	-0.296662
C95	C	1.138705	-0.652499	-0.266807
C96	C	1.154774	-0.633263	-0.187506
C97	C	0.859175	-0.603332	0.258020
C98	C	0.779870	-0.616145	0.274033
C99	C	0.730387	-0.684777	0.233466
C100	C	0.760212	-0.740595	0.176878
C101	C	0.839515	-0.727778	0.160862
C102	C	1.187930	-0.492851	0.475529
C103	C	1.203775	-0.473795	0.554877
C104	C	1.259933	-0.507263	0.584848
C105	C	1.300242	-0.559798	0.535468
C106	C	1.284392	-0.578858	0.456123
H107	H	0.864548	-0.090558	0.114814
O108	O	1.688848	-0.529915	0.040175
C109	C	1.726088	-0.568144	0.088049
H110	H	1.689342	-0.575853	0.141614
H111	H	1.734058	-0.630678	0.055043
C112	C	1.850770	-0.505548	0.046783
C113	C	1.805641	-0.515009	0.112576
H114	H	1.899844	-0.472775	0.061910
H115	H	1.825682	-0.479795	0.014527
H116	H	1.857404	-0.557664	0.019285
H117	H	1.799000	-0.462895	0.140067
H118	H	1.830731	-0.540753	0.144837
O119	O	1.323537	-0.629973	0.408255
C120	C	1.310243	-0.706625	0.430898
H121	H	1.292524	-0.698947	0.494322
H122	H	1.262085	-0.750013	0.394001
C123	C	1.406476	-0.751549	0.341904
C124	C	1.384719	-0.742117	0.419803
H125	H	1.452414	-0.773445	0.335057
H126	H	1.415431	-0.699908	0.326646
H127	H	1.366338	-0.787704	0.311165
H128	H	1.424852	-0.705956	0.450540
H129	H	1.375773	-0.793754	0.435066
H130	H	1.478325	-0.636973	0.174091
H131	H	1.586638	-0.473236	-0.030955
H132	H	1.347372	0.096836	0.560339
H133	H	0.805878	-0.052236	0.066801
H134	H	0.665814	-0.695202	0.246511
H135	H	0.443454	0.002749	-0.002032
H136	H	1.322885	0.067465	0.689116
O137	O	1.434902	-0.491335	-0.008201
C138	C	1.397788	-0.437320	0.044323
H139	H	1.397534	-0.453152	0.104244
H140	H	1.430049	-0.371899	0.046558
C141	C	1.314320	-0.425859	-0.055861
C142	C	1.314003	-0.445309	0.017734
H143	H	1.262638	-0.430783	-0.072263
H144	H	1.339326	-0.462247	-0.091248
H145	H	1.341208	-0.371343	-0.053989
H146	H	1.287123	-0.499827	0.015858
H147	H	1.288990	-0.408929	0.053120
O148	O	0.907294	-0.536630	0.297308
C149	C	0.944386	-0.488740	0.244829
H150	H	0.944627	-0.528599	0.184878
H151	H	0.912114	-0.437257	0.242665
C152	C	1.027873	-0.403177	0.345041
C153	C	1.028176	-0.452133	0.271410
H154	H	1.079558	-0.380593	0.361439
H155	H	1.002883	-0.435439	0.380399
H156	H	1.000976	-0.360281	0.343229
H157	H	1.055064	-0.495034	0.273225
H158	H	1.053173	-0.419878	0.236053
H159	H	0.627549	-0.234834	0.295378
H160	H	1.622192	-0.613756	0.145091
O161	O	1.018225	-0.797223	-0.119982
C162	C	0.964851	-0.861296	-0.163350
H163	H	0.950771	-0.843117	-0.219339
H164	H	0.990960	-0.918756	-0.177419
C165	C	0.907595	-0.900554	-0.047320
C166	C	0.890296	-0.878223	-0.116084
H167	H	0.861607	-0.910999	-0.018164
H168	H	0.943555	-0.857389	-0.018102
H169	H	0.929353	-0.948434	-0.059054
H170	H	0.868547	-0.830338	-0.104349
H171	H	0.854330	-0.921381	-0.145299
H172	H	0.716103	0.006457	-0.006642
H173	H	1.020325	-0.295463	0.600499
H174	H	0.756335	-0.254370	0.319840
H175	H	0.995530	-0.824408	-0.271506
H176	H	0.587323	0.025990	-0.031103
H177	H	1.069028	-0.736096	-0.361233
H178	H	0.900214	-0.231137	0.290779
O179	O	0.712037	-0.807241	0.137573
C180	C	0.635649	-0.806565	0.163840
H181	H	0.636696	-0.768259	0.224632
H182	H	0.604011	-0.779124	0.123355
C183	C	0.592247	-0.941688	0.090434
C184	C	0.593532	-0.894646	0.165103
H185	H	0.566266	-0.996020	0.091210
H186	H	0.643710	-0.942143	0.072735
H187	H	0.565883	-0.918811	0.056705
H188	H	0.619904	-0.917517	0.198828
H189	H	0.542072	-0.894197	0.182808
O190	O	0.751041	-0.561862	0.329056
C191	C	0.811726	-0.498537	0.361416
H192	H	0.868788	-0.521082	0.352611
H193	H	0.814524	-0.444003	0.331930
C194	C	0.727066	-0.444889	0.459305
C195	C	0.797151	-0.472581	0.448496
H196	H	0.718075	-0.428874	0.513019
H197	H	0.686181	-0.487550	0.437502
H198	H	0.729407	-0.399447	0.434728
H199	H	0.794806	-0.518028	0.473064
H200	H	0.838036	-0.429927	0.470305
O201	O	1.164496	-0.422833	0.602769
C202	C	1.084781	-0.456479	0.598458
H203	H	1.071490	-0.500934	0.541148
H204	H	1.067815	-0.490320	0.648193
C205	C	1.054901	-0.332865	0.674371
C206	C	1.038576	-0.387460	0.603978
H207	H	1.026399	-0.290292	0.677779
H208	H	1.108607	-0.310197	0.677278
H209	H	1.040763	-0.361075	0.715809
H210	H	1.052724	-0.359252	0.562542
H211	H	0.984872	-0.410121	0.601064
O212	O	1.275257	-0.488627	0.661939
C213	C	1.227621	-0.435100	0.699086
H214	H	1.208171	-0.401586	0.655496
H215	H	1.174816	-0.471614	0.724186
C216	C	1.297080	-0.413739	0.818179
C217	C	1.273196	-0.372572	0.764642
H218	H	1.325190	-0.375171	0.858619
H219	H	1.329171	-0.449804	0.793154
H220	H	1.253070	-0.444166	0.839087
H221	H	1.317206	-0.342155	0.743728
H222	H	1.241113	-0.336501	0.789665
H223	H	0.537787	-0.176163	0.221930
O224	O	1.354793	-0.592205	0.564711
C225	C	1.360118	-0.564125	0.645333
H226	H	1.337821	-0.504412	0.661147
H227	H	1.323830	-0.611835	0.675886
C228	C	1.472459	-0.623006	0.651341
C229	C	1.445080	-0.549662	0.670763
H230	H	1.524867	-0.614087	0.667029
H231	H	1.468870	-0.641927	0.597025
H232	H	1.442212	-0.662757	0.676804
H233	H	1.475320	-0.509915	0.645293
H234	H	1.448675	-0.530733	0.725076
O235	O	1.132996	-0.160144	0.447379
C236	C	1.074677	-0.134298	0.411378
H237	H	1.074836	-0.067122	0.436200
H238	H	1.085983	-0.142410	0.346533
C239	C	0.995290	-0.268360	0.395628
C240	C	0.995481	-0.185855	0.426120
H241	H	0.946438	-0.300164	0.404718
H242	H	1.034582	-0.285774	0.419880
H243	H	1.004715	-0.275108	0.341593
H244	H	0.986065	-0.179106	0.480155
H245	H	0.956185	-0.168440	0.401877
H246	H	0.863788	-0.773235	0.114790
H247	H	0.479104	-0.137823	0.173926
H248	H	1.171686	-0.612870	-0.307083
H249	H	1.142204	-0.465589	0.451137
H250	H	1.093913	-0.207232	0.510736
H251	H	1.200852	-0.577962	-0.163210
H252	H	0.995842	-0.324831	0.729269
H253	H	1.201255	-0.078446	0.837528
O254	O	1.018655	-0.297639	0.880827
C255	C	1.031326	-0.378284	0.858133
H256	H	1.048855	-0.389209	0.794659
H257	H	1.079401	-0.387712	0.894890
C258	C	0.935018	-0.425465	0.947391
C259	C	0.956541	-0.438886	0.869430
H260	H	0.888889	-0.462848	0.954363
H261	H	0.926483	-0.371133	0.962683
H262	H	0.975086	-0.433321	0.978013
H263	H	0.916477	-0.431020	0.838810
H264	H	0.965068	-0.493219	0.854133
O265	O	1.251859	-0.017883	0.791318
C266	C	1.276724	-0.083893	0.813895
H267	H	1.254481	-0.142524	0.770829
H268	H	1.342580	-0.071997	0.815241
C269	C	1.272290	-0.020855	0.947807
C270	C	1.244965	-0.092868	0.894916
H271	H	1.252703	-0.026389	0.997785
H272	H	1.255540	0.023619	0.932597
H273	H	1.327168	-0.010949	0.948919
H274	H	1.190088	-0.102766	0.893796
H275	H	1.261704	-0.137343	0.910127
H276	H	1.318232	0.061887	0.416459
