data_functionalizedCrystal
_audit_creation_method	'MofGen! by Chris Wilmer'
_symmetry_space_group_name_H-M	'P1'
_symmetry_Int_Tables_number	1
_symmetry_cell_setting	triclinic
loop_
_symmetry_equiv_pos_as_xyz
  x,y,z
_cell_length_a	19.319731
_cell_length_b	19.318970
_cell_length_c	19.315557
_cell_angle_alpha	60.007379
_cell_angle_beta	60.014690
_cell_angle_gamma	59.991495
loop_
_atom_site_label
_atom_site_type_symbol
_atom_site_fract_x
_atom_site_fract_y
_atom_site_fract_z
O1	O	0.095954	-1.011347	0.845684
O2	O	0.036156	-0.787405	0.681392
O3	O	0.177960	-0.929104	0.681276
O4	O	-0.045850	-0.869648	0.845799
O5	O	0.225008	-0.882072	0.728208
O6	O	0.083204	-0.740373	0.728324
O7	O	0.143002	-0.964315	0.892616
Cu8	Cu	0.117399	-0.848050	0.814755
Cu9	Cu	0.061759	-0.903670	0.759252
O10	O	0.001198	-0.822616	0.892732
N11	N	0.156535	-0.808935	0.853797
N12	N	0.022631	-0.942793	0.720211
C13	C	0.182113	-0.653200	0.879374
C14	C	0.182221	-0.783395	1.009518
C15	C	0.312319	-0.783375	0.879314
C16	C	0.182127	-0.783371	0.879357
C17	C	0.214696	-0.750836	0.911890
C18	C	-0.132988	-0.968144	0.694232
C19	C	-0.002674	-0.968326	0.564242
C20	C	-0.002907	-1.098444	0.694459
C21	C	-0.002887	-0.968321	0.694542
C22	C	-0.035363	-1.000810	0.661869
N23	N	0.389025	-0.808944	0.853717
O24	O	0.660019	-0.816766	0.651282
O25	O	0.660312	-0.981573	0.874999
O26	O	0.660193	-0.981192	0.733108
O27	O	0.660138	-0.817147	0.793174
O28	O	0.519202	-0.934278	0.780210
O29	O	0.519321	-0.934658	0.922102
O30	O	0.519028	-0.769852	0.698384
Cu31	Cu	0.506300	-0.847971	0.814544
Cu32	Cu	0.673039	-0.903453	0.758840
O33	O	0.519147	-0.770232	0.840276
N34	N	0.790314	-0.942480	0.719658
N35	N	0.156514	-0.576494	0.853827
O36	O	-0.045823	-0.305328	0.845846
O37	O	0.177892	-0.305317	0.681053
O38	O	0.035967	-0.305340	0.681465
O39	O	0.096102	-0.305306	0.845434
O40	O	0.083020	-0.446347	0.728459
O41	O	0.224945	-0.446325	0.728047
O42	O	0.001230	-0.446335	0.892839
Cu43	Cu	0.117383	-0.459205	0.814734
Cu44	Cu	0.061738	-0.292448	0.759159
O45	O	0.143154	-0.446313	0.892428
N46	N	0.022597	-0.175159	0.720067
N47	N	0.156703	-0.808977	1.086224
O48	O	0.148753	-1.011298	1.357359
O49	O	-0.016009	-0.787491	1.357400
O50	O	-0.015627	-0.929387	1.357339
O51	O	0.148372	-0.869401	1.357420
O52	O	0.031342	-0.882367	1.216340
O53	O	0.030961	-0.740471	1.216400
O54	O	0.195723	-0.964278	1.216360
Cu55	Cu	0.117631	-0.848081	1.203506
Cu56	Cu	0.062083	-0.903688	1.370254
O57	O	0.195341	-0.822381	1.216420
N58	N	0.023010	-0.942801	1.487536
C59	C	0.054075	-0.735670	0.682223
C60	C	0.229681	-0.911148	0.682079
C61	C	0.125082	-1.016051	0.891784
C62	C	-0.050524	-0.840572	0.891928
C63	C	0.589851	-0.980810	0.926735
C64	C	0.589706	-0.980340	0.751019
C65	C	0.589484	-0.770613	0.646650
C66	C	0.589634	-0.771085	0.822364
C67	C	0.229543	-0.375646	0.681799
C68	C	0.053845	-0.375847	0.682366
C69	C	-0.050480	-0.375832	0.892036
C70	C	0.125277	-0.375807	0.891527
C71	C	-0.015214	-0.735785	1.286905
C72	C	-0.014732	-0.911497	1.286802
C73	C	0.194928	-1.015984	1.286855
C74	C	0.194457	-0.840261	1.286926
H75	H	0.041301	-0.671339	0.630625
C76	C	0.142331	-1.102954	0.961496
C77	C	0.087383	-1.157691	0.998013
C78	C	0.104632	-1.244595	1.067726
C79	C	0.176829	-1.276762	1.100921
C80	C	0.231781	-1.222023	1.064404
C81	C	0.214532	-1.135120	0.994692
H82	H	0.033935	-1.133881	0.973440
H83	H	0.063953	-1.285116	1.094758
H84	H	0.189597	-1.341093	1.152527
H85	H	0.285229	-1.245834	1.088977
H86	H	0.255212	-1.094599	0.967660
C87	C	0.264066	-0.822932	1.286945
C88	C	0.246712	-0.735982	1.286971
C89	C	0.316321	-0.718653	1.286989
C90	C	0.403284	-0.788273	1.286983
C91	C	0.420642	-0.875229	1.286957
C92	C	0.351033	-0.892558	1.286939
H93	H	0.182334	-0.684440	1.286976
H94	H	0.303472	-0.654283	1.287008
H95	H	0.454813	-0.775445	1.286997
H96	H	0.485020	-0.926771	1.286952
H97	H	0.363882	-0.956929	1.286920
C98	C	-0.137363	-0.823460	0.961727
C99	C	-0.169543	-0.751323	0.995005
C100	C	-0.256382	-0.734212	1.064804
C101	C	-0.311042	-0.789237	1.101325
C102	C	-0.278864	-0.861379	1.068046
C103	C	-0.192025	-0.878491	0.998247
H104	H	-0.129079	-0.710586	0.967970
H105	H	-0.280202	-0.680807	1.089439
H106	H	-0.375326	-0.776570	1.152994
H107	H	-0.319328	-0.902116	1.095081
H108	H	-0.168204	-0.931895	0.973613
H109	H	0.589730	-1.031874	0.738162
C110	C	0.589362	-0.700707	0.559856
C111	C	0.662520	-0.716060	0.478763
C112	C	0.662398	-0.646154	0.391969
C113	C	0.589119	-0.560897	0.386269
C114	C	0.515955	-0.545541	0.467365
C115	C	0.516077	-0.615446	0.554159
H116	H	0.716771	-0.779176	0.482980
H117	H	0.716559	-0.657522	0.331936
H118	H	0.589028	-0.509149	0.322019
H119	H	0.461705	-0.482425	0.463148
H120	H	0.461916	-0.604078	0.614191
H121	H	-0.066941	-0.671507	1.286916
C122	C	0.589609	-0.701462	0.839722
C123	C	0.516333	-0.616200	0.833733
C124	C	0.516308	-0.546577	0.851091
C125	C	0.589558	-0.562216	0.874438
C126	C	0.662839	-0.647481	0.880429
C127	C	0.662864	-0.717104	0.863071
H128	H	0.462105	-0.604620	0.816448
H129	H	0.462060	-0.483458	0.846656
H130	H	0.589539	-0.510676	0.887288
H131	H	0.717067	-0.659061	0.897713
H132	H	0.717112	-0.780223	0.867506
C133	C	0.264814	-1.102817	1.286840
C134	C	0.249429	-1.183872	1.360036
C135	C	0.319314	-1.270705	1.360022
C136	C	0.404585	-1.276482	1.286812
C137	C	0.419974	-1.195424	1.213611
C138	C	0.350088	-1.108591	1.213625
H139	H	0.186303	-1.179598	1.414235
H140	H	0.307922	-1.330709	1.414210
H141	H	0.456318	-1.340761	1.286801
H142	H	0.483100	-1.199698	1.159411
H143	H	0.361481	-1.048587	1.159436
H144	H	0.293660	-0.375252	0.629934
H145	H	0.040966	-0.375849	0.630853
C146	C	-0.137273	-0.375833	0.961931
C147	C	-0.207163	-0.375845	0.945013
C148	C	-0.293956	-0.375846	1.014909
C149	C	-0.310859	-0.375835	1.101722
C150	C	-0.240968	-0.375822	1.118643
C151	C	-0.154175	-0.375821	1.048748
H152	H	-0.194652	-0.375854	0.880746
H153	H	-0.345694	-0.375855	1.002382
H154	H	-0.375109	-0.375835	1.153463
H155	H	-0.253479	-0.375814	1.182911
H156	H	-0.102436	-0.375812	1.061275
H157	H	-0.066232	-0.924309	1.286721
C158	C	0.316519	-0.928262	0.612278
C159	C	0.386318	-1.015136	0.629361
C160	C	0.473155	-1.032250	0.559560
C161	C	0.490194	-0.962490	0.472677
C162	C	0.420393	-0.875609	0.455590
C163	C	0.333556	-0.858496	0.525391
H164	H	0.373707	-1.066783	0.693681
H165	H	0.524827	-1.096565	0.572210
H166	H	0.554476	-0.975158	0.421006
H167	H	0.433004	-0.823963	0.391270
H168	H	0.281884	-0.794181	0.512742
H169	H	0.138154	-0.375795	0.943037
C170	C	0.589959	-1.050711	1.013534
C171	C	0.590002	-1.033770	1.083403
C172	C	0.590110	-1.103671	1.170201
C173	C	0.590176	-1.190512	1.187130
C174	C	0.590133	-1.207457	1.117259
C175	C	0.590025	-1.137556	1.030461
H176	H	0.589954	-0.969481	1.070872
H177	H	0.590142	-1.091127	1.221924
H178	H	0.590256	-1.242257	1.251384
H179	H	0.590181	-1.271746	1.129790
H180	H	0.589993	-1.150101	0.978738
