data_functionalizedCrystal
_audit_creation_method	'MofGen! by Chris Wilmer'
_symmetry_space_group_name_H-M	'P1'
_symmetry_Int_Tables_number	1
_symmetry_cell_setting	triclinic
loop_
_symmetry_equiv_pos_as_xyz
  x,y,z
_cell_length_a	11.792241
_cell_length_b	10.654541
_cell_length_c	9.730217
_cell_angle_alpha	89.996959
_cell_angle_beta	90.002791
_cell_angle_gamma	84.338672
loop_
_atom_site_label
_atom_site_type_symbol
_atom_site_fract_x
_atom_site_fract_y
_atom_site_fract_z
O1	O	1.507300	0.172133	-0.114156
O2	O	1.177000	0.189874	-0.114188
O3	O	1.349746	-0.001757	-0.114163
O4	O	1.334554	0.363765	-0.114181
O5	O	1.349740	-0.001759	0.114417
O6	O	1.176995	0.189872	0.114392
O7	O	1.507295	0.172132	0.114424
Zn8	Zn	1.342144	0.181002	0.150700
Zn9	Zn	1.342151	0.181004	-0.150464
O10	O	1.334549	0.363763	0.114399
C11	C	1.348628	-0.048553	0.000126
C12	C	1.345293	-0.187987	0.000124
C13	C	1.134704	0.188759	0.000098
C14	C	1.008682	0.185423	0.000086
C15	C	1.551857	-0.216542	0.000161
C16	C	1.653568	-0.296324	0.000183
C17	C	1.650427	-0.427333	0.000178
C18	C	1.545564	-0.478562	0.000148
C19	C	1.443854	-0.398780	0.000127
C20	C	1.447006	-0.267770	0.000135
C21	C	1.237292	-0.370225	0.000079
C22	C	1.240430	-0.239216	0.000094
C23	C	1.132429	-0.421454	0.000049
C24	C	1.030716	-0.341672	0.000038
C25	C	1.033861	-0.210655	0.000044
C26	C	1.138720	-0.159434	0.000072
C27	C	0.777956	0.179290	0.000126
C28	C	0.906349	0.182698	0.000104
C29	C	1.549591	0.173247	0.000135
C30	C	1.675612	0.176582	0.000138
C31	C	1.335667	0.410559	0.000107
C32	C	1.339002	0.549993	0.000101
N33	N	1.342147	0.180999	0.356237
N34	N	1.342156	0.180996	-0.356000
C35	C	1.495177	0.011359	0.356250
C36	C	1.571699	-0.073457	0.428196
C37	C	1.571711	-0.073458	0.572076
C38	C	1.495189	0.011365	0.644013
C39	C	1.418667	0.096181	0.572066
C40	C	1.418666	0.096175	0.428183
C41	C	1.265634	0.265813	0.572053
C42	C	1.265626	0.265822	0.428174
C43	C	1.189113	0.350635	0.643990
C44	C	1.112594	0.435459	0.572044
C45	C	1.112587	0.435457	0.428155
C46	C	1.189104	0.350638	0.356227
H47	H	1.554425	-0.109869	0.000184
O48	O	1.030084	0.526949	0.649637
H49	H	0.976874	0.585934	0.575441
O50	O	1.766668	-0.241075	0.000217
H51	H	1.751772	-0.136573	0.000230
O52	O	1.189132	0.350636	0.799175
H53	H	1.104199	0.329894	0.837124
O54	O	1.542172	-0.619864	0.000125
H55	H	1.496741	-0.648255	0.093274
O56	O	1.030054	0.526942	0.350555
H57	H	0.976857	0.585923	0.424754
O58	O	1.189085	0.350630	0.201042
H59	H	1.255140	0.277392	0.163114
O60	O	1.129045	-0.562757	0.000051
H61	H	1.083652	-0.591141	-0.093131
H62	H	0.945345	-0.383393	0.000004
O63	O	0.924158	-0.124603	0.000032
H64	H	0.850721	-0.182241	0.000022
H65	H	1.495194	0.011348	0.761167
H66	H	1.733248	-0.492293	0.000184
H67	H	1.141291	-0.052761	0.000086
O68	O	1.495163	0.011365	0.201065
H69	H	1.561220	-0.061867	0.163130
H70	H	1.634000	-0.142521	0.369613
O71	O	1.654249	-0.164925	0.649689
H72	H	1.707464	-0.223901	0.575503
