data_functionalizedCrystal
_audit_creation_method	'MofGen! by Chris Wilmer'
_symmetry_space_group_name_H-M	'P1'
_symmetry_Int_Tables_number	1
_symmetry_cell_setting	triclinic
loop_
_symmetry_equiv_pos_as_xyz
  x,y,z
_cell_length_a	17.640280
_cell_length_b	19.077241
_cell_length_c	19.076919
_cell_angle_alpha	90.113904
_cell_angle_beta	81.491119
_cell_angle_gamma	99.396604
loop_
_atom_site_label
_atom_site_type_symbol
_atom_site_fract_x
_atom_site_fract_y
_atom_site_fract_z
Zn1	Zn	-0.282357	-1.111131	-0.391927
Zn2	Zn	0.217643	-0.611131	0.108073
Zn3	Zn	-0.407003	-1.139098	-0.252949
Zn4	Zn	0.092997	-0.639098	0.247051
Zn5	Zn	-0.281947	-0.998270	-0.269775
Zn6	Zn	0.218053	-0.498270	0.230225
Zn7	Zn	-0.417377	-1.018858	-0.363898
Zn8	Zn	0.082623	-0.518858	0.136102
O9	O	-0.347171	-1.066839	-0.319637
O10	O	0.152829	-0.566839	0.180363
O11	O	-0.294721	-1.212394	-0.378180
O12	O	0.205279	-0.712394	0.121820
O13	O	-0.385901	-1.123504	-0.157628
O14	O	0.114099	-0.623504	0.342372
O15	O	-0.173159	-0.992921	-0.304751
O16	O	0.326841	-0.492921	0.195249
O17	O	-0.386298	-1.232941	-0.276074
O18	O	0.113702	-0.732941	0.223926
O19	O	-0.173460	-1.075840	-0.394495
O20	O	0.326540	-0.575840	0.105505
O21	O	-0.294023	-1.020039	-0.169990
O22	O	0.205977	-0.520039	0.330010
O23	O	-0.304082	-0.903448	-0.277572
O24	O	0.195918	-0.403448	0.222428
O25	O	-0.403979	-1.028011	-0.465169
O26	O	0.096021	-0.528011	0.034831
O27	O	-0.403582	-0.918574	-0.346723
O28	O	0.096418	-0.418574	0.153277
O29	O	-0.304781	-1.095803	-0.485762
O30	O	0.195219	-0.595803	0.014238
O31	O	-0.517221	-1.143468	-0.248895
O32	O	-0.017221	-0.643468	0.251105
O33	O	-0.524843	-1.055129	-0.330408
O34	O	-0.024843	-0.555129	0.169592
C35	C	-0.354914	-0.885717	-0.310932
C36	C	0.145086	-0.385717	0.189068
C37	C	-0.358246	-0.808235	-0.307222
C38	C	0.141754	-0.308235	0.192778
C39	C	-0.312215	-0.761149	-0.358694
C40	C	0.187785	-0.261149	0.141306
C41	C	-0.315341	-0.688346	-0.355202
C42	C	0.184659	-0.188346	0.144798
C43	C	-0.364504	-0.662630	-0.300240
C44	C	0.135496	-0.162630	0.199760
C45	C	-0.410538	-0.709722	-0.248762
C46	C	0.089462	-0.209722	0.251238
C47	C	-0.407406	-0.782523	-0.252252
C48	C	0.092594	-0.282523	0.247748
C49	C	-0.378970	-0.446044	-0.284094
C50	C	0.121030	0.053956	0.215906
C51	C	-0.382099	-0.373238	-0.280609
C52	C	0.117901	0.126762	0.219391
C53	C	-0.286902	-0.351867	-0.387049
C54	C	0.213098	0.148133	0.112951
C55	C	-0.283778	-0.424671	-0.390536
C56	C	0.216222	0.075329	0.109464
C57	C	-0.329808	-0.471755	-0.339056
C58	C	0.170192	0.028245	0.160944
N59	N	-0.367703	-0.588214	-0.296671
N60	N	0.132297	-0.088214	0.203329
N61	N	-0.326605	-0.546169	-0.342624
N62	N	0.173395	-0.046169	0.157376
C63	C	-0.549254	-1.104586	-0.284800
C64	C	-0.049254	-0.604586	0.215200
C65	C	-0.635704	-1.120797	-0.269923
C66	C	-0.135704	-0.620797	0.230077
C67	C	-0.940003	-0.943964	-0.432924
C68	C	-0.440003	-0.443964	0.067076
C69	C	-1.021235	-0.959199	-0.418923
C70	C	-0.521235	-0.459199	0.081077
C71	C	-1.013235	-1.051239	-0.334136
C72	C	-0.513235	-0.551239	0.165864
C73	C	-0.932000	-1.036014	-0.348132
C74	C	-0.432000	-0.536014	0.151868
C75	C	-0.895391	-0.982375	-0.397527
C76	C	-0.395391	-0.482375	0.102473
C77	C	-0.887388	-1.074425	-0.312735
C78	C	-0.387388	-0.574425	0.187265
C79	C	-0.806161	-1.059199	-0.326728
C80	C	-0.306161	-0.559199	0.173272
C81	C	-0.769546	-1.005561	-0.376119
C82	C	-0.269546	-0.505561	0.123881
C83	C	-0.814164	-0.967149	-0.411520
C84	C	-0.314164	-0.467149	0.088480
C85	C	-0.923999	-1.128060	-0.263337
C86	C	-0.423999	-0.628060	0.236663
C87	C	-0.879387	-1.166472	-0.227940
C88	C	-0.379387	-0.666472	0.272060
C89	C	-0.798158	-1.151249	-0.241937
C90	C	-0.298158	-0.651249	0.258063
C91	C	-0.761543	-1.097612	-0.291327
C92	C	-0.261543	-0.597612	0.208673
C93	C	-0.753540	-1.189662	-0.206536
C94	C	-0.253540	-0.689662	0.293464
C95	C	-0.672313	-1.174435	-0.220529
C96	C	-0.172313	-0.674435	0.279471
C97	C	-0.680316	-1.082385	-0.305320
C98	C	-0.180316	-0.582385	0.194680
C99	C	-0.144299	-1.028964	-0.354627
C100	C	0.355701	-0.528964	0.145373
C101	C	-0.057847	-1.012824	-0.369537
C102	C	0.442153	-0.512824	0.130463
C103	C	-0.355583	-1.061084	-0.501467
C104	C	0.144417	-0.561084	-0.001467
C105	C	-0.359168	-1.058631	-0.578952
C106	C	0.140832	-0.558631	-0.078952
C107	C	-0.339394	-0.248669	-0.328372
C108	C	0.160606	0.251331	0.171628
C109	C	-0.336068	-0.326152	-0.332082
C110	C	0.163932	0.173848	0.167918
C111	C	-0.309207	-1.092773	-0.626077
C112	C	0.190793	-0.592773	-0.126077
C113	C	-0.312573	-1.090460	-0.698883
C114	C	0.187427	-0.590460	-0.198883
C115	C	-0.365904	-1.054008	-0.724562
C116	C	0.134096	-0.554008	-0.224562
C117	C	-0.415867	-1.019862	-0.677431
C118	C	0.084133	-0.519862	-0.177431
C119	C	-0.412497	-1.022172	-0.604627
C120	C	0.087503	-0.522172	-0.104627
C121	C	-0.381517	-1.043312	-0.941151
C122	C	0.118483	-0.543312	-0.441151
C123	C	-0.384885	-1.041007	-1.013961
C124	C	0.115115	-0.541007	-0.513961
C125	C	-0.281590	-1.111603	-1.035408
C126	C	0.218410	-0.611603	-0.535408
C127	C	-0.278227	-1.113913	-0.962601
C128	C	0.221773	-0.613913	-0.462601
C129	C	-0.328188	-1.079764	-0.915478
C130	C	0.171812	-0.579764	-0.415478
N131	N	-0.369347	-1.051645	-0.798980
N132	N	0.130653	-0.551645	-0.298980
N133	N	-0.324740	-1.082124	-0.841061
N134	N	0.175260	-0.582124	-0.341061
C135	C	-0.338734	-1.072602	-0.138526
C136	C	0.161266	-0.572602	0.361474
C137	C	-0.334924	-1.075149	-0.061086
C138	C	0.165076	-0.575149	0.438914
H139	H	-0.444889	-0.820860	-0.210337
H140	H	0.055111	-0.320860	0.289663
Br141	Br	-0.659308	-0.985066	-0.395297
Br142	Br	-0.159308	-0.485066	0.104703
H143	H	-0.784355	-0.923476	-0.451747
H144	H	-0.284355	-0.423476	0.048253
Br145	Br	-0.244800	-1.136836	-0.762832
Br146	Br	0.255200	-0.636836	-0.262832
H147	H	-0.234802	-1.143598	-0.941700
H148	H	0.265198	-0.643598	-0.441700
H149	H	-0.650507	-1.038712	-0.345548
H150	H	-0.150507	-0.538712	0.154452
Br151	Br	-0.890311	-0.871176	-0.499969
Br152	Br	-0.390311	-0.371176	0.000031
Br153	Br	-1.081779	-0.907052	-0.466956
Br154	Br	-0.581779	-0.407052	0.033044
Br155	Br	-1.062926	-1.124032	-0.267103
Br156	Br	-0.562926	-0.624032	0.232897
H157	H	-0.428315	-1.011322	-1.034865
H158	H	0.071685	-0.511322	-0.534865
H159	H	-0.990140	-1.140457	-0.251948
H160	H	-0.490140	-0.640457	0.248052
H161	H	-0.909206	-1.210142	-0.187721
H162	H	-0.409206	-0.710142	0.312279
H163	H	-0.240914	-1.139405	-1.073784
H164	H	0.259086	-0.639405	-0.573784
Br165	Br	-0.803234	-1.262448	-0.139496
Br166	Br	-0.303234	-0.762448	0.360504
H167	H	-0.422209	-1.015518	-0.902790
H168	H	0.077791	-0.515518	-0.402790
H169	H	-0.635989	-1.205713	-0.191704
H170	H	-0.135989	-0.705713	0.308296
Br171	Br	-0.217062	-0.459566	-0.465136
Br172	Br	0.282938	0.040434	0.034864
H173	H	-0.422137	-0.352304	-0.235851
H174	H	0.077863	0.147696	0.264149
Br175	Br	-0.236832	-1.142252	-0.591235
Br176	Br	0.263168	-0.642252	-0.091235
H177	H	-0.459287	-0.990180	-0.698345
H178	H	0.040713	-0.490180	-0.198345
H179	H	-0.453173	-0.994361	-0.566259
H180	H	0.046827	-0.494361	-0.066259
H181	H	-0.416452	-0.484372	-0.242176
H182	H	0.083548	0.015628	0.257824
Br183	Br	-0.224435	-0.287964	-0.456910
Br184	Br	0.275565	0.212036	0.043090
Br185	Br	-0.252868	-0.624446	-0.425061
Br186	Br	0.247132	-0.124446	0.074939
Br187	Br	-0.245496	-0.796042	-0.433293
Br188	Br	0.254504	-0.296042	0.066707
Br189	Br	-0.477253	-0.674822	-0.174165
Br190	Br	0.022747	-0.174822	0.325835
