data_functionalizedCrystal
_audit_creation_method	'MofGen! by Chris Wilmer'
_symmetry_space_group_name_H-M	'P1'
_symmetry_Int_Tables_number	1
_symmetry_cell_setting	triclinic
loop_
_symmetry_equiv_pos_as_xyz
  x,y,z
_cell_length_a	8.559649
_cell_length_b	14.519709
_cell_length_c	7.681481
_cell_angle_alpha	84.246308
_cell_angle_beta	94.913240
_cell_angle_gamma	76.729405
loop_
_atom_site_label
_atom_site_type_symbol
_atom_site_fract_x
_atom_site_fract_y
_atom_site_fract_z
O1	O	2.104962	-0.021482	-0.146399
O2	O	1.639893	0.026136	-0.146411
O3	O	1.884759	-0.132798	-0.146389
O4	O	1.860095	0.137451	-0.146421
O5	O	1.914898	-0.152399	0.146471
O6	O	1.670032	0.006535	0.146450
O7	O	2.135101	-0.041084	0.146461
Zn8	Zn	1.907351	-0.020387	0.192953
Zn9	Zn	1.867642	0.005439	-0.192903
O10	O	1.890234	0.117850	0.146439
C11	C	1.595442	0.019944	0.000018
C12	C	1.418093	0.030686	0.000014
C13	C	1.898680	-0.176876	0.000042
C14	C	1.895236	-0.279010	0.000042
C15	C	1.882552	-0.652993	-0.000004
C16	C	1.886074	-0.548938	0.000010
C17	C	1.888894	-0.466005	0.000021
C18	C	1.892416	-0.361944	0.000031
C19	C	2.179550	-0.034892	0.000028
C20	C	2.356899	-0.045633	0.000021
C21	C	1.876313	0.161928	0.000005
C22	C	1.879756	0.264063	-0.000008
N23	N	1.934464	-0.038014	0.456290
N24	N	1.840542	0.023058	-0.456240
H25	H	1.440186	-0.119190	0.000021
H26	H	1.334795	0.104249	-0.000004
H27	H	1.744668	0.085394	0.468555
O28	O	2.048767	-0.112494	0.545815
C29	C	2.147285	-0.283214	0.602656
C30	C	2.017764	-0.198956	0.501128
H31	H	2.122245	-0.353140	0.566592
H32	H	2.271650	-0.278008	0.566453
H33	H	2.143784	-0.280868	0.750200
H34	H	2.021117	-0.201250	0.353561
H35	H	1.893458	-0.204193	0.537477
