data_functionalizedCrystal
_audit_creation_method	'MofGen! by Chris Wilmer'
_symmetry_space_group_name_H-M	'P1'
_symmetry_Int_Tables_number	1
_symmetry_cell_setting	triclinic
loop_
_symmetry_equiv_pos_as_xyz
  x,y,z
_cell_length_a	6.817900
_cell_length_b	17.982968
_cell_length_c	17.110477
_cell_angle_alpha	96.532153
_cell_angle_beta	99.060298
_cell_angle_gamma	102.451960
loop_
_atom_site_label
_atom_site_type_symbol
_atom_site_fract_x
_atom_site_fract_y
_atom_site_fract_z
V1	V	-3.992902	-0.237450	-0.110224
V2	V	-3.492902	0.262550	0.389776
O3	O	-4.003734	-0.233031	0.004534
O4	O	-3.503734	0.266969	0.504534
O5	O	-3.922842	-0.235728	-0.217821
O6	O	-3.422842	0.264272	0.282179
O7	O	-3.939683	-0.341054	-0.108863
O8	O	-3.439683	0.158946	0.391137
O9	O	-3.986777	-0.126976	-0.105179
O10	O	-3.486777	0.373024	0.394821
V11	V	-4.479960	-0.224248	-0.096458
V12	V	-3.979960	0.275752	0.403542
O13	O	-4.246404	-0.266409	-0.140420
O14	O	-3.746404	0.233591	0.359580
O15	O	-4.676656	-0.195289	-0.066261
O16	O	-4.176656	0.304711	0.433739
O17	O	-4.326813	-0.225969	0.011140
O18	O	-3.826813	0.274031	0.511140
O19	O	-4.586525	-0.228667	-0.211215
O20	O	-4.086525	0.271333	0.288785
O21	O	-4.603482	-0.334721	-0.101502
O22	O	-4.103482	0.165279	0.398498
O23	O	-4.309973	-0.120644	-0.097818
O24	O	-3.809973	0.379356	0.402182
C25	C	-3.762730	-0.231957	-0.244041
C26	C	-3.262730	0.268043	0.255959
C27	C	-3.786703	-0.231241	-0.332005
C28	C	-3.286703	0.268759	0.167995
C29	C	-3.784211	-0.366310	-0.105052
C30	C	-3.284211	0.133690	0.394948
C31	C	-3.821839	-0.451006	-0.104652
C32	C	-3.321839	0.048994	0.395348
C33	C	-4.020639	-0.494674	-0.108429
C34	C	-3.520639	0.005326	0.391571
C35	C	-4.055982	-0.574255	-0.108052
C36	C	-3.555982	-0.074255	0.391948
C37	C	-3.892525	-0.610167	-0.103903
C38	C	-3.392525	-0.110167	0.396097
C39	C	-3.693708	-0.566493	-0.100124
C40	C	-3.193708	-0.066493	0.399876
C41	C	-3.658365	-0.486912	-0.100495
C42	C	-3.158365	0.013088	0.399505
C43	C	-3.836237	-0.887431	-0.098625
C44	C	-3.336237	-0.387431	0.401375
C45	C	-3.871597	-0.967018	-0.098257
C46	C	-3.371597	-0.467018	0.401743
C47	C	-4.233854	-0.974774	-0.106182
C48	C	-3.733854	-0.474774	0.393818
C49	C	-4.198511	-0.895194	-0.106553
C50	C	-3.698511	-0.395194	0.393447
C51	C	-3.999697	-0.851525	-0.102769
C52	C	-3.499697	-0.351525	0.397231
C53	C	-3.961375	-0.765235	-0.103177
C54	C	-3.461375	-0.265235	0.396823
C55	C	-3.930846	-0.696458	-0.103502
C56	C	-3.430846	-0.196458	0.396498
C57	C	-3.979072	-0.234701	-0.377373
C58	C	-3.479072	0.265299	0.122627
C59	C	-4.001588	-0.234032	-0.460026
C60	C	-3.501588	0.265968	0.039974
C61	C	-3.831729	-0.229897	-0.497308
C62	C	-3.331729	0.270103	0.002692
C63	C	-3.639345	-0.226440	-0.451934
C64	C	-3.139345	0.273560	0.048066
C65	C	-3.616834	-0.227114	-0.369284
C66	C	-3.116834	0.272886	0.130716
C67	C	-3.890637	-0.227676	-0.746657
C68	C	-3.390637	0.272324	-0.246657
C69	C	-3.913162	-0.227000	-0.829313
C70	C	-3.413162	0.273000	-0.329313
C71	C	-4.275405	-0.234593	-0.837399
C72	C	-3.775405	0.265407	-0.337399
C73	C	-4.252875	-0.235263	-0.754746
C74	C	-3.752875	0.264737	-0.254746
C75	C	-4.060497	-0.231809	-0.709380
C76	C	-3.560497	0.268191	-0.209380
C77	C	-3.854738	-0.229211	-0.581792
C78	C	-3.354738	0.270789	-0.081792
C79	C	-4.037493	-0.232501	-0.624899
C80	C	-3.537493	0.267499	-0.124899
C81	C	-4.150267	-0.229738	0.037355
C82	C	-3.650267	0.270262	0.537355
C83	C	-4.105532	-0.230460	0.125319
C84	C	-3.605532	0.269540	0.625319
C85	C	-4.128786	-0.095384	-0.101631
C86	C	-3.628786	0.404616	0.398369
C87	C	-4.070398	-0.010687	-0.102028
C88	C	-3.570398	0.489313	0.397972
H89	H	-4.153751	-0.465442	-0.111812
H90	H	-3.653751	0.034558	0.388188
H91	H	-3.674366	-0.851890	-0.095572
H92	H	-3.174366	-0.351890	0.404428
H93	H	-4.395740	-1.010338	-0.109260
H94	H	-3.895740	-0.510338	0.390740
C95	C	-3.726309	-0.222455	-0.870322
C96	C	-3.226309	0.277545	-0.370322
H97	H	-3.608513	-0.220501	-0.831468
H98	H	-3.108513	0.279499	-0.331468
H99	H	-3.705487	-0.177404	-0.895025
H100	H	-3.205487	0.322596	-0.395025
H101	H	-3.749651	-0.266668	-0.909767
H102	H	-3.249651	0.233332	-0.409767
H103	H	-3.738478	-0.996254	-0.094877
H104	H	-3.238478	-0.496254	0.405123
H105	H	-3.501046	-0.223078	-0.482297
H106	H	-3.001046	0.276922	0.017703
H107	H	-4.217860	-0.609806	-0.111123
H108	H	-3.717860	-0.109806	0.388877
H109	H	-4.175792	-0.235871	-0.594541
H110	H	-3.675792	0.264129	-0.094541
H111	H	-3.460190	-0.224300	-0.332347
H112	H	-2.960190	0.275700	0.167653
H113	H	-3.560620	-0.595738	-0.096741
H114	H	-3.060620	-0.095738	0.403259
H115	H	-4.391200	-0.238635	-0.724398
H116	H	-3.891200	0.261365	-0.224398
C117	C	-3.679029	-0.223870	-0.696764
C118	C	-3.179029	0.276130	-0.196764
H119	H	-3.581094	-0.221303	-0.730806
H120	H	-3.081094	0.278697	-0.230806
H121	H	-3.684780	-0.268605	-0.671723
H122	H	-3.184780	0.231395	-0.171723
H123	H	-3.640642	-0.179342	-0.656984
H124	H	-3.140642	0.320658	-0.156984
H125	H	-4.331620	-0.865959	-0.109935
H126	H	-3.831620	-0.365959	0.390065
H127	H	-3.496478	-0.451355	-0.097400
H128	H	-2.996478	0.048645	0.402600
C129	C	-4.165920	-0.239244	-0.336370
C130	C	-3.665920	0.260756	0.163630
H131	H	-4.283715	-0.241214	-0.375231
H132	H	-3.783715	0.258786	0.124769
H133	H	-4.142597	-0.195035	-0.296928
H134	H	-3.642597	0.304965	0.203072
H135	H	-4.186747	-0.284299	-0.311665
H136	H	-3.686747	0.215701	0.188335
H137	H	-4.158233	-0.236850	-0.496962
H138	H	-3.658233	0.263150	0.003038
H139	H	-4.432034	-0.237405	-0.874345
H140	H	-3.932034	0.262595	-0.374345
H141	H	-3.716441	-0.225843	-0.612156
H142	H	-3.216441	0.274157	-0.112156
