data_functionalizedCrystal
_audit_creation_method	'MofGen! by Chris Wilmer'
_symmetry_space_group_name_H-M	'P1'
_symmetry_Int_Tables_number	1
_symmetry_cell_setting	triclinic
loop_
_symmetry_equiv_pos_as_xyz
  x,y,z
_cell_length_a	14.853566
_cell_length_b	16.109301
_cell_length_c	15.186229
_cell_angle_alpha	90.000894
_cell_angle_beta	89.999490
_cell_angle_gamma	83.547947
loop_
_atom_site_label
_atom_site_type_symbol
_atom_site_fract_x
_atom_site_fract_y
_atom_site_fract_z
O1	O	1.196185	0.108541	-0.073161
O2	O	1.696185	0.608541	0.426839
O3	O	0.933704	0.121473	-0.073175
O4	O	1.433704	0.621473	0.426825
O5	O	1.072155	-0.006014	-0.073172
O6	O	1.572155	0.493986	0.426828
O7	O	1.057734	0.236028	-0.073164
O8	O	1.557734	0.736028	0.426836
O9	O	1.072146	-0.006015	0.073285
O10	O	1.572146	0.493985	0.573285
O11	O	0.933695	0.121471	0.073283
O12	O	1.433695	0.621471	0.573283
O13	O	1.196176	0.108540	0.073296
O14	O	1.696176	0.608540	0.573296
Zn15	Zn	1.064934	0.115005	0.096543
Zn16	Zn	1.564934	0.615005	0.596543
Zn17	Zn	1.064946	0.115008	-0.096421
Zn18	Zn	1.564946	0.615008	0.403579
O19	O	1.057724	0.236026	0.073294
O20	O	1.557724	0.736026	0.573294
C21	C	0.900111	0.120886	0.000052
C22	C	1.400111	0.620886	0.500052
C23	C	0.800031	0.119131	0.000047
C24	C	1.300031	0.619131	0.500047
C25	C	0.376863	0.111708	-0.079772
C26	C	0.876863	0.611708	0.420228
C27	C	0.376874	0.111706	0.079901
C28	C	0.876874	0.611706	0.579901
C29	C	0.470906	0.113355	0.079899
C30	C	0.970906	0.613355	0.579899
C31	C	0.517920	0.114181	0.000060
C32	C	1.017920	0.614181	0.500060
C33	C	0.470903	0.113359	-0.079777
C34	C	0.970903	0.613359	0.420223
C35	C	0.517929	0.114185	0.159734
C36	C	1.017929	0.614185	0.659734
C37	C	0.611966	0.115835	0.159734
C38	C	1.111966	0.615835	0.659734
C39	C	0.658982	0.116655	0.079894
C40	C	1.158982	0.616655	0.579894
C41	C	0.611960	0.115832	0.000054
C42	C	1.111960	0.615832	0.500054
C43	C	0.658974	0.116658	-0.079785
C44	C	1.158974	0.616658	0.420215
C45	C	0.611953	0.115829	-0.159626
C46	C	1.111953	0.615829	0.340374
C47	C	0.517919	0.114179	-0.159617
C48	C	1.017919	0.614179	0.340383
C49	C	0.753016	0.118305	0.079886
C50	C	1.253016	0.618305	0.579886
C51	C	0.753013	0.118309	-0.079790
C52	C	1.253013	0.618309	0.420210
C53	C	1.071566	-0.036990	0.000054
C54	C	1.571566	0.463010	0.500054
C55	C	1.069815	-0.129288	0.000044
C56	C	1.569815	0.370712	0.500044
C57	C	1.229768	0.109126	0.000067
C58	C	1.729768	0.609126	0.500067
C59	C	1.329849	0.110882	0.000067
C60	C	1.829849	0.610882	0.500067
C61	C	1.058313	0.267003	0.000066
C62	C	1.558313	0.767003	0.500066
C63	C	1.060065	0.359301	0.000070
C64	C	1.560065	0.859301	0.500070
N65	N	1.064932	0.115003	0.228235
N66	N	1.564932	0.615003	0.728235
C67	C	0.981983	0.581464	0.000053
C68	C	1.481983	1.081464	0.500053
C69	C	0.983635	0.668186	0.000046
C70	C	1.483635	1.168186	0.500046
C71	C	1.147903	0.648542	0.000059
C72	C	1.647903	1.148542	0.500059
C73	C	1.146249	0.561821	0.000059
C74	C	1.646249	1.061821	0.500059
C75	C	1.063287	0.528284	0.000060
C76	C	1.563287	1.028284	0.500060
C77	C	1.066593	0.701728	0.000054
C78	C	1.566593	1.201728	0.500054
C79	C	1.068385	0.795757	0.000046
C80	C	1.568385	1.295757	0.500046
C81	C	1.061494	0.434250	0.000066
C82	C	1.561494	0.934250	0.500066
N83	N	1.064955	0.115003	-0.228114
N84	N	1.564955	0.615003	0.271886
C85	C	1.126259	0.058571	0.453959
C86	C	1.626259	0.558571	0.953959
C87	C	1.126262	0.058569	0.546149
C88	C	1.626262	0.558569	1.046149
C89	C	1.003621	0.171438	0.546156
C90	C	1.503621	0.671438	1.046156
C91	C	1.003615	0.171435	0.453968
C92	C	1.503615	0.671435	0.953968
C93	C	1.064939	0.115003	0.407872
C94	C	1.564939	0.615003	0.907872
C95	C	1.064948	0.115003	0.592250
C96	C	1.564948	0.615003	1.092250
C97	C	1.064951	0.115002	0.692206
C98	C	1.564951	0.615002	1.192206
C99	C	1.064935	0.115003	0.307910
C100	C	1.564935	0.615003	0.807910
H101	H	0.479627	0.113503	-0.224619
H102	H	0.979627	0.613503	0.275381
H103	H	0.791295	0.118988	0.144891
H104	H	1.291295	0.618988	0.644891
H105	H	0.479642	0.113518	0.224735
H106	H	0.979642	0.613518	0.724735
H107	H	0.650244	0.116507	-0.224631
H108	H	1.150244	0.616507	0.275369
F109	F	1.236193	0.684242	0.000060
F110	F	1.736193	1.184242	0.500060
F111	F	1.191523	-0.001492	0.404904
F112	F	1.691523	0.498508	0.904904
H113	H	0.917429	0.711482	0.000039
H114	H	1.417429	1.211482	0.500039
H115	H	0.338575	0.111029	-0.144776
H116	H	0.838575	0.611029	0.355224
H117	H	0.338589	0.111039	0.144903
H118	H	0.838589	0.611039	0.644903
F119	F	0.662000	0.116716	0.244707
F120	F	1.162000	0.616716	0.744707
F121	F	0.938361	0.231497	0.595220
F122	F	1.438361	0.731497	1.095220
H123	H	0.953676	0.217389	0.416441
H124	H	1.453676	0.717389	0.916441
F125	F	1.232789	0.505220	0.000062
F126	F	1.732789	1.005220	0.500062
F127	F	0.893687	0.545775	0.000052
F128	F	1.393687	1.045775	0.500052
F129	F	0.803043	0.119182	-0.164768
F130	F	1.303043	0.619182	0.335232
F131	F	1.191525	-0.001495	0.595196
F132	F	1.691525	0.498505	1.095196
