data_functionalizedCrystal
_audit_creation_method	'MofGen! by Chris Wilmer'
_symmetry_space_group_name_H-M	'P1'
_symmetry_Int_Tables_number	1
_symmetry_cell_setting	triclinic
loop_
_symmetry_equiv_pos_as_xyz
  x,y,z
_cell_length_a	8.559649
_cell_length_b	10.967829
_cell_length_c	7.088929
_cell_angle_alpha	71.681627
_cell_angle_beta	95.324505
_cell_angle_gamma	77.415441
loop_
_atom_site_label
_atom_site_type_symbol
_atom_site_fract_x
_atom_site_fract_y
_atom_site_fract_z
O1	O	2.104388	-0.028762	-0.149504
O2	O	1.637657	0.037593	-0.171370
O3	O	1.888072	-0.183875	-0.098395
O4	O	1.853972	0.192706	-0.222479
O5	O	1.921539	-0.213531	0.229353
O6	O	1.671124	0.007936	0.156378
O7	O	2.137855	-0.058418	0.178243
Cu8	Cu	1.907545	-0.027949	0.197236
Cu9	Cu	1.867966	0.007123	-0.190363
O10	O	1.887439	0.163049	0.105268
C11	C	1.594744	0.027793	-0.009153
C12	C	1.417020	0.042761	-0.014086
C13	C	1.904853	-0.246467	0.081213
C14	C	1.904975	-0.388786	0.128096
C15	C	1.887693	-0.436868	-0.020787
C16	C	1.887819	-0.583962	0.027664
C17	C	2.180766	-0.048618	0.016022
C18	C	2.358490	-0.063585	0.020942
C19	C	1.870658	0.225642	-0.074344
C20	C	1.870534	0.367962	-0.121240
N21	N	1.935394	-0.052619	0.469853
N22	N	1.840130	0.031782	-0.462976
H23	H	1.331162	0.145262	-0.047880
Br24	Br	1.501590	-0.234439	0.077235
Br25	Br	1.862911	-0.323993	-0.293031
Br26	Br	2.099986	-0.198394	0.653972
Br27	Br	1.929774	-0.501665	0.400340
H28	H	1.902699	-0.651690	0.191009
Br29	Br	1.845640	-0.519148	-0.393504
H30	H	1.741401	0.119246	0.426558
