data_functionalizedCrystal
_audit_creation_method	'MofGen! by Chris Wilmer'
_symmetry_space_group_name_H-M	'P1'
_symmetry_Int_Tables_number	1
_symmetry_cell_setting	triclinic
loop_
_symmetry_equiv_pos_as_xyz
  x,y,z
_cell_length_a	21.295417
_cell_length_b	19.077300
_cell_length_c	19.077271
_cell_angle_alpha	85.516085
_cell_angle_beta	87.667972
_cell_angle_gamma	92.264088
loop_
_atom_site_label
_atom_site_type_symbol
_atom_site_fract_x
_atom_site_fract_y
_atom_site_fract_z
Zn1	Zn	-0.275948	-1.061621	-0.355285
Zn2	Zn	0.224052	-0.561621	0.144715
Zn3	Zn	-0.385622	-1.066262	-0.237393
Zn4	Zn	0.114378	-0.566262	0.262607
Zn5	Zn	-0.275973	-0.948477	-0.242147
Zn6	Zn	0.224027	-0.448477	0.257853
Zn7	Zn	-0.376783	-0.943695	-0.359975
Zn8	Zn	0.123217	-0.443695	0.140025
O9	O	-0.328582	-1.005014	-0.298700
O10	O	0.171418	-0.505014	0.201300
O11	O	-0.294186	-1.160882	-0.335694
O12	O	0.205814	-0.660882	0.164306
O13	O	-0.374786	-1.054581	-0.139374
O14	O	0.125214	-0.554581	0.360626
O15	O	-0.187881	-0.963545	-0.257182
O16	O	0.312119	-0.463545	0.242818
O17	O	-0.374762	-1.164291	-0.249079
O18	O	0.125238	-0.664291	0.250921
O19	O	-0.187863	-1.046671	-0.340304
O20	O	0.312137	-0.546671	0.159696
O21	O	-0.294227	-0.968045	-0.142867
O22	O	0.205773	-0.468045	0.357133
O23	O	-0.285657	-0.849198	-0.261730
O24	O	0.214343	-0.349198	0.238270
O25	O	-0.359698	-0.955395	-0.458003
O26	O	0.140302	-0.455395	0.041997
O27	O	-0.359722	-0.845684	-0.348298
O28	O	0.140278	-0.345684	0.151702
O29	O	-0.285615	-1.042034	-0.454557
O30	O	0.214385	-0.542034	0.045443
O31	O	-0.472538	-1.049944	-0.253627
O32	O	0.027462	-0.549944	0.246373
O33	O	-0.466044	-0.959895	-0.343688
O34	O	0.033956	-0.459895	0.156312
C35	C	-0.321733	-0.821863	-0.306039
C36	C	0.178267	-0.321863	0.193961
C37	C	-0.318818	-0.743510	-0.309195
C38	C	0.181182	-0.243510	0.190805
C39	C	-0.297860	-0.302273	-0.331844
C40	C	0.202140	0.197727	0.168156
C41	C	-0.300611	-0.375895	-0.328874
C42	C	0.199389	0.124105	0.171126
C43	C	-0.343875	-0.414474	-0.282221
C44	C	0.156125	0.085526	0.217779
C45	C	-0.384395	-0.379429	-0.238539
C46	C	0.115605	0.120571	0.261461
C47	C	-0.381646	-0.305809	-0.241512
C48	C	0.118354	0.194191	0.258488
C49	C	-0.356589	-0.634845	-0.268487
C50	C	0.143411	-0.134845	0.231513
C51	C	-0.359333	-0.708470	-0.265515
C52	C	0.140667	-0.208470	0.234485
C53	C	-0.275550	-0.704930	-0.355852
C54	C	0.224450	-0.204930	0.144148
C55	C	-0.272803	-0.631309	-0.358819
C56	C	0.227197	-0.131309	0.141181
C57	C	-0.313325	-0.596270	-0.315139
C58	C	0.186675	-0.096270	0.184861
N59	N	-0.346686	-0.489727	-0.279183
N60	N	0.153314	0.010273	0.220817
N61	N	-0.310516	-0.521018	-0.318182
N62	N	0.189484	-0.021018	0.181818
C63	C	-0.492131	-1.004923	-0.298665
C64	C	0.007869	-0.504923	0.201335
C65	C	-0.562100	-1.004948	-0.298671
C66	C	-0.062100	-0.504948	0.201329
C67	C	-0.598327	-1.051874	-0.251821
C68	C	-0.098327	-0.551874	0.248179
C69	C	-0.664070	-1.051907	-0.251835
C70	C	-0.164070	-0.551907	0.248165
C71	C	-0.693584	-1.005000	-0.298693
C72	C	-0.193584	-0.505000	0.201307
C73	C	-0.657348	-0.958070	-0.345552
C74	C	-0.157348	-0.458070	0.154448
C75	C	-0.591607	-0.958044	-0.345541
C76	C	-0.091607	-0.458044	0.154459
N77	N	-0.794347	-0.943118	-0.306538
N78	N	-0.294347	-0.443118	0.193462
N79	N	-0.856799	-0.943145	-0.306545
N80	N	-0.356799	-0.443145	0.193455
C81	C	-0.891660	-1.005078	-0.298730
C82	C	-0.391660	-0.505078	0.201270
N83	N	-0.861710	-1.066984	-0.290896
N84	N	-0.361710	-0.566984	0.209104
N85	N	-0.799252	-1.066956	-0.290886
N86	N	-0.299252	-0.566956	0.209114
C87	C	-0.764869	-1.005024	-0.298711
C88	C	-0.264869	-0.505024	0.201289
C89	C	-0.999173	-1.052043	-0.251893
C90	C	-0.499173	-0.552043	0.248107
C91	C	-1.064917	-1.052077	-0.251913
C92	C	-0.564917	-0.552077	0.248087
C93	C	-1.058194	-0.958234	-0.345626
C94	C	-0.558194	-0.458234	0.154374
C95	C	-0.992451	-0.958206	-0.345610
C96	C	-0.492451	-0.458206	0.154390
C97	C	-0.962945	-1.005110	-0.298740
C98	C	-0.462945	-0.505110	0.201260
C99	C	-0.164393	-1.005124	-0.298750
C100	C	0.335607	-0.505124	0.201250
C101	C	-0.094426	-1.005170	-0.298772
C102	C	0.405574	-0.505170	0.201228
C103	C	-0.321668	-0.997663	-0.482574
C104	C	0.178332	-0.497663	0.017426
C105	C	-0.318721	-0.994531	-0.560930
C106	C	0.181279	-0.494531	-0.060930
C107	C	-0.335454	-0.188880	-0.291326
C108	C	0.164546	0.311120	0.208674
C109	C	-0.338375	-0.267233	-0.288164
C110	C	0.161625	0.232767	0.211836
C111	C	-0.297640	-0.972065	-1.002188
C112	C	0.202360	-0.472065	-0.502188
C113	C	-0.300406	-0.975011	-0.928564
C114	C	0.199594	-0.475011	-0.428564
C115	C	-0.343735	-1.021535	-0.889932
C116	C	0.156265	-0.521535	-0.389932
C117	C	-0.384295	-1.065121	-0.924929
C118	C	0.115705	-0.565121	-0.424929
C119	C	-0.381526	-1.062177	-0.998551
C120	C	0.118474	-0.562177	-0.498551
C121	C	-0.356513	-1.035173	-0.669549
C122	C	0.143487	-0.535173	-0.169549
C123	C	-0.359281	-1.038111	-0.595922
C124	C	0.140719	-0.538111	-0.095922
C125	C	-0.275390	-0.948003	-0.599562
C126	C	0.224610	-0.448003	-0.099562
C127	C	-0.272626	-0.945060	-0.673186
C128	C	0.227374	-0.445060	-0.173186
C129	C	-0.313185	-0.988648	-0.708175
C130	C	0.186815	-0.488648	-0.208175
N131	N	-0.346564	-1.024547	-0.814677
N132	N	0.153436	-0.524547	-0.314677
N133	N	-0.310352	-0.985640	-0.783429
N134	N	0.189648	-0.485640	-0.283429
C135	C	-0.335425	-1.012376	-0.115540
C136	C	0.164575	-0.512376	0.384460
C137	C	-0.338199	-1.015645	-0.037179
C138	C	0.161801	-0.515645	0.462821
H139	H	-0.414640	-0.277280	-0.205945
H140	H	0.085360	0.222720	0.294055
H141	H	-0.681382	-0.919880	-0.383705
H142	H	-0.181382	-0.419880	0.116295
C143	C	-1.104770	-1.103689	-0.200368
C144	C	-0.604770	-0.603689	0.299632
H145	H	-1.148150	-1.096992	-0.207089
H146	H	-0.648150	-0.596992	0.292911
H147	H	-1.095419	-1.095288	-0.153408
H148	H	-0.595419	-0.595288	0.346592
H149	H	-1.095335	-1.150633	-0.208816
H150	H	-0.595335	-0.650633	0.291184
H151	H	-0.237575	-0.599902	-0.396811
H152	H	0.262425	-0.099902	0.103189
H153	H	-0.242368	-0.912517	-0.571065
H154	H	0.257632	-0.412517	-0.071065
H155	H	-0.267621	-0.404421	-0.364446
H156	H	0.232379	0.095579	0.135554
H157	H	-0.394554	-1.076013	-0.564469
H158	H	0.105446	-0.576013	-0.064469
C159	C	-0.249983	-0.920884	-1.044679
C160	C	0.250017	-0.420884	-0.544679
H161	H	-0.254146	-0.925366	-1.093538
H162	H	0.245854	-0.425366	-0.593538
H163	H	-0.208527	-0.931710	-1.032214
H164	H	0.291473	-0.431710	-0.532214
H165	H	-0.257883	-0.873996	-1.034505
H166	H	0.242117	-0.373996	-0.534505
H167	H	-0.394567	-0.739880	-0.227523
H168	H	0.105433	-0.239880	0.272477
C169	C	-0.255788	-0.927076	-0.890076
C170	C	0.244212	-0.427076	-0.390076
H171	H	-0.229591	-0.898942	-0.923628
H172	H	0.270409	-0.398942	-0.423628
H173	H	-0.230450	-0.955211	-0.860287
H174	H	0.269550	-0.455211	-0.360287
H175	H	-0.279799	-0.897489	-0.862577
H176	H	0.220201	-0.397489	-0.362577
H177	H	-0.414553	-1.097666	-1.027040
H178	H	0.085447	-0.597666	-0.527040
C179	C	-0.224961	-0.893889	-0.715675
C180	C	0.275039	-0.393889	-0.215675
H181	H	-0.201197	-0.868359	-0.684290
H182	H	0.298803	-0.368359	-0.184290
H183	H	-0.246808	-0.862008	-0.745620
H184	H	0.253192	-0.362008	-0.245620
H185	H	-0.197462	-0.919733	-0.743320
H186	H	0.302538	-0.419733	-0.243320
H187	H	-0.242560	-0.733467	-0.391414
H188	H	0.257440	-0.233467	0.108586
C189	C	-0.401136	-1.083105	-0.708029
C190	C	0.098864	-0.583105	-0.208029
H191	H	-0.427343	-1.111225	-0.674476
H192	H	0.072657	-0.611225	-0.174476
H193	H	-0.377135	-1.112694	-0.735529
H194	H	0.122865	-0.612694	-0.235529
H195	H	-0.426474	-1.054961	-0.737818
H196	H	0.073526	-0.554961	-0.237818
H197	H	-0.419572	-1.103004	-0.893469
H198	H	0.080428	-0.603004	-0.393469
C199	C	-0.431983	-0.421865	-0.187220
C200	C	0.068017	0.078135	0.312780
H201	H	-0.427813	-0.470730	-0.191698
H202	H	0.072187	0.029270	0.308302
H203	H	-0.473458	-0.409372	-0.197932
H204	H	0.026542	0.090628	0.302068
H205	H	-0.424026	-0.411680	-0.140360
H206	H	0.075974	0.088320	0.359640
C207	C	-0.250271	-0.259842	-0.383166
C208	C	0.249729	0.240158	0.116834
H209	H	-0.226541	-0.291257	-0.408760
H210	H	0.273459	0.208743	0.091240
H211	H	-0.222743	-0.232203	-0.357423
H212	H	0.277257	0.267797	0.142577
H213	H	-0.272177	-0.229895	-0.414993
H214	H	0.227823	0.270105	0.085007
H215	H	-0.389584	-0.606325	-0.232918
H216	H	0.110416	-0.106325	0.267082
H217	H	-0.574305	-1.090068	-0.213658
H218	H	-0.074305	-0.590068	0.286342
H219	H	-0.693572	-1.090123	-0.213685
H220	H	-0.193572	-0.590123	0.286315
H221	H	-0.562110	-0.919830	-0.383693
H222	H	-0.062110	-0.419830	0.116307
H223	H	-1.082223	-0.920044	-0.383781
H224	H	-0.582223	-0.420044	0.116219
C225	C	-0.966713	-1.103641	-0.200347
C226	C	-0.466713	-0.603641	0.299653
H227	H	-0.997707	-1.131603	-0.172453
H228	H	-0.497707	-0.631603	0.327547
H229	H	-0.941253	-1.077921	-0.170682
H230	H	-0.441253	-0.577921	0.329318
H231	H	-0.941162	-1.133245	-0.226110
H232	H	-0.441162	-0.633245	0.273890
C233	C	-0.952600	-0.906578	-0.397137
C234	C	-0.452600	-0.406578	0.102863
H235	H	-0.979591	-0.878641	-0.425042
H236	H	-0.479591	-0.378641	0.074958
H237	H	-0.926767	-0.932276	-0.426792
H238	H	-0.426767	-0.432276	0.073208
H239	H	-0.926862	-0.876953	-0.371363
H240	H	-0.426862	-0.376953	0.128637
