data_functionalizedCrystal
_audit_creation_method	'MofGen! by Chris Wilmer'
_symmetry_space_group_name_H-M	'P1'
_symmetry_Int_Tables_number	1
_symmetry_cell_setting	triclinic
loop_
_symmetry_equiv_pos_as_xyz
  x,y,z
_cell_length_a	19.121424
_cell_length_b	19.120786
_cell_length_c	17.077396
_cell_angle_alpha	87.527059
_cell_angle_beta	92.416339
_cell_angle_gamma	95.008527
loop_
_atom_site_label
_atom_site_type_symbol
_atom_site_fract_x
_atom_site_fract_y
_atom_site_fract_z
Zn1	Zn	1.063704	-0.234202	-0.382121
Zn2	Zn	1.397038	0.099132	-0.048788
Zn3	Zn	1.730371	0.432465	0.284546
Zn4	Zn	1.058601	-0.351887	-0.245479
Zn5	Zn	1.391934	-0.018554	0.087854
Zn6	Zn	1.725267	0.314780	0.421187
Zn7	Zn	0.946044	-0.239253	-0.256218
Zn8	Zn	1.279378	0.094080	0.077115
Zn9	Zn	1.612711	0.427414	0.410448
Zn10	Zn	0.940988	-0.356863	-0.382054
Zn11	Zn	1.274322	-0.023530	-0.048720
Zn12	Zn	1.607655	0.309803	0.284613
O13	O	1.002334	-0.295551	-0.316468
O14	O	1.335668	0.037782	0.016865
O15	O	1.669001	0.371116	0.350199
O16	O	1.161489	-0.245616	-0.359529
O17	O	1.494823	0.087717	-0.026196
O18	O	1.828156	0.421051	0.307138
O19	O	1.043650	-0.336977	-0.137056
O20	O	1.376983	-0.003644	0.196277
O21	O	1.710317	0.329690	0.529610
O22	O	0.965904	-0.140111	-0.277442
O23	O	1.299237	0.193223	0.055891
O24	O	1.632570	0.526556	0.389225
O25	O	1.157740	-0.332079	-0.259139
O26	O	1.491073	0.001254	0.074194
O27	O	1.824407	0.334588	0.407528
O28	O	1.052348	-0.136400	-0.369942
O29	O	1.385681	0.196934	-0.036609
O30	O	1.719015	0.530267	0.296725
O31	O	0.960955	-0.254225	-0.144946
O32	O	1.294289	0.079108	0.188387
O33	O	1.627622	0.412441	0.521720
O34	O	0.846911	-0.259051	-0.277377
O35	O	1.180245	0.074283	0.055956
O36	O	1.513578	0.407616	0.389290
O37	O	0.957287	-0.340561	-0.491910
O38	O	1.290620	-0.007227	-0.158577
O39	O	1.623954	0.326106	0.174756
O40	O	0.843197	-0.345459	-0.369828
O41	O	1.176530	-0.012125	-0.036494
O42	O	1.509864	0.321208	0.296839
O43	O	1.047446	-0.250442	-0.491960
O44	O	1.380779	0.082892	-0.158626
O45	O	1.714112	0.416225	0.174707
O46	O	1.038748	-0.451019	-0.259074
O47	O	1.372081	-0.117686	0.074259
O48	O	1.705414	0.215648	0.407593
O49	O	0.952338	-0.454675	-0.359414
O50	O	1.285672	-0.121342	-0.026081
O51	O	1.619005	0.211991	0.307252
C52	C	0.819524	-0.303343	-0.324761
C53	C	1.152857	0.029990	0.008573
C54	C	1.486191	0.363323	0.341906
C55	C	0.741316	-0.306694	-0.328326
C56	C	1.074649	0.026639	0.005007
C57	C	1.407983	0.359973	0.338341
C58	C	0.298893	-0.327881	-0.350965
C59	C	0.632226	0.005453	-0.017632
C60	C	0.965560	0.338786	0.315702
C61	C	0.372377	-0.324738	-0.347600
C62	C	0.705711	0.008596	-0.014267
C63	C	1.039044	0.341929	0.319067
C64	C	0.411033	-0.278106	-0.297870
C65	C	0.744367	0.055227	0.035463
C66	C	1.077700	0.388561	0.368797
C67	C	0.376201	-0.234620	-0.251496
C68	C	0.709535	0.098714	0.081837
C69	C	1.042868	0.432047	0.415171
C70	C	0.302718	-0.237766	-0.254857
C71	C	0.636052	0.095567	0.078476
C72	C	0.969385	0.428900	0.411809
C73	C	0.633001	-0.266354	-0.285313
C74	C	0.966334	0.066979	0.048020
C75	C	1.299668	0.400313	0.381353
C76	C	0.706489	-0.263209	-0.281957
C77	C	1.039822	0.070124	0.051376
C78	C	1.373156	0.403458	0.384709
C79	C	0.702660	-0.353329	-0.378061
C80	C	1.035993	-0.019995	-0.044727
C81	C	1.369326	0.313338	0.288606
C82	C	0.629176	-0.356468	-0.381421
C83	C	0.962509	-0.023135	-0.048088
C84	C	1.295842	0.310198	0.285246
C85	C	0.594350	-0.312984	-0.335044
C86	C	0.927683	0.020349	-0.001711
C87	C	1.261016	0.353682	0.331623
C88	C	0.486146	-0.274891	-0.294431
C89	C	0.819480	0.058442	0.038902
C90	C	1.152813	0.391776	0.372235
C91	C	0.519238	-0.316203	-0.338479
C92	C	0.852571	0.017130	-0.005146
C93	C	1.185905	0.350463	0.328187
C94	C	0.994460	-0.478379	-0.308088
C95	C	1.327793	-0.145046	0.025246
C96	C	1.661126	0.188288	0.358579
C97	C	0.991155	-0.556591	-0.304526
C98	C	1.324488	-0.223257	0.028807
C99	C	1.657822	0.110076	0.362141
C100	C	1.034576	-0.591344	-0.351055
C101	C	1.367909	-0.258010	-0.017721
C102	C	1.701243	0.075323	0.315612
C103	C	1.031468	-0.664832	-0.347710
C104	C	1.364802	-0.331499	-0.014376
C105	C	1.698135	0.001835	0.318957
C106	C	0.984943	-0.703566	-0.297831
C107	C	1.318276	-0.370233	0.035502
C108	C	1.651609	-0.036899	0.368836
C109	C	0.941517	-0.668808	-0.251300
C110	C	1.274850	-0.335475	0.082033
C111	C	1.608184	-0.002142	0.415366
C112	C	0.944622	-0.595321	-0.254650
C113	C	1.277955	-0.261988	0.078683
C114	C	1.611288	0.071345	0.412016
C115	C	0.973315	-0.925549	-0.285309
C116	C	1.306649	-0.592216	0.048025
C117	C	1.639982	-0.258882	0.381358
C118	C	0.970215	-0.999041	-0.281961
C119	C	1.303549	-0.665707	0.051373
C120	C	1.636882	-0.332374	0.384706
C121	C	1.060166	-0.995059	-0.378372
C122	C	1.393499	-0.661726	-0.045038
C123	C	1.726833	-0.328393	0.288295
C124	C	1.063270	-0.921571	-0.381713
C125	C	1.396603	-0.588238	-0.048380
C126	C	1.729936	-0.254904	0.284953
C127	C	1.019841	-0.886820	-0.335186
C128	C	1.353175	-0.553487	-0.001853
C129	C	1.686508	-0.220153	0.331481
C130	C	0.981766	-0.778683	-0.294409
C131	C	1.315100	-0.445350	0.038925
C132	C	1.648433	-0.112016	0.372258
C133	C	1.023015	-0.811704	-0.338613
C134	C	1.356348	-0.478371	-0.005280
C135	C	1.689681	-0.145038	0.328054
C136	C	1.185859	-0.287729	-0.308144
C137	C	1.519192	0.045604	0.025190
C138	C	1.852525	0.378938	0.358523
C139	C	1.264066	-0.284396	-0.304596
C140	C	1.597399	0.048938	0.028737
C141	C	1.930733	0.382271	0.362070
C142	C	1.002372	-0.295493	-0.521214
C143	C	1.335705	0.037841	-0.187880
C144	C	1.669038	0.371174	0.145453
C145	C	1.002387	-0.295468	-0.608464
C146	C	1.335721	0.037866	-0.275130
C147	C	1.669054	0.371199	0.058203
C148	C	1.010259	-0.112009	-0.324897
C149	C	1.343592	0.221325	0.008436
C150	C	1.676926	0.554658	0.341769
C151	C	1.013636	-0.033794	-0.328490
C152	C	1.346970	0.299540	0.004844
C153	C	1.680303	0.632873	0.338177
C154	C	1.045514	-0.338472	-0.980173
C155	C	1.378847	-0.005139	-0.646840
C156	C	1.712181	0.328195	-0.313507
C157	C	1.045495	-0.338493	-0.898193
C158	C	1.378829	-0.005160	-0.564859
C159	C	1.712162	0.328173	-0.231526
C160	C	1.002435	-0.295416	-0.861313
C161	C	1.335768	0.037917	-0.527980
C162	C	1.669102	0.371251	-0.194646
C163	C	0.959385	-0.252320	-0.906419
C164	C	1.292718	0.081013	-0.573085
C165	C	1.626052	0.414346	-0.239752
C166	C	0.959400	-0.252303	-0.988398
C167	C	1.292734	0.081030	-0.655064
C168	C	1.626067	0.414364	-0.321731
C169	C	0.959357	-0.252358	-0.735548
C170	C	1.292690	0.080976	-0.402215
C171	C	1.626024	0.414309	-0.068881
C172	C	0.959342	-0.252374	-0.653563
C173	C	1.292676	0.080960	-0.320230
C174	C	1.626009	0.414293	0.013103
C175	C	1.045452	-0.338548	-0.645343
C176	C	1.378785	-0.005214	-0.312010
C177	C	1.712119	0.328119	0.021324
C178	C	1.045468	-0.338531	-0.727322
C179	C	1.378801	-0.005197	-0.393989
C180	C	1.712134	0.328136	-0.060656
C181	C	1.002418	-0.295434	-0.772422
C182	C	1.335752	0.037900	-0.439089
C183	C	1.669085	0.371233	-0.105755
C184	C	1.002340	-0.295557	-0.112520
C185	C	1.335673	0.037776	0.220814
C186	C	1.669007	0.371110	0.554147
C187	C	1.002469	-0.295378	-0.025273
C188	C	1.335802	0.037956	0.308061
C189	C	1.669136	0.371289	0.641394
H190	H	0.267424	-0.365849	-0.391465
H191	H	0.600757	-0.032516	-0.058132
H192	H	0.934091	0.300817	0.275202
H193	H	1.060893	-0.780165	-0.379227
H194	H	1.394226	-0.446832	-0.045894
H195	H	1.727560	-0.113498	0.287439
H196	H	0.932325	-1.030576	-0.241343
H197	H	1.265659	-0.697243	0.091990
H198	H	1.598992	-0.363910	0.425324
F199	F	0.913564	-0.206467	-0.867166
F200	F	1.246897	0.126866	-0.533833
F201	F	1.580230	0.460200	-0.200500
F202	F	1.091266	-0.384417	-0.597344
F203	F	1.424600	-0.051084	-0.264011
F204	F	1.757933	0.282249	0.069323
F205	F	1.091350	-0.384317	-1.019416
F206	F	1.424683	-0.050984	-0.686083
F207	F	1.758017	0.282350	-0.352749
H208	H	0.517628	-0.236922	-0.253942
H209	H	0.850962	0.096411	0.079391
H210	H	1.184295	0.429744	0.412725
H211	H	1.101154	-0.890035	-0.422329
H212	H	1.434488	-0.556702	-0.088995
H213	H	1.767821	-0.223369	0.244338
F214	F	0.913589	-0.206433	-1.036396
F215	F	1.246922	0.126900	-0.703062
F216	F	1.580256	0.460233	-0.369729
F217	F	0.898406	-0.558335	-0.205129
F218	F	1.231740	-0.225002	0.128205
F219	F	1.565073	0.108331	0.461538
F220	F	0.932249	-0.819913	-0.241329
F221	F	1.265582	-0.486580	0.092004
F222	F	1.598915	-0.153246	0.425338
H223	H	1.066832	-0.693124	-0.385592
H224	H	1.400165	-0.359791	-0.052259
H225	H	1.733498	-0.026457	0.281075
H226	H	0.400730	-0.360149	-0.385357
H227	H	0.734063	-0.026816	-0.052023
H228	H	1.067396	0.306517	0.281310
H229	H	1.080538	-0.373594	-0.861476
H230	H	1.413871	-0.040260	-0.528143
H231	H	1.747205	0.293073	-0.194809
F232	F	1.091299	-0.384376	-0.766571
F233	F	1.424633	-0.051042	-0.433237
F234	F	1.757966	0.282291	-0.099904
F235	F	0.913511	-0.206528	-0.614315
F236	F	1.246845	0.126805	-0.280981
F237	F	1.580178	0.460139	0.052352
H238	H	0.487761	-0.354173	-0.378967
H239	H	0.821094	-0.020840	-0.045633
H240	H	1.154428	0.312494	0.287700
F241	F	0.927089	-0.888574	-0.235796
F242	F	1.260423	-0.555240	0.097538
F243	F	1.593756	-0.221907	0.430871
H244	H	0.597706	-0.394442	-0.421915
H245	H	0.931040	-0.061109	-0.088581
H246	H	1.264373	0.272224	0.244752
H247	H	0.924302	-0.217264	-0.772266
H248	H	1.257635	0.116070	-0.438933
H249	H	1.590968	0.449403	-0.105599
H250	H	1.072465	-0.559811	-0.391668
H251	H	1.405799	-0.226478	-0.058334
H252	H	1.739132	0.106856	0.274999
H253	H	0.903632	-0.700352	-0.210691
H254	H	1.236965	-0.367018	0.122642
H255	H	1.570299	-0.033685	0.455975
F256	F	0.747629	-0.213577	-0.229023
F257	F	1.080962	0.119756	0.104310
F258	F	1.414295	0.453090	0.437644
F259	F	0.739729	-0.399609	-0.427409
F260	F	1.073062	-0.066275	-0.094076
F261	F	1.406396	0.267058	0.239257
H262	H	0.604655	-0.230949	-0.247547
H263	H	0.937988	0.102384	0.085786
H264	H	1.271321	0.435718	0.419120
H265	H	0.407681	-0.196654	-0.211001
H266	H	0.741014	0.136679	0.122332
H267	H	1.074348	0.470013	0.455665
F268	F	0.265653	-0.191486	-0.205502
F269	F	0.598986	0.141847	0.127831
F270	F	0.932320	0.475180	0.461164
F271	F	1.106380	-1.032050	-0.427888
F272	F	1.439713	-0.698716	-0.094555
F273	F	1.773047	-0.365383	0.238779
