data_functionalizedCrystal
_audit_creation_method	'MofGen! by Chris Wilmer'
_symmetry_space_group_name_H-M	'P1'
_symmetry_Int_Tables_number	1
_symmetry_cell_setting	triclinic
loop_
_symmetry_equiv_pos_as_xyz
  x,y,z
_cell_length_a	10.654545
_cell_length_b	10.540535
_cell_length_c	9.730223
_cell_angle_alpha	89.994244
_cell_angle_beta	89.997167
_cell_angle_gamma	84.503361
loop_
_atom_site_label
_atom_site_type_symbol
_atom_site_fract_x
_atom_site_fract_y
_atom_site_fract_z
O1	O	1.667902	0.178274	-0.114281
O2	O	1.302429	0.195267	-0.114287
O3	O	1.493506	0.002060	-0.114270
O4	O	1.476824	0.371480	-0.114298
O5	O	1.493494	0.002055	0.114310
O6	O	1.302416	0.195261	0.114293
O7	O	1.667890	0.178268	0.114299
Zn8	Zn	1.485151	0.186764	0.150588
Zn9	Zn	1.485167	0.186771	-0.150576
O10	O	1.476812	0.371475	0.114282
C11	C	1.255624	0.194018	0.000002
C12	C	1.116179	0.190288	0.000000
C13	C	1.050667	0.188530	0.124600
C14	C	0.919647	0.185004	0.124600
C15	C	0.919661	0.185002	-0.124610
C16	C	1.050680	0.188518	-0.124609
C17	C	1.492250	-0.045245	0.000021
C18	C	1.488511	-0.186192	0.000022
C19	C	1.349001	-0.222810	0.000010
C20	C	1.345066	-0.369409	-0.000533
C21	C	1.552202	-0.395538	-0.130284
C22	C	1.555171	-0.248774	-0.130369
C23	C	1.557186	-0.248919	0.129578
C24	C	1.550734	-0.395263	0.131266
C25	C	1.714694	0.179517	0.000007
C26	C	1.854139	0.183247	-0.000000
C27	C	1.478068	0.418780	-0.000012
C28	C	1.481807	0.559727	-0.000023
N29	N	1.485149	0.186758	0.356124
N30	N	1.485179	0.186767	-0.356112
C31	C	1.569787	0.101243	0.428058
C32	C	1.569800	0.101243	0.571941
C33	C	1.400532	0.272286	0.571944
C34	C	1.400514	0.272278	0.428064
H35	H	0.866315	0.183562	-0.226062
H36	H	1.295422	-0.180830	0.093415
N37	N	1.117590	0.190301	-0.251905
N38	N	1.059097	0.188727	-0.363151
H39	H	1.106351	0.189980	-0.453051
H40	H	1.638719	0.031608	0.630505
N41	N	1.656226	0.013860	0.354597
N42	N	1.734565	0.054803	0.274286
H43	H	1.795612	-0.006929	0.222422
N44	N	1.117597	0.190311	0.251867
N45	N	1.234577	0.193447	0.251857
H46	H	1.281847	0.194700	0.341742
N47	N	1.502551	-0.195687	0.253499
N48	N	1.455021	-0.265835	0.338726
H49	H	1.416422	-0.228243	0.426241
N50	N	1.276020	-0.406191	0.116600
N51	N	1.230404	-0.323515	0.199320
H52	H	1.181638	-0.349485	0.282052
N53	N	0.852749	0.183199	0.251889
N54	N	0.911252	0.184773	0.363130
H55	H	0.864007	0.183495	0.453034
N56	N	1.314091	0.359629	0.645452
N57	N	1.314117	0.359626	0.773916
H58	H	1.253068	0.421315	0.825831
N59	N	1.486467	-0.431120	0.252165
N60	N	1.373742	-0.390394	0.271244
H61	H	1.328349	-0.415725	0.356627
N62	N	1.685949	-0.221133	0.131209
N63	N	1.757308	-0.262538	0.226378
H64	H	1.848245	-0.242909	0.227523
H65	H	1.657444	-0.225781	-0.135915
H66	H	1.296330	-0.179323	-0.093268
N67	N	1.276350	-0.405055	-0.118377
N68	N	1.231160	-0.321611	-0.200482
H69	H	1.182628	-0.346783	-0.283717
H70	H	1.331585	0.341916	0.369491
H71	H	1.507641	-0.208574	-0.228117
N72	N	1.678504	-0.454993	-0.135889
N73	N	1.718138	-0.531184	-0.043723
H74	H	1.807339	-0.573177	-0.047677
N75	N	1.491648	-0.434277	-0.252381
N76	N	1.483021	-0.549904	-0.274682
H77	H	1.440250	-0.577264	-0.360912
N78	N	1.675932	-0.456835	0.141636
N79	N	1.693148	-0.575565	0.149981
H80	H	1.781573	-0.619056	0.157294
