data_functionalizedCrystal
_audit_creation_method	'MofGen! by Chris Wilmer'
_symmetry_space_group_name_H-M	'P1'
_symmetry_Int_Tables_number	1
_symmetry_cell_setting	triclinic
loop_
_symmetry_equiv_pos_as_xyz
  x,y,z
_cell_length_a	19.188900
_cell_length_b	19.188930
_cell_length_c	15.021413
_cell_angle_alpha	90.001111
_cell_angle_beta	89.984330
_cell_angle_gamma	96.861366
loop_
_atom_site_label
_atom_site_type_symbol
_atom_site_fract_x
_atom_site_fract_y
_atom_site_fract_z
O1	O	-0.926162	0.087058	0.074215
O2	O	-0.426162	0.587058	0.574215
O3	O	-0.722848	0.098814	0.074180
O4	O	-0.222848	0.598814	0.574180
O5	O	-0.830372	-0.008720	0.074181
O6	O	-0.330372	0.491280	0.574181
O7	O	-0.818638	0.194593	0.074214
O8	O	-0.318638	0.694593	0.574214
O9	O	-0.830355	-0.008705	-0.073883
O10	O	-0.330355	0.491295	0.426117
O11	O	-0.722831	0.098830	-0.073884
O12	O	-0.222831	0.598830	0.426116
O13	O	-0.926145	0.087074	-0.073850
O14	O	-0.426145	0.587074	0.426150
Zn15	Zn	-0.824485	0.092954	-0.097375
Zn16	Zn	-0.324485	0.592954	0.402625
Zn17	Zn	-0.824508	0.092934	0.097706
Zn18	Zn	-0.324508	0.592934	0.597706
O19	O	-0.818621	0.194608	-0.073851
O20	O	-0.318621	0.694608	0.426149
C21	C	-0.696828	0.098445	0.000143
C22	C	-0.196828	0.598445	0.500143
C23	C	-0.619322	0.097313	0.000129
C24	C	-0.119322	0.597313	0.500129
C25	C	-0.829984	-0.034723	0.000146
C26	C	-0.329984	0.465277	0.500146
C27	C	-0.828843	-0.112228	0.000138
C28	C	-0.328843	0.387772	0.500138
C29	C	-0.582940	0.096760	0.080840
C30	C	-0.082940	0.596760	0.580840
C31	C	-0.510116	0.095689	0.080849
C32	C	-0.010116	0.595689	0.580849
C33	C	-0.473679	0.095155	0.000142
C34	C	0.026321	0.595155	0.500142
C35	C	-0.510070	0.095712	-0.080580
C36	C	-0.010070	0.595712	0.419420
C37	C	-0.582892	0.096790	-0.080586
C38	C	-0.082892	0.596790	0.419414
N39	N	-0.364652	0.053735	-0.059929
N40	N	0.135348	0.553735	0.440071
N41	N	-0.295475	0.052709	-0.059917
N42	N	0.204525	0.552709	0.440083
C43	C	-0.254272	0.091907	0.000157
C44	C	0.245728	0.591907	0.500157
N45	N	-0.284861	0.132161	0.060233
N46	N	0.215139	0.632161	0.560233
N47	N	-0.354045	0.133184	0.060224
N48	N	0.145955	0.633184	0.560224
C49	C	-0.394717	0.093986	0.000140
C50	C	0.105283	0.593986	0.500140
C51	C	-0.138926	0.090193	0.080883
C52	C	0.361074	0.590193	0.580883
C53	C	-0.066100	0.089126	0.080889
C54	C	0.433900	0.589126	0.580889
C55	C	-0.066056	0.089142	-0.080542
C56	C	0.433944	0.589142	0.419458
C57	C	-0.138880	0.090216	-0.080545
C58	C	0.361120	0.590216	0.419455
C59	C	-0.175310	0.090738	0.000170
C60	C	0.324690	0.590738	0.500170
C61	C	0.047836	0.087448	0.000182
C62	C	0.547836	0.587448	0.500182
C63	C	-0.029668	0.088594	0.000181
C64	C	0.470332	0.588594	0.500181
C65	C	-0.891935	-0.157158	0.000145
C66	C	-0.391935	0.342842	0.500145
C67	C	-0.890863	-0.229982	0.000159
C68	C	-0.390863	0.270018	0.500159
C69	C	-0.826696	-0.257872	0.000149
C70	C	-0.326696	0.242128	0.500149
C71	C	-0.763596	-0.212931	0.000147
C72	C	-0.263596	0.287069	0.500147
C73	C	-0.764669	-0.140109	0.000142
C74	C	-0.264669	0.359891	0.500142
N75	N	-0.777642	-0.365866	-0.050249
N76	N	-0.277642	0.134134	0.449751
N77	N	-0.776627	-0.435045	-0.050246
N78	N	-0.276627	0.064955	0.449754
C79	C	-0.823458	-0.477280	0.000166
C80	C	-0.323458	0.022720	0.500166
N81	N	-0.871353	-0.447725	0.050564
N82	N	-0.371353	0.052275	0.550564
N83	N	-0.872371	-0.378540	0.050557
N84	N	-0.372371	0.121460	0.550557
C85	C	-0.825525	-0.336834	0.000155
C86	C	-0.325525	0.163166	0.500155
C87	C	-0.885392	-0.601175	0.000189
C88	C	-0.385392	-0.101175	0.500189
C89	C	-0.884318	-0.674000	0.000209
C90	C	-0.384318	-0.174000	0.500209
C91	C	-0.757049	-0.656947	0.000188
C92	C	-0.257049	-0.156947	0.500188
C93	C	-0.758125	-0.584124	0.000177
C94	C	-0.258125	-0.084124	0.500177
C95	C	-0.822298	-0.556243	0.000174
C96	C	-0.322298	-0.056243	0.500174
C97	C	-0.819009	0.220611	0.000186
C98	C	-0.319009	0.720611	0.500186
C99	C	-0.820150	0.298116	0.000200
C100	C	-0.320150	0.798116	0.500200
N101	N	-0.824475	0.092967	-0.230513
N102	N	-0.324475	0.592967	0.269487
C103	C	-0.774748	0.142668	-0.470197
C104	C	-0.274748	0.642668	0.029803
C105	C	-0.837797	0.156020	-0.529518
C106	C	-0.337797	0.656020	-0.029518
C107	C	-0.824493	0.092950	-0.412120
C108	C	-0.324493	0.592950	0.087880
C109	C	-0.761461	0.079614	-0.529541
C110	C	-0.261461	0.579614	-0.029541
C111	C	-0.824504	0.092935	-0.587544
C112	C	-0.324504	0.592935	-0.087544
C113	C	-0.887574	0.106333	-0.470134
C114	C	-0.387574	0.606333	0.029866
C115	C	-0.811196	0.029900	-0.470152
C116	C	-0.311196	0.529900	0.029848
C117	C	-0.874291	0.043224	-0.529446
C118	C	-0.374291	0.543224	-0.029446
C119	C	-0.824485	0.092961	-0.311063
C120	C	-0.324485	0.592961	0.188937
C121	C	-0.824519	0.092924	-0.688599
C122	C	-0.324519	0.592924	-0.188599
N123	N	-0.824524	0.092915	0.230843
N124	N	-0.324524	0.592915	0.730843
H125	H	-0.480487	0.095240	0.146576
H126	H	0.019513	0.595240	0.646576
H127	H	-0.708150	0.068341	-0.555637
H128	H	-0.208150	0.568341	-0.055637
O129	O	-0.797783	-0.033650	-0.438860
O130	O	-0.297783	0.466350	0.061140
C131	C	-0.798589	-0.032927	-0.345010
C132	C	-0.298589	0.467073	0.154990
H133	H	-0.831027	0.009388	-0.320807
H134	H	-0.331027	0.509388	0.179193
H135	H	-0.822799	-0.086291	-0.319315
H136	H	-0.322799	0.413709	0.180685
H137	H	-0.742594	-0.021295	-0.319017
H138	H	-0.242594	0.478705	0.180983
O139	O	-0.174315	0.090650	-0.158893
O140	O	0.325685	0.590650	0.341107
C141	C	-0.224527	0.030808	-0.163743
C142	C	0.275473	0.530808	0.336257
H143	H	-0.238158	0.010809	-0.093669
H144	H	0.261842	0.510809	0.406331
H145	H	-0.273903	0.045163	-0.197908
H146	H	0.226097	0.545163	0.302092
H147	H	-0.202123	-0.011938	-0.203574
H148	H	0.297877	0.488062	0.296426
O149	O	-0.945591	-0.717676	0.000377
O150	O	-0.445591	-0.217676	0.500377
C151	C	-0.948785	-0.760313	0.077057
C152	C	-0.448785	-0.260313	0.577057
H153	H	-0.913007	-0.733526	0.130648
H154	H	-0.413007	-0.233526	0.630648
H155	H	-1.005056	-0.768674	0.102801
H156	H	-0.505056	-0.268674	0.602801
H157	H	-0.930875	-0.813216	0.059728
H158	H	-0.430875	-0.313216	0.559728
O159	O	-0.696901	-0.540375	0.000201
O160	O	-0.196901	-0.040375	0.500201
C161	C	-0.711607	-0.470121	0.000176
C162	C	-0.211607	0.029879	0.500176
H163	H	-0.766444	-0.467500	0.028215
H164	H	-0.266444	0.032500	0.528215
H165	H	-0.671383	-0.436998	0.043156
H166	H	-0.171383	0.063002	0.543156
H167	H	-0.708887	-0.449054	-0.070860
H168	H	-0.208887	0.050946	0.429140
H169	H	-0.849055	0.209334	-0.555593
H170	H	-0.349055	0.709334	-0.055593
H171	H	-0.937646	-0.578473	0.000190
H172	H	-0.437646	-0.078473	0.500190
H173	H	-0.036478	0.088680	0.146616
H174	H	0.463522	0.588680	0.646616
O175	O	-0.694698	-0.683996	0.000337
O176	O	-0.194698	-0.183996	0.500337
C177	C	-0.656252	-0.660994	0.077001
C178	C	-0.156252	-0.160994	0.577001
H179	H	-0.693786	-0.645960	0.130602
H180	H	-0.193786	-0.145960	0.630602
H181	H	-0.626684	-0.705014	0.102743
H182	H	-0.126684	-0.205014	0.602743
H183	H	-0.617198	-0.613408	0.059654
H184	H	-0.117198	-0.113408	0.559654
H185	H	-0.612514	0.097241	-0.146313
H186	H	-0.112514	0.597241	0.353687
H187	H	-0.916409	0.001170	-0.555298
H188	H	-0.416409	0.501170	-0.055298
H189	H	-0.612597	0.097186	0.146565
H190	H	-0.112597	0.597186	0.646565
H191	H	-0.942242	-0.266572	0.000168
H192	H	-0.442242	0.233428	0.500168
H193	H	-0.480399	0.095279	-0.146292
H194	H	0.019601	0.595279	0.353708
O195	O	-0.951228	0.119752	-0.439162
O196	O	-0.451228	0.619752	0.060838
C197	C	-1.003634	0.067595	-0.470048
C198	C	-0.503634	0.567595	0.029952
H199	H	-0.978953	0.018091	-0.487083
H200	H	-0.478953	0.518091	0.012917
H201	H	-1.044961	0.055168	-0.415990
H202	H	-0.544961	0.555168	0.084010
H203	H	-1.029364	0.087351	-0.532043
H204	H	-0.529364	0.587351	-0.032043
H205	H	-0.168588	0.090626	0.146606
H206	H	0.331412	0.590626	0.646606
O207	O	-0.724688	0.192955	-0.439191
O208	O	-0.224688	0.692955	0.060809
C209	C	-0.738976	0.259335	-0.469460
C210	C	-0.238976	0.759335	0.030540
H211	H	-0.797157	0.257181	-0.486083
H212	H	-0.297157	0.757181	0.013917
H213	H	-0.724847	0.300107	-0.415190
H214	H	-0.224847	0.800107	0.084810
H215	H	-0.706481	0.274394	-0.531580
H216	H	-0.206481	0.774394	-0.031580
H217	H	-0.713291	-0.103526	0.000136
H218	H	-0.213291	0.396474	0.500136
H219	H	-0.944190	-0.134462	0.000145
H220	H	-0.444190	0.365538	0.500145
O221	O	-0.030659	0.088495	-0.158921
O222	O	0.469341	0.588495	0.341079
C223	C	0.003375	0.027424	-0.163745
C224	C	0.503375	0.527424	0.336255
H225	H	-0.024245	-0.014508	-0.117946
H226	H	0.475755	0.485492	0.382054
H227	H	0.001496	0.007122	-0.235132
H228	H	0.501496	0.507122	0.264868
H229	H	0.060392	0.040273	-0.142060
H230	H	0.560392	0.540273	0.357940
O231	O	-0.701308	-0.240103	0.000254
O232	O	-0.201308	0.259897	0.500254
C233	C	-0.696883	-0.281701	0.076950
C234	C	-0.196883	0.218299	0.576950
H235	H	-0.751973	-0.300011	0.102523
H236	H	-0.251973	0.199989	0.602523
H237	H	-0.669195	-0.329302	0.059701
H238	H	-0.169195	0.170698	0.559701
H239	H	-0.665902	-0.249428	0.130642
H240	H	-0.165902	0.250572	0.630642
