data_functionalizedCrystal
_audit_creation_method	'MofGen! by Chris Wilmer'
_symmetry_space_group_name_H-M	'P1'
_symmetry_Int_Tables_number	1
_symmetry_cell_setting	triclinic
loop_
_symmetry_equiv_pos_as_xyz
  x,y,z
_cell_length_a	19.288867
_cell_length_b	12.811415
_cell_length_c	11.295692
_cell_angle_alpha	90.841778
_cell_angle_beta	85.400138
_cell_angle_gamma	83.592416
loop_
_atom_site_label
_atom_site_type_symbol
_atom_site_fract_x
_atom_site_fract_y
_atom_site_fract_z
O1	O	0.917247	0.123803	0.112347
O2	O	0.714993	0.141342	0.114252
O3	O	0.821899	-0.019202	0.096904
O4	O	0.810341	0.284347	0.129694
O5	O	0.830207	-0.006707	-0.099790
O6	O	0.723301	0.153837	-0.082443
O7	O	0.925555	0.136298	-0.084348
Cu8	Cu	0.825186	0.146208	-0.101355
Cu9	Cu	0.815362	0.131431	0.131259
O10	O	0.818649	0.296842	-0.067000
C11	C	0.693271	0.147025	0.015845
C12	C	0.616166	0.145329	0.015666
C13	C	0.056068	0.126308	0.121552
C14	C	0.128516	0.127895	0.121728
C15	C	0.169273	0.135504	0.014596
C16	C	0.137579	0.141500	-0.092722
C17	C	0.065133	0.139903	-0.092896
C18	C	0.282097	0.204307	-0.060678
C19	C	0.354541	0.205910	-0.060499
C20	C	0.392721	0.140425	0.015127
C21	C	0.358446	0.073349	0.090596
C22	C	0.286000	0.071752	0.090422
C23	C	0.247829	0.137236	0.014772
C24	C	0.502963	0.136142	0.122629
C25	C	0.575413	0.137722	0.122799
C26	C	0.584475	0.151338	-0.091653
C27	C	0.512027	0.149747	-0.091821
C28	C	0.471275	0.142154	0.015323
C29	C	0.825660	-0.051790	-0.005635
C30	C	0.824481	-0.167507	-0.018127
C31	C	0.813195	-0.398562	0.172860
C32	C	0.812087	-0.507288	0.161128
C33	C	0.821152	-0.493686	-0.053321
C34	C	0.822260	-0.384960	-0.041589
C35	C	0.818282	-0.337402	0.071505
C36	C	0.819396	-0.228675	0.083235
C37	C	0.828455	-0.215074	-0.131213
C38	C	0.827347	-0.323800	-0.142944
C39	C	0.947277	0.130615	0.014062
C40	C	1.024381	0.132310	0.014248
C41	C	0.814888	0.329430	0.035542
C42	C	0.816066	0.445145	0.048042
N43	N	0.832102	0.156601	-0.264963
C44	C	0.881990	0.231453	-0.443858
C45	C	0.876742	0.223595	-0.320047
C46	C	0.792705	0.097463	-0.333699
C47	C	0.797953	0.105321	-0.457509
C48	C	0.842597	0.172317	-0.512585
C49	C	0.847849	0.180169	-0.636398
C50	C	0.763808	0.054043	-0.650046
C51	C	0.758560	0.046185	-0.526236
N52	N	0.808452	0.121031	0.294866
H53	H	0.258097	0.017135	0.151869
O54	O	0.808905	-0.347255	0.294831
H55	H	0.805178	-0.408050	0.363341
O56	O	0.240927	0.274922	-0.142281
H57	H	0.184796	0.262528	-0.129743
O58	O	0.833946	-0.149116	-0.240548
H59	H	0.787341	-0.089743	-0.239322
O60	O	0.391524	0.278134	-0.142022
H61	H	0.352814	0.323344	-0.194705
O62	O	0.181538	0.149716	-0.208269
H63	H	0.163489	0.223706	-0.252045
H64	H	0.884202	0.234718	-0.681239
H65	H	0.816159	-0.189956	0.175322
H66	H	0.824385	-0.532426	-0.145397
O67	O	0.710410	-0.026069	-0.466822
H68	H	0.683897	-0.065866	-0.535416
H69	H	0.807942	-0.557080	0.243663
O70	O	0.459008	0.127941	0.238187
H71	H	0.403306	0.127855	0.220042
O72	O	0.930152	0.303693	-0.503266
H73	H	0.927189	0.299212	-0.600907
O74	O	0.721313	-0.009743	-0.724170
H75	H	0.732458	0.006978	-0.819516
O76	O	0.919230	0.287374	-0.245915
H77	H	0.951157	0.335273	-0.305019
H78	H	0.756353	0.042923	-0.288834
O79	O	0.012117	0.118060	0.237102
H80	H	0.046329	0.114128	0.311745
O81	O	0.162704	0.121434	0.237467
H82	H	0.122195	0.115893	0.311941
O83	O	0.030949	0.146390	-0.208633
H84	H	0.071458	0.151953	-0.283102
O85	O	0.399616	0.002702	0.172163
H86	H	0.425714	0.051395	0.233257
O87	O	0.609595	0.131249	0.238539
H88	H	0.569083	0.125711	0.313009
O89	O	0.628423	0.159549	-0.207208
H90	H	0.684123	0.159658	-0.189061
H91	H	0.830583	-0.362537	-0.235022
O92	O	0.477842	0.156240	-0.207554
H93	H	0.518351	0.161808	-0.282021
