data_functionalizedCrystal
_audit_creation_method	'MofGen! by Chris Wilmer'
_symmetry_space_group_name_H-M	'P1'
_symmetry_Int_Tables_number	1
_symmetry_cell_setting	triclinic
loop_
_symmetry_equiv_pos_as_xyz
  x,y,z
_cell_length_a	11.169416
_cell_length_b	12.759401
_cell_length_c	12.759393
_cell_angle_alpha	89.979880
_cell_angle_beta	90.028644
_cell_angle_gamma	89.993690
loop_
_atom_site_label
_atom_site_type_symbol
_atom_site_fract_x
_atom_site_fract_y
_atom_site_fract_z
Zn1	Zn	-0.477865	-1.606287	0.594048
Zn2	Zn	-0.678598	-1.606195	0.418377
Zn3	Zn	-0.477914	-1.430589	0.418383
Zn4	Zn	-0.678491	-1.430591	0.594014
O5	O	-0.578217	-1.518416	0.506205
O6	O	-0.504518	-1.753296	0.570757
O7	O	-0.652042	-1.582861	0.271357
O8	O	-0.309957	-1.453934	0.441702
O9	O	-0.651995	-1.753228	0.441693
O10	O	-0.309922	-1.583018	0.570762
O11	O	-0.504600	-1.453844	0.271361
O12	O	-0.504496	-1.283568	0.441668
O13	O	-0.651813	-1.453937	0.741039
O14	O	-0.651859	-1.283570	0.570704
O15	O	-0.504414	-1.583020	0.741065
O16	O	-0.846534	-1.582863	0.441659
O17	O	-0.846455	-1.453848	0.570698
C18	C	-0.578172	-1.245448	0.506183
C19	C	-0.578182	-1.128672	0.506199
C20	C	-0.501532	-1.073838	0.573506
C21	C	-0.501548	-0.964114	0.573509
C22	C	-0.654875	-0.964067	0.438897
C23	C	-0.654851	-1.073789	0.438889
C24	C	-0.413014	-1.073864	0.651226
C25	C	-0.413030	-0.964140	0.651230
C26	C	-0.890042	-1.518374	0.506197
C27	C	-1.023442	-1.518452	0.506229
C28	C	-0.265175	-1.518486	0.506236
C29	C	-0.131775	-1.518516	0.506250
C30	C	-0.578096	-1.518489	0.780239
C31	C	-0.578044	-1.518521	0.897016
C32	C	-0.578248	-0.792449	0.506221
C33	C	-0.578221	-0.909226	0.506211
C34	C	-0.578251	-1.518403	0.233238
C35	C	-0.577965	-1.518575	0.116462
C36	C	-0.501286	-1.585743	0.951892
C37	C	-0.501243	-1.585768	1.061617
C38	C	-0.654726	-1.451345	1.061577
C39	C	-0.654762	-1.451315	0.951855
C40	C	-0.412678	-1.663355	0.951916
C41	C	-0.412635	-1.663380	1.061640
H42	H	-0.438040	-0.934397	0.732566
H43	H	-0.717262	-1.396572	0.907178
C44	C	-0.272304	-1.521355	1.073681
C45	C	-0.293407	-1.624082	1.107599
H46	H	-0.198696	-1.497096	1.102049
H47	H	-0.335599	-1.477289	1.096663
H48	H	-0.268285	-1.520016	0.999327
H49	H	-0.297435	-1.625419	1.181953
H50	H	-0.230095	-1.668160	1.084623
C51	C	-0.722823	-1.391704	1.229757
C52	C	-0.739061	-1.377484	1.121861
H53	H	-0.774897	-1.346110	1.266970
H54	H	-0.642185	-1.376347	1.247745
H55	H	-0.740394	-1.462299	1.247732
H56	H	-0.721482	-1.306891	1.103885
H57	H	-0.819718	-1.392834	1.103866
C58	C	-0.200561	-0.952155	0.677224
C59	C	-0.293758	-0.918202	0.612094
H60	H	-0.126926	-0.923798	0.653068
H61	H	-0.196533	-1.026501	0.675886
H62	H	-0.215011	-0.929177	0.746887
H63	H	-0.279312	-0.941187	0.542432
H64	H	-0.297784	-0.843841	0.613421
H65	H	-0.319730	-1.641580	0.922155
C66	C	-0.671289	-1.197116	0.297530
C67	C	-0.739097	-1.134065	0.364896
H68	H	-0.723303	-1.234323	0.251845
H69	H	-0.625638	-1.245501	0.337614
H70	H	-0.618953	-1.154280	0.257431
H71	H	-0.791428	-1.176902	0.405001
H72	H	-0.784769	-1.085674	0.324807
H73	H	-0.717297	-0.919368	0.384095
H74	H	-0.446409	-1.107932	0.728467
C75	C	-0.466712	-1.839814	1.016500
C76	C	-0.446264	-1.773221	1.101855
H77	H	-0.487481	-1.907618	1.041330
H78	H	-0.396200	-1.844252	0.975158
H79	H	-0.530338	-1.812739	0.975135
H80	H	-0.382632	-1.800292	1.143216
H81	H	-0.516784	-1.768786	1.143214
H82	H	-0.320025	-1.103625	0.629569
H83	H	-0.446005	-1.740629	0.917884
