data_functionalizedCrystal
_audit_creation_method	'MofGen! by Chris Wilmer'
_symmetry_space_group_name_H-M	'P1'
_symmetry_Int_Tables_number	1
_symmetry_cell_setting	triclinic
loop_
_symmetry_equiv_pos_as_xyz
  x,y,z
_cell_length_a	18.215407
_cell_length_b	15.297510
_cell_length_c	18.215399
_cell_angle_alpha	80.352494
_cell_angle_beta	89.986109
_cell_angle_gamma	80.294249
loop_
_atom_site_label
_atom_site_type_symbol
_atom_site_fract_x
_atom_site_fract_y
_atom_site_fract_z
Zn1	Zn	1.074319	0.359211	-0.466757
Zn2	Zn	1.052925	0.510087	-0.364985
Zn3	Zn	0.951254	0.359239	-0.343714
Zn4	Zn	0.929918	0.510022	-0.488007
O5	O	1.002104	0.434640	-0.415866
O6	O	1.174463	0.379240	-0.453265
O7	O	1.039414	0.490115	-0.259185
O8	O	0.985461	0.232989	-0.342241
O9	O	1.158745	0.490088	-0.378494
O10	O	1.075876	0.232969	-0.432640
O11	O	0.964717	0.379288	-0.243557
O12	O	0.845441	0.379225	-0.362847
O13	O	0.949097	0.489978	-0.588167
O14	O	0.829766	0.490005	-0.468858
O15	O	1.055188	0.379177	-0.572555
O16	O	1.018726	0.636324	-0.399099
O17	O	0.928353	0.636276	-0.489483
C18	C	0.810902	0.434612	-0.415851
C19	C	0.729101	0.434622	-0.415865
C20	C	0.968923	0.669034	-0.448921
C21	C	0.954795	0.769309	-0.463087
C22	C	0.455885	0.492417	-0.471015
C23	C	0.532745	0.492410	-0.471010
C24	C	0.549061	0.376882	-0.360733
C25	C	0.472202	0.376895	-0.360735
C26	C	0.425616	0.434661	-0.415880
C27	C	0.579335	0.434641	-0.415873
C28	C	0.662670	0.434632	-0.415868
C29	C	0.342276	0.434671	-0.415885
C30	C	1.103344	1.051941	-0.314914
C31	C	1.116617	0.957728	-0.301600
C32	C	1.076163	0.910618	-0.341971
C33	C	1.022433	0.957732	-0.395657
C34	C	1.009154	1.051954	-0.408968
C35	C	0.981973	0.910632	-0.436025
C36	C	0.928243	0.957745	-0.489711
C37	C	0.914967	1.051959	-0.503019
C38	C	0.955421	1.099068	-0.462649
C39	C	0.995252	0.816409	-0.422714
C40	C	0.901062	0.816423	-0.516768
C41	C	0.887789	0.910636	-0.530082
C42	C	1.194053	0.434668	-0.415882
C43	C	1.275850	0.434680	-0.415888
C44	C	1.035428	1.199330	-0.382705
C45	C	1.049611	1.099054	-0.368595
C46	C	1.002149	0.434567	-0.607809
C47	C	1.002168	0.434537	-0.689603
C48	C	0.963318	0.376790	-0.869656
C49	C	0.963334	0.376772	-0.946512
C50	C	1.041121	0.492176	-0.962774
C51	C	1.041101	0.492198	-0.885920
C52	C	1.002201	0.434500	-0.839362
C53	C	1.002237	0.434460	-0.993072
C54	C	1.002254	0.434440	-1.076403
C55	C	1.002183	0.434520	-0.756026
C56	C	1.002111	0.434646	-0.224661
C57	C	1.002270	0.434423	-0.142831
H58	H	0.417956	0.539455	-0.515917
H59	H	0.931644	0.329809	-0.831750
H60	H	0.931670	0.329779	-0.971173
H61	H	1.072765	0.539196	-0.861255
F62	F	0.564955	0.553884	-0.529691
F63	F	0.598648	0.315403	-0.302049
H64	H	0.447558	0.329861	-0.315834
F65	F	1.052434	0.766278	-0.365579
H66	H	1.160363	0.919371	-0.257889
F67	F	0.941063	1.199341	-0.476581
H68	H	1.086973	0.833906	-0.331127
F69	F	0.857779	1.102098	-0.560154
F70	F	1.082520	0.553577	-1.012330
F71	F	0.830606	0.960788	-0.587217
H72	H	1.136271	1.090306	-0.282045
H73	H	0.868119	0.778067	-0.549640
