data_functionalizedCrystal
_audit_creation_method	'MofGen! by Chris Wilmer'
_symmetry_space_group_name_H-M	'P1'
_symmetry_Int_Tables_number	1
_symmetry_cell_setting	triclinic
loop_
_symmetry_equiv_pos_as_xyz
  x,y,z
_cell_length_a	18.215407
_cell_length_b	16.959453
_cell_length_c	18.215399
_cell_angle_alpha	89.971976
_cell_angle_beta	89.982632
_cell_angle_gamma	90.017431
loop_
_atom_site_label
_atom_site_type_symbol
_atom_site_fract_x
_atom_site_fract_y
_atom_site_fract_z
Zn1	Zn	1.125097	-0.314744	-0.416067
Zn2	Zn	1.125016	-0.446929	-0.293001
Zn3	Zn	1.002030	-0.314763	-0.293020
Zn4	Zn	1.002006	-0.446878	-0.416031
O5	O	1.063537	-0.380828	-0.354530
O6	O	1.228070	-0.332292	-0.399749
O7	O	1.108677	-0.429426	-0.190019
O8	O	1.018398	-0.204149	-0.309365
O9	O	1.228011	-0.429408	-0.309333
O10	O	1.108816	-0.204135	-0.399768
O11	O	1.018320	-0.332324	-0.190033
O12	O	0.899042	-0.332275	-0.309330
O13	O	1.018358	-0.429321	-0.519020
O14	O	0.899025	-0.429339	-0.399706
O15	O	1.108793	-0.332242	-0.519047
O16	O	1.108655	-0.557533	-0.309298
O17	O	1.018280	-0.557496	-0.399687
C18	C	0.872331	-0.380804	-0.354517
C19	C	0.790532	-0.380813	-0.354529
C20	C	0.602368	-0.330348	-0.401683
C21	C	0.525509	-0.330355	-0.401685
C22	C	0.525458	-0.431330	-0.307389
C23	C	0.602315	-0.431319	-0.307384
C24	C	0.640768	-0.380829	-0.354535
C25	C	0.487052	-0.380847	-0.354543
C26	C	0.403719	-0.380855	-0.354545
C27	C	0.724107	-0.380820	-0.354531
C28	C	1.063476	-0.586195	-0.354503
C29	C	1.063517	-0.674051	-0.354516
C30	C	1.110678	-1.045461	-0.401691
C31	C	1.016602	-1.045592	-0.307478
C32	C	1.016575	-0.963047	-0.307461
C33	C	1.063599	-0.921704	-0.354560
C34	C	1.110650	-0.962907	-0.401677
C35	C	0.969519	-0.921837	-0.260350
C36	C	0.969489	-0.839286	-0.260332
C37	C	1.016518	-0.797942	-0.307429
C38	C	1.063571	-0.839151	-0.354546
C39	C	1.110595	-0.797808	-0.401646
C40	C	1.157653	-0.839015	-0.448761
C41	C	1.157678	-0.921563	-0.448774
C42	C	1.016493	-0.715394	-0.307416
C43	C	1.110568	-0.715255	-0.401632
C44	C	1.255490	-0.380853	-0.354543
C45	C	1.337289	-0.380864	-0.354549
C46	C	1.063582	-0.380774	-0.546483
C47	C	1.063601	-0.380751	-0.628281
C48	C	1.063619	-0.174660	-0.354573
C49	C	1.063654	-0.086803	-0.354591
C50	C	1.110707	-0.330154	-0.816491
C51	C	1.110716	-0.330131	-0.893349
C52	C	1.016547	-0.431224	-0.893310
C53	C	1.016535	-0.431243	-0.816453
C54	C	1.063619	-0.380709	-0.778045
C55	C	1.063640	-0.380668	-0.931761
C56	C	1.063649	-0.380643	-1.015095
C57	C	1.063609	-0.380732	-0.694706
C58	C	1.063535	-0.380826	-0.163323
C59	C	1.063658	-0.380626	-0.081525
H60	H	1.195938	-0.805344	-0.487113
H61	H	0.978175	-0.681847	-0.269059
O62	O	0.488174	-0.281237	-0.447383
C63	C	0.401389	-0.174576	-0.457471
C64	C	0.443638	-0.230142	-0.405633
H65	H	0.365360	-0.133263	-0.423738
H66	H	0.442044	-0.138432	-0.491155
H67	H	0.365447	-0.210941	-0.495907
H68	H	0.479582	-0.193838	-0.367152
H69	H	0.402944	-0.266289	-0.372000
O70	O	0.639642	-0.281340	-0.447581
C71	C	0.663243	-0.243165	-0.572827
C72	C	0.620975	-0.298706	-0.520930
H73	H	0.648178	-0.257197	-0.632140
H74	H	0.648123	-0.179401	-0.560067
H75	H	0.724768	-0.251815	-0.564688
H76	H	0.559440	-0.290127	-0.529039
H77	H	0.636156	-0.362450	-0.533702
O78	O	0.487990	-0.480353	-0.261663
C79	C	0.369565	-0.525092	-0.219852
C80	C	0.411903	-0.469544	-0.271685
H81	H	0.308041	-0.516360	-0.227925
H82	H	0.384618	-0.588860	-0.232672
H83	H	0.384699	-0.511138	-0.160539
H84	H	0.396792	-0.483426	-0.331015
H85	H	0.396847	-0.405792	-0.258801
O86	O	0.923807	-0.799139	-0.214632
C87	C	0.882108	-0.672029	-0.172815
C88	C	0.933865	-0.717398	-0.224621
H89	H	0.890233	-0.605933	-0.180862
H90	H	0.822747	-0.688230	-0.185690
H91	H	0.895064	-0.688345	-0.113498
H92	H	0.920975	-0.701106	-0.283956
H93	H	0.993211	-0.701193	-0.211683
H94	H	0.633582	-0.472427	-0.268986
H95	H	1.149044	-0.289004	-0.785221
O96	O	1.156528	-0.280999	-0.930581
C97	C	1.249901	-0.180700	-0.922504
C98	C	1.198067	-0.236319	-0.880248
H99	H	1.283488	-0.144550	-0.881828
H100	H	1.288422	-0.216946	-0.958465
H101	H	1.216123	-0.139389	-0.958509
H102	H	1.231786	-0.277641	-0.844203
H103	H	1.159544	-0.200024	-0.844333
O104	O	1.203481	-0.961549	-0.494475
C105	C	1.328638	-0.986658	-0.530384
C106	C	1.276859	-0.941341	-0.478562
H107	H	1.387973	-0.970324	-0.517547
H108	H	1.320642	-1.052770	-0.522314
H109	H	1.315620	-0.970388	-0.589700
H110	H	1.289844	-0.957544	-0.419226
H111	H	1.284864	-0.875240	-0.486696
H112	H	1.148864	-0.681598	-0.439984
H113	H	0.978214	-0.472369	-0.924591
H114	H	1.148993	-1.079015	-0.440049
O115	O	0.970871	-0.480469	-0.779135
C116	C	0.935066	-0.614922	-0.755605
C117	C	0.986836	-0.559270	-0.797900
H118	H	0.947945	-0.678643	-0.770773
H119	H	0.943148	-0.606319	-0.694067
H120	H	0.875736	-0.600992	-0.770701
H121	H	1.046186	-0.573165	-0.782866
H122	H	0.978690	-0.567883	-0.859428
O123	O	0.970996	-1.085871	-0.261750
C124	C	0.929317	-1.213104	-0.220049
C125	C	0.981015	-1.167583	-0.271865
H126	H	0.937388	-1.279176	-0.228220
H127	H	0.942275	-1.196968	-0.160701
H128	H	0.869969	-1.196859	-0.232904
H129	H	1.040379	-1.183804	-0.259076
H130	H	0.967993	-1.183723	-0.331198
H131	H	0.931233	-0.955504	-0.222006
