data_functionalizedCrystal
_audit_creation_method	'MofGen! by Chris Wilmer'
_symmetry_space_group_name_H-M	'P1'
_symmetry_Int_Tables_number	1
_symmetry_cell_setting	triclinic
loop_
_symmetry_equiv_pos_as_xyz
  x,y,z
_cell_length_a	11.026607
_cell_length_b	23.532357
_cell_length_c	9.482900
_cell_angle_alpha	99.268091
_cell_angle_beta	78.636152
_cell_angle_gamma	95.707154
loop_
_atom_site_label
_atom_site_type_symbol
_atom_site_fract_x
_atom_site_fract_y
_atom_site_fract_z
O1	O	1.626212	0.231208	-0.120961
O2	O	1.273242	0.204087	-0.120956
O3	O	1.460398	0.135838	-0.120929
O4	O	1.439057	0.299457	-0.120988
O5	O	1.422381	0.149772	0.120858
O6	O	1.235226	0.218021	0.120831
O7	O	1.588196	0.245142	0.120826
Cu8	Cu	1.408240	0.232854	0.142906
Cu9	Cu	1.453198	0.216375	-0.143036
O10	O	1.401040	0.313391	0.120799
C11	C	1.209085	0.206050	-0.000061
C12	C	1.074556	0.191135	-0.000057
C13	C	1.000241	0.232318	-0.000073
C14	C	0.861198	0.216904	-0.000070
C15	C	1.440855	0.121533	-0.000031
C16	C	1.439247	0.058146	-0.000017
C17	C	1.449902	-0.342525	-0.131894
C18	C	1.448377	-0.402086	-0.131902
O19	O	1.465171	-0.439349	-0.243991
N20	N	1.426898	-0.424281	-0.000105
C21	C	1.406930	-0.386913	0.131708
O22	O	1.388519	-0.411261	0.243810
C23	C	1.408446	-0.327354	0.131714
C24	C	1.429939	-0.305162	-0.000091
C25	C	1.471392	-0.320332	-0.263688
C26	C	1.472919	-0.260776	-0.263679
C27	C	1.452956	-0.223412	-0.131876
C28	C	1.431466	-0.245605	-0.000082
C29	C	1.388470	-0.289988	0.263526
C30	C	1.389987	-0.230425	0.263522
C31	C	1.411480	-0.208233	0.131717
C32	C	1.413031	-0.148685	0.131730
N33	N	1.434510	-0.126490	-0.000066
C34	C	1.454473	-0.163853	-0.131869
C35	C	1.403744	-0.511992	0.131683
C36	C	1.402236	-0.571549	0.131678
C37	C	1.443682	-0.586718	-0.131932
C38	C	1.445198	-0.527159	-0.131925
C39	C	1.425224	-0.489796	-0.000113
C40	C	1.457680	-0.038780	-0.131841
C41	C	1.459210	0.020783	-0.131820
C42	C	1.417758	0.035946	0.131789
C43	C	1.416234	-0.023611	0.131769
C44	C	1.436193	-0.060974	-0.000057
O45	O	1.396242	-0.111388	0.243762
O46	O	1.472865	-0.139498	-0.243953
C47	C	1.652353	0.243178	-0.000072
C48	C	1.786884	0.258093	-0.000085
C49	C	1.420584	0.327696	-0.000103
C50	C	1.422193	0.391082	-0.000126
N51	N	1.376627	0.244444	0.344021
N52	N	1.484821	0.204781	-0.344151
C53	C	1.443866	0.219790	0.416230
C54	C	1.417572	0.229439	0.583644
H55	H	1.476716	0.038848	-0.239156
C56	C	1.471831	-0.150373	0.416496
C57	C	1.368029	-0.189359	0.408420
H58	H	1.458269	-0.125020	0.505947
H59	H	1.542769	-0.171023	0.411020
H60	H	1.484836	-0.128629	0.338007
H61	H	1.355029	-0.211106	0.486904
H62	H	1.297070	-0.168706	0.413911
H63	H	0.826189	0.304767	-0.000093
H64	H	1.387482	-0.481573	0.239027
C65	C	1.347616	-0.268989	0.524083
C66	C	1.364829	-0.314371	0.408413
H67	H	1.333011	-0.284043	0.613534
H68	H	1.419756	-0.243178	0.518606
H69	H	1.278392	-0.248974	0.518565
H70	H	1.434059	-0.334384	0.413926
H71	H	1.292682	-0.340192	0.413893
C72	C	1.184783	0.249876	0.515420
C73	C	1.272634	0.282583	0.427870
H74	H	1.120585	0.273423	0.567188
H75	H	1.150608	0.218370	0.456057
H76	H	1.223575	0.235660	0.582408
H77	H	1.233843	0.296795	0.360875
H78	H	1.306811	0.314099	0.487238
H79	H	1.340531	0.257689	0.645757
C80	C	1.702299	0.189862	0.608278
C81	C	1.588716	0.166615	0.571837
H82	H	1.766404	0.166290	0.556365
H83	H	1.719130	0.227744	0.583431
H84	H	1.698397	0.191309	0.709752
H85	H	1.592615	0.165172	0.470364
H86	H	1.571882	0.128723	0.596675
C87	C	1.375419	-0.002632	0.392337
C88	C	1.392615	-0.048009	0.276649
H89	H	1.360821	-0.017693	0.481779
H90	H	1.447562	0.023176	0.386859
H91	H	1.306195	0.017387	0.386841
H92	H	1.461845	-0.068026	0.282139
H93	H	1.320464	-0.073827	0.282129
H94	H	1.039553	0.278989	-0.000082
H95	H	0.821896	0.170228	-0.000090
H96	H	1.035248	0.144463	-0.000078
C97	C	1.401677	0.133984	0.248820
C98	C	1.395807	0.077023	0.276663
H99	H	1.388110	0.159343	0.338261
H100	H	1.481124	0.143524	0.194684
H101	H	1.339759	0.137717	0.194649
H102	H	1.457731	0.073290	0.330824
H103	H	1.316349	0.067480	0.330821
H104	H	1.473926	-0.069194	-0.239186
H105	H	1.490416	-0.242713	-0.371008
H106	H	1.520893	0.191536	0.354113
C107	C	1.389546	-0.400384	-0.416672
C108	C	1.493343	-0.361396	-0.408584
H109	H	1.403105	-0.425728	-0.506137
H110	H	1.376545	-0.422131	-0.338206
H111	H	1.318596	-0.379730	-0.411183
H112	H	1.564291	-0.382049	-0.414062
H113	H	1.506358	-0.339646	-0.487072
C114	C	1.486009	-0.548148	-0.392486
C115	C	1.468809	-0.502769	-0.276808
H116	H	1.500576	-0.533092	-0.481933
H117	H	1.555238	-0.568157	-0.387002
H118	H	1.413866	-0.573966	-0.386986
H119	H	1.540956	-0.476953	-0.282302
H120	H	1.399573	-0.482750	-0.282295
H121	H	1.459932	-0.617150	-0.239253
C122	C	1.361421	-0.550559	0.392241
C123	C	1.378621	-0.595938	0.276562
H124	H	1.346829	-0.565616	0.481688
H125	H	1.433561	-0.524747	0.386756
H126	H	1.292193	-0.530543	0.386742
H127	H	1.447856	-0.615951	0.282056
H128	H	1.306474	-0.621759	0.282050
