data_functionalizedCrystal
_audit_creation_method	'MofGen! by Chris Wilmer'
_symmetry_space_group_name_H-M	'P1'
_symmetry_Int_Tables_number	1
_symmetry_cell_setting	triclinic
loop_
_symmetry_equiv_pos_as_xyz
  x,y,z
_cell_length_a	12.811434
_cell_length_b	10.723024
_cell_length_c	9.798715
_cell_angle_alpha	89.996609
_cell_angle_beta	84.569243
_cell_angle_gamma	95.745509
loop_
_atom_site_label
_atom_site_type_symbol
_atom_site_fract_x
_atom_site_fract_y
_atom_site_fract_z
O1	O	-0.147215	1.656451	-0.095255
O2	O	-0.161306	1.293229	-0.093515
O3	O	-0.001535	1.483980	-0.113285
O4	O	-0.306986	1.465700	-0.075485
O5	O	-0.001535	1.483966	0.113697
O6	O	-0.161306	1.293214	0.133467
O7	O	-0.147215	1.656437	0.131727
Zn8	Zn	-0.154260	1.474823	0.168635
Zn9	Zn	-0.154261	1.474842	-0.130423
O10	O	-0.306986	1.465686	0.151497
C11	C	-0.160281	1.246727	0.019848
C12	C	-0.157213	1.108188	0.019467
C13	C	-0.246612	1.032758	0.030530
C14	C	-0.243443	0.889571	0.030136
C15	C	-0.346097	1.466716	0.042846
C16	C	-0.462637	1.469781	0.057268
C17	C	-0.681626	1.475580	-0.163115
C18	C	-0.791125	1.478460	-0.149571
C19	C	-0.791135	1.478431	0.097899
C20	C	-0.681636	1.475551	0.084355
C21	C	-0.626886	1.474124	-0.046156
C22	C	-0.517385	1.471234	-0.059699
C23	C	-0.517397	1.471214	0.187769
C24	C	-0.626896	1.474095	0.201313
C25	C	0.037577	1.482949	-0.004637
C26	C	0.154116	1.479884	-0.019068
C27	C	-0.148240	1.702939	0.018360
C28	C	-0.151308	1.841478	0.018733
N29	N	-0.154259	1.474820	0.372735
N30	N	-0.154253	1.474856	-0.334524
C31	C	-0.086880	1.554913	0.432174
C32	C	-0.086876	1.554933	0.589336
H33	H	-0.074771	0.906285	0.009253
H34	H	-0.078328	1.066760	0.009670
H35	H	-0.211946	1.406286	0.614339
H36	H	-0.211939	1.406259	0.438197
O37	O	-0.850199	1.479979	0.238653
H38	H	-0.820443	1.564376	0.294300
O39	O	-0.010460	1.645777	0.657065
H40	H	0.040783	1.592761	0.715829
O41	O	-0.351108	1.087625	0.043472
H42	H	-0.416114	1.010591	0.051528
O43	O	-0.458327	1.469678	-0.200456
H44	H	-0.514792	1.471181	-0.279507
H45	H	-0.319976	0.824756	0.039601
H46	H	-0.835691	1.479648	-0.244811
O47	O	-0.622564	1.474022	-0.303869
H48	H	-0.679026	1.475516	-0.382926
O49	O	-0.685949	1.475633	0.342075
H50	H	-0.771288	1.477874	0.331847
O51	O	-0.458357	1.469652	0.313932
H52	H	-0.373016	1.467417	0.282593
H53	H	-0.029192	1.623465	0.366713
