data_functionalizedCrystal
_audit_creation_method	'MofGen! by Chris Wilmer'
_symmetry_space_group_name_H-M	'P1'
_symmetry_Int_Tables_number	1
_symmetry_cell_setting	triclinic
loop_
_symmetry_equiv_pos_as_xyz
  x,y,z
_cell_length_a	19.188930
_cell_length_b	10.540539
_cell_length_c	18.266242
_cell_angle_alpha	89.995837
_cell_angle_beta	89.977082
_cell_angle_gamma	83.835136
loop_
_atom_site_label
_atom_site_type_symbol
_atom_site_fract_x
_atom_site_fract_y
_atom_site_fract_z
O1	O	-0.927206	-0.158472	0.061113
O2	O	-0.724037	-0.179804	0.061063
O3	O	-0.830256	0.015671	0.061088
O4	O	-0.820986	-0.353947	0.061088
O5	O	-0.830238	0.015681	-0.060674
O6	O	-0.724018	-0.179794	-0.060699
O7	O	-0.927187	-0.158462	-0.060649
Zn8	Zn	-0.825600	-0.169126	-0.080006
Zn9	Zn	-0.825624	-0.169140	0.080420
O10	O	-0.820968	-0.353937	-0.060674
C11	C	-0.698012	-0.179108	0.000175
C12	C	-0.620494	-0.177035	0.000156
C13	C	-0.829552	0.062963	0.000208
C14	C	-0.827472	0.203866	0.000212
C15	C	-0.953212	-0.159157	0.000240
C16	C	-1.030731	-0.161231	0.000264
C17	C	-0.576334	-0.291733	0.000167
C18	C	-0.503497	-0.289785	0.000175
C19	C	-0.474823	-0.173132	0.000187
C20	C	-0.518992	-0.058418	0.000171
C21	C	-0.591827	-0.060370	0.000156
N22	N	-0.366255	-0.083968	0.041657
N23	N	-0.297064	-0.082122	0.041673
C24	C	-0.255375	-0.167245	0.000232
N25	N	-0.285490	-0.254302	-0.041218
N26	N	-0.354687	-0.256152	-0.041231
C27	C	-0.395846	-0.171003	0.000203
C28	C	-0.132237	-0.279839	0.000251
C29	C	-0.059400	-0.277885	0.000254
C30	C	-0.074896	-0.046516	0.000257
C31	C	-0.147732	-0.048472	0.000247
C32	C	-0.176398	-0.165137	0.000247
C33	C	-0.821672	-0.401229	0.000207
C34	C	-0.823752	-0.542132	0.000209
N35	N	-0.825589	-0.169117	-0.189493
C36	C	-0.747771	0.385536	0.000465
C37	C	-0.749879	0.238965	0.000192
C38	C	-0.864803	0.266352	-0.069311
C39	C	-0.862155	0.412838	-0.069370
C40	C	-0.863753	0.413380	0.069096
C41	C	-0.864468	0.266413	0.070016
C42	C	-0.872639	-0.082603	-0.227791
C43	C	-0.872643	-0.082597	-0.304436
C44	C	-0.825604	-0.169127	-0.342780
C45	C	-0.778546	-0.255647	-0.304473
C46	C	-0.778538	-0.255642	-0.227830
N47	N	-0.817278	-0.281492	-0.463114
N48	N	-0.817289	-0.281493	-0.535922
C49	C	-0.825624	-0.169145	-0.573703
N50	N	-0.833960	-0.056793	-0.535924
N51	N	-0.833952	-0.056793	-0.463110
C52	C	-0.825607	-0.169141	-0.425887
C53	C	-0.872681	-0.082617	-0.695107
C54	C	-0.872681	-0.082610	-0.771754
C55	C	-0.778587	-0.255671	-0.771790
C56	C	-0.778584	-0.255668	-0.695145
C57	C	-0.825635	-0.169142	-0.656808
N58	N	-0.825641	-0.169139	0.189907
H59	H	-0.599669	-0.386731	0.000169
Br60	Br	-0.957165	0.494149	0.069901
Br61	Br	-0.700921	0.166863	0.083255
Br62	Br	-0.443555	-0.445458	0.000186
H63	H	-0.717237	0.415075	-0.049126
H64	H	-0.495641	0.036562	0.000191
H65	H	-0.183688	0.044928	0.000241
H66	H	-0.627783	0.033035	0.000147
H67	H	-0.720284	0.196561	-0.049742
Br68	Br	-0.821559	0.194410	-0.155568
Br69	Br	-0.936533	0.034822	-0.823733
H70	H	-0.155578	-0.374834	0.000240
Br71	Br	-0.696691	0.432064	0.083562
Br72	Br	-0.936489	0.034826	-0.175762
H73	H	-0.910958	-0.012144	-0.335623
H74	H	-0.740284	-0.326121	-0.803009
Br75	Br	0.000534	-0.433562	0.000263
H76	H	-0.834550	0.440434	-0.121354
H77	H	-0.051551	0.048466	0.000312
H78	H	-0.740223	-0.326094	-0.196647
Br79	Br	-0.714701	-0.373074	-0.356509
Br80	Br	-0.955160	0.494846	-0.074614
Br81	Br	-0.819332	0.196487	0.155753
H82	H	-0.921040	0.243438	0.074229
H83	H	-0.910991	-0.012159	-0.663892
H84	H	-0.740274	-0.326121	-0.663961
Br85	Br	-0.959777	0.231195	-0.073601
H86	H	-0.838648	0.444375	0.121791
