data_functionalizedCrystal
_audit_creation_method	'MofGen! by Chris Wilmer'
_symmetry_space_group_name_H-M	'P1'
_symmetry_Int_Tables_number	1
_symmetry_cell_setting	triclinic
loop_
_symmetry_equiv_pos_as_xyz
  x,y,z
_cell_length_a	23.532355
_cell_length_b	22.610064
_cell_length_c	10.540539
_cell_angle_alpha	89.993336
_cell_angle_beta	83.676481
_cell_angle_gamma	90.004347
loop_
_atom_site_label
_atom_site_type_symbol
_atom_site_fract_x
_atom_site_fract_y
_atom_site_fract_z
O1	O	-0.756298	-0.049129	-0.153749
O2	O	-0.590579	-0.049141	-0.176112
O3	O	-0.677219	-0.049134	0.019902
O4	O	-0.669658	-0.049136	-0.349763
O5	O	-0.677204	0.049235	0.019872
O6	O	-0.590563	0.049228	-0.176142
O7	O	-0.756283	0.049241	-0.153779
Zn8	Zn	-0.673421	0.064853	-0.164965
Zn9	Zn	-0.673441	-0.064753	-0.164926
O10	O	-0.669642	0.049233	-0.349793
C11	C	-0.569351	0.000042	-0.175568
C12	C	-0.506121	0.000037	-0.173888
C13	C	-0.232836	-0.053578	-0.166521
C14	C	-0.292247	-0.053580	-0.168111
O15	O	-0.322985	-0.099182	-0.168876
N16	N	-0.321949	0.000041	-0.168931
C17	C	-0.292239	0.053667	-0.168148
O18	O	-0.322959	0.099276	-0.168990
C19	C	-0.232830	0.053669	-0.166548
C20	C	-0.203130	0.000044	-0.165741
C21	C	-0.203136	-0.107199	-0.165712
C22	C	-0.143729	-0.107196	-0.164124
C23	C	-0.114023	-0.053574	-0.163344
C24	C	-0.143724	0.000046	-0.164152
C25	C	-0.203122	0.107294	-0.165755
C26	C	-0.143709	0.107291	-0.164154
C27	C	-0.114009	0.053667	-0.163347
C28	C	-0.054611	0.053671	-0.161784
N29	N	-0.024908	0.000050	-0.160964
C30	C	-0.054614	-0.053573	-0.161744
C31	C	-0.417002	0.053660	-0.171505
C32	C	-0.476409	0.053660	-0.173114
C33	C	-0.476413	-0.053588	-0.173076
C34	C	-0.417004	-0.053587	-0.171476
C35	C	-0.387299	0.000039	-0.170685
C36	C	0.070143	-0.053564	-0.158410
C37	C	0.129555	-0.053557	-0.156826
C38	C	0.129553	0.053690	-0.156859
C39	C	0.070147	0.053684	-0.158448
C40	C	0.040443	0.000052	-0.159219
O41	O	-0.023835	0.099249	-0.161013
O42	O	-0.023888	-0.099174	-0.160885
N43	N	-0.673411	0.153305	-0.164992
C44	C	-0.711807	0.561950	-0.078154
C45	C	-0.711809	0.623869	-0.078145
O46	O	-0.744431	0.655891	-0.004327
N47	N	-0.673440	0.654842	-0.164911
C48	C	-0.635061	0.623892	-0.251681
O49	O	-0.602424	0.655922	-0.325480
C50	C	-0.635055	0.561973	-0.251682
C51	C	-0.673432	0.531003	-0.164920
C52	C	-0.750179	0.530980	0.008602
C53	C	-0.750177	0.469064	0.008592
C54	C	-0.711802	0.438118	-0.078174
C55	C	-0.673429	0.469088	-0.164930
C56	C	-0.596674	0.531023	-0.338446
C57	C	-0.596672	0.469100	-0.338439
C58	C	-0.635048	0.438131	-0.251676
C59	C	-0.635052	0.376226	-0.251707
N60	N	-0.673422	0.345253	-0.164942
C61	C	-0.711797	0.376200	-0.078175
C62	C	-0.635074	0.753925	-0.251670
C63	C	-0.635081	0.815843	-0.251676
C64	C	-0.711829	0.815816	-0.078139
C65	C	-0.711824	0.753898	-0.078140
C66	C	-0.673443	0.722953	-0.164905
C67	C	-0.711790	0.246172	-0.078204
C68	C	-0.711786	0.184251	-0.078225
C69	C	-0.635036	0.184283	-0.251758
C70	C	-0.635042	0.246199	-0.251741
C71	C	-0.673421	0.277142	-0.164954
O72	O	-0.602446	0.344165	-0.325484
O73	O	-0.744423	0.344162	-0.004378
C74	C	0.222490	0.000058	-0.154334
C75	C	0.159262	0.000065	-0.156047
C76	C	-0.676644	0.000050	0.067171
C77	C	-0.674948	0.000046	0.208062
N78	N	-0.673454	0.846794	-0.164905
C79	C	-0.670217	0.000048	-0.397062
C80	C	-0.671914	0.000048	-0.537954
C81	C	-0.609938	-0.000179	0.389329
C82	C	-0.611657	0.000042	0.242768
C83	C	-0.705397	0.056222	0.270715
C84	C	-0.703237	0.056269	0.417188
C85	C	-0.704542	-0.055595	0.417783
C86	C	-0.705125	-0.056337	0.270821
H87	H	-0.119526	0.150961	-0.163521
Cl88	Cl	-0.776368	-0.061574	0.235790
Cl89	Cl	-0.760069	0.714971	0.030939
Cl90	Cl	-0.379664	0.121083	-0.170530
H91	H	-0.682846	-0.097895	0.229235
H92	H	-0.751876	0.058314	0.249905
H93	H	-0.119553	-0.150863	-0.163461
H94	H	-0.227294	0.150961	-0.166408
H95	H	-0.565425	0.556230	-0.409094
Cl96	Cl	-0.571344	-0.062377	0.432218
H97	H	-0.500610	-0.097250	-0.173710
Cl98	Cl	-0.775120	-0.056175	0.493044
H99	H	-0.565416	0.443908	-0.409092
Cl100	Cl	0.032809	0.121098	-0.159479
H101	H	0.153751	0.097348	-0.156229
H102	H	-0.603798	0.271414	-0.322403
H103	H	-0.743038	0.159038	-0.007573
Cl104	Cl	0.166889	-0.120976	-0.155815
H105	H	-0.748754	0.058821	0.466668
Cl106	Cl	-0.586795	0.145369	-0.360832
Cl107	Cl	-0.672921	-0.121332	0.465447
Cl108	Cl	0.032811	-0.120988	-0.159382
Cl109	Cl	-0.574664	-0.062130	0.175775
Cl110	Cl	-0.571376	0.061480	0.435210
H111	H	-0.743041	0.271359	-0.007532
Cl112	Cl	-0.240470	-0.174619	-0.166692
Cl113	Cl	-0.574385	0.062312	0.177032
Cl114	Cl	-0.672722	0.120762	0.203847
Cl115	Cl	-0.513738	0.121076	-0.174155
H116	H	-0.392826	-0.097253	-0.170819
Cl117	Cl	-0.798419	0.430138	0.117677
H118	H	-0.680721	0.098259	0.444626
H119	H	-0.781429	0.556171	0.079264
H120	H	-0.743075	0.841024	-0.007487
Cl121	Cl	-0.586842	0.854769	-0.360770
H122	H	-0.603821	0.728733	-0.322335
