data_functionalizedCrystal
_audit_creation_method	'MofGen! by Chris Wilmer'
_symmetry_space_group_name_H-M	'P1'
_symmetry_Int_Tables_number	1
_symmetry_cell_setting	triclinic
loop_
_symmetry_equiv_pos_as_xyz
  x,y,z
_cell_length_a	14.853569
_cell_length_b	15.021413
_cell_length_c	14.853567
_cell_angle_alpha	89.992183
_cell_angle_beta	83.635248
_cell_angle_gamma	90.005354
loop_
_atom_site_label
_atom_site_type_symbol
_atom_site_fract_x
_atom_site_fract_y
_atom_site_fract_z
O1	O	1.196369	0.073984	0.117699
O2	O	0.933910	0.073993	0.131719
O3	O	1.072150	0.073991	-0.006521
O4	O	1.058129	0.073986	0.255939
O5	O	1.072128	-0.074073	-0.006501
O6	O	0.933888	-0.074071	0.131739
O7	O	1.196347	-0.074081	0.117719
Zn8	Zn	1.065114	-0.097584	0.124732
Zn9	Zn	1.065143	0.097497	0.124706
O10	O	1.058107	-0.074078	0.255958
C11	C	0.900310	-0.000037	0.131093
C12	C	0.800226	-0.000033	0.129189
C13	C	0.763850	-0.000029	0.046178
C14	C	0.742560	-0.000042	0.210410
C15	C	0.648526	-0.000043	0.208624
C16	C	0.612150	-0.000038	0.125613
C17	C	0.669807	-0.000032	0.044389
C18	C	0.590862	-0.000057	0.289847
C19	C	0.496821	-0.000059	0.288064
C20	C	0.460443	-0.000048	0.205052
C21	C	0.518107	-0.000042	0.123824
C22	C	0.481730	-0.000037	0.040813
C23	C	0.539393	-0.000024	-0.040415
C24	C	0.633429	-0.000021	-0.038623
C25	C	0.366407	-0.000051	0.203259
C26	C	0.387688	-0.000040	0.039024
N27	N	1.065101	-0.230722	0.124749
C28	C	1.001168	-0.470404	0.188641
C29	C	1.082654	-0.529742	0.206241
C30	C	1.065124	-0.412329	0.124726
C31	C	0.983660	-0.529732	0.107146
C32	C	1.065139	-0.587753	0.124707
C33	C	1.146650	-0.470360	0.142367
C34	C	1.047603	-0.470345	0.043237
C35	C	1.129147	-0.529657	0.060803
C36	C	1.065114	-0.311271	0.124740
C37	C	1.065158	-0.688808	0.124692
C38	C	1.229947	-0.000048	0.118344
C39	C	1.330030	-0.000046	0.120249
N40	N	1.065163	0.230635	0.124681
C41	C	1.071504	-0.000039	-0.040100
C42	C	1.069600	-0.000031	-0.140183
C43	C	0.979434	-0.000044	-0.552718
C44	C	1.143667	-0.000050	-0.573998
C45	C	1.145457	-0.000045	-0.479964
C46	C	1.064234	-0.000041	-0.422303
C47	C	0.981222	-0.000042	-0.458675
C48	C	1.228468	-0.000053	-0.443585
C49	C	1.230262	-0.000049	-0.349545
C50	C	1.149038	-0.000039	-0.291882
C51	C	1.066022	-0.000038	-0.328260
C52	C	0.984800	-0.000034	-0.270599
C53	C	0.901783	-0.000028	-0.306974
C54	C	0.899998	-0.000031	-0.401012
C55	C	1.150822	-0.000035	-0.197845
C56	C	0.986587	-0.000032	-0.176556
C57	C	1.058753	-0.000047	0.289537
C58	C	1.060657	-0.000049	0.389621
H59	H	0.620487	-0.000067	0.357430
H60	H	0.449880	-0.000068	0.354205
H61	H	0.319463	-0.000069	0.269395
N62	N	0.695618	-0.000023	-0.126228
H63	H	0.683917	0.054866	-0.162448
H64	H	0.760683	-0.000061	-0.112422
H65	H	0.810802	-0.000014	-0.019956
N66	N	1.237931	-0.435967	0.162171
H67	H	1.279280	-0.487840	0.171103
H68	H	1.265243	-0.398458	0.109664
H69	H	1.183298	-0.555510	0.006741
N70	N	0.781790	-0.000053	0.299939
H71	H	0.850112	-0.000052	0.288748
H72	H	0.760712	0.054835	0.335480
H73	H	1.097486	-0.555831	0.275146
N74	N	0.500144	-0.000019	-0.129941
H75	H	0.521155	0.054873	-0.165537
H76	H	0.521167	-0.054938	-0.165458
N77	N	0.889895	-0.000038	-0.591938
H78	H	0.885498	0.054849	-0.630487
H79	H	0.885535	-0.054962	-0.630426
H80	H	1.032745	-0.444236	-0.025646
H81	H	0.947138	-0.444387	0.242735
H82	H	1.209794	-0.000061	-0.620951
H83	H	0.832410	-0.000027	-0.430638
H84	H	0.914762	-0.555814	0.092286
H85	H	0.920445	-0.000024	-0.129613
H86	H	0.835651	-0.000030	-0.260014
N87	N	1.316067	-0.000074	-0.505772
H88	H	1.302336	-0.000073	-0.570863
H89	H	1.352256	0.054809	-0.493996
N90	N	1.319795	-0.000056	-0.310314
H91	H	1.370976	-0.000061	-0.361113
H92	H	1.324123	0.054836	-0.271774
N93	N	1.240350	-0.000053	-0.158610
H94	H	1.275956	0.054828	-0.179635
H95	H	1.229080	-0.000084	-0.090295
N96	N	0.348455	-0.000029	-0.050510
H97	H	0.399254	-0.000020	-0.101691
H98	H	0.309902	-0.054921	-0.054829
