data_functionalizedCrystal
_audit_creation_method	'MofGen! by Chris Wilmer'
_symmetry_space_group_name_H-M	'P1'
_symmetry_Int_Tables_number	1
_symmetry_cell_setting	triclinic
loop_
_symmetry_equiv_pos_as_xyz
  x,y,z
_cell_length_a	13.033808
_cell_length_b	13.032721
_cell_length_c	19.076919
_cell_angle_alpha	80.861841
_cell_angle_beta	80.860566
_cell_angle_gamma	103.361820
loop_
_atom_site_label
_atom_site_type_symbol
_atom_site_fract_x
_atom_site_fract_y
_atom_site_fract_z
Zn1	Zn	1.550535	-0.235881	0.285676
Zn2	Zn	2.050535	0.264119	0.785676
Zn3	Zn	1.534816	-0.406571	0.183922
Zn4	Zn	2.034816	0.093429	0.683922
Zn5	Zn	1.379876	-0.251548	0.183913
Zn6	Zn	1.879876	0.248452	0.683913
Zn7	Zn	1.347964	-0.438415	0.320261
Zn8	Zn	1.847964	0.061585	0.820261
O9	O	1.453298	-0.333104	0.243443
O10	O	1.953298	0.166896	0.743443
O11	O	1.698070	-0.238640	0.257708
O12	O	2.198070	0.261360	0.757708
O13	O	1.521039	-0.379236	0.084274
O14	O	2.021039	0.120764	0.584274
O15	O	1.422447	-0.099831	0.182934
O16	O	1.922447	0.400169	0.682934
O17	O	1.686521	-0.364045	0.182950
O18	O	2.186521	0.135955	0.682950
O19	O	1.547830	-0.088320	0.257699
O20	O	2.047830	0.411680	0.757699
O21	O	1.407205	-0.265341	0.084267
O22	O	1.907205	0.234659	0.584267
O23	O	1.226023	-0.296220	0.216470
O24	O	1.726023	0.203780	0.716470
O25	O	1.368060	-0.418319	0.415320
O26	O	1.868060	0.081681	0.915320
O27	O	1.202578	-0.433510	0.316645
O28	O	1.702578	0.066490	0.816645
O29	O	1.516887	-0.269518	0.389911
O30	O	2.016887	0.230482	0.889911
O31	O	1.490096	-0.560434	0.216486
O32	O	1.990096	-0.060434	0.716486
O33	O	1.352817	-0.583830	0.316654
O34	O	1.852817	-0.083830	0.816654
C35	C	1.175505	-0.370021	0.270309
C36	C	1.675505	0.129979	0.770309
C37	C	1.056660	-0.385842	0.281822
C38	C	1.556660	0.114158	0.781822
C39	C	1.416316	-0.610929	0.270336
C40	C	1.916316	-0.110929	0.770336
C41	C	1.400592	-0.729772	0.281856
C42	C	1.900592	-0.229772	0.781856
C43	C	0.892423	-0.341217	0.249348
C44	C	1.392423	0.158783	0.749348
C45	C	1.015256	-0.324866	0.237447
C46	C	1.515256	0.175134	0.737447
C47	C	1.461559	-0.771140	0.237457
C48	C	1.961559	-0.271140	0.737457
C49	C	1.445309	-0.893971	0.249362
C50	C	1.945309	-0.393971	0.749362
C51	C	1.732175	-0.296043	0.216472
C52	C	2.232175	0.203957	0.716472
C53	C	1.851016	-0.280250	0.204979
C54	C	2.351016	0.219750	0.704979
C55	C	1.440667	-0.345723	0.429175
C56	C	1.940667	0.154277	0.929175
C57	C	1.435285	-0.351101	0.508323
C58	C	1.935285	0.148899	1.008323
C59	C	1.490452	-0.054191	0.216457
C60	C	1.990452	0.445809	0.716457
C61	C	1.506285	0.064665	0.204957
C62	C	2.006285	0.564665	0.704957
C63	C	1.465951	-0.320448	0.058420
C64	C	1.965951	0.179552	0.558420
C65	C	1.471581	-0.314742	-0.020777
C66	C	1.971581	0.185258	0.479223
C67	C	1.510239	-0.276158	0.532280
C68	C	2.010239	0.223842	1.032280
C69	C	1.505169	-0.281209	0.606648
C70	C	2.005169	0.218791	1.106648
C71	C	1.425149	-0.361207	0.657060
C72	C	1.925149	0.138793	1.157060
C73	C	1.350187	-0.436154	0.633099
C74	C	1.850187	0.063846	1.133099
C75	C	1.355253	-0.431098	0.558732
C76	C	1.855253	0.068902	1.058732
C77	C	1.401685	-0.384632	0.880895
C78	C	1.901685	0.115368	1.380895
C79	C	1.396626	-0.389684	0.955267
C80	C	1.896626	0.110316	1.455267
C81	C	1.551608	-0.234737	0.928810
C82	C	2.051608	0.265263	1.428810
C83	C	1.556671	-0.229692	0.854443
C84	C	2.056671	0.270308	1.354443
C85	C	1.481705	-0.304635	0.830489
C86	C	1.981705	0.195365	1.330489
N87	N	1.419967	-0.366374	0.733077
N88	N	1.919967	0.133626	1.233077
N89	N	1.486884	-0.299463	0.754473
N90	N	1.986884	0.200537	1.254473
H91	H	0.836937	-0.405522	0.296144
H92	H	1.336937	0.094478	0.796144
H93	H	1.070739	-0.260564	0.190643
H94	H	1.570739	0.239436	0.690643
H95	H	0.906502	-0.215952	0.158179
H96	H	1.406502	0.284048	0.658179
H97	H	1.001178	-0.450149	0.328623
H98	H	1.501178	0.049851	0.828623
H99	H	1.525791	-0.715624	0.190634
H100	H	2.025791	-0.215624	0.690634
H101	H	1.381081	-0.949485	0.296193
H102	H	1.881081	-0.449485	0.796193
H103	H	1.570521	-0.879821	0.158132
H104	H	2.070521	-0.379821	0.658132
H105	H	1.336368	-0.785290	0.328683
H106	H	1.836368	-0.285290	0.828683
H107	H	1.575403	-0.211017	0.491238
H108	H	2.075403	0.288983	0.991238
H109	H	1.331461	-0.454832	0.996312
H110	H	1.831461	0.045168	1.496312
H111	H	1.566207	-0.220185	0.626149
H112	H	2.066207	0.279815	1.126149
H113	H	1.294208	-0.492115	0.539229
H114	H	1.794208	0.007885	1.039229
H115	H	1.621834	-0.164551	0.813401
H116	H	2.121834	0.335449	1.313401
H117	H	1.612639	-0.173722	0.948322
H118	H	2.112639	0.326278	1.448322
H119	H	1.340656	-0.445669	0.861401
H120	H	1.840656	0.054331	1.361401
H121	H	1.285030	-0.501287	0.674151
H122	H	1.785030	-0.001287	1.174151
