data_functionalizedCrystal
_audit_creation_method	'MofGen! by Chris Wilmer'
_symmetry_space_group_name_H-M	'P1'
_symmetry_Int_Tables_number	1
_symmetry_cell_setting	triclinic
loop_
_symmetry_equiv_pos_as_xyz
  x,y,z
_cell_length_a	14.853567
_cell_length_b	9.065218
_cell_length_c	7.540329
_cell_angle_alpha	90.001345
_cell_angle_beta	90.000843
_cell_angle_gamma	84.325408
loop_
_atom_site_label
_atom_site_type_symbol
_atom_site_fract_x
_atom_site_fract_y
_atom_site_fract_z
O1	O	-1.197789	-0.192613	-0.147353
O2	O	-0.935500	-0.215558	-0.147382
O3	O	-1.072066	0.010664	-0.147363
O4	O	-1.061223	-0.418835	-0.147372
O5	O	-1.072055	0.010665	0.147602
O6	O	-0.935489	-0.215557	0.147583
O7	O	-1.197779	-0.192612	0.147612
Cu8	Cu	-1.066633	-0.204085	0.174530
Cu9	Cu	-1.066646	-0.204086	-0.174300
O10	O	-1.061213	-0.418835	0.147593
C11	C	-0.901898	-0.214518	0.000096
C12	C	-0.801791	-0.211403	0.000085
C13	C	-1.071019	0.065631	0.000116
C14	C	-1.067903	0.229412	0.000107
C15	C	-1.231381	-0.193652	0.000130
C16	C	-1.331487	-0.196768	0.000130
C17	C	-0.388166	-0.063852	0.000128
C18	C	-0.368873	-0.332609	0.000121
C19	C	-0.462929	-0.335539	0.000115
C20	C	-0.519607	-0.202622	0.000113
C21	C	-0.482230	-0.066777	0.000116
C22	C	-0.500313	-0.471382	0.000093
C23	C	-0.594374	-0.474316	0.000085
C24	C	-0.651054	-0.341399	0.000096
C25	C	-0.613672	-0.205548	0.000102
C26	C	-0.670350	-0.072632	0.000100
C27	C	-0.632969	0.063221	0.000118
C28	C	-0.538910	0.066141	0.000127
C29	C	-0.745113	-0.344319	0.000087
C30	C	-0.764414	-0.075557	0.000089
C31	C	-1.062260	-0.473801	0.000110
C32	C	-1.065376	-0.637582	0.000107
N33	N	-1.066631	-0.204083	0.419879
N34	N	-1.066647	-0.204083	0.580351
H35	H	-0.679129	0.171441	0.000104
H36	H	-0.357726	0.046756	0.000149
O37	O	-0.313691	-0.461579	0.000200
C38	C	-0.222657	-0.429867	0.000158
H39	H	-0.218104	-0.313978	0.055998
H40	H	-0.195506	-0.435411	-0.141350
C41	C	-0.171632	-0.686623	0.047256
C42	C	-0.166040	-0.544290	0.115853
H43	H	-0.136707	-0.757207	0.118614
H44	H	-0.232964	-0.707990	0.047277
H45	H	-0.149009	-0.691222	-0.070667
H46	H	-0.188674	-0.539688	0.233764
H47	H	-0.104711	-0.522925	0.115854
H48	H	-0.508466	0.176745	0.000184
H49	H	-0.810556	0.032681	0.000094
H50	H	-0.454159	-0.579594	0.000076
O51	O	-0.781469	-0.476230	-0.000244
C52	C	-0.835320	-0.485940	-0.152988
H53	H	-0.812449	-0.408798	-0.259755
H54	H	-0.909197	-0.452054	-0.118447
C55	C	-0.853331	-0.741272	-0.091137
C56	C	-0.825236	-0.646535	-0.222276
H57	H	-0.847115	-0.840335	-0.133875
H58	H	-0.817054	-0.734730	0.011773
H59	H	-0.914893	-0.713016	-0.062365
H60	H	-0.763671	-0.674780	-0.251030
H61	H	-0.861502	-0.653085	-0.325194
H62	H	-0.624801	-0.584935	0.000070
