data_functionalizedCrystal
_audit_creation_method	'MofGen! by Chris Wilmer'
_symmetry_space_group_name_H-M	'P1'
_symmetry_Int_Tables_number	1
_symmetry_cell_setting	triclinic
loop_
_symmetry_equiv_pos_as_xyz
  x,y,z
_cell_length_a	16.992694
_cell_length_b	10.654550
_cell_length_c	9.730223
_cell_angle_alpha	90.004253
_cell_angle_beta	89.997618
_cell_angle_gamma	87.576577
loop_
_atom_site_label
_atom_site_type_symbol
_atom_site_fract_x
_atom_site_fract_y
_atom_site_fract_z
O1	O	-1.041839	-0.266431	-0.114117
O2	O	-0.541839	0.233569	0.385883
O3	O	-0.813538	-0.263508	-0.114158
O4	O	-0.313538	0.236492	0.385842
O5	O	-0.932937	-0.082684	-0.114128
O6	O	-0.432937	0.417316	0.385872
O7	O	-0.922439	-0.447255	-0.114147
O8	O	-0.422439	0.052745	0.385853
O9	O	-0.932930	-0.082678	0.114452
O10	O	-0.432930	0.417322	0.614452
O11	O	-0.813530	-0.263502	0.114422
O12	O	-0.313530	0.236498	0.614422
O13	O	-1.041831	-0.266425	0.114463
O14	O	-0.541831	0.233575	0.614463
Zn15	Zn	-0.927679	-0.264963	0.150734
Zn16	Zn	-0.427679	0.235037	0.650734
Zn17	Zn	-0.927689	-0.264971	-0.150429
Zn18	Zn	-0.427689	0.235029	0.349571
O19	O	-0.922431	-0.447249	0.114433
O20	O	-0.422431	0.052751	0.614433
C21	C	-0.784301	-0.259745	0.000127
C22	C	-0.284301	0.240255	0.500127
C23	C	-0.697196	-0.248526	0.000112
C24	C	-0.197196	0.251474	0.500112
C25	C	-1.071068	-0.270188	0.000175
C26	C	-0.571068	0.229812	0.500175
C27	C	-1.158173	-0.281408	0.000181
C28	C	-0.658173	0.218592	0.500181
C29	C	-0.647544	-0.356776	0.000107
C30	C	-0.147544	0.143224	0.500107
C31	C	-0.565700	-0.346227	0.000127
C32	C	-0.065700	0.153773	0.500127
C33	C	-0.533509	-0.227426	0.000141
C34	C	-0.033509	0.272574	0.500141
C35	C	-0.583167	-0.119167	0.000150
C36	C	-0.083167	0.380833	0.500150
C37	C	-0.665010	-0.129718	0.000140
C38	C	-0.165010	0.370282	0.500140
C39	C	-0.289674	-0.183699	0.000180
C40	C	0.210326	0.316301	0.500180
C41	C	-0.207825	-0.173157	0.000186
C42	C	0.292175	0.326843	0.500186
C43	C	-0.190363	-0.400218	0.000165
C44	C	0.309637	0.099782	0.500165
C45	C	-0.272208	-0.410758	0.000147
C46	C	0.227792	0.089242	0.500147
C47	C	-0.321859	-0.302499	0.000163
C48	C	0.178141	0.197501	0.500163
N49	N	-0.449852	-0.216640	0.000157
N50	N	0.050148	0.283360	0.500157
N51	N	-0.405515	-0.313286	0.000157
N52	N	0.094485	0.186714	0.500157
C53	C	-0.932163	-0.035816	0.000161
C54	C	-0.432163	0.464184	0.500161
C55	C	-0.929856	0.103826	0.000159
C56	C	-0.429856	0.603826	0.500159
C57	C	-0.923206	-0.494117	0.000141
C58	C	-0.423206	0.005883	0.500141
C59	C	-0.925512	-0.633759	0.000134
C60	C	-0.425512	-0.133759	0.500134
N61	N	-0.927678	-0.264957	0.356271
N62	N	-0.427678	0.235043	0.856271
C63	C	-1.000157	0.177237	0.000171
C64	C	-0.500157	0.677237	0.500171
C65	C	-0.997985	0.308445	0.000154
C66	C	-0.497985	0.808445	0.500154
C67	C	-0.855206	0.292820	0.000118
C68	C	-0.355206	0.792820	0.500118
C69	C	-0.857379	0.161614	0.000126
C70	C	-0.357379	0.661614	0.500126
N71	N	-0.927697	-0.264967	-0.355966
N72	N	-0.427697	0.235033	0.144034
C73	C	-0.980566	-0.184926	0.428210
C74	C	-0.480566	0.315074	0.928210
C75	C	-0.980574	-0.184927	0.572093
C76	C	-0.480574	0.315073	1.072093
C77	C	-0.874803	-0.345002	0.572085
C78	C	-0.374803	0.154998	1.072085
C79	C	-0.874792	-0.344993	0.428205
C80	C	-0.374792	0.155007	0.928205
H81	H	-0.673747	-0.453517	0.000095
H82	H	-0.173747	0.046483	0.500095
H83	H	-1.059173	0.130190	0.000195
H84	H	-0.559173	0.630190	0.500195
H85	H	-1.023628	-0.119754	0.369645
H86	H	-0.523628	0.380246	0.869645
H87	H	-0.181619	-0.076410	0.000196
H88	H	0.318381	0.423590	0.500196
H89	H	-0.149929	-0.488356	0.000155
H90	H	0.350071	0.011644	0.500155
Cl91	Cl	-1.086368	0.400728	0.000166
Cl92	Cl	-0.586368	0.900728	0.500166
H93	H	-1.023640	-0.119757	0.630662
H94	H	-0.523640	0.380243	1.130662
Cl95	Cl	-0.352081	-0.047600	0.000199
Cl96	Cl	0.147919	0.452400	0.500199
H97	H	-0.831745	-0.410167	0.630668
H98	H	-0.331745	0.089833	1.130668
H99	H	-0.796197	0.339888	0.000094
H100	H	-0.296197	0.839888	0.500094
Cl101	Cl	-0.503283	-0.482321	0.000112
Cl102	Cl	-0.003283	0.017679	0.500112
H103	H	-0.298411	-0.507498	0.000120
H104	H	0.201589	-0.007498	0.500120
Cl105	Cl	-0.542699	0.030184	0.000176
Cl106	Cl	-0.042699	0.530184	0.500176
Cl107	Cl	-0.727430	0.006375	0.000152
Cl108	Cl	-0.227430	0.506375	0.500152
H109	H	-0.800128	0.101841	0.000112
H110	H	-0.300128	0.601841	0.500112
Cl111	Cl	-0.808295	-0.445605	0.337758
Cl112	Cl	-0.308295	0.054395	0.837758
