data_functionalizedCrystal
_audit_creation_method	'MofGen! by Chris Wilmer'
_symmetry_space_group_name_H-M	'P1'
_symmetry_Int_Tables_number	1
_symmetry_cell_setting	triclinic
loop_
_symmetry_equiv_pos_as_xyz
  x,y,z
_cell_length_a	19.288859
_cell_length_b	10.967829
_cell_length_c	18.366186
_cell_angle_alpha	77.865925
_cell_angle_beta	89.990083
_cell_angle_gamma	83.939469
loop_
_atom_site_label
_atom_site_type_symbol
_atom_site_fract_x
_atom_site_fract_y
_atom_site_fract_z
O1	O	0.922371	0.155625	-0.080089
O2	O	0.720247	0.176631	-0.082723
O3	O	0.825968	-0.015550	-0.058608
O4	O	0.816649	0.347806	-0.104205
O5	O	0.825950	-0.015559	0.062493
O6	O	0.720228	0.176622	0.038377
O7	O	0.922353	0.155615	0.041011
Zn8	Zn	0.821288	0.166117	0.058922
Zn9	Zn	0.821311	0.166130	-0.100633
O10	O	0.816631	0.347796	0.016896
C11	C	0.694356	0.175952	-0.022088
C12	C	0.617239	0.173927	-0.021833
C13	C	0.053845	0.272990	-0.034266
C14	C	0.126304	0.274904	-0.034510
C15	C	0.170275	0.162141	-0.020358
C16	C	0.141782	0.047456	-0.005979
C17	C	0.069324	0.045545	-0.005743
C18	C	0.290990	0.078039	0.032625
C19	C	0.363447	0.079955	0.032393
C20	C	0.393759	0.168029	-0.021089
C21	C	0.351606	0.254209	-0.074332
C22	C	0.279148	0.252298	-0.074096
C23	C	0.248844	0.164200	-0.020613
C24	C	0.500813	0.284782	-0.035736
C25	C	0.573273	0.286691	-0.035984
C26	C	0.588750	0.059239	-0.007446
C27	C	0.516291	0.057334	-0.007206
C28	C	0.472326	0.170109	-0.021348
C29	C	0.825279	-0.062040	0.007775
C30	C	0.823247	-0.200555	0.025152
C31	C	0.822350	-0.262297	-0.029835
C32	C	0.820249	-0.405459	-0.011876
C33	C	0.948243	0.156295	-0.019625
C34	C	1.025360	0.158320	-0.019885
C35	C	0.817320	0.394287	-0.049488
C36	C	0.819352	0.532801	-0.066870
N37	N	0.821276	0.166108	0.167814
N38	N	0.821328	0.166129	-0.209525
C39	C	0.868105	0.081052	0.216588
C40	C	0.868110	0.081046	0.292816
C41	C	0.821292	0.166118	0.320265
C42	C	0.774454	0.251181	0.271482
C43	C	0.774446	0.251176	0.195256
C44	C	0.812735	0.279813	0.426758
C45	C	0.812748	0.279820	0.502982
C46	C	0.821312	0.166134	0.555371
C47	C	0.829877	0.052436	0.531527
C48	C	0.829870	0.052431	0.455301
C49	C	0.821295	0.166133	0.402918
C50	C	0.868148	0.081065	0.686801
C51	C	0.868147	0.081058	0.763031
C52	C	0.774495	0.251203	0.741694
C53	C	0.774492	0.251199	0.665467
C54	C	0.821322	0.166132	0.638025
H55	H	0.376284	0.325930	-0.117881
O56	O	0.600974	0.398062	-0.050091
C57	C	0.642439	0.405969	-0.113798
H58	H	0.625002	0.340855	-0.149459
H59	H	0.699433	0.376878	-0.095974
C60	C	0.655714	0.621839	-0.115494
C61	C	0.634294	0.541872	-0.159297
H62	H	0.650693	0.705670	-0.143558
H63	H	0.627780	0.616511	-0.072571
H64	H	0.703208	0.597581	-0.100643
H65	H	0.586799	0.566121	-0.174138
H66	H	0.662219	0.547206	-0.202223
H67	H	0.823134	-0.209170	-0.090207
O68	O	0.728879	0.333696	0.298127
C69	C	0.660028	0.313740	0.282015
H70	H	0.659214	0.213834	0.273604
H71	H	0.639949	0.382994	0.229080
C72	C	0.614042	0.456051	0.357613
C73	C	0.613042	0.333342	0.347289
H74	H	0.585057	0.468148	0.397875
H75	H	0.660428	0.469500	0.368466
H76	H	0.597311	0.513749	0.313497
H77	H	0.629780	0.275647	0.391402
H78	H	0.566658	0.319883	0.336445
O79	O	0.728982	0.333954	0.618180
C80	C	0.687647	0.409021	0.658753
H81	H	0.716133	0.410303	0.712921
H82	H	0.635860	0.368743	0.671931
C83	C	0.638981	0.542125	0.545568
C84	C	0.673972	0.543707	0.612095
H85	H	0.630542	0.625204	0.516787
H86	H	0.666827	0.491548	0.518233
H87	H	0.595829	0.508553	0.556560
H88	H	0.717126	0.577263	0.601103
H89	H	0.646132	0.594292	0.639427
O90	O	0.838161	-0.058119	0.432265
C91	C	0.845740	-0.158467	0.494842
H92	H	0.821483	-0.126234	0.545142
H93	H	0.903505	-0.190659	0.506970
C94	C	0.838551	-0.307728	0.417091
C95	C	0.808752	-0.268141	0.478869
H96	H	0.815737	-0.375383	0.407238
H97	H	0.833447	-0.240123	0.374931
H98	H	0.886687	-0.334546	0.427206
H99	H	0.760619	-0.241310	0.468750
H100	H	0.813846	-0.335745	0.521027
H101	H	0.819457	-0.458579	0.048500
O102	O	0.458073	0.394293	-0.049349
C103	C	0.415676	0.399977	0.012648
H104	H	0.441896	0.336015	0.064511
H105	H	0.362842	0.367981	0.002483
C106	C	0.373111	0.614371	-0.039659
C107	C	0.405317	0.535819	0.024041
H108	H	0.366718	0.698165	-0.032632
H109	H	0.401672	0.610541	-0.081429
H110	H	0.329086	0.587692	-0.048123
H111	H	0.449344	0.562489	0.032498
H112	H	0.376763	0.539657	0.065813
H113	H	0.018053	0.364820	-0.045785
O114	O	0.184563	-0.062000	0.007662
C115	C	0.226941	-0.067701	-0.054347
H116	H	0.231081	0.031327	-0.087679
H117	H	0.202846	-0.124550	-0.091136
C118	C	0.295106	-0.252533	0.013578
C119	C	0.300194	-0.130904	-0.027357
H120	H	0.340291	-0.291524	0.030225
H121	H	0.266554	-0.248696	0.055354
H122	H	0.275024	-0.299891	-0.017085
H123	H	0.320268	-0.083544	0.003309
H124	H	0.328752	-0.134735	-0.069128
H125	H	0.244829	0.322467	-0.117449
H126	H	0.906235	0.011782	0.194247
O127	O	0.729027	0.333982	0.147885
C128	C	0.740894	0.457455	0.151023
H129	H	0.796504	0.457808	0.171920
H130	H	0.702574	0.494282	0.190655
C131	C	0.662198	0.541669	0.047020
C132	C	0.730502	0.542105	0.072680
H133	H	0.655785	0.593888	-0.001305
H134	H	0.654201	0.458484	0.044907
H135	H	0.630273	0.572356	0.080053
H136	H	0.762426	0.511404	0.039652
H137	H	0.738505	0.625287	0.074786
O138	O	0.822183	-0.263831	0.097187
C139	C	0.762603	-0.217624	0.131580
H140	H	0.721165	-0.171641	0.087211
H141	H	0.777281	-0.145446	0.163741
C142	C	0.784562	-0.383241	0.240133
C143	C	0.733665	-0.326774	0.185639
H144	H	0.766713	-0.450567	0.273482
H145	H	0.824704	-0.414370	0.216964
H146	H	0.796789	-0.323081	0.266926
H147	H	0.721445	-0.386929	0.158841
H148	H	0.693520	-0.295657	0.208805
O149	O	0.913656	-0.001695	0.660267
C150	C	0.954998	-0.076761	0.719665
H151	H	0.926520	-0.078037	0.774170
H152	H	1.006787	-0.036484	0.722703
C153	C	1.003647	-0.209872	0.639875
C154	C	0.968667	-0.211449	0.706818
H155	H	1.012082	-0.292953	0.631950
H156	H	0.975797	-0.159297	0.599857
H157	H	1.046801	-0.176302	0.642415
H158	H	0.925511	-0.245003	0.704274
H159	H	0.996511	-0.262033	0.746836
H160	H	0.820132	-0.414077	-0.127247
H161	H	0.736372	0.320465	0.764043
H162	H	0.266317	0.006313	0.076179
H163	H	0.149502	0.368285	-0.046213
O164	O	0.913665	-0.001633	0.340099
C165	C	0.954980	-0.076745	0.299536
H166	H	0.956007	-0.025594	0.238776
H167	H	0.931986	-0.169338	0.303060
C168	C	1.028521	-0.165635	0.407169
C169	C	1.029787	-0.102806	0.332544
H170	H	1.074665	-0.181716	0.427531
H171	H	1.000685	-0.115035	0.434498
H172	H	1.009356	-0.242788	0.410096
H173	H	1.048944	-0.025647	0.329619
H174	H	1.057628	-0.153394	0.305214
O175	O	0.631525	-0.050220	0.006192
C176	C	0.673898	-0.055924	-0.055820
H177	H	0.678038	0.043103	-0.089152
H178	H	0.649798	-0.112770	-0.092606
C179	C	0.742061	-0.240761	0.012101
C180	C	0.747151	-0.119134	-0.028836
H181	H	0.787246	-0.279757	0.028745
H182	H	0.713512	-0.236922	0.053879
H183	H	0.721975	-0.288117	-0.018561
H184	H	0.767229	-0.071776	0.001829
H185	H	0.775705	-0.122967	-0.070608
H186	H	0.836851	-0.040138	0.574181
H187	H	0.046133	-0.047836	0.005968
O188	O	0.913544	-0.001695	0.810460
C189	C	0.875992	-0.078497	0.864217
H190	H	0.821208	-0.080362	0.841494
H191	H	0.872541	-0.039429	0.917084
C192	C	0.980928	-0.210354	0.910123
C193	C	0.913642	-0.212654	0.882213
H194	H	1.004153	-0.293107	0.921228
H195	H	1.006228	-0.158610	0.873909
H196	H	0.978042	-0.177792	0.954177
H197	H	0.916529	-0.245200	0.838156
H198	H	0.888344	-0.264407	0.918421
H199	H	0.805777	0.372399	0.522390
O200	O	0.488731	-0.054168	0.006819
C201	C	0.543076	-0.153289	0.019240
H202	H	0.592453	-0.118591	0.037814
H203	H	0.553171	-0.188046	-0.034496
C204	C	0.461453	-0.304097	0.057492
C205	C	0.522098	-0.261484	0.080312
H206	H	0.448513	-0.370840	0.095162
H207	H	0.424839	-0.237319	0.049122
H208	H	0.469874	-0.333052	0.012712
H209	H	0.513673	-0.232515	0.125086
H210	H	0.558710	-0.328260	0.088691
O211	O	0.404292	-0.003877	0.084145
C212	C	0.362001	-0.082014	0.131405
H213	H	0.310348	-0.083218	0.101549
H214	H	0.351726	-0.044688	0.184276
C215	C	0.462903	-0.214681	0.188612
C216	C	0.399464	-0.216169	0.151939
H217	H	0.486012	-0.297433	0.201282
H218	H	0.491396	-0.162036	0.156774
H219	H	0.454331	-0.183570	0.232666
H220	H	0.408037	-0.247265	0.107882
H221	H	0.370973	-0.268822	0.183770
H222	H	0.805750	0.372396	0.384107
