data_functionalizedCrystal
_audit_creation_method	'MofGen! by Chris Wilmer'
_symmetry_space_group_name_H-M	'P1'
_symmetry_Int_Tables_number	1
_symmetry_cell_setting	triclinic
loop_
_symmetry_equiv_pos_as_xyz
  x,y,z
_cell_length_a	12.645323
_cell_length_b	12.827893
_cell_length_c	12.827892
_cell_angle_alpha	90.015553
_cell_angle_beta	89.974132
_cell_angle_gamma	89.979689
loop_
_atom_site_label
_atom_site_type_symbol
_atom_site_fract_x
_atom_site_fract_y
_atom_site_fract_z
Zn1	Zn	-0.599372	1.597682	-0.416020
Zn2	Zn	-0.422109	1.597573	-0.590785
Zn3	Zn	-0.422124	1.422920	-0.416059
Zn4	Zn	-0.599332	1.422909	-0.590720
O5	O	-0.510734	1.510271	-0.503396
O6	O	-0.575868	1.743904	-0.439214
O7	O	-0.273764	1.574363	-0.567651
O8	O	-0.445659	1.446153	-0.269818
O9	O	-0.445634	1.743823	-0.567613
O10	O	-0.575883	1.574550	-0.269789
O11	O	-0.273774	1.446047	-0.439280
O12	O	-0.445620	1.276682	-0.439218
O13	O	-0.747684	1.446134	-0.567503
O14	O	-0.575814	1.276674	-0.567541
O15	O	-0.747714	1.574539	-0.439151
O16	O	-0.445595	1.574353	-0.737013
O17	O	-0.575800	1.446028	-0.736965
C18	C	-0.510715	1.238761	-0.503377
C19	C	-0.510732	1.122608	-0.503394
C20	C	-0.446422	1.070800	-0.439812
C21	C	-0.446438	0.950749	-0.439828
C22	C	-0.787240	1.510348	-0.503315
C23	C	-0.905070	1.510381	-0.503281
C24	C	-1.072615	1.429352	-0.583646
C25	C	-0.950055	1.429564	-0.584044
C26	C	-0.949584	1.620492	-0.533168
C27	C	-1.072183	1.620047	-0.533672
C28	C	-1.072271	1.482340	-0.392580
C29	C	-0.949664	1.479883	-0.393243
C30	C	-0.235304	1.510254	-0.503401
C31	C	-0.117475	1.510424	-0.503141
C32	C	-0.510715	1.510206	-0.774906
C33	C	-0.510742	1.510273	-0.891059
C34	C	-0.510754	1.782841	-0.503416
C35	C	-0.510763	1.898994	-0.503425
C36	C	-0.575238	1.573780	-0.942747
C37	C	-0.575268	1.573851	-1.062797
C38	C	-0.510777	1.510365	-0.230826
C39	C	-0.510795	1.510405	-0.114673
H40	H	-0.391348	1.115321	-0.385368
H41	H	-0.455551	1.455951	-0.935685
F42	F	-0.438610	1.439339	-1.056584
F43	F	-0.647396	1.644770	-0.884423
H44	H	-0.920569	1.398851	-0.370704
F45	F	-0.374476	0.892518	-0.368669
H46	H	-0.565828	0.943541	-0.557858
H47	H	-0.919042	1.534618	-0.330091
H48	H	-0.565798	1.078086	-0.557844
H49	H	-1.102093	1.347459	-0.565124
F50	F	-0.910711	1.322841	-0.559594
H51	H	-0.630482	1.628226	-1.107247
F52	F	-0.911732	1.453846	-0.691167
F53	F	-1.112956	1.453299	-0.690099
H54	H	-0.920448	1.682517	-0.476386
F55	F	-1.109579	1.651160	-0.639313
F56	F	-1.110976	1.701634	-0.460311
H57	H	-1.103179	1.403444	-0.365337
F58	F	-0.909471	1.652142	-0.637702
F59	F	-1.110190	1.559520	-0.314182
