data_functionalizedCrystal
_audit_creation_method	'MofGen! by Chris Wilmer'
_symmetry_space_group_name_H-M	'P1'
_symmetry_Int_Tables_number	1
_symmetry_cell_setting	triclinic
loop_
_symmetry_equiv_pos_as_xyz
  x,y,z
_cell_length_a	16.120297
_cell_length_b	11.169417
_cell_length_c	16.120484
_cell_angle_alpha	87.073731
_cell_angle_beta	95.614431
_cell_angle_gamma	87.118439
loop_
_atom_site_label
_atom_site_type_symbol
_atom_site_fract_x
_atom_site_fract_y
_atom_site_fract_z
Zn1	Zn	-0.489383	-1.773031	-0.356726
Zn2	Zn	-0.356693	-1.772879	-0.489415
Zn3	Zn	-0.349636	-1.583045	-0.349664
Zn4	Zn	-0.496424	-1.561557	-0.496459
O5	O	-0.423034	-1.672628	-0.423066
O6	O	-0.471788	-1.940959	-0.374335
O7	O	-0.238795	-1.756627	-0.464974
O8	O	-0.362274	-1.617304	-0.233635
O9	O	-0.374301	-1.940848	-0.471821
O10	O	-0.464945	-1.756885	-0.238823
O11	O	-0.233610	-1.617157	-0.362299
O12	O	-0.369102	-1.412246	-0.369129
O13	O	-0.612452	-1.580679	-0.483826
O14	O	-0.476946	-1.396459	-0.476979
O15	O	-0.607279	-1.736048	-0.381165
O16	O	-0.381129	-1.735791	-0.607315
O17	O	-0.483789	-1.580533	-0.612490
C18	C	-0.423023	-1.360805	-0.423053
C19	C	-0.423039	-1.227403	-0.423068
C20	C	-0.641041	-1.655984	-0.434069
C21	C	-0.733942	-1.648891	-0.438758
C22	C	-0.434007	-1.655845	-0.640231
C23	C	-0.438729	-1.648772	-0.733137
C24	C	-0.904033	-1.635899	-0.447300
C25	C	-0.942875	-1.709613	-0.398582
C26	C	-1.037519	-1.702384	-0.403335
C27	C	-0.809380	-1.643126	-0.442548
C28	C	-0.205873	-1.689281	-0.412046
C29	C	-0.112960	-1.696625	-0.407121
C30	C	-0.423046	-1.985668	-0.423080
C31	C	-0.423051	-2.119068	-0.423086
C32	C	-0.447368	-1.635866	-0.903237
C33	C	-0.398714	-1.709604	-0.942055
C34	C	-0.403521	-1.702423	-1.036705
C35	C	-0.442562	-1.643045	-0.808579
C36	C	-0.412037	-1.689508	-0.205054
C37	C	-0.407350	-1.696702	-0.112150
H38	H	-0.941857	-1.567367	-0.492575
H39	H	-0.353450	-1.778126	-0.904204
O40	O	-0.507310	-1.545094	-0.953375
H41	H	-0.572094	-1.561826	-0.939963
O42	O	-0.892774	-1.800417	-0.338616
H43	H	-0.906138	-1.783675	-0.273831
