data_functionalizedCrystal
_audit_creation_method	'MofGen! by Chris Wilmer'
_symmetry_space_group_name_H-M	'P1'
_symmetry_Int_Tables_number	1
_symmetry_cell_setting	triclinic
loop_
_symmetry_equiv_pos_as_xyz
  x,y,z
_cell_length_a	13.339071
_cell_length_b	11.804365
_cell_length_c	9.065218
_cell_angle_alpha	102.010614
_cell_angle_beta	79.677418
_cell_angle_gamma	105.124167
loop_
_atom_site_label
_atom_site_type_symbol
_atom_site_fract_x
_atom_site_fract_y
_atom_site_fract_z
O1	O	1.369326	0.099032	-0.720885
O2	O	1.073906	0.099032	-0.623442
O3	O	1.227722	0.099030	-0.459903
O4	O	1.215510	0.099035	-0.884425
O5	O	1.187228	-0.099026	-0.502896
O6	O	1.033412	-0.099023	-0.666436
O7	O	1.328832	-0.099023	-0.763878
Cu8	Cu	1.177424	-0.117107	-0.719083
Cu9	Cu	1.225314	0.117116	-0.668238
O10	O	1.175016	-0.099021	-0.927418
C11	C	1.015819	0.000004	-0.628479
C12	C	0.903068	0.000004	-0.579415
C13	C	0.860967	-0.000002	-0.426415
C14	C	0.755033	0.000004	-0.380312
C15	C	0.691187	0.000006	-0.487206
C16	C	0.733286	0.000004	-0.640211
C17	C	0.839233	0.000008	-0.686317
C18	C	0.669454	0.000016	-0.747107
C19	C	0.711553	0.000013	-0.900112
C20	C	0.817489	0.000016	-0.946211
C21	C	0.881334	0.000014	-0.839317
C22	C	0.563507	0.000012	-0.701001
C23	C	0.541774	0.000021	-0.960903
C24	C	0.647707	0.000016	-1.007006
N25	N	1.143749	-0.281847	-0.754846
C26	C	1.339863	-0.655799	-0.546556
C27	C	1.365338	-0.531138	-0.519494
C28	C	1.309942	-0.468809	-0.578330
C29	C	1.229069	-0.531154	-0.664232
C30	C	1.203598	-0.655827	-0.691307
C31	C	1.173677	-0.468837	-0.723080
C32	C	1.092804	-0.531182	-0.808983
C33	C	1.067336	-0.655843	-0.836052
C34	C	1.122731	-0.718172	-0.777216
C35	C	1.199148	-0.344164	-0.696005
C36	C	1.062883	-0.344192	-0.840756
C37	C	1.037408	-0.468853	-0.867818
C38	C	1.386919	0.000007	-0.758841
C39	C	1.499672	0.000015	-0.807903
C40	C	1.206301	0.000004	-0.425955
C41	C	1.202793	0.000010	-0.260742
N42	N	1.258997	0.281856	-0.632466
C43	C	1.196437	0.000008	-0.961365
C44	C	1.199947	0.000010	-1.126576
H45	H	0.604932	0.000011	-0.449659
H46	H	1.017776	-0.293445	-0.888669
H47	H	0.529241	0.000014	-0.576424
H48	H	1.431184	-0.480381	-0.449555
C49	C	1.337714	-0.333461	-0.548709
C50	C	1.420375	-0.292202	-0.460852
C51	C	1.445976	-0.167522	-0.433508
H52	H	1.358300	-0.305098	-0.642820
H53	H	1.278418	-0.305235	-0.495614
H54	H	1.479658	-0.320416	-0.513947
H55	H	1.399811	-0.320532	-0.366724
H56	H	1.386681	-0.139296	-0.380413
H57	H	1.466558	-0.139171	-0.527626
H58	H	1.502057	-0.139512	-0.373883
C59	C	0.930445	0.000186	-0.310497
C60	C	1.012743	0.102071	-0.307290
C61	C	1.076777	0.102280	-0.200531
H62	H	0.890344	0.000244	-0.212686
H63	H	0.958174	-0.068841	-0.338086
H64	H	0.985014	0.171081	-0.279692
H65	H	1.052869	0.102035	-0.405074
H66	H	1.104507	0.033252	-0.228120
H67	H	1.036668	0.102334	-0.102727
H68	H	1.132629	0.171401	-0.198350
C69	C	1.399969	-0.723324	-0.482390
C70	C	1.388386	-0.692994	-0.323536
C71	C	1.443752	-0.755166	-0.264367
H72	H	1.373278	-0.806516	-0.510648
H73	H	1.472086	-0.702861	-0.521737
H74	H	1.316283	-0.713464	-0.284203
H75	H	1.415083	-0.609813	-0.295235
H76	H	1.515870	-0.734703	-0.303714
H77	H	1.417056	-0.838354	-0.292636
H78	H	1.435909	-0.734587	-0.156581
C79	C	0.979471	-0.723319	-0.929304
C80	C	0.936391	-0.642058	-0.975005
C81	C	0.855440	-0.704171	-1.060896
H82	H	1.006509	-0.771944	-1.016583
H83	H	0.926729	-0.771939	-0.869269
H84	H	0.989123	-0.593459	-1.035039
H85	H	0.909331	-0.593431	-0.887758
H86	H	0.802698	-0.752791	-1.000860
H87	H	0.882487	-0.752793	-1.148167
H88	H	0.826194	-0.649045	-1.091903
H89	H	0.851766	0.000032	-1.070793
H90	H	0.720764	0.000008	-0.255735
H91	H	0.967594	0.000004	-0.876848
H92	H	0.489790	0.000024	-1.047945
H93	H	0.682000	0.000014	-1.131586
H94	H	1.264995	-0.293414	-0.626064
H95	H	1.101988	-0.819682	-0.799244
H96	H	0.971560	-0.519630	-0.937762
