data_functionalizedCrystal
_audit_creation_method	'MofGen! by Chris Wilmer'
_symmetry_space_group_name_H-M	'P1'
_symmetry_Int_Tables_number	1
_symmetry_cell_setting	triclinic
loop_
_symmetry_equiv_pos_as_xyz
  x,y,z
_cell_length_a	12.759401
_cell_length_b	17.077402
_cell_length_c	12.759393
_cell_angle_alpha	90.032432
_cell_angle_beta	90.020938
_cell_angle_gamma	90.025017
loop_
_atom_site_label
_atom_site_type_symbol
_atom_site_fract_x
_atom_site_fract_y
_atom_site_fract_z
Zn1	Zn	1.606202	-0.312438	0.594006
Zn2	Zn	1.606066	-0.443724	0.418320
Zn3	Zn	1.430501	-0.312480	0.418341
Zn4	Zn	1.430466	-0.443669	0.593957
O5	O	1.518309	-0.378078	0.506156
O6	O	1.753205	-0.329859	0.570712
O7	O	1.582735	-0.426355	0.271302
O8	O	1.453880	-0.202628	0.441673
O9	O	1.753105	-0.426314	0.441637
O10	O	1.582967	-0.202597	0.570733
O11	O	1.453748	-0.329930	0.271317
O12	O	1.283475	-0.329877	0.441625
O13	O	1.453820	-0.426221	0.740985
O14	O	1.283449	-0.426261	0.570650
O15	O	1.582933	-0.329806	0.741021
O16	O	1.582701	-0.553564	0.441590
O17	O	1.453688	-0.553524	0.570630
C18	C	1.245341	-0.378068	0.506135
C19	C	1.128565	-0.378083	0.506151
C20	C	1.073717	-0.428347	0.573229
C21	C	0.963993	-0.428350	0.573249
C22	C	0.963974	-0.327823	0.439107
C23	C	1.073696	-0.327817	0.439092
C24	C	1.518205	-0.582026	0.506125
C25	C	1.518256	-0.669276	0.506147
C26	C	1.585435	-0.710182	0.573402
C27	C	1.585479	-0.792163	0.573425
C28	C	1.518349	-0.833235	0.506185
C29	C	1.451162	-0.792323	0.438927
C30	C	1.451114	-0.710344	0.438910
C31	C	1.451270	-0.963193	0.438963
C32	C	1.451320	-1.045177	0.438978
C33	C	1.585636	-1.045012	0.573478
C34	C	1.585587	-0.963033	0.573462
C35	C	1.518402	-0.922126	0.506201
C36	C	1.792342	-0.378088	0.506178
C37	C	1.909119	-0.378093	0.506187
C38	C	1.518387	-0.378003	0.780190
C39	C	1.518421	-0.377971	0.896966
C40	C	1.518442	-0.173334	0.506210
C41	C	1.518499	-0.086084	0.506234
C42	C	1.518291	-0.378096	0.233189
C43	C	1.518461	-0.377907	0.116413
C44	C	1.585655	-0.327759	0.951849
C45	C	1.585673	-0.327725	1.061573
C46	C	1.451220	-0.428121	1.061523
C47	C	1.451197	-0.428150	0.951801
H48	H	1.118355	-0.286881	0.384469
O49	O	1.658178	-0.273563	1.120774
H50	H	1.711609	-0.308680	1.170778
H51	H	1.640339	-1.078322	0.628244
H52	H	1.396409	-0.677038	0.384145
H53	H	1.396491	-0.468977	1.106182
H54	H	1.396652	-1.078616	0.384230
O55	O	0.904806	-0.273613	0.366767
H56	H	0.925839	-0.287003	0.284281
H57	H	1.396499	-0.825770	0.384183
H58	H	0.919341	-0.469279	0.627872
O59	O	1.378644	-0.482294	0.892610
H60	H	1.396604	-0.543904	0.913638
O61	O	1.132902	-0.482550	0.645565
H62	H	1.076324	-0.517495	0.692220
H63	H	1.640105	-0.676747	0.628152
O64	O	1.657937	-0.836287	0.645963
H65	H	1.704617	-0.793954	0.692706
O66	O	1.658013	-0.918728	0.645958
H67	H	1.704740	-0.960944	0.692730
O68	O	1.378816	-0.919067	0.366413
H69	H	1.332154	-0.961398	0.319649
O70	O	1.658148	-0.273634	0.892701
H71	H	1.704895	-0.238708	0.949302
