data_functionalizedCrystal
_audit_creation_method	'MofGen! by Chris Wilmer'
_symmetry_space_group_name_H-M	'P1'
_symmetry_Int_Tables_number	1
_symmetry_cell_setting	triclinic
loop_
_symmetry_equiv_pos_as_xyz
  x,y,z
_cell_length_a	10.654558
_cell_length_b	10.654559
_cell_length_c	9.730223
_cell_angle_alpha	89.995119
_cell_angle_beta	89.997535
_cell_angle_gamma	95.511575
loop_
_atom_site_label
_atom_site_type_symbol
_atom_site_fract_x
_atom_site_fract_y
_atom_site_fract_z
O1	O	0.176451	-1.667824	-0.114259
O2	O	0.193246	-1.302348	-0.114268
O3	O	0.002110	-1.493484	-0.114257
O4	O	0.367587	-1.476688	-0.114270
O5	O	0.002106	-1.493498	0.114323
O6	O	0.193241	-1.302362	0.114312
O7	O	0.176447	-1.667838	0.114321
Zn8	Zn	0.184844	-1.485102	0.150608
Zn9	Zn	0.184849	-1.485084	-0.150555
O10	O	0.367583	-1.476702	0.114310
C11	C	0.192008	-1.255557	0.000021
C12	C	0.188312	-1.116114	0.000018
C13	C	-0.044690	-1.492255	0.000031
C14	C	-0.184133	-1.488560	0.000027
C15	C	0.183118	-0.919568	-0.124582
C16	C	0.186580	-1.050591	-0.124583
C17	C	0.186568	-1.050610	0.124628
C18	C	0.183097	-0.919591	0.124627
C19	C	0.181399	-0.854050	-0.249191
C20	C	0.183139	-0.919545	-0.373801
C21	C	0.186601	-1.050568	-0.373802
C22	C	0.188323	-1.116095	-0.249193
C23	C	-0.249648	-1.486828	0.124624
C24	C	-0.380671	-1.483366	0.124618
C25	C	-0.380650	-1.483362	-0.124592
C26	C	-0.249631	-1.486833	-0.124585
C27	C	-0.184150	-1.488555	0.249236
C28	C	-0.249666	-1.486822	0.373843
C29	C	-0.380689	-1.483360	0.373837
C30	C	-0.446196	-1.481631	0.249225
C31	C	0.414383	-1.477931	0.000019
C32	C	0.553825	-1.481627	0.000014
C33	C	0.177684	-0.714629	0.000028
C34	C	0.181379	-0.854072	0.000018
N35	N	0.184844	-1.485072	-0.356092
C36	C	0.269306	-1.400291	-0.428058
C37	C	0.269301	-1.400314	-0.571941
C38	C	0.100368	-1.569909	-0.571879
C39	C	0.100368	-1.569879	-0.427999
C40	C	0.353782	-1.315484	-0.356151
C41	C	0.438251	-1.230697	-0.428117
C42	C	0.438246	-1.230719	-0.572000
C43	C	0.353772	-1.315529	-0.643917
N44	N	0.184839	-1.485124	0.356145
H45	H	0.178584	-0.747364	-0.249204
H46	H	0.188007	-1.103892	-0.475265
H47	H	0.191135	-1.222783	-0.249203
C48	C	0.353774	-1.315551	-0.802193
N49	N	0.353783	-1.315573	-0.921405
H50	H	0.187973	-1.103972	0.226079
C51	C	-0.177558	-1.488731	-0.261649
N52	N	-0.123274	-1.490163	-0.364888
H53	H	-0.434030	-1.481961	0.475298
C54	C	0.007449	-1.663189	-0.650994
N55	N	-0.062540	-1.733448	-0.710583
C56	C	0.531226	-1.137516	-0.651158
N57	N	0.601290	-1.067340	-0.710777
C58	C	0.353792	-1.315448	-0.197877
N59	N	0.353798	-1.315423	-0.078665
C60	C	0.531157	-1.137401	-0.349005
N61	N	0.601134	-1.067127	-0.289420
C62	C	0.007466	-1.663154	-0.348832
N63	N	-0.062508	-1.733412	-0.289203
C64	C	-0.040023	-1.492366	0.249253
N65	N	0.068533	-1.495237	0.249265
H66	H	-0.196323	-1.488240	0.475298
C67	C	0.181185	-0.847541	0.261694
N68	N	0.179740	-0.793274	0.364936
C69	C	-0.452711	-1.481446	-0.261656
N70	N	-0.506987	-1.479997	-0.364895
C71	C	-0.590326	-1.477828	0.249226
N72	N	-0.698883	-1.474957	0.249229
H73	H	0.181729	-0.866186	-0.475253
