data_functionalizedCrystal
_audit_creation_method	'MofGen! by Chris Wilmer'
_symmetry_space_group_name_H-M	'P1'
_symmetry_Int_Tables_number	1
_symmetry_cell_setting	triclinic
loop_
_symmetry_equiv_pos_as_xyz
  x,y,z
_cell_length_a	8.559649
_cell_length_b	19.288864
_cell_length_c	7.681481
_cell_angle_alpha	95.689744
_cell_angle_beta	94.930900
_cell_angle_gamma	103.542544
loop_
_atom_site_label
_atom_site_type_symbol
_atom_site_fract_x
_atom_site_fract_y
_atom_site_fract_z
O1	O	0.214640	-0.903578	0.146974
O2	O	0.241526	-0.699925	0.146852
O3	O	-0.004647	-0.819694	0.146922
O4	O	0.460813	-0.783810	0.146904
O5	O	-0.035016	-0.834439	-0.145927
O6	O	0.211158	-0.714670	-0.145997
O7	O	0.184271	-0.918323	-0.145875
Zn8	Zn	0.192893	-0.818838	-0.192432
Zn9	Zn	0.232904	-0.799410	0.193409
O10	O	0.430445	-0.798555	-0.145945
C11	C	0.225475	-0.681467	0.000412
C12	C	0.222872	-0.604501	0.000366
C13	C	-0.079380	-0.829785	0.000503
C14	C	-0.256817	-0.837880	0.000517
N15	N	0.165585	-0.832102	-0.455758
C16	C	0.505178	-0.788463	0.000479
C17	C	0.682616	-0.780368	0.000476
C18	C	0.200323	-0.936781	0.000569
C19	C	0.202927	-1.013747	0.000627
C20	C	0.367322	-0.552295	0.000388
C21	C	0.364883	-0.479973	0.000408
C22	C	0.217990	-0.459860	0.000441
C23	C	0.073520	-0.512078	0.000409
C24	C	0.075961	-0.584398	0.000371
C25	C	0.113158	-0.352432	0.103102
C26	C	0.110724	-0.280112	0.103150
C27	C	0.210453	-0.236802	0.000547
C28	C	0.312646	-0.265816	-0.102081
C29	C	0.315087	-0.338137	-0.102118
C30	C	0.215326	-0.381443	0.000480
C31	C	0.352268	-0.106176	0.000588
C32	C	0.349822	-0.033854	0.000597
C33	C	0.058456	-0.065960	0.000615
C34	C	0.060905	-0.138280	0.000589
C35	C	0.207816	-0.158383	0.000584
N36	N	0.260199	-0.786153	0.456736
H37	H	-0.233492	-0.724937	0.000437
Cl38	Cl	0.409304	-0.713734	-0.427211
H39	H	0.027520	-0.256493	0.186723
Cl40	Cl	-0.386346	-0.923469	0.000545
Cl41	Cl	0.552009	-0.577563	0.000374
H42	H	0.069018	-0.879013	-0.530937
H43	H	0.482515	-0.437459	0.000421
Cl44	Cl	-0.111148	-0.486795	0.000439
Cl45	Cl	0.443543	-0.374611	-0.231138
H46	H	0.393854	-0.230554	-0.185631
Cl47	Cl	0.536951	-0.131452	0.000564
Cl48	Cl	-0.126214	-0.040683	0.000636
H49	H	0.467455	0.008653	0.000605
Cl50	Cl	-0.120699	-0.203914	0.000572
Cl51	Cl	-0.012229	-0.406873	0.232101
H52	H	-0.041672	-0.626907	0.000354
