data_functionalizedCrystal
_audit_creation_method	'MofGen! by Chris Wilmer'
_symmetry_space_group_name_H-M	'P1'
_symmetry_Int_Tables_number	1
_symmetry_cell_setting	triclinic
loop_
_symmetry_equiv_pos_as_xyz
  x,y,z
_cell_length_a	13.339070
_cell_length_b	13.339070
_cell_length_c	12.996460
_cell_angle_alpha	89.997058
_cell_angle_beta	90.007645
_cell_angle_gamma	115.629294
loop_
_atom_site_label
_atom_site_type_symbol
_atom_site_fract_x
_atom_site_fract_y
_atom_site_fract_z
O1	O	-1.496809	-0.550520	-0.085594
O2	O	-1.181999	-0.478260	-0.085589
O3	O	-1.303274	-0.356985	-0.085588
O4	O	-1.375534	-0.671795	-0.085595
O5	O	-1.303255	-0.356989	0.085546
O6	O	-1.181980	-0.478264	0.085545
O7	O	-1.496790	-0.550524	0.085540
Cu8	Cu	-1.339383	-0.514394	0.101168
Cu9	Cu	-1.339406	-0.514390	-0.101217
O10	O	-1.375515	-0.671798	0.085539
C11	C	-1.140874	-0.466056	-0.000022
C12	C	-1.018360	-0.429672	-0.000020
C13	C	-1.291058	-0.315872	-0.000022
C14	C	-1.254675	-0.193358	-0.000026
C15	C	-1.537914	-0.562728	-0.000030
C16	C	-1.660428	-0.599111	-0.000038
C17	C	-1.387730	-0.712912	-0.000029
C18	C	-1.424114	-0.835426	-0.000032
C19	C	-0.732973	-0.712571	-0.000042
C20	C	-0.848081	-0.746759	-0.000047
C21	C	-0.890657	-0.667490	-0.000040
C22	C	-0.818112	-0.554028	-0.000029
C23	C	-0.702992	-0.519837	-0.000032
C24	C	-0.860676	-0.474756	-0.000029
C25	C	-0.788132	-0.361294	-0.000018
C26	C	-0.673023	-0.327109	-0.000020
C27	C	-0.630448	-0.406377	-0.000028
C28	C	-0.975796	-0.508947	-0.000026
C29	C	-0.945816	-0.316213	-0.000016
C30	C	-0.830707	-0.282025	-0.000011
N31	N	-1.339375	-0.514399	0.243515
C32	C	-1.537574	0.092030	-0.000029
C33	C	-1.571761	-0.023079	-0.000020
C34	C	-1.492492	-0.065654	-0.000022
C35	C	-1.379030	0.006890	-0.000032
C36	C	-1.344839	0.122010	-0.000033
C37	C	-1.299758	-0.035674	-0.000026
C38	C	-1.186296	0.036871	-0.000036
C39	C	-1.152111	0.151979	-0.000038
C40	C	-1.231380	0.194555	-0.000036
C41	C	-1.333949	-0.150794	-0.000025
C42	C	-1.141215	-0.120813	-0.000029
C43	C	-1.107028	-0.005705	-0.000038
N44	N	-1.339420	-0.514379	-0.243564
C45	C	-1.339381	-0.514403	0.336621
C46	C	-1.339389	-0.514398	0.453426
C47	C	-1.339399	-0.514390	0.546525
C48	C	-1.339409	-0.514387	0.663337
H49	H	-1.034852	-0.601328	-0.000032
H50	H	-0.984385	-0.695333	-0.000047
F51	F	-0.925280	-0.867508	-0.000064
F52	F	-1.194999	0.317067	-0.000143
H53	H	-0.771625	-0.189642	-0.000010
F54	F	-1.621923	0.137350	-0.000012
F55	F	-1.056845	-0.166119	-0.000024
H56	H	-0.698296	-0.777099	-0.000057
H57	H	-1.059723	0.211043	-0.000038
F58	F	-1.528881	-0.188164	-0.000016
F59	F	-0.507935	-0.369997	-0.000020
F60	F	-0.991121	-0.231842	-0.000015
H61	H	-0.613959	-0.234721	-0.000022
H62	H	-1.426331	-0.209849	-0.000016
F63	F	-1.692510	-0.100278	-0.000026
H64	H	-1.014645	0.053377	-0.000045
