data_functionalizedCrystal
_audit_creation_method	'MofGen! by Chris Wilmer'
_symmetry_space_group_name_H-M	'P1'
_symmetry_Int_Tables_number	1
_symmetry_cell_setting	triclinic
loop_
_symmetry_equiv_pos_as_xyz
  x,y,z
_cell_length_a	17.019292
_cell_length_b	14.971494
_cell_length_c	13.448316
_cell_angle_alpha	89.995115
_cell_angle_beta	86.125263
_cell_angle_gamma	96.496172
loop_
_atom_site_label
_atom_site_type_symbol
_atom_site_fract_x
_atom_site_fract_y
_atom_site_fract_z
O1	O	-1.046789	0.113910	0.006988
O2	O	-0.817139	0.128451	-0.012687
O3	O	-0.938115	-0.009035	-0.002320
O4	O	-0.925812	0.251396	-0.003378
O5	O	-0.938100	-0.009043	0.163063
O6	O	-0.817123	0.128443	0.152696
O7	O	-1.046774	0.113902	0.172371
Cu8	Cu	-0.931947	0.121171	0.177634
Cu9	Cu	-0.931965	0.121181	-0.017950
O10	O	-0.925797	0.251387	0.162004
C11	C	-0.787741	0.127897	0.067486
C12	C	-0.700170	0.126249	0.059984
C13	C	-0.937556	-0.042362	0.080323
C14	C	-0.935904	-0.141654	0.080176
C15	C	-0.659025	0.125467	0.146611
C16	C	-0.576744	0.123904	0.139564
C17	C	-0.535608	0.123128	0.045889
C18	C	-0.576759	0.123907	-0.040745
C19	C	-0.659040	0.125464	-0.033697
C20	C	-0.287176	0.118421	0.020100
C21	C	-0.204889	0.116867	0.013058
C22	C	-0.204880	0.116862	0.193368
C23	C	-0.287161	0.118425	0.200408
C24	C	-0.328305	0.119199	0.113774
C25	C	-0.451504	0.121533	0.038684
C26	C	-0.412409	0.120787	0.120980
C27	C	-0.935138	-0.188293	-0.010041
C28	C	-0.933580	-0.281588	-0.010176
C29	C	-0.932794	-0.328244	0.079909
C30	C	-0.933558	-0.281599	0.170133
C31	C	-0.935110	-0.188304	0.170266
C32	C	-0.930325	-0.476054	0.169849
C33	C	-0.928774	-0.569355	0.169717
C34	C	-0.928795	-0.569337	-0.010593
C35	C	-0.930347	-0.476043	-0.010459
C36	C	-0.931112	-0.429404	0.079765
C37	C	-0.076171	0.114451	0.092194
C38	C	-0.163744	0.116086	0.099686
C39	C	-0.926356	0.284715	0.079359
C40	C	-0.928008	0.384007	0.079499
N41	N	-0.931940	0.121164	0.315198
N42	N	-0.931978	0.121182	-0.155513
C43	C	-0.985525	0.060310	0.371830
C44	C	-0.985530	0.060309	0.475934
C45	C	-0.931953	0.121167	0.523403
C46	C	-0.878362	0.182024	0.466763
C47	C	-0.878354	0.182020	0.362661
C48	C	-0.878384	0.182030	0.683745
C49	C	-0.878393	0.182036	0.787855
C50	C	-0.985560	0.060320	0.797018
C51	C	-0.985552	0.060315	0.692916
C52	C	-0.931962	0.121173	0.636283
H53	H	-0.692511	0.126106	0.222892
C54	C	-0.771033	0.201514	0.557512
C55	C	-0.819477	0.248927	0.621495
H56	H	-0.734667	0.242816	0.519087
H57	H	-0.802939	0.165278	0.514347
H58	H	-0.742630	0.164305	0.595714
H59	H	-0.847884	0.286131	0.583292
H60	H	-0.787567	0.285179	0.664665
H61	H	-0.543249	0.123253	0.210106
H62	H	-0.932913	-0.319593	0.243481
H63	H	-0.935782	-0.150313	-0.083398
H64	H	-0.935723	-0.150331	0.243729
H65	H	-0.171371	0.116231	0.263901
C66	C	-1.091449	-0.060006	0.391354
C67	C	-1.044419	-0.006590	0.319656
H68	H	-1.127803	-0.101313	0.359144
H69	H	-1.119860	-0.022791	0.434374
H70	H	-1.058578	-0.092153	0.429158
H71	H	-1.077289	0.025562	0.281857
H72	H	-1.016006	-0.043810	0.276619
C73	C	-1.002562	-0.061441	0.594460
C74	C	-1.044439	-0.006583	0.538177
H75	H	-1.038934	-0.102743	0.632879
H76	H	-0.970664	-0.025203	0.637632
H77	H	-0.969699	-0.093593	0.551036
H78	H	-1.077298	0.025575	0.581602
H79	H	-1.076351	-0.042825	0.495001
H80	H	-0.928170	-0.607314	-0.084057
C81	C	-1.031762	-0.094562	0.833016
C82	C	-1.044471	-0.006580	0.859258
H83	H	-1.068136	-0.135857	0.871439
H84	H	-0.979120	-0.104244	0.845592
H85	H	-1.039423	-0.103257	0.764220
H86	H	-1.036804	0.002117	0.928052
H87	H	-1.097126	0.003106	0.846690
H88	H	-0.834735	0.231573	0.505419
C89	C	-0.772435	0.302318	0.768344
C90	C	-0.819486	0.248914	0.840035
H91	H	-0.736063	0.343598	0.800560
H92	H	-0.805284	0.334486	0.730549
H93	H	-0.744038	0.265084	0.725315
H94	H	-0.847887	0.286147	0.883060
H95	H	-0.786632	0.216743	0.877847
H96	H	-0.834719	0.231572	0.316552
H97	H	-0.692538	0.126102	-0.104239
C98	C	-0.933825	-0.272210	-0.188381
C99	C	-0.932782	-0.332859	-0.109342
H100	H	-0.933348	-0.303866	-0.249602
H101	H	-0.888457	-0.228957	-0.188553
H102	H	-0.980388	-0.242685	-0.180596
H103	H	-0.886216	-0.362379	-0.117123
H104	H	-0.978155	-0.376128	-0.109171
H105	H	-0.930993	-0.438059	-0.083814
C106	C	-0.321280	0.042039	0.357019
C107	C	-0.332373	0.119272	0.303381
H108	H	-0.349195	0.042564	0.420589
H109	H	-0.266394	0.041006	0.365215
H110	H	-0.340742	-0.009833	0.321636
H111	H	-0.312906	0.171143	0.338761
H112	H	-0.387271	0.120313	0.295188
C113	C	-0.213159	0.117027	-0.164472
C114	C	-0.159671	0.116019	-0.089918
H115	H	-0.185241	0.116503	-0.228040
H116	H	-0.239287	0.169761	-0.158486
H117	H	-0.251216	0.065491	-0.157460
H118	H	-0.121616	0.167559	-0.096925
H119	H	-0.133529	0.063280	-0.095906
H120	H	-1.029182	0.010765	0.654267
C121	C	-0.388501	0.043321	-0.075830
C122	C	-0.332397	0.119281	-0.075125
H123	H	-0.416418	0.043853	-0.134623
H124	H	-0.424771	0.044009	-0.019040
H125	H	-0.362360	-0.009414	-0.074321
H126	H	-0.358538	0.172017	-0.076627
H127	H	-0.296122	0.118601	-0.131931
C128	C	-0.928888	-0.560003	0.347957
C129	C	-0.927900	-0.620640	0.268737
H130	H	-0.928342	-0.591666	0.409087
H131	H	-0.975456	-0.530497	0.348211
H132	H	-0.883526	-0.516731	0.340307
H133	H	-0.973265	-0.663908	0.276383
H134	H	-0.881327	-0.650160	0.268485
H135	H	-0.930931	-0.438081	0.243318
H136	H	-0.543261	0.123269	-0.117017
H137	H	-0.445906	0.121415	0.197250
H138	H	-0.418002	0.120901	-0.037587
