data_functionalizedCrystal
_audit_creation_method	'MofGen! by Chris Wilmer'
_symmetry_space_group_name_H-M	'P1'
_symmetry_Int_Tables_number	1
_symmetry_cell_setting	triclinic
loop_
_symmetry_equiv_pos_as_xyz
  x,y,z
_cell_length_a	6.817900
_cell_length_b	10.773890
_cell_length_c	10.943881
_cell_angle_alpha	95.381859
_cell_angle_beta	108.843448
_cell_angle_gamma	96.645716
loop_
_atom_site_label
_atom_site_type_symbol
_atom_site_fract_x
_atom_site_fract_y
_atom_site_fract_z
V1	V	-4.053466	-0.172559	-0.400450
O2	O	-4.076253	0.008329	-0.394991
O3	O	-3.970386	-0.342191	-0.395629
O4	O	-4.032412	-0.169889	-0.576049
O5	O	-4.013797	-0.165166	-0.213322
V6	V	-4.538044	-0.150925	-0.378321
O7	O	-4.312409	-0.220016	-0.448992
O8	O	-4.729297	-0.103468	-0.329779
O9	O	-4.397917	0.018707	-0.383141
O10	O	-4.632653	-0.331813	-0.383779
O11	O	-4.695109	-0.158318	-0.565448
O12	O	-4.335891	-0.153595	-0.202721
C13	C	-3.806065	-0.383544	-0.388775
C14	C	-3.819606	-0.522220	-0.386004
C15	C	-3.885185	-0.163754	-0.618917
C16	C	-3.949026	-0.162693	-0.762457
C17	C	-3.998431	-0.590083	-0.390819
C18	C	-4.012431	-0.733412	-0.387955
C19	C	-4.176355	-0.168568	-0.853268
C20	C	-4.101479	-0.061338	-0.920311
C21	C	-4.137621	-0.267957	-0.951164
C22	C	-3.873293	-0.055393	-0.827596
C23	C	-3.909475	-0.262105	-0.858456
C24	C	-3.834438	-0.154845	-0.925452
C25	C	-4.225578	0.060053	-0.389992
C26	C	-4.191276	0.198728	-0.392771
C27	C	-4.146458	-0.159734	-0.159847
C28	C	-4.061857	-0.160789	-0.016306
H29	H	-3.869687	-0.781419	-0.381721
N30	N	-4.366894	-0.176115	-0.810939
H31	H	-4.496616	-0.177996	-0.889250
H32	H	-4.351271	-0.099995	-0.745283
H33	H	-4.183252	0.023556	-0.947879
H34	H	-3.761034	0.034520	-0.774091
H35	H	-3.827763	-0.347007	-0.830866
N36	N	-4.187508	-0.526494	-0.399096
H37	H	-4.153012	-0.460597	-0.320198
H38	H	-4.308692	-0.591551	-0.401961
H39	H	-3.690307	-0.149002	-0.957122
H40	H	-4.334027	-0.753268	-0.399018
N41	N	-3.630522	-0.585799	-0.377733
H42	H	-3.667323	-0.679176	-0.376855
H43	H	-3.511659	-0.548200	-0.295138
N44	N	-4.286498	-0.386928	-1.022241
H45	H	-4.416108	-0.391978	-0.996154
H46	H	-4.215221	-0.462746	-0.998763
