data_functionalizedCrystal
_audit_creation_method	'MofGen! by Chris Wilmer'
_symmetry_space_group_name_H-M	'P1'
_symmetry_Int_Tables_number	1
_symmetry_cell_setting	triclinic
loop_
_symmetry_equiv_pos_as_xyz
  x,y,z
_cell_length_a	17.699083
_cell_length_b	14.519709
_cell_length_c	16.776229
_cell_angle_alpha	89.992406
_cell_angle_beta	89.998886
_cell_angle_gamma	83.481580
loop_
_atom_site_label
_atom_site_type_symbol
_atom_site_fract_x
_atom_site_fract_y
_atom_site_fract_z
O1	O	1.004412	0.116624	-0.066178
O2	O	0.784077	0.131797	-0.066204
O3	O	0.900087	-0.010052	-0.066183
O4	O	0.888403	0.258474	-0.066199
O5	O	0.900071	-0.010061	0.066393
O6	O	0.784062	0.131789	0.066372
O7	O	1.004397	0.116616	0.066398
Zn8	Zn	0.894227	0.124201	0.087435
Zn9	Zn	0.894247	0.124212	-0.087241
O10	O	0.888388	0.258465	0.066377
C11	C	0.755871	0.131249	0.000080
C12	C	0.671848	0.129618	0.000071
C13	C	0.899534	-0.044414	0.000105
C14	C	0.897903	-0.146789	0.000105
C15	C	0.623466	0.212881	0.000066
C16	C	0.544518	0.211343	0.000076
C17	C	0.513954	0.126541	0.000086
C18	C	0.562343	0.043272	0.000093
C19	C	0.641289	0.044811	0.000088
C20	C	0.243962	0.037064	0.000113
C21	C	0.165010	0.035531	0.000115
C22	C	0.147191	0.203596	0.000101
C23	C	0.226137	0.205135	0.000097
C24	C	0.274519	0.121866	0.000108
C25	C	0.360123	0.123535	0.000098
C26	C	0.428352	0.124872	0.000090
C27	C	0.891896	-0.521659	0.000084
C28	C	0.893564	-0.417358	0.000090
C29	C	0.894899	-0.334227	0.000095
C30	C	0.896568	-0.229920	0.000100
C31	C	1.032603	0.117164	0.000112
C32	C	1.116626	0.118795	0.000116
C33	C	0.888940	0.292827	0.000087
C34	C	0.890572	0.395202	0.000082
N35	N	0.894219	0.124192	0.206646
N36	N	0.894262	0.124213	-0.206452
C37	C	0.945603	0.061407	0.248372
C38	C	0.945607	0.061406	0.331824
C39	C	0.894230	0.124196	0.373549
C40	C	0.842840	0.186984	0.331816
C41	C	0.842833	0.186980	0.248366
C42	C	0.842867	0.187002	0.668364
C43	C	0.842880	0.187004	0.751820
C44	C	0.945642	0.061429	0.751822
C45	C	0.945635	0.061424	0.668372
C46	C	0.894242	0.124209	0.626647
C47	C	0.894238	0.124208	0.536158
C48	C	0.894238	0.124202	0.464036
H49	H	0.648344	0.281937	0.000058
H50	H	0.251017	0.274189	0.000085
N51	N	0.097758	0.288647	0.000092
N52	N	0.027272	0.287268	0.000098
H53	H	-0.007640	0.347333	0.000089
N54	N	0.790347	0.251129	0.205753
N55	N	0.791495	0.336371	0.215060
H56	H	0.754424	0.381678	0.184966
N57	N	0.495108	0.296403	0.000076
N58	N	0.522406	0.372112	0.000064
H59	H	0.487510	0.432191	0.000065
N60	N	0.998098	-0.002738	0.374434
N61	N	1.043969	-0.058792	0.337171
H62	H	1.081042	-0.104099	0.367263
N63	N	0.531126	-0.043352	0.000119
N64	N	0.489064	-0.062963	0.056008
H65	H	0.467018	-0.124143	0.056027
H66	H	0.140129	-0.033529	0.000124
H67	H	0.987444	0.010280	0.214406
H68	H	0.283346	-0.030739	0.000123
N69	N	0.690703	-0.040249	0.000102
N70	N	0.663407	-0.115959	0.000114
H71	H	0.698304	-0.176037	0.000128
N72	N	0.998131	-0.002708	0.625765
N73	N	1.044010	-0.058759	0.663031
H74	H	1.081088	-0.104054	0.632942
N75	N	0.998132	-0.002705	0.794457
N76	N	0.998132	-0.002700	0.868966
H77	H	1.035203	-0.047992	0.899076
H78	H	0.801040	0.238137	0.785791
H79	H	0.801023	0.238126	0.634398
H80	H	0.801004	0.238106	0.365793
