data_functionalizedCrystal
_audit_creation_method	'MofGen! by Chris Wilmer'
_symmetry_space_group_name_H-M	'P1'
_symmetry_Int_Tables_number	1
_symmetry_cell_setting	triclinic
loop_
_symmetry_equiv_pos_as_xyz
  x,y,z
_cell_length_a	11.169417
_cell_length_b	16.959454
_cell_length_c	11.169409
_cell_angle_alpha	89.967114
_cell_angle_beta	89.979436
_cell_angle_gamma	90.020954
loop_
_atom_site_label
_atom_site_type_symbol
_atom_site_fract_x
_atom_site_fract_y
_atom_site_fract_z
Zn1	Zn	1.834890	-0.314599	-0.678538
Zn2	Zn	1.834743	-0.446806	-0.477852
Zn3	Zn	1.634173	-0.314648	-0.477872
Zn4	Zn	1.634149	-0.446742	-0.678497
O5	O	1.734489	-0.380699	-0.578190
O6	O	2.002820	-0.332144	-0.651925
O7	O	1.808085	-0.429322	-0.309905
O8	O	1.660870	-0.204030	-0.504516
O9	O	2.002712	-0.429275	-0.504482
O10	O	1.808336	-0.203995	-0.651944
O11	O	1.660728	-0.332226	-0.309920
O12	O	1.466220	-0.332163	-0.504477
O13	O	1.660829	-0.429166	-0.846452
O14	O	1.466203	-0.429213	-0.651875
O15	O	1.808313	-0.332081	-0.846482
O16	O	1.808062	-0.557408	-0.504443
O17	O	1.660687	-0.557361	-0.651856
C18	C	1.422664	-0.380687	-0.578174
C19	C	1.289264	-0.380701	-0.578196
C20	C	1.734388	-0.586065	-0.578169
C21	C	1.734455	-0.673922	-0.578201
C22	C	1.657862	-1.045403	-0.654940
C23	C	1.811450	-1.045392	-0.501562
C24	C	1.811408	-0.962846	-0.501551
C25	C	1.734591	-0.921575	-0.578234
C26	C	1.657815	-0.962849	-0.654928
C27	C	1.888173	-0.921565	-0.424850
C28	C	1.888134	-0.839014	-0.424835
C29	C	1.811321	-0.797741	-0.501525
C30	C	1.734544	-0.839021	-0.578223
C31	C	1.657726	-0.797750	-0.654906
C32	C	1.580954	-0.839028	-0.731611
C33	C	1.581003	-0.921576	-0.731618
C34	C	1.811272	-0.715193	-0.501518
C35	C	1.657679	-0.715196	-0.654895
C36	C	2.047531	-0.380711	-0.578206
C37	C	2.180931	-0.380717	-0.578213
C38	C	1.734585	-0.380611	-0.891232
C39	C	1.734626	-0.380574	-1.024633
C40	C	1.734622	-0.174531	-0.578237
C41	C	1.734679	-0.086674	-0.578257
C42	C	1.734462	-0.380729	-0.266365
C43	C	1.734653	-0.380544	-0.132966
H44	H	1.595129	-0.681598	-0.717344
H45	H	1.950646	-0.805411	-0.362380
C46	C	1.971416	-0.966288	-0.341340
C47	C	1.945246	-0.946244	-0.222598
C48	C	2.021897	-0.987420	-0.145608
H49	H	2.052082	-0.952733	-0.358791
H50	H	1.960480	-1.021379	-0.352199
H51	H	1.956192	-0.891166	-0.211745
H52	H	1.864595	-0.959802	-0.205109
H53	H	2.010961	-1.042510	-0.156466
H54	H	2.102557	-0.973861	-0.163070
H55	H	2.004143	-0.973831	-0.065032
C56	C	1.497454	-0.966290	-0.814817
C57	C	1.378711	-0.946261	-0.788599
C58	C	1.301714	-0.987430	-0.865224
H59	H	1.508316	-1.021376	-0.803914
H60	H	1.514899	-0.952703	-0.895491
H61	H	1.361273	-0.959853	-0.707944
H62	H	1.367811	-0.891182	-0.799509
H63	H	1.319158	-0.973843	-0.945898
H64	H	1.312586	-1.042513	-0.854315
H65	H	1.221139	-0.973840	-0.847453
C66	C	1.894696	-1.090138	-0.418084
C67	C	1.868571	-1.070114	-0.299324
C68	C	1.945226	-1.111321	-0.222378
H69	H	1.975362	-1.076594	-0.435553
H70	H	1.883733	-1.145224	-0.428967
H71	H	1.879544	-1.015041	-0.288446
H72	H	1.787918	-1.083660	-0.281818
H73	H	1.934262	-1.166407	-0.233260
H74	H	2.025887	-1.097774	-0.239857
H75	H	1.927503	-1.097747	-0.141790
H76	H	1.518403	-0.805415	-0.794042
C77	C	1.894412	-0.670334	-0.418099
C78	C	1.826460	-0.623022	-0.341097
C79	C	1.903011	-0.581695	-0.264221
H80	H	1.946692	-0.638022	-0.463908
H81	H	1.940144	-0.706710	-0.372355
H82	H	1.780749	-0.586650	-0.386836
H83	H	1.774184	-0.655314	-0.295261
H84	H	1.948743	-0.618071	-0.218477
H85	H	1.955287	-0.549388	-0.310040
H86	H	1.856917	-0.549595	-0.211959
C87	C	1.574556	-1.090356	-0.738084
C88	C	1.591013	-1.171483	-0.721670
C89	C	1.514281	-1.212918	-0.798230
H90	H	1.591995	-1.076875	-0.818784
H91	H	1.493892	-1.076920	-0.720433
H92	H	1.671659	-1.184913	-0.739329
H93	H	1.573566	-1.184987	-0.640986
H94	H	1.433617	-1.199483	-0.780580
H95	H	1.531727	-1.199431	-0.878926
H96	H	1.525429	-1.267967	-0.787096
