data_functionalizedCrystal
_audit_creation_method	'MofGen! by Chris Wilmer'
_symmetry_space_group_name_H-M	'P1'
_symmetry_Int_Tables_number	1
_symmetry_cell_setting	triclinic
loop_
_symmetry_equiv_pos_as_xyz
  x,y,z
_cell_length_a	15.944551
_cell_length_b	14.044220
_cell_length_c	13.101018
_cell_angle_alpha	86.335600
_cell_angle_beta	93.358102
_cell_angle_gamma	88.343808
loop_
_atom_site_label
_atom_site_type_symbol
_atom_site_fract_x
_atom_site_fract_y
_atom_site_fract_z
O1	O	-1.127907	-0.117030	-0.085109
O2	O	-0.884487	-0.132101	-0.085135
O3	O	-1.002543	0.013419	-0.085113
O4	O	-1.009851	-0.262549	-0.085132
O5	O	-0.994063	0.002969	0.085316
O6	O	-0.876007	-0.142551	0.085293
O7	O	-1.119427	-0.127480	0.085319
Zn8	Zn	-0.996370	-0.136674	0.112366
Zn9	Zn	-1.007544	-0.122906	-0.112182
O10	O	-1.001371	-0.272999	0.085297
C11	C	-0.848906	-0.136700	0.000076
C12	C	-0.755520	-0.134823	0.000066
C13	C	-0.995104	0.043509	0.000102
C14	C	-0.985563	0.148735	0.000102
C15	C	-1.155008	-0.122881	0.000106
C16	C	-1.248394	-0.124757	0.000109
C17	C	-0.533573	-0.040140	0.000093
C18	C	-0.480026	-0.078956	-0.083941
C19	C	-0.584540	-0.131430	0.000079
C20	C	-0.471689	-0.089281	0.084089
C21	C	-0.419380	-0.128147	0.000095
C22	C	-0.532227	-0.170267	-0.084024
C23	C	-0.523891	-0.180583	0.084081
C24	C	-0.470369	-0.219464	0.000027
C25	C	-0.679684	-0.133319	0.000068
C26	C	-0.324238	-0.126264	0.000098
C27	C	-1.008810	-0.303089	0.000080
C28	C	-1.018352	-0.408315	0.000073
N29	N	-0.988751	-0.146070	0.265613
C30	C	-0.968120	0.341399	0.000085
C31	C	-1.035791	0.399027	0.000090
C32	C	-1.026085	0.506232	0.000080
C33	C	-0.977824	0.234184	0.000095
N34	N	-1.015169	-0.113503	-0.265429
C35	C	-1.025531	-0.100715	0.525530
C36	C	-0.978392	-0.158854	0.474648
C37	C	-0.984157	-0.151739	0.358330
C38	C	-1.019766	-0.107829	0.641858
H39	H	-0.561238	0.035630	-0.000006
H40	H	-0.460560	-0.035988	-0.154980
N41	N	-0.567207	-0.215598	-0.178236
H42	H	-0.630493	-0.216556	-0.177677
H43	H	-0.550847	-0.177464	-0.241572
N44	N	-1.084732	-0.027722	0.467524
H45	H	-1.115394	0.010089	0.517685
H46	H	-1.051589	0.016862	0.423007
N47	N	-0.919200	-0.231868	0.532652
H48	H	-0.859667	-0.219833	0.514052
H49	H	-0.923492	-0.226629	0.608709
N50	N	-0.433962	-0.319916	-0.000035
H51	H	-0.456164	-0.350370	-0.063537
H52	H	-0.370661	-0.318065	0.000607
H53	H	-0.543377	-0.223520	0.155123
H54	H	-1.101018	0.367856	0.000028
N55	N	-0.436564	-0.043890	0.178192
H56	H	-0.459663	0.023842	0.178117
H57	H	-0.453261	-0.081647	0.241605
H58	H	-0.902902	0.372573	0.000076
