data_functionalizedCrystal
_audit_creation_method	'MofGen! by Chris Wilmer'
_symmetry_space_group_name_H-M	'P1'
_symmetry_Int_Tables_number	1
_symmetry_cell_setting	triclinic
loop_
_symmetry_equiv_pos_as_xyz
  x,y,z
_cell_length_a	19.076806
_cell_length_b	19.077105
_cell_length_c	18.215399
_cell_angle_alpha	87.683665
_cell_angle_beta	87.669684
_cell_angle_gamma	89.926089
loop_
_atom_site_label
_atom_site_type_symbol
_atom_site_fract_x
_atom_site_fract_y
_atom_site_fract_z
Zn1	Zn	-0.322999	1.063009	-0.447122
Zn2	Zn	-0.072999	1.313009	-0.197122
Zn3	Zn	0.177001	1.563009	0.052878
Zn4	Zn	0.427001	1.813009	0.302878
Zn5	Zn	-0.440515	1.058203	-0.318909
Zn6	Zn	-0.190515	1.308203	-0.068909
Zn7	Zn	0.059485	1.558203	0.181091
Zn8	Zn	0.309485	1.808203	0.431091
Zn9	Zn	-0.318293	0.945501	-0.319338
Zn10	Zn	-0.068293	1.195501	-0.069338
Zn11	Zn	0.181707	1.445501	0.180662
Zn12	Zn	0.431707	1.695501	0.430662
Zn13	Zn	-0.435747	0.940750	-0.437207
Zn14	Zn	-0.185747	1.190750	-0.187207
Zn15	Zn	0.064253	1.440750	0.062793
Zn16	Zn	0.314253	1.690750	0.312793
O17	O	-0.379389	1.001866	-0.380644
O18	O	-0.129389	1.251866	-0.130644
O19	O	0.120611	1.501866	0.119356
O20	O	0.370611	1.751866	0.369356
O21	O	-0.342553	1.160703	-0.434085
O22	O	-0.092553	1.410703	-0.184085
O23	O	0.157447	1.660703	0.065915
O24	O	0.407447	1.910703	0.315915
O25	O	-0.424328	1.043229	-0.215980
O26	O	-0.174328	1.293229	0.034020
O27	O	0.075672	1.543229	0.284020
O28	O	0.325672	1.793229	0.534020
O29	O	-0.220582	0.965088	-0.340617
O30	O	0.029418	1.215088	-0.090617
O31	O	0.279418	1.465088	0.159383
O32	O	0.529418	1.715088	0.409383
O33	O	-0.428891	1.157172	-0.339887
O34	O	-0.178891	1.407172	-0.089887
O35	O	0.071109	1.657172	0.160113
O36	O	0.321109	1.907172	0.410113
O37	O	-0.224039	1.051420	-0.434500
O38	O	0.025961	1.301420	-0.184500
O39	O	0.275961	1.551420	0.065500
O40	O	0.525961	1.801420	0.315500
O41	O	-0.334532	0.960428	-0.216294
O42	O	-0.084532	1.210428	0.033706
O43	O	0.165468	1.460428	0.283706
O44	O	0.415468	1.710428	0.533706
O45	O	-0.329909	0.846539	-0.331003
O46	O	-0.079909	1.096539	-0.081003
O47	O	0.170091	1.346539	0.168997
O48	O	0.420091	1.596539	0.418997
O49	O	-0.420765	0.956991	-0.541509
O50	O	-0.170765	1.206991	-0.291509
O51	O	0.079235	1.456991	-0.041509
O52	O	0.329235	1.706991	0.208491
O53	O	-0.416202	0.843049	-0.417601
O54	O	-0.166202	1.093049	-0.167601
O55	O	0.083798	1.343049	0.082399
O56	O	0.333798	1.593049	0.332399
O57	O	-0.337930	1.046814	-0.548793
O58	O	-0.087930	1.296814	-0.298793
O59	O	0.162070	1.546814	-0.048793
O60	O	0.412070	1.796814	0.201207
O61	O	-0.538218	1.038623	-0.330273
O62	O	-0.288218	1.288623	-0.080273
O63	O	-0.038218	1.538623	0.169727
O64	O	0.211782	1.788623	0.419727
O65	O	-0.534715	0.952331	-0.417186
O66	O	-0.284715	1.202331	-0.167186
O67	O	-0.034715	1.452331	0.082814
O68	O	0.215285	1.702331	0.332814
C69	C	-0.372028	0.819298	-0.373273
C70	C	-0.122028	1.069298	-0.123273
C71	C	0.127972	1.319298	0.126727
C72	C	0.377972	1.569298	0.376727
C73	C	-0.368896	0.741193	-0.370137
C74	C	-0.118896	0.991193	-0.120137
C75	C	0.131104	1.241193	0.129863
C76	C	0.381104	1.491193	0.379863
C77	C	-0.412421	0.702699	-0.413673
C78	C	-0.162421	0.952699	-0.163673
C79	C	0.087579	1.202699	0.086327
C80	C	0.337579	1.452699	0.336327
C81	C	-0.409469	0.629312	-0.410730
C82	C	-0.159469	0.879312	-0.160730
C83	C	0.090531	1.129312	0.089270
C84	C	0.340531	1.379312	0.339270
C85	C	-0.362995	0.594421	-0.364246
C86	C	-0.112995	0.844421	-0.114246
C87	C	0.137005	1.094421	0.135754
C88	C	0.387005	1.344421	0.385754
C89	C	-0.319466	0.632921	-0.320708
C90	C	-0.069466	0.882921	-0.070708
C91	C	0.180534	1.132921	0.179292
C92	C	0.430534	1.382921	0.429292
C93	C	-0.322415	0.706307	-0.323655
C94	C	-0.072415	0.956307	-0.073655
C95	C	0.177585	1.206307	0.176345
C96	C	0.427585	1.456307	0.426345
C97	C	-0.349347	0.375136	-0.350607
C98	C	-0.099347	0.625136	-0.100607
C99	C	0.150653	0.875136	0.149393
C100	C	0.400653	1.125136	0.399393
C101	C	-0.346403	0.301745	-0.347661
C102	C	-0.096403	0.551745	-0.097661
C103	C	0.153597	0.801745	0.152339
C104	C	0.403597	1.051745	0.402339
C105	C	-0.436405	0.298140	-0.437685
C106	C	-0.186405	0.548140	-0.187685
C107	C	0.063595	0.798140	0.062315
C108	C	0.313595	1.048140	0.312315
C109	C	-0.439353	0.371527	-0.440625
C110	C	-0.189353	0.621527	-0.190625
C111	C	0.060647	0.871527	0.059375
C112	C	0.310647	1.121527	0.309375
C113	C	-0.395821	0.410021	-0.397090
C114	C	-0.145821	0.660021	-0.147090
C115	C	0.104179	0.910021	0.102910
C116	C	0.354179	1.160021	0.352910
N117	N	-0.359978	0.519408	-0.361234
N118	N	-0.109978	0.769408	-0.111234
N119	N	0.140022	1.019408	0.138766
N120	N	0.390022	1.269408	0.388766
N121	N	-0.398835	0.485033	-0.400106
N122	N	-0.148835	0.735033	-0.150106
N123	N	0.101165	0.985033	0.099894
N124	N	0.351165	1.235033	0.349894
C125	C	-0.561965	0.994459	-0.372624
C126	C	-0.311965	1.244459	-0.122624
C127	C	-0.061965	1.494459	0.127376
C128	C	0.188035	1.744459	0.377376
C129	C	-0.640074	0.991355	-0.369220
C130	C	-0.390074	1.241355	-0.119220
C131	C	-0.140074	1.491355	0.130780
C132	C	0.109926	1.741355	0.380780
C133	C	-1.079560	0.969042	-0.344832
C134	C	-0.829560	1.219042	-0.094832
C135	C	-0.579560	1.469042	0.155168
C136	C	-0.329560	1.719042	0.405168
C137	C	-1.006168	0.971960	-0.348030
C138	C	-0.756168	1.221960	-0.098030
C139	C	-0.506168	1.471960	0.151970
C140	C	-0.256168	1.721960	0.401970
C141	C	-0.971211	1.018337	-0.398544
C142	C	-0.721211	1.268337	-0.148544
C143	C	-0.471211	1.518337	0.101456
C144	C	-0.221211	1.768337	0.351456
C145	C	-1.009651	1.061794	-0.445869
C146	C	-0.759651	1.311794	-0.195869
C147	C	-0.509651	1.561794	0.054131
C148	C	-0.259651	1.811794	0.304131
C149	C	-1.083041	1.058871	-0.442673
C150	C	-0.833041	1.308871	-0.192673
C151	C	-0.583041	1.558871	0.057327
C152	C	-0.333041	1.808871	0.307327
C153	C	-0.751904	1.031890	-0.413349
C154	C	-0.501904	1.281890	-0.163349
C155	C	-0.251904	1.531890	0.086651
C156	C	-0.001904	1.781890	0.336651
C157	C	-0.678508	1.034810	-0.416539
C158	C	-0.428508	1.284810	-0.166539
C159	C	-0.178508	1.534810	0.083461
C160	C	0.071492	1.784810	0.333461
C161	C	-0.675031	0.944975	-0.318701
C162	C	-0.425031	1.194975	-0.068701
C163	C	-0.175031	1.444975	0.181299
C164	C	0.074969	1.694975	0.431299
C165	C	-0.748423	0.942060	-0.315507
C166	C	-0.498423	1.192060	-0.065507
C167	C	-0.248423	1.442060	0.184493
C168	C	0.001577	1.692060	0.434493
C169	C	-0.786855	0.985514	-0.362834
C170	C	-0.536855	1.235514	-0.112834
C171	C	-0.286855	1.485514	0.137166
C172	C	-0.036855	1.735514	0.387166
N173	N	-0.896193	1.021322	-0.401813
N174	N	-0.646193	1.271322	-0.151813
N175	N	-0.396193	1.521322	0.098187
N176	N	-0.146193	1.771322	0.348187
N177	N	-0.861872	0.982524	-0.359568
N178	N	-0.611872	1.232524	-0.109568
N179	N	-0.361872	1.482524	0.140432
N180	N	-0.111872	1.732524	0.390432
C181	C	-0.196100	1.009320	-0.388713
C182	C	0.053900	1.259320	-0.138713
C183	C	0.303900	1.509320	0.111287
C184	C	0.553900	1.759320	0.361287
C185	C	-0.117994	1.012497	-0.392151
C186	C	0.132006	1.262497	-0.142151
C187	C	0.382006	1.512497	0.107849
C188	C	0.632006	1.762497	0.357849
C189	C	-0.379341	1.001909	-0.572601
C190	C	-0.129341	1.251909	-0.322601
C191	C	0.120659	1.501909	-0.072601
C192	C	0.370659	1.751909	0.177399
C193	C	-0.379320	1.001927	-0.654402
C194	C	-0.129320	1.251927	-0.404402
C195	C	0.120680	1.501927	-0.154402
C196	C	0.370680	1.751927	0.095598
C197	C	-0.386778	1.185146	-0.388044
C198	C	-0.136778	1.435146	-0.138044
C199	C	0.113222	1.685146	0.111956
C200	C	0.363222	1.935146	0.361956
C201	C	-0.389927	1.263250	-0.391198
C202	C	-0.139927	1.513250	-0.141198
C203	C	0.110073	1.763250	0.108802
C204	C	0.360073	2.013250	0.358802
C205	C	-0.336128	1.048726	-0.923257
C206	C	-0.086128	1.298726	-0.673257
C207	C	0.163872	1.548726	-0.423257
C208	C	0.413872	1.798726	-0.173257
C209	C	-0.336147	1.048717	-0.846397
C210	C	-0.086147	1.298717	-0.596397
C211	C	0.163853	1.548717	-0.346397
C212	C	0.413853	1.798717	-0.096397
C213	C	-0.422413	0.955189	-0.838801
C214	C	-0.172413	1.205189	-0.588801
C215	C	0.077587	1.455189	-0.338801
C216	C	0.327587	1.705189	-0.088801
C217	C	-0.422397	0.955202	-0.915660
C218	C	-0.172397	1.205202	-0.665660
C219	C	0.077603	1.455202	-0.415660
C220	C	0.327603	1.705202	-0.165660
C221	C	-0.379251	1.001970	-0.957886
C222	C	-0.129251	1.251970	-0.707886
C223	C	0.120749	1.501970	-0.457886
C224	C	0.370749	1.751970	-0.207886
C225	C	-0.379285	1.001948	-0.804167
C226	C	-0.129285	1.251948	-0.554167
C227	C	0.120715	1.501948	-0.304167
C228	C	0.370715	1.751948	-0.054167
C229	C	-0.379305	1.001938	-0.720832
C230	C	-0.129305	1.251938	-0.470832
C231	C	0.120695	1.501938	-0.220832
C232	C	0.370695	1.751938	0.029168
C233	C	-0.379231	1.001981	-1.041226
C234	C	-0.129231	1.251981	-0.791226
C235	C	0.120769	1.501981	-0.541226
C236	C	0.370769	1.751981	-0.291226
C237	C	-0.379388	1.001865	-0.189438
C238	C	-0.129388	1.251865	0.060562
C239	C	0.120612	1.501865	0.310562
C240	C	0.370612	1.751865	0.560562
C241	C	-0.379216	1.001991	-0.107652
C242	C	-0.129216	1.251991	0.142348
C243	C	0.120784	1.501991	0.392348
C244	C	0.370784	1.751991	0.642348
H245	H	-0.281623	0.604508	-0.282862
H246	H	-0.031623	0.854508	-0.032862
H247	H	0.218377	1.104508	0.217138
H248	H	0.468377	1.354508	0.467138
F249	F	-0.468301	0.905439	-0.952516
F250	F	-0.218301	1.155439	-0.702516
F251	F	0.031699	1.405439	-0.452516
F252	F	0.281699	1.655439	-0.202516
H253	H	-0.471845	0.266791	-0.473130
H254	H	-0.221845	0.516791	-0.223130
H255	H	0.028155	0.766791	0.026870
H256	H	0.278155	1.016791	0.276870
F257	F	-0.461888	0.739825	-0.463145
F258	F	-0.211888	0.989825	-0.213145
F259	F	0.038112	1.239825	0.036855
F260	F	0.288112	1.489825	0.286855
F261	F	-0.488818	0.408655	-0.490098
F262	F	-0.238818	0.658655	-0.240098
F263	F	0.011182	0.908655	0.009902
F264	F	0.261182	1.158655	0.259902
H265	H	-0.457540	0.917112	-0.804412
H266	H	-0.207540	1.167112	-0.554412
H267	H	0.042460	1.417112	-0.304412
H268	H	0.292460	1.667112	-0.054412
H269	H	-0.444912	0.597972	-0.446181
H270	H	-0.194912	0.847972	-0.196181
H271	H	0.055088	1.097972	0.053819
H272	H	0.305088	1.347972	0.303819
F273	F	-0.641306	1.084175	-0.470304
F274	F	-0.391306	1.334175	-0.220304
F275	F	-0.141306	1.584175	0.029696
F276	F	0.108694	1.834175	0.279696
F277	F	-0.785621	0.892698	-0.261743
F278	F	-0.535621	1.142698	-0.011743
F279	F	-0.285621	1.392698	0.238257
F280	F	-0.035621	1.642698	0.488257
F281	F	-0.972445	1.111146	-0.499637
F282	F	-0.722445	1.361146	-0.249637
F283	F	-0.472445	1.611146	0.000363
F284	F	-0.222445	1.861146	0.250363
F285	F	-0.296942	0.264613	-0.298180
F286	F	-0.046942	0.514613	-0.048180
F287	F	0.203058	0.764613	0.201820
F288	F	0.453058	1.014613	0.451820
F289	F	-0.303015	0.416094	-0.304275
F290	F	-0.053015	0.666094	-0.054275
F291	F	0.196985	0.916094	0.195725
F292	F	0.446985	1.166094	0.445725
H293	H	-0.643732	0.909596	-0.280170
H294	H	-0.393732	1.159596	-0.030170
H295	H	-0.143732	1.409596	0.219830
H296	H	0.106268	1.659596	0.469830
F297	F	-0.792797	1.078132	-0.463724
F298	F	-0.542797	1.328132	-0.213724
F299	F	-0.292797	1.578132	0.036276
F300	F	-0.042797	1.828132	0.286276
F301	F	-0.965267	0.925701	-0.297673
F302	F	-0.715267	1.175701	-0.047673
F303	F	-0.465267	1.425701	0.202327
F304	F	-0.215267	1.675701	0.452327
F305	F	-0.276089	0.747276	-0.277319
F306	F	-0.026089	0.997276	-0.027319
F307	F	0.223911	1.247276	0.222681
F308	F	0.473911	1.497276	0.472681
F309	F	-1.123945	1.105121	-0.493038
F310	F	-0.873945	1.355121	-0.243038
F311	F	-0.623945	1.605121	0.006962
F312	F	-0.373945	1.855121	0.256962
H313	H	-0.301033	1.086792	-0.818206
H314	H	-0.051033	1.336792	-0.568206
H315	H	0.198967	1.586792	-0.318206
H316	H	0.448967	1.836792	-0.068206
F317	F	-1.116757	0.919684	-0.291063
F318	F	-0.866757	1.169684	-0.041063
F319	F	-0.616757	1.419684	0.208937
F320	F	-0.366757	1.669684	0.458937
F321	F	-0.290207	1.098499	-0.968195
F322	F	-0.040207	1.348499	-0.718195
F323	F	0.209793	1.598499	-0.468195
F324	F	0.459793	1.848499	-0.218195
