data_functionalizedCrystal
_audit_creation_method	'MofGen! by Chris Wilmer'
_symmetry_space_group_name_H-M	'P1'
_symmetry_Int_Tables_number	1
_symmetry_cell_setting	triclinic
loop_
_symmetry_equiv_pos_as_xyz
  x,y,z
_cell_length_a	25.639243
_cell_length_b	25.639239
_cell_length_c	10.685880
_cell_angle_alpha	94.335052
_cell_angle_beta	85.600726
_cell_angle_gamma	90.042008
loop_
_atom_site_label
_atom_site_type_symbol
_atom_site_fract_x
_atom_site_fract_y
_atom_site_fract_z
Zn1	Zn	0.821935	-0.230738	-0.713525
Zn2	Zn	0.815141	-0.311485	-0.502508
Zn3	Zn	0.727795	-0.224070	-0.502532
Zn4	Zn	0.734453	-0.318146	-0.713436
O5	O	0.774831	-0.271110	-0.608000
O6	O	0.894200	-0.241452	-0.685561
O7	O	0.797925	-0.294310	-0.325935
O8	O	0.740340	-0.151791	-0.530568
O9	O	0.889208	-0.300776	-0.530527
O10	O	0.809505	-0.156690	-0.685584
O11	O	0.733752	-0.230087	-0.325953
O12	O	0.655512	-0.236546	-0.530481
O13	O	0.751687	-0.312129	-0.890023
O14	O	0.660404	-0.305663	-0.685431
O15	O	0.815960	-0.247911	-0.890089
O16	O	0.804380	-0.385532	-0.530440
O17	O	0.745099	-0.390426	-0.685408
C18	C	0.638987	-0.271104	-0.607950
C19	C	0.580873	-0.271116	-0.607958
C20	C	0.223109	-0.240276	-0.688861
C21	C	0.168505	-0.240276	-0.688868
O22	O	0.142476	-0.214044	-0.757592
N23	N	0.138593	-0.271109	-0.608035
C24	C	0.163287	-0.301940	-0.527179
O25	O	0.132831	-0.328166	-0.458423
C26	C	0.217890	-0.301937	-0.527165
C27	C	0.247800	-0.271106	-0.608014
C28	C	0.253019	-0.209447	-0.769701
C29	C	0.307619	-0.209448	-0.769695
C30	C	0.332310	-0.240278	-0.688848
C31	C	0.302400	-0.271107	-0.608007
C32	C	0.242583	-0.332765	-0.446304
C33	C	0.297190	-0.332759	-0.446297
C34	C	0.327100	-0.301928	-0.527145
C35	C	0.381691	-0.301938	-0.527154
N36	N	0.411604	-0.271105	-0.607987
C37	C	0.386913	-0.240275	-0.688834
C38	C	0.048618	-0.301944	-0.527211
C39	C	-0.005984	-0.301950	-0.527230
C40	C	-0.000762	-0.240285	-0.688918
C41	C	0.053840	-0.240282	-0.688905
C42	C	0.078530	-0.271111	-0.608045
C43	C	0.501577	-0.240280	-0.688815
C44	C	0.556182	-0.240286	-0.688805
C45	C	0.550956	-0.301948	-0.527113
C46	C	0.496356	-0.301945	-0.527127
C47	C	0.471668	-0.271107	-0.607983
O48	O	0.407756	-0.328156	-0.458461
O49	O	0.417375	-0.214049	-0.757567
C50	C	0.774740	-0.406950	-0.607939
C51	C	0.774750	-0.465065	-0.607955
C52	C	0.743956	-0.718819	-0.688666
C53	C	0.743936	-0.664215	-0.688651
O54	O	0.717667	-0.638154	-0.757233
N55	N	0.774818	-0.634341	-0.608021
C56	C	0.805725	-0.659074	-0.527409
O57	O	0.831991	-0.628650	-0.458826
C58	C	0.805747	-0.713678	-0.527431
C59	C	0.774860	-0.743549	-0.608058
C60	C	0.713072	-0.748690	-0.769287
C61	C	0.713091	-0.803291	-0.769300
C62	C	0.743995	-0.828021	-0.688691
C63	C	0.774879	-0.798150	-0.608070
C64	C	0.836657	-0.738411	-0.446827
C65	C	0.836677	-0.793019	-0.446856
C66	C	0.805790	-0.822890	-0.527483
C67	C	0.805802	-0.877481	-0.527475
N68	N	0.774921	-0.907355	-0.608105
C69	C	0.744017	-0.882625	-0.688713
C70	C	0.805676	-0.544403	-0.527371
C71	C	0.805652	-0.489799	-0.527342
C72	C	0.743864	-0.494943	-0.688586
C73	C	0.743886	-0.549547	-0.688608
C74	C	0.774795	-0.574277	-0.608001
C75	C	0.744059	-0.997291	-0.688733
C76	C	0.744080	-1.051896	-0.688735
C77	C	0.805869	-1.046748	-0.527496
C78	C	0.805847	-0.992147	-0.527489
C79	C	0.774941	-0.967420	-0.608118
O80	O	0.832059	-0.903577	-0.458932
O81	O	0.717761	-0.913056	-0.757296
C82	C	0.911206	-0.271115	-0.608051
C83	C	0.969320	-0.271117	-0.608073
C84	C	0.785324	-0.281507	-0.937120
C85	C	0.789796	-0.285938	-1.077372
C86	C	0.774938	-0.134739	-0.608089
C87	C	0.774983	-0.076626	-0.608127
C88	C	0.764409	-0.260715	-0.280160
C89	C	0.760039	-0.256137	-0.139910
H90	H	0.078190	-0.215175	-0.754736
H91	H	0.481483	-0.215167	-0.754652
H92	H	0.830993	-0.967825	-0.461823
O93	O	0.683107	-0.832382	-0.847518
C94	C	0.655780	-0.918776	-0.919113
C95	C	0.689751	-0.885898	-0.830433
H96	H	0.661149	-0.962051	-0.905350
H97	H	0.612903	-0.907426	-0.896864
H98	H	0.668170	-0.911188	-1.020854
H99	H	0.677407	-0.893469	-0.728663
H100	H	0.732621	-0.897254	-0.852790
H101	H	0.472002	-0.327057	-0.461309
O102	O	0.725589	-0.221585	-1.075929
C103	C	0.699017	-0.131380	-1.035355
C104	C	0.738059	-0.170454	-1.107922
H105	H	0.709091	-0.090031	-1.061175
H106	H	0.657658	-0.141324	-1.061206
H107	H	0.701419	-0.133857	-0.929880
H108	H	0.735703	-0.167998	-1.213414
H109	H	0.779401	-0.160497	-1.081967
O110	O	0.824287	-0.320467	-1.141302
C111	C	0.890161	-0.386350	-1.127643
C112	C	0.851114	-0.347278	-1.055086
H113	H	0.911869	-0.408029	-1.057969
H114	H	0.868106	-0.415650	-1.189285
H115	H	0.919443	-0.364267	-1.189403
H116	H	0.821823	-0.369317	-0.993257
H117	H	0.873204	-0.317980	-0.993523
O118	O	0.866635	-0.709457	-0.368337
C119	C	0.885239	-0.685972	-0.153756
C120	C	0.851256	-0.718798	-0.242505
H121	H	0.872811	-0.693504	-0.052002
H122	H	0.928106	-0.697377	-0.175935
H123	H	0.879936	-0.642699	-0.167636
H124	H	0.856514	-0.762079	-0.228675
H125	H	0.808402	-0.707348	-0.220305
O126	O	0.713767	-0.470934	-0.766764
C127	C	0.626758	-0.456256	-0.827868
C128	C	0.660776	-0.483468	-0.739241
H129	H	0.583909	-0.466389	-0.805665
H130	H	0.632007	-0.412093	-0.813994
H131	H	0.639182	-0.470172	-0.929631
H132	H	0.648373	-0.469596	-0.637444
H133	H	0.655524	-0.527628	-0.753225
O134	O	0.683000	-0.724755	-0.847634
C135	C	0.621734	-0.735640	-1.007602
C136	C	0.655763	-0.762807	-0.918921
H137	H	0.599713	-0.766393	-1.065279
H138	H	0.592519	-0.708303	-0.949658
H139	H	0.647811	-0.712106	-1.073585
H140	H	0.629728	-0.786369	-0.852920
H141	H	0.684982	-0.790113	-0.976943
H142	H	0.331967	-0.184342	-0.835528
O143	O	0.585157	-0.210286	-0.767384
C144	C	0.584564	-0.149148	-0.927812
C145	C	0.551691	-0.183088	-0.838872
H146	H	0.557522	-0.127158	-0.985652
H147	H	0.608289	-0.119912	-0.870062
H148	H	0.612228	-0.175282	-0.993631
H149	H	0.523998	-0.156995	-0.773035
H150	H	0.528002	-0.212328	-0.896700
O151	O	0.713960	-0.578622	-0.766997
C152	C	0.712328	-0.645599	-0.937436
C153	C	0.746279	-0.612720	-0.848712
H154	H	0.738444	-0.673168	-1.003542
H155	H	0.683179	-0.669412	-0.879529
H156	H	0.690224	-0.618527	-0.994979
H157	H	0.768416	-0.639754	-0.791149
H158	H	0.775395	-0.588902	-0.906691
H159	H	0.218240	-0.357871	-0.380467
O160	O	0.835827	-1.070740	-0.449005
C161	C	0.854467	-1.080643	-0.234433
C162	C	0.820492	-1.053447	-0.323179
H163	H	0.842088	-1.066664	-0.132685
H164	H	0.849174	-1.124804	-0.248175
H165	H	0.897323	-1.070567	-0.256755
H166	H	0.777624	-1.063481	-0.300912
H167	H	0.825829	-1.009293	-0.309420
H168	H	0.232922	-0.184339	-0.835537
H169	H	-0.020876	-0.215180	-0.754745
H170	H	-0.030332	-0.327062	-0.461409
O171	O	0.072517	-0.331947	-0.448632
C172	C	0.061562	-0.393091	-0.288219
C173	C	0.034434	-0.359147	-0.377164
H174	H	0.030784	-0.415082	-0.230395
H175	H	0.088938	-0.422326	-0.345964
H176	H	0.085053	-0.366960	-0.222385
H177	H	0.010916	-0.385236	-0.443017
H178	H	0.007089	-0.329907	-0.319341
H179	H	0.317289	-0.357864	-0.380448
H180	H	0.718893	-0.977165	-0.754390
O181	O	0.835603	-0.460706	-0.449050
C182	C	0.862988	-0.374314	-0.377602
C183	C	0.829030	-0.407195	-0.466306
H184	H	0.857694	-0.331045	-0.391541
H185	H	0.850596	-0.381824	-0.275812
H186	H	0.905846	-0.385738	-0.399848
H187	H	0.786164	-0.395791	-0.444174
H188	H	0.841466	-0.399682	-0.568069
H189	H	0.571069	-0.327051	-0.461292
O190	O	0.835711	-0.568337	-0.448931
C191	C	0.897013	-0.557462	-0.289045
C192	C	0.863015	-0.530293	-0.377789
H193	H	0.919106	-0.526716	-0.231522
H194	H	0.870959	-0.580960	-0.222932
H195	H	0.926174	-0.584833	-0.347059
H196	H	0.833851	-0.502897	-0.319877
H197	H	0.889102	-0.506827	-0.443906
H198	H	0.861849	-0.813151	-0.381219
H199	H	0.718926	-1.076215	-0.754394
