data_functionalizedCrystal
_audit_creation_method	'MofGen! by Chris Wilmer'
_symmetry_space_group_name_H-M	'P1'
_symmetry_Int_Tables_number	1
_symmetry_cell_setting	triclinic
loop_
_symmetry_equiv_pos_as_xyz
  x,y,z
_cell_length_a	33.428889
_cell_length_b	33.428139
_cell_length_c	33.424847
_cell_angle_alpha	60.004234
_cell_angle_beta	60.008465
_cell_angle_gamma	59.994972
loop_
_atom_site_label
_atom_site_type_symbol
_atom_site_fract_x
_atom_site_fract_y
_atom_site_fract_z
O1	O	0.055565	-0.584504	0.488714
O2	O	0.020982	-0.455083	0.393778
O3	O	0.102943	-0.536959	0.393689
O4	O	-0.026396	-0.502628	0.488803
O5	O	0.130140	-0.509767	0.420792
O6	O	0.048179	-0.427891	0.420881
O7	O	0.082762	-0.557312	0.515817
Cu8	Cu	0.067954	-0.490119	0.470823
Cu9	Cu	0.035790	-0.522276	0.438771
O10	O	0.000801	-0.475436	0.515906
N11	N	0.090577	-0.467504	0.493370
N12	N	0.013171	-0.544895	0.416225
C13	C	0.143377	-0.280390	0.546067
C14	C	0.143515	-0.414755	0.680369
C15	C	0.143392	-0.414735	0.546069
C16	C	0.277766	-0.414702	0.545966
C17	C	0.158177	-0.324719	0.560828
C18	C	0.158255	-0.399967	0.636038
C19	C	0.233434	-0.399936	0.560773
C20	C	0.158186	-0.399955	0.560829
C21	C	0.124540	-0.223964	0.527278
C22	C	0.124565	-0.433545	0.527281
C23	C	0.177014	-0.381145	0.579617
C24	C	0.359814	-0.400540	0.502735
C25	C	0.411105	-0.417624	0.485606
C26	C	0.411136	-0.500620	0.517255
C27	C	0.359845	-0.483534	0.534385
C28	C	0.136887	-0.198305	0.476855
C29	C	0.119761	-0.147011	0.459777
C30	C	0.077945	-0.147038	0.543547
C31	C	0.095072	-0.198332	0.560625
C32	C	0.074134	-0.421169	0.539710
C33	C	0.057023	-0.438269	0.522625
C34	C	0.140770	-0.480120	0.480694
C35	C	0.157883	-0.463020	0.497773
C36	C	0.074339	-0.421208	0.762475
C37	C	0.057288	-0.438323	0.813768
C38	C	0.141075	-0.480183	0.813699
C39	C	0.158125	-0.463069	0.762404
C40	C	0.124756	-0.433580	0.736794
C41	C	0.334186	-0.433494	0.527123
C42	C	-0.173769	-0.597444	0.363037
C43	C	-0.039302	-0.597595	0.228856
C44	C	-0.039496	-0.597587	0.363300
C45	C	-0.039512	-0.731889	0.363237
C46	C	-0.129442	-0.612265	0.348329
C47	C	-0.054138	-0.612351	0.273187
C48	C	-0.054257	-0.687554	0.348440
C49	C	-0.054247	-0.612346	0.348477
C50	C	-0.230191	-0.578579	0.381758
C51	C	-0.020722	-0.578803	0.382168
C52	C	-0.073020	-0.631130	0.329609
C53	C	-0.053713	-0.813916	0.406386
C54	C	-0.036654	-0.865210	0.423504
C55	C	0.046338	-0.865293	0.391984
C56	C	0.029278	-0.813999	0.374865
C57	C	-0.255900	-0.590938	0.432169
C58	C	-0.307191	-0.573786	0.449185
C59	C	-0.307060	-0.531922	0.365377
C60	C	-0.255769	-0.549074	0.348360
C61	C	-0.033081	-0.528377	0.369764
C62	C	-0.016014	-0.511306	0.386922
C63	C	0.025770	-0.595083	0.428877
C64	C	0.008703	-0.612156	0.411725
C65	C	-0.032755	-0.528393	0.146761
C66	C	-0.015585	-0.511324	0.095468
C67	C	0.026262	-0.595106	0.095516
C68	C	0.009094	-0.612174	0.146811
C69	C	-0.020417	-0.578816	0.172432
C70	C	-0.020748	-0.788312	0.382068
N71	N	0.436037	-0.467415	0.493101
O72	O	0.592642	-0.471896	0.376066
O73	O	0.592838	-0.567146	0.505347
O74	O	0.592754	-0.566928	0.423360
O75	O	0.592727	-0.472113	0.458053
O76	O	0.511269	-0.539835	0.450606
O77	O	0.511353	-0.540052	0.532594
O78	O	0.511157	-0.444802	0.403312
Cu79	Cu	0.503815	-0.489954	0.470441
Cu80	Cu	0.600180	-0.521995	0.438219
O81	O	0.511242	-0.445020	0.485300
N82	N	0.667959	-0.544533	0.415554
N83	N	0.090544	-0.122107	0.493359
O84	O	-0.026406	0.034587	0.488773
O85	O	0.102877	0.034627	0.393499
O86	O	0.020848	0.034591	0.393771
O87	O	0.055623	0.034623	0.488500
O88	O	0.048051	-0.046899	0.420925
O89	O	0.130080	-0.046864	0.420653
O90	O	0.000796	-0.046903	0.515927
Cu91	Cu	0.067922	-0.054324	0.470769
Cu92	Cu	0.035752	0.042048	0.438656
O93	O	0.082825	-0.046867	0.515655
N94	N	0.013123	0.109830	0.416068
N95	N	0.090892	-0.467554	0.838649
O96	O	0.086330	-0.584488	0.995334
O97	O	-0.008902	-0.455160	0.995379
O98	O	-0.008679	-0.537172	0.995355
O99	O	0.086107	-0.502475	0.995358
O100	O	0.018452	-0.509990	0.913868
O101	O	0.018230	-0.427978	0.913891
O102	O	0.113461	-0.557306	0.913847
Cu103	Cu	0.068323	-0.490160	0.906429
Cu104	Cu	0.036237	-0.522306	1.002797
O105	O	0.113239	-0.475293	0.913870
N106	N	0.013667	-0.544916	1.070577
C107	C	0.031339	-0.425179	0.394250
C108	C	0.132837	-0.526572	0.394139
C109	C	0.072405	-0.587216	0.515344
C110	C	-0.029093	-0.485823	0.515455
C111	C	0.552119	-0.566716	0.535258
C112	C	0.552016	-0.566447	0.433726
C113	C	0.551873	-0.445232	0.373402
C114	C	0.551980	-0.445502	0.474933
C115	C	0.132731	-0.006013	0.393923
C116	C	0.031182	-0.006158	0.394293
C117	C	-0.029092	-0.006163	0.515469
C118	C	0.072491	-0.006119	0.515133
C119	C	-0.008451	-0.425276	0.954641
C120	C	-0.008170	-0.526833	0.954596
C121	C	0.113010	-0.587190	0.954585
C122	C	0.112735	-0.485627	0.954611
H123	H	0.047163	-0.397193	0.741627
H124	H	-0.038348	-0.388133	0.954654
O125	O	0.551964	-0.602000	0.424954
C126	C	0.509785	-0.655479	0.448532
C127	C	0.509790	-0.615226	0.458526
H128	H	0.475686	-0.666178	0.475662
H129	H	0.543893	-0.688927	0.452902
H130	H	0.509760	-0.641107	0.409601
H131	H	0.509798	-0.629553	0.497454
H132	H	0.475685	-0.581786	0.454123
O133	O	-0.043699	-0.535592	0.954489
C134	C	-0.097098	-0.512014	0.912205
C135	C	-0.056871	-0.502034	0.912270
H136	H	-0.107752	-0.484895	0.878069
H137	H	-0.130572	-0.507611	0.946278
H138	H	-0.082723	-0.550953	0.912206
H139	H	-0.071199	-0.463097	0.912252
H140	H	-0.023405	-0.506470	0.878199
O141	O	0.148311	-0.476860	0.954625
C142	C	0.230885	-0.508900	0.954567
C143	C	0.190636	-0.518898	0.954563
H144	H	0.265118	-0.542878	0.954506
H145	H	0.217352	-0.499598	0.988681
H146	H	0.239991	-0.476805	0.920477
H147	H	0.181512	-0.550999	0.988630
H148	H	0.204190	-0.528171	0.920426
O149	O	0.551992	-0.409920	0.483696
C150	C	0.551883	-0.327332	0.451664
C151	C	0.551879	-0.367587	0.441672
H152	H	0.551781	-0.293093	0.417698
H153	H	0.586017	-0.340856	0.460929
H154	H	0.517814	-0.318235	0.483780
H155	H	0.585924	-0.376702	0.409549
H156	H	0.517722	-0.354041	0.432435
O157	O	0.054932	-0.627577	0.070704
C158	C	0.094592	-0.712478	0.076166
C159	C	0.062128	-0.675761	0.104326
H160	H	0.100412	-0.751443	0.103337
H161	H	0.131527	-0.706652	0.052221
H162	H	0.075840	-0.706518	0.052085
H163	H	0.080837	-0.681699	0.128433
H164	H	0.025195	-0.681596	0.128240
O165	O	0.081335	-0.006179	0.550704
C166	C	0.086012	-0.048412	0.632264
C167	C	0.075975	-0.048399	0.592025
H168	H	0.081693	-0.082549	0.665678
H169	H	0.058877	-0.014337	0.643022
H170	H	0.124937	-0.048375	0.617862
H171	H	0.037065	-0.048454	0.606392
H172	H	0.103141	-0.082471	0.581272
H173	H	0.142910	-0.624330	0.954565
H174	H	0.019144	-0.653235	0.167709
H175	H	0.169783	-0.005775	0.363939
O176	O	0.022316	-0.006265	0.358830
C177	C	0.000722	-0.048513	0.335506
C178	C	0.010756	-0.048452	0.375706
H179	H	-0.008637	-0.082613	0.349139
H180	H	0.034692	-0.048541	0.301275
H181	H	-0.031352	-0.014407	0.326354
H182	H	0.042814	-0.082552	0.384900
H183	H	-0.023239	-0.048399	0.409912
H184	H	0.079796	-0.624394	0.545162
O185	O	0.552205	-0.602345	0.579573
C186	C	0.552265	-0.625117	0.660276
C187	C	0.552179	-0.584728	0.610108
H188	H	0.552234	-0.610884	0.684980
H189	H	0.586395	-0.658517	0.655126
H190	H	0.518192	-0.635841	0.677873
H191	H	0.586229	-0.573962	0.592483
H192	H	0.518027	-0.551354	0.615290
O193	O	0.022437	-0.380808	0.358721
C194	C	-0.035705	-0.300144	0.336208
C195	C	-0.025694	-0.350374	0.376484
H196	H	-0.074615	-0.275521	0.350558
H197	H	-0.031358	-0.305210	0.302791
H198	H	-0.008536	-0.282502	0.325469
H199	H	-0.052855	-0.368044	0.387265
H200	H	-0.030025	-0.345276	0.409875
O201	O	-0.073428	-0.477011	0.551042
C202	C	-0.154123	-0.418978	0.573707
C203	C	-0.103933	-0.428889	0.533365
H204	H	-0.178804	-0.380076	0.559427
H205	H	-0.149009	-0.423362	0.607113
H206	H	-0.171726	-0.446179	0.584439
H207	H	-0.086304	-0.401698	0.522592
H208	H	-0.109080	-0.424522	0.499986
O209	O	0.551821	-0.409614	0.329076
C210	C	0.551684	-0.386816	0.248399
C211	C	0.551756	-0.427201	0.298572
H212	H	0.551620	-0.401017	0.223727
H213	H	0.585771	-0.376097	0.230739
H214	H	0.517568	-0.353420	0.253604
H215	H	0.585848	-0.460623	0.293410
H216	H	0.517646	-0.437878	0.316215
H217	H	0.016234	-0.428240	0.834672
H218	H	-0.066220	-0.006175	0.545378
H219	H	0.199181	-0.473148	0.741498
O220	O	0.173557	-0.508839	0.838501
C221	C	0.258462	-0.548534	0.833019
C222	C	0.221731	-0.516080	0.804870
H223	H	0.297419	-0.554390	0.805840
H224	H	0.252611	-0.585456	0.857014
H225	H	0.252543	-0.529749	0.857049
H226	H	0.227629	-0.534821	0.780814
H227	H	0.227591	-0.479159	0.780906
H228	H	0.047002	-0.397168	0.563734
H229	H	0.167905	-0.504126	0.456671
O230	O	0.008019	-0.426226	0.534763
C231	C	-0.073245	-0.382903	0.578147
C232	C	-0.017762	-0.396512	0.564445
H233	H	-0.094104	-0.358868	0.602138
H234	H	-0.083341	-0.417705	0.599058
H235	H	-0.083363	-0.362032	0.543353
H236	H	-0.007604	-0.417370	0.599213
H237	H	-0.007695	-0.361692	0.543515
H238	H	0.338981	-0.510371	0.554246
O239	O	0.206882	-0.475012	0.485613
C240	C	0.283651	-0.471026	0.420535
C241	C	0.228169	-0.457427	0.434239
H242	H	0.300876	-0.456806	0.379000
H243	H	0.301002	-0.512558	0.434632
H244	H	0.290142	-0.453752	0.437837
H245	H	0.221634	-0.474669	0.416943
H246	H	0.210846	-0.415891	0.420151
O247	O	0.435986	-0.549246	0.524366
C248	C	0.430607	-0.629761	0.557536
C249	C	0.402401	-0.574706	0.549527
H250	H	0.403466	-0.650360	0.577870
H251	H	0.454635	-0.644229	0.580091
H252	H	0.454608	-0.635447	0.520539
H253	H	0.378374	-0.568978	0.586501
H254	H	0.378404	-0.560264	0.526950
H255	H	0.338923	-0.359792	0.496821
O256	O	0.435928	-0.385544	0.461903
C257	C	0.430490	-0.301425	0.432335
C258	C	0.402317	-0.337700	0.459180
H259	H	0.403328	-0.262736	0.430134
H260	H	0.454461	-0.302950	0.393751
H261	H	0.454545	-0.311743	0.453280
H262	H	0.378236	-0.327406	0.438276
H263	H	0.378377	-0.336168	0.497766
H264	H	0.160882	-0.219171	0.449698
H265	H	0.129813	-0.126117	0.418717
O266	O	0.177117	-0.535222	0.358444
C267	C	0.227376	-0.502944	0.275845
C268	C	0.177203	-0.493087	0.316222
H269	H	0.227465	-0.468881	0.241701
H270	H	0.234535	-0.534977	0.266607
H271	H	0.257286	-0.512263	0.289350
H272	H	0.147262	-0.483746	0.302749
H273	H	0.170086	-0.461067	0.325453
O274	O	0.083051	-0.223181	0.609623
C275	C	0.039740	-0.217792	0.690909
C276	C	0.053328	-0.189589	0.635431
H277	H	0.015699	-0.190646	0.711792
H278	H	0.074547	-0.241785	0.701008
H279	H	0.018886	-0.241829	0.700999
H280	H	0.074170	-0.165526	0.625302
H281	H	0.018503	-0.165627	0.625362
O282	O	-0.027644	-0.462325	0.070611
C283	C	-0.070951	-0.381028	0.075983
C284	C	-0.057343	-0.436507	0.104194
H285	H	-0.094956	-0.360138	0.103123
H286	H	-0.091816	-0.370889	0.051927
H287	H	-0.036121	-0.370987	0.052010
H288	H	-0.092148	-0.446588	0.128194
H289	H	-0.036459	-0.446616	0.128219
H290	H	0.053957	-0.126168	0.570702
H291	H	-0.057039	-0.501216	0.345698
O292	O	-0.061374	-0.496034	0.171700
C293	C	-0.070582	-0.466688	0.229622
C294	C	-0.038133	-0.503369	0.201420
H295	H	-0.051800	-0.472598	0.253650
H296	H	-0.107493	-0.472559	0.253613
H297	H	-0.076463	-0.427722	0.202452
H298	H	-0.032213	-0.542348	0.228555
H299	H	-0.001242	-0.497455	0.177422
H300	H	-0.026079	-0.470245	0.376824
H301	H	0.018765	-0.653217	0.421828
O302	O	0.054409	-0.627533	0.457528
C303	C	0.129866	-0.693930	0.464192
C304	C	0.097477	-0.657219	0.431698
H305	H	0.164698	-0.717934	0.443317
H306	H	0.108974	-0.717950	0.498970
H307	H	0.139915	-0.673055	0.474336
H308	H	0.087418	-0.678054	0.421517
H309	H	0.118386	-0.633199	0.396943
O310	O	0.061365	-0.789206	0.351272
C311	C	0.145488	-0.794709	0.321796
C312	C	0.109199	-0.822848	0.348531
H313	H	0.184171	-0.821897	0.319562
H314	H	0.135209	-0.770705	0.342777
H315	H	0.143949	-0.770688	0.283221
H316	H	0.110719	-0.846896	0.387106
H317	H	0.119490	-0.846821	0.327513
O318	O	-0.230873	-0.537040	0.299375
C319	C	-0.236159	-0.493676	0.218044
C320	C	-0.264416	-0.507279	0.273509
H321	H	-0.263266	-0.469604	0.197115
H322	H	-0.212160	-0.528478	0.207937
H323	H	-0.212125	-0.472847	0.208018
H324	H	-0.288477	-0.528096	0.283574
H325	H	-0.288383	-0.472460	0.283585
H326	H	-0.063498	-0.886058	0.443304
O327	O	0.094917	-0.890268	0.385076
C328	C	0.156891	-0.948249	0.422980
C329	C	0.101863	-0.919984	0.430872
H330	H	0.162524	-0.972288	0.459998
H331	H	0.177545	-0.921160	0.402686
H332	H	0.171342	-0.972248	0.400404
H333	H	0.087368	-0.895983	0.453459
H334	H	0.081243	-0.947099	0.451145
H335	H	-0.094449	-0.793002	0.412253
H336	H	-0.328125	-0.583847	0.490235
O337	O	-0.231130	-0.619575	0.464677
C338	C	-0.236673	-0.659306	0.549601
C339	C	-0.264788	-0.626861	0.512840
H340	H	-0.263873	-0.665216	0.588549
H341	H	-0.212670	-0.640551	0.543776
H342	H	-0.212656	-0.696204	0.543689
H343	H	-0.288831	-0.589958	0.518730
H344	H	-0.288760	-0.645655	0.518675
H345	H	-0.327887	-0.507903	0.338181
