data_functionalizedCrystal
_audit_creation_method	'MofGen! by Chris Wilmer'
_symmetry_space_group_name_H-M	'P1'
_symmetry_Int_Tables_number	1
_symmetry_cell_setting	triclinic
loop_
_symmetry_equiv_pos_as_xyz
  x,y,z
_cell_length_a	14.971486
_cell_length_b	10.654550
_cell_length_c	14.048226
_cell_angle_alpha	89.994756
_cell_angle_beta	89.998499
_cell_angle_gamma	84.049516
loop_
_atom_site_label
_atom_site_type_symbol
_atom_site_fract_x
_atom_site_fract_y
_atom_site_fract_z
O1	O	1.187838	0.163659	-0.079049
O2	O	0.927544	0.183257	-0.079074
O3	O	1.063675	-0.009345	-0.079057
O4	O	1.051706	0.356262	-0.079066
O5	O	1.063659	-0.009357	0.079264
O6	O	0.927527	0.183246	0.079247
O7	O	1.187821	0.163648	0.079273
Zn8	Zn	1.057672	0.173445	0.104397
Zn9	Zn	1.057693	0.173460	-0.104198
O10	O	1.051690	0.356250	0.079256
C11	C	0.894206	0.182375	0.000083
C12	C	0.794895	0.179749	0.000073
C13	C	1.062788	-0.056139	0.000102
C14	C	1.060159	-0.195555	0.000099
C15	C	0.738285	0.292898	0.000072
C16	C	0.644972	0.290422	0.000086
C17	C	0.608271	0.174797	0.000095
C18	C	0.664888	0.061639	0.000099
C19	C	0.758199	0.064116	0.000092
C20	C	0.470397	0.056485	0.000112
C21	C	0.377080	0.054007	0.000118
C22	C	0.357171	0.282791	0.000107
C23	C	0.450482	0.285268	0.000100
C24	C	0.507092	0.172110	0.000102
C25	C	1.140311	-0.275900	0.000109
C26	C	1.137835	-0.406894	0.000102
C27	C	0.975048	-0.377185	0.000078
C28	C	0.977525	-0.246193	0.000078
C29	C	1.234295	-0.293054	0.000128
C30	C	1.231819	-0.424048	0.000121
C31	C	1.221159	0.164530	0.000113
C32	C	1.320470	0.167156	0.000117
C33	C	1.052577	0.403044	0.000094
C34	C	1.055206	0.542460	0.000092
N35	N	1.057663	0.173434	0.246758
N36	N	1.057709	0.173461	-0.246559
C37	C	1.117962	0.088185	0.296583
C38	C	1.117968	0.088184	0.396241
C39	C	1.057679	0.173440	0.446071
C40	C	0.997374	0.258693	0.396238
C41	C	0.997365	0.258687	0.296583
C42	C	0.997400	0.258702	0.603953
C43	C	0.997411	0.258710	0.703615
C44	C	1.118003	0.088200	0.703611
C45	C	1.117993	0.088193	0.603955
C46	C	1.057690	0.173448	0.554129
H47	H	0.768160	0.387053	0.000064
O48	O	1.278020	-0.258521	-0.079006
C49	C	1.282186	-0.255328	-0.250454
C50	C	1.232573	-0.294479	-0.160918
H51	H	1.245474	-0.284408	-0.316702
H52	H	1.284184	-0.148655	-0.250535
H53	H	1.353679	-0.304018	-0.250403
H54	H	1.161059	-0.245877	-0.160910
H55	H	1.230649	-0.401164	-0.160871
O56	O	0.590110	0.400452	0.000042
C57	C	0.580211	0.627634	0.000085
C58	C	0.642444	0.503115	0.000110
H59	H	0.622497	0.710669	0.000160
H60	H	0.536037	0.632284	-0.066182
H61	H	0.536015	0.632125	0.066333
H62	H	0.686695	0.498541	-0.066093
H63	H	0.686557	0.498516	0.066420
O64	O	0.302312	0.392832	0.000070
C65	C	0.292413	0.620014	0.000114
C66	C	0.354646	0.495495	0.000139
H67	H	0.334699	0.703050	0.000190
H68	H	0.248239	0.624665	-0.066153
H69	H	0.248218	0.624505	0.066362
H70	H	0.398897	0.490922	-0.066064
H71	H	0.398759	0.490896	0.066449
O72	O	0.894760	-0.426319	-0.000107
C73	C	0.754859	-0.440931	-0.082123
C74	C	0.845765	-0.385231	-0.082044
H75	H	0.715213	-0.407712	-0.148352
H76	H	0.766803	-0.548361	-0.082186
H77	H	0.715236	-0.407884	-0.015841
H78	H	0.885435	-0.418181	-0.148315
H79	H	0.833758	-0.277807	-0.081931
O80	O	0.525483	-0.053352	-0.000015
C81	C	0.642350	-0.183349	-0.082078
C82	C	0.580032	-0.058907	-0.082034
H83	H	0.686455	-0.187893	-0.148394
H84	H	0.686600	-0.187933	-0.015870
H85	H	0.600075	-0.266398	-0.082028
H86	H	0.622236	0.024212	-0.082117
H87	H	0.535777	-0.054433	-0.148236
O88	O	1.269835	-0.251108	0.081823
C89	C	1.333860	-0.306435	0.235446
C90	C	1.293792	-0.354140	0.142897
H91	H	1.353223	-0.389708	0.284857
H92	H	1.396032	-0.257446	0.217990
H93	H	1.281920	-0.236807	0.272033
H94	H	1.345665	-0.423812	0.106264
H95	H	1.231602	-0.403054	0.160414
H96	H	0.912257	-0.180779	0.000056
H97	H	0.347201	-0.040145	0.000126
O98	O	1.273914	-0.474456	0.079203
C99	C	1.260711	-0.593765	0.223337
C100	C	1.212944	-0.536776	0.133806
H101	H	1.211433	-0.644141	0.267519
H102	H	1.319706	-0.664070	0.201329
H103	H	1.286348	-0.515182	0.267482
H104	H	1.187250	-0.615272	0.089621
H105	H	1.153991	-0.466440	0.155880
H106	H	1.167089	0.018778	0.563383
O107	O	1.265559	-0.478897	-0.081476
C108	C	1.237067	-0.603348	-0.219296
C109	C	1.198741	-0.541271	-0.126927
H110	H	1.183068	-0.653815	-0.256059
H111	H	1.259596	-0.527793	-0.268701
H112	H	1.296942	-0.674469	-0.201470
H113	H	1.138839	-0.470159	-0.144664
H114	H	1.176273	-0.616897	-0.077548
O115	O	1.176638	0.005340	0.444493
C116	C	1.296234	-0.163801	0.433972
C117	C	1.229846	-0.070031	0.379209
H118	H	1.339257	-0.224781	0.381213
H119	H	1.341308	-0.109521	0.480586
H120	H	1.257234	-0.226584	0.480671
H121	H	1.268773	-0.007225	0.332458
H122	H	1.184772	-0.124390	0.332655
O123	O	0.938945	0.341571	0.555445
C124	C	0.920959	0.513083	0.442956
C125	C	0.987250	0.419285	0.497816
H126	H	0.959988	0.575957	0.396366
H127	H	0.875951	0.458825	0.396247
H128	H	0.877854	0.573967	0.495704
H129	H	1.030415	0.358378	0.445137
H130	H	1.032197	0.473620	0.544539
O131	O	0.938715	0.341383	0.751985
C132	C	0.783644	0.414602	0.782471
C133	C	0.850019	0.320892	0.727647
H134	H	0.711919	0.398085	0.762799
H135	H	0.793940	0.399951	0.862266
H136	H	0.795943	0.515215	0.762886
H137	H	0.837761	0.220242	0.747152
H138	H	0.839708	0.335653	0.647866
H139	H	1.167059	0.018765	0.256018
H140	H	1.167104	0.018782	0.744185
H141	H	0.948281	0.328105	0.436816
O142	O	0.938883	0.341674	0.248221
C143	C	0.887775	0.559917	0.217753
C144	C	0.954076	0.466076	0.272562
H145	H	0.900023	0.660515	0.237427
H146	H	0.898122	0.545376	0.137956
H147	H	0.816046	0.543319	0.237349
H148	H	1.025830	0.482617	0.253046
H149	H	0.943651	0.480639	0.352346
H150	H	0.480361	0.379420	0.000084
H151	H	0.634998	-0.032505	0.000120
H152	H	0.804290	-0.028022	0.000092
