data_functionalizedCrystal
_audit_creation_method	'MofGen! by Chris Wilmer'
_symmetry_space_group_name_H-M	'P1'
_symmetry_Int_Tables_number	1
_symmetry_cell_setting	triclinic
loop_
_symmetry_equiv_pos_as_xyz
  x,y,z
_cell_length_a	23.532407
_cell_length_b	26.809956
_cell_length_c	23.532357
_cell_angle_alpha	90.001214
_cell_angle_beta	82.838485
_cell_angle_gamma	90.003435
loop_
_atom_site_label
_atom_site_type_symbol
_atom_site_fract_x
_atom_site_fract_y
_atom_site_fract_z
O1	O	0.755252	0.041423	0.069128
O2	O	0.589386	0.041439	0.079132
O3	O	0.677336	0.041420	-0.008804
O4	O	0.667303	0.041442	0.157064
O5	O	0.677319	-0.041539	-0.008790
O6	O	0.589370	-0.041520	0.079145
O7	O	0.755235	-0.041536	0.069142
Zn8	Zn	0.672300	-0.054700	0.074146
Zn9	Zn	0.672322	0.054603	0.074128
O10	O	0.667286	-0.041517	0.157077
C11	C	0.568162	-0.000039	0.078884
C12	C	0.504945	-0.000034	0.078118
N13	N	0.672289	-0.129296	0.074157
C14	C	0.105834	-0.000050	0.125353
C15	C	0.046434	-0.000053	0.124641
O16	O	0.009681	-0.000066	0.168428
N17	N	0.023817	-0.000059	0.072364
C18	C	0.060604	-0.000067	0.020794
O19	O	0.035912	-0.000073	-0.023737
C20	C	0.120003	-0.000067	0.021506
C21	C	0.142616	-0.000056	0.073787
C22	C	0.128448	-0.000040	0.177629
C23	C	0.187844	-0.000036	0.178341
C24	C	0.224626	-0.000042	0.126775
C25	C	0.202012	-0.000052	0.074498
C26	C	0.156788	-0.000079	-0.030063
C27	C	0.216191	-0.000080	-0.029346
C28	C	0.238804	-0.000069	0.022935
C29	C	0.298190	-0.000055	0.023644
N30	N	0.320807	-0.000049	0.075922
C31	C	0.284025	-0.000042	0.127487
C32	C	-0.064139	-0.000067	0.019303
C33	C	-0.123536	-0.000063	0.018590
C34	C	-0.137702	-0.000050	0.122437
C35	C	-0.078303	-0.000051	0.123149
C36	C	-0.041522	-0.000061	0.071580
C37	C	0.408761	-0.000033	0.128977
C38	C	0.468163	-0.000027	0.129684
C39	C	0.482324	-0.000043	0.025837
C40	C	0.422927	-0.000046	0.025130
C41	C	0.386147	-0.000043	0.076704
O42	O	0.334977	-0.000044	-0.020120
O43	O	0.308725	-0.000043	0.172011
C44	C	0.711261	-0.473930	0.035200
C45	C	0.711274	-0.682808	0.035191
O46	O	0.744386	-0.709818	0.002071
N47	N	0.672325	-0.708923	0.074115
C48	C	0.633367	-0.682815	0.113042
O49	O	0.600235	-0.709821	0.146146
C50	C	0.633351	-0.473939	0.113048
C51	C	0.672307	-0.447826	0.074125
C52	C	0.750213	-0.447817	-0.003721
C53	C	0.750211	-0.395601	-0.003716
C54	C	0.711257	-0.369497	0.035209
C55	C	0.672305	-0.395610	0.074129
C56	C	0.594391	-0.447832	0.151972
C57	C	0.594390	-0.395610	0.151969
C58	C	0.633345	-0.369497	0.113046
C59	C	0.633350	-0.317290	0.113059
N60	N	0.672299	-0.291175	0.074135
C61	C	0.711253	-0.317278	0.035210
C62	C	0.633379	-0.792479	0.113037
C63	C	0.633383	-0.844698	0.113037
C64	C	0.711290	-0.844686	0.035185
C65	C	0.711288	-0.792466	0.035188
C66	C	0.672328	-0.766364	0.074113
C67	C	0.711246	-0.207620	0.035223
C68	C	0.711243	-0.155400	0.035232
C69	C	0.633335	-0.155415	0.113082
C70	C	0.633340	-0.207632	0.113075
C71	C	0.672298	-0.233733	0.074140
O72	O	0.600251	-0.290247	0.146157
O73	O	0.744372	-0.290264	0.002103
C74	C	0.711262	-0.526146	0.035195
C75	C	0.672310	-0.552259	0.074116
C76	C	0.633356	-0.526155	0.113041
C77	C	0.672315	-0.604478	0.074115
C78	C	0.711268	-0.630582	0.035190
C79	C	0.750218	-0.604466	-0.003734
C80	C	0.750216	-0.552250	-0.003730
C81	C	0.594407	-0.552270	0.151965
C82	C	0.594413	-0.604487	0.151958
C83	C	0.633366	-0.630590	0.113033
C84	C	0.776459	-0.000057	0.069390
C85	C	0.839676	-0.000059	0.070156
C86	C	0.677076	-0.000061	-0.030013
C87	C	0.676322	-0.000065	-0.093232
N88	N	0.672337	0.129199	0.074112
C89	C	0.671594	0.045183	-0.485251
C90	C	0.670877	0.045186	-0.544650
O91	O	0.670494	0.083645	-0.575373
N92	N	0.670512	-0.000035	-0.574354
C93	C	0.670859	-0.045261	-0.544654
O94	O	0.670482	-0.083724	-0.575374
C95	C	0.671572	-0.045263	-0.485256
C96	C	0.671943	-0.000040	-0.455556
C97	C	0.671964	0.090403	-0.455550
C98	C	0.672682	0.090400	-0.396155
C99	C	0.673031	0.045177	-0.366460
C100	C	0.672661	-0.000043	-0.396160
C101	C	0.671915	-0.090489	-0.455557
C102	C	0.672627	-0.090487	-0.396154
C103	C	0.672998	-0.045264	-0.366454
C104	C	0.673727	-0.045269	-0.307070
N105	N	0.674092	-0.000048	-0.277366
C106	C	0.673744	0.045174	-0.307061
C107	C	0.669360	-0.045252	-0.669396
C108	C	0.668651	-0.045250	-0.728794
C109	C	0.668668	0.045196	-0.728786
C110	C	0.669381	0.045194	-0.669387
C111	C	0.669725	-0.000032	-0.639692
C112	C	0.675253	0.045164	-0.182327
C113	C	0.675973	0.045157	-0.122927
C114	C	0.675953	-0.045289	-0.122940
C115	C	0.675236	-0.045282	-0.182336
C116	C	0.674883	-0.000052	-0.212027
O117	O	0.674108	-0.083708	-0.276310
O118	O	0.674113	0.083631	-0.276333
C119	C	0.667545	-0.000035	0.178287
C120	C	0.668300	-0.000027	0.241506
H121	H	0.486571	-0.000018	0.172259
O122	O	0.373119	-0.000005	0.179128
C123	C	0.365353	-0.000012	0.282204
C124	C	0.405782	-0.000037	0.225452
H125	H	0.391745	-0.000048	0.319672
H126	H	0.337203	0.034715	0.284502
H127	H	0.337176	-0.034722	0.284450
H128	H	0.433996	0.034650	0.223168
H129	H	0.433894	-0.034787	0.223177
H130	H	0.742967	-0.134140	0.003537
O131	O	0.749105	-0.869993	-0.002708
C132	C	0.783019	-0.886001	-0.101913
C133	C	0.740178	-0.857298	-0.059061
H134	H	0.775808	-0.875756	-0.147483
H135	H	0.828603	-0.875724	-0.094778
H136	H	0.776333	-0.927805	-0.095194
H137	H	0.746811	-0.815488	-0.065754
H138	H	0.694609	-0.867617	-0.066206
O139	O	0.556622	-0.370199	0.189806
C140	C	0.544033	-0.311274	0.267682
C141	C	0.586864	-0.340009	0.224854
H142	H	0.568466	-0.286867	0.296038
H143	H	0.515734	-0.286794	0.243270
H144	H	0.516183	-0.338920	0.295473
H145	H	0.614751	-0.312399	0.197053
H146	H	0.615122	-0.364497	0.249302
H147	H	0.246136	-0.000089	-0.071341
H148	H	0.669642	-0.082083	-0.645223
H149	H	0.668383	0.082019	-0.752974
H150	H	0.601668	-0.865955	0.144737
O151	O	0.401052	-0.000072	-0.025705
C152	C	0.421379	-0.000051	-0.128632
C153	C	0.446223	-0.000029	-0.071102
H154	H	0.457887	-0.000006	-0.165350
H155	H	0.393948	-0.034781	-0.131597
H156	H	0.393902	0.034656	-0.131534
H157	H	0.473725	-0.034712	-0.068160
H158	H	0.473622	0.034724	-0.068161
O159	O	0.787940	-0.526870	-0.041640
C160	C	0.800387	-0.468063	-0.119638
C161	C	0.757626	-0.496737	-0.076676
H162	H	0.775895	-0.443702	-0.147985
H163	H	0.828749	-0.443543	-0.095339
H164	H	0.828179	-0.495749	-0.147424
H165	H	0.729796	-0.469087	-0.048880
H166	H	0.729304	-0.521265	-0.101011
H167	H	0.742969	-0.228866	0.003518
O168	O	0.518118	0.000016	-0.024214
C169	C	0.593394	0.042996	-0.083695
C170	C	0.552896	0.042991	-0.026987
H171	H	0.621514	0.077742	-0.085961
H172	H	0.621593	0.008301	-0.085951
H173	H	0.567022	0.042963	-0.121178
H174	H	0.579223	0.043041	0.010528
H175	H	0.524696	0.077683	-0.024782
H176	H	0.781930	-0.374343	-0.035412
O177	O	0.788080	-0.473225	-0.041456
C178	C	0.865969	-0.532135	-0.053977
C179	C	0.823100	-0.503407	-0.011180
H180	H	0.894302	-0.556536	-0.029515
H181	H	0.841591	-0.556621	-0.082304
H182	H	0.893777	-0.504485	-0.081801
H183	H	0.795280	-0.531022	0.016682
H184	H	0.847513	-0.478913	0.017107
H185	H	0.206249	-0.000026	0.220913
O186	O	0.671703	0.134304	-0.484464
C187	C	0.720283	0.186816	-0.558220
C188	C	0.720635	0.137071	-0.525535
H189	H	0.759846	0.189074	-0.591424
H190	H	0.680115	0.189099	-0.580632
H191	H	0.720641	0.219121	-0.526765
H192	H	0.720297	0.104737	-0.556951
H193	H	0.760799	0.134832	-0.503113
O194	O	0.092803	-0.000010	0.227777
C195	C	0.085042	-0.000017	0.330853
C196	C	0.125468	-0.000045	0.274099
H197	H	0.111435	-0.000056	0.368319
H198	H	0.056894	0.034711	0.333152
H199	H	0.056861	-0.034725	0.333100
H200	H	0.153685	0.034640	0.271814
H201	H	0.153577	-0.034796	0.271823
O202	O	0.749033	-0.767063	-0.002677
C203	C	0.761558	-0.708185	-0.080602
C204	C	0.718759	-0.736901	-0.037720
H205	H	0.737098	-0.683800	-0.108953
H206	H	0.789880	-0.683684	-0.056235
H207	H	0.789387	-0.735844	-0.108390
H208	H	0.690892	-0.709278	-0.009920
H209	H	0.690477	-0.761410	-0.062122
H210	H	0.601652	-0.771229	0.144736
O211	O	-0.056434	-0.000065	0.173985
C212	C	-0.076770	-0.000020	0.276911
C213	C	-0.101609	-0.000014	0.219378
H214	H	-0.113282	0.000032	0.313626
H215	H	-0.049342	-0.034747	0.279889
H216	H	-0.049291	0.034689	0.279806
H217	H	-0.129113	-0.034700	0.216444
H218	H	-0.129004	0.034736	0.216424
O219	O	0.595579	-0.233021	0.150943
C220	C	0.582986	-0.292003	0.228761
C221	C	0.625818	-0.263279	0.185920
H222	H	0.607417	-0.316482	0.257042
H223	H	0.555155	-0.264394	0.256623
H224	H	0.554669	-0.316426	0.204301
H225	H	0.654173	-0.238856	0.210334
H226	H	0.653609	-0.290915	0.158058
H227	H	0.674963	0.081996	-0.206495
H228	H	0.668358	-0.082076	-0.752972
H229	H	0.676276	0.081985	-0.098748
H230	H	-0.141942	-0.000064	-0.023982
H231	H	-0.167662	-0.000047	0.164425
H232	H	0.562670	-0.469086	0.183666
O233	O	0.595552	-0.130075	0.150969
C234	C	0.561565	-0.114111	0.250167
C235	C	0.604397	-0.142833	0.207327
H236	H	0.568693	-0.124423	0.295741
H237	H	0.568257	-0.072298	0.243527
H238	H	0.516002	-0.124373	0.242942
H239	H	0.649977	-0.132612	0.214526
H240	H	0.597655	-0.184638	0.213977
O241	O	-0.028492	-0.000047	-0.030848
C242	C	-0.020722	-0.000084	-0.133924
C243	C	-0.061153	-0.000095	-0.077173
H244	H	-0.047113	-0.000133	-0.171392
H245	H	0.007432	0.034643	-0.136233
H246	H	0.007451	-0.034794	-0.136157
H247	H	-0.089362	0.034591	-0.074902
H248	H	-0.089268	-0.034845	-0.074887
O249	O	0.787978	-0.629852	-0.041603
C250	C	0.800544	-0.688838	-0.119420
C251	C	0.757725	-0.660107	-0.076575
H252	H	0.776101	-0.713314	-0.147698
H253	H	0.828380	-0.661233	-0.147286
H254	H	0.828857	-0.713263	-0.094964
H255	H	0.729375	-0.635681	-0.100985
H256	H	0.729929	-0.687739	-0.048710
O257	O	0.556513	-0.629772	0.189793
C258	C	0.479256	-0.624257	0.267026
C259	C	0.522139	-0.595562	0.224206
H260	H	0.451461	-0.596611	0.294868
H261	H	0.450912	-0.648689	0.242606
H262	H	0.503680	-0.648720	0.295330
H263	H	0.497762	-0.571072	0.195891
H264	H	0.550483	-0.571162	0.248662
H265	H	0.562686	-0.531021	0.183662
H266	H	0.672982	0.127225	-0.371978
H267	H	0.138388	-0.000088	-0.072635
O268	O	0.669711	0.089168	-0.640623
C269	C	0.669688	0.178878	-0.646905
C270	C	0.669303	0.129112	-0.679545
H271	H	0.669371	0.211186	-0.678360
H272	H	0.630150	0.181180	-0.613672
H273	H	0.709875	0.181110	-0.624517
H274	H	0.629144	0.126847	-0.701967
H275	H	0.708868	0.126831	-0.712745
O276	O	0.676382	-0.089232	-0.094131
C277	C	0.725879	-0.166570	-0.082709
C278	C	0.725484	-0.116817	-0.115372
H279	H	0.765569	-0.188892	-0.099878
H280	H	0.726486	-0.158835	-0.035151
H281	H	0.685847	-0.188833	-0.088945
H282	H	0.765509	-0.094529	-0.109184
H283	H	0.724848	-0.124587	-0.162918
O284	O	0.671527	-0.134464	-0.484306
C285	C	0.671603	-0.224174	-0.478022
C286	C	0.672032	-0.174405	-0.445393
H287	H	0.672024	-0.256479	-0.446577
H288	H	0.631395	-0.226464	-0.500370
H289	H	0.711118	-0.226421	-0.511288
H290	H	0.632544	-0.172124	-0.412100
H291	H	0.712266	-0.172136	-0.423085
H292	H	0.672899	-0.127317	-0.371978
H293	H	0.674939	-0.082107	-0.206520
