data_functionalizedCrystal
_audit_creation_method	'MofGen! by Chris Wilmer'
_symmetry_space_group_name_H-M	'P1'
_symmetry_Int_Tables_number	1
_symmetry_cell_setting	triclinic
loop_
_symmetry_equiv_pos_as_xyz
  x,y,z
_cell_length_a	14.908780
_cell_length_b	14.908520
_cell_length_c	14.908308
_cell_angle_alpha	83.639235
_cell_angle_beta	90.212689
_cell_angle_gamma	96.789949
loop_
_atom_site_label
_atom_site_type_symbol
_atom_site_fract_x
_atom_site_fract_y
_atom_site_fract_z
Zn1	Zn	-1.325975	0.317687	-0.605068
Zn2	Zn	-1.325873	0.460338	-0.462433
Zn3	Zn	-1.184349	0.316700	-0.445982
Zn4	Zn	-1.165840	0.477723	-0.604991
O5	O	-1.250509	0.393112	-0.529618
O6	O	-1.452207	0.329747	-0.593064
O7	O	-1.314802	0.433595	-0.334011
O8	O	-1.210925	0.189742	-0.460232
O9	O	-1.452132	0.434552	-0.488270
O10	O	-1.314977	0.190467	-0.577112
O11	O	-1.210825	0.328065	-0.321925
O12	O	-1.055648	0.344922	-0.460158
O13	O	-1.179380	0.464183	-0.731241
O14	O	-1.042050	0.463226	-0.576982
O15	O	-1.297030	0.346605	-0.731297
O16	O	-1.296855	0.589733	-0.488196
O17	O	-1.179280	0.602506	-0.592933
C18	C	-1.016115	0.405854	-0.516777
C19	C	-0.915838	0.411328	-0.511306
C20	C	-0.727462	0.312652	-0.610332
C21	C	-0.633242	0.317792	-0.605195
C22	C	-0.633178	0.426745	-0.495889
C23	C	-0.727397	0.421604	-0.501027
C24	C	-0.774536	0.364557	-0.558251
C25	C	-0.868757	0.359422	-0.563393
C26	C	-0.868691	0.468369	-0.454083
C27	C	-0.774472	0.473509	-0.448946
C28	C	-1.236072	0.629072	-0.542363
C29	C	-1.229976	0.730014	-0.547849
C30	C	-1.236152	0.407443	-0.764917
C31	C	-1.230033	0.413551	-0.865187
C32	C	-0.485819	0.380313	-0.542503
C33	C	-0.586097	0.374838	-0.547976
C34	C	-1.265027	0.156231	-0.516846
C35	C	-1.271213	0.055286	-0.511403
C36	C	-1.341065	0.906332	-0.449196
C37	C	-1.335341	1.001176	-0.454348
C38	C	-1.212808	1.014546	-0.563311
C39	C	-1.218532	0.919703	-0.558158
C40	C	-1.282662	0.865599	-0.501098
C41	C	-1.288381	0.770753	-0.495941
C42	C	-1.165853	0.784126	-0.604908
C43	C	-1.160129	0.878969	-0.610060
C44	C	-1.341044	0.302572	-1.053664
C45	C	-1.335299	0.308307	-1.147877
C46	C	-1.212793	0.430751	-1.147826
C47	C	-1.218538	0.425016	-1.053613
C48	C	-1.282667	0.360925	-1.006536
C49	C	-1.288417	0.355195	-0.912322
C50	C	-1.165907	0.477634	-0.912273
C51	C	-1.160161	0.483369	-1.006485
C52	C	-1.264867	0.378768	-0.295235
C53	C	-1.271176	0.372395	-0.194961
H54	H	-0.594918	0.275523	-0.647602
O55	O	-1.109146	0.534412	-0.866633
C56	C	-1.051297	0.592187	-0.928390
H57	H	-1.083962	0.597413	-0.997741
H58	H	-0.984209	0.563261	-0.932865
C59	C	-0.994489	0.680895	-0.810946
C60	C	-1.034611	0.687320	-0.896122
H61	H	-0.984192	0.739576	-0.791041
H62	H	-1.033460	0.641969	-0.769338
H63	H	-0.938586	0.656787	-0.814686
H64	H	-1.090518	0.711417	-0.892379
H65	H	-0.995649	0.726252	-0.937729
O66	O	-1.150375	0.492908	-1.193507
C67	C	-1.063085	0.476560	-1.164465
H68	H	-1.064559	0.402679	-1.134398
H69	H	-1.039859	0.523207	-1.111115
C70	C	-0.995306	0.586234	-1.282353
C71	C	-0.997115	0.495490	-1.245431
H72	H	-0.954611	0.597914	-1.332295
H73	H	-1.054115	0.597251	-1.301917
H74	H	-0.975953	0.625095	-1.237886
H75	H	-1.016478	0.456630	-1.289894
H76	H	-0.938307	0.484467	-1.225876
H77	H	-0.907136	0.312971	-0.609989
H78	H	-0.736079	0.519953	-0.402352
H79	H	-1.340597	0.726702	-0.449477
H80	H	-0.907028	0.510641	-0.411682
O81	O	-1.403428	0.853905	-0.393747
C82	C	-1.453729	0.910196	-0.349016
H83	H	-1.450496	0.979869	-0.389811
H84	H	-1.424312	0.917960	-0.279222
C85	C	-1.556754	0.781506	-0.289222
C86	C	-1.552788	0.867078	-0.339331
H87	H	-1.617857	0.754907	-0.283244
H88	H	-1.522863	0.743580	-0.319355
H89	H	-1.532234	0.787987	-0.231066
H90	H	-1.577297	0.860594	-0.397489
H91	H	-1.586685	0.905001	-0.309207
H92	H	-1.382900	1.034337	-0.412086
O93	O	-0.587323	0.482256	-0.440434
C94	C	-0.526092	0.547066	-0.491897
H95	H	-0.549820	0.555570	-0.564796
H96	H	-0.456215	0.523065	-0.489642
C97	C	-0.492406	0.628349	-0.363149
C98	C	-0.521553	0.638800	-0.452683
H99	H	-0.489601	0.684934	-0.338959
H100	H	-0.533655	0.584684	-0.328476
H101	H	-0.434177	0.608345	-0.361282
H102	H	-0.579784	0.658792	-0.454548
H103	H	-0.480313	0.682470	-0.487356
O104	O	-1.097992	0.545715	-1.052274
C105	C	-1.142440	0.604877	-1.112766
H106	H	-1.214883	0.604890	-1.088569
H107	H	-1.142910	0.580972	-1.182822
C108	C	-1.003524	0.701761	-1.146617
C109	C	-1.092498	0.701783	-1.116893
H110	H	-0.972716	0.761537	-1.149167
H111	H	-0.973577	0.661901	-1.105865
H112	H	-1.003929	0.681836	-1.204995
H113	H	-1.092092	0.721697	-1.058513
H114	H	-1.122444	0.741648	-1.157636
H115	H	-1.393265	0.250391	-1.015333
O116	O	-1.150544	1.067244	-0.618660
C117	C	-1.158038	1.159689	-0.612095
H118	H	-1.191113	1.166786	-0.544827
H119	H	-1.201148	1.187187	-0.669734
C120	C	-1.022688	1.205221	-0.700548
C121	C	-1.063305	1.213939	-0.617925
H122	H	-0.964253	1.238687	-0.704148
H123	H	-1.017640	1.142940	-0.704974
H124	H	-1.058622	1.228135	-0.748572
H125	H	-1.027377	1.191015	-0.569903
H126	H	-1.068344	1.276218	-0.613491
H127	H	-1.118295	0.750950	-0.647168
H128	H	-1.107919	0.923033	-0.656520
H129	H	-0.765842	0.266205	-0.656931
H130	H	-1.340635	0.303010	-0.873993
H131	H	-1.382833	0.260788	-1.186244
