data_functionalizedCrystal
_audit_creation_method	'MofGen! by Chris Wilmer'
_symmetry_space_group_name_H-M	'P1'
_symmetry_Int_Tables_number	1
_symmetry_cell_setting	triclinic
loop_
_symmetry_equiv_pos_as_xyz
  x,y,z
_cell_length_a	16.120530
_cell_length_b	16.120484
_cell_length_c	21.295411
_cell_angle_alpha	87.126946
_cell_angle_beta	92.913216
_cell_angle_gamma	90.167327
loop_
_atom_site_label
_atom_site_type_symbol
_atom_site_fract_x
_atom_site_fract_y
_atom_site_fract_z
Zn1	Zn	-1.254439	0.395645	-0.419035
Zn2	Zn	-0.921106	0.728979	-0.085701
Zn3	Zn	-0.587772	1.062312	0.247632
Zn4	Zn	-1.247290	0.534696	-0.318814
Zn5	Zn	-0.913957	0.868029	0.014519
Zn6	Zn	-0.580624	1.201363	0.347853
Zn7	Zn	-1.115388	0.388602	-0.308193
Zn8	Zn	-0.782054	0.721936	0.025140
Zn9	Zn	-0.448721	1.055269	0.358474
Zn10	Zn	-1.108291	0.527598	-0.418459
Zn11	Zn	-0.774958	0.860932	-0.085126
Zn12	Zn	-0.441624	1.194265	0.248208
O13	O	-1.181352	0.461636	-0.366125
O14	O	-0.848019	0.794969	-0.032792
O15	O	-0.514685	1.128302	0.300541
O16	O	-1.369856	0.420009	-0.410426
O17	O	-1.036522	0.753342	-0.077093
O18	O	-0.703189	1.086675	0.256240
O19	O	-1.229771	0.515339	-0.229316
O20	O	-0.896438	0.848672	0.104018
O21	O	-0.563105	1.182006	0.437351
O22	O	-1.139795	0.273173	-0.318693
O23	O	-0.806461	0.606506	0.014641
O24	O	-0.473128	0.939840	0.347974
O25	O	-1.364604	0.522168	-0.336794
O26	O	-1.031270	0.855502	-0.003461
O27	O	-0.697937	1.188835	0.329872
O28	O	-1.241955	0.278348	-0.400128
O29	O	-0.908622	0.611681	-0.066794
O30	O	-0.575288	0.945014	0.266539
O31	O	-1.132863	0.408005	-0.221513
O32	O	-0.799530	0.741338	0.111821
O33	O	-0.466196	1.074671	0.445154
O34	O	-0.998081	0.401123	-0.318134
O35	O	-0.664748	0.734456	0.015199
O36	O	-0.331415	1.067789	0.348532
O37	O	-1.127700	0.510072	-0.506625
O38	O	-0.794366	0.843405	-0.173291
O39	O	-0.461033	1.176739	0.160042
O40	O	-0.992867	0.503242	-0.399146
O41	O	-0.659534	0.836576	-0.065813
O42	O	-0.326201	1.169909	0.267521
O43	O	-1.235074	0.413127	-0.507048
O44	O	-0.901741	0.746460	-0.173714
O45	O	-0.568407	1.079793	0.159619
O46	O	-1.222890	0.650118	-0.336236
O47	O	-0.889557	0.983451	-0.002903
O48	O	-0.556224	1.316785	0.330431
O49	O	-1.120768	0.644904	-0.409445
O50	O	-0.787435	0.978237	-0.076111
O51	O	-0.454101	1.311570	0.257222
C52	C	-0.965302	0.450649	-0.357425
C53	C	-0.631969	0.783982	-0.024092
C54	C	-0.298635	1.117315	0.309241
C55	C	-0.872874	0.445968	-0.353719
C56	C	-0.539541	0.779302	-0.020386
C57	C	-0.206207	1.112635	0.312947
C58	C	-1.170306	0.677684	-0.373945
C59	C	-0.836973	1.011017	-0.040612
C60	C	-0.503639	1.344350	0.292722
C61	C	-1.165657	0.770114	-0.377314
C62	C	-0.832323	1.103447	-0.043981
C63	C	-0.498990	1.436781	0.289352
C64	C	-1.181393	0.461593	-0.530315
C65	C	-0.848059	0.794926	-0.196982
C66	C	-0.514726	1.128260	0.136351
C67	C	-1.181410	0.461575	-0.600284
C68	C	-0.848077	0.794908	-0.266950
C69	C	-0.514743	1.128242	0.066383
C70	C	-1.398246	0.472666	-0.374859
C71	C	-1.064912	0.805999	-0.041526
C72	C	-0.731579	1.139333	0.291807
C73	C	-1.490673	0.477366	-0.378581
C74	C	-1.157339	0.810700	-0.045248
C75	C	-0.824006	1.144033	0.288085
C76	C	-0.703647	0.437404	-0.346958
C77	C	-0.370314	0.770738	-0.013624
C78	C	-0.036981	1.104071	0.319709
C79	C	-0.659894	0.485928	-0.385341
C80	C	-0.326561	0.819261	-0.052008
C81	C	0.006773	1.152595	0.281326
C82	C	-0.565731	0.481163	-0.381579
C83	C	-0.232397	0.814496	-0.048245
C84	C	0.100936	1.147830	0.285088
C85	C	-0.797819	0.442168	-0.350719
C86	C	-0.464486	0.775502	-0.017386
C87	C	-0.131153	1.108835	0.315948
C88	C	-1.192464	0.244745	-0.358290
C89	C	-0.859131	0.578078	-0.024956
C90	C	-0.525797	0.911412	0.308377
C91	C	-1.197199	0.152319	-0.354951
C92	C	-0.863866	0.485652	-0.021617
C93	C	-0.530532	0.818986	0.311716
C94	C	-1.157173	0.939345	-0.383479
C95	C	-0.823839	1.272679	-0.050146
C96	C	-0.490506	1.606012	0.283188
C97	C	-1.205680	0.983093	-0.348788
C98	C	-0.872347	1.316426	-0.015454
C99	C	-0.539014	1.649759	0.317879
C100	C	-1.200960	1.077259	-0.352218
C101	C	-0.867627	1.410592	-0.018884
C102	C	-0.534293	1.743926	0.314449
C103	C	-1.161892	0.845171	-0.380050
C104	C	-0.828559	1.178504	-0.046716
C105	C	-0.495225	1.511837	0.286617
C106	C	-1.231972	0.517296	-1.103803
C107	C	-0.898638	0.850630	-0.770469
C108	C	-0.565305	1.183963	-0.437136
C109	C	-1.231955	0.517322	-1.038061
C110	C	-0.898622	0.850656	-0.704727
C111	C	-0.565289	1.183989	-0.371394
C112	C	-1.181495	0.461449	-1.001122
C113	C	-0.848162	0.794783	-0.667788
C114	C	-0.514828	1.128116	-0.334455
C115	C	-1.131032	0.405561	-1.029930
C116	C	-0.797698	0.738894	-0.696597
C117	C	-0.464365	1.072228	-0.363263
C118	C	-1.131043	0.405542	-1.095671
C119	C	-0.797710	0.738876	-0.762338
C120	C	-0.464377	1.072209	-0.429004
N121	N	-1.178827	0.388366	-0.895014
N122	N	-0.845493	0.721700	-0.561681
N123	N	-0.512160	1.055033	-0.228348
N124	N	-1.178820	0.388387	-0.832564
N125	N	-0.845487	0.721720	-0.499230
N126	N	-0.512154	1.055053	-0.165897
C127	C	-1.181456	0.461504	-0.803047
C128	C	-0.848122	0.794837	-0.469714
C129	C	-0.514789	1.128170	-0.136381
N130	N	-1.184114	0.534602	-0.838342
N131	N	-0.850780	0.867935	-0.505009
N132	N	-0.517447	1.201269	-0.171675
N133	N	-1.184124	0.534581	-0.900799
N134	N	-0.850791	0.867914	-0.567466
N135	N	-0.517458	1.201247	-0.234132
C136	C	-1.181476	0.461464	-0.929836
C137	C	-0.848143	0.794797	-0.596503
C138	C	-0.514810	1.128131	-0.263169
C139	C	-1.231894	0.517421	-0.702962
C140	C	-0.898561	0.850754	-0.369628
C141	C	-0.565227	1.184087	-0.036295
C142	C	-1.231872	0.517447	-0.637218
C143	C	-0.898538	0.850781	-0.303885
C144	C	-0.565205	1.184114	0.029449
C145	C	-1.130953	0.405679	-0.629088
C146	C	-0.797619	0.739012	-0.295755
C147	C	-0.464286	1.072346	0.037578
C148	C	-1.130970	0.405659	-0.694831
C149	C	-0.797637	0.738993	-0.361498
C150	C	-0.464304	1.072326	-0.028164
C151	C	-1.181445	0.461529	-0.731764
C152	C	-0.848112	0.794862	-0.398430
C153	C	-0.514779	1.128196	-0.065097
C154	C	-1.181363	0.461620	-0.202573
C155	C	-0.848029	0.794954	0.130760
C156	C	-0.514696	1.128287	0.464093
C157	C	-1.181518	0.461412	-0.132604
C158	C	-0.848185	0.794745	0.200730
C159	C	-0.514852	1.128079	0.534063
H160	H	-0.670389	0.392287	-0.311274
H161	H	-0.337055	0.725620	0.022060
H162	H	-0.003722	1.058954	0.355393
O163	O	-1.286291	0.577731	-0.606155
O164	O	-0.952958	0.911065	-0.272821
O165	O	-0.619624	1.244398	0.060512
H166	H	-1.277796	0.568368	-0.554235
H167	H	-0.944463	0.901701	-0.220902
H168	H	-0.611130	1.235034	0.112431
O169	O	-1.097463	0.983412	-0.426222
O170	O	-0.764130	1.316746	-0.092889
O171	O	-0.430796	1.650079	0.240445
H172	H	-1.112495	0.967481	-0.475617
H173	H	-0.779161	1.300815	-0.142284
H174	H	-0.445828	1.634148	0.191049
H175	H	-1.273053	0.562821	-1.014606
H176	H	-0.939720	0.896154	-0.681273
H177	H	-0.606386	1.229488	-0.347940
O178	O	-1.076613	0.345290	-0.990093
O179	O	-0.743280	0.678623	-0.656760
O180	O	-0.409947	1.011956	-0.323426
H181	H	-1.032400	0.380361	-0.959774
H182	H	-0.699067	0.713694	-0.626440
H183	H	-0.365734	1.047028	-0.293107
H184	H	-1.273070	0.562792	-1.133870
H185	H	-0.939737	0.896126	-0.800536
H186	H	-0.606403	1.229459	-0.467203
O187	O	-0.703946	0.545698	-0.432613
O188	O	-0.370613	0.879031	-0.099280
O189	O	-0.037280	1.212365	0.234054
H190	H	-0.683989	0.610116	-0.423447
H191	H	-0.350655	0.943449	-0.090114
H192	H	-0.017322	1.276783	0.243219
H193	H	-1.250754	0.949825	-0.316511
H194	H	-0.917420	1.283158	0.016822
H195	H	-0.584087	1.616491	0.350156
H196	H	-1.089957	0.360033	-1.119120
H197	H	-0.756624	0.693366	-0.785786
H198	H	-0.423291	1.026699	-0.452453
H199	H	-1.272992	0.562915	-0.733034
H200	H	-0.939658	0.896248	-0.399701
H201	H	-0.606325	1.229582	-0.066367
O202	O	-1.076527	0.345411	-0.589258
O203	O	-0.743194	0.678744	-0.255925
O204	O	-0.409860	1.012078	0.077409
H205	H	-1.084998	0.354808	-0.538704
H206	H	-0.751665	0.688141	-0.205371
H207	H	-0.418331	1.021475	0.127962
H208	H	-1.089889	0.360149	-0.718280
H209	H	-0.756555	0.693483	-0.384947
H210	H	-0.423222	1.026816	-0.051614
