data_functionalizedCrystal
_audit_creation_method	'MofGen! by Chris Wilmer'
_symmetry_space_group_name_H-M	'P1'
_symmetry_Int_Tables_number	1
_symmetry_cell_setting	triclinic
loop_
_symmetry_equiv_pos_as_xyz
  x,y,z
_cell_length_a	12.594517
_cell_length_b	12.594516
_cell_length_c	17.077396
_cell_angle_alpha	89.976855
_cell_angle_beta	89.979204
_cell_angle_gamma	90.015485
loop_
_atom_site_label
_atom_site_type_symbol
_atom_site_fract_x
_atom_site_fract_y
_atom_site_fract_z
Zn1	Zn	1.627252	-0.423758	-0.443899
Zn2	Zn	1.960585	-0.090425	-0.110566
Zn3	Zn	2.293919	0.242908	0.222768
Zn4	Zn	1.627147	-0.601759	-0.312645
Zn5	Zn	1.960481	-0.268426	0.020688
Zn6	Zn	2.293814	0.064908	0.354021
Zn7	Zn	1.449260	-0.423793	-0.312644
Zn8	Zn	1.782594	-0.090460	0.020689
Zn9	Zn	2.115927	0.242874	0.354023
Zn10	Zn	1.449238	-0.601693	-0.443866
Zn11	Zn	1.782571	-0.268360	-0.110532
Zn12	Zn	2.115905	0.064973	0.222801
O13	O	1.538224	-0.512751	-0.378263
O14	O	1.871558	-0.179418	-0.044930
O15	O	2.204891	0.153916	0.288403
O16	O	1.776184	-0.447383	-0.426502
O17	O	2.109517	-0.114050	-0.093169
O18	O	2.442851	0.219283	0.240164
O19	O	1.603516	-0.578193	-0.202798
O20	O	1.936849	-0.244860	0.130535
O21	O	2.270182	0.088473	0.463869
O22	O	1.472924	-0.274843	-0.330069
O23	O	1.806258	0.058491	0.003265
O24	O	2.139591	0.391824	0.336598
O25	O	1.776107	-0.578160	-0.330071
O26	O	2.109440	-0.244826	0.003263
O27	O	2.442774	0.088507	0.336596
O28	O	1.603694	-0.274817	-0.426501
O29	O	1.937028	0.058516	-0.093168
O30	O	2.270361	0.391850	0.240166
O31	O	1.472823	-0.447443	-0.202797
O32	O	1.806156	-0.114109	0.130536
O33	O	2.139490	0.219224	0.463870
O34	O	1.300312	-0.447379	-0.330036
O35	O	1.633645	-0.114046	0.003297
O36	O	1.966978	0.219288	0.336630
O37	O	1.472887	-0.578048	-0.553717
O38	O	1.806220	-0.244714	-0.220384
O39	O	2.139553	0.088619	0.112950
O40	O	1.300295	-0.578082	-0.426445
O41	O	1.633629	-0.244748	-0.093111
O42	O	1.966962	0.088585	0.240222
O43	O	1.603673	-0.447320	-0.553742
O44	O	1.937006	-0.113986	-0.220408
O45	O	2.270339	0.219347	0.112925
O46	O	1.603494	-0.750696	-0.330039
O47	O	1.936828	-0.417363	0.003295
O48	O	2.270161	-0.084029	0.336628
O49	O	1.472785	-0.750648	-0.426446
O50	O	1.806118	-0.417314	-0.093112
O51	O	2.139452	-0.083981	0.240221
C52	C	1.261684	-0.512728	-0.378237
C53	C	1.595017	-0.179394	-0.044904
C54	C	1.928350	0.153939	0.288429
C55	C	1.143378	-0.512744	-0.378245
C56	C	1.476711	-0.179410	-0.044911
C57	C	1.810045	0.153923	0.288422
C58	C	1.538155	-0.789292	-0.378256
C59	C	1.871488	-0.455959	-0.044922
C60	C	2.204821	-0.122625	0.288411
C61	C	1.538222	-0.907597	-0.378279
C62	C	1.871556	-0.574264	-0.044945
C63	C	2.204889	-0.240931	0.288388
C64	C	1.003339	-0.441576	-0.325928
C65	C	1.336673	-0.108243	0.007405
C66	C	1.670006	0.225090	0.340739
C67	C	1.074196	-0.415648	-0.397557
C68	C	1.407529	-0.082315	-0.064224
C69	C	1.740862	0.251018	0.269109
C70	C	1.074093	-0.538624	-0.306623
C71	C	1.407427	-0.205290	0.026710
C72	C	1.740760	0.128043	0.360044
C73	C	1.003449	-0.486807	-0.449969
C74	C	1.336782	-0.153474	-0.116636
C75	C	1.670115	0.179860	0.216697
C76	C	1.003340	-0.609828	-0.358987
C77	C	1.336674	-0.276494	-0.025653
C78	C	1.670007	0.056839	0.307680
C79	C	1.074165	-0.583937	-0.430665
C80	C	1.407498	-0.250603	-0.097332
C81	C	1.740831	0.082730	0.236001
C82	C	1.467123	-0.976863	-0.430678
C83	C	1.800456	-0.643530	-0.097344
C84	C	2.133789	-0.310196	0.235989
C85	C	1.441192	-1.047723	-0.359050
C86	C	1.774525	-0.714389	-0.025716
C87	C	2.107858	-0.381056	0.307617
C88	C	1.564250	-1.047536	-0.449919
C89	C	1.897584	-0.714203	-0.116586
C90	C	2.230917	-0.380870	0.216747
C91	C	1.512240	-0.976899	-0.306613
C92	C	1.845573	-0.643566	0.026721
C93	C	2.178907	-0.310232	0.360054
C94	C	1.635344	-0.976706	-0.397531
C95	C	1.968677	-0.643373	-0.064197
C96	C	2.302010	-0.310040	0.269136
C97	C	1.609450	-1.047534	-0.325853
C98	C	1.942783	-0.714201	0.007480
C99	C	2.276116	-0.380868	0.340814
C100	C	1.815845	-0.512775	-0.378290
C101	C	2.149179	-0.179442	-0.044957
C102	C	2.482512	0.153892	0.288376
C103	C	1.934151	-0.512785	-0.378302
C104	C	2.267484	-0.179452	-0.044968
C105	C	2.600817	0.153882	0.288365
C106	C	1.538289	-0.512672	-0.583008
C107	C	1.871622	-0.179339	-0.249674
C108	C	2.204956	0.153994	0.083659
C109	C	1.538316	-0.512639	-0.670258
C110	C	1.871650	-0.179306	-0.336924
C111	C	2.204983	0.154028	-0.003591
C112	C	1.538324	-0.235130	-0.378288
C113	C	1.871657	0.098203	-0.044955
C114	C	2.204990	0.431537	0.288378
C115	C	1.538366	-0.116825	-0.378299
C116	C	1.871699	0.216509	-0.044966
C117	C	2.205032	0.549842	0.288368
C118	C	1.606419	-0.444563	-0.711262
C119	C	1.939752	-0.111230	-0.377928
C120	C	2.273086	0.222103	-0.044595
C121	C	1.606432	-0.444528	-0.793242
C122	C	1.939765	-0.111194	-0.459909
C123	C	2.273099	0.222139	-0.126576
C124	C	1.538347	-0.512574	-0.834217
C125	C	1.871680	-0.179241	-0.500884
C126	C	2.205013	0.154092	-0.167551
C127	C	1.470236	-0.580653	-0.793207
C128	C	1.803570	-0.247320	-0.459874
C129	C	2.136903	0.086013	-0.126541
C130	C	1.470219	-0.580682	-0.711228
C131	C	1.803552	-0.247349	-0.377895
C132	C	2.136886	0.085984	-0.044562
C133	C	1.470279	-0.580589	-0.964077
C134	C	1.803612	-0.247256	-0.630744
C135	C	2.136946	0.086077	-0.297411
C136	C	1.470298	-0.580562	-1.046062
C137	C	1.803631	-0.247228	-0.712729
C138	C	2.136964	0.086105	-0.379395
C139	C	1.606492	-0.444435	-1.046091
C140	C	1.939825	-0.111101	-0.712758
C141	C	2.273159	0.222232	-0.379425
C142	C	1.606475	-0.444464	-0.964112
C143	C	1.939808	-0.111130	-0.630779
C144	C	2.273141	0.222203	-0.297446
C145	C	1.538366	-0.512544	-0.923108
C146	C	1.871699	-0.179211	-0.589775
C147	C	2.205032	0.154122	-0.256442
C148	C	1.538222	-0.512752	-0.174316
C149	C	1.871555	-0.179419	0.159018
C150	C	2.204888	0.153914	0.492351
C151	C	1.538400	-0.512486	-0.087066
C152	C	1.871734	-0.179152	0.246267
C153	C	2.205067	0.154181	0.579600
H154	H	0.972245	-0.381330	-0.281716
H155	H	1.305578	-0.047996	0.051617
H156	H	1.638912	0.285337	0.384950
H157	H	1.661947	-0.388999	-1.079481
H158	H	1.995281	-0.055666	-0.746148
H159	H	2.328614	0.277668	-0.412814
H160	H	1.359125	-1.078940	-0.342783
H161	H	1.692458	-0.745607	-0.009449
H162	H	2.025791	-0.412273	0.323884
H163	H	1.661922	-0.389060	-0.930753
H164	H	1.995255	-0.055727	-0.597420
H165	H	2.328589	0.277606	-0.264086
H166	H	1.105300	-0.333560	-0.413884
H167	H	1.438633	-0.000226	-0.080551
H168	H	1.771966	0.333107	0.252782
H169	H	0.972546	-0.464839	-0.510581
H170	H	1.305879	-0.131506	-0.177247
H171	H	1.639212	0.201827	0.156086
H172	H	0.972195	-0.691889	-0.342648
H173	H	1.305528	-0.358556	-0.009314
H174	H	1.638861	-0.025222	0.324019
H175	H	1.661891	-0.389096	-0.826624
H176	H	1.995224	-0.055763	-0.493291
H177	H	2.328557	0.277570	-0.159958
H178	H	1.105128	-0.560495	-0.246029
H179	H	1.438462	-0.227162	0.087304
H180	H	1.771795	0.106171	0.420638
H181	H	1.414854	-0.635969	-1.079422
H182	H	1.748187	-0.302635	-0.746088
H183	H	2.081521	0.030698	-0.412755
H184	H	1.406889	-0.945831	-0.474925
H185	H	1.740222	-0.612498	-0.141592
H186	H	2.073555	-0.279164	0.191741
H187	H	1.414801	-0.636011	-0.930694
H188	H	1.748134	-0.302678	-0.597361
H189	H	2.081467	0.030656	-0.264028
H190	H	1.490188	-0.945999	-0.246019
H191	H	1.823522	-0.612666	0.087315
H192	H	2.156855	-0.279332	0.420648
H193	H	1.661866	-0.389155	-0.677906
H194	H	1.995199	-0.055822	-0.344573
H195	H	2.328532	0.277512	-0.011239
H196	H	1.414796	-0.636054	-0.826576
H197	H	1.748129	-0.302721	-0.493242
H198	H	2.081463	0.030613	-0.159909
H199	H	1.414752	-0.636106	-0.677844
H200	H	1.748085	-0.302773	-0.344510
H201	H	2.081418	0.030561	-0.011177
H202	H	1.586207	-1.078565	-0.510497
H203	H	1.919540	-0.745231	-0.177163
H204	H	2.252873	-0.411898	0.156170
H205	H	1.105064	-0.644138	-0.474983
H206	H	1.438398	-0.310805	-0.141649
H207	H	1.771731	0.022528	0.191684
H208	H	1.717392	-0.945492	-0.413832
H209	H	2.050725	-0.612159	-0.080498
H210	H	2.384059	-0.278825	0.252835
H211	H	1.669638	-1.078369	-0.281498
H212	H	2.002971	-0.745036	0.051835
H213	H	2.336304	-0.411703	0.385168
