data_functionalizedCrystal
_audit_creation_method	'MofGen! by Chris Wilmer'
_symmetry_space_group_name_H-M	'P1'
_symmetry_Int_Tables_number	1
_symmetry_cell_setting	triclinic
loop_
_symmetry_equiv_pos_as_xyz
  x,y,z
_cell_length_a	10.654554
_cell_length_b	9.730217
_cell_length_c	10.654551
_cell_angle_alpha	89.999560
_cell_angle_beta	95.513947
_cell_angle_gamma	90.001543
loop_
_atom_site_label
_atom_site_type_symbol
_atom_site_fract_x
_atom_site_fract_y
_atom_site_fract_z
O1	O	1.667833	0.114285	-0.176423
O2	O	1.302356	0.114286	-0.193224
O3	O	1.493497	0.114287	-0.002084
O4	O	1.476692	0.114285	-0.367562
O5	O	1.493491	-0.114294	-0.002083
O6	O	1.302350	-0.114294	-0.193222
O7	O	1.667827	-0.114295	-0.176422
Zn8	Zn	1.485088	-0.150586	-0.184821
Zn9	Zn	1.485095	0.150578	-0.184824
O10	O	1.476686	-0.114295	-0.367561
C11	C	1.255555	-0.000004	-0.191988
C12	C	1.116112	-0.000003	-0.188294
C13	C	0.905604	-0.000000	-0.297367
C14	C	1.036625	-0.000000	-0.300839
C15	C	1.064571	0.000008	-0.072269
C16	C	0.933552	0.000018	-0.068799
C17	C	0.889470	-0.000011	-0.429330
C18	C	1.020492	-0.000011	-0.432802
N19	N	1.485091	-0.356123	-0.184819
C20	C	1.654417	-0.356113	-0.015615
C21	C	1.739088	-0.428048	0.068983
C22	C	1.739100	-0.571928	0.068984
C23	C	1.654431	-0.643876	-0.015620
C24	C	1.569760	-0.571941	-0.100219
C25	C	1.569758	-0.428058	-0.100213
C26	C	1.400430	-0.571951	-0.269414
C27	C	1.400421	-0.428071	-0.269423
C28	C	1.315760	-0.643899	-0.354019
C29	C	1.231093	-0.571963	-0.438625
C30	C	1.231085	-0.428075	-0.438623
C31	C	1.315750	-0.356136	-0.354022
C32	C	1.714628	-0.000002	-0.177657
C33	C	1.854071	0.000007	-0.181351
C34	C	1.492260	-0.000000	0.044714
C35	C	1.488567	0.000009	0.184158
N36	N	1.485101	0.356114	-0.184816
C37	C	1.477923	-0.000005	-0.414360
C38	C	1.481616	-0.000005	-0.553803
C39	C	1.486838	0.124605	0.249669
C40	C	1.483358	0.124599	0.380689
C41	C	1.483341	-0.124611	0.380677
C42	C	1.486812	-0.124604	0.249657
C43	C	1.486853	0.268485	0.249678
C44	C	1.483373	0.268479	0.380698
H45	H	0.847728	0.095646	-0.479060
F46	F	1.829211	-0.648487	0.159029
H47	H	1.570165	0.323722	0.426988
F48	F	1.481470	-0.257225	0.450397
H49	H	1.162131	-0.369513	-0.507509
H50	H	1.049851	-0.095683	-0.484391
F51	F	1.654426	-0.202983	-0.015621
H52	H	1.129300	0.000019	0.019366
H53	H	1.808023	-0.369456	0.137870
F54	F	1.315768	-0.797029	-0.354012
F55	F	0.829792	-0.129005	-0.481443
F56	F	1.315754	-0.203006	-0.354017
F57	F	1.067078	0.128989	-0.487733
H58	H	0.891600	0.000041	0.025672
H59	H	1.400065	0.323735	0.203398
H60	H	1.162156	-0.630552	-0.507498
F61	F	1.654433	-0.797006	-0.015603
H62	H	1.488213	-0.226062	0.196322
F63	F	1.606577	0.326840	0.211023
H64	H	1.391778	0.313137	0.410267
