data_functionalizedCrystal
_audit_creation_method	'MofGen! by Chris Wilmer'
_symmetry_space_group_name_H-M	'P1'
_symmetry_Int_Tables_number	1
_symmetry_cell_setting	triclinic
loop_
_symmetry_equiv_pos_as_xyz
  x,y,z
_cell_length_a	15.944551
_cell_length_b	13.930277
_cell_length_c	14.853559
_cell_angle_alpha	89.997639
_cell_angle_beta	83.565096
_cell_angle_gamma	89.997274
loop_
_atom_site_label
_atom_site_type_symbol
_atom_site_fract_x
_atom_site_fract_y
_atom_site_fract_z
O1	O	1.114654	-0.079726	0.116273
O2	O	0.870120	-0.079749	0.130608
O3	O	0.998922	-0.079736	-0.007798
O4	O	0.985851	-0.079739	0.254679
O5	O	0.998904	0.079926	-0.007801
O6	O	0.870102	0.079913	0.130605
O7	O	1.114636	0.079936	0.116270
Zn8	Zn	0.992366	0.105274	0.123437
Zn9	Zn	0.992390	-0.105087	0.123441
O10	O	0.985833	0.079923	0.254676
C11	C	0.838816	0.000079	0.130012
C12	C	0.745568	0.000070	0.128228
N13	N	0.992356	0.248840	0.123434
N14	N	0.992406	-0.248653	0.123437
C15	C	0.530614	0.000089	0.038172
C16	C	0.469648	-0.078633	0.079992
C17	C	0.574839	0.000081	0.125000
C18	C	0.469652	0.078781	0.080010
C19	C	0.409923	0.000096	0.121876
C20	C	0.515101	-0.078706	0.166844
C21	C	0.515112	0.078778	0.166849
C22	C	0.454164	0.000037	0.208733
C23	C	0.669843	0.000071	0.126797
C24	C	0.314920	0.000099	0.120085
C25	C	1.145939	0.000106	0.116867
C26	C	1.239187	0.000109	0.118651
C27	C	0.998322	0.000093	-0.041387
C28	C	0.996551	0.000088	-0.141469
C29	C	0.935354	0.701103	0.184704
C30	C	1.049449	0.701085	0.062172
C31	C	1.049439	0.600589	0.062169
C32	C	0.992386	0.550346	0.123435
C33	C	0.935344	0.600598	0.184704
C34	C	1.106486	0.550329	0.000907
C35	C	1.106479	0.449827	0.000903
C36	C	1.049422	0.399582	0.062165
C37	C	0.992376	0.449841	0.123436
C38	C	0.935323	0.399598	0.184702
C39	C	0.878273	0.449855	0.245970
C40	C	0.878286	0.550353	0.245967
C41	C	1.049409	0.299083	0.062168
C42	C	0.935313	0.299093	0.184703
C43	C	0.989048	-0.086945	-0.564633
C44	C	0.989029	0.087124	-0.564631
C45	C	0.990699	0.087125	-0.470600
C46	C	0.991544	0.000090	-0.423581
C47	C	0.990717	-0.086947	-0.470593
C48	C	0.991518	0.174160	-0.423580
C49	C	0.993188	0.174165	-0.329542
C50	C	0.994038	0.087128	-0.282523
C51	C	0.993212	0.000088	-0.329541
C52	C	0.994056	-0.086947	-0.282522
C53	C	0.993236	-0.173989	-0.329539
C54	C	0.991567	-0.173983	-0.423573
C55	C	0.995707	0.087123	-0.188488
C56	C	0.995725	-0.086949	-0.188481
C57	C	0.986433	0.000091	0.288266
C58	C	0.988204	0.000091	0.388348
H59	H	0.563868	-0.000007	-0.033887
C60	C	0.994278	-0.268551	-0.278612
C61	C	1.066075	-0.321070	-0.311624
C62	C	1.067055	-0.408185	-0.264734
H63	H	0.995427	-0.256210	-0.215868
H64	H	0.945090	-0.304370	-0.287170
H65	H	1.115250	-0.285257	-0.303058
H66	H	1.064941	-0.333436	-0.374361
H67	H	1.017868	-0.444005	-0.273293
H68	H	1.068202	-0.395835	-0.201993
H69	H	1.115765	-0.443834	-0.287132
H70	H	0.535276	0.145335	0.203542
C71	C	0.816199	0.395422	0.312444
C72	C	0.733647	0.419889	0.297781
C73	C	0.676445	0.369771	0.359006
H74	H	0.824252	0.328357	0.303733
H75	H	0.825334	0.411910	0.372639
H76	H	0.724515	0.403395	0.237600
H77	H	0.725566	0.486945	0.306498
H78	H	0.685580	0.386258	0.419201
H79	H	0.684506	0.302708	0.350291
H80	H	0.620427	0.386371	0.349071
H81	H	1.095904	0.741996	0.012295
H82	H	1.095862	0.258168	0.012289
H83	H	0.990898	-0.244848	-0.461863
H84	H	0.996416	-0.157825	-0.150206
H85	H	0.421084	-0.000008	0.280867
H86	H	0.888851	0.258191	0.234591
C87	C	0.987940	0.181642	-0.615610
C88	C	0.916125	0.234141	-0.582615
C89	C	0.915091	0.321212	-0.629570
H90	H	1.037098	0.217521	-0.607110
H91	H	0.986781	0.169212	-0.678349
H92	H	0.917292	0.246574	-0.519892
H93	H	0.866956	0.198291	-0.591116
H94	H	0.913932	0.308782	-0.692308
H95	H	0.964251	0.357082	-0.621067
H96	H	0.866362	0.356839	-0.607195
C97	C	0.442937	0.167488	0.030882
C98	C	0.482030	0.167116	-0.058357
C99	C	0.457451	0.248817	-0.103643
H100	H	0.383405	0.167239	0.030485
H101	H	0.459293	0.223418	0.061089
H102	H	0.465669	0.111201	-0.088555
H103	H	0.541561	0.167379	-0.057986
H104	H	0.473807	0.304747	-0.073437
H105	H	0.397919	0.248561	-0.104034
H106	H	0.483978	0.248580	-0.164194
C107	C	0.990433	0.268673	-0.474568
C108	C	0.918614	0.321174	-0.441590
C109	C	0.917585	0.408238	-0.488558
H110	H	1.039588	0.304555	-0.466065
H111	H	0.989283	0.256233	-0.537306
H112	H	0.919772	0.333617	-0.378868
H113	H	0.869448	0.285321	-0.450094
H114	H	0.916434	0.395798	-0.551295
H115	H	0.966743	0.444111	-0.480052
H116	H	0.868853	0.443867	-0.466195
H117	H	0.449505	-0.145186	0.043269
H118	H	1.152931	0.408914	-0.048985
H119	H	0.996356	0.157991	-0.150209
H120	H	0.535136	-0.145332	0.203542
H121	H	0.988384	-0.157812	-0.602919
H122	H	1.152941	0.591240	-0.048970
C123	C	0.993915	0.268634	-0.278431
C124	C	0.922658	0.273731	-0.214314
C125	C	0.923297	0.360747	-0.167223
H126	H	1.043456	0.272349	-0.248546
H127	H	0.993128	0.320495	-0.319870
H128	H	0.923453	0.221885	-0.172882
H129	H	0.873106	0.270032	-0.244176
H130	H	0.922510	0.412608	-0.208661
H131	H	0.972841	0.364454	-0.137343
H132	H	0.874947	0.364220	-0.123720
C133	C	0.816451	0.605092	0.312447
C134	C	0.828692	0.703858	0.299351
C135	C	0.771756	0.754316	0.360586
H136	H	0.760343	0.588755	0.302681
H137	H	0.825646	0.588670	0.372642
H138	H	0.819490	0.720273	0.239171
H139	H	0.884788	0.720223	0.309125
H140	H	0.780951	0.737894	0.420780
H141	H	0.715651	0.737972	0.350815
H142	H	0.780059	0.821333	0.351714
H143	H	0.888902	0.742025	0.234584
