data_functionalizedCrystal
_audit_creation_method	'MofGen! by Chris Wilmer'
_symmetry_space_group_name_H-M	'P1'
_symmetry_Int_Tables_number	1
_symmetry_cell_setting	triclinic
loop_
_symmetry_equiv_pos_as_xyz
  x,y,z
_cell_length_a	8.497374
_cell_length_b	19.077068
_cell_length_c	19.077105
_cell_angle_alpha	89.884684
_cell_angle_beta	87.699981
_cell_angle_gamma	87.715976
loop_
_atom_site_label
_atom_site_type_symbol
_atom_site_fract_x
_atom_site_fract_y
_atom_site_fract_z
Zn1	Zn	1.016648	-0.323110	-1.062860
Zn2	Zn	0.762970	-0.440586	-1.058079
Zn3	Zn	0.741875	-0.318369	-0.945387
Zn4	Zn	1.015701	-0.435851	-0.940595
O5	O	0.884299	-0.379479	-1.001730
O6	O	0.992222	-0.342659	-1.160556
O7	O	0.539410	-0.424372	-1.043135
O8	O	0.769893	-0.220667	-0.964977
O9	O	0.805846	-0.428968	-1.157044
O10	O	0.971767	-0.224150	-1.051283
O11	O	0.523911	-0.334579	-0.960341
O12	O	0.768974	-0.329988	-0.846421
O13	O	1.236588	-0.420898	-0.956809
O14	O	0.970152	-0.416301	-0.842901
O15	O	1.237285	-0.338067	-1.046636
O16	O	0.804927	-0.538289	-1.038488
O17	O	0.990607	-0.534810	-0.952173
C18	C	0.899989	-0.562047	-0.994311
C19	C	0.906761	-0.640152	-0.991201
C20	C	0.867172	-0.372117	-0.819165
C21	C	0.859884	-0.368984	-0.741062
C22	C	0.813355	-0.678636	-1.034715
C23	C	0.819734	-0.752025	-1.031794
C24	C	0.919510	-0.786928	-0.985356
C25	C	1.012926	-0.748439	-0.941841
C26	C	1.006555	-0.675052	-0.944765
C27	C	0.948930	-1.006221	-0.971789
C28	C	0.955291	-1.079613	-0.968866
C29	C	0.762100	-1.083193	-1.058821
C30	C	0.755730	-1.009804	-1.061739
C31	C	0.849152	-0.971322	-1.018226
N32	N	0.926029	-0.861943	-0.982368
N33	N	0.842641	-0.896309	-1.021218
C34	C	1.295778	-0.379480	-1.001725
C35	C	1.474423	-0.379487	-1.001726
C36	C	0.901493	-0.386870	-1.185009
C37	C	0.908820	-0.390020	-1.263111
C38	C	0.868583	-0.196199	-1.009198
C39	C	0.861886	-0.118097	-1.012380
C40	C	0.961050	-0.412519	-0.702552
C41	C	0.954209	-0.409566	-0.629166
C42	C	0.846193	-0.363082	-0.594292
C43	C	0.745023	-0.319542	-0.632808
C44	C	0.751873	-0.322492	-0.706192
C45	C	0.814499	-0.349430	-0.375011
C46	C	0.807654	-0.346485	-0.301621
C47	C	1.016843	-0.436509	-0.297985
C48	C	1.023677	-0.439457	-0.371371
C49	C	0.922512	-0.395915	-0.409880
N50	N	0.839195	-0.360064	-0.519280
N51	N	0.929519	-0.398930	-0.484891
H52	H	0.732099	-0.650222	-1.072527
H53	H	1.082618	-0.643719	-0.909333
H54	H	1.094174	-0.776864	-0.904033
H55	H	0.686043	-1.114533	-1.094248
C56	C	0.640578	-0.274602	-0.748553
N57	N	0.556750	-0.238528	-0.780459
C58	C	1.051782	-0.963901	-0.923959
N59	N	1.129287	-0.932024	-0.887945
C60	C	0.645926	-0.971415	-1.112807
N61	N	0.563200	-0.942500	-1.151263
C62	C	0.703204	-0.301537	-0.417362
N63	N	0.619369	-0.265462	-0.449263
C64	C	0.688825	-0.295346	-0.263262
N65	N	0.599325	-0.256830	-0.234369
H66	H	0.743672	-0.783355	-1.067227
H67	H	1.036570	-1.108030	-0.931059
H68	H	0.657081	-0.281691	-0.604407
C69	C	1.079877	-0.463656	-0.740906
N70	N	1.169385	-0.502172	-0.769793
H71	H	1.111631	-0.477312	-0.399760
C72	C	1.065472	-0.457472	-0.586807
N73	N	1.149270	-0.493561	-0.554903
H74	H	1.099208	-0.471957	-0.266623
