data_functionalizedCrystal
_audit_creation_method	'MofGen! by Chris Wilmer'
_symmetry_space_group_name_H-M	'P1'
_symmetry_Int_Tables_number	1
_symmetry_cell_setting	triclinic
loop_
_symmetry_equiv_pos_as_xyz
  x,y,z
_cell_length_a	16.120530
_cell_length_b	14.908520
_cell_length_c	14.908308
_cell_angle_alpha	96.360765
_cell_angle_beta	89.451626
_cell_angle_gamma	89.416769
loop_
_atom_site_label
_atom_site_type_symbol
_atom_site_fract_x
_atom_site_fract_y
_atom_site_fract_z
Zn1	Zn	1.217782	0.460872	0.603406
Zn2	Zn	1.217688	0.603512	0.460771
Zn3	Zn	1.087711	0.444591	0.444498
Zn4	Zn	1.070713	0.603616	0.603530
O5	O	1.148474	0.528147	0.528051
O6	O	1.333714	0.486563	0.591244
O7	O	1.207521	0.575573	0.332363
O8	O	1.112119	0.320503	0.458715
O9	O	1.333644	0.591360	0.486450
O10	O	1.207681	0.332464	0.575464
O11	O	1.112028	0.458815	0.320407
O12	O	0.969512	0.458916	0.458835
O13	O	1.083148	0.591538	0.729763
O14	O	0.957024	0.575751	0.575676
O15	O	1.191198	0.486664	0.729672
O16	O	1.191038	0.729773	0.486571
O17	O	1.083056	0.729850	0.591456
C18	C	1.135214	0.762548	0.540813
C19	C	1.129615	0.862832	0.546308
C20	C	0.933205	0.515579	0.515504
C21	C	0.841110	0.510225	0.510159
C22	C	1.135287	0.540929	0.763368
C23	C	1.129668	0.546375	0.863645
C24	C	0.672491	0.500429	0.500406
C25	C	0.625289	0.555936	0.555766
C26	C	0.531464	0.550486	0.550340
C27	C	0.766325	0.505878	0.505831
C28	C	1.364583	0.540766	0.540648
C29	C	1.456675	0.546143	0.546016
C30	C	1.161806	0.292834	0.515260
C31	C	1.167488	0.192557	0.509810
C32	C	1.231640	1.051146	0.447515
C33	C	1.226383	1.145372	0.452675
C34	C	1.113848	1.145511	0.561791
C35	C	1.119105	1.051285	0.556631
C36	C	1.178003	1.004106	0.499490
C37	C	1.183255	0.909878	0.494327
C38	C	1.070725	0.910020	0.603447
C39	C	1.065468	1.004245	0.608607
C40	C	1.161660	0.515354	0.293650
C41	C	1.167454	0.509662	0.193368
C42	C	1.231621	0.447384	1.051983
C43	C	1.226344	0.452499	1.146203
C44	C	1.113834	0.561714	1.146306
C45	C	1.119111	0.556599	1.052086
C46	C	1.178007	0.499433	1.004928
C47	C	1.183288	0.494324	0.910707
C48	C	1.070774	0.603534	0.910811
C49	C	1.065497	0.608648	1.005031
H50	H	0.655345	0.607550	0.607238
H51	H	1.017517	1.042671	0.655131
H52	H	0.642437	0.448819	0.448939
C53	C	1.248042	0.857978	0.431477
C54	C	1.246392	0.865019	0.329232
C55	C	1.311182	0.813122	0.266383
C56	C	1.377622	0.754184	0.305779
C57	C	1.379274	0.747141	0.408030
C58	C	1.314484	0.799038	0.470878
H59	H	1.197208	0.908650	0.300063
H60	H	1.309959	0.818336	0.190690
H61	H	1.425583	0.715766	0.259255
H62	H	1.428458	0.703509	0.437198
H63	H	1.315707	0.793824	0.546571
H64	H	1.065883	0.608255	1.184719
C65	C	1.011717	0.858278	0.660627
C66	C	0.952500	0.787663	0.614138
C67	C	0.893491	0.735922	0.671313
C68	C	0.893698	0.754796	0.774978
C69	C	0.952918	0.825414	0.821472
C70	C	1.011927	0.877155	0.764297
H71	H	0.952344	0.773688	0.537395
H72	H	0.849653	0.683645	0.636895
H73	H	0.850016	0.716494	0.817302
H74	H	0.953073	0.839389	0.898216
H75	H	1.055765	0.929431	0.798716
C76	C	1.296423	0.999245	0.384661
C77	C	1.362867	0.940308	0.424052
C78	C	1.427651	0.888409	0.361197
C79	C	1.425991	0.895447	0.258951
C80	C	1.359545	0.954386	0.219556
C81	C	1.294760	1.006285	0.282410
H82	H	1.364098	0.935097	0.499744
H83	H	1.476839	0.844779	0.390361
H84	H	1.473949	0.857028	0.212422
H85	H	1.358314	0.959598	0.143863
H86	H	1.245572	1.049915	0.253247
H87	H	1.270062	1.183668	0.410353
H88	H	1.017544	0.655189	1.043440
C89	C	1.049078	1.197425	0.624651
C90	C	0.982641	1.256377	0.585269
C91	C	0.917875	1.308295	0.648133
C92	C	0.919545	1.301260	0.750378
C93	C	0.985983	1.242305	0.789765
C94	C	1.050750	1.190387	0.726902
H95	H	0.981403	1.261587	0.509576
H96	H	0.868692	1.351937	0.618975
H97	H	0.871600	1.339693	0.796914
H98	H	0.987222	1.237095	0.865458
H99	H	1.099932	1.146745	0.756059
H100	H	1.270000	0.410112	1.184512
C101	C	1.248069	0.431442	0.858830
C102	C	1.246381	0.329190	0.865811
C103	C	1.311162	0.266304	0.813936
C104	C	1.377631	0.305670	0.755079
C105	C	1.379321	0.407927	0.748096
C106	C	1.314540	0.470813	0.799971
H107	H	1.197175	0.300044	0.909382
H108	H	1.309910	0.190606	0.819106
H109	H	1.425585	0.259118	0.716678
H110	H	1.428528	0.437073	0.704525
H111	H	1.315792	0.546511	0.794801
H112	H	1.027120	0.645919	0.872489
C113	C	1.296406	0.384510	1.000102
C114	C	1.294733	0.282257	1.007079
C115	C	1.359520	0.219383	0.955198
C116	C	1.425980	0.258761	0.896340
C117	C	1.427655	0.361020	0.889361
C118	C	1.362869	0.423894	0.941242
H119	H	1.245534	0.253102	1.050651
H120	H	1.358279	0.143684	0.960365
H121	H	1.473938	0.212218	0.857935
H122	H	1.476855	0.390175	0.845789
H123	H	1.364109	0.499593	0.936075
