data_functionalizedCrystal
_audit_creation_method	'MofGen! by Chris Wilmer'
_symmetry_space_group_name_H-M	'P1'
_symmetry_Int_Tables_number	1
_symmetry_cell_setting	triclinic
loop_
_symmetry_equiv_pos_as_xyz
  x,y,z
_cell_length_a	10.723023
_cell_length_b	10.723023
_cell_length_c	9.130313
_cell_angle_alpha	89.999732
_cell_angle_beta	90.000208
_cell_angle_gamma	84.467548
loop_
_atom_site_label
_atom_site_type_symbol
_atom_site_fract_x
_atom_site_fract_y
_atom_site_fract_z
O1	O	1.657181	0.175017	-0.121781
O2	O	1.294029	0.191771	-0.121787
O3	O	1.483982	0.001818	-0.121778
O4	O	1.467228	0.364970	-0.121790
O5	O	1.483980	0.001823	0.121821
O6	O	1.294027	0.191776	0.121812
O7	O	1.657179	0.175022	0.121818
Cu8	Cu	1.475603	0.183400	0.144057
Cu9	Cu	1.475605	0.183394	-0.144026
O10	O	1.467226	0.364976	0.121809
C11	C	1.247528	0.190555	0.000012
C12	C	1.108974	0.186908	0.000010
C13	C	1.047201	0.185284	0.126200
C14	C	0.903997	0.181514	0.126201
C15	C	1.482762	-0.044679	0.000020
C16	C	1.479115	-0.183233	0.000015
C17	C	1.477490	-0.245002	-0.126178
C18	C	1.473720	-0.388205	-0.126186
C19	C	1.703680	0.176239	0.000016
C20	C	1.842234	0.179886	0.000009
C21	C	1.468446	0.411473	0.000008
C22	C	1.472093	0.550027	0.000003
N23	N	1.475610	0.183403	0.346680
N24	N	1.475608	0.183380	-0.346649
C25	C	1.559743	0.099321	0.423336
C26	C	1.559740	0.099306	0.576673
C27	C	1.391466	0.267467	0.576684
C28	C	1.391464	0.267475	0.423350
C29	C	1.656898	0.002238	0.423331
C30	C	1.656895	0.002223	0.576668
H31	H	1.055843	0.185503	-0.108026
C32	C	1.300175	0.358944	0.659740
C33	C	1.321425	0.481764	0.622428
C34	C	1.237339	0.566067	0.698890
H35	H	1.312131	0.347071	0.762062
H36	H	1.216757	0.344700	0.634570
H37	H	1.404823	0.496003	0.647608
H38	H	1.309460	0.493676	0.520119
H39	H	1.153921	0.551823	0.673720
H40	H	1.249301	0.554183	0.801208
H41	H	1.251738	0.649410	0.673574
H42	H	1.747496	0.032617	0.375773
C43	C	1.784804	0.030455	0.632266
C44	C	1.836875	-0.070034	0.717351
C45	C	1.954703	-0.044079	0.768579
H46	H	1.776082	0.104376	0.690172
H47	H	1.838143	0.042284	0.551381
H48	H	1.783548	-0.081849	0.798224
H49	H	1.845627	-0.143966	0.659476
H50	H	2.008042	-0.032249	0.687694
H51	H	1.945969	0.029844	0.826479
H52	H	1.990052	-0.112260	0.826303
C53	C	1.479189	-0.173974	-0.270122
C54	C	1.374009	-0.086073	-0.277765
C55	C	1.375551	-0.020608	-0.410336
H56	H	1.477628	-0.231137	-0.349428
H57	H	1.553141	-0.132007	-0.275546
H58	H	1.300075	-0.128038	-0.272355
H59	H	1.375547	-0.028884	-0.198489
H60	H	1.449503	0.021359	-0.415760
H61	H	1.373993	-0.077781	-0.489632
H62	H	1.304194	0.039048	-0.415533
H63	H	0.850873	0.180125	0.234237
C64	C	1.474002	-0.379395	0.144230
C65	C	1.471795	-0.464146	0.260644
C66	C	1.473563	-0.399167	0.393526
H67	H	1.402712	-0.319710	0.149874
H68	H	1.548009	-0.337525	0.149766
H69	H	1.397795	-0.505995	0.255110
H70	H	1.543079	-0.523832	0.255048
H71	H	1.547571	-0.357298	0.399062
H72	H	1.402272	-0.339485	0.399155
H73	H	1.472078	-0.456662	0.472528
H74	H	1.472329	-0.441325	-0.234225
H75	H	1.477707	-0.236368	0.108048
C76	C	1.628743	-0.125691	0.367728
C77	C	1.729244	-0.177698	0.282619
C78	C	1.703351	-0.295543	0.231385
H79	H	1.554812	-0.117007	0.309837
H80	H	1.616958	-0.179048	0.448610
H81	H	1.741014	-0.124354	0.201748
H82	H	1.803186	-0.186413	0.340479
H83	H	1.691566	-0.348900	0.312267
H84	H	1.629418	-0.286847	0.173500
H85	H	1.771541	-0.330850	0.173644
H86	H	1.100332	0.186678	0.234236
H87	H	0.895349	0.181289	-0.108033
H88	H	1.322946	0.335931	0.360938
H89	H	1.626590	-0.088414	0.624217
