data_functionalizedCrystal
_audit_creation_method	'MofGen! by Chris Wilmer'
_symmetry_space_group_name_H-M	'P1'
_symmetry_Int_Tables_number	1
_symmetry_cell_setting	triclinic
loop_
_symmetry_equiv_pos_as_xyz
  x,y,z
_cell_length_a	12.759401
_cell_length_b	19.121063
_cell_length_c	12.759393
_cell_angle_alpha	92.402917
_cell_angle_beta	89.981433
_cell_angle_gamma	92.467904
loop_
_atom_site_label
_atom_site_type_symbol
_atom_site_fract_x
_atom_site_fract_y
_atom_site_fract_z
Zn1	Zn	1.588320	-0.279589	-0.611775
Zn2	Zn	1.580679	-0.397058	-0.443570
Zn3	Zn	1.412620	-0.279623	-0.436116
Zn4	Zn	1.405079	-0.397001	-0.619207
O5	O	1.496674	-0.338318	-0.527667
O6	O	1.734327	-0.295181	-0.589471
O7	O	1.558343	-0.381518	-0.295562
O8	O	1.442281	-0.181335	-0.453187
O9	O	1.728713	-0.381484	-0.465891
O10	O	1.571367	-0.181309	-0.582243
O11	O	1.434871	-0.295239	-0.290086
O12	O	1.264599	-0.295185	-0.460395
O13	O	1.429428	-0.381388	-0.765240
O14	O	1.259059	-0.381422	-0.594911
O15	O	1.564055	-0.295126	-0.759779
O16	O	1.551031	-0.495334	-0.473099
O17	O	1.422019	-0.495293	-0.602139
C18	C	1.223708	-0.338301	-0.527651
C19	C	1.106931	-0.338311	-0.527671
C20	C	1.054979	-0.293458	-0.592128
C21	C	0.945255	-0.293471	-0.592135
C22	C	0.939441	-0.383198	-0.463226
C23	C	1.049165	-0.383180	-0.463213
C24	C	1.058335	-0.241657	-0.666556
C25	C	0.948610	-0.241670	-0.666564
C26	C	1.484906	-0.520797	-0.539257
C27	C	1.479967	-0.598863	-0.544250
C28	C	1.544870	-0.635537	-0.479468
C29	C	1.540231	-0.708887	-0.484170
C30	C	1.470685	-0.745563	-0.553651
C31	C	1.405780	-0.708885	-0.618440
C32	C	1.410424	-0.635535	-0.613743
C33	C	1.453304	-0.967032	-0.571198
C34	C	1.448662	-1.040386	-0.575889
C35	C	1.583115	-1.040384	-0.441619
C36	C	1.587749	-0.967033	-0.436923
C37	C	1.522848	-0.930361	-0.501717
C38	C	1.465940	-0.820540	-0.558457
C39	C	1.527599	-0.855386	-0.496916
C40	C	1.770706	-0.338335	-0.527683
C41	C	1.887483	-0.338342	-0.527690
C42	C	1.496752	-0.338247	-0.801696
C43	C	1.496786	-0.338217	-0.918471
C44	C	1.508517	-0.155126	-0.516055
C45	C	1.513564	-0.077060	-0.511106
C46	C	1.566895	-0.293296	-0.970491
C47	C	1.566922	-0.293270	-1.080213
C48	C	1.426726	-0.383093	-1.085886
C49	C	1.426695	-0.383114	-0.976166
C50	C	1.647839	-0.241439	-0.967216
C51	C	1.647866	-0.241414	-1.076939
C52	C	1.496660	-0.338338	-0.254701
C53	C	1.496843	-0.338170	-0.137914
H54	H	1.091146	-0.261199	-0.745038
Br55	Br	0.897457	-0.266066	-0.803675
H56	H	1.644379	-0.937173	-0.380347
Br57	Br	1.671195	-1.090157	-0.353695
H58	H	1.409313	-0.850410	-0.615026
H59	H	0.892395	-0.419729	-0.410747
H60	H	0.917884	-0.189976	-0.634275
H61	H	1.091592	-0.187239	-0.641440
H62	H	1.728302	-0.255983	-1.107644
Br63	Br	1.639249	-0.585769	-0.385158
Br64	Br	1.119669	-0.444031	-0.375694
H65	H	1.629560	-0.187047	-0.933999
Br66	Br	1.365224	-0.917271	-0.659134
Br67	Br	1.628323	-0.758656	-0.396253
H68	H	1.622068	-0.189732	-1.107698
H69	H	1.392041	-1.070246	-0.632487
Br70	Br	1.331522	-0.444067	-0.905568
Br71	Br	1.311403	-0.758658	-0.712746
Br72	Br	1.322346	-0.585763	-0.701672
Br73	Br	1.774543	-0.273939	-0.912545
Br74	Br	1.331606	-0.444021	-1.164193
H75	H	1.584228	-0.825522	-0.440348
