data_functionalizedCrystal
_audit_creation_method	'MofGen! by Chris Wilmer'
_symmetry_space_group_name_H-M	'P1'
_symmetry_Int_Tables_number	1
_symmetry_cell_setting	triclinic
loop_
_symmetry_equiv_pos_as_xyz
  x,y,z
_cell_length_a	13.101039
_cell_length_b	14.519709
_cell_length_c	14.519709
_cell_angle_alpha	96.319855
_cell_angle_beta	86.632446
_cell_angle_gamma	86.641741
loop_
_atom_site_label
_atom_site_type_symbol
_atom_site_fract_x
_atom_site_fract_y
_atom_site_fract_z
O1	O	0.085083	-1.228925	0.115817
O2	O	0.585083	-0.728925	0.615817
O3	O	0.085114	-0.960450	0.130052
O4	O	0.585114	-0.460450	0.630052
O5	O	0.085088	-1.101805	-0.011303
O6	O	0.585088	-0.601805	0.488697
O7	O	0.085109	-1.087569	0.257173
O8	O	0.585109	-0.587569	0.757173
O9	O	-0.085340	-1.091663	-0.001144
O10	O	0.414660	-0.591663	0.498856
O11	O	-0.085314	-0.950308	0.140211
O12	O	0.414686	-0.450308	0.640211
O13	O	-0.085345	-1.218783	0.125976
O14	O	0.414655	-0.718783	0.625976
Zn15	Zn	-0.112389	-1.082935	0.134707
Zn16	Zn	0.387611	-0.582935	0.634707
Zn17	Zn	0.112158	-1.096297	0.121322
Zn18	Zn	0.612158	-0.596297	0.621322
O19	O	-0.085319	-1.077427	0.267331
O20	O	0.414681	-0.577427	0.767331
C21	C	-0.000096	-0.921019	0.134468
C22	C	0.499904	-0.421019	0.634468
C23	C	-0.000084	-0.818638	0.132479
C24	C	0.499916	-0.318638	0.632479
N25	N	-0.265635	-1.073822	0.143841
N26	N	0.234365	-0.573822	0.643841
C27	C	-0.000126	-1.096070	-0.040583
C28	C	0.499874	-0.596070	0.459417
C29	C	-0.000126	-1.094082	-0.142965
C30	C	0.499874	-0.594082	0.357035
C31	C	-0.474676	-1.061423	0.156277
C32	C	0.025324	-0.561423	0.656277
C33	C	-0.525562	-1.117813	0.099747
C34	C	-0.025562	-0.617813	0.599747
C35	C	-0.641879	-1.110914	0.106667
C36	C	-0.141879	-0.610914	0.606667
C37	C	-0.358348	-1.068321	0.149358
C38	C	0.141652	-0.568321	0.649358
N39	N	0.265405	-1.105418	0.112180
N40	N	0.765405	-0.605418	0.612180
C41	C	-0.000133	-1.258213	0.121560
C42	C	0.499867	-0.758213	0.621560
C43	C	-0.000138	-1.360594	0.123549
C44	C	0.499862	-0.860594	0.623549
C45	C	-0.000131	-0.443740	0.125162
C46	C	0.499869	0.056260	0.625162
C47	C	-0.000118	-0.548049	0.127194
C48	C	0.499882	-0.048049	0.627194
C49	C	-0.000107	-0.631186	0.128820
C50	C	0.499893	-0.131186	0.628820
C51	C	-0.000095	-0.735501	0.130853
C52	C	0.499905	-0.235501	0.630853
C53	C	-0.000098	-1.086764	-0.517862
C54	C	0.499902	-0.586764	-0.017862
C55	C	-0.000106	-1.088796	-0.413554
C56	C	0.499894	-0.588796	0.086446
C57	C	-0.000113	-1.090423	-0.330417
C58	C	0.499887	-0.590423	0.169583
C59	C	-0.000119	-1.092456	-0.226102
C60	C	0.499881	-0.592456	0.273898
C61	C	-0.000103	-1.083162	0.296612
C62	C	0.499897	-0.583162	0.796612
C63	C	-0.000096	-1.085151	0.398992
C64	C	0.499904	-0.585151	0.898992
H65	H	-0.518463	-1.007970	0.209866
H66	H	-0.018463	-0.507970	0.709866
C67	C	-0.467358	-1.188982	0.028055
C68	C	0.032642	-0.688982	0.528055
C69	C	-0.493498	-1.172083	-0.060971
C70	C	0.006502	-0.672083	0.439029
C71	C	-0.439944	-1.237613	-0.127073
C72	C	0.060056	-0.737613	0.372927
H73	H	-0.484876	-1.249588	0.038977
H74	H	0.015124	-0.749588	0.538977
H75	H	-0.395772	-1.184279	0.032672
H76	H	0.104228	-0.684279	0.532672
H77	H	-0.565068	-1.176795	-0.065586
H78	H	-0.065068	-0.676795	0.434414
H79	H	-0.475977	-1.111489	-0.071923
H80	H	0.024023	-0.611489	0.428077
H81	H	-0.368358	-1.232909	-0.122455
H82	H	0.131642	-0.732909	0.377545
H83	H	-0.457466	-1.298214	-0.116142
H84	H	0.042534	-0.798214	0.383858
H85	H	-0.457665	-1.226150	-0.187484
H86	H	0.042335	-0.726150	0.312516
