data_functionalizedCrystal
_audit_creation_method	'MofGen! by Chris Wilmer'
_symmetry_space_group_name_H-M	'P1'
_symmetry_Int_Tables_number	1
_symmetry_cell_setting	triclinic
loop_
_symmetry_equiv_pos_as_xyz
  x,y,z
_cell_length_a	12.811457
_cell_length_b	11.892113
_cell_length_c	16.992695
_cell_angle_alpha	94.115169
_cell_angle_beta	87.340997
_cell_angle_gamma	88.931388
loop_
_atom_site_label
_atom_site_type_symbol
_atom_site_fract_x
_atom_site_fract_y
_atom_site_fract_z
O1	O	1.398179	-0.049332	0.103274
O2	O	1.095662	-0.018316	0.116246
O3	O	1.245707	-0.033708	-0.004381
O4	O	1.248134	-0.033939	0.223901
O5	O	1.233054	-0.220419	-0.013308
O6	O	1.083008	-0.205027	0.107318
O7	O	1.385526	-0.236043	0.094347
Zn8	Zn	1.232258	-0.250179	0.099416
Zn9	Zn	1.248929	-0.004180	0.111177
O10	O	1.235480	-0.220650	0.214974
C11	C	1.050447	-0.107685	0.111329
C12	C	0.934573	-0.095805	0.109970
N13	N	1.220888	-0.418068	0.091388
C14	C	0.703037	-0.277057	0.097668
C15	C	0.594163	-0.265900	0.096390
C16	C	0.607949	-0.062337	0.106132
C17	C	0.716823	-0.073493	0.107409
C18	C	0.764363	-0.180857	0.103178
C19	C	0.873239	-0.192012	0.104462
C20	C	0.887023	0.011550	0.114197
C21	C	0.778149	0.022707	0.112920
C22	C	1.339418	-0.666862	0.175099
C23	C	1.331478	-0.784390	0.169481
C24	C	1.197074	-0.770656	0.074530
C25	C	1.205014	-0.653127	0.080148
C26	C	1.276187	-0.601235	0.130435
C27	C	1.284121	-0.483704	0.136057
C28	C	1.149723	-0.469972	0.041102
C29	C	1.141783	-0.587500	0.035484
C30	C	1.430740	-0.146672	0.099264
C31	C	1.546615	-0.158544	0.100623
C32	C	1.236260	-0.126744	-0.038052
C33	C	1.226951	-0.125789	-0.125081
N34	N	1.260307	0.163709	0.119199
C35	C	1.316776	-0.135000	-0.175467
C36	C	1.308023	-0.134092	-0.257239
C37	C	1.209443	-0.123981	-0.288624
C38	C	1.119612	-0.114766	-0.238231
C39	C	1.128366	-0.115666	-0.156460
C40	C	1.173160	-0.120245	-0.532162
C41	C	1.164412	-0.119349	-0.613939
C42	C	1.352825	-0.138672	-0.632942
C43	C	1.361570	-0.139579	-0.551169
C44	C	1.271739	-0.130358	-0.500783
N45	N	1.200494	-0.123056	-0.372208
N46	N	1.280690	-0.131275	-0.417200
C47	C	1.244927	-0.127612	0.248645
C48	C	1.254238	-0.128560	0.335675
H49	H	0.911944	-0.279433	0.101021
H50	H	0.741744	-0.364476	0.094233
Br51	Br	1.051245	-0.107725	-0.463791
H52	H	1.397049	-0.143240	-0.149921
H53	H	1.139139	-0.812928	0.033581
Br54	Br	0.970256	0.142116	0.121695
H55	H	1.397360	-0.624610	0.216051
H56	H	1.055220	-0.108166	-0.115436
H57	H	0.544235	-0.344236	0.091908
Br58	Br	1.045198	-0.657936	-0.032759
Br59	Br	1.417299	-0.873455	0.230094
Br60	Br	0.713624	0.168406	0.118630
H61	H	0.569224	0.025073	0.109563
H62	H	1.098231	-0.416524	0.004738
Br63	Br	1.380710	-0.413279	0.204302
Br64	Br	0.985824	-0.101026	-0.280822
H65	H	1.381168	-0.141594	-0.298261
H66	H	1.441844	-0.147812	-0.525622
H67	H	1.425960	-0.146177	-0.673974
H68	H	1.084132	-0.111134	-0.639490
