data_functionalizedCrystal
_audit_creation_method	'MofGen! by Chris Wilmer'
_symmetry_space_group_name_H-M	'P1'
_symmetry_Int_Tables_number	1
_symmetry_cell_setting	triclinic
loop_
_symmetry_equiv_pos_as_xyz
  x,y,z
_cell_length_a	14.560438
_cell_length_b	18.760487
_cell_length_c	14.560438
_cell_angle_alpha	90.034780
_cell_angle_beta	59.998713
_cell_angle_gamma	60.024642
loop_
_atom_site_label
_atom_site_type_symbol
_atom_site_fract_x
_atom_site_fract_y
_atom_site_fract_z
Zr1	Zr	1.005227	0.686757	-0.119959
O2	O	1.196821	0.572955	-0.266694
O3	O	0.813635	0.721634	-0.074980
O4	O	1.005230	0.721648	-0.266580
O5	O	1.005224	0.572941	0.076047
O6	O	1.005229	0.838951	-0.266487
O7	O	1.005227	0.572941	-0.075094
O8	O	0.662501	0.838926	0.076250
O9	O	1.347952	0.572966	-0.266691
O10	O	0.892439	0.824062	-0.055724
O11	O	0.892437	0.736520	0.057001
O12	O	1.118015	0.736537	-0.168583
O13	O	1.118013	0.648995	-0.055858
Zr14	Zr	1.005223	0.873842	0.121241
Zr15	Zr	1.005227	0.873842	-0.119811
Zr16	Zr	1.005223	0.686757	0.121093
Zr17	Zr	1.246263	0.686775	-0.119954
Zr18	Zr	0.764187	0.873824	0.121236
O19	O	1.196815	0.838965	0.076262
O20	O	1.196821	0.838965	-0.266483
O21	O	1.196815	0.572955	0.076051
O22	O	0.813629	0.987644	0.267976
O23	O	0.813634	0.987644	-0.074769
O24	O	0.813629	0.721634	0.267765
O25	O	1.005226	0.987658	-0.074765
O26	O	1.005220	0.838951	0.267862
O27	O	1.005220	0.721648	0.267769
O28	O	1.005223	0.987658	0.076376
O29	O	1.347952	0.721673	-0.266573
O30	O	0.662498	0.838926	0.267854
O31	O	0.662498	0.987633	0.267972
O32	O	0.662501	0.987633	0.076368
O33	O	1.347949	0.572966	-0.075086
O34	O	1.347948	0.721673	-0.074968
O35	O	0.892435	0.824062	0.169865
O36	O	0.892437	0.911604	0.057140
O37	O	1.118013	0.824079	-0.055719
O38	O	1.118011	0.736537	0.057006
C39	C	0.703726	0.780277	0.000634
C40	C	0.601400	0.780270	0.000632
C41	C	0.373897	0.844931	0.083963
C42	C	0.470072	0.844904	0.083952
C43	C	0.636552	0.715664	-0.082690
C44	C	0.540378	0.715696	-0.082683
C45	C	0.277782	0.919545	0.180176
C46	C	0.373957	0.919517	0.180165
C47	C	1.005225	0.546285	0.000455
C48	C	1.005225	0.466863	0.000392
C49	C	1.122978	0.085359	-0.058075
C50	C	0.887472	0.176741	0.059752
C51	C	0.887470	0.251363	0.059655
C52	C	1.005224	0.242986	0.000692
C53	C	1.122980	0.159986	-0.058176
C54	C	0.769717	0.334367	0.118512
C55	C	0.769710	0.408996	0.118417
C56	C	0.887465	0.400619	0.059459
C57	C	1.005226	0.317613	0.000590
C58	C	1.122979	0.309236	-0.058374
C59	C	1.240741	0.226231	-0.117237
C60	C	1.240735	0.151610	-0.117134
C61	C	0.887472	0.475240	0.059356
C62	C	1.122981	0.383863	-0.058475
C63	C	1.306724	0.780322	0.000648
C64	C	1.409050	0.780329	0.000650
C65	C	1.005230	0.780299	-0.300879
C66	C	1.005232	0.780299	-0.403212
C67	C	1.005225	1.014314	0.000826
C68	C	1.005224	1.093736	0.000889
C69	C	1.122978	0.734608	-0.510199
C70	C	1.122972	0.734611	-0.606348
C71	C	0.887463	0.825996	-0.488508
C72	C	0.887470	0.825998	-0.392361
C73	C	1.258948	0.681844	-0.578234
C74	C	1.258942	0.681847	-0.674383
C75	C	1.005220	0.780300	0.302160
C76	C	1.005218	0.780300	0.404493
C77	C	0.703725	1.014292	0.000820
C78	C	0.601399	1.093706	0.000880
C79	C	0.703721	0.780277	0.302154
C80	C	0.601393	0.780270	0.404484
C81	C	0.703720	1.014292	0.302339
C82	C	0.601392	1.093707	0.404733
C83	C	1.306730	0.546307	-0.301057
C84	C	1.409058	0.466892	-0.403451
C85	C	1.306725	0.546307	0.000462
C86	C	1.409051	0.466893	0.000401
C87	C	1.306729	0.780321	-0.300872
C88	C	1.409057	0.780329	-0.403203
C89	C	0.553347	1.085304	-0.058015
C90	C	0.457214	1.159916	-0.057981
C91	C	0.409128	1.242928	0.000957
C92	C	0.457190	1.251329	0.059854
C93	C	0.553328	1.176718	0.059812
C94	C	0.553339	1.176704	0.393977
C95	C	0.457204	1.251330	0.490177
C96	C	0.409118	1.242956	0.597133
C97	C	0.457181	1.159950	0.607887
C98	C	0.553320	1.085326	0.511687
C99	C	1.457123	0.383895	-0.392695
C100	C	1.553287	0.309269	-0.488895
C101	C	1.601378	0.317643	-0.595851
C102	C	1.553309	0.400649	-0.606605
C103	C	1.457153	0.475273	-0.510406
C104	C	1.457113	0.475295	0.059287
C105	C	1.553273	0.400683	0.059226
C106	C	1.601362	0.317671	0.000285
C107	C	1.553295	0.309270	-0.058608
C108	C	1.457144	0.383881	-0.058552
C109	C	0.553313	0.825964	0.511473
C110	C	0.457170	0.825950	0.607620
C111	C	0.457192	0.734547	0.489775
C112	C	0.553339	0.734556	0.393631
C113	C	0.553296	0.878738	0.579511
C114	C	0.457153	0.878724	0.675658
H115	H	0.373977	0.978860	0.163410
C116	C	1.707126	0.235605	0.000242
N117	N	1.786783	0.173795	0.000217
H118	H	1.679674	0.256872	-0.674174
C119	C	1.404277	0.566569	-0.522257
N120	N	1.364453	0.635333	-0.531191
C121	C	1.404240	0.566602	0.124125
N122	N	1.364428	0.635373	0.172958
C123	C	0.781017	0.644571	-0.174350
N124	N	0.889829	0.591022	-0.243391
H125	H	0.363143	0.913068	0.262272
H126	H	0.791590	0.863214	-0.305250
H127	H	0.517164	0.946296	0.570835
H128	H	0.418055	0.697328	0.480951
C129	C	1.606189	0.217948	-0.123420
N130	N	1.646021	0.149162	-0.172225
H131	H	1.418014	0.377028	-0.106501
H132	H	0.592495	0.697338	0.306518
H133	H	0.643303	0.849394	0.579508
H134	H	0.330835	1.303727	0.675455
C135	C	0.505951	0.831704	0.744426
N136	N	0.542703	0.796289	0.796222
C137	C	1.329453	0.587459	-0.744969
N138	N	1.382557	0.516369	-0.798133
C139	C	0.404262	1.150753	0.725549
N140	N	0.364392	1.143829	0.814175
H141	H	1.218872	0.377031	-0.106479
H142	H	0.791585	0.863203	-0.479687
C143	C	1.606212	0.409846	-0.724267
N144	N	1.646053	0.416770	-0.812894
H145	H	0.569011	0.663097	-0.150532
C146	C	0.335535	0.973106	0.746248
N147	N	0.243934	1.044192	0.799413
C148	C	0.404272	1.342651	0.124690
N149	N	0.364404	1.411437	0.173531
C150	C	0.192700	1.005648	0.169041
N151	N	0.128623	1.070497	0.160648
H152	H	0.673848	0.341180	0.166517
C153	C	0.606223	1.185937	0.276334
N154	N	0.646056	1.192898	0.187728
C155	C	0.303364	1.324994	0.001000
N156	N	0.223698	1.386804	0.001033
H157	H	0.218109	0.906510	0.256637
H158	H	1.592392	0.407540	0.107188
C159	C	0.606230	0.993997	-0.122863
N160	N	0.646062	0.925226	-0.171716
C161	C	1.370266	0.217027	-0.182098
N162	N	1.467822	0.210098	-0.230950
H163	H	1.218857	0.017774	-0.105996
C164	C	1.370261	0.060303	-0.181892
N165	N	1.467819	-0.008472	-0.230674
H166	H	0.418081	1.318911	0.481401
C167	C	0.606166	0.994030	0.523539
N168	N	0.645966	0.925266	0.532473
C169	C	1.404249	0.374662	-0.275052
N170	N	1.364437	0.367701	-0.186446
H171	H	0.592440	1.183571	0.107778
C172	C	0.640171	0.500295	0.183174
N173	N	0.542601	0.569063	0.231954
H174	H	0.791603	0.183555	0.107754
H175	H	1.311160	0.711198	-0.578232
C176	C	0.757942	0.566539	0.124101
N177	N	0.660373	0.635308	0.172873
C178	C	1.315952	0.590577	-0.566511
N179	N	1.358889	0.521834	-0.557681
H180	H	1.301131	0.716667	-0.725277
C181	C	1.606143	0.217970	-0.477040
N182	N	1.645952	0.149206	-0.468108
H183	H	0.418093	1.153059	-0.105942
