data_functionalizedCrystal
_audit_creation_method	'MofGen! by Chris Wilmer'
_symmetry_space_group_name_H-M	'P1'
_symmetry_Int_Tables_number	1
_symmetry_cell_setting	triclinic
loop_
_symmetry_equiv_pos_as_xyz
  x,y,z
_cell_length_a	19.188905
_cell_length_b	17.666332
_cell_length_c	10.654541
_cell_angle_alpha	89.993802
_cell_angle_beta	96.190758
_cell_angle_gamma	90.016479
loop_
_atom_site_label
_atom_site_type_symbol
_atom_site_fract_x
_atom_site_fract_y
_atom_site_fract_z
O1	O	0.927184	0.063073	-0.156632
O2	O	0.724009	0.063047	-0.177771
O3	O	0.830269	0.063056	0.015638
O4	O	0.820924	0.063064	-0.350041
O5	O	0.830250	-0.062841	0.015648
O6	O	0.723990	-0.062850	-0.177760
O7	O	0.927166	-0.062824	-0.156622
Cu8	Cu	0.825576	-0.074332	-0.167190
Cu9	Cu	0.825598	0.074555	-0.167202
O10	O	0.820905	-0.062833	-0.350030
C11	C	0.697984	0.000095	-0.177086
C12	C	0.620465	0.000085	-0.175047
N13	N	0.825565	-0.179052	-0.167181
C14	C	0.584077	0.068714	-0.174073
C15	C	0.511241	0.068723	-0.172143
C16	C	0.474797	0.000100	-0.171162
C17	C	0.511193	-0.068537	-0.172143
C18	C	0.584027	-0.068545	-0.174086
N19	N	0.365282	-0.050971	-0.096644
N20	N	0.296093	-0.050959	-0.094796
C21	C	0.255352	0.000118	-0.165312
N22	N	0.286415	0.051195	-0.237729
N23	N	0.355611	0.051186	-0.239572
C24	C	0.395821	0.000101	-0.169056
C25	C	0.139987	0.068761	-0.162247
C26	C	0.067148	0.068768	-0.160325
C27	C	0.067103	-0.068494	-0.160312
C28	C	0.139939	-0.068499	-0.162247
C29	C	0.176377	0.000131	-0.163208
C30	C	0.872633	-0.218657	-0.081582
C31	C	0.872637	-0.297905	-0.081576
C32	C	0.825580	-0.337544	-0.167191
C33	C	0.778504	-0.297928	-0.252797
C34	C	0.778496	-0.218682	-0.252792
N35	N	0.817230	-0.461961	-0.278359
N36	N	0.817242	-0.537241	-0.278359
C37	C	0.825599	-0.576308	-0.167208
N38	N	0.833958	-0.537250	-0.056052
N39	N	0.833950	-0.461963	-0.056053
C40	C	0.825583	-0.423473	-0.167205
C41	C	0.872673	-0.701843	-0.081595
C42	C	0.872672	-0.781092	-0.081587
C43	C	0.778543	-0.781114	-0.252819
C44	C	0.778540	-0.701866	-0.252816
C45	C	0.825609	-0.662236	-0.167205
C46	C	0.953191	0.000130	-0.157307
C47	C	1.030709	0.000144	-0.159346
C48	C	0.829574	0.000108	0.062426
C49	C	0.827522	0.000109	0.201826
N50	N	0.825614	0.179275	-0.167202
C51	C	0.821601	0.000117	-0.396819
C52	C	0.823652	0.000121	-0.536219
C53	C	0.954585	0.000115	0.232506
C54	C	1.017149	0.000117	0.313334
C55	C	1.015217	0.000119	0.444311
C56	C	0.950714	0.000122	0.494461
C57	C	0.888149	0.000120	0.413633
C58	C	0.890088	0.000116	0.282655
C59	C	0.761088	0.000119	0.382953
C60	C	0.763018	0.000112	0.251976
C61	C	0.696584	0.000122	0.433103
C62	C	0.634018	0.000115	0.352274
C63	C	0.635953	0.000112	0.221290
C64	C	0.700454	0.000110	0.171148
H65	H	0.613740	0.124598	-0.174856
O66	O	0.732750	-0.180323	-0.336074
C67	C	0.639359	-0.188707	-0.505857
C68	C	0.691138	-0.232245	-0.411625
H69	H	0.605692	-0.230667	-0.566947
H70	H	0.669765	-0.151612	-0.568541
H71	H	0.604252	-0.151602	-0.451772
H72	H	0.726258	-0.269391	-0.465607
H73	H	0.660688	-0.269293	-0.348942
O74	O	0.575195	0.000245	0.142725
C75	C	0.503670	0.065442	-0.023018
C76	C	0.572497	0.065394	0.065898
H77	H	0.501473	0.118101	-0.085174
H78	H	0.457214	0.065494	0.035266
H79	H	0.501391	0.012728	-0.085035
H80	H	0.574845	0.118099	0.127933
H81	H	0.618921	0.065302	0.007539
H82	H	0.702035	0.000103	0.064501
H83	H	0.740188	-0.330206	-0.322504
O84	O	0.031801	-0.135205	-0.159192
C85	C	0.016847	-0.252500	-0.049778
C86	C	0.056895	-0.176983	-0.050900
H87	H	0.037110	-0.286292	0.037781
H88	H	0.025203	-0.286395	-0.137961
H89	H	-0.041462	-0.240693	-0.048287
H90	H	0.115216	-0.188721	-0.052347
H91	H	0.048481	-0.143111	0.037277
O92	O	0.918414	-0.663457	0.001693
C93	C	1.011802	-0.671798	0.171483
C94	C	0.960029	-0.715360	0.077247
H95	H	1.045471	-0.713742	0.232574
H96	H	0.981391	-0.634733	0.234165
H97	H	1.046907	-0.634659	0.117402
H98	H	0.924911	-0.752540	0.131225
H99	H	0.990483	-0.752377	0.014566
O100	O	0.918328	-0.336309	0.001751
C101	C	0.958162	-0.360612	0.220295
C102	C	0.906392	-0.317060	0.126067
H103	H	0.948520	-0.345077	0.320825
H104	H	1.014174	-0.344997	0.204294
H105	H	0.950087	-0.424054	0.205513
H106	H	0.914403	-0.253608	0.140792
H107	H	0.850399	-0.332738	0.142091
H108	H	0.481516	-0.124410	-0.171347
O109	O	0.175378	-0.135118	-0.163008
C110	C	0.264945	-0.214806	-0.056373
C111	C	0.224877	-0.139322	-0.055367
H112	H	0.304964	-0.218237	0.030658
H113	H	0.293122	-0.218254	-0.145085
H114	H	0.226371	-0.263839	-0.055399
H115	H	0.263405	-0.090246	-0.056295
H116	H	0.196689	-0.135940	0.033338
O117	O	0.732733	-0.819575	-0.335863
C118	C	0.611694	-0.843826	-0.410059
C119	C	0.663499	-0.800232	-0.315924
H120	H	0.555707	-0.828192	-0.393989
H121	H	0.619720	-0.907279	-0.395362
H122	H	0.621310	-0.828241	-0.510589
H123	H	0.653914	-0.815754	-0.215357
H124	H	0.655461	-0.736790	-0.330732
H125	H	0.169655	0.124644	-0.163043
H126	H	0.910998	-0.813340	-0.011875
O127	O	0.732894	-0.663425	-0.336154
C128	C	0.693007	-0.639215	-0.554706
C129	C	0.744756	-0.682782	-0.460462
H130	H	0.702570	-0.654862	-0.655228
H131	H	0.701082	-0.575758	-0.540111
H132	H	0.637017	-0.654813	-0.538536
H133	H	0.800766	-0.667248	-0.476574
H134	H	0.736619	-0.746228	-0.475079
O135	O	0.956588	0.000140	0.105306
C136	C	1.029083	0.000075	-0.065819
C137	C	1.026914	0.000067	0.078257
H138	H	1.085936	-0.000000	-0.087734
H139	H	1.001510	0.052773	-0.108254
H140	H	1.001400	-0.052602	-0.108136
H141	H	1.054605	0.052708	0.120682
H142	H	1.054465	-0.052666	0.120601
O143	O	1.079822	0.000250	0.264675
C144	C	1.189047	0.065454	0.250865
C145	C	1.118090	0.065403	0.306027
H146	H	1.220013	0.118117	0.284298
H147	H	1.179724	0.065501	0.143364
H148	H	1.219956	0.012744	0.284167
H149	H	1.087145	0.118104	0.272821
H150	H	1.127463	0.065317	0.413522
H151	H	0.910958	-0.186392	-0.011870
H152	H	1.066163	0.000127	0.510123
H153	H	0.613654	-0.124432	-0.174880
O154	O	0.031865	0.135486	-0.159549
C155	C	0.002198	0.252793	-0.267751
C156	C	0.042202	0.177270	-0.268775
H157	H	0.010528	0.286590	-0.356063
H158	H	0.022512	0.286679	-0.180323
H159	H	-0.056112	0.240995	-0.266142
H160	H	0.100517	0.188999	-0.270429
H161	H	0.021830	0.143407	-0.356193
H162	H	0.949146	0.000133	0.601111
O163	O	0.475995	0.135459	-0.171145
C164	C	0.483717	0.271602	-0.171426
C165	C	0.523718	0.196079	-0.172527
H166	H	0.522281	0.320633	-0.172570
H167	H	0.455613	0.275082	-0.082633
H168	H	0.443627	0.274996	-0.258361
H169	H	0.563841	0.192634	-0.085653
H170	H	0.551774	0.192631	-0.261378
O171	O	0.694580	0.000160	0.560302
C172	C	0.622081	0.000121	0.731423
C173	C	0.624253	0.000097	0.587347
H174	H	0.565227	0.000054	0.753334
H175	H	0.649683	0.052822	0.773830
H176	H	0.649733	-0.052553	0.773770
H177	H	0.596592	0.052736	0.544891
H178	H	0.596672	-0.052639	0.545031
O179	O	0.571349	0.000254	0.400930
C180	C	0.462155	0.065455	0.414714
C181	C	0.533110	0.065402	0.359545
H182	H	0.431213	0.118114	0.381255
H183	H	0.471481	0.065513	0.522215
H184	H	0.431221	0.012741	0.381443
H185	H	0.564081	0.118107	0.392720
H186	H	0.523735	0.065305	0.252050
