data_functionalizedCrystal
_audit_creation_method	'MofGen! by Chris Wilmer'
_symmetry_space_group_name_H-M	'P1'
_symmetry_Int_Tables_number	1
_symmetry_cell_setting	triclinic
loop_
_symmetry_equiv_pos_as_xyz
  x,y,z
_cell_length_a	12.759401
_cell_length_b	18.050589
_cell_length_c	12.759393
_cell_angle_alpha	89.969379
_cell_angle_beta	89.981504
_cell_angle_gamma	90.028382
loop_
_atom_site_label
_atom_site_type_symbol
_atom_site_fract_x
_atom_site_fract_y
_atom_site_fract_z
Zn1	Zn	1.606157	-0.295612	-0.593988
Zn2	Zn	1.606010	-0.419823	-0.418311
Zn3	Zn	1.430459	-0.295651	-0.418328
Zn4	Zn	1.430406	-0.419766	-0.593953
O5	O	1.518258	-0.357713	-0.506145
O6	O	1.753158	-0.312097	-0.570692
O7	O	1.582683	-0.403391	-0.271292
O8	O	1.453849	-0.191722	-0.441651
O9	O	1.753050	-0.403354	-0.441623
O10	O	1.582934	-0.191693	-0.570708
O11	O	1.453706	-0.312163	-0.271304
O12	O	1.283431	-0.312108	-0.441617
O13	O	1.453759	-0.403256	-0.740979
O14	O	1.283392	-0.403294	-0.570648
O15	O	1.582882	-0.312041	-0.741005
O16	O	1.582632	-0.523740	-0.441589
O17	O	1.453616	-0.523698	-0.570632
C18	C	1.245290	-0.357699	-0.506131
C19	C	1.128514	-0.357711	-0.506149
C20	C	1.073659	-0.405268	-0.573225
C21	C	0.963935	-0.405277	-0.573236
C22	C	0.963930	-0.310171	-0.439088
C23	C	1.073652	-0.310159	-0.439083
C24	C	1.073661	-0.460179	-0.650671
C25	C	0.963937	-0.460188	-0.650683
C26	C	1.518131	-0.550665	-0.506127
C27	C	1.518173	-0.633211	-0.506155
C28	C	1.448083	-0.832666	-0.576304
C29	C	1.422469	-0.882114	-0.480436
C30	C	1.518276	-0.784341	-0.506169
C31	C	1.543942	-0.881974	-0.602048
C32	C	1.518374	-0.930326	-0.506191
C33	C	1.492611	-0.832703	-0.410250
C34	C	1.614129	-0.832558	-0.531927
C35	C	1.588551	-0.881985	-0.435992
C36	C	1.518217	-0.700243	-0.506158
C37	C	1.518433	-1.014423	-0.506191
C38	C	1.792291	-0.357727	-0.506160
C39	C	1.909068	-0.357733	-0.506166
C40	C	1.518331	-0.357638	-0.780178
C41	C	1.518363	-0.357606	-0.896955
C42	C	1.518414	-0.164007	-0.506185
C43	C	1.518480	-0.081462	-0.506203
C44	C	1.585606	-0.310106	-0.951832
C45	C	1.585631	-0.310079	-1.061557
C46	C	1.451166	-0.405059	-1.061516
C47	C	1.451136	-0.405081	-0.951794
C48	C	1.663242	-0.255273	-0.951857
C49	C	1.663267	-0.255246	-1.061581
C50	C	1.518245	-0.357734	-0.233178
C51	C	1.518417	-0.357557	-0.116401
H52	H	1.107657	-0.514786	-0.621388
H53	H	1.103474	-0.444840	-0.732077
H54	H	1.396376	-0.443758	-0.907117
H55	H	1.388636	-0.811010	-0.635531
H56	H	1.647952	-0.903503	-0.376622
H57	H	1.695124	-0.810777	-0.553739
H58	H	1.565611	-0.903618	-0.683124
H59	H	1.396430	-0.443710	-1.106180
H60	H	1.641493	-0.197759	-0.922099
H61	H	1.740507	-0.275891	-0.917821
H62	H	1.341455	-0.903898	-0.458669
H63	H	0.934122	-0.517692	-0.628752
H64	H	1.634172	-0.200598	-1.095627
H65	H	0.929946	-0.439658	-0.728034
H66	H	1.744633	-0.270650	-1.091359
H67	H	1.470848	-0.811149	-0.329152
H68	H	1.118311	-0.271429	-0.384470
H69	H	0.919248	-0.271455	-0.384485
