data_functionalizedCrystal
_audit_creation_method	'MofGen! by Chris Wilmer'
_symmetry_space_group_name_H-M	'P1'
_symmetry_Int_Tables_number	1
_symmetry_cell_setting	triclinic
loop_
_symmetry_equiv_pos_as_xyz
  x,y,z
_cell_length_a	19.188930
_cell_length_b	11.026607
_cell_length_c	10.065918
_cell_angle_alpha	82.346549
_cell_angle_beta	80.099055
_cell_angle_gamma	95.865398
loop_
_atom_site_label
_atom_site_type_symbol
_atom_site_fract_x
_atom_site_fract_y
_atom_site_fract_z
O1	O	-0.956629	-0.167239	0.113944
O2	O	-0.755906	-0.187607	0.113851
O3	O	-0.839631	-0.000857	0.113885
O4	O	-0.872903	-0.353990	0.113910
O5	O	-0.817331	0.030702	-0.113115
O6	O	-0.733605	-0.156048	-0.113148
O7	O	-0.934328	-0.135680	-0.113056
Zn8	Zn	-0.830426	-0.140853	-0.149143
Zn9	Zn	-0.859808	-0.182434	0.149939
O10	O	-0.850603	-0.322431	-0.113089
C11	C	-0.822343	0.060101	0.000384
C12	C	-0.804046	0.194719	0.000380
C13	C	-0.718659	-0.171166	0.000339
C14	C	-0.640899	-0.169180	0.000303
C15	C	-0.971575	-0.152122	0.000459
C16	C	-1.049337	-0.154109	0.000504
C17	C	-0.609943	-0.278766	0.000333
C18	C	-0.536884	-0.276906	0.000347
C19	C	-0.494785	-0.165459	0.000360
C20	C	-0.525748	-0.055857	0.000323
C21	C	-0.598805	-0.057718	0.000295
N22	N	-0.383542	-0.091017	0.077667
N23	N	-0.314142	-0.089258	0.077697
C24	C	-0.274668	-0.159846	0.000444
N25	N	-0.307218	-0.232281	-0.076824
N26	N	-0.376626	-0.234045	-0.076848
C27	C	-0.415566	-0.163429	0.000391
C28	C	-0.164493	-0.267423	0.000487
C29	C	-0.091431	-0.265558	0.000493
C30	C	-0.080297	-0.044508	0.000483
C31	C	-0.153357	-0.046374	0.000463
C32	C	-0.195451	-0.157836	0.000471
C33	C	-0.867891	-0.383389	0.000415
C34	C	-0.886189	-0.518008	0.000427
N35	N	-0.810379	-0.112475	-0.353259
C36	C	-0.854569	0.268789	0.000406
C37	C	-0.835659	0.407923	0.000402
C38	C	-0.852828	-0.172561	-0.421017
C39	C	-0.837404	-0.150708	-0.578191
N40	N	-0.879860	-0.210802	0.354054
H41	H	-0.511674	-0.366147	0.000367
O42	O	-0.183443	0.060077	0.000213
C43	C	-0.247927	0.202572	-0.117373
C44	C	-0.213870	0.082005	-0.117272
H45	H	-0.272550	0.220326	-0.212335
H46	H	-0.205313	0.282610	-0.117446
H47	H	-0.291180	0.193990	-0.022342
H48	H	-0.170625	0.090466	-0.212287
H49	H	-0.256527	0.002014	-0.117128
H50	H	-0.624007	0.031523	0.000272
H51	H	-0.491468	0.034882	0.000353
H52	H	-0.789641	-0.083082	-0.636537
H53	H	-0.943458	0.442394	0.000556
O54	O	-0.922883	0.221741	0.000259
C55	C	-1.022138	0.224372	-0.117322
C56	C	-0.944774	0.277772	-0.117314
H57	H	-1.039856	0.269632	-0.212384
H58	H	-1.058604	0.243306	-0.022373
H59	H	-1.025211	0.120565	-0.117254
H60	H	-0.941633	0.381587	-0.117430
H61	H	-0.908344	0.258742	-0.212255
O62	O	-0.735770	0.242148	0.000293
C63	C	-0.654686	0.424043	0.000354
C64	C	-0.732034	0.370503	0.000419
H65	H	-0.651643	0.527821	0.000485
H66	H	-0.618230	0.405254	-0.094681
H67	H	-0.636930	0.378663	0.095317
H68	H	-0.749856	0.415850	-0.094480
H69	H	-0.768444	0.389278	0.095517
H70	H	-0.644212	-0.369527	0.000342
O71	O	-0.909776	-0.253385	-0.351567
C72	C	-0.967261	-0.463279	-0.307461
C73	C	-0.902737	-0.371870	-0.386217
H74	H	-0.961585	-0.559099	-0.335425
H75	H	-1.018390	-0.431955	-0.335456
H76	H	-0.969553	-0.466462	-0.193107
H77	H	-0.900377	-0.368643	-0.500589
H78	H	-0.851639	-0.403228	-0.358108
O79	O	-0.936811	-0.291633	-0.576509
C80	C	-0.994294	-0.501528	-0.532427
C81	C	-0.929769	-0.410115	-0.611169
H82	H	-0.988615	-0.597345	-0.560399
H83	H	-1.045422	-0.470203	-0.560428
H84	H	-0.996591	-0.504719	-0.418071
H85	H	-0.927404	-0.406880	-0.725543
H86	H	-0.878673	-0.441474	-0.583054
H87	H	-0.762619	-0.044853	-0.411609
H88	H	-0.046029	0.046223	0.000578
O89	O	-0.205278	-0.375787	0.000420
C90	C	-0.208619	-0.594849	0.000510
C91	C	-0.162348	-0.472210	0.000554
H92	H	-0.173932	-0.672843	0.000647
H93	H	-0.233733	-0.588117	-0.094520
H94	H	-0.252466	-0.614387	0.095478
H95	H	-0.118465	-0.452598	-0.094349
H96	H	-0.137286	-0.479003	0.095647
H97	H	-0.066228	-0.354799	0.000509
H98	H	-0.778402	0.447508	0.000384
