data_functionalizedCrystal
_audit_creation_method	'MofGen! by Chris Wilmer'
_symmetry_space_group_name_H-M	'P1'
_symmetry_Int_Tables_number	1
_symmetry_cell_setting	triclinic
loop_
_symmetry_equiv_pos_as_xyz
  x,y,z
_cell_length_a	19.288859
_cell_length_b	6.394989
_cell_length_c	17.766277
_cell_angle_alpha	90.003244
_cell_angle_beta	89.989768
_cell_angle_gamma	95.184282
loop_
_atom_site_label
_atom_site_type_symbol
_atom_site_fract_x
_atom_site_fract_y
_atom_site_fract_z
O1	O	0.923907	-0.260485	-0.062604
O2	O	0.721990	-0.295645	-0.062602
O3	O	0.825815	0.026026	-0.062604
O4	O	0.820083	-0.582156	-0.062603
O5	O	0.825796	0.026043	0.062585
O6	O	0.721971	-0.295629	0.062587
O7	O	0.923888	-0.260468	0.062584
Cu8	Cu	0.822928	-0.278047	0.074016
Cu9	Cu	0.822950	-0.278066	-0.074034
O10	O	0.820064	-0.582140	0.062586
C11	C	0.696093	-0.294508	-0.000007
C12	C	0.618956	-0.291118	-0.000007
C13	C	0.056539	-0.456930	-0.000008
C14	C	0.129017	-0.460133	-0.000012
C15	C	0.171875	-0.271391	-0.000010
C16	C	0.142250	-0.079431	-0.000025
C17	C	0.069774	-0.076233	-0.000028
C18	C	0.291760	-0.130622	0.043851
C19	C	0.364235	-0.133828	0.043859
C20	C	0.395418	-0.281246	-0.000003
C21	C	0.354115	-0.425494	-0.043863
C22	C	0.281638	-0.422296	-0.043867
C23	C	0.250465	-0.274837	-0.000007
C24	C	0.503623	-0.476667	0.000002
C25	C	0.576103	-0.479863	-0.000007
C26	C	0.589335	-0.099155	-0.000012
C27	C	0.516856	-0.095965	-0.000011
C28	C	0.474005	-0.284727	-0.000001
C29	C	0.949785	-0.261606	-0.000012
C30	C	1.026922	-0.264995	-0.000018
C31	C	0.824672	0.103845	-0.000012
C32	C	0.821208	0.340047	-0.000013
N33	N	0.822917	-0.278032	0.178146
N34	N	0.822966	-0.278065	-0.178164
C35	C	0.868907	-0.135666	0.217533
C36	C	0.868911	-0.135656	0.296334
C37	C	0.822932	-0.278049	0.335747
C38	C	0.776934	-0.420426	0.296351
C39	C	0.776927	-0.420418	0.217551
C40	C	0.815497	-0.468351	0.460585
C41	C	0.815509	-0.468362	0.539384
C42	C	0.822951	-0.278074	0.578793
C43	C	0.830395	-0.087767	0.539394
C44	C	0.830387	-0.087759	0.460594
C45	C	0.822935	-0.278073	0.421193
C46	C	0.868947	-0.135685	0.703625
C47	C	0.868946	-0.135673	0.782429
C48	C	0.776973	-0.420461	0.782444
C49	C	0.776970	-0.420456	0.703642
C50	C	0.822961	-0.278070	0.664238
H51	H	0.379501	-0.545541	-0.079578
Cl52	Cl	0.032539	0.165077	-0.000043
H53	H	0.600215	-0.636165	-0.000005
Cl54	Cl	0.926760	0.043324	0.654087
Cl55	Cl	0.926762	0.043330	0.831946
Cl56	Cl	0.449750	-0.713962	0.000012
H57	H	0.624229	0.054523	-0.000017
H58	H	0.739534	-0.536392	0.814533
Cl59	Cl	0.719156	-0.599450	0.654124
Cl60	Cl	0.839737	0.151472	0.411065
H61	H	0.492742	0.060329	-0.000015
H62	H	0.809425	-0.623316	0.428505
H63	H	0.809453	-0.623320	0.571457
Cl64	Cl	0.839756	0.151469	0.588928
H65	H	0.397859	-0.016383	0.079577
H66	H	0.739496	-0.536362	0.328445
H67	H	0.177150	0.074244	-0.000026
H68	H	0.266379	-0.010566	0.079570
Cl69	Cl	0.926732	0.043334	0.345857
Cl70	Cl	0.926719	0.043340	0.167996
Cl71	Cl	0.719107	-0.599410	0.168034
H72	H	0.153136	-0.616434	0.000004
Cl73	Cl	0.229718	-0.603614	-0.099008
Cl74	Cl	0.002673	-0.694231	-0.000004
