data_functionalizedCrystal
_audit_creation_method	'MofGen! by Chris Wilmer'
_symmetry_space_group_name_H-M	'P1'
_symmetry_Int_Tables_number	1
_symmetry_cell_setting	triclinic
loop_
_symmetry_equiv_pos_as_xyz
  x,y,z
_cell_length_a	23.532361
_cell_length_b	23.532407
_cell_length_c	22.010155
_cell_angle_alpha	89.990798
_cell_angle_beta	89.988583
_cell_angle_gamma	82.839173
loop_
_atom_site_label
_atom_site_type_symbol
_atom_site_fract_x
_atom_site_fract_y
_atom_site_fract_z
O1	O	0.755286	0.069007	-0.050470
O2	O	0.589419	0.079038	-0.050486
O3	O	0.677354	-0.008910	-0.050466
O4	O	0.667351	0.156955	-0.050490
O5	O	0.677328	-0.008910	0.050584
O6	O	0.589393	0.079038	0.050565
O7	O	0.755260	0.069007	0.050580
Cu8	Cu	0.672324	0.074023	0.059799
Cu9	Cu	0.672355	0.074023	-0.059705
O10	O	0.667324	0.156955	0.050561
C11	C	0.568189	0.078787	0.000038
C12	C	0.504971	0.078032	0.000032
C13	C	0.677086	-0.030126	0.000060
C14	C	0.676320	-0.093343	0.000065
C15	C	0.231741	0.074728	-0.055046
C16	C	0.291141	0.075443	-0.055048
O17	O	0.321879	0.075793	-0.101892
N18	N	0.320832	0.075804	0.000035
C19	C	0.291122	0.075445	0.055123
O20	O	0.321831	0.075817	0.101975
C21	C	0.231724	0.074726	0.055124
C22	C	0.202035	0.074370	0.000037
C23	C	0.202052	0.074372	-0.110128
C24	C	0.142657	0.073658	-0.110126
C25	C	0.112950	0.073301	-0.055043
C26	C	0.142639	0.073657	0.000039
C27	C	0.202015	0.074362	0.110211
C28	C	0.142612	0.073642	0.110207
C29	C	0.112923	0.073287	0.055121
C30	C	0.053536	0.072585	0.055125
N31	N	0.023845	0.072224	0.000042
C32	C	0.053552	0.072582	-0.055042
C33	C	0.415862	0.076954	0.055117
C34	C	0.475258	0.077677	0.055116
C35	C	0.475274	0.077674	-0.055055
C36	C	0.415876	0.076955	-0.055054
C37	C	0.386171	0.076593	0.000034
C38	C	-0.071184	0.071083	-0.055034
C39	C	-0.130585	0.070372	-0.055027
C40	C	-0.130595	0.070371	0.055144
C41	C	-0.071199	0.071086	0.055137
C42	C	-0.041495	0.071440	0.000044
O43	O	0.022761	0.072232	0.101945
O44	O	0.022836	0.072202	-0.101886
C45	C	0.723555	-0.492454	0.000036
C46	C	0.722844	-0.551854	0.000031
O47	O	0.766630	-0.588606	0.000013
N48	N	0.670566	-0.574471	0.000027
C49	C	0.618997	-0.537685	0.000021
O50	O	0.574465	-0.562377	0.000016
C51	C	0.619709	-0.478286	0.000021
C52	C	0.671990	-0.455672	0.000032
C53	C	0.775832	-0.469839	0.000046
C54	C	0.776543	-0.410443	0.000052
C55	C	0.724977	-0.373662	0.000048
C56	C	0.672701	-0.396276	0.000038
C57	C	0.568140	-0.441501	0.000011
C58	C	0.568857	-0.382099	0.000011
C59	C	0.621137	-0.359485	0.000021
C60	C	0.621847	-0.300099	0.000039
N61	N	0.674124	-0.277481	0.000044
C62	C	0.725690	-0.314263	0.000048
C63	C	0.617505	-0.662427	0.000019
C64	C	0.616793	-0.721825	0.000023
C65	C	0.720640	-0.735990	0.000032
C66	C	0.721352	-0.676591	0.000033
C67	C	0.669783	-0.639810	0.000024
C68	C	0.727179	-0.189526	0.000061
C69	C	0.727886	-0.130124	0.000069
C70	C	0.624039	-0.115965	0.000057
C71	C	0.623332	-0.175361	0.000051
C72	C	0.674907	-0.212141	0.000051
O73	O	0.578083	-0.263312	0.000055
O74	O	0.770214	-0.289562	0.000045
C75	C	0.776489	0.069258	0.000055
C76	C	0.839708	0.070014	0.000057
C77	C	0.667592	0.178171	0.000033
C78	C	0.668358	0.241388	0.000024
N79	N	0.672306	0.074022	0.143851
N80	N	0.672377	0.074018	-0.143757
C81	C	0.706701	0.108377	0.563629
C82	C	0.706708	0.108376	0.627237
O83	O	0.735932	0.137582	0.660127
N84	N	0.672366	0.074016	0.659059
C85	C	0.638020	0.039651	0.627269
O86	O	0.608810	0.010425	0.660177
C87	C	0.638016	0.039650	0.563663
C88	C	0.672356	0.074016	0.531845
C89	C	0.741039	0.142741	0.531811
C90	C	0.741031	0.142743	0.468208
C91	C	0.706686	0.108382	0.436423
C92	C	0.672348	0.074018	0.468241
C93	C	0.603673	0.005282	0.531875
C94	C	0.603673	0.005284	0.468264
C95	C	0.638013	0.039650	0.436446
C96	C	0.637996	0.039659	0.372853
N97	N	0.672338	0.074019	0.341032
C98	C	0.706683	0.108380	0.372816
C99	C	0.638030	0.039656	0.760847
C100	C	0.638030	0.039659	0.824452
C101	C	0.706719	0.108384	0.824416
C102	C	0.706716	0.108382	0.760809
C103	C	0.672372	0.074015	0.729025
C104	C	0.706664	0.108383	0.239245
C105	C	0.706651	0.108383	0.175636
C106	C	0.637964	0.039657	0.175679
C107	C	0.637974	0.039658	0.239282
C108	C	0.672329	0.074023	0.271064
O109	O	0.608789	0.010466	0.339923
O110	O	0.735893	0.137596	0.339901
H111	H	-0.047006	0.071372	-0.099896
H112	H	-0.154793	0.070082	0.099991
H113	H	0.499472	0.077965	-0.099907
H114	H	0.575706	-0.022703	0.442389
H115	H	0.610057	0.011672	0.734973
O116	O	0.743772	0.145437	0.858706
H117	H	0.716300	0.176184	0.887696
H118	H	0.391707	0.076666	-0.099910
H119	H	0.526862	-0.352154	0.000003
H120	H	0.580761	-0.193774	0.000060
O121	O	0.507272	0.078070	0.114533
H122	H	0.553568	0.078632	0.105285
H123	H	0.770461	-0.111716	0.000079
H124	H	0.762627	-0.765949	0.000033
H125	H	0.734615	0.136371	0.149732
O126	O	0.743718	0.145443	0.273520
H127	H	0.716248	0.176193	0.302508
H128	H	0.610000	0.011683	0.149788
O129	O	0.600937	0.002595	0.273607
H130	H	0.577055	-0.021300	0.240816
O131	O	0.600997	0.002581	0.858759
H132	H	0.555406	0.015200	0.846558
O133	O	-0.162606	0.069970	-0.114443
H134	H	-0.131964	0.070326	-0.152745
H135	H	0.226177	0.074649	0.155068
H136	H	0.575509	-0.632483	0.000017
H137	H	0.118429	0.073352	0.155067
H138	H	0.817825	-0.499782	0.000047
O139	O	0.511751	-0.465884	-0.000003
H140	H	0.476020	-0.430320	-0.000013
O141	O	0.560405	-0.746214	0.000020
H142	H	0.524671	-0.710653	0.000014
O143	O	0.110652	0.073248	-0.169547
H144	H	0.116763	0.112197	-0.195983
H145	H	0.582056	-0.086007	0.000055
O146	O	0.778071	0.179807	0.433892
H147	H	0.801955	0.203693	0.466688
O148	O	0.383821	0.076575	0.114536
H149	H	0.414450	0.076954	0.152833
O150	O	0.778082	0.179807	0.566088
H151	H	0.801951	0.203701	0.533267
O152	O	0.777739	-0.652201	0.000033
H153	H	0.813473	-0.687762	0.000031
H154	H	-0.047027	0.071386	0.099993
O155	O	0.782804	-0.229192	0.000070
H156	H	0.819270	-0.203479	0.000085
H157	H	0.734678	0.136367	0.734907
O158	O	0.566663	-0.031813	0.566185
H159	H	0.542799	-0.055717	0.533387
H160	H	0.819115	-0.392037	0.000058
H161	H	0.226234	0.074662	-0.154986
