data_functionalizedCrystal
_audit_creation_method	'MofGen! by Chris Wilmer'
_symmetry_space_group_name_H-M	'P1'
_symmetry_Int_Tables_number	1
_symmetry_cell_setting	triclinic
loop_
_symmetry_equiv_pos_as_xyz
  x,y,z
_cell_length_a	10.654562
_cell_length_b	8.559649
_cell_length_c	9.130313
_cell_angle_alpha	90.000859
_cell_angle_beta	89.996930
_cell_angle_gamma	77.134384
loop_
_atom_site_label
_atom_site_type_symbol
_atom_site_fract_x
_atom_site_fract_y
_atom_site_fract_z
O1	O	1.644658	0.224273	-0.121887
O2	O	1.276977	0.245610	-0.121868
O3	O	1.493211	0.002701	-0.121877
O4	O	1.428425	0.467183	-0.121877
O5	O	1.493208	0.002707	0.121721
O6	O	1.276974	0.245617	0.121731
O7	O	1.644655	0.224279	0.121712
Cu8	Cu	1.460814	0.234949	0.143964
Cu9	Cu	1.460818	0.234941	-0.144120
O10	O	1.428422	0.467189	0.121722
C11	C	1.230340	0.244043	-0.000066
C12	C	1.091383	0.239343	-0.000059
C13	C	1.026078	0.237154	0.132715
C14	C	0.895510	0.232750	0.132691
C15	C	0.895565	0.232731	-0.132894
C16	C	1.026132	0.237123	-0.132868
C17	C	1.026044	0.237172	0.286049
C18	C	0.895476	0.232768	0.286024
C19	C	1.498119	-0.056771	-0.000081
C20	C	1.512733	-0.233989	-0.000090
C21	C	1.691292	0.225847	-0.000093
C22	C	1.830249	0.230547	-0.000109
C23	C	1.423513	0.526661	-0.000078
C24	C	1.408899	0.703879	-0.000079
N25	N	1.460821	0.234953	0.346587
N26	N	1.460822	0.234924	-0.346742
C27	C	1.556587	0.127430	0.423234
C28	C	1.556586	0.127411	0.576571
C29	C	1.365047	0.342453	0.576599
C30	C	1.365044	0.342463	0.423265
C31	C	1.667174	0.003281	0.423220
C32	C	1.667173	0.003262	0.576556
H33	H	1.043593	0.353581	0.333626
C34	C	1.793724	0.040217	0.632781
H35	H	1.845765	0.055445	0.551852
H36	H	1.838453	-0.046811	0.690570
H37	H	1.775019	0.134846	0.690594
H38	H	1.754341	0.042161	0.375656
H39	H	1.079304	0.238881	-0.240986
H40	H	1.308822	-0.213739	-0.000069
H41	H	1.612816	-0.316380	-0.000083
H42	H	0.842421	0.230925	-0.241022
H43	H	1.287054	0.430003	0.360860
H44	H	1.287067	0.429983	0.639047
H45	H	1.648636	-0.112674	0.624105
C46	C	1.655316	-0.162440	0.366984
H47	H	1.650427	-0.230599	0.447910
H48	H	1.728495	-0.207791	0.309175
H49	H	1.579684	-0.151162	0.309191
H50	H	0.877912	0.116364	0.333604
C51	C	1.103938	0.088160	0.365576
H52	H	1.047372	0.023886	0.398253
H53	H	1.146968	0.120782	0.447329
H54	H	1.165521	0.027862	0.300184
H55	H	0.837795	0.343079	0.344889
