data_functionalizedCrystal
_audit_creation_method	'MofGen! by Chris Wilmer'
_symmetry_space_group_name_H-M	'P1'
_symmetry_Int_Tables_number	1
_symmetry_cell_setting	triclinic
loop_
_symmetry_equiv_pos_as_xyz
  x,y,z
_cell_length_a	16.120530
_cell_length_b	11.169416
_cell_length_c	11.169409
_cell_angle_alpha	89.969126
_cell_angle_beta	92.920596
_cell_angle_gamma	92.893829
loop_
_atom_site_label
_atom_site_type_symbol
_atom_site_fract_x
_atom_site_fract_y
_atom_site_fract_z
Zn1	Zn	1.274670	0.570869	0.771606
Zn2	Zn	1.774670	1.070869	1.271606
Zn3	Zn	1.274593	0.771604	0.570923
Zn4	Zn	1.774593	1.271604	1.070923
Zn5	Zn	1.135242	0.560749	0.560762
Zn6	Zn	1.635242	1.060749	1.060762
Zn7	Zn	1.135248	0.761319	0.761395
Zn8	Zn	1.635248	1.261319	1.261395
O9	O	1.204938	0.666135	0.666172
O10	O	1.704938	1.166135	1.166172
O11	O	1.391327	0.606036	0.753510
O12	O	1.891327	1.106036	1.253510
O13	O	1.256074	0.743702	0.401622
O14	O	1.756074	1.243702	0.901622
O15	O	1.153768	0.394144	0.588752
O16	O	1.653768	0.894144	1.088752
O17	O	1.391271	0.753515	0.606069
O18	O	1.891271	1.253515	1.106069
O19	O	1.256205	0.401579	0.743658
O20	O	1.756205	0.901579	1.243658
O21	O	1.153693	0.588788	0.394158
O22	O	1.653693	1.088788	0.894158
O23	O	1.018576	0.578815	0.578851
O24	O	1.518576	1.078815	1.078851
O25	O	1.153777	0.735986	0.930702
O26	O	1.653777	1.235986	1.430702
O27	O	1.018580	0.726173	0.726255
O28	O	1.518580	1.226173	1.226255
O29	O	1.256210	0.596063	0.938204
O30	O	1.756210	1.096063	1.438204
O31	O	1.256079	0.938187	0.596168
O32	O	1.756079	1.438187	1.096168
O33	O	1.153702	0.930631	0.736107
O34	O	1.653702	1.430631	1.236107
C35	C	0.988327	0.650281	0.650343
C36	C	1.488327	1.150281	1.150343
C37	C	0.895660	0.643528	0.643601
C38	C	1.395660	1.143528	1.143601
C39	C	1.205002	0.666007	0.979219
C40	C	1.705002	1.166007	1.479219
C41	C	1.205030	0.665952	1.112621
C42	C	1.705030	1.165952	1.612621
C43	C	1.204905	0.977957	0.666160
C44	C	1.704905	1.477957	1.166160
C45	C	1.204967	1.111362	0.666201
C46	C	1.704967	1.611362	1.166201
C47	C	0.725996	0.631170	0.631300
C48	C	1.225996	1.131170	1.131300
C49	C	0.684722	0.701189	0.701130
C50	C	1.184722	1.201189	1.201130
C51	C	0.590315	0.694313	0.694286
C52	C	1.090315	1.194313	1.194286
C53	C	0.820411	0.638044	0.638143
C54	C	1.320411	1.138044	1.138143
C55	C	1.422395	0.682052	0.682062
C56	C	1.922395	1.182052	1.182062
C57	C	1.515063	0.688835	0.688834
C58	C	2.015063	1.188835	1.188834
C59	C	1.204994	0.353097	0.666211
C60	C	1.704994	0.853097	1.166211
C61	C	1.205018	0.219699	0.666228
C62	C	1.705018	0.719699	1.166228
C63	C	1.204923	0.666180	0.354346
C64	C	1.704923	1.166180	0.854346
C65	C	1.205057	0.665909	0.220956
C66	C	1.705057	1.165909	0.720956
H67	H	0.720288	0.766297	0.766056
H68	H	1.220288	1.266297	1.266056
C69	C	0.678429	0.544482	0.544765
C70	C	1.178429	1.044482	1.044765
C71	C	0.592892	0.554850	0.555070
C72	C	1.092892	1.054850	1.055070
C73	C	0.549038	0.475027	0.475361
C74	C	1.049038	0.975027	0.975361
H75	H	0.692559	0.464819	0.563383
H76	H	1.192559	0.964819	1.063383
H77	H	0.692566	0.562983	0.465075
H78	H	1.192566	1.062983	0.965075
H79	H	0.578761	0.536341	0.634742
H80	H	1.078761	1.036341	1.134742
H81	H	0.578738	0.634495	0.536442
H82	H	1.078738	1.134495	1.036442
H83	H	0.563175	0.493528	0.395671
H84	H	1.063175	0.993528	0.895671
H85	H	0.563175	0.395370	0.493986
H86	H	1.063175	0.895370	0.993986
H87	H	0.490997	0.482059	0.482335
H88	H	0.990997	0.982059	0.982335
