data_functionalizedCrystal
_audit_creation_method	'MofGen! by Chris Wilmer'
_symmetry_space_group_name_H-M	'P1'
_symmetry_Int_Tables_number	1
_symmetry_cell_setting	triclinic
loop_
_symmetry_equiv_pos_as_xyz
  x,y,z
_cell_length_a	10.654550
_cell_length_b	11.792241
_cell_length_c	9.730223
_cell_angle_alpha	89.995449
_cell_angle_beta	89.999957
_cell_angle_gamma	84.339173
loop_
_atom_site_label
_atom_site_type_symbol
_atom_site_fract_x
_atom_site_fract_y
_atom_site_fract_z
O1	O	1.667388	0.159420	-0.114188
O2	O	1.301867	0.174608	-0.114213
O3	O	1.493498	0.001864	-0.114190
O4	O	1.475757	0.332164	-0.114211
O5	O	1.493485	0.001859	0.114390
O6	O	1.301854	0.174603	0.114367
O7	O	1.667376	0.159415	0.114392
Zn8	Zn	1.484613	0.167008	0.150671
Zn9	Zn	1.484629	0.167015	-0.150493
O10	O	1.475745	0.332159	0.114369
C11	C	1.255066	0.173491	0.000074
C12	C	1.115632	0.170154	0.000064
C13	C	1.492377	-0.040432	0.000099
C14	C	1.489042	-0.166453	0.000098
C15	C	1.035859	0.271863	0.000062
C16	C	0.904847	0.268721	0.000086
C17	C	0.933394	0.062152	0.000109
C18	C	1.064403	0.065295	0.000095
C19	C	1.482908	-0.397180	0.000074
C20	C	1.486316	-0.268787	0.000087
C21	C	1.714177	0.160533	0.000102
C22	C	1.853611	0.163869	0.000103
C23	C	1.476865	0.374455	0.000077
C24	C	1.480201	0.500477	0.000069
N25	N	1.484611	0.167003	0.356208
N26	N	1.484641	0.167011	-0.356029
C27	C	1.569494	0.090545	0.428144
C28	C	1.569507	0.090545	0.572027
C29	C	1.399749	0.243473	0.572025
C30	C	1.399731	0.243466	0.428145
H31	H	0.839900	0.351543	0.000087
C32	C	1.661692	0.007396	0.350288
C33	C	1.736007	-0.059584	0.444090
C34	C	1.820941	-0.136208	0.372425
H35	H	1.714358	0.048529	0.294139
H36	H	1.616222	-0.040298	0.294206
H37	H	1.781475	-0.011896	0.500149
H38	H	1.683376	-0.100742	0.500242
H39	H	1.775471	-0.183902	0.316342
H40	H	1.873599	-0.095065	0.316278
H41	H	1.871366	-0.181670	0.436058
C42	C	1.307663	0.326673	0.649951
C43	C	1.328748	0.438381	0.614898
C44	C	1.243930	0.515058	0.686637
H45	H	1.319737	0.315891	0.745966
H46	H	1.223740	0.313704	0.626354
H47	H	1.412650	0.451346	0.638505
H48	H	1.316664	0.449200	0.518896
H49	H	1.160008	0.502088	0.663040
H50	H	1.256011	0.504265	0.782649
H51	H	1.258217	0.590860	0.662855
H52	H	0.891668	-0.023220	0.000142
C53	C	1.307426	0.326304	0.349956
C54	C	1.230116	0.265187	0.267403
C55	C	1.145063	0.341451	0.195369
H56	H	1.352769	0.373956	0.293700
H57	H	1.256810	0.371834	0.413358
H58	H	1.280726	0.219676	0.204009
H59	H	1.184745	0.217539	0.323625
H60	H	1.094447	0.386981	0.258771
H61	H	1.190416	0.389099	0.139121
H62	H	1.092590	0.299994	0.139358
C63	C	1.091306	0.385787	-0.000172
C64	C	1.050785	0.447348	-0.117753
C65	C	1.101818	0.552309	-0.118002
H66	H	1.180753	0.373260	-0.000253
H67	H	1.063940	0.427768	0.079498
H68	H	1.078158	0.405377	-0.197402
H69	H	0.961345	0.459905	-0.117696
H70	H	1.074453	0.594289	-0.038331
H71	H	1.191264	0.539770	-0.118079
H72	H	1.074323	0.594095	-0.197772
C73	C	1.150816	-0.045263	0.000026
C74	C	1.077915	-0.137767	0.000008
C75	C	1.157474	-0.239625	-0.000068
H76	H	1.202549	-0.048489	0.079711
H77	H	1.202492	-0.048391	-0.079721
H78	H	1.026261	-0.134641	0.079747
H79	H	1.026184	-0.134579	-0.079671
H80	H	1.209149	-0.242753	-0.079816
H81	H	1.209203	-0.242839	0.079618
H82	H	1.108022	-0.302400	-0.000094
H83	H	1.638625	0.028285	0.630593
