data_functionalizedCrystal
_audit_creation_method	'MofGen! by Chris Wilmer'
_symmetry_space_group_name_H-M	'P1'
_symmetry_Int_Tables_number	1
_symmetry_cell_setting	triclinic
loop_
_symmetry_equiv_pos_as_xyz
  x,y,z
_cell_length_a	12.594517
_cell_length_b	12.594516
_cell_length_c	12.594510
_cell_angle_alpha	89.968094
_cell_angle_beta	89.977213
_cell_angle_gamma	90.015853
loop_
_atom_site_label
_atom_site_type_symbol
_atom_site_fract_x
_atom_site_fract_y
_atom_site_fract_z
Zn1	Zn	1.627282	-0.423656	-0.601875
Zn2	Zn	1.627169	-0.601684	-0.423903
Zn3	Zn	1.449282	-0.423719	-0.423904
Zn4	Zn	1.449268	-0.601592	-0.601833
O5	O	1.538250	-0.512663	-0.512879
O6	O	1.776213	-0.447283	-0.578284
O7	O	1.603530	-0.578141	-0.274957
O8	O	1.472947	-0.274765	-0.447530
O9	O	1.776129	-0.578080	-0.447528
O10	O	1.603723	-0.274718	-0.578285
O11	O	1.472837	-0.447391	-0.274958
O12	O	1.300334	-0.447302	-0.447489
O13	O	1.472924	-0.577924	-0.750784
O14	O	1.300324	-0.577985	-0.578213
O15	O	1.603710	-0.447195	-0.750815
O16	O	1.603517	-0.750617	-0.447488
O17	O	1.472814	-0.750550	-0.578212
C18	C	1.261709	-0.512641	-0.512847
C19	C	1.143404	-0.512658	-0.512859
C20	C	1.074125	-0.441482	-0.441894
C21	C	1.003313	-0.538574	-0.415718
C22	C	1.003417	-0.415614	-0.539054
C23	C	1.074150	-0.609800	-0.486632
C24	C	1.074260	-0.486775	-0.610013
C25	C	1.003480	-0.583933	-0.583874
C26	C	1.538180	-0.789204	-0.512868
C27	C	1.538248	-0.907509	-0.512899
C28	C	1.467152	-0.976764	-0.583950
C29	C	1.441216	-1.047639	-0.486827
C30	C	1.564281	-1.047433	-0.610039
C31	C	1.512261	-0.976826	-0.415725
C32	C	1.635371	-0.976613	-0.539002
C33	C	1.609472	-1.047456	-0.441812
C34	C	1.815871	-0.512685	-0.512911
C35	C	1.934177	-0.512694	-0.512924
C36	C	1.538329	-0.512542	-0.790500
C37	C	1.538362	-0.512490	-0.908805
C38	C	1.538349	-0.235042	-0.512912
C39	C	1.538391	-0.116736	-0.512927
C40	C	1.609522	-0.441365	-1.048839
C41	C	1.635509	-0.538486	-0.978022
C42	C	1.512422	-0.415381	-0.978051
C43	C	1.564444	-0.609630	-1.048774
C44	C	1.441312	-0.486459	-1.048809
C45	C	1.467262	-0.583646	-0.978024
C46	C	1.538233	-0.512706	-0.236338
C47	C	1.538406	-0.512458	-0.118033
H48	H	0.972656	-0.644209	-0.643914
H49	H	1.717601	-0.560496	-0.946925
H50	H	1.586242	-1.078449	-0.692178
H51	H	1.406921	-0.945723	-0.643949
C52	C	1.115711	-0.457663	-0.719588
C53	C	1.078345	-0.531298	-0.793975
C54	C	1.116502	-0.504494	-0.894926
H55	H	1.191125	-0.458527	-0.719061
H56	H	1.091508	-0.388668	-0.738143
H57	H	1.102554	-0.600276	-0.775425
H58	H	1.002936	-0.530446	-0.794536
H59	H	1.092300	-0.435499	-0.913481
H60	H	1.191915	-0.505358	-0.894388
H61	H	1.091147	-0.554445	-0.945412
C62	C	1.744869	-0.935129	-0.568326
C63	C	1.819427	-0.972527	-0.494853
C64	C	1.920311	-0.934344	-0.521854
H65	H	1.744327	-0.859715	-0.567442
H66	H	1.763278	-0.959292	-0.637366
H67	H	1.801024	-0.948358	-0.425831
H68	H	1.820003	-1.047936	-0.495727
H69	H	1.938719	-0.958508	-0.590893
H70	H	1.919757	-0.858932	-0.520969
H71	H	1.970912	-0.959721	-0.472013
C72	C	0.961497	-0.567741	-0.306290
C73	C	0.850344	-0.568277	-0.308101
C74	C	0.811768	-0.595106	-0.207316
H75	H	0.985563	-0.517107	-0.255870
H76	H	0.986650	-0.636228	-0.287122
H77	H	0.825201	-0.499801	-0.327255
H78	H	0.826249	-0.618912	-0.358500
H79	H	0.836921	-0.663593	-0.188148
H80	H	0.835842	-0.544469	-0.156903
H81	H	0.736348	-0.595483	-0.208533
C82	C	1.689582	-1.088537	-0.361455
C83	C	1.661909	-1.052591	-0.259974
C84	C	1.735668	-1.090427	-0.185919
H85	H	1.758358	-1.063167	-0.379257
H86	H	1.689596	-1.163967	-0.362244
H87	H	1.661907	-0.977177	-0.259188
H88	H	1.593145	-1.077958	-0.242139
H89	H	1.735682	-1.165857	-0.186708
H90	H	1.804440	-1.065054	-0.203731
H91	H	1.716897	-1.066051	-0.117055
C92	C	1.331873	-1.089452	-0.457361
C93	C	1.333669	-1.200605	-0.456807
C94	C	1.232964	-1.239156	-0.429663
H95	H	1.281295	-1.065368	-0.507846
H96	H	1.312929	-1.064298	-0.388822
H97	H	1.352600	-1.225749	-0.525336
H98	H	1.384226	-1.224717	-0.406320
H99	H	1.214020	-1.214002	-0.361124
H100	H	1.182394	-1.215065	-0.480151
H101	H	1.234172	-1.314576	-0.429274
C102	C	0.962132	-0.306073	-0.568422
C103	C	0.997950	-0.231868	-0.493840
C104	C	0.959955	-0.130945	-0.520858
H105	H	0.886717	-0.306886	-0.568851
H106	H	0.987498	-0.287126	-0.636913
H107	H	0.972578	-0.250809	-0.425367
H108	H	1.073360	-0.231021	-0.493400
H109	H	0.985321	-0.111998	-0.589349
H110	H	0.884541	-0.131769	-0.521286
H111	H	0.984260	-0.080583	-0.470264
C112	C	1.115604	-0.719196	-0.456962
C113	C	1.226766	-0.717881	-0.457206
C114	C	1.264992	-0.818629	-0.429864
H115	H	1.090963	-0.769896	-0.507038
H116	H	1.090782	-0.737722	-0.388158
H117	H	1.251578	-0.699368	-0.526000
H118	H	1.251435	-0.667202	-0.407130
H119	H	1.240169	-0.837155	-0.361060
H120	H	1.240344	-0.869321	-0.479942
H121	H	1.340418	-0.817748	-0.430016
H122	H	1.669727	-0.381306	-1.079931
H123	H	1.586522	-0.691758	-1.079710
C124	C	1.482813	-0.935443	-0.306257
C125	C	1.483010	-0.824281	-0.307539
C126	C	1.455870	-0.786121	-0.206725
H127	H	1.533007	-0.960100	-0.255665
H128	H	1.414059	-0.960295	-0.287602
H129	H	1.551754	-0.799439	-0.326182
H130	H	1.432815	-0.799596	-0.358111
H131	H	1.387116	-0.810973	-0.188070
H132	H	1.506067	-0.810784	-0.156141
H133	H	1.455991	-0.710694	-0.207584
H134	H	1.407103	-0.643850	-0.947128
C135	C	1.331921	-0.456856	-1.090255
C136	C	1.305147	-0.355076	-1.054508
C137	C	1.204391	-0.327753	-1.092681
H138	H	1.281100	-0.506561	-1.064980
H139	H	1.332563	-0.457640	-1.165682
H140	H	1.304496	-0.354301	-0.979096
H141	H	1.355940	-0.305349	-1.079781
H142	H	1.205033	-0.328536	-1.168108
H143	H	1.153579	-0.377464	-1.067403
H144	H	1.186216	-0.258690	-1.068440
H145	H	1.490464	-0.333270	-0.946982
H146	H	1.105144	-0.381351	-0.381807
