data_functionalizedCrystal
_audit_creation_method	'MofGen! by Chris Wilmer'
_symmetry_space_group_name_H-M	'P1'
_symmetry_Int_Tables_number	1
_symmetry_cell_setting	triclinic
loop_
_symmetry_equiv_pos_as_xyz
  x,y,z
_cell_length_a	16.959455
_cell_length_b	16.120847
_cell_length_c	16.959447
_cell_angle_alpha	92.921210
_cell_angle_beta	90.017850
_cell_angle_gamma	92.894585
loop_
_atom_site_label
_atom_site_type_symbol
_atom_site_fract_x
_atom_site_fract_y
_atom_site_fract_z
Zn1	Zn	-1.192544	0.332006	-0.431007
Zn2	Zn	-0.692544	0.832006	0.068993
Zn3	Zn	-1.185800	0.471435	-0.292142
Zn4	Zn	-0.685800	0.971435	0.207858
Zn5	Zn	-1.060365	0.332027	-0.298841
Zn6	Zn	-0.560365	0.832027	0.201159
Zn7	Zn	-1.053680	0.471367	-0.424282
Zn8	Zn	-0.553680	0.971367	0.075718
O9	O	-1.123097	0.401709	-0.361568
O10	O	-0.623097	0.901709	0.138432
O11	O	-1.302259	0.350521	-0.412597
O12	O	-0.802259	0.850521	0.087403
O13	O	-1.169136	0.452979	-0.182418
O14	O	-0.669136	0.952979	0.317582
O15	O	-1.083520	0.215359	-0.321991
O16	O	-0.583520	0.715359	0.178009
O17	O	-1.297304	0.452959	-0.310573
O18	O	-0.797304	0.952959	0.189427
O19	O	-1.180631	0.215343	-0.419093
O20	O	-0.680631	0.715343	0.080907
O21	O	-1.076980	0.350557	-0.187340
O22	O	-0.576980	0.850557	0.312660
O23	O	-0.948869	0.350491	-0.315470
O24	O	-0.448869	0.850491	0.184530
O25	O	-1.072125	0.452843	-0.535786
O26	O	-0.572125	0.952843	-0.035786
O27	O	-0.943957	0.452864	-0.407631
O28	O	-0.443957	0.952864	0.092369
O29	O	-1.174148	0.350455	-0.540727
O30	O	-0.674148	0.850455	-0.040727
O31	O	-1.162653	0.588091	-0.304052
O32	O	-0.662653	1.088091	0.195948
O33	O	-1.065585	0.588041	-0.401135
O34	O	-0.565585	1.088041	0.098865
C35	C	-0.917733	0.401673	-0.361548
C36	C	-0.417733	0.901673	0.138452
C37	C	-0.829876	0.401678	-0.361557
C38	C	-0.329876	0.901678	0.138443
C39	C	-0.460935	0.348333	-0.313678
C40	C	0.039065	0.848333	0.186322
C41	C	-0.455861	0.455100	-0.409481
C42	C	0.044139	0.955100	0.090519
C43	C	-0.538408	0.455091	-0.409478
C44	C	-0.038408	0.955091	0.090522
C45	C	-0.582222	0.401703	-0.361573
C46	C	-0.082222	0.901703	0.138427
C47	C	-0.543489	0.348325	-0.313672
C48	C	-0.043489	0.848325	0.186328
C49	C	-0.577146	0.508475	-0.457372
C50	C	-0.077146	1.008475	0.042628
C51	C	-0.659697	0.508469	-0.457371
C52	C	-0.159697	1.008469	0.042629
C53	C	-0.703513	0.455077	-0.409470
C54	C	-0.203513	0.955077	0.090530
C55	C	-0.664776	0.401695	-0.361567
C56	C	-0.164776	0.901695	0.138433
C57	C	-0.708590	0.348307	-0.313662
C58	C	-0.208590	0.848307	0.186338
C59	C	-0.669854	0.294921	-0.265763
C60	C	-0.169854	0.794921	0.234237
C61	C	-0.587305	0.294932	-0.265771
C62	C	-0.087305	0.794932	0.234229
C63	C	-0.786062	0.455065	-0.409462
C64	C	-0.286062	0.955065	0.090538
C65	C	-0.791144	0.348299	-0.313656
C66	C	-0.291144	0.848299	0.186344
C67	C	-1.133573	0.184255	-0.372039
C68	C	-0.633573	0.684255	0.127961
C69	C	-1.138037	0.091589	-0.376502
C70	C	-0.638037	0.591589	0.123498
C71	C	-1.146202	-0.078072	-0.384647
C72	C	-0.646202	0.421928	0.115353
C73	C	-1.100139	-0.119362	-0.338583
C74	C	-0.600139	0.380638	0.161417
C75	C	-1.104681	-0.213767	-0.343115
C76	C	-0.604681	0.286233	0.156885
C77	C	-1.141660	0.016342	-0.380116
C78	C	-0.641660	0.516342	0.119884
C79	C	-0.329264	0.401735	-0.361584
C80	C	0.170736	0.901735	0.138416
C81	C	-0.417121	0.401721	-0.361583
C82	C	0.082879	0.901721	0.138417
C83	C	-1.112684	0.618316	-0.351154
C84	C	-0.612684	1.118316	0.148846
C85	C	-1.108301	0.710982	-0.346726
C86	C	-0.608301	1.210982	0.153274
C87	C	-1.123143	0.401639	-0.567739
C88	C	-0.623143	0.901639	-0.067739
C89	C	-1.123162	0.401610	-0.655597
C90	C	-0.623162	0.901610	-0.155597
C91	C	-1.075255	0.348195	-1.029646
C92	C	-0.575255	0.848195	-0.529646
C93	C	-1.171218	0.454849	-1.024509
C94	C	-0.671218	0.954849	-0.524509
C95	C	-1.171203	0.454868	-0.941962
C96	C	-0.671203	0.954868	-0.441962
C97	C	-1.123213	0.401551	-0.903253
C98	C	-0.623213	0.901551	-0.403253
C99	C	-1.075237	0.348215	-0.947092
C100	C	-0.575237	0.848215	-0.447092
C101	C	-1.219172	0.508209	-0.898117
C102	C	-0.719172	1.008209	-0.398117
C103	C	-1.219159	0.508232	-0.815565
C104	C	-0.719159	1.008232	-0.315565
C105	C	-1.171172	0.454910	-0.776855
C106	C	-0.671172	0.954910	-0.276855
C107	C	-1.123195	0.401571	-0.820699
C108	C	-0.623195	0.901571	-0.320699
C109	C	-1.075204	0.348254	-0.781990
C110	C	-0.575204	0.848254	-0.281990
C111	C	-1.027231	0.294910	-0.825833
C112	C	-0.527231	0.794910	-0.325833
C113	C	-1.027250	0.294893	-0.908382
C114	C	-0.527250	0.794893	-0.408382
C115	C	-1.171153	0.454927	-0.694306
C116	C	-0.671153	0.954927	-0.194306
C117	C	-1.075187	0.348274	-0.699436
C118	C	-0.575187	0.848274	-0.199436
C119	C	-1.123100	0.401718	-0.156201
C120	C	-0.623100	0.901718	0.343799
C121	C	-1.123245	0.401512	-0.068355
C122	C	-0.623245	0.901512	0.431645
H123	H	-0.555759	0.251469	-0.226773
H124	H	-0.055759	0.751469	0.273227
H125	H	-1.210217	0.498353	-0.658613
H126	H	-0.710217	0.998353	-0.158613
H127	H	-1.036110	0.304852	-0.667926
H128	H	-0.536110	0.804852	-0.167926
N129	N	-0.975501	0.237375	-0.955670
N130	N	-0.475501	0.737375	-0.455670
H131	H	-0.945096	0.203600	-0.918624
H132	H	-0.445096	0.703600	-0.418624
H133	H	-1.009538	0.198792	-0.991789
H134	H	-0.509538	0.698792	-0.491789
H135	H	-0.826812	0.304819	-0.274651
H136	H	-0.326812	0.804819	0.225349
N137	N	-1.202967	-0.125150	-0.441384
N138	N	-0.702967	0.374850	0.058616
H139	H	-1.189998	-0.110079	-0.497152
H140	H	-0.689998	0.389921	0.002848
H141	H	-1.198184	-0.186878	-0.436548
H142	H	-0.698184	0.313122	0.063452
H143	H	-0.429393	0.304865	-0.274682
H144	H	0.070607	0.804865	0.225318
N145	N	-0.408615	0.512677	-0.461153
N146	N	0.091385	1.012677	0.038847
H147	H	-0.420124	0.572228	-0.445923
H148	H	0.079876	1.072228	0.054077
H149	H	-0.350459	0.504516	-0.453869
H150	H	0.149541	1.004516	0.046131
H151	H	-0.705538	0.251456	-0.226756
H152	H	-0.205538	0.751456	0.273244
N153	N	-1.023500	0.290676	-1.076925
N154	N	-0.523500	0.790676	-0.576925
H155	H	-1.030786	0.298755	-1.135094
H156	H	-0.530786	0.798755	-0.635094
H157	H	-0.966425	0.303664	-1.061855
H158	H	-0.466425	0.803664	-0.561855
H159	H	-1.210283	0.498263	-1.056030
H160	H	-0.710283	0.998263	-0.556030
H161	H	-0.541467	0.551946	-0.496368
H162	H	-0.041467	1.051946	0.003632
N163	N	-0.701478	0.566035	-0.509038
N164	N	-0.201478	1.066035	-0.009038
H165	H	-0.733870	0.604624	-0.475001
H166	H	-0.233870	1.104624	0.024999
H167	H	-0.661151	0.599801	-0.539379
H168	H	-0.161151	1.099801	-0.039379
H169	H	-1.057289	-0.083810	-0.295745
H170	H	-0.557289	0.416190	0.204255
N171	N	-0.975465	0.237411	-0.784080
N172	N	-0.475465	0.737411	-0.284080
H173	H	-0.982734	0.245525	-0.725133
H174	H	-0.482734	0.745525	-0.225133
H175	H	-0.990640	0.177865	-0.801375
H176	H	-0.490640	0.677865	-0.301375
N177	N	-1.270916	0.565726	-0.939863
N178	N	-0.770916	1.065726	-0.439863
H179	H	-1.263646	0.557618	-0.998810
H180	H	-0.763646	1.057618	-0.498810
H181	H	-1.327992	0.552777	-0.926069
H182	H	-0.827992	1.052777	-0.426069
N183	N	-1.270898	0.565762	-0.768281
N184	N	-0.770898	1.065762	-0.268281
H185	H	-1.301301	0.599535	-0.805329
H186	H	-0.801301	1.099535	-0.305329
H187	H	-1.309106	0.531839	-0.735674
H188	H	-0.809106	1.031839	-0.235674
H189	H	-0.817597	0.498534	-0.448458
H190	H	-0.317597	0.998534	0.051542
