data_functionalizedCrystal
_audit_creation_method	'MofGen! by Chris Wilmer'
_symmetry_space_group_name_H-M	'P1'
_symmetry_Int_Tables_number	1
_symmetry_cell_setting	triclinic
loop_
_symmetry_equiv_pos_as_xyz
  x,y,z
_cell_length_a	23.532407
_cell_length_b	17.000371
_cell_length_c	22.610064
_cell_angle_alpha	89.984381
_cell_angle_beta	89.990850
_cell_angle_gamma	79.223963
loop_
_atom_site_label
_atom_site_type_symbol
_atom_site_fract_x
_atom_site_fract_y
_atom_site_fract_z
O1	O	0.020527	1.055953	-0.049189
O2	O	0.520527	1.555953	0.450811
O3	O	0.041205	0.824057	-0.049191
O4	O	0.541205	1.324057	0.450809
O5	O	-0.052387	0.946998	-0.049179
O6	O	0.447613	1.446998	0.450821
O7	O	0.114120	0.933012	-0.049201
O8	O	0.614120	1.433012	0.450799
O9	O	-0.052386	0.946962	0.049190
O10	O	0.447614	1.446962	0.549190
O11	O	0.041207	0.824021	0.049178
O12	O	0.541207	1.324021	0.549178
O13	O	0.020529	1.055917	0.049180
O14	O	0.520529	1.555917	0.549180
Zn15	Zn	0.030868	0.939963	0.064797
Zn16	Zn	0.530868	1.439963	0.564797
Zn17	Zn	0.030866	0.940011	-0.064808
Zn18	Zn	0.530866	1.440011	0.435192
O19	O	0.114121	0.932976	0.049168
O20	O	0.614121	1.432976	0.549168
C21	C	0.042316	0.794376	-0.000007
C22	C	0.542316	1.294376	0.499993
C23	C	0.045619	0.705992	-0.000007
C24	C	0.545619	1.205992	0.499993
C25	C	-0.005203	0.674368	0.000001
C26	C	0.494797	1.174368	0.500001
C27	C	-0.002097	0.591320	-0.000004
C28	C	0.497903	1.091320	0.499996
C29	C	0.051833	0.539898	-0.000012
C30	C	0.551833	1.039898	0.499988
C31	C	0.102659	0.571527	-0.000022
C32	C	0.602659	1.071527	0.499978
C33	C	0.099552	0.654573	-0.000021
C34	C	0.599552	1.154573	0.499979
C35	C	0.063834	0.288657	-0.000018
C36	C	0.563834	0.788657	0.499982
C37	C	0.066937	0.205606	-0.000016
C38	C	0.566937	0.705606	0.499984
C39	C	-0.037819	0.225405	0.000000
C40	C	0.462181	0.725405	0.500000
C41	C	-0.040921	0.308452	0.000004
C42	C	0.459079	0.808452	0.500004
C43	C	0.009905	0.340074	-0.000009
C44	C	0.509905	0.840074	0.499991
C45	C	0.055009	0.455010	-0.000015
C46	C	0.555009	0.955010	0.499985
C47	C	0.006728	0.424960	-0.000010
C48	C	0.506728	0.924960	0.499990
C49	C	-0.073586	0.946624	0.000007
C50	C	0.426414	1.446624	0.500007
C51	C	-0.136754	0.945553	0.000012
C52	C	0.363246	1.445553	0.500012
C53	C	-0.538897	1.011591	-0.000020
C54	C	-0.038897	1.511591	0.499980
C55	C	-0.598251	1.010596	-0.000025
C56	C	-0.098251	1.510596	0.499975
O57	O	-0.637814	1.071814	-0.000046
O58	O	-0.137814	1.571814	0.499954
N59	N	-0.617513	0.937508	-0.000025
N60	N	-0.117513	1.437508	0.499975
C61	C	-0.577417	0.865409	-0.000027
C62	C	-0.077417	1.365409	0.499973
O63	O	-0.599251	0.803151	-0.000028
O64	O	-0.099251	1.303151	0.499972
C65	C	-0.518063	0.866405	-0.000027
C66	C	-0.018063	1.366405	0.499973
C67	C	-0.498805	0.939498	-0.000020
C68	C	0.001195	1.439498	0.499980
C69	C	-0.519638	1.084678	-0.000014
C70	C	-0.019638	1.584678	0.499986
C71	C	-0.460287	1.085672	-0.000009
C72	C	0.039713	1.585672	0.499991
C73	C	-0.420196	1.013579	-0.000009
C74	C	0.079804	1.513579	0.499991
C75	C	-0.439455	0.940492	-0.000015
C76	C	0.060545	1.440492	0.499985
C77	C	-0.477968	0.794307	-0.000033
C78	C	0.022032	1.294307	0.499967
C79	C	-0.418612	0.795309	-0.000033
C80	C	0.081388	1.295309	0.499967
C81	C	-0.399354	0.868402	-0.000026
C82	C	0.100646	1.368402	0.499974
C83	C	-0.340013	0.869394	-0.000009
C84	C	0.159987	1.369394	0.499991
N85	N	-0.320751	0.942482	-0.000009
N86	N	0.179249	1.442482	0.499991
C87	C	-0.360843	1.014575	-0.000009
C88	C	0.139157	1.514575	0.499991
C89	C	-0.702063	0.863324	-0.000028
C90	C	-0.202063	1.363324	0.499972
C91	C	-0.761415	0.862328	-0.000024
C92	C	-0.261415	1.362328	0.499976
C93	C	-0.782246	1.007515	-0.000023
C94	C	-0.282246	1.507515	0.499977
C95	C	-0.722893	1.008510	-0.000023
C96	C	-0.222893	1.508510	0.499977
C97	C	-0.682801	0.936412	-0.000028
C98	C	-0.182801	1.436412	0.499972
C99	C	-0.236202	1.016658	0.000004
C100	C	0.263798	1.516658	0.500004
C101	C	-0.176845	1.017646	0.000012
C102	C	0.323155	1.517646	0.500012
C103	C	-0.156020	0.872459	0.000007
C104	C	0.343980	1.372459	0.500007
C105	C	-0.215371	0.871471	0.000003
C106	C	0.284629	1.371471	0.500003
C107	C	-0.255462	0.943576	-0.000001
C108	C	0.244538	1.443576	0.499999
O109	O	-0.300418	0.808208	0.000010
O110	O	0.199582	1.308208	0.500010
O111	O	-0.339000	1.076823	-0.000015
O112	O	0.161000	1.576823	0.499985
C113	C	0.135320	0.933350	-0.000019
C114	C	0.635320	1.433350	0.499981
C115	C	0.198488	0.934421	-0.000027
C116	C	0.698488	1.434421	0.499973
C117	C	0.019418	1.085598	-0.000005
C118	C	0.519418	1.585598	0.499995
C119	C	0.016115	1.173982	-0.000009
C120	C	0.516115	1.673982	0.499991
N121	N	0.030869	0.939937	0.153250
N122	N	0.530869	1.439937	0.653250
N123	N	0.030860	0.940043	-0.153261
N124	N	0.530860	1.440043	0.346739
C125	C	0.063016	0.988028	0.561887
C126	C	0.563016	1.488028	1.061887
C127	C	0.063014	0.988038	0.623807
C128	C	0.563014	1.488038	1.123807
O129	O	0.090345	1.028896	0.655822
O130	O	0.590345	1.528896	1.155822
N131	N	0.030859	0.940026	0.654787
N132	N	0.530859	1.440026	1.154787
C133	C	-0.001302	0.892006	0.623844
C134	C	0.498698	1.392006	1.123844
O135	O	-0.028653	0.851169	0.655881
O136	O	0.471347	1.351169	1.155881
C137	C	-0.001303	0.892001	0.561925
C138	C	0.498697	1.392001	1.061925
C139	C	0.030860	0.940011	0.530948
C140	C	0.530860	1.440011	1.030948
C141	C	0.095175	1.036035	0.530910
C142	C	0.595175	1.536035	1.030910
C143	C	0.095178	1.036023	0.468995
C144	C	0.595178	1.536023	0.968995
C145	C	0.063021	0.988006	0.438056
C146	C	0.563021	1.488006	0.938056
C147	C	0.030862	0.939999	0.469033
C148	C	0.530862	1.439999	0.969033
C149	C	-0.033466	0.843986	0.530983
C150	C	0.466534	1.343986	1.030983
C151	C	-0.033465	0.843986	0.469060
C152	C	0.466535	1.343986	0.969060
C153	C	-0.001302	0.891995	0.438083
C154	C	0.498698	1.391995	0.938083
C155	C	-0.001292	0.891970	0.376178
C156	C	0.498708	1.391970	0.876178
N157	N	0.030864	0.939983	0.345198
N158	N	0.530864	1.439983	0.845198
C159	C	0.063020	0.988001	0.376137
C160	C	0.563020	1.488001	0.876137
C161	C	-0.001298	0.892022	0.753878
C162	C	0.498702	1.392022	1.253878
C163	C	-0.001294	0.892022	0.815795
C164	C	0.498706	1.392022	1.315795
C165	C	0.063021	0.988056	0.815754
C166	C	0.563021	1.488056	1.315754
C167	C	0.063020	0.988050	0.753835
C168	C	0.563020	1.488050	1.253835
C169	C	0.030858	0.940034	0.722898
C170	C	0.530858	1.440034	1.222898
C171	C	0.063024	0.987973	0.246110
C172	C	0.563024	1.487973	0.746110
C173	C	0.063026	0.987955	0.184189
C174	C	0.563026	1.487955	0.684189
C175	C	-0.001292	0.891925	0.184235
C176	C	0.498708	1.391925	0.684235
C177	C	-0.001291	0.891939	0.246151
C178	C	0.498709	1.391939	0.746151
C179	C	0.030868	0.939970	0.277087
C180	C	0.530868	1.439970	0.777087
O181	O	-0.028610	0.851136	0.344124
O182	O	0.471390	1.351136	0.844124
O183	O	0.090361	1.028838	0.344093
O184	O	0.590361	1.528838	0.844093
H185	H	-0.268837	1.075373	-0.000002
H186	H	0.231163	1.575373	0.499998
H187	H	-0.037181	0.466832	-0.000007
H188	H	0.462819	0.966832	0.499993
H189	H	0.098919	0.413133	-0.000021
H190	H	0.598919	0.913133	0.499979
H191	H	0.110856	0.163738	-0.000020
H192	H	0.610856	0.663738	0.499980
C193	C	0.098391	1.040869	0.719766
C194	C	0.598391	1.540869	1.219766
H195	H	0.117538	1.069469	0.747066
H196	H	0.617538	1.569469	1.247066
H197	H	0.126233	1.008038	0.695611
H198	H	0.626233	1.508038	1.195611
H199	H	0.073218	1.077704	0.695612
H200	H	0.573218	1.577704	1.195612
H201	H	-0.669423	0.804610	-0.000027
H202	H	-0.169423	1.304610	0.499973
C203	C	-0.499139	0.713904	-0.000045
C204	C	0.000861	1.213904	0.499955
H205	H	-0.466755	0.671118	-0.000052
H206	H	0.033245	1.171118	0.499948
H207	H	-0.521865	0.710470	0.034256
H208	H	-0.021865	1.210470	0.534256
H209	H	-0.521852	0.710512	-0.034356
H210	H	-0.021852	1.210512	0.465644
C211	C	0.155454	0.689363	-0.000030
C212	C	0.655454	1.189363	0.499970
H213	H	0.145881	0.746186	-0.000035
H214	H	0.645881	1.246186	0.499965
H215	H	0.177488	0.671676	0.034269
H216	H	0.677488	1.171676	0.534269
H217	H	0.177480	0.671698	-0.034342
H218	H	0.677480	1.171698	0.465658
H219	H	-0.777089	0.802808	-0.000019
H220	H	-0.277089	1.302808	0.499981
H221	H	0.089206	1.027153	0.840956
H222	H	0.589206	1.527153	1.340956
H223	H	-0.385971	0.736597	-0.000038
H224	H	0.114029	1.236597	0.499962
H225	H	-0.027477	0.852918	0.841011
H226	H	0.472523	1.352918	1.341011
H227	H	-0.161170	1.077169	0.000018
H228	H	0.338830	1.577169	0.500018
C229	C	-0.036670	0.839189	0.719851
C230	C	0.463330	1.339189	1.219851
H231	H	-0.055814	0.810593	0.747174
H232	H	0.444186	1.310593	1.247174
H233	H	-0.064514	0.872015	0.695692
H234	H	0.435486	1.372015	1.195692
H235	H	-0.011498	0.802351	0.695705
H236	H	0.488502	1.302351	1.195705
H237	H	-0.444614	1.145192	-0.000006
H238	H	0.055386	1.645192	0.499994
H239	H	-0.079198	0.199650	0.000004
H240	H	0.420802	0.699650	0.500004
C241	C	0.130548	1.088843	0.434925
C242	C	0.630548	1.588843	0.934925
H243	H	0.125950	1.081965	0.393616
H244	H	0.625950	1.581965	0.893616
H245	H	0.117254	1.143403	0.445066
H246	H	0.617254	1.643403	0.945066
H247	H	0.170268	1.073737	0.445072
H248	H	0.670268	1.573737	0.945072
H249	H	-0.123367	0.813763	0.000010
H250	H	0.376633	1.313763	0.500010
C251	C	-0.236557	0.791071	-0.000006
C252	C	0.263443	1.291071	0.499994
H253	H	-0.204177	0.748278	-0.000009
H254	H	0.295823	1.248278	0.499991
H255	H	-0.259289	0.787644	0.034291
H256	H	0.240711	1.287644	0.534291
H257	H	-0.259266	0.787684	-0.034320
H258	H	0.240734	1.287684	0.465680
H259	H	-0.059657	0.804893	0.556194
H260	H	0.440343	1.304893	1.056194
H261	H	-0.027471	0.852828	0.159034
H262	H	0.472529	1.352828	0.659034
C263	C	-0.058002	0.556538	0.000011
C264	C	0.441998	1.056538	0.500011
H265	H	-0.090564	0.599057	0.000024
H266	H	0.409436	1.099057	0.500024
H267	H	-0.058973	0.524566	-0.034292
H268	H	0.441027	1.024566	0.465708
H269	H	-0.058961	0.524541	0.034320
H270	H	0.441039	1.024541	0.534320
H271	H	0.105220	0.314393	-0.000032
H272	H	0.605220	0.814393	0.499968
C273	C	-0.563730	1.163987	-0.000010
C274	C	-0.063730	1.663987	0.499990
H275	H	-0.543751	1.207651	-0.000002
H276	H	-0.043751	1.707651	0.499998
H277	H	-0.587318	1.166644	-0.034311
H278	H	-0.087318	1.666644	0.465689
H279	H	-0.587317	1.166605	0.034301
H280	H	-0.087317	1.666605	0.534301
C281	C	-0.701714	1.088911	-0.000022
C282	C	-0.201714	1.588911	0.499978
H283	H	-0.734096	1.131701	-0.000025
H284	H	-0.234096	1.631701	0.499975
H285	H	-0.678995	1.092310	0.034280
H286	H	-0.178995	1.592310	0.534280
H287	H	-0.678993	1.092333	-0.034331
H288	H	-0.178993	1.592333	0.465669
H289	H	0.121361	1.075141	0.556094
H290	H	0.621361	1.575141	1.056094
H291	H	-0.084836	0.350316	0.000013
H292	H	0.415164	0.850316	0.500013
H293	H	0.146569	0.529652	-0.000032
H294	H	0.646569	1.029652	0.499968
C295	C	-0.826354	1.086816	-0.000034
C296	C	-0.326354	1.586816	0.499966
H297	H	-0.864459	1.075749	-0.000044
H298	H	-0.364459	1.575749	0.499956
H299	H	-0.820919	1.116805	0.034267
H300	H	-0.320919	1.616805	0.534267
H301	H	-0.820901	1.116811	-0.034345
H302	H	-0.320901	1.616811	0.465655
C303	C	0.098402	1.040772	0.150117
C304	C	0.598402	1.540772	0.650117
H305	H	0.117546	1.069377	0.177415
H306	H	0.617546	1.569377	0.677415
H307	H	0.126245	1.007936	0.125967
H308	H	0.626245	1.507936	0.625967
H309	H	0.073231	1.077602	0.125958
H310	H	0.573231	1.577602	0.625958
H311	H	0.089211	1.027084	0.271290
H312	H	0.589211	1.527084	0.771290
H313	H	-0.027473	0.852836	0.271374
H314	H	0.472527	1.352836	0.771374
C315	C	-0.064525	0.730929	0.000010
C316	C	0.435475	1.230929	0.500010
H317	H	-0.059098	0.784918	0.000015
H318	H	0.440902	1.284918	0.500015
H319	H	-0.085538	0.721398	-0.034290
H320	H	0.414462	1.221398	0.465710
H321	H	-0.085534	0.721371	0.034321
H322	H	0.414466	1.221371	0.534321
C323	C	-0.068841	0.791163	0.435032
C324	C	0.431159	1.291163	0.935032
H325	H	-0.087990	0.762570	0.462353
H326	H	0.412010	1.262570	0.962353
H327	H	-0.096681	0.823993	0.410871
H328	H	0.403319	1.323993	0.910871
H329	H	-0.043670	0.754322	0.410887
H330	H	0.456330	1.254322	0.910887
