data_functionalizedCrystal
_audit_creation_method	'MofGen! by Chris Wilmer'
_symmetry_space_group_name_H-M	'P1'
_symmetry_Int_Tables_number	1
_symmetry_cell_setting	triclinic
loop_
_symmetry_equiv_pos_as_xyz
  x,y,z
_cell_length_a	29.839131
_cell_length_b	16.625547
_cell_length_c	16.625539
_cell_angle_alpha	90.023545
_cell_angle_beta	89.969769
_cell_angle_gamma	89.959395
loop_
_atom_site_label
_atom_site_type_symbol
_atom_site_fract_x
_atom_site_fract_y
_atom_site_fract_z
Zn1	Zn	-0.178871	-1.232546	-0.456028
Zn2	Zn	-0.253999	-1.232413	-0.321186
Zn3	Zn	-0.178883	-1.097716	-0.321193
Zn4	Zn	-0.253973	-1.097634	-0.455961
O5	O	-0.216431	-1.165078	-0.388592
O6	O	-0.188842	-1.345361	-0.438166
O7	O	-0.244051	-1.214524	-0.208354
O8	O	-0.116014	-1.115692	-0.339110
O9	O	-0.244039	-1.345263	-0.339098
O10	O	-0.116005	-1.214751	-0.438173
O11	O	-0.188863	-1.115563	-0.208360
O12	O	-0.188838	-0.984873	-0.339045
O13	O	-0.243995	-1.115552	-0.568802
O14	O	-0.244007	-0.984813	-0.438058
O15	O	-0.188817	-1.214671	-0.568851
O16	O	-0.316863	-1.214444	-0.339033
O17	O	-0.316844	-1.115423	-0.438051
C18	C	-0.216421	-0.955587	-0.388546
C19	C	-0.216428	-0.865966	-0.388545
C20	C	-0.216428	-0.793183	-0.388552
C21	C	-0.216430	-0.701875	-0.388569
C22	C	-0.216433	-0.629098	-0.388586
C23	C	-0.216436	-0.537784	-0.388602
C24	C	-0.333154	-1.164932	-0.388552
C25	C	-0.383088	-1.164943	-0.388562
C26	C	-0.692729	-1.216732	-0.337108
C27	C	-0.880402	-1.216831	-0.337140
O28	O	-0.904664	-1.260748	-0.293361
N29	N	-0.903873	-1.165245	-0.388653
C30	C	-0.880424	-1.113633	-0.440165
O31	O	-0.904694	-1.069764	-0.483987
C32	C	-0.692751	-1.113538	-0.440137
C33	C	-0.669283	-1.165123	-0.388615
C34	C	-0.669260	-1.268313	-0.285591
C35	C	-0.622345	-1.268284	-0.285581
C36	C	-0.598898	-1.216675	-0.337087
C37	C	-0.622367	-1.165094	-0.388605
C38	C	-0.669303	-1.061931	-0.491653
C39	C	-0.622382	-1.061914	-0.491643
C40	C	-0.598913	-1.113498	-0.440121
C41	C	-0.552005	-1.113456	-0.440101
N42	N	-0.528534	-1.165043	-0.388588
C43	C	-0.551980	-1.216652	-0.337081
C44	C	-0.978954	-1.113686	-0.440175
C45	C	-1.025872	-1.113708	-0.440181
C46	C	-1.025847	-1.216908	-0.337156
C47	C	-0.978928	-1.216880	-0.337147
C48	C	-0.955483	-1.165272	-0.388662
C49	C	-0.453454	-1.216588	-0.337063
C50	C	-0.406535	-1.216553	-0.337055
C51	C	-0.406564	-1.113357	-0.440082
C52	C	-0.453479	-1.113389	-0.440088
C53	C	-0.476923	-1.165011	-0.388575
O54	O	-0.527714	-1.069569	-0.483863
O55	O	-0.527702	-1.260528	-0.293279
C56	C	-0.739644	-1.216760	-0.337119
C57	C	-0.763113	-1.165180	-0.388636
C58	C	-0.739667	-1.113570	-0.440143
C59	C	-0.810031	-1.165202	-0.388642
C60	C	-0.833478	-1.216811	-0.337135
C61	C	-0.810006	-1.268398	-0.285622
C62	C	-0.763091	-1.268370	-0.285612
C63	C	-0.763138	-1.061984	-0.491656
C64	C	-0.810054	-1.062016	-0.491661
C65	C	-0.833500	-1.113625	-0.440155
C66	C	-0.099253	-1.165246	-0.388650
C67	C	-0.049319	-1.165317	-0.388674
C68	C	-0.216402	-1.165117	-0.598901
C69	C	-0.216389	-1.165134	-0.688522
C70	C	-0.216440	-0.375386	-0.388629
C71	C	-0.216439	-0.465007	-0.388620
C72	C	-0.216379	-1.165147	-0.761304
C73	C	-0.216362	-1.165166	-0.852613
C74	C	-0.216347	-1.165185	-0.925389
C75	C	-0.216330	-1.165205	-1.016704
C76	C	-0.216428	-1.165085	-0.179101
C77	C	-0.216315	-1.165224	-0.089480
H78	H	-0.472537	-1.258626	-0.295119
H79	H	-0.688403	-1.019922	-0.533604
H80	H	-1.044945	-1.258930	-0.295218
H81	H	-0.688345	-1.310343	-0.243648
H82	H	-0.743986	-1.310374	-0.243658
O83	O	-0.832898	-1.012015	-0.541755
C84	C	-0.859979	-1.057910	-0.593901
H85	H	-0.866987	-1.119032	-0.565522
H86	H	-0.841865	-1.066731	-0.653653
C87	C	-0.895957	-0.938491	-0.643339
C88	C	-0.904568	-1.013560	-0.608480
H89	H	-0.923461	-0.911134	-0.652336
H90	H	-0.877711	-0.907570	-0.608210
H91	H	-0.880862	-0.945852	-0.693128
H92	H	-0.919658	-1.006198	-0.558688
H93	H	-0.922818	-1.044479	-0.643602
H94	H	-0.603239	-1.310291	-0.243629
H95	H	-0.829105	-1.310418	-0.243681
O96	O	-1.048598	-1.063567	-0.490299
C97	C	-1.017836	-1.018002	-0.535742
H98	H	-0.984374	-1.051014	-0.538557
H99	H	-1.012889	-0.956780	-0.506152
C100	C	-1.077219	-0.965789	-0.618094
C101	C	-1.036121	-1.006339	-0.621557
H102	H	-1.088498	-0.958591	-0.671028
H103	H	-1.097944	-0.996485	-0.587477
H104	H	-1.073091	-0.914776	-0.593432
H105	H	-1.040250	-1.057355	-0.646210
H106	H	-1.015397	-0.975651	-0.652181
O107	O	-0.383761	-1.063345	-0.490201
C108	C	-0.356571	-1.109220	-0.542296
H109	H	-0.370679	-1.172725	-0.547338
H110	H	-0.321022	-1.112001	-0.517354
C111	C	-0.338506	-0.991789	-0.619888
C112	C	-0.355836	-1.069786	-0.626087
H113	H	-0.338051	-0.967464	-0.671574
H114	H	-0.356823	-0.960882	-0.584790
H115	H	-0.308883	-0.994118	-0.599101
H116	H	-0.385460	-1.067455	-0.646864
H117	H	-0.337523	-1.100692	-0.661191
O118	O	-0.740436	-1.011767	-0.541714
C119	C	-0.771218	-0.966262	-0.587190
H120	H	-0.804675	-0.963524	-0.554165
H121	H	-0.776168	-0.995747	-0.648463
C122	C	-0.711868	-0.883784	-0.639273
C123	C	-0.752960	-0.880416	-0.598707
H124	H	-0.700605	-0.830831	-0.646381
H125	H	-0.691129	-0.914444	-0.608638
H126	H	-0.715999	-0.908359	-0.690329
H127	H	-0.748827	-0.855851	-0.547649
H128	H	-0.773698	-0.849750	-0.629335
H129	H	-0.959868	-1.071658	-0.482126
O130	O	-0.383718	-1.266550	-0.286919
C131	C	-0.356616	-1.220665	-0.234798
H132	H	-0.370792	-1.157171	-0.229755
H133	H	-0.321050	-1.217854	-0.259714
C134	C	-0.338495	-1.338095	-0.157211
C135	C	-0.355909	-1.260112	-0.151013
H136	H	-0.338057	-1.362428	-0.105530
H137	H	-0.356753	-1.369010	-0.192328
H138	H	-0.308858	-1.335742	-0.177978
H139	H	-0.385547	-1.262467	-0.130256
H140	H	-0.337656	-1.229198	-0.115890
O141	O	-0.599559	-1.011739	-0.541575
C142	C	-0.572475	-0.959653	-0.495617
H143	H	-0.565447	-0.988120	-0.434539
H144	H	-0.590596	-0.899919	-0.486701
C145	C	-0.536534	-0.910034	-0.614980
C146	C	-0.527900	-0.945001	-0.539966
H147	H	-0.509039	-0.900992	-0.642338
H148	H	-0.554783	-0.945123	-0.645944
H149	H	-0.551637	-0.860259	-0.607540
H150	H	-0.512803	-0.994779	-0.547408
H151	H	-0.509648	-0.909920	-0.509005
H152	H	-0.959823	-1.258885	-0.295194
H153	H	-0.472589	-1.071387	-0.482044
