data_functionalizedCrystal
_audit_creation_method	'MofGen! by Chris Wilmer'
_symmetry_space_group_name_H-M	'P1'
_symmetry_Int_Tables_number	1
_symmetry_cell_setting	triclinic
loop_
_symmetry_equiv_pos_as_xyz
  x,y,z
_cell_length_a	27.440280
_cell_length_b	20.919309
_cell_length_c	20.919309
_cell_angle_alpha	89.826088
_cell_angle_beta	57.447393
_cell_angle_gamma	117.408866
loop_
_atom_site_label
_atom_site_type_symbol
_atom_site_fract_x
_atom_site_fract_y
_atom_site_fract_z
Zr1	Zr	0.491809	0.056706	0.644149
O2	O	0.593470	0.158928	0.541939
O3	O	0.390149	0.025371	0.675470
O4	O	0.483886	0.153727	0.680688
O5	O	0.505984	-0.070680	0.532618
O6	O	0.477635	0.149623	0.790150
O7	O	0.499734	0.030571	0.536720
O8	O	0.309957	-0.079983	0.780816
O9	O	0.673662	0.158926	0.541953
O10	O	0.427298	0.008942	0.770533
O11	O	0.436628	-0.063558	0.685781
O12	O	0.546991	0.087565	0.691925
O13	O	0.556320	0.015065	0.607173
Zr14	Zr	0.491809	-0.111324	0.812186
Zr15	Zr	0.481840	0.050160	0.818729
Zr16	Zr	0.501778	-0.104778	0.637606
Zr17	Zr	0.619706	0.056703	0.644172
Zr18	Zr	0.363913	-0.111321	0.812163
O19	O	0.593470	-0.079989	0.780865
O20	O	0.579296	0.149621	0.790168
O21	O	0.607645	-0.070682	0.532636
O22	O	0.390148	-0.213546	0.914396
O23	O	0.375974	0.016064	0.923699
O24	O	0.404323	-0.204239	0.666167
O25	O	0.477635	0.016062	0.923717
O26	O	0.499733	-0.208345	0.775647
O27	O	0.505984	-0.204241	0.666185
O28	O	0.483885	-0.085189	0.919615
O29	O	0.665738	0.153723	0.680720
O30	O	0.317881	-0.208341	0.775615
O31	O	0.309956	-0.213544	0.914382
O32	O	0.302033	-0.085186	0.919583
O33	O	0.681586	0.030568	0.536752
O34	O	0.673662	0.025365	0.675519
O35	O	0.436628	-0.142183	0.764410
O36	O	0.427298	-0.069683	0.849162
O37	O	0.546991	0.008940	0.770554
O38	O	0.556320	-0.063560	0.685802
C39	C	0.331830	-0.027306	0.728139
C40	C	0.277535	-0.027304	0.728130
C41	C	0.479340	0.174683	0.736352
C42	C	0.475108	0.243237	0.739129
C43	C	0.504279	-0.229301	0.719983
C44	C	0.508511	-0.297855	0.717206
C45	C	-0.064080	0.010528	0.772430
C46	C	-0.115104	0.010525	0.772437
O47	O	-0.145652	0.042687	0.810085
N48	N	-0.135750	-0.027317	0.728197
C49	C	-0.105375	-0.065167	0.683953
O50	O	-0.127622	-0.097355	0.646324
C51	C	-0.054355	-0.065168	0.683950
C52	C	-0.033706	-0.027317	0.728187
C53	C	-0.043432	0.048376	0.816663
C54	C	0.007590	0.048379	0.816655
C55	C	0.037963	0.010534	0.772412
C56	C	0.017315	-0.027313	0.728178
C57	C	-0.023983	-0.103022	0.639711
C58	C	0.027039	-0.103021	0.639713
C59	C	0.047687	-0.065169	0.683950
C60	C	0.098710	-0.065154	0.683927
N61	N	0.119356	-0.027312	0.728167
C62	C	0.088983	0.010533	0.772410
C63	C	-0.212521	-0.065161	0.683962
C64	C	-0.263536	-0.065155	0.683959
C65	C	-0.273263	0.010536	0.772445
C66	C	-0.222243	0.010534	0.772442
C67	C	-0.191874	-0.027318	0.728202
C68	C	0.196133	0.010537	0.772388
C69	C	0.247161	0.010540	0.772372
C70	C	0.256881	-0.065154	0.683890
C71	C	0.205860	-0.065154	0.683902
C72	C	0.175485	-0.027307	0.728157
O73	O	0.129286	-0.097302	0.646301
O74	O	0.111231	0.042708	0.810041
C75	C	0.651788	-0.027312	0.728196
C76	C	0.706084	-0.027314	0.728205
C77	C	0.504279	-0.019122	0.509795
C78	C	0.508511	-0.016343	0.435681
C79	C	0.535596	0.316485	0.699403
C80	C	0.531615	0.380896	0.702023
C81	C	0.467146	0.372058	0.744365
C82	C	0.406653	0.298803	0.784097
C83	C	0.410634	0.234393	0.781481
C84	C	0.451999	0.564480	0.754321
C85	C	0.448022	0.628897	0.756932
C86	C	0.572985	0.710986	0.674860
C87	C	0.576961	0.646571	0.672243
C88	C	0.516468	0.573322	0.711978
C89	C	0.463075	0.437896	0.747043
C90	C	0.520539	0.507486	0.709305
C91	C	0.448023	-0.056074	0.441893
C92	C	0.452003	-0.053461	0.372253
C93	C	0.516473	-0.011113	0.296402
C94	C	0.576966	0.028619	0.290192
C95	C	0.572985	0.026002	0.359831
C96	C	0.531619	-0.001160	0.084083
C97	C	0.535596	0.001456	0.014442
C98	C	0.410633	-0.080626	0.096508
C99	C	0.406657	-0.083236	0.166145
C100	C	0.467150	-0.043507	0.159929
C101	C	0.520543	-0.008439	0.225217
C102	C	0.463079	-0.046186	0.231113
C103	C	0.479339	-0.035496	0.946540
C104	C	0.475107	-0.038275	1.020654
C105	C	0.319360	-0.035493	0.946512
C106	C	0.260833	-0.038271	1.020616
C107	C	0.344300	-0.229298	0.719955
C108	C	0.294236	-0.297851	0.717168
C109	C	0.331830	-0.237485	0.938328
C110	C	0.277534	-0.308817	1.009654
C111	C	0.651789	0.182867	0.518007
C112	C	0.706084	0.254199	0.446681
C113	C	0.664258	-0.019125	0.509823
C114	C	0.722786	-0.016347	0.435719
C115	C	0.639319	0.174680	0.736380
C116	C	0.689382	0.243233	0.739167
C117	C	0.233347	0.001474	1.014373
C118	C	0.178361	-0.001121	1.083995
C119	C	0.150858	-0.043464	1.159860
C120	C	0.178349	-0.083210	1.166102
C121	C	0.233337	-0.080610	1.096480
C122	C	0.270726	-0.371093	0.756903
C123	C	0.223694	-0.435512	0.754280
C124	C	0.200169	-0.426687	0.711928
C125	C	0.223684	-0.353438	0.672189
C126	C	0.270719	-0.289020	0.674807
C127	C	0.247166	-0.304471	1.087397
C128	C	0.196156	-0.371489	1.154423
C129	C	0.175511	-0.442852	1.143704
C130	C	0.205885	-0.447196	1.065953
C131	C	0.256897	-0.380179	0.998929
C132	C	0.736459	0.249853	0.368938
C133	C	0.787485	0.316871	0.301912
C134	C	0.808132	0.388234	0.312631
C135	C	0.777755	0.392578	0.390382
C136	C	0.726734	0.325561	0.457406
C137	C	0.750276	-0.056085	0.441962
C138	C	0.805275	-0.053473	0.372341
C139	C	0.832780	-0.011127	0.296476
C140	C	0.805287	0.028615	0.290234
C141	C	0.750292	0.026007	0.359855
C142	C	0.712892	0.234384	0.781526
C143	C	0.759925	0.298790	0.784161
C144	C	0.783451	0.372045	0.744430
C145	C	0.759936	0.380892	0.702070
C146	C	0.712900	0.316486	0.699440
H147	H	0.263972	0.041366	0.808395
H148	H	0.155985	0.031245	1.078898
F149	F	0.645581	0.655986	0.627147
H150	H	0.779066	0.291572	0.818654
H151	H	0.719651	0.191752	0.360195
F152	F	0.387617	0.486531	0.796583
H153	H	0.727911	0.058364	0.354761
H154	H	0.395525	-0.090562	0.503651
F155	F	0.687863	0.156427	0.823817
F156	F	0.338039	0.289399	0.829163
F157	F	0.645580	0.073685	0.209463
H158	H	-0.040787	-0.133846	0.603690
F159	F	0.379401	0.619485	0.802001
F160	F	0.262580	-0.122919	1.103137
F161	F	0.833512	0.440585	0.747234
F162	F	0.819803	0.312232	0.219171
H163	H	0.281622	-0.095963	0.647867
F164	F	0.784985	0.458861	0.659783
H165	H	0.361378	0.174752	0.813830
F166	F	0.604215	0.325900	0.654334
F167	F	0.687889	0.325916	0.654346
F168	F	0.289210	-0.384816	0.916191
H169	H	0.622242	0.058346	0.354768
H170	H	0.580872	0.440535	0.669676
H171	H	0.877561	-0.009010	0.239792
F172	F	0.163811	0.050816	0.819491
H173	H	0.702003	0.329108	0.520706
H174	H	0.727886	-0.090572	0.503729
F175	F	0.121217	-0.514172	1.215045
H176	H	0.849677	0.442798	0.258049
H177	H	0.106082	-0.045575	1.216544
F178	F	0.834524	-0.095777	0.379000
H179	H	0.573030	0.514678	0.674833
F180	F	0.183906	-0.523152	1.054558
H181	H	0.204553	-0.495148	0.786644
H182	H	-0.280335	-0.095967	0.647927
H183	H	0.622235	0.770630	0.642511
H184	H	0.161870	-0.479147	0.709803
H185	H	0.024396	0.079198	0.852679
F186	F	0.198639	-0.344058	0.627118
F187	F	0.799736	0.468534	0.401777
H188	H	0.410589	-0.080669	0.292873
F189	F	-0.305599	0.050812	0.819534
F190	F	-0.075748	0.088662	0.863753
H191	H	0.410584	0.430707	0.781517
H192	H	-0.205435	0.041356	0.808464
H193	H	0.827690	0.063092	0.228456
H194	H	-0.187792	-0.095980	0.647927
H195	H	0.402747	-0.085816	0.377318
F196	F	0.338039	-0.128309	0.246869
H197	H	0.051764	-0.133844	0.603685
H198	H	0.361382	-0.112972	0.101560
H199	H	0.171430	-0.367939	1.217725
F200	F	0.269131	-0.228528	1.098823
H201	H	0.588097	0.035945	-0.047321
F202	F	0.596002	0.041125	0.077458
F203	F	0.183892	-0.105428	0.636810
H204	H	0.573035	0.026041	0.163452
H205	H	0.255739	0.035963	0.952607
H206	H	0.155948	-0.117684	1.227880
H207	H	0.289875	-0.378292	0.791390
H208	H	0.289854	-0.229386	0.642453
