data_functionalizedCrystal
_audit_creation_method	'MofGen! by Chris Wilmer'
_symmetry_space_group_name_H-M	'P1'
_symmetry_Int_Tables_number	1
_symmetry_cell_setting	triclinic
loop_
_symmetry_equiv_pos_as_xyz
  x,y,z
_cell_length_a	14.853567
_cell_length_b	14.519731
_cell_length_c	13.930277
_cell_angle_alpha	90.003389
_cell_angle_beta	90.004377
_cell_angle_gamma	83.661892
loop_
_atom_site_label
_atom_site_type_symbol
_atom_site_fract_x
_atom_site_fract_y
_atom_site_fract_z
O1	O	1.196425	0.120401	0.079767
O2	O	0.933972	0.134744	0.079784
O3	O	1.072147	-0.006668	0.079766
O4	O	1.058250	0.261812	0.079784
O5	O	1.072127	-0.006665	-0.079896
O6	O	0.933952	0.134746	-0.079878
O7	O	1.196404	0.120403	-0.079895
Zn8	Zn	1.065175	0.127575	-0.105236
Zn9	Zn	1.065201	0.127572	0.105125
O10	O	1.058229	0.261815	-0.079877
C11	C	0.900373	0.134095	-0.000045
C12	C	0.800288	0.132148	-0.000039
C13	C	0.387712	0.039914	-0.000067
C14	C	0.366508	0.207914	-0.000055
C15	C	0.460543	0.209745	-0.000051
C16	C	0.518166	0.126659	-0.000055
C17	C	0.481755	0.041742	-0.000061
C18	C	0.496961	0.294660	-0.000035
C19	C	0.591001	0.296495	-0.000031
C20	C	0.648626	0.213408	-0.000041
C21	C	0.612210	0.128488	-0.000048
C22	C	0.669833	0.045402	-0.000052
C23	C	0.633419	-0.039519	-0.000066
C24	C	0.539380	-0.041344	-0.000071
C25	C	0.742665	0.215233	-0.000036
C26	C	0.763877	0.047231	-0.000046
C27	C	1.071485	-0.041026	-0.000065
C28	C	1.069534	-0.143405	-0.000066
C29	C	1.067949	-0.226549	-0.000063
C30	C	1.065968	-0.330857	-0.000056
C31	C	1.064395	-0.413995	-0.000049
C32	C	1.062414	-0.518310	-0.000044
C33	C	1.230004	0.121052	-0.000064
C34	C	1.330088	0.122999	-0.000064
C35	C	1.058891	0.296173	-0.000044
C36	C	1.060842	0.398552	-0.000037
N37	N	1.065163	0.127577	-0.248802
C38	C	1.010397	0.071541	-0.299066
C39	C	1.119941	0.183609	-0.299044
C40	C	1.119952	0.183608	-0.399540
C41	C	1.065186	0.127572	-0.449803
C42	C	1.010409	0.071537	-0.399571
C43	C	1.174735	0.239636	-0.449779
C44	C	1.174749	0.239636	-0.550281
C45	C	1.119978	0.183604	-0.600547
C46	C	1.065197	0.127568	-0.550308
C47	C	1.010431	0.071531	-0.600572
C48	C	0.955646	0.015499	-0.550335
C49	C	0.955637	0.015505	-0.449836
C50	C	1.119986	0.183598	-0.701046
C51	C	1.010443	0.071527	-0.701077
N52	N	1.065220	0.127562	0.248691
H53	H	0.680348	-0.107167	-0.000062
Cl54	Cl	0.836311	-0.057227	-0.000057
H55	H	0.509723	-0.110483	-0.000105
H56	H	1.164534	0.229225	-0.258114
H57	H	0.911059	-0.030130	-0.591273
Cl58	Cl	0.941584	0.001082	-0.764257
Cl59	Cl	0.636771	0.403250	-0.000016
Cl60	Cl	1.243585	0.310070	-0.386588
H61	H	1.219358	0.285262	-0.591176
Cl62	Cl	0.788440	0.321982	-0.000011
H63	H	0.965789	0.025923	-0.258159
H64	H	1.164595	0.229216	-0.741944
H65	H	0.358058	-0.029227	-0.000082
H66	H	0.911035	-0.030115	-0.408925
H67	H	0.450038	0.362304	-0.000023
Cl68	Cl	0.294067	0.312358	-0.000037
