data_functionalizedCrystal
_audit_creation_method	'MofGen! by Chris Wilmer'
_symmetry_space_group_name_H-M	'P1'
_symmetry_Int_Tables_number	1
_symmetry_cell_setting	triclinic
loop_
_symmetry_equiv_pos_as_xyz
  x,y,z
_cell_length_a	29.999520
_cell_length_b	29.998686
_cell_length_c	29.995014
_cell_angle_alpha	60.005185
_cell_angle_beta	60.010401
_cell_angle_gamma	59.993433
loop_
_atom_site_label
_atom_site_type_symbol
_atom_site_fract_x
_atom_site_fract_y
_atom_site_fract_z
O1	O	0.061772	-0.651300	0.544623
O2	O	0.023267	-0.507084	0.438819
O3	O	0.114589	-0.598332	0.438743
O4	O	-0.029550	-0.560051	0.544699
O5	O	0.144886	-0.568039	0.468961
O6	O	0.053564	-0.476791	0.469038
O7	O	0.092069	-0.621007	0.574841
Zn8	Zn	0.077627	-0.544089	0.526737
Zn9	Zn	0.037709	-0.584002	0.486923
O10	O	0.000748	-0.529758	0.574918
N11	N	0.104871	-0.516854	0.553912
N12	N	0.010470	-0.611242	0.459748
C13	C	0.143162	-0.478782	0.827124
C14	C	0.378203	-0.478734	0.591892
C15	C	0.143005	-0.478752	0.591997
C16	C	0.142986	-0.243586	0.592008
C17	C	0.180857	-0.357087	0.629814
C18	C	0.180866	-0.440920	0.629807
C19	C	0.201840	-0.419964	0.650755
C20	C	0.293272	-0.404201	0.602606
C21	C	0.350426	-0.423248	0.583534
C22	C	0.350451	-0.515727	0.618798
C23	C	0.293297	-0.496678	0.637872
C24	C	0.194628	-0.328499	0.573626
C25	C	0.175551	-0.271340	0.554591
C26	C	0.128936	-0.271362	0.647935
C27	C	0.148014	-0.328521	0.666970
C28	C	0.124672	-0.427119	0.643641
C29	C	0.105611	-0.446170	0.624592
C30	C	0.198934	-0.492820	0.577889
C31	C	0.217998	-0.473770	0.596931
C32	C	0.124740	-0.427136	0.742229
C33	C	0.105728	-0.446202	0.799386
C34	C	0.199085	-0.492863	0.799337
C35	C	0.218096	-0.473798	0.742178
C36	C	0.180923	-0.440933	0.713626
C37	C	0.264710	-0.440915	0.629773
C38	C	0.121509	-0.499370	0.889991
C39	C	0.441068	-0.498953	0.570621
C40	C	0.121297	-0.499349	0.571429
C41	C	0.121653	-0.180715	0.571802
C42	C	-0.111071	-0.648912	0.421584
C43	C	-0.027286	-0.649018	0.421777
C44	C	-0.048200	-0.669944	0.400740
C45	C	-0.064036	-0.761340	0.448814
C46	C	-0.045033	-0.818500	0.467893
C47	C	0.047447	-0.818609	0.432797
C48	C	0.028444	-0.761451	0.413717
C49	C	-0.139731	-0.662677	0.477755
C50	C	-0.196885	-0.643554	0.496701
C51	C	-0.196717	-0.596907	0.403303
C52	C	-0.139562	-0.616030	0.384357
C53	C	-0.041053	-0.592827	0.407952
C54	C	-0.022041	-0.573809	0.427083
C55	C	0.024504	-0.667167	0.473848
C56	C	0.005492	-0.686188	0.454725
C57	C	-0.040886	-0.592836	0.309259
C58	C	-0.021740	-0.573821	0.252102
C59	C	0.024886	-0.667185	0.252163
C60	C	0.005743	-0.686199	0.309322
C61	C	-0.027145	-0.649023	0.337868
C62	C	-0.027299	-0.732818	0.421728
N63	N	0.492511	-0.516826	0.553742
O64	O	0.679283	-0.525926	0.419277
O65	O	0.679465	-0.632059	0.563349
O66	O	0.679393	-0.631817	0.471975
O67	O	0.679355	-0.526168	0.510650
O68	O	0.588593	-0.601610	0.502313
O69	O	0.588665	-0.601852	0.593686
O70	O	0.588483	-0.495720	0.449614
Zn71	Zn	0.574158	-0.543990	0.526467
Zn72	Zn	0.693790	-0.583788	0.486496
O73	O	0.588555	-0.495962	0.540987
N74	N	0.775436	-0.610952	0.459215
N75	N	0.104844	-0.129269	0.553931
O76	O	-0.029548	0.057600	0.544709
O77	O	0.114530	0.057617	0.438578
O78	O	0.023130	0.057594	0.438850
O79	O	0.061852	0.057623	0.544437
O80	O	0.053431	-0.033213	0.469115
O81	O	0.144831	-0.033190	0.468843
O82	O	0.000753	-0.033207	0.574974
Zn83	Zn	0.077603	-0.047616	0.526714
Zn84	Zn	0.037680	0.072026	0.486838
O85	O	0.092153	-0.033184	0.574702
N86	N	0.010432	0.153679	0.459622
N87	N	0.105130	-0.516904	0.941437
O88	O	0.095923	-0.651280	1.128292
O89	O	-0.010184	-0.507155	1.128318
O90	O	-0.009938	-0.598539	1.128284
O91	O	0.095677	-0.559897	1.128326
O92	O	0.020315	-0.568257	1.037481
O93	O	0.020068	-0.476874	1.037515
O94	O	0.126176	-0.620999	1.037489
Zn95	Zn	0.077925	-0.544128	1.023085
Zn96	Zn	0.038066	-0.584026	1.142722
O97	O	0.125929	-0.529616	1.037523
N98	N	0.010860	-0.611256	1.224371
C99	C	0.034807	-0.473765	0.439352
C100	C	0.147897	-0.586765	0.439257
C101	C	0.080529	-0.654326	0.574308
C102	C	-0.032561	-0.541326	0.574403
C103	C	0.634087	-0.631571	0.596668
C104	C	0.633999	-0.631272	0.483513
C105	C	0.633858	-0.496206	0.416295
C106	C	0.633949	-0.496507	0.529449
C107	C	0.147793	0.012327	0.439058
C108	C	0.034644	0.012187	0.439432
C109	C	-0.032548	0.012195	0.574457
C110	C	0.080639	0.012222	0.574120
C111	C	-0.009670	-0.473857	1.082920
C112	C	-0.009359	-0.587018	1.082860
C113	C	0.125662	-0.654297	1.082887
C114	C	0.125358	-0.541129	1.082927
H115	H	0.059977	-0.434960	0.822668
O116	O	0.197100	0.012561	0.399276
C117	C	0.294303	-0.034044	0.372557
C118	C	0.238498	-0.034368	0.417659
H119	H	0.327787	-0.071988	0.387399
H120	H	0.302124	0.004022	0.362365
H121	H	0.294304	-0.033940	0.334497
H122	H	0.238456	-0.034492	0.455747
H123	H	0.230700	-0.072430	0.427804
H124	H	0.634133	-0.664888	0.638048
O125	O	0.024899	-0.424323	0.399757
C126	C	-0.039878	-0.334430	0.374653
C127	C	-0.028735	-0.390402	0.419538
H128	H	-0.083236	-0.306985	0.390633
H129	H	-0.035025	-0.340076	0.337411
H130	H	-0.009602	-0.314778	0.362696
H131	H	-0.059001	-0.410084	0.431541
H132	H	-0.033569	-0.384720	0.456750
O133	O	-0.081911	0.012266	0.614228
C134	C	-0.162029	0.059333	0.673909
C135	C	-0.106131	0.059312	0.628878
H136	H	-0.181632	0.097371	0.685758
H137	H	-0.156297	0.021361	0.711173
H138	H	-0.189558	0.059297	0.658102
H139	H	-0.078572	0.059367	0.644633
H140	H	-0.111903	0.097281	0.591622
H141	H	0.633941	-0.463320	0.537725
H142	H	0.088930	0.012231	0.607291
H143	H	-0.042983	-0.432464	1.082928
H144	H	0.088756	-0.695753	0.607538
H145	H	-0.042525	-0.595273	1.082811
O146	O	0.634039	-0.670936	0.473727
C147	C	0.634089	-0.762940	0.509438
C148	C	0.634057	-0.718074	0.520589
H149	H	0.634092	-0.801058	0.547322
H150	H	0.672078	-0.773157	0.473700
H151	H	0.596078	-0.747803	0.499043
H152	H	0.672042	-0.733174	0.531007
H153	H	0.596043	-0.707864	0.556312
O154	O	0.056428	-0.703255	0.505772
C155	C	0.143351	-0.735995	0.516164
C156	C	0.107260	-0.695103	0.479950
H157	H	0.184452	-0.729411	0.495307
H158	H	0.149970	-0.779433	0.522742
H159	H	0.122328	-0.729388	0.557277
H160	H	0.128253	-0.701660	0.438817
H161	H	0.100639	-0.651679	0.473417
O162	O	0.165340	-0.703714	1.082900
C163	C	0.190737	-0.793644	1.082832
C164	C	0.145750	-0.737709	1.082832
H165	H	0.174920	-0.821140	1.082765
H166	H	0.202646	-0.813297	1.120844
H167	H	0.227969	-0.787887	1.044843
H168	H	0.108489	-0.743418	1.120795
H169	H	0.133888	-0.718075	1.044794
O170	O	0.164892	-0.531171	1.082910
C171	C	0.189851	-0.466321	1.082964
C172	C	0.145034	-0.477521	1.082971
H173	H	0.173808	-0.422950	1.083025
H174	H	0.227110	-0.471167	1.044952
H175	H	0.201803	-0.496576	1.120953
H176	H	0.133036	-0.447277	1.045008
H177	H	0.107804	-0.472694	1.121009
H178	H	0.026351	0.012184	0.406260
O179	O	0.088553	-0.395236	0.714578
C180	C	-0.006052	-0.350937	0.720660
C181	C	0.034867	-0.387076	0.752043
H182	H	-0.049466	-0.344319	0.750937
H183	H	0.000476	-0.371868	0.693917
H184	H	0.000548	-0.309834	0.693888
H185	H	0.028292	-0.428184	0.778844
H186	H	0.028329	-0.366102	0.778752
O187	O	0.235271	-0.524793	0.826984
C188	C	0.329877	-0.569020	0.820895
C189	C	0.288956	-0.532866	0.789517
H190	H	0.373290	-0.575548	0.790616
H191	H	0.323361	-0.610163	0.847636
H192	H	0.323271	-0.548078	0.847668
H193	H	0.295537	-0.553759	0.762713
H194	H	0.295483	-0.491724	0.762809
H195	H	-0.109425	-0.738032	0.455342
H196	H	0.094434	-0.400372	0.670409
O197	O	0.051019	-0.432836	0.638122
C198	C	-0.034551	-0.437199	0.710619
C199	C	0.027267	-0.452342	0.695372
H200	H	-0.053774	-0.452953	0.756906
H201	H	-0.041824	-0.456476	0.691399
H202	H	-0.053825	-0.390916	0.694836
H203	H	0.046583	-0.498617	0.711152
H204	H	0.034502	-0.433027	0.714584
O205	O	0.235079	-0.524709	0.545943
C206	C	0.329659	-0.568999	0.501661
C207	C	0.288783	-0.532871	0.537835
H208	H	0.373088	-0.575619	0.495103
H209	H	0.323087	-0.548057	0.460534
H210	H	0.323057	-0.610101	0.522600
H211	H	0.295361	-0.491763	0.516944
H212	H	0.295365	-0.553856	0.578960
O213	O	0.633694	-0.456401	0.366978
C214	C	0.586566	-0.365340	0.318286
C215	C	0.586678	-0.410377	0.374171
H216	H	0.548563	-0.328114	0.324083
H217	H	0.586518	-0.381122	0.290741
H218	H	0.624561	-0.353430	0.298661
H219	H	0.548689	-0.422306	0.393843
H220	H	0.586754	-0.394570	0.401676
H221	H	0.189295	-0.594927	0.405983
H222	H	-0.073962	-0.533167	0.607674
H223	H	0.263847	-0.485039	0.718893
H224	H	0.270043	-0.526578	0.659994
O225	O	0.378140	-0.569916	0.626724
C226	C	0.372137	-0.659629	0.663676
C227	C	0.340712	-0.598277	0.654749
H228	H	0.341890	-0.682575	0.686324
H229	H	0.398905	-0.675758	0.688819
H230	H	0.398888	-0.665967	0.622451
H231	H	0.313932	-0.591892	0.695948
H232	H	0.313979	-0.582178	0.629580
H233	H	0.373680	-0.393351	0.561411
O234	O	0.265589	-0.350018	0.594715
C235	C	0.271600	-0.260299	0.557690
C236	C	0.303020	-0.321649	0.566603
H237	H	0.301850	-0.237343	0.534951
H238	H	0.244878	-0.253902	0.598893
H239	H	0.244805	-0.244229	0.532595
H240	H	0.329845	-0.337760	0.591679
H241	H	0.329708	-0.328010	0.525381
H242	H	0.263756	-0.485001	0.585661
H243	H	0.186762	-0.248063	0.508836
O244	O	0.226448	-0.356227	0.537514
C245	C	0.233712	-0.373681	0.463558
C246	C	0.197614	-0.342255	0.504434
H247	H	0.210418	-0.362387	0.436794
H248	H	0.244970	-0.419451	0.486788
H249	H	0.272492	-0.362440	0.436805
H250	H	0.158811	-0.353450	0.531197
H251	H	0.186400	-0.296493	0.481170
O252	O	0.097099	-0.243664	0.684076
C253	C	0.089855	-0.226145	0.757981
C254	C	0.125965	-0.257556	0.717092
H255	H	0.113183	-0.237357	0.784678
H256	H	0.051088	-0.237404	0.784799
H257	H	0.078570	-0.180386	0.734707
H258	H	0.137292	-0.303323	0.740322
H259	H	0.164706	-0.246252	0.690275
O260	O	-0.035169	-0.519219	0.224401
C261	C	-0.083421	-0.428624	0.230378
C262	C	-0.068266	-0.490444	0.261819
H263	H	-0.110173	-0.405341	0.260617
H264	H	-0.106665	-0.417322	0.203563
H265	H	-0.044606	-0.417443	0.203673
H266	H	-0.107053	-0.501669	0.288554
H267	H	-0.045001	-0.501712	0.288599
H268	H	0.136793	-0.351798	0.712725
H269	H	0.051655	-0.697459	0.228927
O270	O	0.019122	-0.740800	0.337027
C271	C	0.067412	-0.831397	0.331052
C272	C	0.052292	-0.769577	0.299610
H273	H	0.094241	-0.854681	0.300815
H274	H	0.028619	-0.842623	0.357725
H275	H	0.090600	-0.842651	0.357900
H276	H	0.029118	-0.758278	0.272733
H277	H	0.091105	-0.758384	0.272972
O278	O	-0.072910	-0.556646	0.375976
C279	C	-0.117046	-0.462038	0.331584
C280	C	-0.080976	-0.502953	0.367815
H281	H	-0.123569	-0.418618	0.324965
H282	H	-0.158194	-0.468529	0.352439
H283	H	-0.096045	-0.468681	0.290491
H284	H	-0.101929	-0.496335	0.408914
H285	H	-0.039830	-0.496452	0.346917
O286	O	-0.035307	-0.519240	0.413635
C287	C	-0.002377	-0.443646	0.369709
C288	C	0.012720	-0.505453	0.384914
H289	H	0.036443	-0.432478	0.346475
H290	H	-0.025671	-0.432348	0.408467
H291	H	-0.029088	-0.420350	0.342893
H292	H	0.039448	-0.528792	0.411715
H293	H	0.035986	-0.516709	0.346133
H294	H	-0.067667	-0.562559	0.332499
O295	O	0.018935	-0.740789	0.468179
C296	C	0.067083	-0.831385	0.516606
C297	C	0.051908	-0.769566	0.501403
H298	H	0.093735	-0.854669	0.543480
H299	H	0.090439	-0.842692	0.477849
H300	H	0.028270	-0.842560	0.539778
H301	H	0.090693	-0.758346	0.478245
H302	H	0.028531	-0.758293	0.540180
H303	H	0.058362	-0.738230	0.391661
H304	H	-0.074948	-0.841721	0.489940
O305	O	0.101617	-0.846342	0.424951
C306	C	0.191338	-0.840424	0.388153
C307	C	0.130008	-0.808949	0.396993
H308	H	0.214308	-0.810205	0.365559
H309	H	0.207488	-0.867178	0.362991
H310	H	0.197613	-0.867196	0.429407
H311	H	0.123686	-0.782147	0.355765
H312	H	0.113888	-0.782230	0.422181
H313	H	-0.220220	-0.654760	0.542443
O314	O	-0.112112	-0.694672	0.513966
C315	C	-0.094750	-0.778798	0.587956
C316	C	-0.126071	-0.742611	0.546984
H317	H	-0.106015	-0.817570	0.614654
H318	H	-0.106031	-0.755556	0.614764
H319	H	-0.048980	-0.790072	0.564752
H320	H	-0.171848	-0.731326	0.570143
H321	H	-0.114744	-0.765873	0.520177
O322	O	-0.224339	-0.565033	0.367093
C323	C	-0.241731	-0.557732	0.293077
C324	C	-0.210405	-0.593883	0.334045
H325	H	-0.230486	-0.581046	0.266355
H326	H	-0.230434	-0.518981	0.266293
H327	H	-0.287500	-0.546414	0.316284
H328	H	-0.164629	-0.605243	0.310882
H329	H	-0.221748	-0.632608	0.360828
H330	H	-0.116227	-0.604815	0.338615
