data_functionalizedCrystal
_audit_creation_method	'MofGen! by Chris Wilmer'
_symmetry_space_group_name_H-M	'P1'
_symmetry_Int_Tables_number	1
_symmetry_cell_setting	triclinic
loop_
_symmetry_equiv_pos_as_xyz
  x,y,z
_cell_length_a	14.044220
_cell_length_b	12.811457
_cell_length_c	11.892095
_cell_angle_alpha	91.498327
_cell_angle_beta	85.754025
_cell_angle_gamma	91.404474
loop_
_atom_site_label
_atom_site_type_symbol
_atom_site_fract_x
_atom_site_fract_y
_atom_site_fract_z
O1	O	-0.130897	1.401368	0.049662
O2	O	-0.142798	1.099114	0.018674
O3	O	0.001185	1.245704	0.033708
O4	O	-0.274880	1.254778	0.034628
O5	O	-0.010802	1.233480	0.220462
O6	O	-0.154784	1.086890	0.205428
O7	O	-0.142884	1.389144	0.236416
Zn8	Zn	-0.150737	1.236076	0.250573
Zn9	Zn	-0.134944	1.252182	0.004517
O10	O	-0.286866	1.242554	0.221382
C11	C	-0.147757	1.054086	0.108061
C12	C	-0.144664	0.938129	0.096173
C13	C	-0.151903	0.706904	0.277455
C14	C	-0.148997	0.597951	0.266291
C15	C	-0.135939	0.611269	0.062681
C16	C	-0.138845	0.720222	0.073845
C17	C	-0.146829	0.768035	0.181236
C18	C	-0.149741	0.876989	0.192399
C19	C	-0.136677	0.890306	-0.011210
C20	C	-0.133771	0.781353	-0.022374
C21	C	-0.316229	1.252638	0.128411
C22	C	-0.421579	1.264486	0.129622
C23	C	-0.614469	1.286145	0.131847
C24	C	-0.671217	1.202118	0.123233
C25	C	-0.778547	1.214170	0.124472
C26	C	-0.507129	1.274095	0.130609
C27	C	0.030548	1.235620	0.126676
C28	C	0.135899	1.223773	0.125459
C29	C	-0.137924	1.434172	0.147026
C30	C	-0.141017	1.550130	0.158907
N31	N	-0.161514	1.225092	0.418501
N32	N	-0.124159	1.263174	-0.163410
C33	C	-0.049111	1.339602	0.666892
C34	C	-0.056651	1.331932	0.784448
C35	C	-0.184130	1.202078	0.771168
C36	C	-0.176590	1.209748	0.653613
C37	C	-0.109079	1.278513	0.601479
C38	C	-0.101544	1.286188	0.483922
C39	C	-0.229017	1.156328	0.470645
C40	C	-0.236557	1.148659	0.588200
H41	H	-0.156247	0.915916	0.279842
H42	H	-0.277850	1.106589	0.417372
O43	O	-0.159493	0.753317	0.381792
C44	C	-0.089560	0.779407	0.559688
C45	C	-0.080835	0.726804	0.441551
H46	H	-0.025985	0.757972	0.608046
H47	H	-0.090707	0.867790	0.551204
H48	H	-0.158496	0.751341	0.607302
H49	H	-0.011903	0.754785	0.393872
H50	H	-0.079743	0.638427	0.450115
H51	H	-0.153134	0.548181	0.344643
O52	O	-0.131611	0.949588	-0.104766
C53	C	-0.039295	0.998544	-0.274914
C54	C	-0.044914	0.931333	-0.169028
H55	H	0.030802	0.983825	-0.326887
H56	H	-0.101712	0.977013	-0.327735
H57	H	-0.042794	1.084619	-0.248462
H58	H	-0.041388	0.845239	-0.195379
H59	H	0.017496	0.952952	-0.116233
H60	H	-0.127266	0.742409	-0.109809
H61	H	-0.646493	1.367126	0.140154
H62	H	-0.639192	1.121130	0.114931
H63	H	-0.129423	0.572321	-0.024752
O64	O	-0.035886	1.353000	0.433454
C65	C	0.089726	1.481027	0.459042
C66	C	0.015422	1.405388	0.516336
H67	H	0.131215	1.523418	0.526028
H68	H	0.141213	1.435225	0.398984
H69	H	0.051705	1.540489	0.409690
H70	H	0.053361	1.345909	0.565748
H71	H	-0.036061	1.451259	0.576330
O72	O	0.016541	1.406420	0.616420
C73	C	0.142137	1.534467	0.642000
C74	C	0.067844	1.458819	0.699299
H75	H	0.183622	1.576869	0.708982
H76	H	0.193629	1.488672	0.581942
H77	H	0.104107	1.593921	0.592646
H78	H	0.105793	1.399349	0.748712
H79	H	0.016356	1.504684	0.759293
O80	O	-0.249594	1.135127	0.821761
C81	C	-0.305506	0.956589	0.839676
C82	C	-0.231301	1.032296	0.782314
H83	H	-0.290755	0.873437	0.807787
H84	H	-0.300580	0.961512	0.934933
H85	H	-0.380171	0.978790	0.818714
H86	H	-0.156603	1.010147	0.803185
H87	H	-0.236312	1.027361	0.687070
H88	H	-0.007818	1.381676	0.837704
O89	O	-0.302033	1.081714	0.638784
C90	C	-0.357976	0.903186	0.656684
C91	C	-0.283752	0.978881	0.599338
H92	H	-0.343234	0.820032	0.624796
H93	H	-0.353062	0.908104	0.751944
H94	H	-0.432633	0.925402	0.635709
H95	H	-0.209061	0.956716	0.620223
H96	H	-0.288750	0.973951	0.504092
