data_functionalizedCrystal
_audit_creation_method	'MofGen! by Chris Wilmer'
_symmetry_space_group_name_H-M	'P1'
_symmetry_Int_Tables_number	1
_symmetry_cell_setting	triclinic
loop_
_symmetry_equiv_pos_as_xyz
  x,y,z
_cell_length_a	14.971486
_cell_length_b	17.038272
_cell_length_c	14.048226
_cell_angle_alpha	89.993466
_cell_angle_beta	89.998499
_cell_angle_gamma	87.362843
loop_
_atom_site_label
_atom_site_type_symbol
_atom_site_fract_x
_atom_site_fract_y
_atom_site_fract_z
O1	O	1.194576	0.101897	-0.079052
O2	O	0.935090	0.114100	-0.079077
O3	O	1.063291	-0.005819	-0.079057
O4	O	1.066375	0.221816	-0.079072
O5	O	1.063274	-0.005826	0.079264
O6	O	0.935073	0.114093	0.079244
O7	O	1.194559	0.101890	0.079270
Zn8	Zn	1.064813	0.107990	0.104394
Zn9	Zn	1.064836	0.108000	-0.104201
O10	O	1.066358	0.221809	0.079249
C11	C	0.901716	0.113551	0.000080
C12	C	0.802296	0.111915	0.000070
C13	C	0.750345	0.182364	0.000067
C14	C	0.656930	0.180823	0.000081
C15	C	0.615468	0.108832	0.000092
C16	C	0.667426	0.038378	0.000098
C17	C	0.760839	0.039920	0.000091
C18	C	0.472723	0.035169	0.000111
C19	C	0.379303	0.033626	0.000117
C20	C	0.368815	0.176072	0.000102
C21	C	0.462228	0.177614	0.000095
C22	C	0.514179	0.107159	0.000099
C23	C	1.060477	-0.034954	0.000103
C24	C	1.052107	-0.121756	0.000102
C25	C	1.128951	-0.171781	0.000111
C26	C	1.121081	-0.253341	0.000101
C27	C	1.036367	-0.284874	0.000089
C28	C	0.959518	-0.234843	0.000078
C29	C	0.967388	-0.153285	0.000081
C30	C	1.008563	-0.530664	0.000073
C31	C	1.000698	-0.612229	0.000073
C32	C	1.162262	-0.630721	0.000095
C33	C	1.170125	-0.549161	0.000103
C34	C	1.093276	-0.499137	0.000087
C35	C	1.028321	-0.368241	0.000082
C36	C	1.101323	-0.415771	0.000087
C37	C	1.227933	0.102440	0.000110
C38	C	1.327353	0.104075	0.000114
C39	C	1.069172	0.250944	0.000087
C40	C	1.077542	0.337746	0.000082
N41	N	1.064804	0.107984	0.246754
N42	N	1.064851	0.108000	-0.246562
C43	C	1.121592	0.054906	0.296581
C44	C	1.121599	0.054905	0.396239
C45	C	1.064820	0.107987	0.446068
C46	C	1.008026	0.161067	0.396234
C47	C	1.008016	0.161064	0.296578
C48	C	1.008052	0.161073	0.603948
C49	C	1.008063	0.161078	0.703611
C50	C	1.121635	0.054915	0.703609
C51	C	1.121625	0.054911	0.603953
C52	C	1.064831	0.107993	0.554126
H53	H	0.515019	-0.022203	0.000116
C54	C	0.866332	-0.269530	0.000063
C55	C	0.800758	-0.250695	0.082266
C56	C	0.707570	-0.285381	0.082254
C57	C	0.679957	-0.338902	0.000040
C58	C	0.745532	-0.357740	-0.082169
C59	C	0.838719	-0.323054	-0.082157
H60	H	0.821198	-0.211072	0.143131
H61	H	0.659027	-0.271435	0.143111
H62	H	0.610974	-0.364579	0.000031
H63	H	0.725092	-0.397362	-0.143034
H64	H	0.887262	-0.336999	-0.143014
C65	C	0.945549	0.219452	0.241765
C66	C	0.883127	0.277869	0.296571
C67	C	0.820655	0.336256	0.241760
C68	C	0.820605	0.336227	0.132143
C69	C	0.883030	0.277808	0.077330
C70	C	0.945502	0.219421	0.132142
H71	H	0.883162	0.277892	0.377722
H72	H	0.774444	0.379502	0.282337
H73	H	0.774359	0.379449	0.091568
H74	H	0.882995	0.277784	-0.003821
H75	H	0.991712	0.176175	0.091565
H76	H	0.784097	0.240987	0.000058
C77	C	0.507835	0.256805	0.000084
C78	C	0.490667	0.315345	0.082294
C79	C	0.536272	0.394538	0.082287
C80	C	0.599045	0.415191	0.000070
C81	C	0.616215	0.356650	-0.082147
C82	C	0.570610	0.277457	-0.082140
H83	H	0.444196	0.300057	0.143163
H84	H	0.523561	0.437874	0.143150
H85	H	0.632804	0.473814	0.000064
H86	H	0.662686	0.371937	-0.143015
H87	H	0.583321	0.234121	-0.143003
H88	H	0.614636	0.238189	0.000078
C89	C	1.205614	-0.308365	0.000113
C90	C	1.273323	-0.304789	0.082339
C91	C	1.357861	-0.359812	0.082349
C92	C	1.374690	-0.418411	0.000134
C93	C	1.306978	-0.421989	-0.082097
C94	C	1.222440	-0.366966	-0.082108
H95	H	1.260868	-0.261408	0.143205
H96	H	1.407986	-0.357162	0.143223
H97	H	1.437270	-0.459142	0.000142
H98	H	1.319434	-0.465370	-0.142963
H99	H	1.172316	-0.369616	-0.142981
H100	H	0.803137	-0.017447	0.000093
H101	H	0.961827	0.204302	0.744176
C102	C	1.184104	-0.003478	0.758417
C103	C	1.144615	-0.063330	0.826941
C104	C	1.207085	-0.121717	0.881756
C105	C	1.309045	-0.120252	0.868046
C106	C	1.348540	-0.060398	0.799519
C107	C	1.286070	-0.002011	0.744704
H108	H	1.069133	-0.064417	0.837093
H109	H	1.177847	-0.166025	0.932484
H110	H	1.355289	-0.163474	0.908623
H111	H	1.424022	-0.059312	0.789367
H112	H	1.315307	0.042297	0.693976
H113	H	1.170296	-0.390093	0.000076
H114	H	0.961801	0.204295	0.563382
H115	H	1.167839	0.011685	0.436808
C116	C	0.621818	-0.040813	0.000112
C117	C	0.638990	-0.099359	0.082331
C118	C	0.593384	-0.178552	0.082344
C119	C	0.530607	-0.199198	0.000137
C120	C	0.513432	-0.140651	-0.082088
C121	C	0.559038	-0.061459	-0.082100
H122	H	0.685464	-0.084076	0.143191
H123	H	0.606098	-0.221892	0.143213
H124	H	0.496846	-0.257821	0.000146
H125	H	0.466957	-0.155934	-0.142948
H126	H	0.546324	-0.018118	-0.142969
C127	C	1.184080	-0.003477	0.549137
C128	C	1.175813	-0.092521	0.562848
C129	C	1.238266	-0.150910	0.508029
C130	C	1.308987	-0.120256	0.439500
C131	C	1.317258	-0.031208	0.425786
C132	C	1.254804	0.027182	0.480604
H133	H	1.123458	-0.115217	0.613580
H134	H	1.232144	-0.216830	0.518182
H135	H	1.355219	-0.163479	0.398920
H136	H	1.369612	-0.008511	0.375054
H137	H	1.260927	0.093102	0.470452
H138	H	0.945986	-0.489944	0.000060
H139	H	0.326511	0.233438	0.000103
H140	H	0.345548	-0.024995	0.000127
H141	H	0.961791	0.204285	0.436810
H142	H	0.904813	-0.112555	0.000073
H143	H	1.239108	-0.523493	0.000113
C144	C	1.184051	-0.003487	0.241775
C145	C	1.175779	-0.092529	0.255497
C146	C	1.238237	-0.150925	0.200694
C147	C	1.308967	-0.120279	0.132169
C148	C	1.317242	-0.031232	0.118444
C149	C	1.254784	0.027164	0.173247
H150	H	1.123418	-0.115219	0.306226
H151	H	1.232111	-0.216844	0.210854
H152	H	1.355202	-0.163507	0.091601
H153	H	1.369603	-0.008542	0.067715
H154	H	1.260910	0.093082	0.163087
H155	H	1.224829	-0.671459	0.000106
H156	H	1.197934	-0.146113	0.000126
H157	H	0.931710	-0.637900	0.000079
H158	H	0.959346	-0.393925	0.000075
