data_functionalizedCrystal
_audit_creation_method	'MofGen! by Chris Wilmer'
_symmetry_space_group_name_H-M	'P1'
_symmetry_Int_Tables_number	1
_symmetry_cell_setting	triclinic
loop_
_symmetry_equiv_pos_as_xyz
  x,y,z
_cell_length_a	14.971482
_cell_length_b	14.044190
_cell_length_c	13.448316
_cell_angle_alpha	89.988796
_cell_angle_beta	89.993798
_cell_angle_gamma	88.402193
loop_
_atom_site_label
_atom_site_type_symbol
_atom_site_fract_x
_atom_site_fract_y
_atom_site_fract_z
O1	O	1.196683	0.123521	-0.082690
O2	O	1.696683	0.623521	0.417310
O3	O	0.937449	0.138319	-0.082697
O4	O	1.437449	0.638319	0.417303
O5	O	1.063171	-0.007069	-0.082674
O6	O	1.563171	0.492931	0.417326
O7	O	1.070960	0.268909	-0.082713
O8	O	1.570960	0.768909	0.417287
O9	O	1.063154	-0.007078	0.082710
O10	O	1.563154	0.492922	0.582710
O11	O	0.937431	0.138310	0.082687
O12	O	1.437431	0.638310	0.582687
O13	O	1.196665	0.123512	0.082693
O14	O	1.696665	0.623512	0.582693
Cu15	Cu	1.067046	0.130910	0.097791
Cu16	Cu	1.567046	0.630910	0.597791
Cu17	Cu	1.067068	0.130921	-0.097794
Cu18	Cu	1.567068	0.630921	0.402206
O19	O	1.070942	0.268900	0.082671
O20	O	1.570942	0.768900	0.582671
C21	C	0.904063	0.137653	-0.000005
C22	C	1.404063	0.637653	0.499995
C23	C	0.804609	0.135672	-0.000007
C24	C	1.304609	0.635672	0.499993
C25	C	0.757881	0.134734	0.090145
C26	C	1.257881	0.634734	0.590145
C27	C	0.664435	0.132857	0.090147
C28	C	1.164435	0.632857	0.590147
C29	C	0.617718	0.131925	-0.000005
C30	C	1.117718	0.631925	0.499995
C31	C	0.664453	0.132861	-0.090164
C32	C	1.164453	0.632861	0.409836
C33	C	0.757898	0.134730	-0.090164
C34	C	1.257898	0.634730	0.409836
C35	C	0.469684	0.128965	-0.090157
C36	C	0.969684	0.628965	0.409843
C37	C	0.376232	0.127097	-0.090157
C38	C	0.876232	0.627097	0.409843
C39	C	0.376221	0.127092	0.090154
C40	C	0.876221	0.627092	0.590154
C41	C	0.469666	0.128962	0.090153
C42	C	0.969666	0.628962	0.590153
C43	C	0.516394	0.129899	-0.000006
C44	C	1.016394	0.629899	0.499994
C45	C	1.059755	-0.042392	0.000021
C46	C	1.559755	0.457608	0.500021
C47	C	1.049591	-0.147629	0.000029
C48	C	1.549591	0.352371	0.500029
C49	C	1.103093	-0.397856	-0.000009
C50	C	1.603093	0.102144	0.499991
C51	C	1.031025	-0.340307	-0.000003
C52	C	1.531025	0.159693	0.499997
C53	C	1.041358	-0.233092	0.000015
C54	C	1.541358	0.266908	0.500015
C55	C	1.092761	-0.505082	-0.000027
C56	C	1.592761	-0.005082	0.499973
C57	C	1.230051	0.124178	-0.000000
C58	C	1.730051	0.624178	0.500000
C59	C	1.329504	0.126159	-0.000005
C60	C	1.829504	0.626159	0.499995
C61	C	1.074359	0.304223	-0.000026
C62	C	1.574359	0.804223	0.499974
C63	C	1.084522	0.409460	-0.000041
C64	C	1.584522	0.909460	0.499959
N65	N	1.067038	0.130902	0.235355
N66	N	1.567038	0.630902	0.735355
N67	N	1.067082	0.130921	-0.235359
N68	N	1.567082	0.630921	0.264641
C69	C	1.122729	0.066551	0.287406
C70	C	1.622729	0.566551	0.787406
C71	C	1.122734	0.066550	0.391509
C72	C	1.622734	0.566550	0.891509
C73	C	1.067053	0.130906	0.443560
C74	C	1.567053	0.630906	0.943560
C75	C	1.011356	0.195260	0.391502
C76	C	1.511356	0.695260	0.891502
C77	C	1.011346	0.195256	0.287401
C78	C	1.511346	0.695256	0.787401
C79	C	1.011381	0.195267	0.608482
C80	C	1.511381	0.695267	1.108482
C81	C	1.011391	0.195273	0.712591
C82	C	1.511391	0.695273	1.212591
C83	C	1.122769	0.066561	0.712590
C84	C	1.622769	0.566561	1.212590
C85	C	1.122760	0.066557	0.608489
C86	C	1.622760	0.566557	1.108489
C87	C	1.067063	0.130912	0.556439
C88	C	1.567063	0.630912	1.056439
H89	H	0.961564	-0.371561	-0.000011
H90	H	1.461564	0.128439	0.499989
C91	C	1.189072	-0.256084	0.000039
C92	C	1.689072	0.243916	0.500039
C93	C	1.196858	-0.355672	0.000017
C94	C	1.696858	0.144328	0.500017
H95	H	1.246959	-0.230036	0.000065
H96	H	1.746959	0.269964	0.500065
H97	H	1.157514	-0.235316	-0.057633
H98	H	1.657514	0.264684	0.442367
H99	H	1.157475	-0.235362	0.057713
H100	H	1.657475	0.264638	0.557713
H101	H	1.228450	-0.376395	-0.057661
H102	H	1.728450	0.123605	0.442339
H103	H	1.228430	-0.376449	0.057695
H104	H	1.728430	0.123551	0.557695
H105	H	1.168119	0.014160	0.754976
H106	H	1.668119	0.514160	1.254976
H107	H	0.966049	0.247677	0.754966
H108	H	1.466049	0.747677	1.254966
H109	H	0.626409	0.132095	-0.163567
H110	H	1.126409	0.632095	0.336433
H111	H	1.168104	0.014158	0.566109
H112	H	1.668104	0.514158	1.066109
C113	C	0.901298	0.322507	0.618934
C114	C	1.401298	0.822507	1.118934
C115	C	0.950164	0.266012	0.551266
C116	C	1.450164	0.766012	1.051266
H117	H	0.863514	0.366187	0.583609
H118	H	1.363514	0.866187	1.083609
H119	H	0.865974	0.282995	0.659551
H120	H	1.365974	0.782995	1.159551
H121	H	0.941268	0.356666	0.659524
H122	H	1.441268	0.856666	1.159524
H123	H	0.910193	0.231848	0.510681
H124	H	1.410193	0.731848	1.010681
H125	H	0.985490	0.305530	0.510633
H126	H	1.485490	0.805530	1.010633
H127	H	1.168075	0.014149	0.245033
H128	H	1.668075	0.514149	0.745033
C129	C	0.274715	0.043533	0.194786
C130	C	0.774715	0.543533	0.694786
C131	C	0.324870	0.126044	0.189265
C132	C	0.824870	0.626044	0.689265
H133	H	0.243017	0.042886	0.255974
H134	H	0.743017	0.542886	0.755974
H135	H	0.233518	0.042717	0.141107
H136	H	0.733518	0.542717	0.641107
H137	H	0.313601	-0.010963	0.191036
H138	H	0.813601	0.489037	0.691036
H139	H	0.285983	0.180541	0.193007
H140	H	0.785983	0.680541	0.693007
H141	H	0.366071	0.126870	0.242958
H142	H	0.866071	0.626870	0.742958
C143	C	1.232850	-0.060648	0.381052
C144	C	1.732850	0.439352	0.881052
C145	C	1.183967	-0.004172	0.448723
C146	C	1.683967	0.495828	0.948723
H147	H	1.270660	-0.104304	0.416375
H148	H	1.770660	0.395696	0.916375
H149	H	1.192897	-0.094826	0.340474
H150	H	1.692897	0.405174	0.840474
H151	H	1.268156	-0.021113	0.340424
H152	H	1.768156	0.478887	0.840424
H153	H	1.148656	-0.043707	0.489346
H154	H	1.648656	0.456293	0.989346
H155	H	1.223924	0.030008	0.489318
H156	H	1.723924	0.530008	0.989318
H157	H	0.966014	0.247657	0.433888
H158	H	1.466014	0.747657	0.933888
H159	H	0.965996	0.247656	0.245023
H160	H	1.465996	0.747656	0.745023
H161	H	0.507727	0.129729	-0.163574
H162	H	1.007727	0.629729	0.336426
C163	C	0.790202	0.053868	0.243837
C164	C	1.290202	0.553868	0.743837
C165	C	0.809231	0.135754	0.189243
C166	C	1.309231	0.635754	0.689243
H167	H	0.821907	0.054494	0.305014
H168	H	1.321907	0.554494	0.805014
H169	H	0.727870	0.052628	0.256737
H170	H	1.227870	0.552628	0.756737
H171	H	0.807941	-0.001053	0.206789
H172	H	1.307941	0.498947	0.706789
H173	H	0.791487	0.190675	0.226288
H174	H	1.291487	0.690675	0.726288
H175	H	0.871577	0.137004	0.176346
H176	H	1.371577	0.637004	0.676346
C177	C	0.562927	0.049303	0.194771
C178	C	1.062927	0.549303	0.694771
C179	C	0.613081	0.131815	0.189250
C180	C	1.113081	0.631815	0.689250
H181	H	0.531231	0.048654	0.255961
H182	H	1.031231	0.548654	0.755961
H183	H	0.521728	0.048487	0.141095
H184	H	1.021728	0.548487	0.641095
H185	H	0.601813	-0.005192	0.191019
H186	H	1.101813	0.494808	0.691019
H187	H	0.574193	0.186311	0.192995
H188	H	1.074193	0.686311	0.692995
H189	H	0.654284	0.132640	0.242942
H190	H	1.154284	0.632640	0.742942
C191	C	0.783130	0.216752	-0.243858
C192	C	1.283130	0.716752	0.256142
C193	C	0.809268	0.135770	-0.189260
C194	C	1.309268	0.635770	0.310740
H195	H	0.814849	0.217392	-0.305033
H196	H	1.314849	0.717392	0.194967
H197	H	0.720800	0.215498	-0.256761
H198	H	1.220800	0.715498	0.243239
H199	H	0.796028	0.272286	-0.206810
H200	H	1.296028	0.772286	0.293190
H201	H	0.796364	0.080235	-0.226304
H202	H	1.296364	0.580235	0.273696
H203	H	0.871612	0.137016	-0.176359
H204	H	1.371612	0.637016	0.323641
C205	C	0.343905	0.207950	-0.243858
C206	C	0.843905	0.707950	0.256142
C207	C	0.324874	0.126073	-0.189249
C208	C	0.824874	0.626073	0.310751
H209	H	0.312200	0.207314	-0.305035
H210	H	0.812200	0.707314	0.194965
H211	H	0.326176	0.262871	-0.206823
H212	H	0.826176	0.762871	0.293177
H213	H	0.406245	0.209181	-0.256765
H214	H	0.906245	0.709181	0.243235
H215	H	0.262534	0.124845	-0.176336
H216	H	0.762534	0.624845	0.323664
H217	H	0.342597	0.071137	-0.226292
H218	H	0.842597	0.571137	0.273708
H219	H	0.507700	0.129727	0.163563
H220	H	1.007700	0.629727	0.663563
