data_functionalizedCrystal
_audit_creation_method	'MofGen! by Chris Wilmer'
_symmetry_space_group_name_H-M	'P1'
_symmetry_Int_Tables_number	1
_symmetry_cell_setting	triclinic
loop_
_symmetry_equiv_pos_as_xyz
  x,y,z
_cell_length_a	12.759401
_cell_length_b	16.625546
_cell_length_c	12.759393
_cell_angle_alpha	89.963602
_cell_angle_beta	89.982620
_cell_angle_gamma	90.022629
loop_
_atom_site_label
_atom_site_type_symbol
_atom_site_fract_x
_atom_site_fract_y
_atom_site_fract_z
Zn1	Zn	1.606187	-0.320949	-0.593948
Zn2	Zn	1.606061	-0.455806	-0.418253
Zn3	Zn	1.430492	-0.320992	-0.418287
Zn4	Zn	1.430454	-0.455744	-0.593895
O5	O	1.518299	-0.388373	-0.506096
O6	O	1.753191	-0.338846	-0.570649
O7	O	1.582735	-0.437967	-0.271237
O8	O	1.453868	-0.208154	-0.441625
O9	O	1.753099	-0.437925	-0.441568
O10	O	1.582950	-0.208122	-0.570682
O11	O	1.453745	-0.338919	-0.271261
O12	O	1.283466	-0.338859	-0.441574
O13	O	1.453802	-0.437819	-0.740923
O14	O	1.283438	-0.437860	-0.570592
O15	O	1.582912	-0.338786	-0.740962
O16	O	1.582697	-0.568630	-0.441517
O17	O	1.453680	-0.568584	-0.570560
C18	C	1.245331	-0.388358	-0.506081
C19	C	1.128555	-0.388371	-0.506100
C20	C	1.518199	-0.597864	-0.506052
C21	C	1.518253	-0.687485	-0.506068
C22	C	1.073705	-0.440004	-0.573169
C23	C	0.963981	-0.440014	-0.573180
C24	C	0.963965	-0.336756	-0.439045
C25	C	1.073688	-0.336743	-0.439040
C26	C	1.073714	-0.499621	-0.650608
C27	C	0.963989	-0.499631	-0.650619
C28	C	1.518436	-1.015660	-0.506177
C29	C	1.518382	-0.924352	-0.506150
C30	C	1.518344	-0.851575	-0.506122
C31	C	1.518291	-0.760261	-0.506096
C32	C	1.792332	-0.388388	-0.506111
C33	C	1.909109	-0.388395	-0.506117
C34	C	1.518367	-0.388291	-0.780129
C35	C	1.518396	-0.388256	-0.896906
C36	C	1.518427	-0.178064	-0.506163
C37	C	1.518482	-0.088443	-0.506191
C38	C	1.451260	-0.336672	-0.951787
C39	C	1.451291	-0.336648	-1.061511
C40	C	1.585605	-0.439793	-1.061464
C41	C	1.585567	-0.439821	-0.951742
C42	C	1.373718	-0.277119	-0.951815
C43	C	1.373750	-0.277095	-1.061539
C44	C	1.518291	-0.388396	-0.233128
C45	C	1.518466	-0.388204	-0.116352
H46	H	1.118342	-0.294693	-0.384433
C47	C	1.250871	-0.386112	-1.073522
C48	C	1.269395	-0.307269	-1.107468
H49	H	1.186446	-0.404739	-1.101871
H50	H	1.306279	-0.419921	-1.096504
H51	H	1.247307	-0.387142	-0.999167
H52	H	1.272967	-0.306240	-1.181824
H53	H	1.213973	-0.273451	-1.084492
C54	C	1.181413	-0.614106	-0.689864
C55	C	1.119630	-0.579657	-0.611077
H56	H	1.209764	-0.663514	-0.665453
H57	H	1.139524	-0.623747	-0.750087
H58	H	1.236865	-0.578424	-0.707470
H59	H	1.064173	-0.615337	-0.593476
H60	H	1.161522	-0.570019	-0.550835
H61	H	1.402892	-0.217811	-0.917805
H62	H	0.929994	-0.477341	-0.727974
C63	C	0.813998	-0.583905	-0.621016
C64	C	0.923740	-0.583906	-0.620994
H65	H	0.789152	-0.635932	-0.602732
H66	H	0.789186	-0.545772	-0.571482
H67	H	0.789232	-0.570023	-0.688858
H68	H	0.948506	-0.597783	-0.553150
H69	H	0.948562	-0.622051	-0.670530
H70	H	1.640221	-0.481837	-0.907062
C71	C	1.421112	-0.141684	-1.016447
C72	C	1.403247	-0.192791	-1.101784
H73	H	1.439328	-0.089643	-1.041295
H74	H	1.359362	-0.138290	-0.975095
H75	H	1.476776	-0.162455	-0.975086
H76	H	1.347577	-0.172022	-1.143141
H77	H	1.465003	-0.196182	-1.143153
H78	H	1.640294	-0.481775	-1.106124
C79	C	0.795761	-0.290934	-0.379486
C80	C	0.903652	-0.280018	-0.365322
H81	H	0.758530	-0.255910	-0.333963
H82	H	0.777813	-0.279193	-0.450095
H83	H	0.777769	-0.345101	-0.363988
H84	H	0.921645	-0.225852	-0.380828
H85	H	0.921607	-0.291754	-0.294697
H86	H	1.292326	-0.293841	-0.922036
C87	C	1.028634	-0.463503	-0.827156
C88	C	1.113966	-0.477134	-0.760499
H89	H	1.053488	-0.449615	-0.894993
H90	H	0.987269	-0.510895	-0.831471
H91	H	0.987285	-0.420743	-0.800215
H92	H	1.155312	-0.519897	-0.787436
H93	H	1.155349	-0.429736	-0.756187
