data_functionalizedCrystal
_audit_creation_method	'MofGen! by Chris Wilmer'
_symmetry_space_group_name_H-M	'P1'
_symmetry_Int_Tables_number	1
_symmetry_cell_setting	triclinic
loop_
_symmetry_equiv_pos_as_xyz
  x,y,z
_cell_length_a	25.639242
_cell_length_b	19.805405
_cell_length_c	19.805398
_cell_angle_alpha	90.030326
_cell_angle_beta	89.979057
_cell_angle_gamma	89.978063
loop_
_atom_site_label
_atom_site_type_symbol
_atom_site_fract_x
_atom_site_fract_y
_atom_site_fract_z
Zn1	Zn	0.799263	0.269553	-0.382853
Zn2	Zn	1.299263	0.769553	0.117147
Zn3	Zn	0.799207	0.382743	-0.269661
Zn4	Zn	1.299207	0.882743	0.230339
Zn5	Zn	0.711842	0.269565	-0.269662
Zn6	Zn	1.211842	0.769565	0.230338
Zn7	Zn	0.711804	0.382696	-0.382792
Zn8	Zn	1.211804	0.882696	0.117208
O9	O	0.755529	0.326139	-0.326242
O10	O	1.255529	0.826139	0.173758
O11	O	0.872421	0.284582	-0.367863
O12	O	1.372421	0.784582	0.132137
O13	O	0.787611	0.367754	-0.174945
O14	O	1.287611	0.867754	0.325055
O15	O	0.723478	0.174846	-0.284703
O16	O	1.223478	0.674846	0.215297
O17	O	0.872380	0.367743	-0.284701
O18	O	1.372380	0.867743	0.215299
O19	O	0.787706	0.174838	-0.367863
O20	O	1.287706	0.674838	0.132137
O21	O	0.723423	0.284603	-0.174945
O22	O	1.223423	0.784603	0.325055
O23	O	0.638671	0.284557	-0.284644
O24	O	1.138671	0.784557	0.215356
O25	O	0.723413	0.367663	-0.477517
O26	O	1.223413	0.867663	0.022483
O27	O	0.638643	0.367675	-0.367760
O28	O	1.138643	0.867675	0.132240
O29	O	0.787669	0.284537	-0.477561
O30	O	1.287669	0.784537	0.022439
O31	O	0.787574	0.477454	-0.284643
O32	O	1.287574	0.977454	0.215357
O33	O	0.723359	0.477419	-0.367760
O34	O	1.223359	0.977419	0.132240
C35	C	0.755470	0.501995	-0.326209
C36	C	1.255470	1.001995	0.173791
C37	C	0.755493	0.577227	-0.326218
C38	C	1.255493	1.077227	0.173782
C39	C	0.619686	0.326113	-0.326196
C40	C	1.119686	0.826113	0.173804
C41	C	0.561572	0.326117	-0.326193
C42	C	1.061572	0.826117	0.173807
C43	C	0.755543	0.326093	-0.502785
C44	C	1.255543	0.826093	-0.002785
C45	C	0.755549	0.326074	-0.578017
C46	C	1.255549	0.826074	-0.078017
C47	C	0.201204	0.369491	-0.369480
C48	C	0.701204	0.869491	0.130520
C49	C	0.146599	0.369495	-0.369490
C50	C	0.646599	0.869495	0.130510
O51	O	0.118358	0.406339	-0.406256
O52	O	0.618358	0.906339	0.093744
N53	N	0.119290	0.326158	-0.326286
N54	N	0.619290	0.826158	0.173714
C55	C	0.146588	0.282809	-0.283073
C56	C	0.646588	0.782809	0.216927
O57	O	0.118345	0.245947	-0.246326
O58	O	0.618345	0.745947	0.253674
C59	C	0.201191	0.282802	-0.283067
C60	C	0.701191	0.782802	0.216933
C61	C	0.228498	0.326147	-0.326269
C62	C	0.728498	0.826147	0.173731
C63	C	0.228510	0.412831	-0.412679
C64	C	0.728510	0.912831	0.087321
C65	C	0.283111	0.412828	-0.412667
C66	C	0.783111	0.912828	0.087333
C67	C	0.310405	0.369484	-0.369456
C68	C	0.810405	0.869484	0.130544
C69	C	0.283098	0.326143	-0.326257
C70	C	0.783098	0.826143	0.173743
C71	C	0.228488	0.239450	-0.239858
C72	C	0.728488	0.739450	0.260142
C73	C	0.283095	0.239446	-0.239855
C74	C	0.783095	0.739446	0.260145
C75	C	0.310401	0.282791	-0.283057
C76	C	0.810401	0.782791	0.216943
C77	C	0.364992	0.282796	-0.283034
C78	C	0.864992	0.782796	0.216966
N79	N	0.392302	0.326133	-0.326239
N80	N	0.892302	0.826133	0.173761
C81	C	0.365008	0.369477	-0.369450
C82	C	0.865008	0.869477	0.130550
C83	C	0.031917	0.282826	-0.283092
C84	C	0.531917	0.782826	0.216908
C85	C	-0.022685	0.282836	-0.283094
C86	C	0.477315	0.782836	0.216906
C87	C	-0.022670	0.369521	-0.369513
C88	C	0.477330	0.869521	0.130487
C89	C	0.031933	0.369514	-0.369506
C90	C	0.531933	0.869514	0.130494
C91	C	0.059226	0.326163	-0.326296
C92	C	0.559226	0.826163	0.173704
C93	C	0.479673	0.369467	-0.369421
C94	C	0.979673	0.869467	0.130579
C95	C	0.534279	0.369462	-0.369404
C96	C	1.034279	0.869462	0.130596
C97	C	0.534258	0.282774	-0.282988
C98	C	1.034258	0.782774	0.217012
C99	C	0.479658	0.282782	-0.283003
C100	C	0.979658	0.782782	0.216997
C101	C	0.452366	0.326130	-0.326225
C102	C	0.952366	0.826130	0.173775
O103	O	0.393269	0.245968	-0.246290
O104	O	0.893269	0.745968	0.253710
O105	O	0.393258	0.406326	-0.406197
O106	O	0.893258	0.906326	0.093803
C107	C	0.891902	0.326166	-0.326289
C108	C	1.391902	0.826166	0.173711
C109	C	0.950016	0.326178	-0.326308
C110	C	1.450016	0.826178	0.173692
C111	C	0.755602	0.149596	-0.326290
C112	C	1.255602	0.649596	0.173710
C113	C	0.755634	0.074364	-0.326310
C114	C	1.255634	0.574364	0.173690
C115	C	0.788962	0.612567	-0.282984
C116	C	1.288962	1.112567	0.217016
C117	C	0.788984	0.683255	-0.282999
C118	C	1.288984	1.183255	0.217001
C119	C	0.755534	0.718603	-0.326245
C120	C	1.255534	1.218603	0.173755
C121	C	0.722063	0.683258	-0.369483
C122	C	1.222063	1.183258	0.130517
C123	C	0.722044	0.612571	-0.369471
C124	C	1.222044	1.112571	0.130529
C125	C	0.722140	0.968331	-0.369534
C126	C	1.222140	1.468331	0.130466
C127	C	0.722161	1.039024	-0.369541
C128	C	1.222161	1.539024	0.130459
C129	C	0.789081	1.039016	-0.283061
C130	C	1.289081	1.539016	0.216939
C131	C	0.789061	0.968328	-0.283049
C132	C	1.289061	1.468328	0.216951
C133	C	0.755593	0.932990	-0.326290
C134	C	1.255593	1.432990	0.173710
C135	C	0.755570	0.856342	-0.326274
C136	C	1.255570	1.356342	0.173726
C137	C	0.755554	0.795250	-0.326258
C138	C	1.255554	1.295250	0.173742
C139	C	0.789054	0.369263	-1.039805
C140	C	1.289054	0.869263	-0.539805
C141	C	0.789039	0.369282	-0.969117
C142	C	1.289039	0.869282	-0.469117
C143	C	0.755614	0.325998	-0.933779
C144	C	1.255614	0.825998	-0.433779
C145	C	0.722197	0.282697	-0.969133
C146	C	1.222197	0.782697	-0.469133
C147	C	0.722209	0.282683	-1.039820
C148	C	1.222209	0.782683	-0.539820
C149	C	0.722146	0.282755	-0.684059
C150	C	1.222146	0.782755	-0.184059
C151	C	0.722138	0.282771	-0.613367
C152	C	1.222138	0.782771	-0.113367
C153	C	0.788977	0.369354	-0.613356
C154	C	1.288977	0.869354	-0.113356
C155	C	0.788989	0.369340	-0.684043
C156	C	1.288989	0.869340	-0.184043
C157	C	0.755570	0.326042	-0.719391
C158	C	1.255570	0.826042	-0.219391
C159	C	0.755586	0.326024	-0.796040
C160	C	1.255586	0.826024	-0.296040
C161	C	0.755601	0.326012	-0.857132
C162	C	1.255601	0.826012	-0.357132
C163	C	0.755545	0.326136	-0.150386
C164	C	1.255545	0.826136	0.349614
C165	C	0.755641	0.325965	-0.075154
C166	C	1.255641	0.825965	0.424846
H167	H	0.556509	0.404761	-0.404585
H168	H	1.056509	0.904761	0.095415
H169	H	0.816186	0.404611	-0.584568
H170	H	1.316186	0.904611	-0.084568
H171	H	0.694830	0.712044	-0.404698
H172	H	1.194830	1.212044	0.095302
H173	H	-0.044902	0.404812	-0.404700
H174	H	0.455098	0.904812	0.095300
H175	H	0.694923	1.067802	-0.404762
H176	H	1.194923	1.567802	0.095238
H177	H	0.305314	0.204140	-0.204671
H178	H	0.805314	0.704140	0.295329
H179	H	0.694917	0.247522	-0.584597
H180	H	1.194917	0.747522	-0.084597
H181	H	0.816199	0.583791	-0.247766
H182	H	1.316199	1.083791	0.252234
H183	H	0.816275	0.404507	-1.068573
H184	H	1.316275	0.904507	-0.568573
H185	H	0.694934	0.247500	-0.712831
H186	H	1.194934	0.747500	-0.212831
H187	H	0.695001	0.247424	-1.068600
H188	H	1.195001	0.747424	-0.568600
H189	H	0.305339	0.448122	-0.447848
H190	H	0.805339	0.948122	0.052152
H191	H	0.206293	0.448128	-0.447870
H192	H	0.706293	0.948128	0.052130
H193	H	0.816209	0.404584	-0.712812
H194	H	1.316209	0.904584	-0.212812
H195	H	0.694791	0.583798	-0.404678
H196	H	1.194791	1.083798	0.095322
H197	H	0.694979	0.247457	-0.940355
H198	H	1.194979	0.747457	-0.440355
H199	H	0.694888	0.939565	-0.404740
H200	H	1.194888	1.439565	0.095260
H201	H	-0.044914	0.247547	-0.247908
H202	H	0.455086	0.747547	0.252092
H203	H	0.054136	0.247525	-0.247900
H204	H	0.554136	0.747525	0.252100
H205	H	0.816334	1.067797	-0.247855
H206	H	1.316334	1.567797	0.252145
H207	H	0.457459	0.404764	-0.404618
H208	H	0.957459	0.904764	0.095382
H209	H	0.816238	0.712026	-0.247793
H210	H	1.316238	1.212026	0.252207
H211	H	0.206264	0.204156	-0.204676
H212	H	0.706264	0.704156	0.295324
H213	H	0.054163	0.404809	-0.404686
H214	H	0.554163	0.904809	0.095314
H215	H	0.457423	0.247488	-0.247823
H216	H	0.957423	0.747488	0.252177
H217	H	0.556491	0.247487	-0.247805
H218	H	1.056491	0.747487	0.252195
H219	H	0.816298	0.939551	-0.247832
H220	H	1.316298	1.439551	0.252168
H221	H	0.816241	0.404548	-0.940339
H222	H	1.316241	0.904548	-0.440339
