data_functionalizedCrystal
_audit_creation_method	'MofGen! by Chris Wilmer'
_symmetry_space_group_name_H-M	'P1'
_symmetry_Int_Tables_number	1
_symmetry_cell_setting	triclinic
loop_
_symmetry_equiv_pos_as_xyz
  x,y,z
_cell_length_a	6.817900
_cell_length_b	7.190334
_cell_length_c	10.943867
_cell_angle_alpha	92.179815
_cell_angle_beta	108.843261
_cell_angle_gamma	60.611776
loop_
_atom_site_label
_atom_site_type_symbol
_atom_site_fract_x
_atom_site_fract_y
_atom_site_fract_z
V1	V	-4.249986	0.664977	-0.176574
O2	O	-4.205106	0.652343	0.010604
O3	O	-4.227045	0.660405	-0.352155
O4	O	-4.286593	0.955007	-0.172928
O5	O	-4.145146	0.355702	-0.169863
V6	V	-4.719301	0.627988	-0.154295
O7	O	-4.542413	0.746115	-0.225444
O8	O	-4.877072	0.546850	-0.105425
O9	O	-4.519036	0.632560	0.021285
O10	O	-4.881578	0.640622	-0.341473
O11	O	-4.941538	0.937263	-0.161006
O12	O	-4.459488	0.337958	-0.157941
C13	C	-4.075488	0.649909	-0.394986
C14	C	-4.138584	0.648104	-0.538520
C15	C	-4.151457	1.025700	-0.166359
C16	C	-4.264931	1.267257	-0.164504
C17	C	-4.370058	0.658148	-0.629372
C18	C	-4.401540	0.828176	-0.727962
C19	C	-4.219529	0.474903	-0.695684
C20	C	-4.169310	0.818302	-0.635233
C21	C	-3.987242	0.464873	-0.602933
C22	C	-4.018587	0.634936	-0.701483
C23	C	-4.333934	0.643050	0.064110
C24	C	-4.250080	0.644869	0.207642
H25	H	-4.518106	0.668198	-0.597505
C26	C	-4.249121	0.278843	-0.732129
H27	H	-4.374550	0.287347	-0.707622
H28	H	-4.287820	0.278326	-0.823629
H29	H	-4.103257	0.149899	-0.687594
C30	C	-3.818545	0.621758	-0.744311
H31	H	-3.753357	0.494288	-0.782435
H32	H	-3.883449	0.744241	-0.806433
H33	H	-3.695414	0.618598	-0.670491
H34	H	-4.147640	0.963601	-0.608429
C35	C	-4.638947	1.035651	-0.801285
H36	H	-4.764170	1.043713	-0.776760
H37	H	-4.622308	1.157615	-0.779684
H38	H	-4.676853	1.033596	-0.892651
C39	C	-3.749898	0.257398	-0.529570
H40	H	-3.767542	0.135577	-0.549910
H41	H	-3.625215	0.247890	-0.555272
H42	H	-3.710539	0.260705	-0.438254
