data_functionalizedCrystal
_audit_creation_method	'MofGen! by Chris Wilmer'
_symmetry_space_group_name_H-M	'P1'
_symmetry_Int_Tables_number	1
_symmetry_cell_setting	triclinic
loop_
_symmetry_equiv_pos_as_xyz
  x,y,z
_cell_length_a	23.532407
_cell_length_b	17.038272
_cell_length_c	16.098538
_cell_angle_alpha	87.079695
_cell_angle_beta	92.716143
_cell_angle_gamma	86.980117
loop_
_atom_site_label
_atom_site_type_symbol
_atom_site_fract_x
_atom_site_fract_y
_atom_site_fract_z
O1	O	-0.762623	-0.091367	-0.069152
O2	O	-0.597483	-0.105093	-0.069177
O3	O	-0.679071	0.015578	-0.069158
O4	O	-0.681035	-0.212038	-0.069171
O5	O	-0.674304	0.008556	0.069354
O6	O	-0.592715	-0.112115	0.069335
O7	O	-0.757856	-0.098389	0.069360
Zn8	Zn	-0.674529	-0.106367	0.091339
Zn9	Zn	-0.680810	-0.097115	-0.091156
O10	O	-0.676267	-0.219060	0.069341
C11	C	-0.573865	-0.108254	0.000076
C12	C	-0.510593	-0.107203	0.000067
C13	C	-0.674902	0.041182	0.000097
C14	C	-0.669576	0.127935	0.000096
C15	C	-0.781474	-0.095228	0.000105
C16	C	-0.844746	-0.096279	0.000109
C17	C	-0.114896	-0.172024	0.000101
C18	C	-0.055444	-0.171048	0.000106
O19	O	-0.021858	-0.231137	0.000133
N20	N	-0.029047	-0.099308	0.000109
C21	C	-0.062104	-0.028541	0.000115
O22	O	-0.034191	0.032568	0.000118
C23	C	-0.121554	-0.029518	0.000116
C24	C	-0.147949	-0.101262	0.000104
C25	C	-0.141291	-0.243761	0.000091
C26	C	-0.200739	-0.244737	0.000084
C27	C	-0.233791	-0.173975	0.000087
C28	C	-0.207396	-0.102237	0.000098
C29	C	-0.154610	0.041248	0.000127
C30	C	-0.214064	0.040265	0.000129
C31	C	-0.240459	-0.031479	0.000118
C32	C	-0.299897	-0.032451	0.000094
N33	N	-0.326295	-0.104190	0.000092
C34	C	-0.293242	-0.174952	0.000088
C35	C	0.062747	-0.026494	0.000114
C36	C	0.122196	-0.025516	0.000108
C37	C	0.128851	-0.168023	0.000101
C38	C	0.069400	-0.169000	0.000101
C39	C	0.036349	-0.098234	0.000112
C40	C	-0.418087	-0.176996	0.000073
C41	C	-0.477540	-0.177965	0.000063
C42	C	-0.484190	-0.035459	0.000075
C43	C	-0.424742	-0.034489	0.000081
C44	C	-0.391691	-0.105264	0.000083
O45	O	-0.333520	0.027607	0.000071
O46	O	-0.321162	-0.236052	0.000096
C47	C	-0.680436	-0.244664	0.000083
C48	C	-0.685763	-0.331417	0.000079
N49	N	-0.670246	-0.112680	0.215887
C50	C	-0.718480	0.178411	0.000105
C51	C	-0.713472	0.259925	0.000096
C52	C	-0.659559	0.290961	0.000085
C53	C	-0.610651	0.240479	0.000074
C54	C	-0.615660	0.158967	0.000077
C55	C	-0.641864	0.536589	0.000071
C56	C	-0.636859	0.618107	0.000071
C57	C	-0.739681	0.637548	0.000091
C58	C	-0.744685	0.556033	0.000098
C59	C	-0.695777	0.505558	0.000083
C60	C	-0.654439	0.374281	0.000079
C61	C	-0.700898	0.422240	0.000084
N62	N	-0.685097	-0.090796	-0.215705
C63	C	-0.704890	-0.061480	0.259480
C64	C	-0.701900	-0.065904	0.346668
C65	C	-0.664268	-0.121531	0.390262
C66	C	-0.629620	-0.172733	0.346663
C67	C	-0.632608	-0.168305	0.259476
C68	C	-0.653437	-0.137570	0.653510
C69	C	-0.650453	-0.141996	0.740702
C70	C	-0.722732	-0.035165	0.740702
C71	C	-0.725719	-0.030745	0.653513
C72	C	-0.691069	-0.081944	0.609922
C73	C	-0.661212	-0.126056	0.479383
C74	C	-0.694122	-0.077415	0.520803
H75	H	-0.499027	-0.236390	0.000054
H76	H	-0.133130	0.099669	0.000137
Cl77	Cl	-0.569077	0.657122	0.000062
H78	H	-0.240972	0.097893	0.000138
Cl79	Cl	0.155369	0.064681	0.000101
H80	H	-0.403251	0.023931	0.000077
Cl81	Cl	-0.554177	0.095511	0.000064
Cl82	Cl	-0.774955	0.323378	0.000109
Cl83	Cl	-0.812465	0.517024	0.000085
H84	H	-0.511112	0.022154	0.000075
H85	H	0.035839	0.031136	0.000116
H86	H	-0.619807	-0.187298	0.776193
H87	H	-0.744794	0.396968	0.000074
Cl88	Cl	-0.786260	0.139403	0.000127
Cl89	Cl	-0.586664	0.413305	0.000061
Cl90	Cl	-0.752204	0.008452	0.204686
H91	H	-0.779498	0.678653	0.000101
H92	H	-0.602039	0.495501	0.000059
H93	H	-0.730109	-0.024213	0.382162
Cl94	Cl	-0.773028	0.039187	0.598710
Cl95	Cl	-0.766287	0.029199	0.795506
Cl96	Cl	-0.582308	-0.242663	0.401465
Cl97	Cl	-0.542874	0.279496	0.000051
H98	H	-0.625224	-0.179260	0.618024
H99	H	-0.724760	-0.032120	0.485307
H100	H	-0.604397	-0.209997	0.223984
Cl101	Cl	0.170414	-0.256982	0.000101
H102	H	-0.630573	-0.171351	0.514884
Cl103	Cl	-0.376547	-0.265972	0.000075
H104	H	-0.114385	-0.301388	0.000091
Cl105	Cl	-0.233911	-0.334934	0.000076
H106	H	0.047914	-0.227420	0.000097
