data_functionalizedCrystal
_audit_creation_method	'MofGen! by Chris Wilmer'
_symmetry_space_group_name_H-M	'P1'
_symmetry_Int_Tables_number	1
_symmetry_cell_setting	triclinic
loop_
_symmetry_equiv_pos_as_xyz
  x,y,z
_cell_length_a	29.839125
_cell_length_b	21.295418
_cell_length_c	21.295417
_cell_angle_alpha	89.951286
_cell_angle_beta	89.981013
_cell_angle_gamma	90.035570
loop_
_atom_site_label
_atom_site_type_symbol
_atom_site_fract_x
_atom_site_fract_y
_atom_site_fract_z
Zn1	Zn	-0.254284	-0.962279	-0.250392
Zn2	Zn	0.245716	-0.462279	0.249608
Zn3	Zn	-0.179152	-0.962204	-0.355639
Zn4	Zn	0.320848	-0.462204	0.144361
Zn5	Zn	-0.179136	-0.857025	-0.250421
Zn6	Zn	0.320864	-0.357025	0.249579
Zn7	Zn	-0.254223	-0.856972	-0.355660
Zn8	Zn	0.245777	-0.356972	0.144340
O9	O	-0.216699	-0.909620	-0.303028
O10	O	0.283301	-0.409620	0.196972
O11	O	-0.244350	-1.050359	-0.264332
O12	O	0.255650	-0.550359	0.235668
O13	O	-0.116283	-0.948243	-0.341684
O14	O	0.383717	-0.448243	0.158316
O15	O	-0.189123	-0.871041	-0.162327
O16	O	0.310877	-0.371041	0.337673
O17	O	-0.189151	-1.050304	-0.341656
O18	O	0.310849	-0.550304	0.158344
O19	O	-0.244334	-0.948371	-0.162306
O20	O	0.255666	-0.448371	0.337694
O21	O	-0.116271	-0.870968	-0.264381
O22	O	0.383729	-0.370968	0.235619
O23	O	-0.189064	-0.768929	-0.264402
O24	O	0.310936	-0.268929	0.235598
O25	O	-0.317098	-0.870950	-0.341693
O26	O	0.182902	-0.370950	0.158307
O27	O	-0.244230	-0.768890	-0.341721
O28	O	0.255770	-0.268890	0.158279
O29	O	-0.317143	-0.948319	-0.264353
O30	O	0.182857	-0.448319	0.235647
O31	O	-0.189092	-0.948191	-0.443731
O32	O	0.310908	-0.448191	0.056269
O33	O	-0.244246	-0.870878	-0.443747
O34	O	0.255754	-0.370878	0.056253
C35	C	-0.216639	-0.746069	-0.303068
C36	C	0.283361	-0.246069	0.196932
C37	C	-0.216624	-0.676100	-0.303100
C38	C	0.283376	-0.176100	0.196900
C39	C	-0.245304	-0.643230	-0.343415
C40	C	0.254696	-0.143230	0.156585
C41	C	-0.245321	-0.577487	-0.343402
C42	C	0.254679	-0.077487	0.156598
C43	C	-0.216649	-0.544618	-0.303081
C44	C	0.283351	-0.044618	0.196919
C45	C	-0.187967	-0.577496	-0.262758
C46	C	0.312033	-0.077496	0.237242
C47	C	-0.187954	-0.643238	-0.262768
C48	C	0.312046	-0.143238	0.237232
N49	N	-0.177351	-0.441354	-0.298156
N50	N	0.322649	0.058646	0.201844
N51	N	-0.177364	-0.378902	-0.298150
N52	N	0.322636	0.121098	0.201850
C53	C	-0.216687	-0.346543	-0.303049
C54	C	0.283313	0.153457	0.196951
N55	N	-0.255996	-0.378995	-0.307966
N56	N	0.244004	0.121005	0.192034
N57	N	-0.255982	-0.441452	-0.307974
N58	N	0.244018	0.058548	0.192026
C59	C	-0.216660	-0.473333	-0.303066
C60	C	0.283340	0.026667	0.196934
C61	C	-0.245388	-0.242387	-0.343352
C62	C	0.254612	0.257613	0.156648
C63	C	-0.245405	-0.176644	-0.343335
C64	C	0.254595	0.323356	0.156665
C65	C	-0.188047	-0.176654	-0.262695
C66	C	0.311953	0.323346	0.237305
C67	C	-0.188034	-0.242396	-0.262709
C68	C	0.311966	0.257604	0.237291
C69	C	-0.216703	-0.275259	-0.303041
C70	C	0.283297	0.224741	0.196959
C71	C	-0.333877	-0.909637	-0.303022
C72	C	0.166123	-0.409637	0.196978
C73	C	-0.383812	-0.909645	-0.303020
C74	C	0.116188	-0.409645	0.196980
C75	C	-0.693481	-0.949973	-0.262643
C76	C	-0.193481	-0.449973	0.237357
C77	C	-0.881155	-0.950004	-0.262589
C78	C	-0.381155	-0.450004	0.237411
O79	O	-0.905442	-0.984246	-0.228319
O80	O	-0.405442	-0.484246	0.271681
N81	N	-0.904597	-0.909728	-0.302851
N82	N	-0.404597	-0.409728	0.197149
C83	C	-0.881118	-0.869438	-0.343126
C84	C	-0.381118	-0.369438	0.156874
O85	O	-0.905363	-0.835177	-0.377365
O86	O	-0.405363	-0.335177	0.122635
C87	C	-0.693446	-0.869404	-0.343176
C88	C	-0.193446	-0.369404	0.156824
C89	C	-0.670006	-0.909688	-0.302916
C90	C	-0.170006	-0.409688	0.197084
C91	C	-0.670042	-0.990252	-0.222386
C92	C	-0.170042	-0.490252	0.277614
C93	C	-0.623126	-0.990247	-0.222402
C94	C	-0.123126	-0.490247	0.277598
C95	C	-0.599651	-0.949961	-0.262676
C96	C	-0.099651	-0.449961	0.237324
C97	C	-0.623090	-0.909682	-0.302933
C98	C	-0.123090	-0.409682	0.197067
C99	C	-0.669968	-0.829112	-0.383448
C100	C	-0.169968	-0.329112	0.116552
C101	C	-0.623047	-0.829106	-0.383455
C102	C	-0.123047	-0.329106	0.116545
C103	C	-0.599607	-0.869389	-0.343196
C104	C	-0.099607	-0.369389	0.156804
C105	C	-0.552699	-0.869391	-0.343222
C106	C	-0.052699	-0.369391	0.156778
N107	N	-0.529257	-0.909667	-0.302960
N108	N	-0.029257	-0.409667	0.197040
C109	C	-0.552733	-0.949952	-0.262687
C110	C	-0.052733	-0.449952	0.237313
C111	C	-0.979649	-0.869460	-0.343098
C112	C	-0.479649	-0.369460	0.156902
C113	C	-1.026567	-0.869469	-0.343086
C114	C	-0.526567	-0.369469	0.156914
C115	C	-1.026600	-0.950034	-0.262549
C116	C	-0.526600	-0.450034	0.237451
C117	C	-0.979681	-0.950028	-0.262564
C118	C	-0.479681	-0.450028	0.237436
C119	C	-0.956206	-0.909736	-0.302836
C120	C	-0.456206	-0.409736	0.197164
C121	C	-0.454207	-0.949937	-0.262725
C122	C	0.045793	-0.449937	0.237275
C123	C	-0.407287	-0.949930	-0.262746
C124	C	0.092713	-0.449930	0.237254
C125	C	-0.407258	-0.869363	-0.343282
C126	C	0.092742	-0.369363	0.156718
C127	C	-0.454173	-0.869372	-0.343262
C128	C	0.045827	-0.369372	0.156738
C129	C	-0.477647	-0.909662	-0.302979
C130	C	0.022353	-0.409662	0.197021
O131	O	-0.528383	-0.835162	-0.377469
O132	O	-0.028383	-0.335162	0.122531
O133	O	-0.528479	-0.984198	-0.228443
O134	O	-0.028479	-0.484198	0.271557
C135	C	-0.740397	-0.949979	-0.262627
C136	C	-0.240397	-0.449979	0.237373
C137	C	-0.763837	-0.909699	-0.302884
C138	C	-0.263837	-0.409699	0.197116
C139	C	-0.740361	-0.869414	-0.343157
C140	C	-0.240361	-0.369414	0.156843
C141	C	-0.810755	-0.909708	-0.302872
C142	C	-0.310755	-0.409708	0.197128
C143	C	-0.834230	-0.949994	-0.262599
C144	C	-0.334230	-0.449994	0.237401
C145	C	-0.810788	-0.990270	-0.222337
C146	C	-0.310788	-0.490270	0.277663
C147	C	-0.763873	-0.990264	-0.222353
C148	C	-0.263873	-0.490264	0.277647
C149	C	-0.763803	-0.829138	-0.383419
C150	C	-0.263803	-0.329138	0.116581
C151	C	-0.810719	-0.829147	-0.383400
C152	C	-0.310719	-0.329147	0.116600
C153	C	-0.834195	-0.869433	-0.343127
C154	C	-0.334195	-0.369433	0.156873
C155	C	-0.099976	-0.909640	-0.302988
C156	C	0.400024	-0.409640	0.197012
C157	C	-0.050042	-0.909754	-0.302813
C158	C	0.449958	-0.409754	0.197187
C159	C	-0.216674	-0.909538	-0.466579
C160	C	0.283326	-0.409538	0.033421
C161	C	-0.216678	-0.909560	-0.536547
C162	C	0.283322	-0.409560	-0.036547
C163	C	-0.216746	-0.073811	-0.302999
C164	C	0.283254	0.426189	0.197001
C165	C	-0.216734	-0.143779	-0.303013
C166	C	0.283266	0.356221	0.196987
C167	C	-0.187989	-0.949853	-0.569385
C168	C	0.312011	-0.449853	-0.069385
C169	C	-0.187999	-0.949883	-0.635127
C170	C	0.312001	-0.449883	-0.135127
C171	C	-0.216694	-0.909608	-0.668030
C172	C	0.283306	-0.409608	-0.168030
C173	C	-0.245389	-0.869312	-0.635185
C174	C	0.254611	-0.369312	-0.135185
C175	C	-0.245381	-0.869288	-0.569443
C176	C	0.254619	-0.369288	-0.069443
N177	N	-0.220098	-0.854540	-0.771314
N178	N	0.279902	-0.354540	-0.271314
N179	N	-0.220103	-0.854564	-0.833766
N180	N	0.279897	-0.354564	-0.333766
C181	C	-0.216720	-0.909678	-0.866105
C182	C	0.283280	-0.409678	-0.366105
N183	N	-0.213322	-0.964768	-0.833633
N184	N	0.286678	-0.464768	-0.333633
N185	N	-0.213315	-0.964743	-0.771176
N186	N	0.286685	-0.464743	-0.271176
C187	C	-0.216706	-0.909630	-0.739315
C188	C	0.283294	-0.409630	-0.239315
C189	C	-0.188040	-0.950007	-0.970228
C190	C	0.311960	-0.450007	-0.470228
C191	C	-0.188053	-0.950037	-1.035971
C192	C	0.311947	-0.450037	-0.535971
C193	C	-0.245440	-0.869461	-1.036027
C194	C	0.254560	-0.369461	-0.536027
C195	C	-0.245429	-0.869436	-0.970285
C196	C	0.254571	-0.369436	-0.470285
C197	C	-0.216727	-0.909708	-0.937389
C198	C	0.283273	-0.409708	-0.437389
C199	C	-0.216734	-0.909720	-0.138837
C200	C	0.283266	-0.409720	0.361163
C201	C	-0.216748	-0.909763	-0.068869
C202	C	0.283252	-0.409763	0.431131
H203	H	-0.164599	-0.670001	-0.229937
H204	H	0.335401	-0.170001	0.270063
N205	N	-0.276323	-0.825820	-0.534027
N206	N	0.223677	-0.325820	-0.034027
H207	H	-0.258033	-0.796656	-0.506801
H208	H	0.241967	-0.296656	-0.006801
H209	H	-0.297157	-0.851413	-0.506738
H210	H	0.202843	-0.351413	-0.006738
N211	N	-0.276309	-0.277838	-0.386848
N212	N	0.223691	0.222162	0.113152
H213	H	-0.294484	-0.247036	-0.412383
H214	H	0.205516	0.252964	0.087617
H215	H	-0.297127	-0.305169	-0.361273
H216	H	0.202873	0.194831	0.138727
H217	H	-0.604046	-1.023048	-0.189617
H218	H	-0.104046	-0.523048	0.310383
H219	H	-0.603936	-0.796288	-0.416244
H220	H	-0.103936	-0.296288	0.083756
H221	H	-0.960540	-0.836650	-0.375897
H222	H	-0.460540	-0.336650	0.124103
N223	N	-0.157038	-0.542046	-0.219277
N224	N	0.342962	-0.042046	0.280723
H225	H	-0.164070	-0.553534	-0.174314
H226	H	0.335930	-0.053534	0.325686
H227	H	-0.161412	-0.495423	-0.225447
H228	H	0.338588	0.004577	0.274553
N229	N	-0.276339	-0.141187	-0.386822
N230	N	0.223661	0.358813	0.113178
H231	H	-0.294496	-0.171984	-0.412374
H232	H	0.205504	0.328016	0.087626
H233	H	-0.258013	-0.113859	-0.415904
H234	H	0.241987	0.386141	0.084096
N235	N	-0.695357	-1.033700	-0.178938
N236	N	-0.195357	-0.533700	0.321062
H237	H	-0.673382	-1.059209	-0.153439
H238	H	-0.173382	-0.559209	0.346561
H239	H	-0.714832	-1.062825	-0.204543
H240	H	-0.214832	-0.562825	0.295457
N241	N	-0.381933	-0.825915	-0.386719
N242	N	0.118067	-0.325915	0.113281
H243	H	-0.348655	-0.832026	-0.380615
H244	H	0.151345	-0.332026	0.119385
H245	H	-0.390117	-0.780965	-0.376927
H246	H	0.109883	-0.280965	0.123073
N247	N	-0.157045	-0.993332	-0.670553
N248	N	0.342955	-0.493332	-0.170553
H249	H	-0.161404	-0.987232	-0.717192
H250	H	0.338596	-0.487232	-0.217192
H251	H	-0.164070	-1.038283	-0.659010
H252	H	0.335930	-0.538283	-0.159010
H253	H	-0.268806	-0.836671	-1.062816
H254	H	0.231194	-0.336671	-0.562816
N255	N	-0.157105	-0.993496	-1.071390
N256	N	0.342895	-0.493496	-0.571390
H257	H	-0.161466	-0.987404	-1.118029
H258	H	0.338534	-0.487404	-0.618029
H259	H	-0.164134	-1.038443	-1.059837
H260	H	0.335866	-0.538443	-0.559837
H261	H	-0.829910	-1.023074	-0.189547
H262	H	-0.329910	-0.523074	0.310453
N263	N	-0.276370	-0.825972	-0.934862
N264	N	0.223630	-0.325972	-0.434862
H265	H	-0.294549	-0.800461	-0.965680
H266	H	0.205451	-0.300461	-0.465680
H267	H	-0.258050	-0.796850	-0.907635
H268	H	0.241950	-0.296850	-0.407635
N269	N	-0.954401	-0.993475	-0.219142
N270	N	-0.454401	-0.493475	0.280858
H271	H	-0.976397	-1.018996	-0.193631
H272	H	-0.476397	-0.518996	0.306369
H273	H	-0.934930	-0.967868	-0.190018
H274	H	-0.434930	-0.467868	0.309982
H275	H	-0.744792	-1.023067	-0.189569
H276	H	-0.244792	-0.523067	0.310431
N277	N	-0.276225	-0.678675	-0.386913
N278	N	0.223775	-0.178675	0.113087
H279	H	-0.294397	-0.647871	-0.412451
H280	H	0.205603	-0.147871	0.087549
H281	H	-0.297045	-0.706003	-0.361340
H282	H	0.202955	-0.206003	0.138660
N283	N	-0.276256	-0.542023	-0.386885
N284	N	0.223744	-0.042023	0.113115
H285	H	-0.294417	-0.572818	-0.412435
H286	H	0.205583	-0.072818	0.087565
H287	H	-0.257933	-0.514696	-0.415970
H288	H	0.242067	-0.014696	0.084030
N289	N	-0.276333	-0.825867	-0.670670
N290	N	0.223667	-0.325867	-0.170670
H291	H	-0.294507	-0.800336	-0.639889
H292	H	0.205493	-0.300336	-0.139889
H293	H	-0.297151	-0.851478	-0.697904
H294	H	0.202849	-0.351478	-0.197904
H295	H	-0.164704	-0.149892	-0.229862
H296	H	0.335296	0.350108	0.270138
H297	H	-0.164670	-0.982801	-0.943443
H298	H	0.335330	-0.482801	-0.443443
N299	N	-1.051924	-0.993486	-0.219111
N300	N	-0.551924	-0.493486	0.280889
H301	H	-1.085202	-0.987376	-0.225216
H302	H	-0.585202	-0.487376	0.274784
H303	H	-1.043726	-0.983710	-0.174158
H304	H	-0.543726	-0.483710	0.325842
N305	N	-0.479458	-0.825934	-0.386692
N306	N	0.020542	-0.325934	0.113308
H307	H	-0.457465	-0.800415	-0.412209
H308	H	0.042535	-0.300415	0.087791
H309	H	-0.498913	-0.796818	-0.361068
H310	H	0.001087	-0.296818	0.138932
H311	H	-0.829800	-0.796345	-0.416190
H312	H	-0.329800	-0.296345	0.083810
H313	H	-0.164619	-0.982646	-0.542603
H314	H	0.335381	-0.482646	-0.042603
N315	N	-0.157102	-0.277855	-0.219222
N316	N	0.342898	0.222145	0.280778
H317	H	-0.138942	-0.247058	-0.193674
H318	H	0.361058	0.252942	0.306326
H319	H	-0.136271	-0.305083	-0.244799
H320	H	0.363729	0.194917	0.255201
N321	N	-1.051846	-0.826030	-0.386518
N322	N	-0.551846	-0.326030	0.113482
H323	H	-1.029850	-0.800509	-0.412029
H324	H	-0.529850	-0.300509	0.087971
H325	H	-1.071304	-0.796915	-0.360898
H326	H	-0.571304	-0.296915	0.139102
H327	H	-0.744694	-0.796333	-0.416216
H328	H	-0.244694	-0.296333	0.083784
H329	H	-0.388205	-0.982736	-0.229961
H330	H	0.111795	-0.482736	0.270039
H331	H	-0.473313	-0.982743	-0.229920
H332	H	0.026687	-0.482743	0.270080
H333	H	-0.689044	-0.796309	-0.416231
H334	H	-0.189044	-0.296309	0.083769
