data_functionalizedCrystal
_audit_creation_method	'MofGen! by Chris Wilmer'
_symmetry_space_group_name_H-M	'P1'
_symmetry_Int_Tables_number	1
_symmetry_cell_setting	triclinic
loop_
_symmetry_equiv_pos_as_xyz
  x,y,z
_cell_length_a	19.188930
_cell_length_b	15.538191
_cell_length_c	14.185230
_cell_angle_alpha	71.732748
_cell_angle_beta	75.222167
_cell_angle_gamma	65.208439
loop_
_atom_site_label
_atom_site_type_symbol
_atom_site_fract_x
_atom_site_fract_y
_atom_site_fract_z
O1	O	0.887269	0.098588	0.083721
O2	O	0.679986	0.114452	0.083650
O3	O	0.823977	-0.030780	0.083704
O4	O	0.743279	0.243820	0.083667
O5	O	0.842513	0.007358	-0.083134
O6	O	0.698522	0.152591	-0.083188
O7	O	0.905806	0.136726	-0.083116
Cu8	Cu	0.803857	0.148141	-0.098386
Cu9	Cu	0.781935	0.103038	0.098919
O10	O	0.761815	0.281958	-0.083171
C11	C	0.663373	0.133010	0.000222
C12	C	0.586258	0.131476	0.000196
C13	C	0.841688	-0.046843	0.000292
C14	C	0.866836	-0.151524	0.000310
C15	C	0.616984	-0.438261	0.000203
C16	C	0.640633	-0.536625	0.000209
C17	C	0.773656	-0.559627	0.000255
C18	C	0.750017	-0.461263	0.000254
C19	C	0.671680	-0.400587	0.000227
C20	C	0.804714	-0.423590	0.000278
C21	C	0.781077	-0.325234	0.000272
C22	C	0.702743	-0.264551	0.000241
C23	C	0.648043	-0.302231	0.000220
C24	C	0.883051	-0.484266	0.000298
C25	C	0.937748	-0.446593	0.000322
C26	C	0.914110	-0.348237	0.000323
C27	C	0.835777	-0.287554	0.000293
C28	C	0.968811	-0.310556	0.000344
C29	C	0.945174	-0.212200	0.000338
C30	C	0.812140	-0.189198	0.000286
C31	C	0.519932	0.216685	0.000200
C32	C	0.447470	0.215235	0.000212
C33	C	0.441337	0.128566	0.000239
C34	C	0.507677	0.043347	0.000229
C35	C	0.580137	0.044802	0.000208
N36	N	0.343681	0.049332	0.057070
N37	N	0.274844	0.047956	0.057093
C38	C	0.223020	0.124179	0.000301
N39	N	0.242627	0.201842	-0.056502
N40	N	0.311469	0.203220	-0.056520
C41	C	0.362770	0.126979	0.000261
C42	C	0.078121	0.207822	0.000316
C43	C	0.005660	0.206370	0.000321
C44	C	0.065868	0.034477	0.000348
C45	C	0.138328	0.035934	0.000333
C46	C	0.144449	0.122608	0.000322
C47	C	0.922419	0.118168	0.000313
C48	C	0.999533	0.119701	0.000346
C49	C	0.744104	0.298020	0.000244
C50	C	0.718955	0.402700	0.000232
N51	N	0.819281	0.179863	-0.237159
N52	N	0.766518	0.071308	0.237693
C53	C	0.721268	-0.021897	0.395208
C54	C	0.732933	0.002137	0.290184
C55	C	0.788455	0.116468	0.290213
C56	C	0.776797	0.092440	0.395239
C57	C	0.743203	0.023257	0.447728
C58	C	0.798732	0.137594	0.447759
C59	C	0.787072	0.113572	0.552776
C60	C	0.753476	0.044394	0.605272
C61	C	0.731542	-0.000765	0.552745
C62	C	0.832322	0.206781	0.395269
C63	C	0.854257	0.251936	0.447789
C64	C	0.842602	0.227909	0.552807
C65	C	0.809006	0.158731	0.605304
C66	C	0.864536	0.273068	0.605335
C67	C	0.852875	0.249045	0.710352
C68	C	0.797346	0.134708	0.710320
H69	H	0.683500	-0.184462	0.000231
H70	H	0.524908	0.287261	0.000193
H71	H	0.902293	-0.564355	0.000312
H72	H	0.891882	0.329404	0.562583
H73	H	1.001531	-0.496007	0.000340
H74	H	0.715066	-0.034636	0.247426
H75	H	1.032594	-0.359971	0.000356
H76	H	0.502678	-0.027222	0.000265
H77	H	0.841814	0.226340	0.309757
H78	H	0.704191	-0.057105	0.595484
H79	H	0.596088	-0.567290	0.000175
C80	C	0.684316	-0.098000	0.452952
H81	H	0.672919	-0.121453	0.406634
H82	H	0.719439	-0.150801	0.493929
H83	H	0.637783	-0.068682	0.493908
C84	C	0.760412	0.058589	0.768069
H85	H	0.756619	0.050743	0.838135
H86	H	0.710090	0.080070	0.750856
H87	H	0.791759	-0.002020	0.750855
H88	H	0.192334	-0.033454	0.000335
C89	C	0.877013	0.298703	0.768128
H90	H	0.898700	0.343336	0.721827
H91	H	0.832797	0.332766	0.809093
H92	H	0.914448	0.250638	0.809098
H93	H	0.584252	-0.252826	0.000206
H94	H	0.634144	-0.024588	0.000205
C95	C	0.530812	-0.371513	0.000182
H96	H	0.501619	-0.408034	0.000167
H97	H	0.512368	-0.345968	0.058358
H98	H	0.525291	-0.319364	-0.058009
H99	H	0.743978	0.024841	0.690784
H100	H	0.083106	0.278400	0.000292
H101	H	0.837439	-0.609041	0.000273
H102	H	0.815806	0.172799	0.247463
C103	C	1.005337	-0.170756	0.000365
H104	H	1.055375	-0.220981	0.000392
H105	H	1.005344	-0.119563	-0.057816
H106	H	0.992414	-0.146169	0.058551
C107	C	0.374500	0.308965	0.000232
H108	H	0.388523	0.360790	0.000230
H109	H	0.351419	0.325279	-0.057935
H110	H	0.338545	0.298651	0.058432
H111	H	0.881608	0.308267	0.405038
C112	C	-0.067303	0.300102	0.000326
H113	H	-0.111335	0.286827	0.000329
H114	H	-0.074244	0.322347	0.058502
H115	H	-0.061349	0.348958	-0.057866
C116	C	0.725970	-0.122446	0.000263
H117	H	0.719729	-0.058475	0.000269
H118	H	0.708971	-0.120534	-0.057922
H119	H	0.696051	-0.147141	0.058445
C120	C	0.059129	-0.060858	0.000384
H121	H	0.006474	-0.049524	0.000404
H122	H	0.089820	-0.082639	-0.057791
H123	H	0.076924	-0.109227	0.058577
