data_functionalizedCrystal
_audit_creation_method	'MofGen! by Chris Wilmer'
_symmetry_space_group_name_H-M	'P1'
_symmetry_Int_Tables_number	1
_symmetry_cell_setting	triclinic
loop_
_symmetry_equiv_pos_as_xyz
  x,y,z
_cell_length_a	14.519709
_cell_length_b	9.730223
_cell_length_c	10.654550
_cell_angle_alpha	89.999807
_cell_angle_beta	84.082524
_cell_angle_gamma	90.005407
loop_
_atom_site_label
_atom_site_type_symbol
_atom_site_fract_x
_atom_site_fract_y
_atom_site_fract_z
O1	O	1.224716	-0.114107	0.164618
O2	O	0.956339	-0.114149	0.184004
O3	O	1.096698	-0.114122	-0.008488
O4	O	1.084357	-0.114134	0.357109
O5	O	1.096696	0.114458	-0.008483
O6	O	0.956338	0.114431	0.184009
O7	O	1.224714	0.114473	0.164622
Zn8	Zn	1.090526	0.150744	0.174316
Zn9	Zn	1.090528	-0.150420	0.174310
O10	O	1.084355	0.114446	0.357114
C11	C	0.921974	0.000136	0.183103
C12	C	0.819579	0.000120	0.180396
C13	C	1.095791	0.000166	-0.055275
C14	C	1.093080	0.000161	-0.194692
N15	N	1.090531	0.356280	0.174320
C16	C	0.444631	0.000183	0.170428
C17	C	0.548954	0.000165	0.173196
C18	C	0.632102	0.000150	0.175412
C19	C	0.736431	0.000135	0.178180
C20	C	1.259079	0.000185	0.165524
C21	C	1.361475	0.000192	0.168231
N22	N	1.090530	-0.355956	0.174297
C23	C	1.152698	0.428218	0.089113
C24	C	1.152695	0.572101	0.089098
C25	C	1.028356	0.572096	0.259507
C26	C	1.028355	0.428215	0.259516
C27	C	1.214874	0.356283	0.003918
C28	C	1.277047	0.428221	-0.081295
C29	C	1.277044	0.572104	-0.081310
C30	C	1.214869	0.644049	0.003888
C31	C	1.175721	0.000178	-0.274972
C32	C	1.173168	0.000168	-0.405968
C33	C	1.005326	0.000130	-0.376391
C34	C	1.007880	0.000130	-0.245397
C35	C	1.260921	0.000209	-0.224266
C36	C	1.343569	0.000227	-0.304548
C37	C	1.341016	0.000217	-0.435544
C38	C	1.255815	0.000189	-0.486259
C39	C	1.085262	0.000155	0.403901
C40	C	1.087973	0.000151	0.543318
H41	H	1.327663	0.369636	-0.150667
N42	N	1.214870	0.201098	0.003919
H43	H	1.166050	0.166440	0.070823
H44	H	1.277673	0.166558	0.022349
H45	H	0.977732	0.369643	0.328897
N46	N	1.430148	0.000233	-0.522142
H47	H	1.467288	-0.084488	-0.505807
H48	H	1.467201	0.085037	-0.505771
N49	N	1.253059	0.000159	-0.627547
H50	H	1.318340	0.000167	-0.670713
H51	H	1.219453	0.084888	-0.653196
N52	N	0.913437	0.000103	-0.431084
H53	H	0.924359	0.000109	-0.526251
H54	H	0.877236	0.084834	-0.401729
N55	N	1.214873	0.799237	0.003878
H56	H	1.166058	0.833894	0.070784
H57	H	1.200947	0.833781	-0.081537
H58	H	1.263009	0.000221	-0.117604
N59	N	0.961303	0.649694	0.351391
H60	H	0.996897	0.709397	0.407102
H61	H	0.921933	0.582204	0.405287
H62	H	1.327661	0.630675	-0.150701
N63	N	1.435460	0.000262	-0.249860
H64	H	1.440267	-0.084463	-0.196160
H65	H	1.440197	0.085062	-0.196241
N66	N	0.918747	0.000161	-0.158803
H67	H	0.933295	0.000173	-0.068126
H68	H	0.881639	-0.084572	-0.175224
