data_functionalizedCrystal
_audit_creation_method	'MofGen! by Chris Wilmer'
_symmetry_space_group_name_H-M	'P1'
_symmetry_Int_Tables_number	1
_symmetry_cell_setting	triclinic
loop_
_symmetry_equiv_pos_as_xyz
  x,y,z
_cell_length_a	16.120490
_cell_length_b	25.639239
_cell_length_c	16.120297
_cell_angle_alpha	87.131297
_cell_angle_beta	89.870317
_cell_angle_gamma	87.130891
loop_
_atom_site_label
_atom_site_type_symbol
_atom_site_fract_x
_atom_site_fract_y
_atom_site_fract_z
Zn1	Zn	1.247336	-0.264925	0.534506
Zn2	Zn	1.254252	-0.348157	0.395439
Zn3	Zn	1.115330	-0.256086	0.388428
Zn4	Zn	1.108208	-0.347671	0.527412
O5	O	1.181282	-0.304210	0.461446
O6	O	1.364619	-0.279869	0.521961
O7	O	1.241699	-0.332448	0.278144
O8	O	1.132927	-0.184097	0.407840
O9	O	1.369700	-0.341019	0.419789
O10	O	1.229911	-0.190591	0.515163
O11	O	1.139633	-0.264804	0.272993
O12	O	0.998020	-0.264332	0.400961
O13	O	1.120789	-0.340190	0.644718
O14	O	0.992788	-0.331619	0.503072
O15	O	1.223006	-0.279397	0.649930
O16	O	1.234793	-0.421254	0.412911
O17	O	1.127495	-0.420897	0.509871
C18	C	0.965232	-0.296964	0.450487
C19	C	0.872803	-0.293877	0.445818
C20	C	0.659830	-0.320217	0.485665
C21	C	0.703581	-0.288246	0.437293
C22	C	0.797745	-0.291380	0.442038
C23	C	0.565658	-0.317084	0.480921
C24	C	1.181144	-0.440046	0.461401
C25	C	1.181159	-0.498161	0.461413
C26	C	1.237286	-0.858710	0.411057
C27	C	1.237318	-0.913316	0.411069
O28	O	1.284895	-0.941705	0.368205
N29	N	1.181425	-0.940455	0.461509
C30	C	1.125503	-0.912986	0.511945
O31	O	1.077965	-0.941085	0.554849
C32	C	1.125476	-0.858382	0.511936
C33	C	1.181366	-0.831245	0.461487
C34	C	1.293173	-0.831573	0.360613
C35	C	1.293140	-0.776971	0.360599
C36	C	1.237220	-0.749506	0.411029
C37	C	1.181333	-0.776643	0.461473
C38	C	1.069558	-0.830914	0.562375
C39	C	1.069536	-0.776306	0.562363
C40	C	1.125427	-0.749169	0.511914
C41	C	1.125381	-0.694576	0.511890
N42	N	1.181274	-0.667437	0.461451
C43	C	1.237193	-0.694902	0.411020
C44	C	1.125565	-1.027660	0.511960
C45	C	1.125587	-1.082263	0.511966
C46	C	1.237403	-1.082589	0.411091
C47	C	1.237376	-1.027984	0.411083
C48	C	1.181457	-1.000520	0.461521
C49	C	1.237119	-0.580234	0.410995
C50	C	1.237079	-0.525627	0.410983
C51	C	1.125266	-0.525306	0.511860
C52	C	1.125303	-0.579908	0.511869
C53	C	1.181237	-0.607370	0.461434
O54	O	1.077830	-0.666153	0.554734
O55	O	1.284730	-0.666797	0.368132
C56	C	1.398176	-0.311484	0.472449
C57	C	1.490603	-0.314584	0.477137
C58	C	1.170332	-0.310725	0.678340
C59	C	1.165666	-0.313502	0.770767
C60	C	1.181442	-0.167844	0.461511
C61	C	1.181510	-0.109733	0.461538
C62	C	1.192237	-0.297683	0.245399
C63	C	1.197064	-0.294765	0.152980
C64	C	1.157116	-0.318559	0.939991
C65	C	1.205612	-0.289709	0.983761
C66	C	1.200854	-0.292523	1.077923
C67	C	1.161872	-0.315746	0.845820
H68	H	0.693092	-0.349939	0.530636
C69	C	1.266536	-0.253492	0.938850
N70	N	1.312425	-0.226217	0.905019
H71	H	1.079735	-0.502935	0.552917
C72	C	1.354690	-0.861776	0.305126
N73	N	1.401023	-0.884521	0.263323
H74	H	1.282592	-0.503533	0.369899
H75	H	1.080022	-1.005301	0.553031
C76	C	1.096202	-0.354777	0.984903
N77	N	1.050322	-0.382057	1.018740
H78	H	1.282667	-0.602587	0.369928
C79	C	1.354618	-0.747128	0.305094
N80	N	1.400925	-0.724652	0.263282
C81	C	1.008075	-0.860753	0.617877
N82	N	0.961764	-0.883226	0.659685
C83	C	0.658646	-0.248094	0.376525
N84	N	0.624797	-0.217854	0.330753
C85	C	1.298862	-0.998139	0.355588
N86	N	1.345177	-0.975662	0.313789
C87	C	1.064096	-1.112107	0.567455
N88	N	1.017781	-1.134583	0.609255
C89	C	1.298923	-1.112811	0.355624
N90	N	1.345257	-1.135576	0.313849
H91	H	1.024001	-0.753948	0.603439
H92	H	1.079795	-0.602004	0.552951
