data_functionalizedCrystal
_audit_creation_method	'MofGen! by Chris Wilmer'
_symmetry_space_group_name_H-M	'P1'
_symmetry_Int_Tables_number	1
_symmetry_cell_setting	triclinic
loop_
_symmetry_equiv_pos_as_xyz
  x,y,z
_cell_length_a	8.559649
_cell_length_b	10.654550
_cell_length_c	7.088929
_cell_angle_alpha	83.717104
_cell_angle_beta	95.325015
_cell_angle_gamma	77.131784
loop_
_atom_site_label
_atom_site_type_symbol
_atom_site_fract_x
_atom_site_fract_y
_atom_site_fract_z
O1	O	2.103417	-0.028084	-0.158957
O2	O	1.638930	0.036703	-0.158966
O3	O	1.881854	-0.179534	-0.158954
O4	O	1.860494	0.188152	-0.158969
O5	O	1.914318	-0.208490	0.159022
O6	O	1.671394	0.007747	0.159011
O7	O	2.135881	-0.057041	0.159020
Cu8	Cu	1.906602	-0.027291	0.188049
Cu9	Cu	1.868210	0.006953	-0.187995
O10	O	1.892957	0.159196	0.159008
C11	C	1.595687	0.027135	0.000021
C12	C	1.418468	0.041749	0.000018
C13	C	1.896517	-0.240648	0.000032
C14	C	1.891825	-0.379606	0.000025
C15	C	2.034854	-0.473867	0.000033
C16	C	2.030434	-0.604430	0.000020
C17	C	1.739944	-0.546457	-0.000003
C18	C	1.744364	-0.415896	-0.000003
C19	C	2.182315	-0.437576	0.000061
C20	C	2.325357	-0.531840	0.000072
C21	C	2.320937	-0.662403	0.000058
C22	C	2.173476	-0.698703	0.000034
C23	C	2.179124	-0.047472	0.000028
C24	C	2.356341	-0.062086	0.000019
C25	C	1.878293	0.220310	0.000017
C26	C	1.882985	0.359270	0.000012
N27	N	1.933616	-0.051378	0.452538
N28	N	1.841208	0.031029	-0.452485
H29	H	1.336070	0.141835	0.000003
O30	O	1.605439	-0.324243	-0.000342
C31	C	1.582525	-0.231973	-0.165003
H32	H	1.651861	-0.277290	-0.280101
H33	H	1.448475	-0.199811	-0.220288
H34	H	1.628709	-0.144206	-0.127769
O35	O	2.468716	-0.496765	0.000337
C36	C	2.572794	-0.561283	0.165042
H37	H	2.533889	-0.652838	0.219941
H38	H	2.701731	-0.588893	0.128004
H39	H	2.566925	-0.494289	0.280364
H40	H	2.029405	-0.136774	0.534199
O41	O	1.454381	-0.181570	-0.000060
C42	C	1.361048	-0.275182	-0.000009
H43	H	1.230964	-0.225987	-0.060210
H44	H	1.412274	-0.351916	-0.092324
H45	H	1.364435	-0.323340	0.152542
O46	O	2.186374	-0.310685	-0.000170
C47	C	2.091412	-0.236158	-0.164876
H48	H	1.998461	-0.289471	-0.219816
H49	H	2.026736	-0.137944	-0.127822
H50	H	2.172247	-0.220795	-0.280172
H51	H	2.437406	-0.739149	0.000047
H52	H	2.169886	-0.805017	0.000003
O53	O	1.727143	0.132959	0.449910
C54	C	1.801880	0.212513	0.334141
H55	H	1.923127	0.153132	0.304327
H56	H	1.721220	0.251551	0.193311
H57	H	1.821725	0.297184	0.411165
O58	O	1.596857	-0.581948	0.000073
C59	C	1.623623	-0.717394	0.000031
H60	H	1.753989	-0.765616	0.060234
H61	H	1.538611	-0.756913	0.092348
H62	H	1.599911	-0.739180	-0.152517
