data_functionalizedCrystal
_audit_creation_method	'MofGen! by Chris Wilmer'
_symmetry_space_group_name_H-M	'P1'
_symmetry_Int_Tables_number	1
_symmetry_cell_setting	triclinic
loop_
_symmetry_equiv_pos_as_xyz
  x,y,z
_cell_length_a	17.699104
_cell_length_b	22.010155
_cell_length_c	17.699083
_cell_angle_alpha	90.003354
_cell_angle_beta	96.712734
_cell_angle_gamma	90.009332
loop_
_atom_site_label
_atom_site_type_symbol
_atom_site_fract_x
_atom_site_fract_y
_atom_site_fract_z
O1	O	1.004071	0.050539	-0.095776
O2	O	0.783695	0.050537	-0.108212
O3	O	0.900109	0.050533	0.008195
O4	O	0.887657	0.050543	-0.212182
O5	O	0.900088	-0.050518	0.008178
O6	O	0.783674	-0.050513	-0.108229
O7	O	1.004050	-0.050512	-0.095793
Cu8	Cu	0.893860	-0.059739	-0.102013
Cu9	Cu	0.893885	0.059765	-0.101992
O10	O	0.887636	-0.050507	-0.212200
C11	C	0.755488	0.000012	-0.107772
C12	C	0.671471	0.000011	-0.106427
C13	C	0.146600	0.000021	-0.167171
C14	C	0.225543	0.000022	-0.168430
C15	C	0.274161	0.000019	-0.100095
C16	C	0.243831	0.000020	-0.030496
C17	C	0.164889	0.000022	-0.029238
C18	C	0.562197	0.000010	-0.035569
C19	C	0.641144	0.000006	-0.036833
C20	C	0.622852	0.000010	-0.174762
C21	C	0.543909	0.000013	-0.173503
C22	C	0.513587	0.000017	-0.103905
C23	C	0.427987	0.000016	-0.102541
C24	C	0.359759	0.000015	-0.101459
N25	N	0.893848	-0.143792	-0.102027
C26	C	0.945436	-0.563573	-0.050455
C27	C	0.945440	-0.627181	-0.050449
O28	O	0.989272	-0.660074	-0.006610
N29	N	0.893885	-0.658999	-0.101976
C30	C	0.842318	-0.627206	-0.153507
O31	O	0.798466	-0.660110	-0.197333
C32	C	0.842311	-0.563599	-0.153508
C33	C	0.893875	-0.531785	-0.101982
C34	C	0.996995	-0.531758	0.001067
C35	C	0.996993	-0.468155	0.001061
C36	C	0.945431	-0.436367	-0.050467
C37	C	0.893872	-0.468181	-0.101989
C38	C	0.790741	-0.531808	-0.205034
C39	C	0.790738	-0.468197	-0.205030
C40	C	0.842302	-0.436382	-0.153505
C41	C	0.842308	-0.372790	-0.153523
N42	N	0.893863	-0.340972	-0.101996
C43	C	0.945424	-0.372760	-0.050468
C44	C	0.842334	-0.760784	-0.153500
C45	C	0.842344	-0.824389	-0.153503
C46	C	0.945466	-0.824359	-0.050445
C47	C	0.945459	-0.760753	-0.050446
C48	C	0.893890	-0.728966	-0.101973
C49	C	0.945415	-0.239189	-0.050486
C50	C	0.945410	-0.175580	-0.050499
C51	C	0.842286	-0.175615	-0.153554
C52	C	0.842294	-0.239218	-0.153544
C53	C	0.893861	-0.271004	-0.102004
O54	O	0.798496	-0.339856	-0.197337
O55	O	0.989262	-0.339848	-0.006642
C56	C	1.032258	0.000015	-0.096233
C57	C	1.116275	0.000020	-0.097578
C58	C	0.899653	0.000007	0.036383
C59	C	0.898314	0.000007	0.120402
N60	N	0.893903	0.143817	-0.101972
C61	C	0.888093	0.000020	-0.240388
C62	C	0.889431	0.000024	-0.324406
C63	C	0.966647	0.000007	0.169017
C64	C	0.965385	0.000012	0.247961
C65	C	0.895789	0.000014	0.278287
C66	C	0.827451	0.000016	0.229665
C67	C	0.828714	0.000015	0.150723
C68	C	0.822356	0.000021	0.548028
C69	C	0.821098	0.000020	0.626976
C70	C	0.959026	0.000018	0.645266
C71	C	0.960289	0.000017	0.566324
C72	C	0.891952	0.000022	0.517709
C73	C	0.893321	0.000018	0.432110
C74	C	0.894419	0.000014	0.363885
H75	H	0.283422	0.000021	0.025143
H76	H	0.748753	-0.557702	-0.246990
H77	H	1.014670	0.000017	0.684858
H78	H	1.023320	0.000002	0.144333
H79	H	0.987446	-0.734853	-0.008489
Cl80	Cl	0.777504	-0.720828	-0.218290
Cl81	Cl	0.660977	0.000010	-0.262258
H82	H	0.773070	0.000015	0.111140
H83	H	0.800307	-0.149723	-0.195510
H84	H	1.038983	-0.557635	0.043031
H85	H	0.680728	0.000005	0.018817
Cl86	Cl	0.725902	-0.428240	-0.269811
H87	H	0.504328	0.000013	-0.229149
Cl88	Cl	0.524087	0.000030	0.051926
Cl89	Cl	0.126766	0.000021	0.058255
Cl90	Cl	1.010239	-0.135588	0.014279
H91	H	0.107020	0.000019	-0.222818
Cl92	Cl	1.010245	-0.279137	0.014308
H93	H	0.250230	0.000029	-0.225100
H94	H	0.800313	-0.265122	-0.195508
Cl95	Cl	0.733599	0.000023	0.665099
Cl96	Cl	1.051293	0.000010	0.309075
H97	H	1.038978	-0.442255	0.043019
H98	H	1.016961	0.000013	0.541638
Cl99	Cl	0.736445	0.000029	0.486922
Cl100	Cl	1.010284	-0.864335	0.014335
H101	H	0.800364	-0.850288	-0.195467
Cl102	Cl	0.739958	0.000025	0.267789
