data_functionalizedCrystal
_audit_creation_method	'MofGen! by Chris Wilmer'
_symmetry_space_group_name_H-M	'P1'
_symmetry_Int_Tables_number	1
_symmetry_cell_setting	triclinic
loop_
_symmetry_equiv_pos_as_xyz
  x,y,z
_cell_length_a	11.169417
_cell_length_b	16.625539
_cell_length_c	11.169416
_cell_angle_alpha	89.977153
_cell_angle_beta	90.011219
_cell_angle_gamma	89.982760
loop_
_atom_site_label
_atom_site_type_symbol
_atom_site_fract_x
_atom_site_fract_y
_atom_site_fract_z
Zn1	Zn	1.834932	-0.455868	-0.477777
Zn2	Zn	2.334932	0.044132	0.022223
Zn3	Zn	1.834830	-0.321048	-0.678489
Zn4	Zn	2.334830	0.178952	-0.178489
Zn5	Zn	1.634227	-0.321057	-0.477822
Zn6	Zn	2.134227	0.178943	0.022178
Zn7	Zn	1.634225	-0.455846	-0.678420
Zn8	Zn	2.134225	0.044154	-0.178420
O9	O	1.734553	-0.388455	-0.578127
O10	O	2.234553	0.111545	-0.078127
O11	O	2.002868	-0.437990	-0.504412
O12	O	2.502868	0.062010	-0.004412
O13	O	1.808178	-0.208217	-0.651918
O14	O	2.308178	0.291783	-0.151918
O15	O	1.660894	-0.338953	-0.309866
O16	O	2.160894	0.161047	0.190134
O17	O	2.002793	-0.338938	-0.651875
O18	O	2.502793	0.161062	-0.151875
O19	O	1.808351	-0.437998	-0.309833
O20	O	2.308351	0.062002	0.190167
O21	O	1.660795	-0.208223	-0.504489
O22	O	2.160795	0.291777	-0.004489
O23	O	1.466277	-0.338931	-0.504421
O24	O	1.966277	0.161069	-0.004421
O25	O	1.660891	-0.568682	-0.651756
O26	O	2.160891	-0.068682	-0.151756
O27	O	1.466276	-0.437960	-0.651800
O28	O	1.966276	0.062040	-0.151800
O29	O	1.808349	-0.568698	-0.504345
O30	O	2.308349	-0.068698	-0.004345
O31	O	1.808176	-0.338917	-0.846430
O32	O	2.308176	0.161083	-0.346430
O33	O	1.660793	-0.437952	-0.846379
O34	O	2.160793	0.062048	-0.346379
C35	C	1.422729	-0.388445	-0.578109
C36	C	1.922729	0.111555	-0.078109
C37	C	1.289329	-0.388459	-0.578130
C38	C	1.789329	0.111541	-0.078130
C39	C	1.734631	-0.598764	-0.578038
C40	C	2.234631	-0.098764	-0.078038
C41	C	1.734665	-0.688385	-0.577999
C42	C	2.234665	-0.188385	-0.077999
C43	C	1.734720	-1.016561	-0.577865
C44	C	2.234720	-0.516561	-0.077865
C45	C	1.734701	-0.925252	-0.577906
C46	C	2.234701	-0.425252	-0.077906
C47	C	1.734693	-0.852476	-0.577933
C48	C	2.234693	-0.352476	-0.077933
C49	C	1.734673	-0.761162	-0.577973
C50	C	2.234673	-0.261162	-0.077973
C51	C	2.047596	-0.388466	-0.578146
C52	C	2.547596	0.111534	-0.078146
C53	C	2.180996	-0.388470	-0.578154
C54	C	2.680996	0.111530	-0.078154
C55	C	1.734506	-0.388449	-0.889952
C56	C	2.234506	0.111551	-0.389952
C57	C	1.734595	-0.388473	-1.023352
C58	C	2.234595	0.111527	-0.523352
C59	C	1.734545	-0.178964	-0.578129
C60	C	2.234545	0.321036	-0.078129
C61	C	1.734744	-0.089343	-0.577829
C62	C	2.234744	0.410657	-0.077829
C63	C	1.734634	-0.388479	-0.265085
C64	C	2.234634	0.111521	0.234915
C65	C	1.734668	-0.388489	-0.131685
C66	C	2.234668	0.111511	0.368315
