data_functionalizedCrystal
_audit_creation_method	'MofGen! by Chris Wilmer'
_symmetry_space_group_name_H-M	'P1'
_symmetry_Int_Tables_number	1
_symmetry_cell_setting	triclinic
loop_
_symmetry_equiv_pos_as_xyz
  x,y,z
_cell_length_a	16.974897
_cell_length_b	15.455301
_cell_length_c	16.992695
_cell_angle_alpha	87.173129
_cell_angle_beta	92.972799
_cell_angle_gamma	96.650569
loop_
_atom_site_label
_atom_site_type_symbol
_atom_site_fract_x
_atom_site_fract_y
_atom_site_fract_z
O1	O	1.062125	0.146612	-0.106206
O2	O	1.562125	0.646612	0.393794
O3	O	0.831990	0.130476	-0.118237
O4	O	1.331990	0.630476	0.381763
O5	O	0.946134	0.138473	0.001923
O6	O	1.446134	0.638473	0.501923
O7	O	0.947980	0.138616	-0.226366
O8	O	1.447980	0.638616	0.273634
O9	O	0.939537	-0.006253	0.008066
O10	O	1.439537	0.493747	0.508066
O11	O	0.825392	-0.014249	-0.112094
O12	O	1.325392	0.485751	0.387906
O13	O	1.055527	0.001887	-0.100063
O14	O	1.555527	0.501887	0.399937
Cu15	Cu	0.939857	-0.019396	-0.105518
Cu16	Cu	1.439857	0.480604	0.394482
Cu17	Cu	0.947660	0.151759	-0.112782
Cu18	Cu	1.447660	0.651759	0.387218
O19	O	0.941383	-0.006110	-0.220223
O20	O	1.441383	0.493890	0.279777
C21	C	0.799108	0.056039	-0.114592
C22	C	1.299108	0.556039	0.385408
C23	C	0.710959	0.049858	-0.112873
C24	C	1.210959	0.549858	0.387127
N25	N	0.934375	-0.139777	-0.100408
N26	N	1.434375	0.360223	0.399592
C27	C	0.673135	0.125838	-0.115416
C28	C	1.173135	0.625838	0.384584
C29	C	0.590309	0.120018	-0.113812
C30	C	1.090309	0.620018	0.386188
C31	C	0.545308	0.038217	-0.109661
C32	C	1.045308	0.538217	0.390339
C33	C	0.583137	-0.037768	-0.107121
C34	C	1.083137	0.462232	0.392879
C35	C	0.665962	-0.031947	-0.108730
C36	C	1.165962	0.468053	0.391270
C37	C	0.297212	0.012348	-0.104496
C38	C	0.797212	0.512348	0.395504
C39	C	0.214382	0.006532	-0.102885
C40	C	0.714382	0.506532	0.397115
C41	C	0.221560	0.164319	-0.109578
C42	C	0.721560	0.664319	0.390422
C43	C	0.304386	0.170133	-0.111182
C44	C	0.804386	0.670133	0.388818
C45	C	0.342208	0.094148	-0.108646
C46	C	0.842208	0.594148	0.391354
N47	N	0.460645	0.032266	-0.108020
N48	N	0.960645	0.532266	0.391980
N49	N	0.426868	0.100100	-0.110293
N50	N	0.926868	0.600100	0.389707
C51	C	0.983421	-0.181725	-0.146161
C52	C	1.483421	0.318275	0.353839
C53	C	0.979286	-0.272824	-0.142291
C54	C	1.479286	0.227176	0.357709
C55	C	0.926100	-0.321972	-0.092673
C56	C	1.426100	0.178028	0.407327
C57	C	0.877052	-0.280017	-0.046914
C58	C	1.377052	0.219983	0.453086
C59	C	0.881192	-0.188920	-0.050780
C60	C	1.381192	0.311080	0.449220
C61	C	0.908240	-0.594808	-0.075994
C62	C	1.408240	-0.094808	0.424006
C63	C	0.904102	-0.685911	-0.072133
C64	C	1.404102	-0.185911	0.427867
C65	C	1.006337	-0.678712	-0.167510
C66	C	1.506337	-0.178712	0.332490
C67	C	1.010469	-0.587613	-0.171375
C68	C	1.510469	-0.087613	0.328625
C69	C	0.961424	-0.545666	-0.125613
C70	C	1.461424	-0.045666	0.374387
N71	N	0.921869	-0.415089	-0.088718
N72	N	1.421869	0.084911	0.411282
N73	N	0.965659	-0.452550	-0.129564
N74	N	1.465659	0.047450	0.370436
C75	C	1.088409	0.076326	-0.103708
C76	C	1.588409	0.576326	0.396292
C77	C	1.176558	0.082512	-0.105427
C78	C	1.676558	0.582512	0.394573
C79	C	0.940462	0.065944	0.034212
C80	C	1.440462	0.565944	0.534212
C81	C	0.933380	0.065447	0.121270
C82	C	1.433380	0.565447	0.621270
N83	N	0.953148	0.272140	-0.117886
N84	N	1.453148	0.772140	0.382114
C85	C	0.947055	0.066421	-0.252512
C86	C	1.447055	0.566421	0.247488
C87	C	0.954138	0.066923	-0.339570
C88	C	1.454138	0.566923	0.160430
C89	C	1.001713	0.070238	0.171377
C90	C	1.501713	0.570238	0.671377
C91	C	0.995054	0.069779	0.253176
C92	C	1.495054	0.569779	0.753176
C93	C	0.920061	0.064524	0.284867
C94	C	1.420061	0.564524	0.784867
C95	C	0.851723	0.059736	0.234753
C96	C	1.351723	0.559736	0.734753
C97	C	0.858383	0.060201	0.152955
C98	C	1.358383	0.560201	0.652955
C99	C	0.892459	0.062600	0.528518
C100	C	1.392459	0.562600	1.028518
C101	C	0.885805	0.062133	0.610323
C102	C	1.385805	0.562133	1.110323
C103	C	1.029136	0.072178	0.628740
C104	C	1.529136	0.572178	1.128740
C105	C	1.035789	0.072637	0.546940
C106	C	1.535789	0.572637	1.046940
C107	C	0.967451	0.067854	0.496833
C108	C	1.467451	0.567854	0.996833
N109	N	0.913253	0.064052	0.368479
N110	N	1.413253	0.564052	0.868479
N111	N	0.974260	0.068332	0.413222
N112	N	1.474260	0.568332	0.913222
H113	H	0.709770	0.192449	-0.118794
H114	H	1.209770	0.692449	0.381206
H115	H	1.026727	-0.141715	-0.186571
H116	H	1.526727	0.358285	0.313429
Cl117	Cl	1.130071	0.079272	0.507105
Cl118	Cl	1.630071	0.579272	1.007105
Cl119	Cl	1.080963	0.075799	0.316165
Cl120	Cl	1.580963	0.575799	0.816165
Cl121	Cl	1.040945	-0.325555	-0.199814
Cl122	Cl	1.540945	0.174445	0.300186
H123	H	0.177742	-0.060083	-0.099526
H124	H	0.677742	0.439917	0.400474
H125	H	1.053781	-0.547602	-0.211777
H126	H	1.553781	-0.047602	0.288223
Cl127	Cl	0.174008	0.259838	-0.112758
Cl128	Cl	0.674008	0.759838	0.387242
Cl129	Cl	1.115041	0.078194	0.691735
Cl130	Cl	1.615041	0.578194	1.191735
H131	H	1.046267	-0.712875	-0.204765
H132	H	1.546267	-0.212875	0.295235
H133	H	0.860787	-0.725926	-0.031728
H134	H	1.360787	-0.225926	0.468272
H135	H	0.868304	-0.560666	-0.038731
H136	H	1.368304	-0.060666	0.461269
Cl137	Cl	0.360954	0.272973	-0.116396
Cl138	Cl	0.860954	0.772973	0.383604
H139	H	0.833750	-0.320041	-0.006509
H140	H	1.333750	0.179959	0.493491
H141	H	0.696756	-0.093818	-0.106663
H142	H	1.196756	0.406182	0.393337
H143	H	0.546490	-0.104373	-0.103745
H144	H	1.046490	0.395627	0.396255
Cl145	Cl	0.819539	-0.136184	0.006749
Cl146	Cl	1.319539	0.363816	0.506749
H147	H	1.062780	0.074512	0.145581
H148	H	1.562780	0.574512	0.645581
Cl149	Cl	0.791521	0.055521	0.650161
Cl150	Cl	1.291521	0.555521	1.150161
H151	H	0.327997	-0.049525	-0.102425
H152	H	0.827997	0.450475	0.397575
H153	H	0.836814	0.058705	0.487731
H154	H	1.336814	0.558705	0.987731
Cl155	Cl	0.757447	0.053140	0.274593
Cl156	Cl	1.257447	0.553140	0.774593
H157	H	0.802739	0.056300	0.112158
H158	H	1.302739	0.556300	0.612158
H159	H	0.559517	0.181889	-0.115883
H160	H	1.059517	0.681889	0.384117
