data_functionalizedCrystal
_audit_creation_method	'MofGen! by Chris Wilmer'
_symmetry_space_group_name_H-M	'P1'
_symmetry_Int_Tables_number	1
_symmetry_cell_setting	triclinic
loop_
_symmetry_equiv_pos_as_xyz
  x,y,z
_cell_length_a	17.699083
_cell_length_b	14.853567
_cell_length_c	16.776229
_cell_angle_alpha	89.997147
_cell_angle_beta	89.998886
_cell_angle_gamma	83.458972
loop_
_atom_site_label
_atom_site_type_symbol
_atom_site_fract_x
_atom_site_fract_y
_atom_site_fract_z
O1	O	1.004374	0.114008	-0.066170
O2	O	0.784034	0.128841	-0.066195
O3	O	0.900090	-0.009827	-0.066184
O4	O	0.888319	0.252676	-0.066181
O5	O	0.900075	-0.009835	0.066392
O6	O	0.784019	0.128832	0.066381
O7	O	1.004359	0.114000	0.066407
Zn8	Zn	0.894187	0.121415	0.087443
Zn9	Zn	0.894207	0.121426	-0.087232
O10	O	0.888303	0.252667	0.066396
C11	C	0.755828	0.128305	0.000090
C12	C	0.671806	0.126711	0.000080
C13	C	0.623396	0.208106	0.000081
C14	C	0.544449	0.206602	0.000092
C15	C	0.513913	0.123703	0.000095
C16	C	0.562329	0.042301	0.000096
C17	C	0.641275	0.043806	0.000091
C18	C	0.243950	0.036232	0.000116
C19	C	0.164999	0.034734	0.000118
C20	C	0.147125	0.199028	0.000116
C21	C	0.226070	0.200533	0.000111
C22	C	0.274479	0.119132	0.000116
C23	C	0.360083	0.120763	0.000107
C24	C	0.428311	0.122070	0.000099
C25	C	0.899549	-0.043418	0.000102
C26	C	0.897951	-0.143496	0.000095
C27	C	0.822255	-0.555751	0.000101
C28	C	0.960131	-0.577539	0.000117
C29	C	0.961634	-0.483511	0.000112
C30	C	0.893446	-0.425598	0.000103
C31	C	0.823756	-0.461714	0.000099
C32	C	1.031324	-0.447389	0.000125
C33	C	1.032829	-0.353355	0.000121
C34	C	0.964641	-0.295441	0.000107
C35	C	0.894947	-0.331561	0.000101
C36	C	0.826759	-0.273648	0.000092
C37	C	0.757065	-0.309767	0.000081
C38	C	0.755567	-0.403799	0.000084
C39	C	0.966139	-0.201409	0.000104
C40	C	0.828260	-0.179611	0.000090
C41	C	1.032565	0.114535	0.000120
C42	C	1.116587	0.116130	0.000125
C43	C	0.888844	0.286258	0.000108
C44	C	0.890443	0.386336	0.000110
N45	N	0.894178	0.121406	0.206655
N46	N	0.894221	0.121427	-0.206443
C47	C	0.945583	0.060029	0.248377
C48	C	0.945587	0.060029	0.331829
C49	C	0.894190	0.121410	0.373558
C50	C	0.842779	0.182790	0.331830
C51	C	0.842772	0.182786	0.248379
C52	C	0.842806	0.182808	0.668377
C53	C	0.842819	0.182809	0.751834
C54	C	0.945622	0.060051	0.751827
C55	C	0.945615	0.060046	0.668376
C56	C	0.894202	0.121423	0.626656
C57	C	0.894197	0.121422	0.536167
C58	C	0.894198	0.121416	0.464044
H59	H	0.772732	-0.132463	0.000079
O60	O	0.687937	-0.439035	0.000117
C61	C	0.624525	-0.574243	0.000079
C62	C	0.701166	-0.534455	0.000057
H63	H	0.635195	-0.651395	0.000014
H64	H	0.590809	-0.550445	0.055572
H65	H	0.590828	-0.550334	-0.055395
H66	H	0.734925	-0.558347	0.055493
H67	H	0.734825	-0.558248	-0.055473
O68	O	0.532543	-0.038149	0.000065
C69	C	0.418848	-0.113285	0.000118
C70	C	0.452476	-0.022110	0.000137
H71	H	0.354110	-0.100348	0.000193
H72	H	0.438723	-0.153511	-0.055378
H73	H	0.438825	-0.153500	0.055588
H74	H	0.432515	0.018179	-0.055296
H75	H	0.432605	0.018047	0.055670
H76	H	0.987445	0.010050	0.365798
H77	H	0.765511	-0.585163	0.000089
H78	H	0.987470	0.010067	0.634403
H79	H	1.086839	-0.494548	0.000140
H80	H	0.680690	-0.022475	0.000090
O81	O	1.100593	-0.318423	0.000091
C82	C	1.237191	-0.349967	0.000153
C83	C	1.160503	-0.389649	0.000171
H84	H	1.285648	-0.407533	0.000235
H85	H	1.241398	-0.306525	-0.055346
H86	H	1.241294	-0.306454	0.055620
H87	H	1.156348	-0.433203	-0.055258
H88	H	1.156328	-0.433039	0.055707
O89	O	0.995526	0.000295	0.792269
C90	C	1.039685	-0.156535	0.817843
C91	C	0.983141	-0.088966	0.771980
H92	H	1.029680	-0.228717	0.801468
H93	H	1.100329	-0.144954	0.801414
H94	H	1.030870	-0.145948	0.884650
H95	H	0.991886	-0.099513	0.705162
H96	H	0.922516	-0.100564	0.788474
H97	H	0.701546	-0.262602	0.000080
O98	O	0.792810	0.242467	0.792247
C99	C	0.690858	0.364254	0.783452
C100	C	0.747435	0.296732	0.737585
H101	H	0.654169	0.408158	0.739278
H102	H	0.652970	0.325426	0.822510
H103	H	0.723594	0.409209	0.822535
H104	H	0.714762	0.251761	0.698460
H105	H	0.785323	0.335617	0.698578
H106	H	0.987440	0.010050	0.214407
H107	H	0.800946	0.232784	0.634415
O108	O	1.026414	-0.633702	0.000019
C109	C	1.143781	-0.681149	-0.068680
C110	C	1.068750	-0.617473	-0.068657
H111	H	1.178023	-0.668063	-0.124207
H112	H	1.178122	-0.668026	-0.013234
H113	H	1.130716	-0.754551	-0.068638
H114	H	1.081745	-0.544048	-0.068727
H115	H	1.034431	-0.630674	-0.124099
O116	O	1.033896	-0.166472	0.000076
C117	C	1.170495	-0.198012	0.000143
C118	C	1.093808	-0.237696	0.000159
H119	H	1.218953	-0.255577	0.000227
H120	H	1.174703	-0.154571	-0.055357
H121	H	1.174595	-0.154497	0.055609
H122	H	1.089655	-0.281251	-0.055270
H123	H	1.089632	-0.281086	0.055696
H124	H	0.800926	0.232765	0.365810
O125	O	0.792810	0.242497	0.207971
C126	C	0.690810	0.364225	0.216780
C127	C	0.747366	0.296667	0.262639
H128	H	0.654043	0.408026	0.260959
H129	H	0.723486	0.409275	0.177723
H130	H	0.652995	0.325336	0.177698
H131	H	0.785196	0.335482	0.301764
H132	H	0.714643	0.251617	0.301646
H133	H	0.648252	0.275612	0.000078
H134	H	0.505037	0.272882	0.000092
H135	H	0.250928	0.268038	0.000105
H136	H	0.283356	-0.030050	0.000121
H137	H	0.107700	0.265309	0.000116
H138	H	0.140140	-0.032777	0.000121
