data_functionalizedCrystal
_audit_creation_method	'MofGen! by Chris Wilmer'
_symmetry_space_group_name_H-M	'P1'
_symmetry_Int_Tables_number	1
_symmetry_cell_setting	triclinic
loop_
_symmetry_equiv_pos_as_xyz
  x,y,z
_cell_length_a	16.992694
_cell_length_b	14.519709
_cell_length_c	16.053802
_cell_angle_alpha	92.569364
_cell_angle_beta	87.249047
_cell_angle_gamma	87.174184
loop_
_atom_site_label
_atom_site_type_symbol
_atom_site_fract_x
_atom_site_fract_y
_atom_site_fract_z
O1	O	1.043963	0.191936	-0.069327
O2	O	1.543963	0.691936	0.430673
O3	O	0.815676	0.189789	-0.069352
O4	O	1.315676	0.689789	0.430648
O5	O	0.935872	0.057059	-0.069332
O6	O	1.435872	0.557059	0.430668
O7	O	0.923768	0.324666	-0.069348
O8	O	1.423768	0.824666	0.430652
O9	O	0.929256	0.064333	0.069526
O10	O	1.429256	0.564333	0.569526
O11	O	0.809060	0.197063	0.069506
O12	O	1.309060	0.697063	0.569506
O13	O	1.037348	0.199210	0.069530
O14	O	1.537348	0.699210	0.569530
Zn15	Zn	0.922154	0.199291	0.091565
Zn16	Zn	1.422154	0.699291	0.591565
Zn17	Zn	0.930870	0.189708	-0.091386
Zn18	Zn	1.430870	0.689708	0.408614
O19	O	0.917152	0.331940	0.069510
O20	O	1.417152	0.831940	0.569510
C21	C	0.783152	0.190666	0.000074
C22	C	1.283152	0.690666	0.500074
C23	C	0.696097	0.182430	0.000065
C24	C	1.196097	0.682430	0.500065
C25	C	0.932000	0.026296	0.000097
C26	C	1.432000	0.526296	0.500097
C27	C	0.930309	-0.076207	0.000098
C28	C	1.430309	0.423793	0.500098
C29	C	0.645968	0.261890	0.000061
C30	C	1.145968	0.761890	0.500061
C31	C	0.564170	0.254147	0.000073
C32	C	1.064170	0.754147	0.500073
C33	C	0.532503	0.166943	0.000083
C34	C	1.032503	0.666943	0.500083
C35	C	0.582638	0.087478	0.000089
C36	C	1.082638	0.587478	0.500089
C37	C	0.664434	0.095222	0.000083
C38	C	1.164434	0.595222	0.500083
C39	C	0.288859	0.134847	0.000107
C40	C	0.788859	0.634847	0.500107
C41	C	0.207056	0.127109	0.000111
C42	C	0.707056	0.627109	0.500111
C43	C	0.188594	0.293779	0.000095
C44	C	0.688594	0.793779	0.500095
C45	C	0.270393	0.301515	0.000084
C46	C	0.770393	0.801515	0.500084
C47	C	0.320520	0.222050	0.000095
C48	C	0.820520	0.722050	0.500095
N49	N	0.448892	0.159027	0.000092
N50	N	0.948892	0.659027	0.500092
N51	N	0.404129	0.229968	0.000092
N52	N	0.904129	0.729968	0.500092
C53	C	0.924087	-0.451551	0.000075
C54	C	1.424087	0.048449	0.500075
C55	C	0.925815	-0.347118	0.000082
C56	C	1.425815	0.152882	0.500082
C57	C	0.927198	-0.263882	0.000087
C58	C	1.427198	0.236118	0.500087
C59	C	0.928926	-0.159443	0.000092
C60	C	1.428926	0.340557	0.500092
C61	C	1.069872	0.198333	0.000103
C62	C	1.569872	0.698333	0.500103
C63	C	1.156927	0.206569	0.000106
C64	C	1.656927	0.706569	0.500106
C65	C	0.921024	0.362703	0.000079
C66	C	1.421024	0.862703	0.500079
C67	C	0.922715	0.465206	0.000073
C68	C	1.422715	0.965206	0.500073
N69	N	0.916210	0.205832	0.216424
N70	N	1.416210	0.705832	0.716424
N71	N	0.936820	0.183161	-0.216246
N72	N	1.436820	0.683161	0.283754
C73	C	0.967373	0.149377	0.260127
C74	C	1.467373	0.649377	0.760127
C75	C	0.963222	0.153962	0.347533
C76	C	1.463222	0.653962	0.847533
C77	C	0.907913	0.215006	0.391235
C78	C	1.407913	0.715006	0.891235
C79	C	0.856746	0.271462	0.347526
C80	C	1.356746	0.771462	0.847526
C81	C	0.860893	0.266872	0.260121
C82	C	1.360893	0.766872	0.760121
C83	C	0.889799	0.235027	0.652641
C84	C	1.389799	0.735027	1.152641
C85	C	0.885658	0.239615	0.740052
C86	C	1.385658	0.739615	1.240052
C87	C	0.992134	0.122113	0.740053
C88	C	1.492134	0.622113	1.240053
C89	C	0.996279	0.117533	0.652646
C90	C	1.496279	0.617533	1.152646
C91	C	0.945109	0.173985	0.608945
C92	C	1.445109	0.673985	1.108945
N93	N	0.903672	0.219695	0.480578
N94	N	1.403672	0.719695	0.980578
N95	N	0.949347	0.169291	0.519604
N96	N	1.449347	0.669291	1.019604
H97	H	0.671745	0.332900	0.000052
H98	H	1.171745	0.832900	0.500052
H99	H	0.819230	0.312842	0.224539
H100	H	1.319230	0.812842	0.724539
H101	H	0.848135	0.280995	0.617067
H102	H	1.348135	0.780995	1.117067
H103	H	1.004882	0.107992	0.383115
H104	H	1.504882	0.607992	0.883115
H105	H	0.147771	0.358475	0.000088
H106	H	0.647771	0.858475	0.500088
H107	H	0.523358	0.318852	0.000068
H108	H	1.023358	0.818852	0.500068
C109	C	1.047551	0.060704	0.787548
C110	C	1.547551	0.560704	1.287548
C111	C	1.003319	0.003757	0.837723
C112	C	1.503319	0.503757	1.337723
C113	C	1.054341	-0.052839	0.881480
C114	C	1.554341	0.447161	1.381480
H115	H	1.078639	0.097994	0.821704
H116	H	1.578639	0.597994	1.321704
H117	H	1.081072	0.023636	0.749031
H118	H	1.581072	0.523636	1.249031
H119	H	0.969812	0.040821	0.876236
H120	H	1.469812	0.540821	1.376236
H121	H	0.972233	-0.033552	0.803588
H122	H	1.472233	0.466448	1.303588
H123	H	1.087862	-0.089907	0.842963
H124	H	1.587862	0.410093	1.342963
H125	H	1.085426	-0.015541	0.915631
H126	H	1.585426	0.484459	1.415631
H127	H	1.024338	-0.091490	0.915523
H128	H	1.524338	0.408510	1.415523
H129	H	0.811708	0.321162	0.383113
H130	H	1.311708	0.821162	0.883113
C131	C	0.304618	0.396280	0.000121
C132	C	0.804618	0.896280	0.500121
C133	C	0.243207	0.464214	0.000142
C134	C	0.743207	0.964214	0.500142
C135	C	0.274705	0.551523	0.000184
C136	C	0.774705	1.051523	0.500184
H137	H	0.338431	0.400360	-0.048291
H138	H	0.838431	0.900360	0.451709
H139	H	0.333820	0.405350	0.048561
H140	H	0.833820	0.905350	0.548561
H141	H	0.214018	0.455148	-0.048293
H142	H	0.714018	0.955148	0.451707
H143	H	0.209389	0.460165	0.048550
H144	H	0.709389	0.960165	0.548550
H145	H	0.303906	0.560593	0.048624
H146	H	0.803906	1.060593	0.548624
H147	H	0.308517	0.555593	-0.048228
H148	H	0.808517	1.055593	0.451772
H149	H	0.233043	0.597627	0.000207
H150	H	0.733043	1.097627	0.500207
C151	C	0.172823	0.032344	0.000163
C152	C	0.672823	0.532344	0.500163
C153	C	0.234228	-0.035591	0.000192
C154	C	0.734228	0.464409	0.500192
C155	C	0.202722	-0.122892	0.000248
C156	C	0.702722	0.377108	0.500248
H157	H	0.143612	0.023194	-0.048247
H158	H	0.643612	0.523194	0.451753
H159	H	0.139015	0.028353	0.048605
H160	H	0.639015	0.528353	0.548605
H161	H	0.268022	-0.031602	-0.048245
H162	H	0.768022	0.468398	0.451755
H163	H	0.263444	-0.026471	0.048599
H164	H	0.763444	0.473529	0.548599
H165	H	0.168914	-0.126884	0.048689
H166	H	0.668914	0.373116	0.548689
H167	H	0.173511	-0.132033	-0.048163
H168	H	0.673511	0.367967	0.451837
H169	H	0.244379	-0.168996	0.000275
H170	H	0.744379	0.331004	0.500275
H171	H	0.556847	0.016475	0.000110
H172	H	1.056847	0.516475	0.500110
C173	C	0.343372	0.048640	-0.000023
C174	C	0.843372	0.548640	0.499977
C175	C	0.394277	0.044483	-0.071454
C176	C	0.894277	0.544483	0.428546
C177	C	0.444515	-0.034917	-0.071599
C178	C	0.944515	0.465083	0.428401
H179	H	0.312892	-0.004471	-0.000063
H180	H	0.812892	0.495529	0.499937
H181	H	0.373413	0.050720	0.048373
H182	H	0.873413	0.550720	0.548373
H183	H	0.364239	0.042395	-0.119838
H184	H	0.864239	0.542395	0.380162
H185	H	0.424774	0.097574	-0.071429
H186	H	0.924774	0.597574	0.428571
H187	H	0.474555	-0.032837	-0.023203
H188	H	0.974555	0.467163	0.476797
H189	H	0.414029	-0.088021	-0.071638
H190	H	0.914029	0.411979	0.428362
H191	H	0.479064	-0.037744	-0.120060
H192	H	0.979064	0.462256	0.379940
H193	H	0.705249	0.030517	0.000086
H194	H	1.205249	0.530517	0.500086
H195	H	0.840616	0.289328	0.775630
H196	H	1.340616	0.789328	1.275630
H197	H	1.041316	0.067826	0.617066
H198	H	1.541316	0.567826	1.117066
C199	C	1.027452	0.083007	0.212834
C200	C	1.527452	0.583007	0.712834
C201	C	1.071354	0.034530	0.269819
C202	C	1.571354	0.534530	0.769819
C203	C	1.126698	-0.026631	0.226287
C204	C	1.626698	0.473369	0.726287
H205	H	1.061833	0.116719	0.178724
H206	H	1.561833	0.616719	0.678724
H207	H	1.000828	0.040675	0.178766
H208	H	1.500828	0.540675	0.678766
H209	H	1.097976	0.076856	0.303873
H210	H	1.597976	0.576856	0.803873
H211	H	1.036994	0.000800	0.303931
H212	H	1.536994	0.500800	0.803931
H213	H	1.100074	-0.068962	0.192219
H214	H	1.600074	0.431038	0.692219
H215	H	1.161073	0.007089	0.192179
H216	H	1.661073	0.507089	0.692179
H217	H	1.156487	-0.059535	0.264945
H218	H	1.656487	0.440465	0.764945
