data_functionalizedCrystal
_audit_creation_method	'MofGen! by Chris Wilmer'
_symmetry_space_group_name_H-M	'P1'
_symmetry_Int_Tables_number	1
_symmetry_cell_setting	triclinic
loop_
_symmetry_equiv_pos_as_xyz
  x,y,z
_cell_length_a	15.995292
_cell_length_b	15.072220
_cell_length_c	12.837942
_cell_angle_alpha	89.999686
_cell_angle_beta	89.148778
_cell_angle_gamma	90.013670
loop_
_atom_site_label
_atom_site_type_symbol
_atom_site_fract_x
_atom_site_fract_y
_atom_site_fract_z
O1	O	1.121664	0.073806	0.133322
O2	O	1.621664	0.573806	0.633322
O3	O	0.879203	0.073803	0.149884
O4	O	1.379203	0.573803	0.649884
O5	O	0.995057	0.073799	-0.009298
O6	O	1.495057	0.573799	0.490702
O7	O	1.005810	0.073810	0.292504
O8	O	1.505810	0.573810	0.792504
O9	O	0.995026	-0.073766	-0.009289
O10	O	1.495026	0.426234	0.490711
O11	O	0.879172	-0.073762	0.149893
O12	O	1.379172	0.426238	0.649893
O13	O	1.121633	-0.073759	0.133331
O14	O	1.621633	0.426241	0.633331
Zn15	Zn	1.000398	-0.097190	0.141613
Zn16	Zn	1.500398	0.402810	0.641613
Zn17	Zn	1.000439	0.097234	0.141602
Zn18	Zn	1.500439	0.597234	0.641602
O19	O	1.005779	-0.073755	0.292513
O20	O	1.505779	0.426245	0.792513
C21	C	0.847938	0.000020	0.149215
C22	C	1.347938	0.500020	0.649215
C23	C	0.754824	0.000018	0.147194
C24	C	1.254824	0.500018	0.647194
N25	N	1.000376	-0.229878	0.141621
N26	N	1.500376	0.270122	0.641621
C27	C	0.416493	0.000028	0.139764
C28	C	0.916493	0.500028	0.639764
C29	C	0.448973	0.000362	0.254658
C30	C	0.948973	0.500362	0.754658
C31	C	0.545822	0.000025	0.256842
C32	C	1.045822	0.500025	0.756842
C33	C	0.584343	0.000024	0.143451
C34	C	1.084343	0.500024	0.643451
C35	C	0.550640	-0.084242	0.086014
C36	C	1.050640	0.415758	0.586014
C37	C	0.453739	-0.084309	0.084631
C38	C	0.953739	0.415691	0.584631
C39	C	0.453732	0.083500	0.082275
C40	C	0.953732	0.583500	0.582275
C41	C	0.550565	0.084610	0.086533
C42	C	1.050565	0.584610	0.586533
C43	C	0.679205	0.000018	0.145528
C44	C	1.179205	0.500018	0.645528
C45	C	0.321631	0.000028	0.137683
C46	C	0.821631	0.500028	0.637683
C47	C	1.000436	-0.589080	0.141598
C48	C	1.500436	-0.089080	0.641598
C49	C	0.938192	-0.551471	0.226488
C50	C	1.438192	-0.051471	0.726488
C51	C	0.938375	-0.448645	0.226797
C52	C	1.438375	0.051355	0.726797
C53	C	1.000406	-0.410876	0.141609
C54	C	1.500406	0.089124	0.641609
C55	C	1.089656	-0.448165	0.165210
C56	C	1.589656	0.051835	0.665210
C57	C	1.089317	-0.551023	0.165813
C58	C	1.589317	-0.051023	0.665813
C59	C	0.974190	-0.551185	0.032855
C60	C	1.474190	-0.051185	0.532855
C61	C	0.972243	-0.448321	0.033581
C62	C	1.472243	0.051679	0.533581
C63	C	1.000394	-0.310163	0.141613
C64	C	1.500394	0.189837	0.641613
C65	C	1.000455	-0.689793	0.141595
C66	C	1.500455	-0.189793	0.641595
C67	C	1.152898	0.000026	0.134000
C68	C	1.652898	0.500026	0.634000
C69	C	1.246012	0.000033	0.136021
C70	C	1.746012	0.500033	0.636021
N71	N	1.000466	0.229923	0.141586
N72	N	1.500466	0.729923	0.641586
C73	C	0.991409	0.000017	-0.047914
C74	C	1.491409	0.500017	0.452086
C75	C	0.980576	0.000018	-0.162988
C76	C	1.480576	0.500018	0.337012
C77	C	1.110814	0.000039	-0.403980
C78	C	1.610814	0.500039	0.096020
C79	C	1.100639	0.000040	-0.512103
C80	C	1.600639	0.500040	-0.012103
C81	C	0.950051	0.000029	-0.487360
C82	C	1.450051	0.500029	0.012640
C83	C	0.960226	0.000027	-0.379236
C84	C	1.460226	0.500027	0.120764
C85	C	1.040610	0.000031	-0.337551
C86	C	1.540610	0.500031	0.162449
C87	C	1.050785	0.000023	-0.229425
C88	C	1.550785	0.500023	0.270575
C89	C	0.900198	0.000018	-0.204684
C90	C	1.400198	0.500018	0.295316
C91	C	0.890022	0.000020	-0.312807
C92	C	1.390022	0.500020	0.187193
C93	C	1.009427	0.000029	0.331129
C94	C	1.509427	0.500029	0.831129
C95	C	1.020260	0.000034	0.446203
C96	C	1.520260	0.500034	0.946203
H97	H	0.568450	0.060433	0.301818
H98	H	1.068450	0.560433	0.801818
H99	H	1.116238	0.000023	-0.195487
H100	H	1.616238	0.500023	0.304513
H101	H	0.824576	0.000020	-0.346763
H102	H	1.324576	0.500020	0.153237
H103	H	1.013971	-0.422615	-0.032548
H104	H	1.513971	0.077385	0.467452
H105	H	0.424523	0.060793	0.298940
H106	H	0.924523	0.560793	0.798940
H107	H	1.176266	0.000033	-0.370039
H108	H	1.676266	0.500033	0.129961
O109	O	0.863360	0.000019	-0.532339
O110	O	1.363360	0.500019	-0.032339
H111	H	0.855138	0.060162	-0.581013
H112	H	1.355138	0.560162	-0.081013
H113	H	0.843032	0.000005	-0.150585
H114	H	1.343032	0.500005	0.349415
O115	O	0.415191	-0.079243	0.312994
O116	O	0.915191	0.420757	0.812994
H117	H	0.345827	-0.076884	0.314379
H118	H	0.845827	0.423116	0.814379
O119	O	0.574982	-0.080186	0.316665
O120	O	1.074982	0.419814	0.816665
H121	H	0.519883	-0.118885	0.344151
H122	H	1.019883	0.381115	0.844151
O123	O	0.422393	-0.167736	0.137342
O124	O	0.922393	0.332264	0.637342
H125	H	0.476451	-0.207652	0.163582
H126	H	0.976451	0.292348	0.663582
O127	O	1.176362	0.000043	-0.583749
O128	O	1.676362	0.500043	-0.083749
H129	H	1.155785	0.000049	-0.665938
H130	H	1.655785	0.500049	-0.165938
O131	O	0.585475	0.091353	-0.023107
O132	O	1.085475	0.591353	0.476893
H133	H	0.627631	0.034263	-0.038815
H134	H	1.127631	0.534263	0.461185
H135	H	1.137439	-0.423697	0.105024
H136	H	1.637439	0.076303	0.605024
O137	O	1.118947	-0.414035	0.269061
O138	O	1.618947	0.085965	0.769061
H139	H	1.130651	-0.470924	0.321770
H140	H	1.630651	0.029076	0.821770
H141	H	0.432467	-0.088138	0.000391
H142	H	0.932467	0.411862	0.500391
O143	O	0.850863	-0.415249	0.208202
O144	O	1.350863	0.084751	0.708202
H145	H	0.850905	-0.341607	0.208408
H146	H	1.350905	0.158393	0.708408
H147	H	0.575850	-0.087377	0.002574
H148	H	1.075850	0.412623	0.502574
O149	O	0.581396	-0.167315	0.138854
O150	O	1.081396	0.332685	0.638854
H151	H	0.620674	-0.148799	0.206013
H152	H	1.120674	0.351201	0.706013
O153	O	1.034128	-0.583437	-0.050864
O154	O	1.534128	-0.083437	0.449136
H155	H	1.064684	-0.525622	-0.089109
H156	H	1.564684	-0.025622	0.410891
H157	H	0.572484	0.146949	0.128352
H158	H	1.072484	0.646949	0.628352
O159	O	0.420135	0.168109	0.129942
O160	O	0.920135	0.668109	0.629942
H161	H	0.376515	0.151607	0.195148
H162	H	0.876515	0.651607	0.695148
H163	H	0.432991	0.084068	-0.002295
H164	H	0.932991	0.584068	0.497705
H165	H	0.955659	-0.577306	0.306730
H166	H	1.455659	-0.077306	0.806730
O167	O	0.850427	-0.584281	0.208198
O168	O	1.350427	-0.084281	0.708198
H169	H	0.850230	-0.627749	0.138412
H170	H	1.350230	-0.127749	0.638412
H171	H	0.956033	-0.424028	0.307494
H172	H	1.456033	0.075972	0.807494
H173	H	1.111128	-0.575001	0.245118
H174	H	1.611128	-0.075001	0.745118
O175	O	1.153107	-0.583986	0.087039
O176	O	1.653107	-0.083986	0.587039
H177	H	1.184066	-0.526458	0.048688
H178	H	1.684066	-0.026458	0.548688
H179	H	0.906546	-0.423951	0.015669
H180	H	1.406546	0.076049	0.515669
O181	O	0.889221	-0.585578	0.002790
O182	O	1.389221	-0.085578	0.502790
H183	H	0.842099	-0.564969	0.062336
H184	H	1.342099	-0.064969	0.562336
