data_functionalizedCrystal
_audit_creation_method	'MofGen! by Chris Wilmer'
_symmetry_space_group_name_H-M	'P1'
_symmetry_Int_Tables_number	1
_symmetry_cell_setting	triclinic
loop_
_symmetry_equiv_pos_as_xyz
  x,y,z
_cell_length_a	18.101398
_cell_length_b	18.101397
_cell_length_c	16.959447
_cell_angle_alpha	90.033674
_cell_angle_beta	90.020773
_cell_angle_gamma	90.015732
loop_
_atom_site_label
_atom_site_type_symbol
_atom_site_fract_x
_atom_site_fract_y
_atom_site_fract_z
Zn1	Zn	1.132150	-0.294908	0.447026
Zn2	Zn	1.632150	0.205092	0.947026
Zn3	Zn	1.132076	-0.418761	0.314840
Zn4	Zn	1.632076	0.081239	0.814840
Zn5	Zn	1.008316	-0.294928	0.314849
Zn6	Zn	1.508316	0.205072	0.814849
Zn7	Zn	1.008282	-0.418702	0.446964
Zn8	Zn	1.508282	0.081298	0.946964
O9	O	1.070206	-0.356825	0.380920
O10	O	1.570206	0.143175	0.880920
O11	O	1.235773	-0.311354	0.429514
O12	O	1.735773	0.188646	0.929514
O13	O	1.115643	-0.402368	0.204230
O14	O	1.615643	0.097632	0.704230
O15	O	1.024788	-0.191293	0.332412
O16	O	1.524788	0.308707	0.832412
O17	O	1.235719	-0.402349	0.332397
O18	O	1.735719	0.097651	0.832397
O19	O	1.115768	-0.191278	0.429523
O20	O	1.615768	0.308722	0.929523
O21	O	1.024717	-0.311388	0.204237
O22	O	1.524717	0.188612	0.704237
O23	O	0.904679	-0.311331	0.332352
O24	O	1.404679	0.188669	0.832352
O25	O	1.024730	-0.402248	0.557583
O26	O	1.524730	0.097752	1.057583
O27	O	0.904654	-0.402267	0.429416
O28	O	1.404654	0.097733	0.929416
O29	O	1.115735	-0.311297	0.557629
O30	O	1.615735	0.188703	1.057629
O31	O	1.115610	-0.522386	0.332337
O32	O	1.615610	-0.022386	0.832337
O33	O	1.024659	-0.522343	0.429407
O34	O	1.524659	-0.022343	0.929407
C35	C	0.877796	-0.356795	0.380878
C36	C	1.377796	0.143205	0.880878
C37	C	0.795482	-0.356800	0.380880
C38	C	1.295482	0.143200	0.880880
C39	C	0.496391	-0.356846	0.380946
C40	C	0.996391	0.143154	0.880946
C41	C	0.527707	-0.299345	0.320174
C42	C	1.027707	0.200655	0.820174
C43	C	0.613325	-0.299500	0.319914
C44	C	1.113325	0.200500	0.819914
C45	C	0.644773	-0.356823	0.380913
C46	C	1.144773	0.143177	0.880913
C47	C	0.613671	-0.434835	0.358149
C48	C	1.113671	0.065165	0.858149
C49	C	0.528026	-0.434516	0.357726
C50	C	1.028026	0.065484	0.857726
C51	C	0.527997	-0.337013	0.464625
C52	C	1.027997	0.162987	0.964625
C53	C	0.613647	-0.335275	0.464169
C54	C	1.113647	0.164725	0.964169
C55	C	0.728633	-0.356814	0.380896
C56	C	1.228633	0.143186	0.880896
C57	C	0.412531	-0.356860	0.380961
C58	C	0.912531	0.143140	0.880961
C59	C	1.070143	-0.549236	0.380881
C60	C	1.570143	-0.049236	0.880881
C61	C	1.070184	-0.631550	0.380891
C62	C	1.570184	-0.131550	0.880891
C63	C	1.070278	-0.930641	0.380964
C64	C	1.570278	-0.430641	0.880964
C65	C	1.127342	-0.899312	0.319726
C66	C	1.627342	-0.399312	0.819726
C67	C	1.127540	-0.813693	0.319884
C68	C	1.627540	-0.313693	0.819884
C69	C	1.070231	-0.782258	0.380927
C70	C	1.570231	-0.282258	0.880927
C71	C	1.091382	-0.813263	0.464246
C72	C	1.591382	-0.313263	0.964246
C73	C	1.091824	-0.898908	0.463912
C74	C	1.591824	-0.398908	0.963912
C75	C	0.991911	-0.899144	0.359604
C76	C	1.491911	-0.399144	0.859604
C77	C	0.992298	-0.813495	0.357744
C78	C	1.492298	-0.313495	0.857744
C79	C	1.070203	-0.698399	0.380912
C80	C	1.570203	-0.198399	0.880912
C81	C	1.070308	-1.014500	0.380985
C82	C	1.570308	-0.514500	0.880985
C83	C	1.263368	-0.356856	0.380962
C84	C	1.763368	0.143144	0.880962
C85	C	1.345682	-0.356869	0.380979
C86	C	1.845682	0.143131	0.880979
C87	C	1.070237	-0.356764	0.587088
C88	C	1.570237	0.143236	1.087088
C89	C	1.070250	-0.356738	0.674945
C90	C	1.570250	0.143262	1.174945
C91	C	1.070290	-0.163663	0.380975
C92	C	1.570290	0.336337	0.880975
C93	C	1.070326	-0.081349	0.380999
C94	C	1.570326	0.418651	0.880999
C95	C	1.070218	-0.356833	0.175553
C96	C	1.570218	0.143167	0.675553
C97	C	1.070349	-0.356650	0.087697
C98	C	1.570349	0.143350	0.587697
C99	C	1.022957	-0.404013	1.046399
C100	C	1.522957	0.095987	1.546399
C101	C	1.117721	-0.309306	1.046442
C102	C	1.617721	0.190694	1.546442
C103	C	1.117701	-0.309321	0.963896
C104	C	1.617701	0.190679	1.463896
C105	C	1.070309	-0.356685	0.922598
C106	C	1.570309	0.143315	1.422598
C107	C	1.022937	-0.404032	0.963845
C108	C	1.522937	0.095968	1.463845
C109	C	1.165078	-0.261980	0.922642
C110	C	1.665078	0.238020	1.422642
C111	C	1.165060	-0.261994	0.840091
C112	C	1.665060	0.238006	1.340091
C113	C	1.117664	-0.309354	0.798791
C114	C	1.617664	0.190646	1.298791
C115	C	1.070290	-0.356703	0.840044
C116	C	1.570290	0.143297	1.340044
C117	C	1.022898	-0.404067	0.798746
C118	C	1.522898	0.095933	1.298746
C119	C	0.975519	-0.451412	0.839997
C120	C	1.475519	0.048588	1.339997
C121	C	0.975541	-0.451392	0.922546
C122	C	1.475541	0.048608	1.422546
C123	C	1.117642	-0.309374	0.716243
C124	C	1.617642	0.190626	1.216243
C125	C	1.022878	-0.404085	0.716192
C126	C	1.522878	0.095915	1.216192
H127	H	0.633980	-0.277867	0.481334
H128	H	1.133980	0.222133	0.981334
H129	H	1.185590	-0.793154	0.334018
H130	H	1.685590	-0.293154	0.834018
H131	H	0.936936	-0.489979	0.806361
H132	H	1.436936	0.010021	1.306361
H133	H	1.156309	-0.270749	1.080072
H134	H	1.656309	0.229251	1.580072
H135	H	1.203666	-0.223424	0.956273
H136	H	1.703666	0.276576	1.456273
C137	C	1.217168	-0.209911	0.794722
C138	C	1.717168	0.290089	1.294722
H139	H	1.245391	-0.181698	0.831142
H140	H	1.745391	0.318302	1.331142
H141	H	1.249415	-0.238247	0.762508
H142	H	1.749415	0.261753	1.262508
H143	H	1.188837	-0.177643	0.762534
H144	H	1.688837	0.322357	1.262534
C145	C	1.038125	-0.926905	0.527660
C146	C	1.538125	-0.426905	1.027660
H147	H	1.016142	-0.885934	0.553650
H148	H	1.516142	-0.385934	1.053650
H149	H	1.000700	-0.956111	0.503738
H150	H	1.500700	-0.456111	1.003738
H151	H	1.064418	-0.955931	0.564934
H152	H	1.564418	-0.455931	1.064934
C153	C	1.169748	-0.257297	0.670870
C154	C	1.669748	0.242703	1.170870
H155	H	1.197973	-0.229085	0.707289
H156	H	1.697973	0.270915	1.207289
H157	H	1.201993	-0.285635	0.638655
H158	H	1.701993	0.214365	1.138655
H159	H	1.141418	-0.225028	0.638682
H160	H	1.641418	0.274972	1.138682
C161	C	0.970746	-0.456184	0.670767
C162	C	1.470746	0.043816	1.170767
H163	H	0.977516	-0.449413	0.615695
H164	H	1.477516	0.050587	1.115695
H165	H	0.981561	-0.505941	0.684281
H166	H	1.481561	-0.005941	1.184281
H167	H	0.920994	-0.445326	0.684292
H168	H	1.420994	0.054674	1.184292
C169	C	0.500035	-0.494290	0.414983
C170	C	1.000035	0.005710	0.914983
H171	H	0.541009	-0.518671	0.438385
H172	H	1.041009	-0.018671	0.938385
H173	H	0.470920	-0.471882	0.454976
H174	H	0.970920	0.028118	0.954976
H175	H	0.470920	-0.529185	0.386922
H176	H	0.970920	-0.029185	0.886922
C177	C	0.641738	-0.221348	0.339173
C178	C	1.141738	0.278652	0.839173
H179	H	0.600937	-0.189219	0.347223
H180	H	1.100937	0.310781	0.847223
H181	H	0.671017	-0.222950	0.385635
H182	H	1.171017	0.277050	0.885635
H183	H	0.670777	-0.203654	0.296525
H184	H	1.170777	0.296346	0.796525
H185	H	0.635057	-0.374104	0.511875
H186	H	1.135057	0.125896	1.011875
C187	C	1.109762	-0.927300	0.236035
C188	C	1.609762	-0.427300	0.736035
H189	H	1.067459	-0.958337	0.237686
H190	H	1.567459	-0.458337	0.737686
H191	H	1.100301	-0.886408	0.202439
H192	H	1.600301	-0.386408	0.702439
H193	H	1.150700	-0.954467	0.216359
H194	H	1.650700	-0.454467	0.716359
H195	H	0.633785	-0.312612	0.257909
H196	H	1.133785	0.187388	0.757909
H197	H	0.507125	-0.241319	0.334286
H198	H	1.007125	0.258681	0.834286
C199	C	0.970734	-0.786114	0.274924
C200	C	1.470734	-0.286114	0.774924
H201	H	0.923539	-0.805194	0.261237
H202	H	1.423539	-0.305194	0.761237
H203	H	0.969054	-0.733664	0.274747
H204	H	1.469054	-0.233664	0.774747
H205	H	1.006302	-0.802600	0.237690
H206	H	1.506302	-0.302600	0.737690
C207	C	0.965913	-0.928397	0.278949
C208	C	1.465913	-0.428397	0.778949
H209	H	0.918522	-0.908729	0.267183
H210	H	1.418522	-0.408729	0.767183
H211	H	1.000003	-0.913730	0.239365
H212	H	1.500003	-0.413730	0.739365
H213	H	0.963166	-0.980786	0.280543
H214	H	1.463166	-0.480786	0.780543
C215	C	0.500640	-0.393583	0.525801
C216	C	1.000640	0.106417	1.025801
H217	H	0.519925	-0.381312	0.576244
H218	H	1.019925	0.118688	1.076244
H219	H	0.448198	-0.392768	0.527654
H220	H	0.948198	0.107232	1.027654
H221	H	0.516933	-0.441574	0.511246
H222	H	1.016933	0.058426	1.011246
C223	C	1.036943	-0.785777	0.527544
C224	C	1.536943	-0.285777	1.027544
H225	H	1.050746	-0.805186	0.577454
H226	H	1.550746	-0.305186	1.077454
H227	H	1.038046	-0.733341	0.529505
H228	H	1.538046	-0.233341	1.029505
H229	H	0.988441	-0.801867	0.514727
H230	H	1.488441	-0.301867	1.014727
H231	H	0.634041	-0.478826	0.401027
H232	H	1.134041	0.021174	0.901027
C233	C	1.169208	-0.925826	0.488343
C234	C	1.669208	-0.425826	0.988343
H235	H	1.200081	-0.884419	0.498374
H236	H	1.700081	-0.384419	0.998374
H237	H	1.165440	-0.955023	0.534692
H238	H	1.665440	-0.455023	1.034692
H239	H	1.189853	-0.954631	0.447021
H240	H	1.689853	-0.454631	0.947021
C241	C	0.498845	-0.261502	0.492590
C242	C	0.998845	0.238498	0.992590
H243	H	0.518579	-0.250587	0.543189
H244	H	1.018579	0.249413	1.043189
H245	H	0.513507	-0.224341	0.456293
H246	H	1.013507	0.275659	0.956293
H247	H	0.446458	-0.262999	0.495547
H248	H	0.946458	0.237001	0.995547
C249	C	0.500996	-0.457229	0.275086
C250	C	1.000996	0.042771	0.775086
H251	H	0.542358	-0.466561	0.242087
H252	H	1.042358	0.033439	0.742087
H253	H	0.471763	-0.500661	0.279010
H254	H	0.971763	-0.000661	0.779010
H255	H	0.472203	-0.418466	0.253170
H256	H	0.972203	0.081534	0.753170
H257	H	1.114308	-0.792734	0.258105
H258	H	1.614308	-0.292734	0.758105
C259	C	1.205337	-0.928307	0.338600
C260	C	1.705337	-0.428307	0.838600
H261	H	1.203276	-0.959421	0.383640
H262	H	1.703276	-0.459421	0.883640
H263	H	1.223558	-0.955579	0.294869
H264	H	1.723558	-0.455579	0.794869
H265	H	1.237294	-0.887805	0.348954
H266	H	1.737294	-0.387805	0.848954
H267	H	0.635092	-0.451946	0.297636
H268	H	1.135092	0.048054	0.797636
H269	H	0.506163	-0.312309	0.258529
H270	H	1.006163	0.187691	0.758529
H271	H	1.148024	-0.791759	0.482644
H272	H	1.648024	-0.291759	0.982644
H273	H	0.947494	-0.792104	0.399080
H274	H	1.447494	-0.292104	0.899080
C275	C	0.934496	-0.926406	0.419933
C276	C	1.434496	-0.426406	0.919933
H277	H	0.958125	-0.956849	0.457946
H278	H	1.458125	-0.456849	0.957946
H279	H	0.912654	-0.885156	0.445539
H280	H	1.412654	-0.385156	0.945539
H281	H	0.897303	-0.954018	0.393556
H282	H	1.397303	-0.454018	0.893556
C283	C	0.923435	-0.503471	0.967923
C284	C	1.423435	-0.003471	1.467923
H285	H	0.930242	-0.496682	1.023000
H286	H	1.430242	0.003318	1.523000
H287	H	0.873677	-0.492631	0.954397
H288	H	1.373677	0.007369	1.454397
H289	H	0.934255	-0.553236	0.954376
H290	H	1.434255	-0.053236	1.454376
H291	H	0.984380	-0.442559	1.079989
H292	H	1.484380	0.057441	1.579989
