data_functionalizedCrystal
_audit_creation_method	'MofGen! by Chris Wilmer'
_symmetry_space_group_name_H-M	'P1'
_symmetry_Int_Tables_number	1
_symmetry_cell_setting	triclinic
loop_
_symmetry_equiv_pos_as_xyz
  x,y,z
_cell_length_a	16.109293
_cell_length_b	16.109295
_cell_length_c	14.586319
_cell_angle_alpha	89.997157
_cell_angle_beta	89.996045
_cell_angle_gamma	83.458729
loop_
_atom_site_label
_atom_site_type_symbol
_atom_site_fract_x
_atom_site_fract_y
_atom_site_fract_z
O1	O	-1.103129	-0.106838	0.076306
O2	O	-0.603129	0.393162	0.576306
O3	O	-0.861066	-0.120145	0.076291
O4	O	-0.361066	0.379855	0.576291
O5	O	-0.988749	0.007540	0.076301
O6	O	-0.488749	0.507540	0.576301
O7	O	-0.975445	-0.234523	0.076297
O8	O	-0.475445	0.265477	0.576297
O9	O	-0.988748	0.007548	-0.076180
O10	O	-0.488748	0.507548	0.423820
O11	O	-0.861065	-0.120137	-0.076189
O12	O	-0.361065	0.379863	0.423811
O13	O	-1.103128	-0.106830	-0.076174
O14	O	-0.603128	0.393170	0.423826
Cu15	Cu	-0.982096	-0.113483	-0.090105
Cu16	Cu	-0.482096	0.386517	0.409895
Cu17	Cu	-0.982097	-0.113492	0.090222
Cu18	Cu	-0.482097	0.386508	0.590222
O19	O	-0.975444	-0.234515	-0.076184
O20	O	-0.475444	0.265485	0.423816
C21	C	-0.830090	-0.119603	0.000049
C22	C	-0.330090	0.380397	0.500049
C23	C	-0.737795	-0.117990	0.000044
C24	C	-0.237795	0.382010	0.500044
C25	C	-0.525452	-0.114257	-0.083070
C26	C	-0.025452	0.385743	0.416930
C27	C	-0.438732	-0.112733	-0.083070
C28	C	0.061268	0.387267	0.416930
C29	C	-0.438744	-0.112746	0.083173
C30	C	0.061256	0.387254	0.583173
C31	C	-0.525463	-0.114264	0.083172
C32	C	-0.025463	0.385736	0.583172
C33	C	-0.568815	-0.115024	0.000047
C34	C	-0.068815	0.384976	0.500047
C35	C	-0.395375	-0.111982	0.000050
C36	C	0.104625	0.388018	0.500050
C37	C	-0.301349	-0.110329	0.000051
C38	C	0.198651	0.389671	0.500051
C39	C	-0.662847	-0.116675	0.000045
C40	C	-0.162847	0.383325	0.500045
C41	C	-0.988211	0.038519	0.000062
C42	C	-0.488211	0.538519	0.500062
C43	C	-0.986597	0.130815	0.000069
C44	C	-0.486597	0.630815	0.500069
C45	C	-0.134102	-0.107380	0.000063
C46	C	0.365898	0.392620	0.500063
C47	C	-0.226395	-0.109016	0.000053
C48	C	0.273605	0.390984	0.500053
N49	N	-0.982099	-0.113493	0.217053
N50	N	-0.482099	0.386507	0.717053
C51	C	-1.058610	0.353090	0.000107
C52	C	-0.558610	0.853090	0.500107
C53	C	-1.057088	0.439810	0.000122
C54	C	-0.557088	0.939810	0.500122
C55	C	-0.905598	0.419931	0.000108
C56	C	-0.405598	0.919931	0.500108
C57	C	-0.907121	0.333213	0.000100
C58	C	-0.407121	0.833213	0.500100
C59	C	-0.983630	0.299794	0.000095
C60	C	-0.483630	0.799794	0.500095
C61	C	-0.980584	0.473234	0.000118
C62	C	-0.480584	0.973234	0.500118
C63	C	-0.978933	0.567260	0.000134
C64	C	-0.478933	1.067260	0.500134
C65	C	-0.985281	0.205762	0.000080
C66	C	-0.485281	0.705762	0.500080
C67	C	-0.975988	0.734507	0.000079
C68	C	-0.475988	1.234507	0.500079
C69	C	-0.977616	0.642213	0.000144
C70	C	-0.477616	1.142213	0.500144
N71	N	-0.982101	-0.113476	-0.216936
N72	N	-0.482101	0.386524	0.283064
C73	C	-1.038746	-0.057064	0.452064
C74	C	-0.538746	0.442936	0.952064
C75	C	-1.038749	-0.057062	0.548045
C76	C	-0.538749	0.442938	1.048045
C77	C	-0.925451	-0.169911	0.548046
C78	C	-0.425451	0.330089	1.048046
C79	C	-0.925453	-0.169916	0.452067
C80	C	-0.425453	0.330084	0.952067
C81	C	-0.982100	-0.113488	0.404078
C82	C	-0.482100	0.386512	0.904078
C83	C	-0.982100	-0.113480	0.596039
C84	C	-0.482100	0.386520	1.096039
C85	C	-0.982102	-0.113479	0.700106
C86	C	-0.482102	0.386521	1.200106
C87	C	-0.982099	-0.113490	0.300004
C88	C	-0.482099	0.386510	0.800004
H89	H	-0.560770	-0.114886	0.150860
H90	H	-0.060770	0.385114	0.650860
H91	H	-1.120908	0.325883	0.000105
H92	H	-0.620908	0.825883	0.500105
H93	H	-0.843307	0.447152	0.000111
H94	H	-0.343307	0.947152	0.500111
H95	H	-0.879325	-0.215867	0.412994
H96	H	-0.379325	0.284133	0.912994
H97	H	-1.118144	0.483200	0.000134
H98	H	-0.618144	0.983200	0.500134
H99	H	-0.846059	0.289817	0.000092
H100	H	-0.346059	0.789817	0.500092
F101	F	-1.099037	0.002990	0.400994
F102	F	-0.599037	0.502990	0.900994
H103	H	-0.403436	-0.112128	0.150850
H104	H	0.096564	0.387872	0.650850
H105	H	-1.084876	-0.011117	0.587112
H106	H	-0.584876	0.488883	1.087112
H107	H	-0.560747	-0.114876	-0.150756
H108	H	-0.060747	0.385124	0.349244
F109	F	-0.392586	-0.111918	-0.171535
F110	F	0.107414	0.388082	0.328465
H111	H	-0.879330	-0.215852	0.587129
H112	H	-0.379330	0.284148	1.087129
