data_functionalizedCrystal
_audit_creation_method	'MofGen! by Chris Wilmer'
_symmetry_space_group_name_H-M	'P1'
_symmetry_Int_Tables_number	1
_symmetry_cell_setting	triclinic
loop_
_symmetry_equiv_pos_as_xyz
  x,y,z
_cell_length_a	14.472310
_cell_length_b	9.065218
_cell_length_c	9.065218
_cell_angle_alpha	94.984115
_cell_angle_beta	90.013153
_cell_angle_gamma	90.000903
loop_
_atom_site_label
_atom_site_type_symbol
_atom_site_fract_x
_atom_site_fract_y
_atom_site_fract_z
O1	O	0.076839	-0.216347	1.960421
O2	O	0.576839	0.283653	2.460421
O3	O	0.076840	-0.234094	1.531136
O4	O	0.576840	0.265906	2.031136
O5	O	0.076838	-0.010578	1.754652
O6	O	0.576838	0.489422	2.254652
O7	O	0.076842	-0.439863	1.736905
O8	O	0.576842	0.060137	2.236905
O9	O	-0.076844	-0.010590	1.754593
O10	O	0.423156	0.489410	2.254593
O11	O	-0.076842	-0.234106	1.531078
O12	O	0.423158	0.265894	2.031078
O13	O	-0.076843	-0.216359	1.960363
O14	O	0.423157	0.283641	2.460363
Cu15	Cu	-0.090875	-0.225234	1.745715
Cu16	Cu	0.409125	0.274766	2.245715
Cu17	Cu	0.090872	-0.225219	1.745784
Cu18	Cu	0.590872	0.274781	2.245784
O19	O	-0.076840	-0.439875	1.736847
O20	O	0.423160	0.060125	2.236847
C21	C	-0.000001	-0.232394	1.476120
C22	C	0.499999	0.267606	1.976120
C23	C	-0.000000	-0.227294	1.312277
C24	C	0.500000	0.272706	1.812277
N25	N	-0.218706	-0.225243	1.745677
N26	N	0.281294	0.274757	2.245677
C27	C	-0.000002	0.044403	1.752917
C28	C	0.499998	0.544403	2.252917
C29	C	0.000003	0.208245	1.747817
C30	C	0.500003	0.708245	2.247817
C31	C	-0.592797	-0.225213	1.745782
C32	C	-0.092797	0.274787	2.245782
C33	C	-0.553630	-0.344400	1.625771
C34	C	-0.053630	0.155600	2.125771
C35	C	-0.446542	-0.344844	1.626057
C36	C	0.053458	0.155156	2.126057
C37	C	-0.407206	-0.225228	1.745729
C38	C	0.092794	0.274772	2.245729
C39	C	-0.446043	-0.260913	1.900138
C40	C	0.053957	0.239087	2.400138
C41	C	-0.553164	-0.261762	1.899466
C42	C	-0.053164	0.238238	2.399466
C43	C	-0.553327	-0.070002	1.712752
C44	C	-0.053327	0.429998	2.212752
C45	C	-0.446200	-0.070987	1.709234
C46	C	0.053800	0.429013	2.209234
C47	C	-0.302318	-0.225234	1.745708
C48	C	0.197682	0.274766	2.245708
C49	C	-0.697685	-0.225211	1.745812
C50	C	-0.197685	0.274789	2.245812
N51	N	0.218703	-0.225198	1.745833
N52	N	0.718703	0.274802	2.245833
C53	C	0.000001	-0.494855	1.738582
C54	C	0.500001	0.005145	2.238582
C55	C	0.000003	-0.658698	1.743681
C56	C	0.500003	-0.158698	2.243681
C57	C	0.000000	-0.218059	2.015378
C58	C	0.500000	0.281941	2.515378
C59	C	0.000006	-0.223158	2.179221
C60	C	0.500006	0.276842	2.679221
H61	H	-0.420286	-0.323280	1.511348
H62	H	0.079714	0.176720	2.011348
H63	H	-0.578655	0.018717	1.800246
H64	H	-0.078655	0.518717	2.300246
N65	N	-0.410496	-0.409236	1.939135
N66	N	0.089504	0.090764	2.439135
H67	H	-0.369245	-0.453519	1.857011
H68	H	0.130755	0.046481	2.357011
H69	H	-0.464392	-0.477685	1.952125
H70	H	0.035608	0.022315	2.452125
H71	H	-0.580395	-0.036199	1.602489
H72	H	-0.080395	0.463801	2.102489
N73	N	-0.412300	-0.149100	2.021381
N74	N	0.087700	0.350900	2.521381
H75	H	-0.371414	-0.074060	1.977275
H76	H	0.128586	0.425940	2.477275
H77	H	-0.375964	-0.201499	2.096352
H78	H	0.124036	0.298501	2.596352
N79	N	-0.587491	-0.151244	2.021401
N80	N	-0.087491	0.348756	2.521401
H81	H	-0.533034	-0.102200	2.075359
H82	H	-0.033034	0.397800	2.575359
H83	H	-0.626174	-0.204012	2.093192
H84	H	-0.126174	0.295988	2.593192
H85	H	-0.579417	-0.323160	1.510695
H86	H	-0.079417	0.176840	2.010695
H87	H	-0.420906	-0.459981	1.647364
H88	H	0.079094	0.040019	2.147364
H89	H	-0.420818	-0.043954	1.595638
H90	H	0.079182	0.456046	2.095638
H91	H	-0.419427	0.022021	1.790809
H92	H	0.080573	0.522021	2.290809
H93	H	-0.580538	-0.458886	1.646796
H94	H	-0.080538	0.041114	2.146796
H95	H	-0.578139	-0.375020	1.928259
H96	H	-0.078139	0.124980	2.428259
