data_functionalizedCrystal
_audit_creation_method	'MofGen! by Chris Wilmer'
_symmetry_space_group_name_H-M	'P1'
_symmetry_Int_Tables_number	1
_symmetry_cell_setting	triclinic
loop_
_symmetry_equiv_pos_as_xyz
  x,y,z
_cell_length_a	19.188930
_cell_length_b	19.188925
_cell_length_c	16.776229
_cell_angle_alpha	89.993696
_cell_angle_beta	89.978976
_cell_angle_gamma	83.143665
loop_
_atom_site_label
_atom_site_type_symbol
_atom_site_fract_x
_atom_site_fract_y
_atom_site_fract_z
O1	O	0.926146	0.087169	-0.066544
O2	O	1.259479	0.420503	0.266790
O3	O	1.592812	0.753836	0.600123
O4	O	0.722834	0.098904	-0.066489
O5	O	1.056167	0.432237	0.266844
O6	O	1.389501	0.765570	0.600178
O7	O	0.830359	-0.008619	-0.066514
O8	O	1.163692	0.324714	0.266820
O9	O	1.497026	0.658047	0.600153
O10	O	0.818621	0.194693	-0.066519
O11	O	1.151954	0.528026	0.266814
O12	O	1.485287	0.861359	0.600147
O13	O	0.830345	-0.008626	0.066063
O14	O	1.163678	0.324707	0.399396
O15	O	1.497011	0.658041	0.732730
O16	O	0.722820	0.098897	0.066087
O17	O	1.056153	0.432231	0.399421
O18	O	1.389487	0.765564	0.732754
O19	O	0.926131	0.087163	0.066033
O20	O	1.259465	0.420496	0.399366
O21	O	1.592798	0.753830	0.732699
Zn22	Zn	0.824473	0.093029	0.087109
Zn23	Zn	1.157807	0.426362	0.420443
Zn24	Zn	1.491140	0.759696	0.753776
Zn25	Zn	0.824492	0.093038	-0.087566
Zn26	Zn	1.157825	0.426371	0.245768
Zn27	Zn	1.491159	0.759704	0.579101
O28	O	0.818607	0.194686	0.066057
O29	O	1.151940	0.528019	0.399390
O30	O	1.485273	0.861353	0.732724
C31	C	0.696816	0.098520	-0.000194
C32	C	1.030149	0.431854	0.333140
C33	C	1.363483	0.765187	0.666473
C34	C	0.619311	0.097380	-0.000173
C35	C	0.952645	0.430713	0.333160
C36	C	1.285978	0.764046	0.666494
C37	C	0.574386	0.160471	-0.000187
C38	C	0.907720	0.493804	0.333146
C39	C	1.241053	0.827137	0.666479
C40	C	0.501563	0.159399	-0.000196
C41	C	0.834896	0.492732	0.333137
C42	C	1.168229	0.826066	0.666471
C43	C	0.473667	0.095233	-0.000206
C44	C	0.807001	0.428566	0.333127
C45	C	1.140334	0.761900	0.666460
C46	C	0.518602	0.032134	-0.000188
C47	C	0.851936	0.365467	0.333146
C48	C	1.185269	0.698800	0.666479
C49	C	0.591424	0.033207	-0.000171
C50	C	0.924758	0.366540	0.333163
C51	C	1.258091	0.699874	0.666496
N52	N	0.365693	0.046188	-0.045359
N53	N	0.699026	0.379521	0.287975
N54	N	1.032359	0.712855	0.621308
N55	N	0.296514	0.045173	-0.045376
N56	N	0.629848	0.378506	0.287957
N57	N	0.963181	0.711839	0.621291
C58	C	0.254259	0.091995	-0.000255
C59	C	0.587592	0.425328	0.333078
C60	C	0.920925	0.758661	0.666412
N61	N	0.283794	0.139881	0.044874
N62	N	0.617127	0.473215	0.378208
N63	N	0.950460	0.806548	0.711541
N64	N	0.352978	0.140899	0.044888
N65	N	0.686312	0.474232	0.378222
N66	N	1.019645	0.807566	0.711555
C67	C	0.394705	0.094062	-0.000224
C68	C	0.728038	0.427395	0.333109
C69	C	1.061371	0.760728	0.666443
C70	C	0.130369	0.153928	-0.000278
C71	C	0.463702	0.487261	0.333056
C72	C	0.797036	0.820595	0.666389
C73	C	0.057544	0.152854	-0.000281
C74	C	0.390878	0.486187	0.333052
C75	C	0.724211	0.819520	0.666385
C76	C	0.074586	0.025586	-0.000281
C77	C	0.407919	0.358920	0.333052
C78	C	0.741252	0.692253	0.666386
C79	C	0.147409	0.026663	-0.000269
C80	C	0.480742	0.359996	0.333064
C81	C	0.814075	0.693329	0.666397
C82	C	0.175296	0.090835	-0.000271
C83	C	0.508629	0.424169	0.333062
C84	C	0.841962	0.757502	0.666395
C85	C	0.829972	-0.034634	-0.000226
C86	C	1.163306	0.298700	0.333108
C87	C	1.496639	0.632033	0.666441
C88	C	0.828833	-0.112138	-0.000227
C89	C	1.162167	0.221195	0.333106
C90	C	1.495500	0.554528	0.666440
C91	C	0.884297	-0.673909	-0.000262
C92	C	1.217631	-0.340575	0.333071
C93	C	1.550964	-0.007242	0.666405
C94	C	0.885374	-0.601085	-0.000255
C95	C	1.218707	-0.267752	0.333078
C96	C	1.552040	0.065581	0.666411
C97	C	0.822282	-0.556151	-0.000238
C98	C	1.155615	-0.222818	0.333095
C99	C	1.488948	0.110516	0.666428
C100	C	0.758108	-0.584045	-0.000208
C101	C	1.091441	-0.250712	0.333125
C102	C	1.424775	0.082622	0.666458
C103	C	0.757033	-0.656867	-0.000207
C104	C	1.090367	-0.323534	0.333126
C105	C	1.423700	0.009800	0.666460
N106	N	0.776610	-0.435468	-0.045352
N107	N	1.109944	-0.102135	0.287982
N108	N	1.443277	0.231199	0.621315
N109	N	0.777635	-0.366291	-0.045354
N110	N	1.110969	-0.032958	0.287979
N111	N	1.444302	0.300376	0.621312
C112	C	0.825516	-0.336742	-0.000240
C113	C	1.158849	-0.003408	0.333093
C114	C	1.492182	0.329925	0.666427
N115	N	0.872343	-0.378985	0.044868
N116	N	1.205676	-0.045651	0.378201
N117	N	1.539009	0.287682	0.711534
N118	N	0.871319	-0.448169	0.044867
N119	N	1.204653	-0.114835	0.378200
N120	N	1.537986	0.218498	0.711533
C121	C	0.823440	-0.477187	-0.000239
C122	C	1.156773	-0.143853	0.333094
C123	C	1.490106	0.189480	0.666428
C124	C	0.890852	-0.229893	-0.000257
C125	C	1.224185	0.103441	0.333076
C126	C	1.557519	0.436774	0.666410
C127	C	0.891926	-0.157068	-0.000245
C128	C	1.225259	0.176265	0.333088
C129	C	1.558593	0.509599	0.666422
C130	C	0.764659	-0.140029	-0.000206
C131	C	1.097992	0.193305	0.333127
C132	C	1.431325	0.526638	0.666461
C133	C	0.763587	-0.212852	-0.000210
C134	C	1.096920	0.120481	0.333123
C135	C	1.430253	0.453814	0.666457
C136	C	0.826685	-0.257780	-0.000239
C137	C	1.160019	0.075553	0.333094
C138	C	1.493352	0.408886	0.666427
C139	C	0.952150	0.087546	-0.000264
C140	C	1.285483	0.420880	0.333069
C141	C	1.618816	0.754213	0.666402
C142	C	1.029654	0.088687	-0.000291
C143	C	1.362987	0.422020	0.333043
C144	C	1.696321	0.755354	0.666376
C145	C	0.818993	0.220700	-0.000232
C146	C	1.152326	0.554034	0.333101
C147	C	1.485660	0.887367	0.666434
C148	C	0.820132	0.298205	-0.000236
C149	C	1.153466	0.631538	0.333097
C150	C	1.486799	0.964872	0.666430
N151	N	0.824466	0.093023	0.206321
N152	N	1.157799	0.426356	0.539654
N153	N	1.491132	0.759689	0.872987
N154	N	0.824505	0.093038	-0.206777
N155	N	1.157839	0.426372	0.126556
N156	N	1.491172	0.759705	0.459890
C157	C	0.872092	0.045431	0.248027
C158	C	1.205425	0.378764	0.581360
C159	C	1.538759	0.712098	0.914694
C160	C	0.872096	0.045430	0.331479
C161	C	1.205429	0.378764	0.664812
C162	C	1.538763	0.712097	0.998146
C163	C	0.824476	0.093025	0.373224
C164	C	1.157810	0.426359	0.706557
C165	C	1.491143	0.759692	1.039890
C166	C	0.776845	0.140619	0.331511
C167	C	1.110178	0.473953	0.664845
C168	C	1.443511	0.807286	0.998178
C169	C	0.776838	0.140616	0.248061
C170	C	1.110171	0.473949	0.581394
C171	C	1.443505	0.807283	0.914727
C172	C	0.776870	0.140633	0.668059
C173	C	1.110203	0.473966	1.001392
C174	C	1.443537	0.807300	1.334725
C175	C	0.776882	0.140634	0.751515
C176	C	1.110215	0.473967	1.084848
C177	C	1.443548	0.807301	1.418182
C178	C	0.872128	0.045447	0.751477
C179	C	1.205461	0.378781	1.084810
C180	C	1.538795	0.712114	1.418144
C181	C	0.872121	0.045444	0.668026
C182	C	1.205455	0.378777	1.001360
C183	C	1.538788	0.712111	1.334693
C184	C	0.824488	0.093035	0.626321
C185	C	1.157821	0.426369	0.959655
C186	C	1.491154	0.759702	1.292988
C187	C	0.824483	0.093034	0.535833
C188	C	1.157816	0.426368	0.869166
C189	C	1.491150	0.759701	1.202500
C190	C	0.824484	0.093030	0.463710
C191	C	1.157817	0.426363	0.797044
C192	C	1.491150	0.759697	1.130377
H193	H	0.464977	0.210777	-0.000205
H194	H	0.798311	0.544110	0.333128
H195	H	1.131644	0.877444	0.666461
H196	H	0.711337	-0.235557	-0.000195
H197	H	1.044670	0.097776	0.333139
H198	H	1.378003	0.431110	0.666472
Br199	Br	0.936774	-0.019144	0.808080
Br200	Br	1.270108	0.314190	1.141413
Br201	Br	1.603441	0.647523	1.474747
H202	H	0.713288	-0.103444	-0.000186
H203	H	1.046621	0.229890	0.333148
H204	H	1.379954	0.563223	0.666481
Br205	Br	0.936728	-0.019161	0.191382
Br206	Br	1.270061	0.314172	0.524716
Br207	Br	1.603395	0.647505	0.858049
H208	H	0.628003	-0.018171	-0.000160
H209	H	0.961337	0.315162	0.333174
H210	H	1.294670	0.648496	0.666507
H211	H	0.597087	0.212725	-0.000190
H212	H	0.930420	0.546059	0.333143
H213	H	1.263753	0.879392	0.666476
H214	H	0.910877	0.006677	0.365436
H215	H	1.244210	0.340010	0.698769
H216	H	1.577543	0.673344	1.032103
Br217	Br	0.936753	-0.019147	0.611376
Br218	Br	1.270087	0.314186	0.944709
Br219	Br	1.603420	0.647520	1.278042
Br220	Br	0.480747	-0.054950	-0.000193
Br221	Br	0.814080	0.278383	0.333140
Br222	Br	1.147413	0.611717	0.666473
Br223	Br	0.168220	0.241017	-0.000275
Br224	Br	0.501554	0.574350	0.333059
Br225	Br	0.834887	0.907684	0.666392
H226	H	0.944179	-0.134365	-0.000261
H227	H	1.277512	0.198968	0.333072
H228	H	1.610846	0.532301	0.666406
H229	H	0.020966	0.204232	-0.000289
H230	H	0.354299	0.537566	0.333045
H231	H	0.687633	0.870899	0.666378
Br232	Br	0.712251	0.205232	0.808169
Br233	Br	1.045584	0.538566	1.141502
Br234	Br	1.378918	0.871899	1.474835
H235	H	0.706738	-0.547455	-0.000192
H236	H	1.040072	-0.214121	0.333141
H237	H	1.373405	0.119212	0.666475
Br238	Br	0.712228	0.205220	0.611464
Br239	Br	1.045561	0.538554	0.944797
Br240	Br	1.378895	0.871887	1.278130
Br241	Br	0.712211	0.205210	0.388161
Br242	Br	1.045544	0.538543	0.721495
Br243	Br	1.378878	0.871876	1.054828
Br244	Br	0.712195	0.205203	0.191459
Br245	Br	1.045528	0.538537	0.524793
Br246	Br	1.378861	0.871870	0.858126
H247	H	0.183988	-0.024713	-0.000262
H248	H	0.517321	0.308620	0.333071
H249	H	0.850655	0.641953	0.666405
Br250	Br	0.036736	-0.061498	-0.000282
Br251	Br	0.370069	0.271835	0.333051
Br252	Br	0.703403	0.605168	0.666385
Br253	Br	0.972461	-0.563229	-0.000277
Br254	Br	1.305794	-0.229896	0.333056
Br255	Br	1.639128	0.103438	0.666389
Br256	Br	0.969931	-0.734879	-0.000295
Br257	Br	1.303264	-0.401546	0.333039
Br258	Br	1.636597	-0.068212	0.666372
H259	H	0.704781	-0.679571	-0.000184
H260	H	1.038114	-0.346237	0.333149
H261	H	1.371448	-0.012904	0.666482
H262	H	0.942231	-0.266475	-0.000280
H263	H	1.275564	0.066858	0.333053
H264	H	1.608898	0.400192	0.666386
