data_functionalizedCrystal
_audit_creation_method	'MofGen! by Chris Wilmer'
_symmetry_space_group_name_H-M	'P1'
_symmetry_Int_Tables_number	1
_symmetry_cell_setting	triclinic
loop_
_symmetry_equiv_pos_as_xyz
  x,y,z
_cell_length_a	19.077399
_cell_length_b	19.076808
_cell_length_c	17.077396
_cell_angle_alpha	92.329364
_cell_angle_beta	87.724781
_cell_angle_gamma	94.711600
loop_
_atom_site_label
_atom_site_type_symbol
_atom_site_fract_x
_atom_site_fract_y
_atom_site_fract_z
Zn1	Zn	1.066431	-0.237377	0.385517
Zn2	Zn	1.061605	-0.355282	0.249177
Zn3	Zn	0.948543	-0.242137	0.259322
Zn4	Zn	0.943775	-0.359973	0.385458
O5	O	1.005089	-0.298692	0.319868
O6	O	1.164439	-0.249062	0.363210
O7	O	1.046583	-0.340302	0.140676
O8	O	0.968196	-0.142848	0.280332
O9	O	1.160894	-0.335686	0.263042
O10	O	1.054807	-0.139351	0.373047
O11	O	0.963517	-0.257175	0.148129
O12	O	0.849262	-0.261724	0.280275
O13	O	0.960070	-0.343681	0.495313
O14	O	0.845759	-0.348297	0.372947
O15	O	1.050184	-0.253611	0.495356
O16	O	1.041960	-0.454562	0.262985
O17	O	0.955391	-0.458008	0.363110
C18	C	0.821932	-0.306036	0.327706
C19	C	0.743576	-0.309195	0.331076
C20	C	0.708570	-0.265537	0.284496
C21	C	0.634946	-0.268511	0.287662
C22	C	0.596330	-0.315140	0.337414
C23	C	0.631341	-0.358803	0.383996
C24	C	0.704963	-0.355832	0.380825
C25	C	0.375949	-0.328870	0.352059
C26	C	0.302321	-0.331836	0.355229
C27	C	0.305932	-0.241545	0.258894
C28	C	0.379556	-0.238575	0.255730
C29	C	0.414560	-0.282241	0.302309
N30	N	0.521075	-0.318180	0.340654
N31	N	0.489814	-0.279204	0.299065
C32	C	0.997654	-0.481865	0.311956
C33	C	0.994537	-0.560225	0.308595
C34	C	1.038134	-0.595158	0.355330
C35	C	1.035203	-0.668785	0.352173
C36	C	0.988679	-0.707478	0.302277
C37	C	0.945078	-0.672539	0.255540
C38	C	0.948006	-0.598913	0.258702
C39	C	0.975087	-0.927877	0.287644
C40	C	0.972164	-1.001507	0.284485
C41	C	1.062289	-0.997749	0.381119
C42	C	1.065215	-0.924122	0.384273
C43	C	1.021612	-0.889190	0.337539
N44	N	0.985683	-0.782736	0.299047
N45	N	1.024604	-0.813932	0.340774
C46	C	1.188960	-0.291320	0.312001
C47	C	1.267315	-0.288178	0.308649
C48	C	1.005133	-0.298639	0.524613
C49	C	1.005152	-0.298616	0.611863
C50	C	1.012572	-0.114803	0.327828
C51	C	1.015761	-0.036441	0.331220
C52	C	1.005087	-0.298693	0.115921
C53	C	1.005212	-0.298512	0.028674
C54	C	1.052077	-0.251712	0.652877
C55	C	1.052086	-0.251689	0.734858
C56	C	1.005174	-0.298572	0.775824
C57	C	0.958245	-0.345478	0.734804
C58	C	0.958232	-0.345498	0.652825
C59	C	0.958275	-0.345434	0.905675
C60	C	0.958288	-0.345415	0.987660
C61	C	1.052128	-0.251625	0.987709
C62	C	1.052116	-0.251645	0.905729
C63	C	1.005188	-0.298552	0.864715
H64	H	0.599893	-0.396773	0.424501
H65	H	0.606448	-0.232964	0.249727
H66	H	1.097787	-1.026198	0.419168
H67	H	1.103099	-0.892620	0.424902
H68	H	1.090280	-0.213536	0.619529
C69	C	0.259844	-0.383133	0.409960
C70	C	0.210496	-0.354694	0.475144
C71	C	0.168020	-0.405985	0.529874
C72	C	0.174892	-0.485717	0.519421
C73	C	0.224241	-0.514161	0.454234
C74	C	0.266717	-0.462869	0.399503
H75	H	0.205408	-0.295668	0.482884
H76	H	0.131488	-0.384929	0.578130
H77	H	0.143448	-0.523686	0.559936
H78	H	0.229330	-0.573186	0.446493
H79	H	0.303249	-0.483925	0.351248
H80	H	0.907194	-0.704048	0.214917
C81	C	0.414451	-0.376896	0.403298
C82	C	0.466329	-0.344376	0.464114
C83	C	0.504836	-0.392404	0.515354
C84	C	0.491466	-0.472951	0.505777
C85	C	0.439586	-0.505475	0.444958
C86	C	0.401078	-0.457447	0.393718
H87	H	0.476228	-0.284747	0.471206
H88	H	0.543241	-0.368327	0.560377
H89	H	0.519971	-0.508504	0.543708
H90	H	0.429686	-0.565104	0.437867
H91	H	0.362673	-0.481524	0.348696
H92	H	0.740007	-0.227561	0.243989
C93	C	0.920988	-1.044075	0.229595
C94	C	0.927187	-1.033765	0.140548
C95	C	0.876019	-1.076334	0.085657
C96	C	0.818652	-1.129213	0.119814
C97	C	0.812450	-1.139526	0.208866
C98	C	0.863619	-1.096956	0.263756
H99	H	0.969656	-0.994619	0.115258
H100	H	0.880610	-1.068700	0.019735
H101	H	0.780774	-1.160726	0.079182
H102	H	0.769981	-1.178672	0.234156
H103	H	0.859028	-1.104590	0.329679
C104	C	1.103748	-0.200021	1.032818
C105	C	1.183651	-0.202567	1.017877
C106	C	1.235271	-0.150967	1.062988
C107	C	1.206987	-0.096820	1.123041
C108	C	1.127079	-0.094272	1.137985
C109	C	1.075460	-0.145872	1.092873
H110	H	1.204593	-0.242652	0.973420
H111	H	1.294424	-0.152853	1.051926
H112	H	1.245199	-0.058622	1.156436
H113	H	1.106138	-0.054187	1.182442
H114	H	1.016307	-0.143985	1.103936
C115	C	0.422031	-0.187302	0.200979
C116	C	0.383525	-0.139293	0.149723
C117	C	0.426001	-0.088026	0.094964
C118	C	0.506982	-0.084768	0.091461
C119	C	0.545492	-0.132779	0.142720
C120	C	0.503017	-0.184047	0.197479
H121	H	0.323574	-0.141703	0.152314
H122	H	0.397492	-0.052485	0.057019
H123	H	0.538425	-0.046817	0.050925
H124	H	0.605444	-0.130370	0.140128
H125	H	0.531525	-0.219588	0.235423
C126	C	0.906645	-0.397061	0.779856
C127	C	0.826737	-0.394536	0.772259
C128	C	0.775140	-0.446127	0.817305
C129	C	0.803453	-0.500244	0.869949
C130	C	0.883366	-0.502772	0.877548
C131	C	0.934962	-0.451181	0.832502
H132	H	0.805774	-0.354473	0.733287
H133	H	0.715983	-0.444256	0.811679
H134	H	0.765258	-0.538436	0.903295
H135	H	0.904328	-0.542835	0.916520
H136	H	0.994119	-0.453052	0.838128
H137	H	0.733464	-0.391383	0.418756
C138	C	0.906621	-0.397096	0.607702
C139	C	0.852510	-0.368781	0.555028
C140	C	0.800897	-0.420380	0.509905
C141	C	0.803395	-0.500293	0.517457
C142	C	0.857508	-0.528612	0.570133
C143	C	0.909121	-0.477014	0.615256
H144	H	0.850660	-0.309621	0.549436
H145	H	0.760840	-0.399416	0.470911
H146	H	0.765188	-0.538490	0.484054
H147	H	0.859358	-0.587773	0.575725
H148	H	0.949179	-0.497978	0.654250
H149	H	0.277423	-0.205996	0.220971
H150	H	1.090298	-0.213497	0.768248
C151	C	1.083169	-0.707207	0.403575
C152	C	1.136520	-0.755569	0.365062
C153	C	1.184491	-0.793988	0.416466
C154	C	1.179113	-0.784046	0.506382
C155	C	1.125760	-0.735683	0.544900
C156	C	1.077788	-0.697264	0.493496
H157	H	1.140503	-0.762930	0.298497
H158	H	1.223986	-0.829790	0.387952
H159	H	1.214624	-0.812487	0.544434
H160	H	1.121776	-0.728322	0.611466
H161	H	1.038293	-0.661462	0.522010
C162	C	0.927129	-0.889462	0.236229
C163	C	0.932531	-0.899405	0.146314
C164	C	0.884571	-0.860989	0.094892
C165	C	0.831209	-0.812631	0.133387
C166	C	0.825805	-0.802686	0.223307
C167	C	0.873765	-0.841101	0.274728
H168	H	0.972034	-0.935205	0.117814
H169	H	0.888571	-0.868352	0.028327
H170	H	0.795706	-0.784193	0.095322
H171	H	0.786302	-0.766886	0.251807
H172	H	0.869765	-0.833739	0.341293
C173	C	0.906709	-0.397010	1.032722
C174	C	0.855103	-0.448620	0.987611
C175	C	0.803536	-0.500228	1.032672
C176	C	0.803575	-0.500227	1.122844
C177	C	0.855183	-0.448616	1.167960
C178	C	0.906750	-0.397007	1.122899
H179	H	0.855072	-0.448622	0.920855
H180	H	0.765333	-0.538434	0.999273
H181	H	0.765403	-0.538431	1.156200
H182	H	0.855214	-0.448613	1.234715
H183	H	0.944953	-0.358801	1.156297
H184	H	0.920050	-0.383620	0.872285
H185	H	1.076021	-0.563659	0.395957
C186	C	1.103719	-0.200072	0.860667
C187	C	1.075412	-0.145963	0.808009
C188	C	1.127014	-0.094387	0.762948
C189	C	1.206922	-0.096920	0.770545
C190	C	1.235232	-0.151032	0.823205
C191	C	1.183631	-0.202608	0.868267
H192	H	1.016256	-0.144085	0.802383
H193	H	1.106056	-0.054330	0.723965
H194	H	1.245120	-0.058741	0.737188
H195	H	1.294389	-0.152909	0.828831
H196	H	1.204589	-0.242665	0.907249
H197	H	0.912504	-0.570471	0.220646
