data_functionalizedCrystal
_audit_creation_method	'MofGen! by Chris Wilmer'
_symmetry_space_group_name_H-M	'P1'
_symmetry_Int_Tables_number	1
_symmetry_cell_setting	triclinic
loop_
_symmetry_equiv_pos_as_xyz
  x,y,z
_cell_length_a	23.096457
_cell_length_b	19.902436
_cell_length_c	23.096457
_cell_angle_alpha	60.001873
_cell_angle_beta	90.011518
_cell_angle_gamma	60.002268
loop_
_atom_site_label
_atom_site_type_symbol
_atom_site_fract_x
_atom_site_fract_y
_atom_site_fract_z
Zr1	Zr	0.557760	0.735498	-0.076064
O2	O	0.465292	0.875678	-0.168522
O3	O	0.586104	0.595318	-0.047712
O4	O	0.586078	0.735500	-0.168515
O5	O	0.465341	0.735493	0.047563
O6	O	0.681359	0.735502	-0.168518
O7	O	0.465318	0.735495	-0.047719
O8	O	0.681406	0.484741	0.047576
O9	O	0.465294	0.986254	-0.168531
O10	O	0.669302	0.652977	-0.035633
O11	O	0.598212	0.652974	0.035478
O12	O	0.598181	0.818021	-0.106752
O13	O	0.527092	0.818018	-0.035642
Zr14	Zr	0.709757	0.735498	0.075895
Zr15	Zr	0.709721	0.735501	-0.076069
Zr16	Zr	0.557796	0.735495	0.075900
Zr17	Zr	0.557763	0.911854	-0.076078
Zr18	Zr	0.709754	0.559141	0.075909
O19	O	0.681413	0.875678	0.047543
O20	O	0.681361	0.875682	-0.168530
O21	O	0.465343	0.875674	0.047551
O22	O	0.802225	0.595318	0.168353
O23	O	0.802174	0.595322	-0.047720
O24	O	0.586156	0.595313	0.168361
O25	O	0.802176	0.735502	-0.047732
O26	O	0.681439	0.735495	0.168346
O27	O	0.586158	0.735493	0.168349
O28	O	0.802199	0.735500	0.047550
O29	O	0.586083	0.986257	-0.168536
O30	O	0.681434	0.484739	0.168367
O31	O	0.802223	0.484741	0.168362
O32	O	0.802194	0.484743	0.047571
O33	O	0.465323	0.986252	-0.047740
O34	O	0.586112	0.986254	-0.047745
O35	O	0.669336	0.652974	0.106583
O36	O	0.740425	0.652977	0.035472
O37	O	0.669305	0.818021	-0.035647
O38	O	0.598215	0.818018	0.035464
C39	C	0.633755	0.514902	-0.000066
C40	C	0.633753	0.440034	-0.000060
C41	C	0.633760	0.168024	-0.000093
C42	C	0.589133	0.196261	0.044982
C43	C	0.588891	0.274380	0.044796
C44	C	0.633757	0.302971	-0.000076
C45	C	0.601025	0.338536	-0.077348
C46	C	0.600689	0.260698	-0.077110
C47	C	0.711142	0.133510	0.031484
C48	C	0.711029	0.210562	0.033057
C49	C	0.633755	0.379240	-0.000071
C50	C	0.633759	0.091760	-0.000104
C51	C	0.443678	0.735494	-0.000078
C52	C	0.379167	0.735493	-0.000075
C53	C	0.385985	0.649344	0.037041
C54	C	0.325370	0.649343	0.037044
C55	C	0.257936	0.735495	-0.000083
C56	C	0.251120	0.821655	-0.037201
C57	C	0.311735	0.821654	-0.037197
N58	N	0.135127	0.799623	-0.060500
N59	N	0.077548	0.799618	-0.060502
C60	C	0.075303	0.735503	-0.000096
N61	N	0.132820	0.671379	0.060312
N62	N	0.190406	0.671381	0.060313
C63	C	0.192205	0.735506	-0.000091
C64	C	0.016398	0.649347	0.037028
C65	C	-0.044220	0.649350	0.037033
C66	C	-0.118469	0.821664	-0.037220
C67	C	-0.057851	0.821660	-0.037218
C68	C	0.009580	0.735498	-0.000096
C69	C	0.823839	0.735501	-0.000092
C70	C	0.888350	0.735503	-0.000094
C71	C	0.633713	0.735501	-0.190168
C72	C	0.633698	0.735503	-0.254681
C73	C	0.633763	0.956093	-0.000103
C74	C	0.633764	1.030961	-0.000109
C75	C	0.596577	0.821651	-0.322108
C76	C	0.596595	0.821653	-0.382724
C77	C	0.633725	0.735500	-0.375909
C78	C	0.670853	0.649340	-0.308470
C79	C	0.670840	0.649341	-0.247856
N80	N	0.628601	0.671372	-0.443459
N81	N	0.628610	0.671377	-0.501043
C82	C	0.633768	0.735492	-0.558535
N83	N	0.638904	0.799617	-0.556274
N84	N	0.638891	0.799614	-0.498686
C85	C	0.633744	0.735490	-0.441631
C86	C	0.596665	0.821648	-0.691692
C87	C	0.596688	0.821646	-0.752308
C88	C	0.670942	0.649331	-0.678052
C89	C	0.670923	0.649336	-0.617438
C90	C	0.633781	0.735497	-0.624263
C91	C	0.633804	0.735494	0.189999
C92	C	0.633819	0.735493	0.254512
C93	C	0.823835	0.514906	-0.000073
C94	C	0.888345	0.440039	-0.000069
C95	C	0.633800	0.514899	0.190017
C96	C	0.633814	0.440029	0.254536
C97	C	0.823880	0.514902	0.190010
C98	C	0.888406	0.440034	0.254527
C99	C	0.443637	0.956093	-0.190180
C100	C	0.379112	1.030961	-0.254696
C101	C	0.443682	0.956089	-0.000096
C102	C	0.379172	1.030956	-0.000100
C103	C	0.633717	0.956097	-0.190187
C104	C	0.633703	1.030966	-0.254705
C105	C	0.881514	0.404881	-0.037190
C106	C	0.942122	0.334545	-0.037201
C107	C	1.009561	0.299365	-0.000086
C108	C	1.016391	0.334530	0.037036
C109	C	0.955783	0.404869	0.037042
C110	C	0.670946	0.404870	0.321958
C111	C	0.670956	0.334532	0.382586
C112	C	0.633838	0.299350	0.375791
C113	C	0.596701	0.334516	0.308362
C114	C	0.596687	0.404858	0.247736
C115	C	0.955822	0.404877	0.247706
C116	C	1.016456	0.334540	0.308320
C117	C	1.009673	0.299357	0.375755
C118	C	0.942249	0.334522	0.382575
C119	C	0.881616	0.404862	0.321961
C120	C	0.311695	1.066127	-0.247875
C121	C	0.251061	1.136486	-0.308489
C122	C	0.257844	1.171672	-0.375924
C123	C	0.325268	1.136503	-0.382744
C124	C	0.385901	1.066151	-0.322130
C125	C	0.386003	1.066122	0.037014
C126	C	0.325395	1.136477	0.037008
C127	C	0.257956	1.171660	-0.000109
C128	C	0.251126	1.136492	-0.037228
C129	C	0.311734	1.066143	-0.037225
C130	C	0.670829	1.066126	-0.247888
C131	C	0.670829	1.136464	-0.308504
C132	C	0.633700	1.171646	-0.375938
C133	C	0.596574	1.136480	-0.382754
C134	C	0.596578	1.066138	-0.322138
H135	H	0.610973	0.131754	0.102026
F136	F	0.457771	1.028692	0.076520
H137	H	0.701172	0.433507	0.327504
H138	H	0.196211	0.891801	-0.067430
H139	H	0.701200	0.305908	0.437483
F140	F	0.710343	1.173882	-0.301235
H141	H	0.306158	1.037482	-0.192971
H142	H	0.196168	1.165108	-0.302922
F143	F	-0.190234	0.913355	-0.076729
F144	F	0.754807	0.108867	-0.011224
H145	H	0.735481	0.181817	0.089984
F146	F	0.963064	0.442275	0.076558
H147	H	0.306178	0.891809	-0.067421
H148	H	0.826607	0.433525	-0.067422
F149	F	0.304453	1.028719	-0.076726
F150	F	0.088166	0.557649	0.076539
F151	F	0.633860	0.224485	0.440322
F152	F	0.557035	0.913352	-0.329375
F153	F	0.332678	1.173890	0.076520
H154	H	0.566463	0.891801	-0.807212
H155	H	-0.063407	0.891811	-0.067447
F156	F	0.710350	1.028695	-0.176126
F157	F	0.710371	0.557651	-0.301218
F158	F	1.074060	0.224502	-0.000098
H159	H	0.747083	0.226170	0.003640
H160	H	1.071350	0.305917	0.302754
F161	F	0.633701	1.246513	-0.440445
F162	F	1.074210	0.224493	0.440260
H163	H	0.701069	0.579187	-0.192952
H164	H	0.738487	0.065462	0.087511
F165	F	0.193307	1.246548	-0.440429
F166	F	0.557201	0.297063	0.301142
F167	F	0.179347	1.173944	-0.076726
F168	F	0.557055	1.173939	-0.454527
F169	F	0.193458	1.246532	-0.000104
H170	H	0.566343	1.037519	-0.327699
H171	H	1.071307	0.305875	0.067253
H172	H	0.610847	0.247733	0.101696
F173	F	0.963058	0.442313	0.175942
F174	F	0.935041	0.297068	0.454350
F175	F	0.514978	0.230137	0.016636
H176	H	0.531813	0.338838	0.022903
H177	H	0.543747	0.290240	-0.102389
H178	H	0.631094	0.244751	-0.112519
H179	H	0.566452	0.433475	0.192841
H180	H	0.936547	0.305922	-0.067429
H181	H	0.826725	0.433478	0.327525
H182	H	0.566366	0.891807	-0.437634
F183	F	0.641449	0.365888	-0.123156
F184	F	0.710465	0.557640	-0.670794
H185	H	-0.038662	0.579194	0.067263
H186	H	0.544628	0.405539	-0.102801
F187	F	0.557150	0.913347	-0.698953
F188	F	0.710420	0.557643	-0.545673
H189	H	0.330783	1.165161	-0.437657
H190	H	0.440887	0.579185	0.067265
F191	F	0.332624	0.557648	0.076548
H192	H	0.440792	1.037519	-0.327693
