data_functionalizedCrystal
_audit_creation_method	'MofGen! by Chris Wilmer'
_symmetry_space_group_name_H-M	'P1'
_symmetry_Int_Tables_number	1
_symmetry_cell_setting	triclinic
loop_
_symmetry_equiv_pos_as_xyz
  x,y,z
_cell_length_a	18.215407
_cell_length_b	19.805405
_cell_length_c	18.215399
_cell_angle_alpha	90.033020
_cell_angle_beta	90.016824
_cell_angle_gamma	90.026858
loop_
_atom_site_label
_atom_site_type_symbol
_atom_site_fract_x
_atom_site_fract_y
_atom_site_fract_z
Zn1	Zn	1.125042	-0.269446	0.416102
Zn2	Zn	1.375042	-0.019446	0.666102
Zn3	Zn	1.625042	0.230554	0.916102
Zn4	Zn	1.875042	0.480554	1.166102
Zn5	Zn	1.124954	-0.382642	0.293030
Zn6	Zn	1.374954	-0.132642	0.543030
Zn7	Zn	1.624954	0.117358	0.793030
Zn8	Zn	1.874954	0.367358	1.043030
Zn9	Zn	1.001981	-0.269473	0.293050
Zn10	Zn	1.251981	-0.019473	0.543050
Zn11	Zn	1.501981	0.230527	0.793050
Zn12	Zn	1.751981	0.480527	1.043050
Zn13	Zn	1.001937	-0.382599	0.416055
Zn14	Zn	1.251937	-0.132599	0.666055
Zn15	Zn	1.501937	0.117401	0.916055
Zn16	Zn	1.751937	0.367401	1.166055
O17	O	1.063479	-0.326040	0.354559
O18	O	1.313479	-0.076040	0.604559
O19	O	1.563479	0.173960	0.854559
O20	O	1.813479	0.423960	1.104559
O21	O	1.228015	-0.284468	0.399788
O22	O	1.478015	-0.034468	0.649788
O23	O	1.728015	0.215532	0.899788
O24	O	1.978015	0.465532	1.149788
O25	O	1.108623	-0.367659	0.190049
O26	O	1.358623	-0.117659	0.440049
O27	O	1.608623	0.132341	0.690049
O28	O	1.858623	0.382341	0.940049
O29	O	1.018361	-0.174753	0.309401
O30	O	1.268361	0.075247	0.559401
O31	O	1.518361	0.325247	0.809401
O32	O	1.768361	0.575247	1.059401
O33	O	1.227950	-0.367633	0.309368
O34	O	1.477950	-0.117633	0.559368
O35	O	1.727950	0.132367	0.809368
O36	O	1.977950	0.382367	1.059368
O37	O	1.108773	-0.174733	0.399807
O38	O	1.358773	0.075267	0.649807
O39	O	1.608773	0.325267	0.899807
O40	O	1.858773	0.575267	1.149807
O41	O	1.018275	-0.284514	0.190063
O42	O	1.268275	-0.034514	0.440063
O43	O	1.518275	0.215486	0.690063
O44	O	1.768275	0.465486	0.940063
O45	O	0.898991	-0.284473	0.309355
O46	O	1.148991	-0.034473	0.559355
O47	O	1.398991	0.215527	0.809355
O48	O	1.648991	0.465527	1.059355
O49	O	1.018286	-0.367560	0.519046
O50	O	1.268286	-0.117560	0.769046
O51	O	1.518286	0.132440	1.019046
O52	O	1.768286	0.382440	1.269046
O53	O	0.898959	-0.367586	0.399727
O54	O	1.148959	-0.117586	0.649727
O55	O	1.398959	0.132414	0.899727
O56	O	1.648959	0.382414	1.149727
O57	O	1.108731	-0.284427	0.519080
O58	O	1.358731	-0.034427	0.769080
O59	O	1.608731	0.215573	1.019080
O60	O	1.858731	0.465573	1.269080
O61	O	1.108580	-0.477353	0.309322
O62	O	1.358580	-0.227353	0.559322
O63	O	1.608580	0.022647	0.809322
O64	O	1.858580	0.272647	1.059322
O65	O	1.018201	-0.477321	0.399708
O66	O	1.268201	-0.227321	0.649708
O67	O	1.518201	0.022679	0.899708
O68	O	1.768201	0.272679	1.149708
C69	C	0.872272	-0.326028	0.354538
C70	C	1.122272	-0.076028	0.604538
C71	C	1.372272	0.173972	0.854538
C72	C	1.622272	0.423972	1.104538
C73	C	0.790474	-0.326040	0.354547
C74	C	1.040474	-0.076040	0.604547
C75	C	1.290474	0.173960	0.854547
C76	C	1.540474	0.423960	1.104547
C77	C	0.602282	-0.369385	0.401544
C78	C	0.852282	-0.119385	0.651544
C79	C	1.102282	0.130615	0.901544
C80	C	1.352282	0.380615	1.151544
C81	C	0.525423	-0.369387	0.401553
C82	C	0.775423	-0.119387	0.651553
C83	C	1.025423	0.130613	0.901553
C84	C	1.275423	0.380613	1.151553
C85	C	0.525427	-0.282707	0.307591
C86	C	0.775427	-0.032707	0.557591
C87	C	1.025427	0.217293	0.807591
C88	C	1.275427	0.467293	1.057591
C89	C	0.602285	-0.282702	0.307586
C90	C	0.852285	-0.032702	0.557586
C91	C	1.102285	0.217298	0.807586
C92	C	1.352285	0.467298	1.057586
C93	C	0.640710	-0.326045	0.354561
C94	C	0.890710	-0.076045	0.604561
C95	C	1.140710	0.173955	0.854561
C96	C	1.390710	0.423955	1.104561
C97	C	0.486994	-0.326052	0.354575
C98	C	0.736994	-0.076052	0.604575
C99	C	0.986994	0.173948	0.854575
C100	C	1.236994	0.423948	1.104575
C101	C	0.403660	-0.326054	0.354585
C102	C	0.653660	-0.076054	0.604585
C103	C	0.903660	0.173946	0.854585
C104	C	1.153660	0.423946	1.104585
C105	C	0.724049	-0.326042	0.354553
C106	C	0.974049	-0.076042	0.604553
C107	C	1.224049	0.173958	0.854553
C108	C	1.474049	0.423958	1.104553
C109	C	1.063396	-0.501896	0.354524
C110	C	1.313396	-0.251896	0.604524
C111	C	1.563396	-0.001896	0.854524
C112	C	1.813396	0.248104	1.104524
C113	C	1.063428	-0.577128	0.354533
C114	C	1.313428	-0.327128	0.604533
C115	C	1.563428	-0.077128	0.854533
C116	C	1.813428	0.172872	1.104533
C117	C	1.110534	-0.612466	0.307518
C118	C	1.360534	-0.362466	0.557518
C119	C	1.610534	-0.112466	0.807518
C120	C	1.860534	0.137534	1.057518
C121	C	1.110565	-0.683154	0.307535
C122	C	1.360565	-0.433154	0.557535
C123	C	1.610565	-0.183154	0.807535
C124	C	1.860565	0.066846	1.057535
C125	C	1.063486	-0.718504	0.354562
C126	C	1.313486	-0.468504	0.604562
C127	C	1.563486	-0.218504	0.854562
C128	C	1.813486	0.031496	1.104562
C129	C	1.016378	-0.683161	0.401582
C130	C	1.266378	-0.433161	0.651582
C131	C	1.516378	-0.183161	0.901582
C132	C	1.766378	0.066839	1.151582
C133	C	1.016351	-0.612474	0.401569
C134	C	1.266351	-0.362474	0.651569
C135	C	1.516351	-0.112474	0.901569
C136	C	1.766351	0.137526	1.151569
C137	C	1.016486	-0.968234	0.401637
C138	C	1.266486	-0.718234	0.651637
C139	C	1.516486	-0.468234	0.901637
C140	C	1.766486	-0.218234	1.151637
C141	C	1.016515	-1.038926	0.401645
C142	C	1.266515	-0.788926	0.651645
C143	C	1.516515	-0.538926	0.901645
C144	C	1.766515	-0.288926	1.151645
C145	C	1.110701	-1.038915	0.307602
C146	C	1.360701	-0.788915	0.557602
C147	C	1.610701	-0.538915	0.807602
C148	C	1.860701	-0.288915	1.057602
C149	C	1.110674	-0.968228	0.307589
C150	C	1.360674	-0.718228	0.557589
C151	C	1.610674	-0.468228	0.807589
C152	C	1.860674	-0.218228	1.057589
C153	C	1.063569	-0.932891	0.354611
C154	C	1.313569	-0.682891	0.604611
C155	C	1.563569	-0.432891	0.854611
C156	C	1.813569	-0.182891	1.104611
C157	C	1.063536	-0.856242	0.354594
C158	C	1.313536	-0.606242	0.604594
C159	C	1.563536	-0.356242	0.854594
C160	C	1.813536	-0.106242	1.104594
C161	C	1.063514	-0.795151	0.354577
C162	C	1.313514	-0.545151	0.604577
C163	C	1.563514	-0.295151	0.854577
C164	C	1.813514	-0.045151	1.104577
C165	C	1.255432	-0.326052	0.354581
C166	C	1.505432	-0.076052	0.604581
C167	C	1.755432	0.173948	0.854581
C168	C	2.005432	0.423948	1.104581
C169	C	1.337231	-0.326057	0.354590
C170	C	1.587231	-0.076057	0.604590
C171	C	1.837231	0.173943	0.854590
C172	C	2.087231	0.423943	1.104590
C173	C	1.063514	-0.325986	0.546512
C174	C	1.313514	-0.075986	0.796512
C175	C	1.563514	0.174014	1.046512
C176	C	1.813514	0.424014	1.296512
C177	C	1.063528	-0.325963	0.628311
C178	C	1.313528	-0.075963	0.878311
C179	C	1.563528	0.174037	1.128311
C180	C	1.813528	0.424037	1.378311
C181	C	1.063582	-0.149497	0.354611
C182	C	1.313582	0.100503	0.604611
C183	C	1.563582	0.350503	0.854611
C184	C	1.813582	0.600503	1.104611
C185	C	1.063626	-0.074265	0.354633
C186	C	1.313626	0.175735	0.604633
C187	C	1.563626	0.425735	0.854633
C188	C	1.813626	0.675735	1.104633
C189	C	1.063486	-0.326045	0.163353
C190	C	1.313486	-0.076045	0.413353
C191	C	1.563486	0.173955	0.663353
C192	C	1.813486	0.423955	0.913353
C193	C	1.063614	-0.325877	0.081555
C194	C	1.313614	-0.075877	0.331555
C195	C	1.563614	0.174123	0.581555
C196	C	1.813614	0.424123	0.831555
C197	C	1.016524	-0.282640	0.816514
C198	C	1.266524	-0.032640	1.066514
C199	C	1.516524	0.217360	1.316514
C200	C	1.766524	0.467360	1.566514
C201	C	1.016537	-0.282627	0.893372
C202	C	1.266537	-0.032627	1.143372
C203	C	1.516537	0.217373	1.393372
C204	C	1.766537	0.467373	1.643372
C205	C	1.110620	-0.369205	0.893347
C206	C	1.360620	-0.119205	1.143347
C207	C	1.610620	0.130795	1.393347
C208	C	1.860620	0.380795	1.643347
C209	C	1.110603	-0.369221	0.816489
C210	C	1.360603	-0.119221	1.066489
C211	C	1.610603	0.130779	1.316489
C212	C	1.860603	0.380779	1.566489
C213	C	1.063556	-0.325935	0.778075
C214	C	1.313556	-0.075935	1.028075
C215	C	1.563556	0.174065	1.278075
C216	C	1.813556	0.424065	1.528075
C217	C	1.063586	-0.325905	0.931791
C218	C	1.313586	-0.075905	1.181791
C219	C	1.563586	0.174095	1.431791
C220	C	1.813586	0.424095	1.681791
C221	C	1.063600	-0.325891	1.015125
C222	C	1.313600	-0.075891	1.265125
C223	C	1.563600	0.174109	1.515125
C224	C	1.813600	0.424109	1.765125
C225	C	1.063541	-0.325950	0.694736
C226	C	1.313541	-0.075950	0.944736
C227	C	1.563541	0.174050	1.194736
C228	C	1.813541	0.424050	1.444736
H229	H	0.633574	-0.247405	0.269327
H230	H	0.883574	0.002595	0.519327
H231	H	1.133574	0.252595	0.769327
H232	H	1.383574	0.502595	1.019327
H233	H	0.494132	-0.247420	0.269344
H234	H	0.744132	0.002580	0.519344
H235	H	0.994132	0.252580	0.769344
H236	H	1.244132	0.502580	1.019344
H237	H	0.633566	-0.404676	0.439797
H238	H	0.883566	-0.154676	0.689797
H239	H	1.133566	0.095324	0.939797
H240	H	1.383566	0.345324	1.189797
H241	H	0.494139	-0.404678	0.439812
H242	H	0.744139	-0.154678	0.689812
H243	H	0.994139	0.095322	0.939812
H244	H	1.244139	0.345322	1.189812
F245	F	1.160639	-0.574851	0.257460
F246	F	1.410639	-0.324851	0.507460
F247	F	1.660639	-0.074851	0.757460
F248	F	1.910639	0.175149	1.007460
H249	H	0.978238	-0.247372	0.924666
H250	H	1.228238	0.002628	1.174666
H251	H	1.478238	0.252628	1.424666
H252	H	1.728238	0.502628	1.674666
H253	H	0.978215	-0.247394	0.785239
H254	H	1.228215	0.002606	1.035239
H255	H	1.478215	0.252606	1.285239
H256	H	1.728215	0.502606	1.535239
F257	F	0.966216	-0.574865	0.451611
F258	F	1.216216	-0.324865	0.701611
F259	F	1.466216	-0.074865	0.951611
F260	F	1.716216	0.175135	1.201611
F261	F	1.160690	-0.415269	0.934237
F262	F	1.410690	-0.165269	1.184237
F263	F	1.660690	0.084731	1.434237
F264	F	1.910690	0.334731	1.684237
F265	F	1.160662	-0.415307	0.775578
F266	F	1.410662	-0.165307	1.025578
F267	F	1.660662	0.084693	1.275578
F268	F	1.910662	0.334693	1.525578
H269	H	1.148924	-0.711923	0.269250
H270	H	1.398924	-0.461923	0.519250
H271	H	1.648924	-0.211923	0.769250
H272	H	1.898924	0.038077	1.019250
F273	F	1.160839	-1.076528	0.257560
F274	F	1.410839	-0.826528	0.507560
F275	F	1.660839	-0.576528	0.757560
F276	F	1.910839	-0.326528	1.007560
F277	F	1.160782	-0.930610	0.257535
F278	F	1.410782	-0.680610	0.507535
F279	F	1.660782	-0.430610	0.757535
F280	F	1.910782	-0.180610	1.007535
H281	H	0.978178	-1.067705	0.439946
H282	H	1.228178	-0.817705	0.689946
H283	H	1.478178	-0.567705	0.939946
H284	H	1.728178	-0.317705	1.189946
H285	H	0.978048	-0.711948	0.439876
H286	H	1.228048	-0.461948	0.689876
H287	H	1.478048	-0.211948	0.939876
H288	H	1.728048	0.038052	1.189876
F289	F	0.966352	-0.930635	0.451681
F290	F	1.216352	-0.680635	0.701681
F291	F	1.466352	-0.430635	0.951681
F292	F	1.716352	-0.180635	1.201681
