data_functionalizedCrystal
_audit_creation_method	'MofGen! by Chris Wilmer'
_symmetry_space_group_name_H-M	'P1'
_symmetry_Int_Tables_number	1
_symmetry_cell_setting	triclinic
loop_
_symmetry_equiv_pos_as_xyz
  x,y,z
_cell_length_a	16.109301
_cell_length_b	16.109301
_cell_length_c	8.140239
_cell_angle_alpha	90.004566
_cell_angle_beta	89.998749
_cell_angle_gamma	83.461481
loop_
_atom_site_label
_atom_site_type_symbol
_atom_site_fract_x
_atom_site_fract_y
_atom_site_fract_z
O1	O	1.103128	0.106866	0.136515
O2	O	1.353128	0.356866	0.386515
O3	O	1.603128	0.606866	0.636515
O4	O	1.853128	0.856866	0.886515
O5	O	0.861066	0.120165	0.136542
O6	O	1.111066	0.370165	0.386542
O7	O	1.361066	0.620165	0.636542
O8	O	1.611066	0.870165	0.886542
O9	O	0.988747	-0.007516	0.136511
O10	O	1.238747	0.242484	0.386511
O11	O	1.488747	0.492484	0.636511
O12	O	1.738747	0.742484	0.886511
O13	O	0.975448	0.234546	0.136546
O14	O	1.225448	0.484546	0.386546
O15	O	1.475448	0.734546	0.636546
O16	O	1.725448	0.984546	0.886546
O17	O	0.988743	-0.007517	-0.136716
O18	O	1.238743	0.242483	0.113284
O19	O	1.488743	0.492483	0.363284
O20	O	1.738743	0.742483	0.613284
O21	O	0.861062	0.120164	-0.136686
O22	O	1.111062	0.370164	0.113314
O23	O	1.361062	0.620164	0.363314
O24	O	1.611062	0.870164	0.613314
O25	O	1.103124	0.106865	-0.136712
O26	O	1.353124	0.356865	0.113288
O27	O	1.603124	0.606865	0.363288
O28	O	1.853124	0.856865	0.613288
Zn29	Zn	0.982093	0.113514	-0.180080
Zn30	Zn	1.232093	0.363514	0.069920
Zn31	Zn	1.482093	0.613514	0.319920
Zn32	Zn	1.732093	0.863514	0.569920
Zn33	Zn	0.982098	0.113515	0.179909
Zn34	Zn	1.232098	0.363515	0.429909
Zn35	Zn	1.482098	0.613515	0.679909
Zn36	Zn	1.732098	0.863515	0.929909
O37	O	0.975444	0.234545	-0.136681
O38	O	1.225444	0.484545	0.113319
O39	O	1.475444	0.734545	0.363319
O40	O	1.725444	0.984545	0.613319
C41	C	0.830090	0.119626	-0.000069
C42	C	1.080090	0.369626	0.249931
C43	C	1.330090	0.619626	0.499931
C44	C	1.580090	0.869626	0.749931
C45	C	0.737794	0.118011	-0.000059
C46	C	0.987794	0.368011	0.249941
C47	C	1.237794	0.618011	0.499941
C48	C	1.487794	0.868011	0.749941
C49	C	0.515522	0.190018	-0.000068
C50	C	0.765522	0.440018	0.249932
C51	C	1.015522	0.690018	0.499932
C52	C	1.265522	0.940018	0.749932
C53	C	0.428801	0.188494	-0.000078
C54	C	0.678801	0.438494	0.249922
C55	C	0.928801	0.688494	0.499922
C56	C	1.178801	0.938494	0.749922
C57	C	0.448676	0.037006	-0.000094
C58	C	0.698676	0.287006	0.249906
C59	C	0.948676	0.537006	0.499906
C60	C	1.198676	0.787006	0.749906
C61	C	0.535394	0.038530	-0.000094
C62	C	0.785394	0.288530	0.249906
C63	C	1.035394	0.538530	0.499906
C64	C	1.285394	0.788530	0.749906
C65	C	0.568815	0.115039	-0.000073
C66	C	0.818815	0.365039	0.249927
C67	C	1.068815	0.615039	0.499927
C68	C	1.318815	0.865039	0.749927
C69	C	0.395376	0.111990	-0.000083
C70	C	0.645376	0.361990	0.249917
C71	C	0.895376	0.611990	0.499917
C72	C	1.145376	0.861990	0.749917
C73	C	0.301350	0.110337	-0.000095
C74	C	0.551350	0.360337	0.249905
C75	C	0.801350	0.610337	0.499905
C76	C	1.051350	0.860337	0.749905
C77	C	0.662847	0.116693	-0.000065
C78	C	0.912847	0.366693	0.249935
C79	C	1.162847	0.616693	0.499935
C80	C	1.412847	0.866693	0.749935
C81	C	0.988206	-0.038491	-0.000104
C82	C	1.238206	0.211509	0.249896
C83	C	1.488206	0.461509	0.499896
C84	C	1.738206	0.711509	0.749896
C85	C	0.986591	-0.130786	-0.000106
C86	C	1.236591	0.119214	0.249894
C87	C	1.486591	0.369214	0.499894
C88	C	1.736591	0.619214	0.749894
C89	C	1.058599	-0.353059	-0.000088
C90	C	1.308599	-0.103059	0.249912
C91	C	1.558599	0.146941	0.499912
C92	C	1.808599	0.396941	0.749912
C93	C	1.057075	-0.439779	-0.000074
C94	C	1.307075	-0.189779	0.249926
C95	C	1.557075	0.060221	0.499926
C96	C	1.807075	0.310221	0.749926
C97	C	0.905586	-0.419905	-0.000064
C98	C	1.155586	-0.169905	0.249936
C99	C	1.405586	0.080095	0.499936
C100	C	1.655586	0.330095	0.749936
C101	C	0.907111	-0.333186	-0.000066
C102	C	1.157111	-0.083186	0.249934
C103	C	1.407111	0.166814	0.499934
C104	C	1.657111	0.416814	0.749934
C105	C	0.983620	-0.299766	-0.000086
C106	C	1.233620	-0.049766	0.249914
C107	C	1.483620	0.200234	0.499914
C108	C	1.733620	0.450234	0.749914
C109	C	0.980571	-0.473205	-0.000070
C110	C	1.230571	-0.223205	0.249930
C111	C	1.480571	0.026795	0.499930
C112	C	1.730571	0.276795	0.749930
C113	C	0.978918	-0.567231	-0.000056
C114	C	1.228918	-0.317231	0.249944
C115	C	1.478918	-0.067231	0.499944
C116	C	1.728918	0.182769	0.749944
C117	C	0.985273	-0.205734	-0.000098
C118	C	1.235273	0.044266	0.249902
C119	C	1.485273	0.294266	0.499902
C120	C	1.735273	0.544266	0.749902
C121	C	1.134101	0.107404	-0.000098
C122	C	1.384101	0.357404	0.249902
C123	C	1.634101	0.607404	0.499902
C124	C	1.884101	0.857404	0.749902
C125	C	1.226397	0.109019	-0.000097
C126	C	1.476397	0.359019	0.249903
C127	C	1.726397	0.609019	0.499903
C128	C	1.976397	0.859019	0.749903
C129	C	0.975984	0.265521	-0.000064
C130	C	1.225984	0.515521	0.249936
C131	C	1.475984	0.765521	0.499936
C132	C	1.725984	1.015521	0.749936
C133	C	0.977600	0.357816	-0.000051
C134	C	1.227600	0.607816	0.249949
C135	C	1.477600	0.857816	0.499949
C136	C	1.727600	1.107816	0.749949
N137	N	0.982095	0.113513	-0.425762
N138	N	1.232095	0.363513	-0.175762
N139	N	1.482095	0.613513	0.074238
N140	N	1.732095	0.863513	0.324238
N141	N	0.982102	0.113510	0.425591
N142	N	1.232102	0.363510	0.675591
N143	N	1.482102	0.613510	0.925591
N144	N	1.732102	0.863510	1.175591
H145	H	0.542730	0.252317	-0.000063
H146	H	0.792730	0.502317	0.249937
H147	H	1.042730	0.752317	0.499937
H148	H	1.292730	1.002317	0.749937
F149	F	0.372086	0.268298	-0.000075
F150	F	0.622086	0.518298	0.249925
F151	F	0.872086	0.768298	0.499925
F152	F	1.122086	1.018298	0.749925
H153	H	0.421454	-0.025285	-0.000121
H154	H	0.671454	0.224715	0.249879
H155	H	0.921454	0.474715	0.499879
H156	H	1.171454	0.724715	0.749879
F157	F	0.827304	-0.276464	-0.000052
F158	F	1.077304	-0.026464	0.249948
F159	F	1.327304	0.223536	0.499948
F160	F	1.577304	0.473536	0.749948
H161	H	0.578788	-0.022530	-0.000104
H162	H	0.828788	0.227470	0.249896
H163	H	1.078788	0.477470	0.499896
H164	H	1.328788	0.727470	0.749896
H165	H	1.120897	-0.325851	-0.000101
H166	H	1.370897	-0.075851	0.249899
H167	H	1.620897	0.174149	0.499899
H168	H	1.870897	0.424149	0.749899
H169	H	0.843295	-0.447127	-0.000050
H170	H	1.093295	-0.197127	0.249950
H171	H	1.343295	0.052873	0.499950
H172	H	1.593295	0.302873	0.749950
H173	H	1.118130	-0.483168	-0.000072
H174	H	1.368130	-0.233168	0.249928
H175	H	1.618130	0.016832	0.499928
H176	H	1.868130	0.266832	0.749928
