data_functionalizedCrystal
_audit_creation_method	'MofGen! by Chris Wilmer'
_symmetry_space_group_name_H-M	'P1'
_symmetry_Int_Tables_number	1
_symmetry_cell_setting	triclinic
loop_
_symmetry_equiv_pos_as_xyz
  x,y,z
_cell_length_a	11.026607
_cell_length_b	9.130307
_cell_length_c	11.026607
_cell_angle_alpha	89.998272
_cell_angle_beta	71.413983
_cell_angle_gamma	90.001089
loop_
_atom_site_label
_atom_site_type_symbol
_atom_site_fract_x
_atom_site_fract_y
_atom_site_fract_z
O1	O	1.726728	0.121796	-0.533620
O2	O	2.226728	0.621796	-0.033620
O3	O	1.360148	0.121798	-0.472857
O4	O	1.860148	0.621798	0.027143
O5	O	1.513056	0.121792	-0.319949
O6	O	2.013056	0.621792	0.180051
O7	O	1.573819	0.121802	-0.686529
O8	O	2.073819	0.621802	-0.186529
O9	O	1.513049	-0.121807	-0.319945
O10	O	2.013049	0.378193	0.180055
O11	O	1.360141	-0.121801	-0.472854
O12	O	1.860141	0.378199	0.027146
O13	O	1.726721	-0.121803	-0.533617
O14	O	2.226721	0.378197	-0.033617
Cu15	Cu	1.543430	-0.144045	-0.503235
Cu16	Cu	2.043430	0.355955	-0.003235
Cu17	Cu	1.543438	0.144040	-0.503239
Cu18	Cu	2.043438	0.644040	-0.003239
O19	O	1.573813	-0.121797	-0.686525
O20	O	2.073813	0.378203	-0.186525
C21	C	1.312485	-0.000001	-0.461645
C22	C	1.812485	0.499999	0.038355
C23	C	1.170471	-0.000000	-0.428228
C24	C	1.670471	0.500000	0.071772
N25	N	1.543434	-0.346667	-0.503234
N26	N	2.043434	0.153333	-0.003234
C27	C	1.116821	0.000003	-0.520498
C28	C	1.616821	0.500003	-0.020498
C29	C	0.970043	0.000004	-0.485962
C30	C	1.470043	0.500004	0.014038
C31	C	1.678915	-0.346663	-0.367899
C32	C	2.178915	0.153337	0.132101
C33	C	1.746665	-0.423327	-0.300237
C34	C	2.246665	0.076673	0.199763
C35	C	1.746678	-0.576661	-0.300238
C36	C	2.246678	-0.076661	0.199762
C37	C	1.678930	-0.653333	-0.367906
C38	C	2.178930	-0.153333	0.132094
C39	C	1.611180	-0.576669	-0.435569
C40	C	2.111180	-0.076669	0.064431
C41	C	1.611178	-0.423332	-0.435562
C42	C	2.111178	0.076668	0.064438
C43	C	1.475693	-0.576673	-0.570894
C44	C	1.975693	-0.076673	-0.070894
C45	C	1.475686	-0.423340	-0.570902
C46	C	1.975686	0.076660	-0.070902
C47	C	1.407945	-0.653346	-0.638563
C48	C	1.907945	-0.153346	-0.138563
C49	C	1.340201	-0.576681	-0.706234
C50	C	1.840201	-0.076681	-0.206234
C51	C	1.340192	-0.423338	-0.706230
C52	C	1.840192	0.076662	-0.206230
C53	C	1.407936	-0.346675	-0.638564
C54	C	1.907936	0.153325	-0.138564
C55	C	1.774384	-0.000001	-0.544828
C56	C	2.274384	0.499999	-0.044828
C57	C	1.916398	0.000008	-0.578245
C58	C	2.416398	0.500008	-0.078245
C59	C	1.501843	-0.000006	-0.272287
C60	C	2.001843	0.499994	0.227713
C61	C	1.468426	-0.000000	-0.130273
C62	C	1.968426	0.500000	0.369727
N63	N	1.543443	0.346662	-0.503232
N64	N	2.043443	0.846662	-0.003232
C65	C	1.585026	0.000004	-0.734187
C66	C	2.085026	0.500004	-0.234187
C67	C	1.618443	0.000008	-0.876200
C68	C	2.118443	0.500008	-0.376200
C69	C	1.560695	0.000001	-0.076624
C70	C	2.060695	0.500001	0.423376
C71	C	1.526160	0.000007	0.070155
C72	C	2.026160	0.500007	0.570155
H73	H	1.179555	-0.000002	-0.625061
H74	H	1.679555	0.499998	-0.125061
F75	F	1.755125	0.000014	0.041816
F76	F	2.255125	0.500014	0.541816
H77	H	1.678931	-0.778185	-0.367891
H78	H	2.178931	-0.278185	0.132109
H79	H	0.907314	0.000039	-0.381393
H80	H	1.407314	0.500039	0.118607
F81	F	0.998382	-0.000006	-0.714928
F82	F	1.498382	0.499994	-0.214928
F83	F	1.088480	-0.000014	-0.291554
F84	F	1.588480	0.499986	0.208446
H85	H	1.678925	-0.221811	-0.367903
H86	H	2.178925	0.278189	0.132097
H87	H	1.801822	-0.360887	-0.245139
H88	H	2.301822	0.139113	0.254861
F89	F	1.697370	0.000009	-0.158615
F90	F	2.197370	0.500009	0.341385
F91	F	1.268074	-0.341758	-0.778239
F92	F	1.768074	0.158242	-0.278239
F93	F	1.818777	-0.658254	-0.228218
F94	F	2.318777	-0.158254	0.271782
H95	H	1.421590	0.000017	0.132884
H96	H	1.921590	0.500017	0.632884
F97	F	1.407951	-0.816537	-0.638557
F98	F	1.907951	-0.316537	-0.138557
F99	F	1.268098	-0.658287	-0.778235
F100	F	1.768098	-0.158287	-0.278235
F101	F	1.407939	-0.183484	-0.638560
F102	F	1.907939	0.316516	-0.138560
F103	F	1.331751	0.000014	-0.048283
F104	F	1.831751	0.500014	0.451717
