data_functionalizedCrystal
_audit_creation_method	'MofGen! by Chris Wilmer'
_symmetry_space_group_name_H-M	'P1'
_symmetry_Int_Tables_number	1
_symmetry_cell_setting	triclinic
loop_
_symmetry_equiv_pos_as_xyz
  x,y,z
_cell_length_a	9.065218
_cell_length_b	10.654550
_cell_length_c	9.730223
_cell_angle_alpha	90.004253
_cell_angle_beta	89.996641
_cell_angle_gamma	95.249592
loop_
_atom_site_label
_atom_site_type_symbol
_atom_site_fract_x
_atom_site_fract_y
_atom_site_fract_z
O1	O	1.959392	-0.184159	-0.114293
O2	O	1.530025	-0.199265	-0.114295
O3	O	1.754581	-0.009012	-0.114285
O4	O	1.734837	-0.374412	-0.114303
O5	O	1.754566	-0.009006	0.114294
O6	O	1.530010	-0.199259	0.114285
O7	O	1.959378	-0.184154	0.114287
Zn8	Zn	1.744692	-0.191706	0.150578
Zn9	Zn	1.744711	-0.191713	-0.150586
O10	O	1.734822	-0.374407	0.114277
C11	C	1.475039	-0.197810	-0.000005
C12	C	1.311220	-0.193469	-0.000006
C13	C	1.753124	0.037795	0.000004
C14	C	1.748786	0.177255	0.000002
C15	C	2.014364	-0.185608	-0.000006
C16	C	2.178183	-0.189949	-0.000015
C17	C	1.736279	-0.421213	-0.000015
C18	C	1.740616	-0.560673	-0.000022
N19	N	1.744689	-0.191700	0.356114
C20	C	1.881001	0.256217	0.000002
C21	C	1.876917	0.387254	-0.000015
C22	C	1.608391	0.360354	-0.000026
C23	C	1.612477	0.229320	-0.000019
N24	N	1.744725	-0.191708	-0.356123
C25	C	1.844157	-0.107492	0.428044
C26	C	1.844172	-0.107493	0.571927
C27	C	1.645247	-0.275920	0.571937
C28	C	1.645226	-0.275912	0.428057
H29	H	1.984580	0.451541	-0.000018
H30	H	1.925144	-0.038920	0.369472
C31	C	1.537101	-0.367404	0.649802
C32	C	1.449956	-0.441122	0.556007
C33	C	1.350302	-0.525401	0.627681
H34	H	1.590536	-0.420443	0.705918
H35	H	1.475156	-0.321521	0.705917
H36	H	1.511893	-0.487002	0.499915
H37	H	1.396490	-0.388118	0.499888
H38	H	1.288357	-0.479518	0.683796
H39	H	1.403748	-0.578431	0.683795
H40	H	1.291153	-0.575421	0.564053
H41	H	1.497413	0.402762	-0.000041
H42	H	1.564221	-0.344485	0.369487
H43	H	1.504805	0.165025	-0.000023
C44	C	1.952096	-0.015867	0.649847
C45	C	1.926945	0.107840	0.614838
C46	C	2.026353	0.192284	0.686575
H47	H	1.937970	-0.027751	0.745862
H48	H	2.050727	-0.030607	0.626219
H49	H	1.828339	0.122575	0.638475
H50	H	1.941083	0.119764	0.518835
H51	H	2.124983	0.177544	0.662947
H52	H	2.012218	0.180389	0.782587
H53	H	2.009310	0.276228	0.662822
H54	H	1.991993	0.213831	0.000016
