data_functionalizedCrystal
_audit_creation_method	'MofGen! by Chris Wilmer'
_symmetry_space_group_name_H-M	'P1'
_symmetry_Int_Tables_number	1
_symmetry_cell_setting	triclinic
loop_
_symmetry_equiv_pos_as_xyz
  x,y,z
_cell_length_a	10.723024
_cell_length_b	15.944493
_cell_length_c	9.798715
_cell_angle_alpha	90.002726
_cell_angle_beta	89.996609
_cell_angle_gamma	83.971457
loop_
_atom_site_label
_atom_site_type_symbol
_atom_site_fract_x
_atom_site_fract_y
_atom_site_fract_z
O1	O	1.655662	0.117811	-0.113463
O2	O	2.155662	0.617811	0.386537
O3	O	1.292364	0.129088	-0.113465
O4	O	1.792364	0.629088	0.386535
O5	O	1.483972	0.001228	-0.113475
O6	O	1.983972	0.501228	0.386525
O7	O	1.464055	0.245671	-0.113453
O8	O	1.964055	0.745671	0.386547
O9	O	1.483958	0.001228	0.113507
O10	O	1.983958	0.501228	0.613507
O11	O	1.292350	0.129088	0.113517
O12	O	1.792350	0.629088	0.613517
O13	O	1.655648	0.117811	0.113520
O14	O	2.155648	0.617811	0.613520
Zn15	Zn	1.473997	0.123449	0.149557
Zn16	Zn	1.973997	0.623449	0.649557
Zn17	Zn	1.474016	0.123450	-0.149502
Zn18	Zn	1.974016	0.623450	0.350498
O19	O	1.464041	0.245670	0.113529
O20	O	1.964041	0.745670	0.613529
C21	C	1.245868	0.128267	0.000025
C22	C	1.745868	0.628267	0.500025
C23	C	1.107346	0.125812	0.000023
C24	C	1.607346	0.625812	0.500023
C25	C	1.483151	-0.030071	0.000010
C26	C	1.983151	0.469929	0.500010
C27	C	1.480710	-0.123334	-0.000007
C28	C	1.980710	0.376666	0.499993
C29	C	0.916575	0.049543	0.000013
C30	C	1.416575	0.549543	0.500013
C31	C	1.059746	0.052079	0.000016
C32	C	1.559746	0.552079	0.500016
C33	C	1.593495	-0.358448	0.000019
C34	C	2.093495	0.141552	0.500019
C35	C	1.532681	-0.409364	-0.111894
C36	C	2.032681	0.090636	0.388106
C37	C	1.476188	-0.294081	0.000009
C38	C	1.976188	0.205919	0.500009
C39	C	1.532640	-0.409341	0.111892
C40	C	2.032640	0.090659	0.611892
C41	C	1.471829	-0.459015	0.000031
C42	C	1.971829	0.040985	0.500031
C43	C	1.415406	-0.343768	-0.111997
C44	C	1.915406	0.156232	0.388003
C45	C	1.415382	-0.343741	0.111890
C46	C	1.915382	0.156259	0.611890
C47	C	1.354482	-0.394625	-0.000051
C48	C	1.854482	0.105375	0.499949
C49	C	1.478703	-0.199066	-0.000005
C50	C	1.978703	0.300934	0.499995
C51	C	1.469305	-0.554027	0.000036
C52	C	1.969305	-0.054027	0.500036
C53	C	1.702144	0.118632	0.000026
C54	C	2.202144	0.618632	0.500026
C55	C	1.840667	0.121087	0.000019
C56	C	2.340667	0.621087	0.500019
C57	C	1.464862	0.276970	0.000041
C58	C	1.964862	0.776970	0.500041
C59	C	1.467302	0.370233	0.000050
C60	C	1.967302	0.870233	0.500050
N61	N	1.473993	0.123448	0.353656
N62	N	1.973993	0.623448	0.853656
N63	N	1.474029	0.123444	-0.353602
N64	N	1.974029	0.623444	0.146398
C65	C	1.554447	0.069527	0.421429
C66	C	2.054447	0.569527	0.921429
C67	C	1.554467	0.069524	0.578592
C68	C	2.054467	0.569524	1.078592
H69	H	0.875570	-0.013585	0.000028
H70	H	1.375570	0.486415	0.500028
H71	H	1.623352	0.023363	0.636873
H72	H	2.123352	0.523363	1.136873
H73	H	1.405150	0.169614	0.588125
H74	H	1.905150	0.669614	1.088125
N75	N	1.727337	-0.336979	-0.000111
N76	N	2.227337	0.163021	0.499889
H77	H	1.771508	-0.360976	-0.084729
H78	H	2.271508	0.139024	0.415271
H79	H	1.727970	-0.273685	0.000806
H80	H	2.227970	0.226315	0.500806
N81	N	0.894970	0.204712	0.000010
N82	N	1.394970	0.704712	0.500010
H83	H	0.824643	0.252108	0.000010
H84	H	1.324643	0.752108	0.500010
H85	H	0.948335	0.208955	0.084154
H86	H	1.448335	0.708955	0.584154
H87	H	1.582228	-0.438026	-0.206510
H88	H	2.082228	0.061974	0.293490
H89	H	1.365900	-0.315232	-0.206712
H90	H	1.865900	0.184768	0.293288
H91	H	1.253359	-0.410670	-0.000113
H92	H	1.753359	0.089330	0.499887
N93	N	1.146131	-0.029055	-0.000000
N94	N	1.646131	0.470945	0.500000
H95	H	1.236162	-0.015743	0.000001
H96	H	1.736162	0.484257	0.500001
H97	H	1.129945	-0.062855	0.084142
H98	H	1.629945	0.437145	0.584142
N99	N	1.020964	0.206948	0.000087
N100	N	1.520964	0.706948	0.500087
H101	H	1.072407	0.256501	0.000109
H102	H	1.572407	0.756501	0.500109
H103	H	0.966300	0.209296	-0.084044
H104	H	1.466300	0.709296	0.415956
H105	H	1.365878	-0.315064	0.206509
H106	H	1.865878	0.184936	0.706509
N107	N	1.598273	-0.447287	0.237216
N108	N	2.098273	0.052713	0.737216
H109	H	1.688501	-0.434398	0.237110
H110	H	2.188501	0.065602	0.737110
H111	H	1.554797	-0.422469	0.321676
H112	H	2.054797	0.077531	0.821676
N113	N	1.382763	0.184592	0.430909
N114	N	1.882763	0.684592	0.930909
H115	H	1.430658	0.221942	0.490191
H116	H	1.930658	0.721942	0.990191
H117	H	1.329089	0.220519	0.364003
H118	H	1.829089	0.720519	0.864003
N119	N	1.645641	0.008355	0.344183
N120	N	2.145641	0.508355	0.844183
H121	H	1.632687	0.017019	0.242860
H122	H	2.132687	0.517019	0.742860
H123	H	1.734260	0.018401	0.369051
H124	H	2.234260	0.518401	0.869051
