data_functionalizedCrystal
_audit_creation_method	'MofGen! by Chris Wilmer'
_symmetry_space_group_name_H-M	'P1'
_symmetry_Int_Tables_number	1
_symmetry_cell_setting	triclinic
loop_
_symmetry_equiv_pos_as_xyz
  x,y,z
_cell_length_a	15.995300
_cell_length_b	15.995343
_cell_length_c	18.366186
_cell_angle_alpha	90.009848
_cell_angle_beta	90.010671
_cell_angle_gamma	83.480495
loop_
_atom_site_label
_atom_site_type_symbol
_atom_site_fract_x
_atom_site_fract_y
_atom_site_fract_z
O1	O	1.111014	0.107726	0.060584
O2	O	0.867233	0.121098	0.060581
O3	O	0.995791	-0.007477	0.060569
O4	O	0.982456	0.236301	0.060596
O5	O	0.995769	-0.007481	-0.060530
O6	O	0.867211	0.121094	-0.060519
O7	O	1.110992	0.107722	-0.060515
Zn8	Zn	0.989098	0.114408	-0.079744
Zn9	Zn	0.989127	0.114412	0.079809
O10	O	0.982434	0.236298	-0.060504
C11	C	0.836026	0.120551	0.000030
C12	C	0.743074	0.118916	0.000028
C13	C	0.572891	0.115896	0.000034
C14	C	0.525422	0.207444	0.000042
C15	C	0.428735	0.205774	0.000319
C16	C	0.405334	0.112924	0.000038
C17	C	0.446481	0.067506	0.069050
C18	C	0.543114	0.069823	0.069107
C19	C	0.543368	0.068463	-0.068611
C20	C	0.446424	0.068471	-0.069516
C21	C	0.310639	0.111240	0.000043
C22	C	0.667586	0.117578	0.000034
C23	C	0.995230	-0.038674	0.000017
C24	C	0.993580	-0.131624	0.000012
C25	C	0.990587	-0.301810	0.000028
C26	C	0.897788	-0.325139	0.000028
C27	C	0.896042	-0.421817	0.000311
C28	C	0.987638	-0.469370	0.000044
C29	C	1.034312	-0.440277	0.069059
C30	C	1.035413	-0.343485	0.069109
C31	C	1.036746	-0.343593	-0.068609
C32	C	1.033320	-0.440088	-0.069508
C33	C	0.985977	-0.564068	0.000055
C34	C	0.992251	-0.207113	0.000022
C35	C	1.142199	0.108270	0.000037
C36	C	1.235151	0.109905	0.000043
C37	C	0.982995	0.267494	0.000050
C38	C	0.984645	0.360445	0.000060
N39	N	0.989084	0.114404	-0.188635
C40	C	1.039857	0.165212	-0.226723
C41	C	1.039871	0.165210	-0.302951
C42	C	0.989096	0.114409	-0.341088
C43	C	0.938319	0.063591	-0.302991
C44	C	0.938314	0.063588	-0.226765
C45	C	0.913611	0.112069	-0.461871
C46	C	0.913615	0.112077	-0.538096
C47	C	0.989115	0.114412	-0.576196
C48	C	1.064611	0.116756	-0.538061
C49	C	1.064606	0.116753	-0.461835
C50	C	0.989097	0.114406	-0.423743
C51	C	1.039907	0.165220	-0.696938
C52	C	1.039922	0.165212	-0.773167
C53	C	0.938363	0.063598	-0.773206
C54	C	0.938356	0.063601	-0.696979
C55	C	0.989126	0.114417	-0.658849
N56	N	0.989148	0.114410	0.188701
H57	H	0.561442	0.102558	0.120897
C58	C	0.997195	-0.305397	-0.139306
C59	C	0.922470	-0.235766	-0.135612
C60	C	0.882916	-0.197559	-0.206304
C61	C	0.918087	-0.228983	-0.280689
C62	C	0.992816	-0.298618	-0.284385
C63	C	1.032370	-0.336825	-0.213694
H64	H	0.896431	-0.212501	-0.080545
H65	H	0.827597	-0.146011	-0.203567
H66	H	0.888807	-0.200700	-0.333019
H67	H	1.018855	-0.321883	-0.339452
H68	H	1.087689	-0.388373	-0.216430
H69	H	0.575390	0.002598	0.072048
C70	C	0.830553	0.109508	-0.419965
C71	C	0.830542	0.109508	-0.336119
C72	C	0.747488	0.106948	-0.294214
C73	C	0.664445	0.104388	-0.336155
C74	C	0.664452	0.104388	-0.420006
C75	C	0.747507	0.106948	-0.461911
H76	H	0.892019	0.111403	-0.305067
H77	H	0.747483	0.106949	-0.232142
H78	H	0.602963	0.102494	-0.305135
H79	H	0.602976	0.102493	-0.451058
H80	H	0.747512	0.106947	-0.523983
H81	H	0.859700	-0.440241	0.050077
H82	H	0.563858	0.098602	-0.120936
H83	H	1.081248	0.206597	-0.665891
H84	H	0.543904	0.244233	-0.049439
H85	H	0.419074	0.101638	-0.120572
C86	C	0.992275	-0.307273	0.139062
C87	C	0.957068	-0.366460	0.194492
C88	C	0.913926	-0.330253	0.264446
C89	C	0.905992	-0.234860	0.278971
C90	C	0.941200	-0.175667	0.223540
C91	C	0.984341	-0.211874	0.153586
H92	H	0.962940	-0.437081	0.183741
H93	H	0.887863	-0.374072	0.305479
H94	H	0.874055	-0.208057	0.330755
H95	H	0.935327	-0.105046	0.234290
H96	H	1.010405	-0.168055	0.112552
H97	H	0.431087	0.000777	-0.073895
H98	H	1.126090	0.118661	-0.569080
H99	H	0.575151	0.000966	-0.069282
C100	C	0.882519	0.007705	-0.815148
C101	C	0.882530	0.007696	-0.898994
C102	C	0.826692	-0.048206	-0.940939
C103	C	0.770843	-0.104099	-0.899038
C104	C	0.770830	-0.104093	-0.815188
C105	C	0.826668	-0.048190	-0.773242
H106	H	0.923875	0.049074	-0.930015
H107	H	0.826702	-0.048211	-1.003011
H108	H	0.729508	-0.145481	-0.930089
H109	H	0.729485	-0.145470	-0.784166
H110	H	0.826658	-0.048186	-0.711170
H111	H	0.400261	0.241462	-0.049141
C112	C	0.987399	-0.465164	-0.138482
C113	C	0.894502	-0.431251	-0.150933
C114	C	0.848574	-0.456334	-0.219902
C115	C	0.895543	-0.515329	-0.276421
C116	C	0.988446	-0.549245	-0.263972
C117	C	1.034374	-0.524163	-0.195003
H118	H	0.859728	-0.387577	-0.109093
H119	H	0.779801	-0.431227	-0.229117
H120	H	0.861545	-0.533897	-0.327476
H121	H	1.023221	-0.592920	-0.305812
H122	H	1.103147	-0.549270	-0.185787
C123	C	0.830569	0.109498	-0.580035
C124	C	0.778757	0.034920	-0.569578
C125	C	0.695708	0.032339	-0.611514
C126	C	0.664471	0.104337	-0.663907
C127	C	0.716285	0.178921	-0.674367
C128	C	0.799334	0.181501	-0.632431
H129	H	0.801879	-0.018382	-0.530791
H130	H	0.657353	-0.022873	-0.603770
H131	H	0.602994	0.102427	-0.694951
H132	H	0.693162	0.232223	-0.713154
H133	H	0.837689	0.236714	-0.640175
C134	C	1.123620	-0.484601	-0.075415
C135	C	1.157612	-0.548602	-0.016925
C136	C	1.247917	-0.593113	-0.022825
C137	C	1.304230	-0.573623	-0.087216
C138	C	1.270239	-0.509618	-0.145711
C139	C	1.179934	-0.465107	-0.139811
H140	H	1.115925	-0.563032	0.030745
H141	H	1.273079	-0.640493	0.020477
H142	H	1.371080	-0.606573	-0.091584
H143	H	1.311927	-0.495188	-0.193381
H144	H	1.154772	-0.417727	-0.183113
C145	C	0.846678	-0.447511	-0.066506
C146	C	0.890145	-0.508744	-0.123179
C147	C	0.840773	-0.534430	-0.189997
C148	C	0.747934	-0.498883	-0.200142
C149	C	0.704462	-0.437647	-0.143468
C150	C	0.753834	-0.411961	-0.076650
H151	H	0.958874	-0.535062	-0.115671
H152	H	0.872955	-0.579762	-0.231951
H153	H	0.711386	-0.517897	-0.249605
H154	H	0.635733	-0.411329	-0.150976
H155	H	0.721652	-0.366629	-0.034695
C156	C	0.551902	0.256408	0.066816
C157	C	0.616383	0.213630	0.121259
C158	C	0.642859	0.262588	0.188038
C159	C	0.604853	0.354324	0.200374
C160	C	0.540368	0.397107	0.145929
C161	C	0.513893	0.348149	0.079150
H162	H	0.644521	0.145716	0.112129
H163	H	0.690595	0.230916	0.228341
H164	H	0.624451	0.390566	0.249807
H165	H	0.512230	0.465021	0.155059
H166	H	0.466156	0.379821	0.038847
H167	H	0.400895	0.241311	0.050085
H168	H	0.432384	-0.000718	0.071416
H169	H	0.418104	0.098647	0.120610
H170	H	1.081274	0.206583	-0.804177
C171	C	1.127344	-0.323805	0.073083
C172	C	1.199523	-0.396134	0.076206
C173	C	1.291452	-0.376458	0.080184
C174	C	1.311202	-0.284453	0.081039
C175	C	1.239021	-0.212117	0.077917
C176	C	1.147092	-0.231793	0.073939
H177	H	1.184904	-0.464248	0.075573
H178	H	1.344885	-0.430006	0.082495
H179	H	1.379253	-0.269887	0.083984
H180	H	1.253640	-0.144004	0.078550
H181	H	1.093659	-0.178245	0.071627
C182	C	1.125382	-0.483315	0.072279
C183	C	1.154723	-0.539240	0.137754
C184	C	1.245792	-0.582280	0.140975
C185	C	1.307520	-0.569394	0.078720
C186	C	1.278179	-0.513466	0.013239
C187	C	1.187110	-0.470427	0.010019
H188	H	1.109028	-0.548782	0.183844
H189	H	1.267512	-0.623681	0.189448
H190	H	1.374934	-0.601254	0.081103
H191	H	1.323874	-0.503925	-0.032850
H192	H	1.165391	-0.429025	-0.038454
C193	C	0.849179	-0.287302	-0.066823
C194	C	0.769374	-0.224955	-0.056424
C195	C	0.720767	-0.187109	-0.123278
C196	C	0.751964	-0.211611	-0.200531
C197	C	0.831772	-0.273961	-0.210934
C198	C	0.880380	-0.311806	-0.144080
H199	H	0.746277	-0.206814	0.000767
H200	H	0.661687	-0.140954	-0.115577
H201	H	0.715981	-0.183595	-0.250021
H202	H	0.854870	-0.292101	-0.268124
H203	H	0.939459	-0.357962	-0.151780
C204	C	0.991075	-0.467391	0.138714
C205	C	0.913481	-0.515892	0.133114
C206	C	0.870239	-0.543003	0.202767
C207	C	0.904589	-0.521613	0.278019
C208	C	0.982187	-0.473110	0.283622
C209	C	1.025430	-0.445999	0.213969
H210	H	0.888049	-0.531728	0.077405
H211	H	0.812796	-0.578908	0.198619
H212	H	0.872578	-0.541683	0.329580
H213	H	1.007619	-0.457274	0.339331
H214	H	1.082873	-0.410094	0.218117
H215	H	1.081217	0.206586	-0.333968
H216	H	1.105049	-0.329585	-0.069278
C217	C	1.095707	0.221104	-0.184781
C218	C	1.151559	0.276992	-0.226684
C219	C	1.207409	0.332885	-0.184740
C220	C	1.207406	0.332889	-0.100894
C221	C	1.151551	0.276999	-0.058987
C222	C	1.095702	0.221106	-0.100931
H223	H	1.151564	0.276991	-0.288756
H224	H	1.248756	0.374258	-0.215763
H225	H	1.248749	0.374264	-0.069845
H226	H	1.151547	0.277000	0.003085
H227	H	1.054355	0.179733	-0.069908
C228	C	1.147647	0.119325	-0.419886
C229	C	1.230699	0.121895	-0.461784
C230	C	1.313741	0.124464	-0.419835
C231	C	1.313731	0.124463	-0.335989
C232	C	1.230675	0.121892	-0.294087
C233	C	1.147633	0.119323	-0.336036
H234	H	1.230710	0.121896	-0.523856
H235	H	1.375224	0.126367	-0.450854
H236	H	1.375203	0.126365	-0.304936
H237	H	1.230664	0.121891	-0.232015
H238	H	1.086150	0.117420	-0.305016
H239	H	0.862413	-0.296142	0.049446
H240	H	0.897007	0.022231	-0.665967
H241	H	0.896979	0.022228	-0.334047
H242	H	0.896966	0.022213	-0.195754
