data_functionalizedCrystal
_audit_creation_method	'MofGen! by Chris Wilmer'
_symmetry_space_group_name_H-M	'P1'
_symmetry_Int_Tables_number	1
_symmetry_cell_setting	triclinic
loop_
_symmetry_equiv_pos_as_xyz
  x,y,z
_cell_length_a	13.033409
_cell_length_b	15.299816
_cell_length_c	13.032268
_cell_angle_alpha	72.095154
_cell_angle_beta	74.837427
_cell_angle_gamma	72.104737
loop_
_atom_site_label
_atom_site_type_symbol
_atom_site_fract_x
_atom_site_fract_y
_atom_site_fract_z
Zn1	Zn	1.653143	-0.594814	0.499830
Zn2	Zn	1.700343	-0.734072	0.347029
Zn3	Zn	1.491823	-0.559515	0.338552
Zn4	Zn	1.500254	-0.734037	0.547173
O5	O	1.586391	-0.655609	0.433146
O6	O	1.810655	-0.628074	0.463294
O7	O	1.688907	-0.696159	0.194648
O8	O	1.489941	-0.432878	0.336585
O9	O	1.845333	-0.730387	0.351032
O10	O	1.608462	-0.458813	0.455075
O11	O	1.535708	-0.567912	0.188420
O12	O	1.341690	-0.567878	0.382493
O13	O	1.504311	-0.730327	0.692150
O14	O	1.347885	-0.696099	0.535766
O15	O	1.616637	-0.628040	0.657367
O16	O	1.697083	-0.865386	0.396939
O17	O	1.550078	-0.865361	0.543985
C18	C	1.305570	-0.628155	0.463347
C19	C	1.185435	-0.616435	0.476297
C20	C	1.629644	-0.899428	0.476539
C21	C	1.648243	-1.003748	0.495129
C22	C	1.024859	-0.649621	0.439794
C23	C	1.149026	-0.661737	0.426404
C24	C	1.454131	-1.244108	0.300576
C25	C	1.436651	-1.146094	0.283114
C26	C	1.489547	-1.110502	0.336116
C27	C	1.559927	-1.172935	0.406584
C28	C	1.577403	-1.270958	0.424054
C29	C	1.612819	-1.137353	0.459594
C30	C	1.683199	-1.199785	0.530062
C31	C	1.700672	-1.297799	0.547529
C32	C	1.647775	-1.333390	0.494527
C33	C	1.595344	-1.039329	0.442123
C34	C	1.718615	-1.066180	0.565601
C35	C	1.736096	-1.164194	0.583064
C36	C	1.868308	-0.683172	0.402828
C37	C	1.988445	-0.694918	0.389908
C38	C	1.556150	-0.683117	0.715074
C39	C	1.543262	-0.694840	0.835215
C40	C	1.542996	-0.410844	0.389604
C41	C	1.524503	-0.306540	0.371049
C42	C	1.616565	-0.628147	0.152296
C43	C	1.629614	-0.616181	0.032086
C44	C	1.593094	-0.649456	0.871567
C45	C	1.579776	-0.661571	0.995739
H46	H	0.964110	-0.601876	0.492420
H47	H	1.124690	-0.568684	0.528926
Cl48	Cl	1.082229	-0.768648	0.308668
Cl49	Cl	1.506871	-0.960855	0.353536
H50	H	1.793399	-1.215040	0.640440
Cl51	Cl	1.467152	-0.987284	0.314580
Cl52	Cl	1.348165	-1.067615	0.194542
Cl53	Cl	1.387623	-1.288857	0.233973
H54	H	1.490732	-0.742656	0.896019
Cl55	Cl	1.498672	-0.735406	1.089606
Cl56	Cl	1.669998	-1.456612	0.516227
H57	H	1.757975	-1.348630	0.604914
H58	H	1.682134	-0.568349	0.971285
H59	H	1.761686	-1.037203	0.608762
Cl60	Cl	1.242807	-0.735471	0.345161
H61	H	1.645612	-0.601630	0.810762
