data_functionalizedCrystal
_audit_creation_method	'MofGen! by Chris Wilmer'
_symmetry_space_group_name_H-M	'P1'
_symmetry_Int_Tables_number	1
_symmetry_cell_setting	triclinic
loop_
_symmetry_equiv_pos_as_xyz
  x,y,z
_cell_length_a	9.065215
_cell_length_b	12.503572
_cell_length_c	9.065218
_cell_angle_alpha	86.422702
_cell_angle_beta	94.984675
_cell_angle_gamma	86.430164
loop_
_atom_site_label
_atom_site_type_symbol
_atom_site_fract_x
_atom_site_fract_y
_atom_site_fract_z
O1	O	-1.968797	0.089298	0.207917
O2	O	-1.635463	0.422632	0.541250
O3	O	-1.302130	0.755965	0.874584
O4	O	-1.539512	0.089304	0.225667
O5	O	-1.206178	0.422637	0.559001
O6	O	-0.872845	0.755971	0.892334
O7	O	-1.763027	0.089299	0.002150
O8	O	-1.429694	0.422632	0.335483
O9	O	-1.096360	0.755965	0.668817
O10	O	-1.745281	0.089303	0.431434
O11	O	-1.411948	0.422637	0.764768
O12	O	-1.078614	0.755970	1.098101
O13	O	-1.746218	-0.089343	0.018988
O14	O	-1.412884	0.243991	0.352321
O15	O	-1.079551	0.577324	0.685655
O16	O	-1.522702	-0.089338	0.242505
O17	O	-1.189369	0.243996	0.575839
O18	O	-0.856036	0.577329	0.909172
O19	O	-1.951987	-0.089343	0.224755
O20	O	-1.618654	0.243990	0.558088
O21	O	-1.285321	0.577323	0.891422
Cu22	Cu	-1.735810	-0.105652	0.235168
Cu23	Cu	-1.402477	0.227681	0.568501
Cu24	Cu	-1.069143	0.561015	0.901834
Cu25	Cu	-1.755689	0.105612	0.215255
Cu26	Cu	-1.422356	0.438946	0.548588
Cu27	Cu	-1.089022	0.772279	0.881921
O28	O	-1.728472	-0.089338	0.448272
O29	O	-1.395138	0.243995	0.781606
O30	O	-1.061805	0.577328	1.114939
C31	C	-1.476120	-0.000016	0.232381
C32	C	-1.142787	0.333317	0.565715
C33	C	-0.809454	0.666650	0.899048
C34	C	-1.312278	-0.000014	0.227283
C35	C	-0.978944	0.333319	0.560616
C36	C	-0.645611	0.666653	0.893950
N37	N	-1.721839	-0.254244	0.249173
N38	N	-1.388506	0.079089	0.582506
N39	N	-1.055172	0.412423	0.915839
C40	C	-1.701287	-0.473359	0.269787
C41	C	-1.367954	-0.140025	0.603120
C42	C	-1.034620	0.193308	0.936453
C43	C	-1.790219	-0.526688	0.180629
C44	C	-1.456885	-0.193354	0.513962
C45	C	-1.123552	0.139979	0.847295
C46	C	-1.778783	-0.648611	0.192099
C47	C	-1.445450	-0.315277	0.525432
C48	C	-1.112117	0.018056	0.858766
C49	C	-1.712721	-0.351425	0.258319
C50	C	-1.379387	-0.018091	0.591652
C51	C	-1.046054	0.315242	0.924985
C52	C	-1.015379	-0.000020	0.218041
C53	C	-0.682045	0.333313	0.551374
C54	C	-0.348712	0.666646	0.884707
C55	C	-1.179223	-0.000013	0.223138
C56	C	-0.845889	0.333320	0.556471
C57	C	-0.512556	0.666653	0.889804
C58	C	-1.752917	-0.000020	-0.044418
C59	C	-1.419584	0.333313	0.288915
C60	C	-1.086250	0.666646	0.622249
C61	C	-1.747818	-0.000015	-0.208261
C62	C	-1.414485	0.333318	0.125072
C63	C	-1.081151	0.666652	0.458405
N64	N	-1.769672	0.254204	0.201238
N65	N	-1.436338	0.587538	0.534572
N66	N	-1.103005	0.920871	0.867905
C67	C	-1.738582	-0.000017	0.494840
C68	C	-1.405249	0.333317	0.828173
C69	C	-1.071915	0.666650	1.161507
C70	C	-1.743682	-0.000015	0.658683
C71	C	-1.410349	0.333318	0.992016
C72	C	-1.077015	0.666652	1.325349
H73	H	-1.874944	-0.480777	0.095685
H74	H	-1.541611	-0.147443	0.429018
H75	H	-1.208278	0.185890	0.762352
H76	H	-1.616569	-0.519264	0.354727
H77	H	-1.283235	-0.185931	0.688060
H78	H	-0.949902	0.147403	1.021394
