data_functionalizedCrystal
_audit_creation_method	'MofGen! by Chris Wilmer'
_symmetry_space_group_name_H-M	'P1'
_symmetry_Int_Tables_number	1
_symmetry_cell_setting	triclinic
loop_
_symmetry_equiv_pos_as_xyz
  x,y,z
_cell_length_a	14.853569
_cell_length_b	15.944545
_cell_length_c	13.330367
_cell_angle_alpha	89.993254
_cell_angle_beta	89.994419
_cell_angle_gamma	83.565869
loop_
_atom_site_label
_atom_site_type_symbol
_atom_site_fract_x
_atom_site_fract_y
_atom_site_fract_z
O1	O	1.196225	0.109671	-0.083382
O2	O	0.933748	0.122733	-0.083395
O3	O	1.072157	-0.006065	-0.083376
O4	O	1.057816	0.238469	-0.083401
O5	O	1.072137	-0.006068	0.083471
O6	O	0.933728	0.122731	0.083452
O7	O	1.196204	0.109668	0.083465
Cu8	Cu	1.064964	0.116199	0.098693
Cu9	Cu	1.064988	0.116202	-0.098623
O10	O	1.057796	0.238467	0.083446
C11	C	0.900150	0.122140	0.000027
C12	C	0.800069	0.120366	0.000023
C13	C	0.763793	0.043024	0.000027
C14	C	0.742304	0.196040	0.000023
C15	C	0.648272	0.194376	0.000024
C16	C	0.611996	0.117034	0.000028
C17	C	0.669753	0.041357	0.000031
C18	C	0.590508	0.270051	0.000031
C19	C	0.496470	0.268390	0.000034
C20	C	0.460193	0.191047	0.000031
C21	C	0.517956	0.115367	0.000033
C22	C	0.481681	0.038026	0.000037
C23	C	0.539442	-0.037655	0.000031
C24	C	0.633476	-0.035985	0.000028
C25	C	0.366159	0.189377	0.000034
C26	C	0.387640	0.036359	0.000041
C27	C	1.071553	-0.037361	0.000048
C28	C	1.069771	-0.130609	0.000051
C29	C	0.978654	-0.401344	0.000026
C30	C	1.022593	-0.350708	-0.082237
C31	C	1.063416	-0.466260	0.000022
C32	C	1.022596	-0.350738	0.082262
C33	C	1.066534	-0.301343	0.000038
C34	C	1.107332	-0.416852	-0.082309
C35	C	1.107323	-0.416886	0.082263
C36	C	1.151324	-0.366283	-0.000019
C37	C	1.061618	-0.561264	0.000012
C38	C	1.068339	-0.206342	0.000041
C39	C	1.229802	0.110262	0.000040
C40	C	1.329884	0.112036	0.000038
C41	C	1.058400	0.269763	0.000019
C42	C	1.060182	0.363011	0.000010
N43	N	1.064954	0.116196	0.237474
N44	N	1.065005	0.116199	-0.237405
C45	C	1.003698	0.173212	0.710089
C46	C	1.126302	0.059186	0.710073
C47	C	1.126292	0.059184	0.605055
C48	C	1.064985	0.116197	0.552549
C49	C	1.003688	0.173213	0.605061
C50	C	1.187594	0.002175	0.552535
C51	C	1.187587	0.002171	0.447510
C52	C	1.126275	0.059180	0.395002
C53	C	1.064975	0.116198	0.447521
C54	C	1.003667	0.173211	0.395014
C55	C	0.942362	0.230225	0.447531
C56	C	0.942375	0.230223	0.552553
C57	C	1.126262	0.059183	0.289981
C58	C	1.003657	0.173212	0.289986
H59	H	0.358113	-0.026623	0.000039
C60	C	0.874941	0.292928	0.610329
N61	N	0.824149	0.340157	0.653850
C62	C	0.880040	-0.422607	-0.000088
N63	N	0.805765	-0.438625	-0.000179
H64	H	0.986804	-0.321812	-0.151787
C65	C	0.499527	-0.122728	0.000039
N66	N	0.469458	-0.186804	0.000044
C67	C	1.193694	-0.003528	0.232217
N68	N	1.244486	-0.050767	0.188711
C69	C	0.874927	0.292938	0.389761
N70	N	0.824136	0.340172	0.346244
C71	C	0.827330	-0.040221	0.000028
N72	N	0.875187	-0.102922	0.000033
H73	H	0.771845	0.259008	0.000026
C74	C	1.155663	-0.455709	-0.176372
N75	N	1.192061	-0.484977	-0.247221
H76	H	0.953782	0.219630	0.752851
H77	H	1.176222	0.012772	0.752827
H78	H	1.237514	-0.044240	0.595289
C79	C	0.936236	0.235954	0.232238
N80	N	0.885462	0.283220	0.188742
H81	H	1.237504	-0.044254	0.404758
H82	H	1.224379	-0.350710	-0.000062
H83	H	0.680513	-0.097600	0.000026
C84	C	0.630417	0.355121	0.000035
N85	N	0.660481	0.419199	0.000038
C86	C	0.432941	0.351640	0.000042
N87	N	0.385091	0.414345	0.000047
H88	H	1.143080	-0.445797	0.151817
C89	C	0.302627	0.272621	0.000039
N90	N	0.254775	0.335325	0.000039
H91	H	0.986776	-0.321865	0.151806
