data_functionalizedCrystal
_audit_creation_method	'MofGen! by Chris Wilmer'
_symmetry_space_group_name_H-M	'P1'
_symmetry_Int_Tables_number	1
_symmetry_cell_setting	triclinic
loop_
_symmetry_equiv_pos_as_xyz
  x,y,z
_cell_length_a	10.654550
_cell_length_b	11.792241
_cell_length_c	9.730223
_cell_angle_alpha	89.995449
_cell_angle_beta	89.999957
_cell_angle_gamma	84.339173
loop_
_atom_site_label
_atom_site_type_symbol
_atom_site_fract_x
_atom_site_fract_y
_atom_site_fract_z
O1	O	1.667388	0.159420	-0.114188
O2	O	1.301867	0.174608	-0.114213
O3	O	1.493498	0.001864	-0.114190
O4	O	1.475757	0.332164	-0.114211
O5	O	1.493485	0.001859	0.114390
O6	O	1.301854	0.174603	0.114367
O7	O	1.667376	0.159415	0.114392
Zn8	Zn	1.484613	0.167008	0.150671
Zn9	Zn	1.484629	0.167015	-0.150493
O10	O	1.475745	0.332159	0.114369
C11	C	1.255066	0.173491	0.000074
C12	C	1.115632	0.170154	0.000064
C13	C	1.035859	0.271863	0.000062
C14	C	0.904847	0.268721	0.000086
C15	C	0.933394	0.062152	0.000109
C16	C	1.064403	0.065295	0.000095
C17	C	1.492377	-0.040432	0.000099
C18	C	1.489042	-0.166453	0.000098
C19	C	1.482908	-0.397180	0.000074
C20	C	1.486316	-0.268787	0.000087
C21	C	1.714177	0.160533	0.000102
C22	C	1.853611	0.163869	0.000103
C23	C	1.476865	0.374455	0.000077
C24	C	1.480201	0.500477	0.000069
N25	N	1.484611	0.167003	0.356208
N26	N	1.484641	0.167011	-0.356029
C27	C	1.569494	0.090545	0.428144
C28	C	1.569507	0.090545	0.572027
C29	C	1.399749	0.243473	0.572025
C30	C	1.399731	0.243466	0.428145
H31	H	1.129359	-0.017534	0.000101
H32	H	1.638625	0.028285	0.630593
C33	C	1.662850	0.006430	0.349013
C34	C	1.756214	-0.077678	0.428149
C35	C	1.849569	-0.161799	0.349023
C36	C	1.849561	-0.161812	0.190760
C37	C	1.756193	-0.077702	0.111615
C38	C	1.662838	0.006419	0.190741
H39	H	1.756223	-0.077671	0.545313
H40	H	1.918685	-0.224063	0.407612
H41	H	1.918668	-0.224084	0.132186
H42	H	1.756184	-0.077709	-0.005549
H43	H	1.593721	0.068683	0.132151
H44	H	0.891668	-0.023220	0.000142
C45	C	1.306393	0.327588	0.651156
C46	C	1.306478	0.327671	0.809419
C47	C	1.213123	0.411792	0.888545
C48	C	1.119683	0.495830	0.809409
C49	C	1.119594	0.495750	0.651137
C50	C	1.212949	0.411629	0.572011
H51	H	1.375652	0.265459	0.868008
H52	H	1.213189	0.411851	1.005708
H53	H	1.050575	0.558101	0.867983
H54	H	1.050421	0.557963	0.592548
H55	H	1.212883	0.411571	0.454847
H56	H	1.077564	0.357246	0.000047
H57	H	0.839900	0.351543	0.000087
H58	H	1.330603	0.305728	0.369570
