data_functionalizedCrystal
_audit_creation_method	'MofGen! by Chris Wilmer'
_symmetry_space_group_name_H-M	'P1'
_symmetry_Int_Tables_number	1
_symmetry_cell_setting	triclinic
loop_
_symmetry_equiv_pos_as_xyz
  x,y,z
_cell_length_a	19.121063
_cell_length_b	21.395362
_cell_length_c	21.395355
_cell_angle_alpha	89.956060
_cell_angle_beta	87.579260
_cell_angle_gamma	87.514319
loop_
_atom_site_label
_atom_site_type_symbol
_atom_site_fract_x
_atom_site_fract_y
_atom_site_fract_z
Zn1	Zn	-0.279403	-0.947241	0.365205
Zn2	Zn	0.220597	-0.447241	0.865205
Zn3	Zn	-0.396839	-0.942680	0.264891
Zn4	Zn	0.103161	-0.442680	0.764891
Zn5	Zn	-0.279436	-0.842454	0.260407
Zn6	Zn	0.220564	-0.342454	0.760407
Zn7	Zn	-0.396853	-0.837961	0.369596
Zn8	Zn	0.103147	-0.337961	0.869596
O9	O	-0.338133	-0.892584	0.315025
O10	O	0.161867	-0.392584	0.815025
O11	O	-0.294962	-1.034314	0.351936
O12	O	0.205038	-0.534314	0.851936
O13	O	-0.381273	-0.929357	0.176618
O14	O	0.118727	-0.429357	0.676618
O15	O	-0.181145	-0.860144	0.270595
O16	O	0.318855	-0.360144	0.770595
O17	O	-0.381241	-1.030964	0.278236
O18	O	0.118759	-0.530964	0.778236
O19	O	-0.181121	-0.937130	0.347589
O20	O	0.318879	-0.437130	0.847589
O21	O	-0.295017	-0.855721	0.173324
O22	O	0.204983	-0.355721	0.673324
O23	O	-0.295031	-0.754180	0.274853
O24	O	0.204969	-0.254180	0.774853
O25	O	-0.381266	-0.852486	0.456691
O26	O	0.118734	-0.352486	0.956691
O27	O	-0.381297	-0.750879	0.355073
O28	O	0.118703	-0.250879	0.855073
O29	O	-0.294976	-0.932773	0.453465
O30	O	0.205024	-0.432773	0.953465
O31	O	-0.495127	-0.925000	0.282494
O32	O	0.004873	-0.425000	0.782494
O33	O	-0.495138	-0.848063	0.359420
O34	O	0.004862	-0.348063	0.859420
C35	C	-0.338170	-0.729795	0.314953
C36	C	0.161830	-0.229795	0.814953
C37	C	-0.338203	-0.660152	0.314938
C38	C	0.161797	-0.160152	0.814938
C39	C	-0.520617	-0.885566	0.321934
C40	C	-0.020617	-0.385566	0.821934
C41	C	-0.598685	-0.882621	0.324911
C42	C	-0.098685	-0.382621	0.824911
C43	C	-0.338119	-0.892637	0.478447
C44	C	0.161881	-0.392637	0.978447
C45	C	-0.338112	-0.892659	0.548089
C46	C	0.161888	-0.392659	1.048089
C47	C	-0.635332	-0.921325	0.286291
C48	C	-0.135332	-0.421325	0.786291
C49	C	-0.708685	-0.918559	0.289094
C50	C	-0.208685	-0.418559	0.789094
C51	C	-0.745389	-0.877085	0.330515
C52	C	-0.245389	-0.377085	0.830515
C53	C	-0.708736	-0.838379	0.369139
C54	C	-0.208736	-0.338379	0.869139
C55	C	-0.635385	-0.841149	0.366338
C56	C	-0.135385	-0.341149	0.866338
C57	C	-0.966864	-0.866720	0.340976
C58	C	-0.466864	-0.366720	0.840976
C59	C	-1.040221	-0.863952	0.343772
C60	C	-0.540221	-0.363952	0.843772
C61	C	-1.040164	-0.944133	0.263728
C62	C	-0.540164	-0.444133	0.763728
C63	C	-0.966812	-0.946896	0.260928
C64	C	-0.466812	-0.446896	0.760928
C65	C	-0.930165	-0.908193	0.299555
C66	C	-0.430165	-0.408193	0.799555
C67	C	-0.820367	-0.874256	0.333380
C68	C	-0.320367	-0.374256	0.833380
C69	C	-0.855188	-0.911026	0.296692
C70	C	-0.355188	-0.411026	0.796692
C71	C	-0.154936	-0.899647	0.308102
C72	C	0.345064	-0.399647	0.808102
C73	C	-0.076868	-0.902656	0.305152
C74	C	0.423132	-0.402656	0.805152
C75	C	-0.338096	-1.056009	0.315097
C76	C	0.161904	-0.556009	0.815097
C77	C	-0.338080	-1.125651	0.315127
C78	C	0.161920	-0.625651	0.815127
C79	C	-0.383181	-0.625735	0.356651
C80	C	0.116819	-0.125735	0.856651
C81	C	-0.383164	-0.560300	0.356679
C82	C	0.116836	-0.060300	0.856679
C83	C	-0.338176	-0.529285	0.314982
C84	C	0.161824	-0.029285	0.814982
C85	C	-0.293189	-0.563711	0.273266
C86	C	0.206811	-0.063711	0.773266
C87	C	-0.293202	-0.629145	0.273244
C88	C	0.206798	-0.129145	0.773244
C89	C	-0.332517	-0.425776	0.258362
C90	C	0.167483	0.074224	0.758362
C91	C	-0.332509	-0.360343	0.258383
C92	C	0.167491	0.139657	0.758383
C93	C	-0.338130	-0.327466	0.315049
C94	C	0.161870	0.172534	0.815049
C95	C	-0.343774	-0.360030	0.371698
C96	C	0.156226	0.139970	0.871698
C97	C	-0.343788	-0.425463	0.371676
C98	C	0.156212	0.074537	0.871676
C99	C	-0.338156	-0.458334	0.315001
C100	C	0.161844	0.041666	0.815001
C101	C	-0.383092	-0.222096	0.356795
C102	C	0.116908	0.277904	0.856795
C103	C	-0.383070	-0.156661	0.356824
C104	C	0.116930	0.343339	0.856824
C105	C	-0.293098	-0.160073	0.273405
C106	C	0.206902	0.339927	0.773405
C107	C	-0.293117	-0.225508	0.273383
C108	C	0.206883	0.274492	0.773383
C109	C	-0.338117	-0.256516	0.315077
C110	C	0.161883	0.243484	0.815077
C111	C	-0.338096	-0.892570	0.152236
C112	C	0.161904	-0.392570	0.652236
C113	C	-0.337904	-0.892676	0.082588
C114	C	0.162096	-0.392676	0.582588
C115	C	-0.293179	-0.934463	0.579123
C116	C	0.206821	-0.434463	1.079123
C117	C	-0.293149	-0.934463	0.644557
C118	C	0.206851	-0.434463	1.144557
C119	C	-0.338065	-0.892666	0.678955
C120	C	0.161935	-0.392666	1.178955
C121	C	-0.383001	-0.850854	0.647913
C122	C	0.116999	-0.350854	1.147913
C123	C	-0.383025	-0.850851	0.582480
C124	C	0.116975	-0.350851	1.082480
C125	C	-0.401308	-0.885286	0.785023
C126	C	0.098692	-0.385286	1.285023
C127	C	-0.401285	-0.885294	0.850455
C128	C	0.098715	-0.385294	1.350455
C129	C	-0.337990	-0.892672	0.880773
C130	C	0.162010	-0.392672	1.380773
C131	C	-0.274717	-0.900056	0.845651
C132	C	0.225283	-0.400056	1.345651
C133	C	-0.274741	-0.900053	0.780218
C134	C	0.225259	-0.400053	1.280218
C135	C	-0.338043	-0.892664	0.749907
C136	C	0.161957	-0.392664	1.249907
C137	C	-0.293021	-0.934479	0.982759
C138	C	0.206979	-0.434479	1.482759
C139	C	-0.292989	-0.934475	1.048194
C140	C	0.207011	-0.434475	1.548194
C141	C	-0.382847	-0.850869	1.051549
C142	C	0.117153	-0.350869	1.551549
C143	C	-0.382872	-0.850870	0.986115
C144	C	0.117128	-0.350870	1.486115
C145	C	-0.337960	-0.892678	0.951723
C146	C	0.162040	-0.392678	1.451723
H147	H	-0.605453	-0.955095	0.252559
H148	H	-0.105453	-0.455095	0.752559
F149	F	-0.816124	-0.955167	0.252614
F150	F	-0.316124	-0.455167	0.752614
F151	F	-0.430801	-0.806368	0.684523
F152	F	0.069199	-0.306368	1.184523
H153	H	-0.419466	-0.816832	0.960847
H154	H	0.080534	-0.316832	1.460847
F155	F	-0.468626	-0.877441	0.887828
F156	F	0.031374	-0.377441	1.387828
F157	F	-0.245219	-0.978972	0.946154
F158	F	0.254781	-0.478972	1.446154
H159	H	-1.070103	-0.830186	0.377512
H160	H	-0.570103	-0.330186	0.877512
H161	H	-0.419823	-0.650977	0.390603
H162	H	0.080177	-0.150977	0.890603
F163	F	-0.430981	-0.255099	0.401172
F164	F	0.069019	0.244901	0.901172
H165	H	-0.256494	-0.253531	0.239412
H166	H	0.243506	0.246469	0.739412
F167	F	-0.927872	-0.825527	0.382085
F168	F	-0.427872	-0.325527	0.882085
H169	H	-1.070010	-0.975644	0.232282
H170	H	-0.570010	-0.475644	0.732282
H171	H	-0.327917	-0.333835	0.212256
H172	H	0.172083	0.166165	0.712256
H173	H	-0.327937	-0.452538	0.212214
H174	H	0.172063	0.047462	0.712214
F175	F	-0.747685	-0.959756	0.247991
F176	F	-0.247685	-0.459756	0.747991
H177	H	-0.605547	-0.809633	0.397787
H178	H	-0.105547	-0.309633	0.897787
F179	F	-0.927754	-0.991046	0.216850
F180	F	-0.427754	-0.491046	0.716850
F181	F	-0.747801	-0.794243	0.413225
F182	F	-0.247801	-0.294243	0.913225
F183	F	-0.349792	-0.460118	0.431963
F184	F	0.150208	0.039882	0.931963
F185	F	-0.859437	-0.830117	0.377461
F186	F	-0.359437	-0.330117	0.877461
F187	F	-0.245215	-0.127070	0.229031
F188	F	0.254785	0.372930	0.729031
F189	F	-0.431037	-0.523662	0.401077
F190	F	0.068963	-0.023662	0.901077
F191	F	-0.349754	-0.325046	0.432012
F192	F	0.150246	0.174954	0.932012
H193	H	-0.419695	-0.128639	0.390795
H194	H	0.080305	0.371361	0.890795
H195	H	-0.256558	-0.538455	0.239317
H196	H	0.243442	-0.038455	0.739317
F197	F	-0.245328	-0.665776	0.228846
F198	F	0.254672	-0.165776	0.728846
H199	H	-0.223177	-0.906066	0.870335
H200	H	0.276823	-0.406066	1.370335
F201	F	-0.245377	-0.978957	0.542525
F202	F	0.254623	-0.478957	1.042525
F203	F	-0.468680	-0.877447	0.752762
F204	F	0.031320	-0.377447	1.252762
F205	F	-0.245312	-0.978949	0.677592
F206	F	0.254688	-0.478949	1.177592
H207	H	-0.223221	-0.906064	0.751624
H208	H	0.276779	-0.406064	1.251624
F209	F	-0.245171	-0.978978	1.081223
F210	F	0.254829	-0.478978	1.581223
F211	F	-0.430645	-0.806380	1.088153
F212	F	0.069355	-0.306380	1.588153
F213	F	-0.430851	-0.806355	0.549450
F214	F	0.069149	-0.306355	1.049450
