data_functionalizedCrystal
_audit_creation_method	'MofGen! by Chris Wilmer'
_symmetry_space_group_name_H-M	'P1'
_symmetry_Int_Tables_number	1
_symmetry_cell_setting	triclinic
loop_
_symmetry_equiv_pos_as_xyz
  x,y,z
_cell_length_a	27.732048
_cell_length_b	17.699083
_cell_length_c	16.776229
_cell_angle_alpha	90.007545
_cell_angle_beta	89.998347
_cell_angle_gamma	97.037165
loop_
_atom_site_label
_atom_site_type_symbol
_atom_site_fract_x
_atom_site_fract_y
_atom_site_fract_z
O1	O	0.641253	-0.090059	-0.066187
O2	O	1.141253	0.409941	0.433813
O3	O	0.500508	-0.103753	-0.066212
O4	O	1.000508	0.396247	0.433788
O5	O	0.574857	0.013318	-0.066192
O6	O	1.074857	0.513318	0.433808
O7	O	0.566904	-0.207130	-0.066207
O8	O	1.066904	0.292870	0.433793
O9	O	0.574847	0.013325	0.066385
O10	O	1.074847	0.513325	0.566385
O11	O	0.500499	-0.103746	0.066365
O12	O	1.000499	0.396254	0.566365
O13	O	0.641243	-0.090052	0.066389
O14	O	1.141243	0.409948	0.566389
Zn15	Zn	0.570869	-0.096898	0.087426
Zn16	Zn	1.070869	0.403102	0.587426
Zn17	Zn	0.570882	-0.096907	-0.087249
Zn18	Zn	1.070882	0.403093	0.412751
O19	O	0.566894	-0.207123	0.066369
O20	O	1.066894	0.292877	0.566369
C21	C	0.482496	-0.103462	0.000074
C22	C	0.982496	0.396538	0.500074
C23	C	0.428838	-0.102596	0.000065
C24	C	0.928838	0.397404	0.500065
C25	C	0.574567	0.041516	0.000097
C26	C	1.074567	0.541516	0.500097
C27	C	0.573712	0.125527	0.000097
C28	C	1.073712	0.625527	0.500097
C29	C	0.567184	-0.235321	0.000079
C30	C	1.067184	0.264679	0.500079
C31	C	0.568039	-0.319332	0.000074
C32	C	1.068039	0.180668	0.500074
C33	C	0.090252	-0.166329	0.000095
C34	C	0.590252	0.333671	0.500095
C35	C	-0.111419	-0.163117	0.000102
C36	C	0.388581	0.336883	0.500102
O37	O	-0.142466	-0.221396	0.000132
O38	O	0.357534	0.278604	0.500132
N39	N	-0.130793	-0.093699	0.000105
N40	N	0.369207	0.406301	0.500105
C41	C	-0.099745	-0.025079	0.000112
C42	C	0.400255	0.474921	0.500112
O43	O	-0.120851	0.034039	0.000124
O44	O	0.379149	0.534039	0.500124
C45	C	0.101925	-0.028291	0.000111
C46	C	0.601925	0.471709	0.500111
C47	C	0.121296	-0.097714	0.000099
C48	C	0.621296	0.402286	0.500099
C49	C	0.109623	-0.235746	0.000084
C50	C	0.609623	0.264254	0.500084
C51	C	0.160037	-0.236548	0.000078
C52	C	0.660037	0.263452	0.500078
C53	C	0.191081	-0.167933	0.000082
C54	C	0.691081	0.332067	0.500082
C55	C	0.171710	-0.098516	0.000093
C56	C	0.671710	0.401484	0.500093
C57	C	0.132972	0.040329	0.000123
C58	C	0.632972	0.540329	0.500123
C59	C	0.183392	0.039519	0.000125
C60	C	0.683392	0.539519	0.500125
C61	C	0.202763	-0.029903	0.000113
C62	C	0.702763	0.470097	0.500113
C63	C	0.253169	-0.030703	0.000091
C64	C	0.753169	0.469297	0.500091
N65	N	0.272543	-0.100121	0.000088
N66	N	0.772543	0.399879	0.500088
C67	C	0.241499	-0.168736	0.000083
C68	C	0.741499	0.331264	0.500083
C69	C	-0.205625	-0.023397	0.000112
C70	C	0.294375	0.476603	0.500112
C71	C	-0.256042	-0.022594	0.000111
C72	C	0.243958	0.477406	0.500111
C73	C	-0.267713	-0.160633	0.000102
C74	C	0.232287	0.339367	0.500102
C75	C	-0.217295	-0.161435	0.000097
C76	C	0.282705	0.338565	0.500097
C77	C	-0.186252	-0.092815	0.000108
C78	C	0.313748	0.407185	0.500108
C79	C	0.347374	-0.170415	0.000070
C80	C	0.847374	0.329585	0.500070
C81	C	0.397794	-0.171211	0.000060
C82	C	0.897794	0.328789	0.500060
C83	C	0.409460	-0.033173	0.000073
C84	C	0.909460	0.466827	0.500073
C85	C	0.359045	-0.032376	0.000078
C86	C	0.859045	0.467624	0.500078
C87	C	0.328002	-0.101004	0.000079
C88	C	0.828002	0.398996	0.500079
O89	O	0.284244	0.027545	0.000070
O90	O	0.784244	0.527545	0.500070
O91	O	0.262614	-0.227845	0.000090
O92	O	0.762614	0.272155	0.500090
C93	C	0.039837	-0.165526	0.000101
C94	C	0.539837	0.334474	0.500101
C95	C	0.020466	-0.096109	0.000111
C96	C	0.520466	0.403891	0.500111
C97	C	0.051510	-0.027494	0.000116
C98	C	0.551510	0.472506	0.500116
C99	C	-0.029951	-0.095306	0.000110
C100	C	0.470049	0.404694	0.500110
C101	C	-0.060995	-0.163921	0.000106
C102	C	0.439005	0.336079	0.500106
C103	C	-0.041622	-0.233339	0.000103
C104	C	0.458378	0.266661	0.500103
C105	C	0.008793	-0.234141	0.000096
C106	C	0.508793	0.265859	0.500096
C107	C	0.032137	0.041924	0.000119
C108	C	0.532137	0.541924	0.500119
C109	C	-0.018279	0.042720	0.000125
C110	C	0.481721	0.542720	0.500125
C111	C	-0.049323	-0.025895	0.000120
C112	C	0.450677	0.474105	0.500120
C113	C	0.659256	-0.090343	0.000102
C114	C	1.159256	0.409657	0.500102
C115	C	0.712914	-0.091209	0.000106
C116	C	1.212914	0.408791	0.500106
N117	N	0.570864	-0.096891	0.206638
N118	N	1.070864	0.403109	0.706638
C119	C	0.617353	0.174532	0.000105
C120	C	1.117353	0.674532	0.500105
C121	C	0.616547	0.253469	0.000098
C122	C	1.116547	0.753469	0.500098
C123	C	0.572099	0.283398	0.000088
C124	C	1.072099	0.783398	0.500088
C125	C	0.528455	0.234386	0.000077
C126	C	1.028455	0.734386	0.500077
C127	C	0.529262	0.155451	0.000079
C128	C	1.029262	0.655451	0.500079
C129	C	0.525201	0.552720	0.000070
C130	C	1.025201	1.052720	0.500070
C131	C	0.524398	0.631661	0.000071
C132	C	1.024398	1.131661	0.500071
C133	C	0.612486	0.650738	0.000090
C134	C	1.112486	1.150738	0.500090
C135	C	0.613293	0.571803	0.000091
C136	C	1.113293	1.071803	0.500091
C137	C	0.569649	0.522798	0.000076
C138	C	1.069649	1.022798	0.500076
C139	C	0.570524	0.437207	0.000082
C140	C	1.070524	0.937207	0.500082
C141	C	0.571224	0.368987	0.000088
C142	C	1.071224	0.868987	0.500088
N143	N	0.570891	-0.096908	-0.206460
N144	N	1.070891	0.403092	0.293540
C145	C	0.603795	-0.045073	0.248364
C146	C	1.103795	0.454927	0.748364
C147	C	0.603798	-0.045072	0.331816
C148	C	1.103798	0.454928	0.831816
C149	C	0.570871	-0.096894	0.373541
C150	C	1.070871	0.403106	0.873541
C151	C	0.537936	-0.148714	0.331809
C152	C	1.037936	0.351286	0.831809
C153	C	0.537932	-0.148711	0.248358
C154	C	1.037932	0.351289	0.748358
C155	C	0.537954	-0.148729	0.668356
C156	C	1.037954	0.351271	1.168356
C157	C	0.537962	-0.148730	0.751813
C158	C	1.037962	0.351270	1.251813
C159	C	0.603820	-0.045091	0.751814
C160	C	1.103820	0.454909	1.251814
C161	C	0.603816	-0.045087	0.668363
C162	C	1.103816	0.454913	1.168363
C163	C	0.570879	-0.096905	0.626639
C164	C	1.070879	0.403095	1.126639
C165	C	0.570876	-0.096904	0.536150
C166	C	1.070876	0.403096	1.036150
C167	C	0.570876	-0.096899	0.464027
C168	C	1.070876	0.403101	0.964027
H169	H	0.413562	-0.227746	0.000050
H170	H	0.913562	0.272254	0.500050
Br171	Br	0.465970	0.486223	0.000044
Br172	Br	0.965970	0.986223	0.500044
Br173	Br	0.648506	0.025240	0.611739
Br174	Br	1.148506	0.525240	1.111739
Br175	Br	0.671719	0.717249	0.000110
Br176	Br	1.171719	1.217249	0.500110
H177	H	0.511124	-0.190906	0.365786
H178	H	1.011124	0.309094	0.865786
Br179	Br	0.648520	0.025236	0.808443
Br180	Br	1.148520	0.525236	1.308443
H181	H	-0.034045	0.099257	0.000128
H182	H	0.465955	0.599257	0.500128
Br183	Br	0.225520	0.132652	0.000144
Br184	Br	0.725520	0.632652	0.500144
Br185	Br	0.648488	0.025255	0.191746
Br186	Br	1.148488	0.525255	0.691746
H187	H	0.492265	0.258760	0.000064
H188	H	0.992265	0.758760	0.500064
Br189	Br	0.677678	0.133923	0.000131
Br190	Br	1.177678	0.633923	0.500131
Br191	Br	0.305253	-0.263553	0.000072
Br192	Br	0.805253	0.236447	0.500072
Br193	Br	0.332755	0.061840	0.000097
Br194	Br	0.832755	0.561840	0.500097
H195	H	0.488201	0.656025	0.000064
H196	H	0.988201	1.156025	0.500064
Br197	Br	0.035073	-0.328363	0.000079
Br198	Br	0.535073	0.171637	0.500079
Br199	Br	-0.191012	-0.255654	0.000082
Br200	Br	0.308988	0.244346	0.500082
H201	H	0.630613	-0.002878	0.365789
H202	H	1.130613	0.497122	0.865789
Br203	Br	0.451601	0.059943	0.000081
Br204	Br	0.951601	0.559943	0.500081
Br205	Br	0.493273	-0.219065	0.808439
Br206	Br	0.993273	0.280935	1.308439
H207	H	0.511136	-0.190922	0.634391
H208	H	1.011136	0.309078	1.134391
Br209	Br	-0.163501	0.069739	0.000127
Br210	Br	0.336499	0.569739	0.500127
Br211	Br	0.106697	0.134551	0.000121
Br212	Br	0.606697	0.634551	0.500121
Br213	Br	0.675777	0.319974	0.000110
Br214	Br	1.175777	0.819974	0.500110
H215	H	-0.066907	-0.289208	0.000096
H216	H	0.433093	0.210792	0.500096
H217	H	0.493725	0.115551	0.000071
H218	H	0.993725	0.615551	0.500071
Br219	Br	0.673617	0.531189	0.000104
Br220	Br	1.173617	1.031189	0.500104
H221	H	0.511115	-0.190905	0.214386
H222	H	1.011115	0.309095	0.714386
H223	H	0.175804	-0.293079	0.000068
H224	H	0.675804	0.206921	0.500068
H225	H	-0.292998	-0.216502	0.000098
H226	H	0.207002	0.283498	0.500098
H227	H	0.084351	-0.291623	0.000083
H228	H	0.584351	0.208377	0.500083
Br229	Br	-0.282324	0.071626	0.000102
Br230	Br	0.217676	0.571626	0.500102
H231	H	0.057408	0.097800	0.000125
H232	H	0.557408	0.597800	0.500125
