data_functionalizedCrystal
_audit_creation_method	'MofGen! by Chris Wilmer'
_symmetry_space_group_name_H-M	'P1'
_symmetry_Int_Tables_number	1
_symmetry_cell_setting	triclinic
loop_
_symmetry_equiv_pos_as_xyz
  x,y,z
_cell_length_a	19.077105
_cell_length_b	13.897448
_cell_length_c	19.076919
_cell_angle_alpha	92.272955
_cell_angle_beta	90.076224
_cell_angle_gamma	87.714101
loop_
_atom_site_label
_atom_site_type_symbol
_atom_site_fract_x
_atom_site_fract_y
_atom_site_fract_z
Zn1	Zn	1.058310	-0.466652	-0.440425
Zn2	Zn	1.558310	0.033348	0.059575
Zn3	Zn	1.062963	-0.621745	-0.322920
Zn4	Zn	1.562963	-0.121745	0.177080
Zn5	Zn	0.945527	-0.453730	-0.318218
Zn6	Zn	1.445527	0.046270	0.181782
Zn7	Zn	0.940785	-0.621164	-0.435673
Zn8	Zn	1.440785	-0.121164	0.064327
O9	O	1.001896	-0.540823	-0.379309
O10	O	1.501896	-0.040823	0.120691
O11	O	1.157260	-0.492877	-0.428794
O12	O	1.657260	0.007123	0.071206
O13	O	1.051317	-0.594293	-0.223965
O14	O	1.551317	-0.094293	0.276035
O15	O	0.960525	-0.320466	-0.334450
O16	O	1.460525	0.179534	0.165550
O17	O	1.160678	-0.606823	-0.342464
O18	O	1.660678	-0.106823	0.157536
O19	O	1.043386	-0.329960	-0.424235
O20	O	1.543386	0.170040	0.075765
O21	O	0.965037	-0.470854	-0.220510
O22	O	1.465037	0.029146	0.279490
O23	O	0.846566	-0.470290	-0.329842
O24	O	1.346566	0.029710	0.170158
O25	O	0.952443	-0.605832	-0.534635
O26	O	1.452443	-0.105832	-0.034635
O27	O	0.843082	-0.593302	-0.416136
O28	O	1.343082	-0.093302	0.083864
O29	O	1.038788	-0.492313	-0.538126
O30	O	1.538788	0.007687	-0.038126
O31	O	1.046719	-0.756647	-0.337856
O32	O	1.546719	-0.256647	0.162144
O33	O	0.956955	-0.756219	-0.420695
O34	O	1.456955	-0.256219	0.079305
C35	C	0.819327	-0.530331	-0.371963
C36	C	1.319327	-0.030331	0.128037
C37	C	0.741223	-0.525867	-0.368837
C38	C	1.241223	-0.025867	0.131163
C39	C	0.702736	-0.587905	-0.412227
C40	C	1.202736	-0.087905	0.087773
C41	C	0.629349	-0.583698	-0.409293
C42	C	1.129349	-0.083698	0.090707
C43	C	0.594449	-0.517456	-0.362966
C44	C	1.094449	-0.017456	0.137034
C45	C	0.632940	-0.455412	-0.319575
C46	C	1.132940	0.044588	0.180425
C47	C	0.706327	-0.459615	-0.322513
C48	C	1.206327	0.040385	0.177487
C49	C	0.375160	-0.498004	-0.349373
C50	C	0.875160	0.001996	0.150627
C51	C	0.301769	-0.493807	-0.346437
C52	C	0.801769	0.006193	0.153563
C53	C	0.298182	-0.622092	-0.436157
C54	C	0.798182	-0.122092	0.063843
C55	C	0.371570	-0.626293	-0.439087
C56	C	0.871570	-0.126293	0.060913
C57	C	0.410055	-0.564245	-0.395699
C58	C	0.910055	-0.064245	0.104301
N59	N	0.519435	-0.513157	-0.359965
N60	N	1.019435	-0.013157	0.140035
N61	N	0.485067	-0.568541	-0.398704
N62	N	0.985067	-0.068541	0.101296
C63	C	1.001846	-0.791433	-0.379287
C64	C	1.501846	-0.291433	0.120713
C65	C	1.001888	-0.898650	-0.379303
C66	C	1.501888	-0.398650	0.120697
C67	C	1.001960	-1.094952	-0.379350
C68	C	1.501960	-0.594952	0.120650
C69	C	1.001918	-0.985716	-0.379326
C70	C	1.501918	-0.485716	0.120674
C71	C	1.185178	-0.551356	-0.386684
C72	C	1.685178	-0.051356	0.113316
C73	C	1.263282	-0.555845	-0.389826
C74	C	1.763282	-0.055845	0.110174
C75	C	0.994568	-0.550449	-0.562589
C76	C	1.494568	-0.050449	-0.062589
C77	C	0.991445	-0.554551	-0.640692
C78	C	1.491445	-0.054551	-0.140692
C79	C	1.001966	-0.289236	-0.379348
C80	C	1.501966	0.210764	0.120652
C81	C	1.001995	-0.182024	-0.379364
C82	C	1.501995	0.317976	0.120636
C83	C	1.034931	-0.497377	-0.679204
C84	C	1.534931	0.002623	-0.179204
C85	C	1.031988	-0.501227	-0.752590
C86	C	1.531988	-0.001227	-0.252590
C87	C	0.985562	-0.562257	-0.787463
C88	C	1.485562	-0.062257	-0.287463
C89	C	0.942071	-0.619432	-0.748946
C90	C	1.442071	-0.119432	-0.248946
C91	C	0.945011	-0.615576	-0.675561
C92	C	1.445011	-0.115576	-0.175561
C93	C	0.971945	-0.580121	-1.006744
C94	C	1.471945	-0.080121	-0.506744
C95	C	0.969010	-0.583975	-1.080134
C96	C	1.469010	-0.083975	-0.580134
C97	C	1.058926	-0.465768	-1.083773
C98	C	1.558926	0.034232	-0.583773
C99	C	1.061865	-0.461922	-1.010387
C100	C	1.561865	0.038078	-0.510387
C101	C	1.018372	-0.519094	-0.971877
C102	C	1.518372	-0.019094	-0.471877
N103	N	0.982554	-0.566196	-0.862475
N104	N	1.482554	-0.066196	-0.362475
N105	N	1.021376	-0.515149	-0.896866
N106	N	1.521376	-0.015149	-0.396866
C107	C	1.009237	-0.531167	-0.196743
C108	C	1.509237	-0.031167	0.303257
C109	C	1.012496	-0.526801	-0.118646
C110	C	1.512496	-0.026801	0.381354
H111	H	0.406486	-0.447487	-0.314038
H112	H	0.906486	0.052513	0.185962
H113	H	0.737661	-0.409092	-0.287184
H114	H	1.237661	0.090908	0.212816
O115	O	1.106852	-0.402542	-0.976446
O116	O	1.606852	0.097458	-0.476446
C117	C	1.119606	-0.268408	-0.894069
C118	C	1.619606	0.231592	-0.394069
C119	C	1.068590	-0.335623	-0.932439
C120	C	1.568590	0.164377	-0.432439
H121	H	1.088691	-0.214275	-0.858492
H122	H	1.588691	0.285725	-0.358492
H123	H	1.157722	-0.312896	-0.861125
H124	H	1.657722	0.187104	-0.361125
H125	H	1.150178	-0.228252	-0.934231
H126	H	1.650178	0.271748	-0.434231
H127	H	1.037971	-0.375794	-0.892326
H128	H	1.537971	0.124206	-0.392326
H129	H	1.030520	-0.291084	-0.965395
H130	H	1.530520	0.208916	-0.465395
H131	H	0.909593	-0.662123	-0.644205
H132	H	1.409593	-0.162123	-0.144205
H133	H	1.067400	-0.454673	-0.783943
H134	H	1.567400	0.045327	-0.283943
O135	O	1.101097	-0.410261	-1.121289
O136	O	1.601097	0.089739	-0.621289
C137	C	1.136447	-0.363846	-1.235956
C138	C	1.636447	0.136154	-0.735956
C139	C	1.088638	-0.426749	-1.193556
C140	C	1.588638	0.073251	-0.693556
H141	H	1.126402	-0.377169	-1.294392
H142	H	1.626402	0.122831	-0.794392
H143	H	1.124701	-0.284584	-1.221093
H144	H	1.624701	0.215416	-0.721093
H145	H	1.193676	-0.383267	-1.223765
H146	H	1.693676	0.116733	-0.723765
H147	H	1.031394	-0.407413	-1.205724
H148	H	1.531394	0.092587	-0.705724
H149	H	1.100445	-0.505994	-1.208425
H150	H	1.600445	-0.005994	-0.708425
H151	H	0.604519	-0.401473	-0.281858
H152	H	1.104519	0.098527	0.218142
O153	O	0.923846	-0.643281	-1.113900
O154	O	1.423846	-0.143281	-0.613900
C155	C	0.834999	-0.760159	-1.102552
C156	C	1.334999	-0.260159	-0.602552
C157	C	0.886097	-0.693023	-1.064223
C158	C	1.386097	-0.193023	-0.564223
H159	H	0.804476	-0.800408	-1.062406
H160	H	1.304476	-0.300408	-0.562406
H161	H	0.796852	-0.715609	-1.135418
H162	H	1.296852	-0.215609	-0.635418
H163	H	0.865884	-0.814216	-1.138217
H164	H	1.365884	-0.314216	-0.638217
H165	H	0.855271	-0.638954	-1.028522
H166	H	1.355271	-0.138954	-0.528522
H167	H	0.924245	-0.737636	-1.031401
H168	H	1.424245	-0.237636	-0.531401
O169	O	0.929797	-0.635712	-0.969275
O170	O	1.429797	-0.135712	-0.469275
C171	C	0.923604	-0.761098	-0.886066
C172	C	1.423604	-0.261098	-0.386066
C173	C	0.971423	-0.698185	-0.928446
C174	C	1.471423	-0.198185	-0.428446
H175	H	0.957239	-0.811637	-0.853057
H176	H	1.457239	-0.311637	-0.353057
H177	H	0.888256	-0.712952	-0.850192
H178	H	1.388256	-0.212952	-0.350192
H179	H	0.889909	-0.805329	-0.923620
H180	H	1.389909	-0.305329	-0.423620
H181	H	1.005161	-0.653945	-0.890945
H182	H	1.505161	-0.153945	-0.390945
H183	H	1.006724	-0.746384	-0.964329
H184	H	1.506724	-0.246384	-0.464329
H185	H	0.904268	-0.669120	-0.777345
H186	H	1.404268	-0.169120	-0.277345
H187	H	0.731147	-0.641849	-0.449949
H188	H	1.231147	-0.141849	0.050051
H189	H	0.273355	-0.439855	-0.308716
H190	H	0.773355	0.060145	0.191284
H191	H	0.598016	-0.634216	-0.444625
H192	H	1.098016	-0.134216	0.055375
H193	H	1.072738	-0.447684	-0.650816
H194	H	1.572738	0.052316	-0.150816
O195	O	0.405358	-0.690668	-0.484152
O196	O	0.905358	-0.190668	0.015848
C197	C	0.394055	-0.817508	-0.572799
C198	C	0.894055	-0.317508	-0.072799
C199	C	0.355701	-0.744630	-0.521810
C200	C	0.855701	-0.244630	-0.021810
H201	H	0.353924	-0.861170	-0.603248
H202	H	0.853924	-0.361170	-0.103248
H203	H	0.426937	-0.777254	-0.611020
H204	H	0.926937	-0.277254	-0.111020
H205	H	0.429707	-0.868102	-0.541834
H206	H	0.929707	-0.368102	-0.041834
H207	H	0.320012	-0.694018	-0.552717
H208	H	0.820012	-0.194018	-0.052717
H209	H	0.322862	-0.784947	-0.483589
H210	H	0.822862	-0.284947	0.016411
H211	H	0.266840	-0.672607	-0.471482
H212	H	0.766840	-0.172607	0.028518
