data_functionalizedCrystal
_audit_creation_method	'MofGen! by Chris Wilmer'
_symmetry_space_group_name_H-M	'P1'
_symmetry_Int_Tables_number	1
_symmetry_cell_setting	triclinic
loop_
_symmetry_equiv_pos_as_xyz
  x,y,z
_cell_length_a	11.026607
_cell_length_b	22.010155
_cell_length_c	11.026607
_cell_angle_alpha	89.999825
_cell_angle_beta	108.586017
_cell_angle_gamma	90.015027
loop_
_atom_site_label
_atom_site_type_symbol
_atom_site_fract_x
_atom_site_fract_y
_atom_site_fract_z
O1	O	1.726754	0.050524	0.533625
O2	O	1.360174	0.050525	0.472862
O3	O	1.513082	0.050522	0.319954
O4	O	1.573846	0.050526	0.686534
O5	O	1.513023	-0.050528	0.319940
O6	O	1.360115	-0.050526	0.472849
O7	O	1.726695	-0.050527	0.533612
Cu8	Cu	1.543399	-0.059753	0.503229
Cu9	Cu	1.543469	0.059751	0.503245
O10	O	1.573787	-0.050524	0.686520
C11	C	1.312485	-0.000000	0.461645
C12	C	1.170471	-0.000000	0.428228
N13	N	1.543359	-0.143805	0.503219
C14	C	1.116821	0.000001	0.520498
C15	C	0.970043	0.000002	0.485962
C16	C	1.637647	-0.563584	0.597448
C17	C	1.637661	-0.627192	0.597448
O18	O	1.717780	-0.660083	0.677546
N19	N	1.543491	-0.659012	0.503236
C20	C	1.449308	-0.627222	0.409009
O21	O	1.369211	-0.660129	0.328873
C22	C	1.449300	-0.563616	0.409005
C23	C	1.543469	-0.531798	0.503231
C24	C	1.731808	-0.531767	0.691666
C25	C	1.731792	-0.468163	0.691667
C26	C	1.637614	-0.436378	0.597450
C27	C	1.543453	-0.468195	0.503232
C28	C	1.355124	-0.531827	0.314774
C29	C	1.355124	-0.468216	0.314777
C30	C	1.449293	-0.436399	0.409003
C31	C	1.449259	-0.372806	0.409016
N32	N	1.543429	-0.340986	0.503228
C33	C	1.637607	-0.372771	0.597445
C34	C	1.449333	-0.760800	0.409024
C35	C	1.449334	-0.824405	0.409033
C36	C	1.637689	-0.824370	0.597471
C37	C	1.637681	-0.760764	0.597467
C38	C	1.543503	-0.728979	0.503237
C39	C	1.637565	-0.239200	0.597441
C40	C	1.637537	-0.175591	0.597436
C41	C	1.449187	-0.175632	0.408995
C42	C	1.449210	-0.239235	0.409003
C43	C	1.543410	-0.271018	0.503231
O44	O	1.369184	-0.339875	0.328956
O45	O	1.717700	-0.339857	0.677558
C46	C	1.774384	-0.000000	0.544828
C47	C	1.916398	0.000003	0.578245
C48	C	1.501843	-0.000002	0.272287
C49	C	1.468426	-0.000000	0.130273
N50	N	1.543517	0.143803	0.503247
C51	C	1.560695	0.000000	0.076624
C52	C	1.526160	0.000003	-0.070155
C53	C	1.585026	0.000002	0.734187
C54	C	1.618443	0.000003	0.876200
H55	H	0.907314	0.000016	0.381393
C56	C	1.810762	-0.310685	0.642976
C57	C	1.741107	-0.274129	0.701021
H58	H	1.874684	-0.332245	0.706928
H59	H	1.754695	-0.338742	0.586884
H60	H	1.850163	-0.285857	0.595767
H61	H	1.701698	-0.298957	0.748223
H62	H	1.797183	-0.246068	0.757136
C63	C	1.330511	0.000001	0.668548
C64	C	1.201496	0.000002	0.661659
H65	H	1.382781	0.000004	0.755698
H66	H	1.348105	-0.035236	0.627316
H67	H	1.348146	0.035241	0.627318
H68	H	1.183859	-0.035241	0.702881
H69	H	1.183895	0.035242	0.702909
C70	C	0.975067	0.051955	0.780169
C71	C	1.001053	0.000007	0.719419
H72	H	1.027321	0.051955	0.867325
H73	H	0.992726	0.087185	0.738945
H74	H	0.887530	0.051949	0.775455
H75	H	1.088588	0.000016	0.724125
H76	H	0.983402	-0.035232	0.760655
C77	C	1.271458	-0.370729	0.231083
C78	C	1.251595	-0.433279	0.211198
H79	H	1.207546	-0.349162	0.167135
H80	H	1.266811	-0.360310	0.313076
H81	H	1.353485	-0.360294	0.226503
H82	H	1.169571	-0.443715	0.215788
H83	H	1.256231	-0.443702	0.129184
C84	C	1.302455	0.051949	-0.031735
C85	C	1.327265	0.000002	0.045596
H86	H	1.215308	0.051947	-0.084013
H87	H	1.319342	0.087179	0.020754
H88	H	1.355877	0.051944	-0.084406
H89	H	1.273849	0.000010	0.098274
H90	H	1.310365	-0.035237	-0.006898
C91	C	1.708745	-0.000006	0.290314
C92	C	1.701857	-0.000003	0.161299
H93	H	1.795896	-0.000013	0.342584
H94	H	1.667544	0.035231	0.307940
H95	H	1.667485	-0.035247	0.307916
H96	H	1.743110	0.035240	0.143694
H97	H	1.743076	-0.035244	0.143666
C98	C	1.820337	-0.051943	-0.065149
C99	C	1.759613	0.000002	-0.039133
H100	H	1.907489	-0.051941	-0.012883
H101	H	1.779086	-0.087175	-0.047523
H102	H	1.815636	-0.051936	-0.152682
H103	H	1.764306	-0.000008	0.048399
H104	H	1.800875	0.035243	-0.056750
C105	C	0.956781	0.000004	0.280178
C106	C	1.085796	0.000002	0.287067
H107	H	0.904511	0.000009	0.193028
H108	H	0.939142	-0.035233	0.321395
H109	H	0.939191	0.035244	0.321424
H110	H	1.103388	-0.035241	0.245830
H111	H	1.103442	0.035242	0.245833
H112	H	1.714222	-0.149688	0.674173
H113	H	1.421590	0.000007	-0.132884
C114	C	1.168974	-0.525452	0.128490
C115	C	1.251621	-0.566793	0.211189
H116	H	1.105079	-0.547040	0.064533
H117	H	1.129549	-0.500655	0.175695
H118	H	1.216243	-0.500631	0.089141
H119	H	1.204353	-0.591611	0.250546
H120	H	1.291047	-0.591600	0.163978
C121	C	1.263157	-0.818038	0.222771
C122	C	1.345816	-0.859376	0.305464
H123	H	1.199256	-0.839628	0.158824
H124	H	1.223742	-0.793240	0.269983
H125	H	1.310415	-0.793218	0.183408
H126	H	1.298560	-0.884194	0.344834
H127	H	1.385234	-0.884185	0.258246
H128	H	1.808478	-0.442263	0.768392
H129	H	1.808506	-0.557640	0.768391
H130	H	1.714361	-0.734862	0.674195
C131	C	1.862119	-0.843919	0.694262
C132	C	1.741225	-0.859315	0.701034
H133	H	1.926032	-0.865491	0.758200
H134	H	1.866742	-0.854342	0.612262
H135	H	1.875579	-0.801484	0.707753
H136	H	1.727761	-0.901750	0.687534
H137	H	1.736599	-0.848896	0.783054
H138	H	1.372630	-0.734925	0.332293
H139	H	1.372518	-0.265142	0.332289
C140	C	1.224767	-0.156067	0.312184
C141	C	1.345675	-0.140682	0.305434
H142	H	1.160871	-0.134486	0.248250
H143	H	1.211291	-0.198496	0.298684
H144	H	1.220138	-0.145644	0.394194
H145	H	1.350308	-0.151109	0.223427
H146	H	1.359156	-0.098244	0.318924
