data_functionalizedCrystal
_audit_creation_method	'MofGen! by Chris Wilmer'
_symmetry_space_group_name_H-M	'P1'
_symmetry_Int_Tables_number	1
_symmetry_cell_setting	triclinic
loop_
_symmetry_equiv_pos_as_xyz
  x,y,z
_cell_length_a	8.559649
_cell_length_b	8.559649
_cell_length_c	7.088928
_cell_angle_alpha	95.315312
_cell_angle_beta	84.648213
_cell_angle_gamma	69.778664
loop_
_atom_site_label
_atom_site_type_symbol
_atom_site_fract_x
_atom_site_fract_y
_atom_site_fract_z
O1	O	-2.145605	0.073709	0.158957
O2	O	-1.670121	-0.010071	0.158964
O3	O	-1.949753	0.269561	0.158958
O4	O	-1.865973	-0.205923	0.158963
O5	O	-1.912279	0.232211	-0.159016
O6	O	-1.632646	-0.047421	-0.159010
O7	O	-2.108130	0.036359	-0.159017
Cu8	Cu	-1.866967	-0.008941	-0.188047
Cu9	Cu	-1.911285	0.035229	0.187994
O10	O	-1.828498	-0.243273	-0.159011
C11	C	-1.591075	-0.035095	-0.000022
C12	C	-1.411376	-0.053994	-0.000019
C13	C	-1.937366	0.311195	-0.000026
C14	C	-1.956266	0.490896	-0.000015
N15	N	-1.942458	0.066308	0.452482
C16	C	-2.187177	0.061384	-0.000027
C17	C	-2.366877	0.080284	-0.000017
C18	C	-1.840886	-0.284907	-0.000023
C19	C	-1.821987	-0.464606	-0.000021
N20	N	-1.835808	-0.040006	-0.452534
H21	H	-1.466257	0.209704	-0.000009
O22	O	-1.703893	-0.171271	0.449866
C23	C	-1.601133	-0.109890	0.334098
H24	H	-1.678049	0.021401	0.304282
H25	H	-1.491687	-0.104288	0.411124
C26	C	-1.438356	-0.389017	0.180487
C27	C	-1.532829	-0.227768	0.143853
H28	H	-1.396216	-0.461732	0.063139
H29	H	-1.507583	-0.430372	0.258487
H30	H	-1.347164	-0.384325	0.244680
H31	H	-1.624031	-0.232459	0.079684
H32	H	-1.463616	-0.186416	0.065838
O33	O	-2.074170	0.198016	0.549713
C34	C	-2.062055	0.349745	0.500746
H35	H	-1.925864	0.328412	0.445646
H36	H	-2.144220	0.394623	0.384620
C37	C	-2.289072	0.509884	0.746230
C38	C	-2.121797	0.483685	0.678571
H39	H	-2.325931	0.592508	0.855916
H40	H	-2.297240	0.407662	0.779216
H41	H	-2.357522	0.547274	0.649442
H42	H	-2.053348	0.446276	0.775350
H43	H	-2.113619	0.585904	0.645605
H44	H	-1.311989	-0.183421	-0.000007
H45	H	-1.692567	0.436015	-0.000025
H46	H	-2.085692	0.590282	-0.000033
