data_functionalizedCrystal
_audit_creation_method	'MofGen! by Chris Wilmer'
_symmetry_space_group_name_H-M	'P1'
_symmetry_Int_Tables_number	1
_symmetry_cell_setting	triclinic
loop_
_symmetry_equiv_pos_as_xyz
  x,y,z
_cell_length_a	9.065215
_cell_length_b	12.503552
_cell_length_c	9.065218
_cell_angle_alpha	86.426261
_cell_angle_beta	85.015291
_cell_angle_gamma	93.574918
loop_
_atom_site_label
_atom_site_type_symbol
_atom_site_fract_x
_atom_site_fract_y
_atom_site_fract_z
O1	O	1.968807	0.089304	0.207922
O2	O	2.302140	0.422637	0.541256
O3	O	2.635474	0.755970	0.874589
O4	O	1.539522	0.089308	0.225673
O5	O	1.872855	0.422642	0.559006
O6	O	2.206189	0.755975	0.892339
O7	O	1.763038	0.089304	0.002155
O8	O	2.096371	0.422637	0.335488
O9	O	2.429704	0.755970	0.668822
O10	O	1.745292	0.089308	0.431440
O11	O	2.078625	0.422642	0.764773
O12	O	2.411958	0.755975	1.098106
O13	O	1.746208	-0.089338	0.018980
O14	O	2.079542	0.243995	0.352313
O15	O	2.412875	0.577328	0.685646
O16	O	1.522693	-0.089334	0.242497
O17	O	1.856026	0.243999	0.575831
O18	O	2.189360	0.577333	0.909164
O19	O	1.951978	-0.089338	0.224747
O20	O	2.285311	0.243995	0.558080
O21	O	2.618645	0.577328	0.891413
Cu22	Cu	1.735799	-0.105648	0.235158
Cu23	Cu	2.069132	0.227686	0.568492
Cu24	Cu	2.402465	0.561019	0.901825
Cu25	Cu	1.755701	0.105617	0.215261
Cu26	Cu	2.089035	0.438951	0.548595
Cu27	Cu	2.422368	0.772284	0.881928
O28	O	1.728462	-0.089334	0.448264
O29	O	2.061796	0.243999	0.781598
O30	O	2.395129	0.577333	1.114931
C31	C	1.476121	-0.000012	0.232380
C32	C	1.809454	0.333321	0.565713
C33	C	2.142788	0.666654	0.899047
C34	C	1.312278	-0.000010	0.227282
C35	C	1.645611	0.333323	0.560615
C36	C	1.978945	0.666656	0.893948
N37	N	1.721811	-0.254240	0.249152
N38	N	2.055145	0.079093	0.582485
N39	N	2.388478	0.412427	0.915819
C40	C	1.790269	-0.526675	0.180666
C41	C	2.123602	-0.193341	0.513999
C42	C	2.456935	0.139992	0.847333
C43	C	1.701248	-0.473349	0.269737
C44	C	2.034581	-0.140015	0.603070
C45	C	2.367914	0.193318	0.936404
C46	C	1.712692	-0.351425	0.258281
C47	C	2.046026	-0.018092	0.591614
C48	C	2.379359	0.315241	0.924947
C49	C	1.778826	-0.648609	0.192121
C50	C	2.112159	-0.315276	0.525454
C51	C	2.445493	0.018058	0.858787
C52	C	2.015379	-0.000016	0.218039
C53	C	2.348713	0.333318	0.551373
C54	C	2.682046	0.666651	0.884706
C55	C	2.179223	-0.000010	0.223137
C56	C	2.512556	0.333323	0.556470
C57	C	2.845890	0.666656	0.889803
C58	C	1.752918	-0.000016	-0.044419
C59	C	2.086251	0.333318	0.288914
C60	C	2.419584	0.666651	0.622247
C61	C	1.747818	-0.000010	-0.208263
C62	C	2.081152	0.333323	0.125071
C63	C	2.414485	0.666656	0.458404
N64	N	1.769700	0.254210	0.201256
N65	N	2.103034	0.587543	0.534589
N66	N	2.436367	0.920877	0.867923
C67	C	1.738583	-0.000012	0.494839
C68	C	2.071916	0.333321	0.828172
C69	C	2.405249	0.666654	1.161505
C70	C	1.743682	-0.000010	0.658681
C71	C	2.077016	0.333323	0.992015
C72	C	2.410349	0.666656	1.325348
H73	H	1.616440	-0.519263	0.354598
H74	H	1.949774	-0.185929	0.687932
H75	H	2.283107	0.147404	1.021265
H76	H	1.875073	-0.480766	0.095812
H77	H	2.208406	-0.147433	0.429146
H78	H	2.541739	0.185901	0.762479
