data_functionalizedCrystal
_audit_creation_method	'MofGen! by Chris Wilmer'
_symmetry_space_group_name_H-M	'P1'
_symmetry_Int_Tables_number	1
_symmetry_cell_setting	triclinic
loop_
_symmetry_equiv_pos_as_xyz
  x,y,z
_cell_length_a	16.956985
_cell_length_b	10.489741
_cell_length_c	15.455313
_cell_angle_alpha	92.692689
_cell_angle_beta	92.483140
_cell_angle_gamma	99.703819
loop_
_atom_site_label
_atom_site_type_symbol
_atom_site_fract_x
_atom_site_fract_y
_atom_site_fract_z
O1	O	-1.061805	0.046865	-0.072161
O2	O	-0.829904	0.091620	-0.072156
O3	O	-0.951131	-0.116989	-0.072153
O4	O	-0.940578	0.255474	-0.072163
O5	O	-0.944199	-0.105106	0.072109
O6	O	-0.822972	0.103503	0.072106
O7	O	-1.054873	0.058748	0.072101
Cu8	Cu	-0.938289	0.082211	0.085276
Cu9	Cu	-0.946488	0.068158	-0.085330
O10	O	-0.933646	0.267357	0.072099
C11	C	-0.796743	0.099854	-0.000024
C12	C	-0.708261	0.106668	-0.000022
C13	C	-0.675523	-0.007251	-0.000017
C14	C	-0.592385	-0.000842	-0.000021
C15	C	-0.541986	0.119488	-0.000025
C16	C	-0.574730	0.233416	-0.000033
C17	C	-0.657867	0.227004	-0.000035
C18	C	-0.292396	0.151222	-0.000025
C19	C	-0.209253	0.157625	-0.000021
C20	C	-0.226914	-0.076634	-0.000011
C21	C	-0.310051	-0.083034	-0.000007
C22	C	-0.342788	0.030893	-0.000020
N23	N	-0.457005	0.126043	-0.000026
N24	N	-0.427768	0.024336	-0.000025
C25	C	-0.946868	-0.158483	-0.000023
C26	C	-0.944483	-0.299826	-0.000024
C27	C	-0.867350	-0.358699	-0.000029
C28	C	-0.900369	-0.449341	0.071099
C29	C	-0.907223	-0.461033	-0.071132
C30	C	-0.977531	-0.388601	0.071162
C31	C	-0.984377	-0.400288	-0.071132
C32	C	-1.017451	-0.490907	0.000013
C33	C	-0.088034	0.050516	-0.000026
C34	C	-0.176515	0.043706	-0.000015
C35	C	-0.937909	0.308851	-0.000034
C36	C	-0.940294	0.450194	-0.000038
N37	N	-0.932529	0.092094	0.205271
N38	N	-0.952255	0.058264	-0.205326
C39	C	-0.984048	0.003498	0.250667
C40	C	-0.979699	0.010983	0.341474
C41	C	-0.923834	0.107070	0.386885
C42	C	-0.872308	0.195670	0.341484
C43	C	-0.876654	0.188179	0.250678
C44	C	-0.905075	0.139373	0.658466
C45	C	-0.900735	0.146860	0.749279
C46	C	-1.008125	-0.037830	0.749263
C47	C	-1.012469	-0.045308	0.658455
C48	C	-0.960941	0.043287	0.613062
N49	N	-0.919389	0.114726	0.479706
N50	N	-0.965383	0.035625	0.520243
H51	H	-0.319040	0.243988	-0.000041
H52	H	-1.080925	-0.547955	0.000051
H53	H	-0.877466	-0.493029	-0.131271
H54	H	-0.168220	0.255617	-0.000020
H55	H	-1.057960	-0.123550	0.621484
N56	N	-0.691299	0.343382	-0.000045
N57	N	-0.646294	0.450813	-0.000049
H58	H	-0.669903	0.533010	-0.000060
N59	N	-1.014815	-0.348652	0.146687
N60	N	-1.085373	-0.398085	0.159716
H61	H	-1.111703	-0.369870	0.213056
H62	H	-0.716552	-0.105237	-0.000010
N63	N	-1.041077	-0.094726	0.204298
N64	N	-1.087038	-0.173870	0.244845
H65	H	-1.127297	-0.243273	0.212100
H66	H	-0.863120	0.211513	0.621514
H67	H	-1.050076	-0.109962	0.786231
H68	H	-0.533689	0.331391	-0.000041
N69	N	-1.032328	-0.079531	0.387831
N70	N	-1.082207	-0.165314	0.347275
H71	H	-1.119378	-0.229246	0.380013
N72	N	-1.028926	-0.372471	-0.146564
N73	N	-1.100583	-0.424686	-0.159945
H74	H	-1.132044	-0.405041	-0.213225
N75	N	-0.843656	0.245017	0.795653
N76	N	-0.797650	0.324105	0.755114
H77	H	-0.757338	0.393423	0.787866
H78	H	-0.826817	0.273903	0.378463
N79	N	-0.193486	-0.193014	-0.000015
N80	N	-0.238494	-0.300443	-0.000017
H81	H	-0.214889	-0.382643	-0.000023
H82	H	-0.834700	0.260321	0.213718
H83	H	-0.565733	-0.093607	-0.000017
N84	N	-0.787786	-0.286857	0.000065
N85	N	-0.738303	-0.294925	0.061047
H86	H	-0.682112	-0.244186	0.061116
N87	N	-0.361518	-0.205960	-0.000004
N88	N	-0.332276	-0.307667	-0.000001
H89	H	-0.368624	-0.394487	0.000003
H90	H	-0.864843	-0.471478	0.131234
