data_functionalizedCrystal
_audit_creation_method	'MofGen! by Chris Wilmer'
_symmetry_space_group_name_H-M	'P1'
_symmetry_Int_Tables_number	1
_symmetry_cell_setting	triclinic
loop_
_symmetry_equiv_pos_as_xyz
  x,y,z
_cell_length_a	12.811445
_cell_length_b	22.610064
_cell_length_c	12.837942
_cell_angle_alpha	90.005124
_cell_angle_beta	90.587018
_cell_angle_gamma	95.439689
loop_
_atom_site_label
_atom_site_type_symbol
_atom_site_fract_x
_atom_site_fract_y
_atom_site_fract_z
O1	O	1.406663	0.124629	-0.139682
O2	O	1.102596	0.108322	-0.154869
O3	O	1.247887	0.116110	0.003656
O4	O	1.261372	0.116840	-0.298207
O5	O	1.247861	0.017739	0.003633
O6	O	1.102569	0.009951	-0.154892
O7	O	1.406637	0.026258	-0.139706
Zn8	Zn	1.254599	0.002486	-0.147302
Zn9	Zn	1.254634	0.132094	-0.147272
O10	O	1.261346	0.018470	-0.298231
C11	C	1.063393	0.057035	-0.154029
C12	C	0.946619	0.050772	-0.151479
N13	N	1.254583	-0.085967	-0.147322
C14	C	0.727214	0.146258	-0.146683
C15	C	0.617495	0.140377	-0.144287
C16	C	0.617459	0.033127	-0.144301
C17	C	0.727178	0.039009	-0.146696
C18	C	0.782052	0.095576	-0.147885
C19	C	0.891774	0.101458	-0.150273
C20	C	0.891735	-0.005791	-0.150294
C21	C	0.782016	-0.011673	-0.147899
C22	C	1.318973	-0.491157	-0.077088
C23	C	1.318977	-0.553077	-0.077080
O24	O	1.373681	-0.582163	-0.017379
N25	N	1.254630	-0.587502	-0.147250
C26	C	1.190267	-0.560005	-0.217425
O27	O	1.135534	-0.594972	-0.277109
C28	C	1.190258	-0.498086	-0.217427
C29	C	1.254617	-0.463664	-0.147259
C30	C	1.383326	-0.456735	-0.006925
C31	C	1.383322	-0.394819	-0.006934
C32	C	1.318966	-0.367326	-0.077106
C33	C	1.254613	-0.401748	-0.147269
C34	C	1.125889	-0.470591	-0.287596
C35	C	1.125885	-0.408668	-0.287591
C36	C	1.190244	-0.374245	-0.217424
C37	C	1.190253	-0.312340	-0.217449
N38	N	1.254600	-0.277915	-0.147279
C39	C	1.318957	-0.305408	-0.077108
C40	C	1.190290	-0.690037	-0.217415
C41	C	1.190304	-0.751954	-0.217419
C42	C	1.319014	-0.745022	-0.077073
C43	C	1.319004	-0.683103	-0.077074
C44	C	1.254637	-0.655612	-0.147245
C45	C	1.318945	-0.175381	-0.077133
C46	C	1.318939	-0.113460	-0.077151
C47	C	1.190226	-0.120398	-0.217493
C48	C	1.190236	-0.182313	-0.217479
C49	C	1.254599	-0.209803	-0.147290
O50	O	1.135575	-0.283213	-0.277117
O51	O	1.373670	-0.270434	-0.017425
C52	C	1.445840	0.077546	-0.140545
C53	C	1.562613	0.083813	-0.143095
C54	C	1.243319	0.066681	0.042285
C55	C	1.229732	0.065953	0.157421
N56	N	1.254657	0.220547	-0.147244
C57	C	1.265914	0.067900	-0.336859
C58	C	1.279500	0.068632	-0.451995
C59	C	1.393063	0.074725	0.397673
C60	C	1.380303	0.074041	0.505854
C61	C	1.191452	0.063907	0.481966
C62	C	1.204212	0.064591	0.373785
C63	C	1.305021	0.069999	0.331643
C64	C	1.317781	0.070678	0.223460
C65	C	1.128931	0.060548	0.199573
C66	C	1.116170	0.059864	0.307754
H67	H	0.771894	0.192318	-0.147646
C68	C	1.477151	0.079238	0.578489
C69	C	1.494339	0.029081	0.656140
C70	C	1.591191	0.034278	0.728776
C71	C	1.670855	0.089632	0.723760
C72	C	1.653669	0.139793	0.646106
C73	C	1.556817	0.134596	0.573471
H74	H	1.435365	-0.011900	0.659856
H75	H	1.603913	-0.002855	0.786261
H76	H	1.742551	0.093480	0.777530
H77	H	1.712643	0.180774	0.642391
H78	H	1.544095	0.171729	0.515986
H79	H	0.936396	-0.047060	-0.151272
H80	H	1.057240	0.056695	0.145799
H81	H	0.936451	0.147518	-0.151241
H82	H	0.572850	0.181647	-0.143311
H83	H	1.137831	-0.098003	-0.274629
C84	C	1.080574	0.057974	0.528345
C85	C	1.045815	0.005040	0.599448
C86	C	0.934938	-0.000888	0.645833
C87	C	0.858821	0.046118	0.621115
C88	C	0.893579	0.099055	0.550009
C89	C	1.004455	0.104982	0.503624
H90	H	1.102162	-0.029759	0.617749
H91	H	0.909209	-0.040075	0.698471
H92	H	0.776744	0.041729	0.655452
H93	H	0.837231	0.133854	0.531709
H94	H	1.030185	0.144170	0.450987
C95	C	0.557079	-0.029091	-0.143009
C96	C	0.569225	-0.072672	-0.233300
C97	C	0.508841	-0.134890	-0.232014
C98	C	0.436311	-0.153526	-0.140437
C99	C	0.424162	-0.109943	-0.050140
C100	C	0.484545	-0.047726	-0.051426
H101	H	0.622919	-0.058878	-0.301097
H102	H	0.517836	-0.167153	-0.298859
H103	H	0.391612	-0.199583	-0.139486
H104	H	0.370468	-0.123738	0.017657
H105	H	0.475551	-0.015463	0.015419
H106	H	1.073482	-0.498609	-0.344732
C107	C	1.454106	-0.356958	0.070261
C108	C	1.440528	-0.366200	0.188365
C109	C	1.511311	-0.328343	0.265567
C110	C	1.595673	-0.281244	0.224666
C111	C	1.609255	-0.272000	0.106556
C112	C	1.538472	-0.309857	0.029354
H113	H	1.378075	-0.401068	0.218648
H114	H	1.501257	-0.335186	0.353000
H115	H	1.648071	-0.253219	0.281816
H116	H	1.671708	-0.237132	0.076273
H117	H	1.548526	-0.303013	-0.058079
C118	C	1.389735	-0.075596	0.000041
C119	C	1.389741	-0.007487	0.000040
C120	C	1.460532	0.030375	0.077229
C121	C	1.531316	0.000128	0.154421
C122	C	1.531312	-0.067984	0.154425
C123	C	1.460522	-0.105846	0.077235
H124	H	1.337340	0.014907	-0.057105
H125	H	1.460534	0.080796	0.077226
H126	H	1.583720	0.028156	0.211561
H127	H	1.583713	-0.090378	0.211569
H128	H	1.460519	-0.156267	0.077238
C129	C	0.721647	-0.073894	-0.146591
C130	C	0.733796	-0.117483	-0.236869
C131	C	0.673429	-0.179705	-0.235559
C132	C	0.600913	-0.198338	-0.143970
C133	C	0.588761	-0.154747	-0.053685
C134	C	0.649128	-0.092525	-0.054995
H135	H	0.787479	-0.103691	-0.304675
H136	H	0.682425	-0.211973	-0.302395
H137	H	0.556225	-0.244398	-0.143000
H138	H	0.535077	-0.168539	0.014121
H139	H	0.640132	-0.060257	0.011841
H140	H	1.137878	-0.667657	-0.274565
H141	H	1.073466	-0.386288	-0.344732
C142	C	1.389793	-0.645242	0.000117
C143	C	1.474149	-0.598142	-0.040791
C144	C	1.544939	-0.560285	0.036406
C145	C	1.531372	-0.569527	0.154511
C146	C	1.447012	-0.616629	0.195425
C147	C	1.376222	-0.654487	0.118228
H148	H	1.484195	-0.591298	-0.128225
H149	H	1.607387	-0.525416	0.006118
H150	H	1.583774	-0.541503	0.211657
H151	H	1.436965	-0.623473	0.282859
H152	H	1.313773	-0.689355	0.148516
H153	H	1.371354	-0.197756	-0.019977
H154	H	1.435732	-0.479114	0.050222
C155	C	1.005286	0.053918	0.354120
C156	C	0.970536	0.000976	0.425206
C157	C	0.859651	-0.004971	0.471571
C158	C	0.783516	0.042024	0.446849
C159	C	0.818265	0.094970	0.375760
C160	C	0.929150	0.100917	0.329395
H161	H	1.026898	-0.033816	0.443510
H162	H	0.833929	-0.044166	0.524196
H163	H	0.701432	0.037621	0.481171
H164	H	0.761903	0.129761	0.357456
H165	H	0.954872	0.140111	0.276770
H166	H	1.371415	-0.767418	-0.019934
H167	H	1.399865	0.075079	0.189150
C168	C	1.119447	-0.220179	-0.294670
C169	C	0.999699	-0.218092	-0.292342
C170	C	0.928900	-0.255953	-0.369527
C171	C	0.977848	-0.295900	-0.449040
C172	C	1.097603	-0.297989	-0.451371
C173	C	1.168402	-0.260128	-0.374186
H174	H	0.963458	-0.188519	-0.233479
H175	H	0.840249	-0.254406	-0.367801
H176	H	0.925439	-0.323927	-0.506177
H177	H	1.133843	-0.327562	-0.510234
H178	H	1.257053	-0.261675	-0.375912
H179	H	1.475146	0.079122	0.363361
H180	H	1.137909	-0.779976	-0.274567
