data_functionalizedCrystal
_audit_creation_method	'MofGen! by Chris Wilmer'
_symmetry_space_group_name_H-M	'P1'
_symmetry_Int_Tables_number	1
_symmetry_cell_setting	triclinic
loop_
_symmetry_equiv_pos_as_xyz
  x,y,z
_cell_length_a	14.971482
_cell_length_b	17.000371
_cell_length_c	13.448316
_cell_angle_alpha	89.992780
_cell_angle_beta	89.993798
_cell_angle_gamma	79.605928
loop_
_atom_site_label
_atom_site_type_symbol
_atom_site_fract_x
_atom_site_fract_y
_atom_site_fract_z
O1	O	1.178668	0.103704	-0.082680
O2	O	0.917276	0.116128	-0.082684
O3	O	1.064202	-0.005935	-0.082675
O4	O	1.031742	0.225767	-0.082689
O5	O	1.064186	-0.005943	0.082709
O6	O	0.917259	0.116120	0.082699
O7	O	1.178652	0.103697	0.082704
Cu8	Cu	1.047954	0.109908	0.097803
Cu9	Cu	1.047974	0.109917	-0.097783
O10	O	1.031725	0.225760	0.082694
C11	C	0.883987	0.115569	0.000007
C12	C	0.784823	0.113906	0.000005
C13	C	0.738231	0.113118	0.090157
C14	C	0.645059	0.111542	0.090158
C15	C	0.598478	0.110760	0.000006
C16	C	0.645076	0.111545	-0.090152
C17	C	0.738248	0.113115	-0.090152
C18	C	0.450875	0.108275	-0.090146
C19	C	0.357696	0.106707	-0.090146
C20	C	0.357686	0.106702	0.090165
C21	C	0.450858	0.108272	0.090165
C22	C	0.497449	0.109059	0.000006
C23	C	1.065938	-0.035591	0.000017
C24	C	1.071122	-0.123945	0.000016
C25	C	0.991338	-0.156045	0.000010
C26	C	0.996215	-0.239063	0.000013
C27	C	1.080877	-0.289980	0.000015
C28	C	1.160667	-0.257874	0.000023
C29	C	1.155789	-0.174857	0.000028
C30	C	1.099718	-0.541108	0.000008
C31	C	1.104589	-0.624130	0.000001
C32	C	0.940137	-0.605314	-0.000008
C33	C	0.935267	-0.522296	-0.000009
C34	C	1.015057	-0.490197	0.000005
C35	C	1.085864	-0.374838	0.000014
C36	C	1.010069	-0.405341	0.000012
C37	C	1.211941	0.104256	0.000011
C38	C	1.311105	0.105919	0.000006
C39	C	1.029990	0.255416	0.000001
C40	C	1.024805	0.343769	-0.000005
N41	N	1.047947	0.109901	0.235367
N42	N	1.047988	0.109917	-0.235347
C43	C	1.113023	0.055874	0.287412
C44	C	1.113029	0.055873	0.391515
C45	C	1.047961	0.109904	0.443572
C46	C	0.982878	0.163934	0.391520
C47	C	0.982869	0.163930	0.287418
C48	C	0.982903	0.163939	0.608500
C49	C	0.982912	0.163944	0.712608
C50	C	1.113062	0.055882	0.712596
C51	C	1.113053	0.055879	0.608495
C52	C	1.047971	0.109910	0.556450
H53	H	0.319746	0.106062	0.163576
H54	H	0.319772	0.106070	-0.163555
H55	H	0.488807	0.108916	-0.163563
C56	C	0.502090	0.109128	0.189337
C57	C	0.550549	0.179259	0.214142
C58	C	0.601778	0.180110	0.313319
C59	C	0.604548	0.110828	0.387691
C60	C	0.556087	0.040692	0.362888
C61	C	0.504859	0.039841	0.263711
H62	H	0.548501	0.230550	0.159086
H63	H	0.637652	0.232030	0.331679
H64	H	0.642471	0.111458	0.461108
H65	H	0.558136	-0.010599	0.417944
H66	H	0.468985	-0.012079	0.245351
H67	H	1.166012	0.011879	0.245034
C68	C	0.852371	-0.640622	-0.000013
C69	C	0.783874	-0.621436	-0.085893
C70	C	0.696103	-0.656742	-0.085894
C71	C	0.676830	-0.711234	-0.000016
C72	C	0.745329	-0.730422	0.085870
C73	C	0.833100	-0.695116	0.085871
H74	H	0.798140	-0.581095	-0.149470
H75	H	0.645396	-0.642537	-0.149473
H76	H	0.611857	-0.737369	-0.000017
H77	H	0.731064	-0.770763	0.149448
H78	H	0.883808	-0.709321	0.149450
H79	H	0.607143	0.110903	-0.163555
H80	H	0.776181	0.113758	-0.163563
H81	H	0.929903	0.207935	0.566128
H82	H	0.922398	-0.114594	0.000004
H83	H	1.154795	-0.416304	0.000014
C84	C	0.908446	-0.274366	0.000005
C85	C	0.839930	-0.255187	0.085879
C86	C	0.752154	-0.290486	0.085874
C87	C	0.732894	-0.344963	-0.000004
C88	C	0.801412	-0.364144	-0.085884
C89	C	0.889188	-0.328846	-0.085879
H90	H	0.854186	-0.214858	0.149457
H91	H	0.701433	-0.276286	0.149449
H92	H	0.667917	-0.371093	-0.000007
H93	H	0.787157	-0.404474	-0.149461
H94	H	0.939909	-0.343046	-0.149454
C95	C	1.197721	-0.680144	0.000010
C96	C	1.264870	-0.676512	0.085901
C97	C	1.357995	-0.732527	0.085908
C98	C	1.383971	-0.792174	0.000024
C99	C	1.316820	-0.795809	-0.085873
C100	C	1.223695	-0.739794	-0.085880
H101	H	1.245643	-0.632355	0.149482
H102	H	1.407705	-0.729836	0.149495
H103	H	1.452907	-0.833640	0.000030
H104	H	1.336047	-0.839966	-0.149455
H105	H	1.173985	-0.742485	-0.149467
H106	H	1.166053	0.011889	0.754977
H107	H	0.866326	-0.480844	-0.000014
H108	H	0.776150	0.113762	0.163569
C109	C	1.187487	-0.505811	0.000004
C110	C	1.255993	-0.525005	0.085874
C111	C	1.343770	-0.489707	0.085865
C112	C	1.363040	-0.435216	-0.000015
C113	C	1.294532	-0.416019	-0.085892
C114	C	1.206756	-0.451317	-0.085882
H115	H	1.241730	-0.565345	0.149454
H116	H	1.394483	-0.503918	0.149437
H117	H	1.428017	-0.409086	-0.000023
H118	H	1.308795	-0.375679	-0.149471
H119	H	1.156042	-0.437106	-0.149454
C120	C	1.243552	-0.139543	0.000033
C121	C	1.312046	-0.158729	0.085915
C122	C	1.399812	-0.123415	0.085926
C123	C	1.419083	-0.068915	0.000055
C124	C	1.350586	-0.049726	-0.085833
C125	C	1.262821	-0.085040	-0.085844
H126	H	1.297783	-0.199075	0.149487
H127	H	1.450517	-0.137620	0.149507
H128	H	1.484052	-0.042774	0.000064
H129	H	1.364850	-0.009380	-0.149406
H130	H	1.212115	-0.070835	-0.149425
C131	C	1.184626	-0.003553	0.551227
C132	C	1.190263	-0.094188	0.565550
C133	C	1.261834	-0.153622	0.508281
C134	C	1.327769	-0.122420	0.436689
C135	C	1.322135	-0.031781	0.422363
C136	C	1.250563	0.027653	0.479632
H137	H	1.141452	-0.117290	0.618550
H138	H	1.266005	-0.220719	0.518886
H139	H	1.380751	-0.166417	0.394294
H140	H	1.370946	-0.008680	0.369363
H141	H	1.246392	0.094750	0.469026
H142	H	0.607131	0.110888	0.163569
H143	H	1.229600	-0.299337	0.000031
H144	H	0.929877	0.207924	0.245044
H145	H	0.941138	-0.363881	0.000017
H146	H	1.166018	0.011880	0.433889
H147	H	0.929927	0.207941	0.754987
H148	H	0.929895	0.207924	0.433910
