data_functionalizedCrystal
_audit_creation_method	'MofGen! by Chris Wilmer'
_symmetry_space_group_name_H-M	'P1'
_symmetry_Int_Tables_number	1
_symmetry_cell_setting	triclinic
loop_
_symmetry_equiv_pos_as_xyz
  x,y,z
_cell_length_a	10.654550
_cell_length_b	13.101039
_cell_length_c	10.654551
_cell_angle_alpha	86.603408
_cell_angle_beta	84.485180
_cell_angle_gamma	93.387017
loop_
_atom_site_label
_atom_site_type_symbol
_atom_site_fract_x
_atom_site_fract_y
_atom_site_fract_z
O1	O	1.674684	0.085134	0.169534
O2	O	1.309207	0.085152	0.186338
O3	O	1.500348	0.085140	-0.004803
O4	O	1.483544	0.085145	0.360675
O5	O	1.486634	-0.085289	0.008934
O6	O	1.295493	-0.085277	0.200076
O7	O	1.660970	-0.085295	0.183271
Zn8	Zn	1.476054	-0.112345	0.193854
Zn9	Zn	1.494123	0.112202	0.175755
O10	O	1.469830	-0.085284	0.374412
C11	C	1.255552	-0.000060	0.191973
C12	C	1.116110	-0.000053	0.188280
N13	N	1.463732	-0.265593	0.206206
C14	C	1.036625	-0.000054	0.300822
C15	C	0.905602	-0.000072	0.297347
C16	C	0.933564	-0.000083	0.068778
C17	C	1.064583	-0.000073	0.072255
C18	C	1.446967	-0.474635	0.223022
C19	C	1.523216	-0.525515	0.146582
C20	C	1.513888	-0.641833	0.155938
C21	C	1.456294	-0.358306	0.213667
C22	C	1.714625	-0.000081	0.177636
C23	C	1.854068	-0.000081	0.181328
C24	C	1.492257	-0.000073	-0.044732
C25	C	1.488564	-0.000068	-0.184176
N26	N	1.506455	0.265450	0.163394
C27	C	1.494307	0.092834	-0.257168
C28	C	1.490827	0.092835	-0.388188
C29	C	1.475867	-0.092976	-0.373213
C30	C	1.479338	-0.092976	-0.242194
C31	C	1.477921	-0.000068	0.414342
C32	C	1.481614	-0.000067	0.553785
H33	H	0.840890	-0.000075	0.388990
H34	H	1.374689	-0.518427	0.295488
C35	C	0.745136	-0.000094	-0.038043
C36	C	0.876921	-0.000091	-0.058753
H37	H	0.710173	-0.000090	-0.116779
H38	H	0.713154	-0.059523	0.013125
H39	H	0.722706	0.059342	0.003555
H40	H	0.899350	-0.059532	-0.100343
H41	H	0.908914	0.059344	-0.109941
C42	C	1.355530	-0.200763	-0.498709
C43	C	1.465746	-0.195094	-0.437000
H44	H	1.349293	-0.263806	-0.538093
H45	H	1.284095	-0.196907	-0.438973
H46	H	1.358467	-0.145426	-0.560928
H47	H	1.462804	-0.250427	-0.374774
H48	H	1.537198	-0.198960	-0.496742
C49	C	1.508728	0.276499	-0.285133
C50	C	1.504431	0.194957	-0.193391
H51	H	1.514968	0.339546	-0.245758
H52	H	1.580169	0.272633	-0.344859
H53	H	1.433950	0.272627	-0.326986
H54	H	1.579214	0.198825	-0.151544
H55	H	1.432984	0.198825	-0.133642
H56	H	1.495501	0.168485	-0.447613
H57	H	1.595501	-0.481717	0.074113
C58	C	1.464212	-0.276650	-0.240542
C59	C	1.473028	-0.195102	-0.161951
H60	H	1.460321	-0.339694	-0.191001
H61	H	1.390066	-0.272783	-0.283016
H62	H	1.536284	-0.272787	-0.300898
H63	H	1.400951	-0.198961	-0.101601
H64	H	1.547181	-0.198972	-0.119457
H65	H	1.078572	-0.000046	0.395297
H66	H	1.129303	-0.000074	-0.019395
