data_functionalizedCrystal
_audit_creation_method	'MofGen! by Chris Wilmer'
_symmetry_space_group_name_H-M	'P1'
_symmetry_Int_Tables_number	1
_symmetry_cell_setting	triclinic
loop_
_symmetry_equiv_pos_as_xyz
  x,y,z
_cell_length_a	11.792254
_cell_length_b	15.944493
_cell_length_c	10.268362
_cell_angle_alpha	89.995473
_cell_angle_beta	90.004577
_cell_angle_gamma	83.836821
loop_
_atom_site_label
_atom_site_type_symbol
_atom_site_fract_x
_atom_site_fract_y
_atom_site_fract_z
O1	O	1.505920	0.115177	0.108281
O2	O	1.175479	0.127031	0.108282
O3	O	1.349757	-0.001133	0.108292
O4	O	1.331642	0.243341	0.108271
O5	O	1.349741	-0.001128	-0.108309
O6	O	1.175463	0.127036	-0.108319
O7	O	1.505903	0.115181	-0.108320
Cu8	Cu	1.340681	0.121109	-0.128097
Cu9	Cu	1.340701	0.121104	0.128059
O10	O	1.331625	0.243346	-0.108330
C11	C	1.133187	0.126287	-0.000018
C12	C	1.007193	0.124052	-0.000017
C13	C	0.904872	0.122236	-0.000011
C14	C	0.776504	0.119965	-0.000010
C15	C	1.349009	-0.032429	-0.000003
C16	C	1.346789	-0.125687	0.000014
C17	C	1.449373	-0.360981	-0.000011
C18	C	1.394061	-0.411803	0.106784
C19	C	1.342676	-0.296427	-0.000002
C20	C	1.394020	-0.411775	-0.106767
C21	C	1.338711	-0.461355	-0.000023
C22	C	1.287393	-0.346020	0.106881
C23	C	1.287367	-0.345989	-0.106766
C24	C	1.231977	-0.396778	0.000055
C25	C	1.344963	-0.201417	0.000011
C26	C	1.336415	-0.556362	-0.000027
C27	C	1.548196	0.115926	-0.000017
C28	C	1.674190	0.118161	-0.000010
C29	C	1.332374	0.274642	-0.000033
C30	C	1.334594	0.367900	-0.000041
N31	N	1.340676	0.121112	-0.308263
C32	C	1.340684	0.121113	-0.426105
C33	C	1.340698	0.121105	-0.573943
N34	N	1.340716	0.121094	0.308225
H35	H	1.541279	-0.344935	0.000096
H36	H	1.140000	-0.412662	0.000114
C37	C	1.454939	-0.450640	0.228748
H38	H	1.532131	-0.438644	0.228620
H39	H	1.417804	-0.427248	0.304588
H40	H	1.452460	-0.509996	0.228258
C41	C	1.226586	-0.307375	0.228995
H42	H	1.228429	-0.247955	0.228282
H43	H	1.149604	-0.319842	0.229311
H44	H	1.264238	-0.330480	0.304737
C45	C	1.226545	-0.307131	-0.228739
H46	H	1.264575	-0.329750	-0.304551
H47	H	1.149740	-0.319999	-0.229509
H48	H	1.227824	-0.247664	-0.227423
H49	H	1.439095	-0.440499	-0.197048
