data_functionalizedCrystal
_audit_creation_method	'MofGen! by Chris Wilmer'
_symmetry_space_group_name_H-M	'P1'
_symmetry_Int_Tables_number	1
_symmetry_cell_setting	triclinic
loop_
_symmetry_equiv_pos_as_xyz
  x,y,z
_cell_length_a	14.908178
_cell_length_b	19.121224
_cell_length_c	14.908694
_cell_angle_alpha	95.898058
_cell_angle_beta	90.159098
_cell_angle_gamma	84.402490
loop_
_atom_site_label
_atom_site_type_symbol
_atom_site_fract_x
_atom_site_fract_y
_atom_site_fract_z
Zn1	Zn	-0.331726	-1.083610	-0.550522
Zn2	Zn	0.168274	-0.583610	-0.050522
Zn3	Zn	-0.474137	-1.069961	-0.390690
Zn4	Zn	0.025863	-0.569961	0.109310
Zn5	Zn	-0.329469	-0.959182	-0.392967
Zn6	Zn	0.170531	-0.459182	0.107033
Zn7	Zn	-0.488476	-0.958378	-0.534536
Zn8	Zn	0.011524	-0.458378	-0.034536
O9	O	-0.405952	-1.017783	-0.467179
O10	O	0.094048	-0.517783	0.032821
O11	O	-0.345560	-1.180571	-0.535056
O12	O	0.154440	-0.680571	-0.035056
O13	O	-0.448001	-1.049890	-0.264854
O14	O	0.051999	-0.549890	0.235146
O15	O	-0.203624	-0.981736	-0.421510
O16	O	0.296376	-0.481736	0.078490
O17	O	-0.450189	-1.170543	-0.417628
O18	O	0.049811	-0.670543	0.082372
O19	O	-0.205282	-1.073153	-0.537265
O20	O	0.294718	-0.573153	-0.037265
O21	O	-0.341714	-0.968501	-0.266528
O22	O	0.158286	-0.468501	0.233472
O23	O	-0.355619	-0.860303	-0.406010
O24	O	0.144381	-0.360303	0.093990
O25	O	-0.474628	-0.980367	-0.662794
O26	O	0.025372	-0.480367	-0.162794
O27	O	-0.472440	-0.859713	-0.510020
O28	O	0.027560	-0.359713	-0.010020
O29	O	-0.359465	-1.072374	-0.674539
O30	O	0.140535	-0.572374	-0.174539
O31	O	-0.602183	-1.049111	-0.402128
O32	O	-0.102183	-0.549111	0.097872
O33	O	-0.612718	-0.967131	-0.507811
O34	O	-0.112718	-0.467131	-0.007811
C35	C	-0.415341	-0.834398	-0.456528
C36	C	0.084659	-0.334398	0.043472
C37	C	-0.419381	-0.755945	-0.451991
C38	C	0.080619	-0.255945	0.048009
C39	C	-0.444957	-0.311970	-0.423293
C40	C	0.055043	0.188030	0.076707
C41	C	-0.441156	-0.385684	-0.427549
C42	C	0.058844	0.114316	0.072451
C43	C	-0.384881	-0.427765	-0.490904
C44	C	0.115119	0.072235	0.009096
C45	C	-0.332396	-0.396126	-0.550000
C46	C	0.167604	0.103874	-0.050000
C47	C	-0.336193	-0.322413	-0.545740
C48	C	0.163807	0.177587	-0.045740
C49	C	-0.370693	-0.650593	-0.506827
C50	C	0.129307	-0.150593	-0.006827
C51	C	-0.366902	-0.724311	-0.511085
C52	C	0.133098	-0.224311	-0.011085
C53	C	-0.475662	-0.713864	-0.388632
C54	C	0.024338	-0.213864	0.111368
C55	C	-0.479457	-0.640150	-0.384381
C56	C	0.020543	-0.140150	0.115619
C57	C	-0.426969	-0.608518	-0.443474
C58	C	0.073031	-0.108518	0.056526
C59	C	-0.380997	-0.503113	-0.495257
C60	C	0.119003	-0.003113	0.004743
C61	C	-0.430849	-0.533171	-0.439116
C62	C	0.069151	-0.033171	0.060884
C63	C	-0.640159	-1.006573	-0.453009
C64	C	-0.140159	-0.506573	0.046991
C65	C	-0.740352	-1.001843	-0.446980
C66	C	-0.240352	-0.501843	0.053020
C67	C	-0.930212	-1.088085	-0.556308
C68	C	-0.430212	-0.588085	-0.056308
C69	C	-1.024352	-1.083643	-0.550647
C70	C	-0.524352	-0.583643	-0.050647
C71	C	-1.022774	-0.988515	-0.430003
C72	C	-0.522774	-0.488515	0.069997
C73	C	-0.928634	-0.992957	-0.435664
C74	C	-0.428634	-0.492957	0.064336
C75	C	-0.882356	-1.042744	-0.498817
C76	C	-0.382356	-0.542744	0.001183
C77	C	-0.788214	-1.047188	-0.504473
C78	C	-0.288214	-0.547188	-0.004473
C79	C	-0.786639	-0.952058	-0.383834
C80	C	-0.286639	-0.452058	0.116166
C81	C	-0.880779	-0.947616	-0.378173
C82	C	-0.380779	-0.447616	0.121827
C83	C	-0.170831	-1.029057	-0.481425
C84	C	0.329169	-0.529057	0.018575
C85	C	-0.070637	-1.033861	-0.487496
C86	C	0.429363	-0.533861	0.012504
C87	C	-0.418898	-1.027803	-0.702287
C88	C	0.081102	-0.527803	-0.202287
C89	C	-0.424415	-1.032073	-0.802476
C90	C	0.075585	-0.532073	-0.302476
C91	C	-0.396519	-0.201884	-0.477861
C92	C	0.103481	0.298116	0.022139
C93	C	-0.392479	-0.280336	-0.482387
C94	C	0.107521	0.219664	0.017613
C95	C	-0.324108	-0.955330	-0.992485
C96	C	0.175892	-0.455330	-0.492485
C97	C	-0.329289	-0.959340	-1.086622
C98	C	0.170711	-0.459340	-0.586622
C99	C	-0.439961	-1.044099	-1.084887
C100	C	0.060039	-0.544099	-0.584887
C101	C	-0.434780	-1.040089	-0.990750
C102	C	0.065220	-0.540089	-0.490750
C103	C	-0.376851	-0.995704	-0.944553
C104	C	0.123149	-0.495704	-0.444553
C105	C	-0.371666	-0.991698	-0.850415
C106	C	0.128334	-0.491698	-0.350415
C107	C	-0.482342	-1.076453	-0.848682
C108	C	0.017658	-0.576453	-0.348682
C109	C	-0.487523	-1.080463	-0.942818
C110	C	0.012477	-0.580463	-0.442818
C111	C	-0.392990	-1.007845	-0.232991
C112	C	0.107010	-0.507845	0.267009
C113	C	-0.387212	-1.003724	-0.132826
C114	C	0.112788	-0.503724	0.367174
H115	H	-0.327958	-0.624848	-0.554950
H116	H	0.172042	-0.124848	-0.054950
N117	N	-0.323517	-0.546088	-0.559983
N118	N	0.176483	-0.046088	-0.059983
N119	N	-0.276665	-0.517840	-0.612749
N120	N	0.223335	-0.017840	-0.112749
H121	H	-0.236066	-0.548192	-0.658460
H122	H	0.263934	-0.048192	-0.158460
H123	H	-0.918472	-0.907080	-0.326758
H124	H	-0.418472	-0.407080	0.173242
H125	H	-0.286340	-0.926464	-1.125644
H126	H	0.213660	-0.426464	-0.625644
H127	H	-0.525286	-1.109330	-0.809646
H128	H	-0.025286	-0.609330	-0.309646
H129	H	-0.750535	-1.087729	-0.555894
H130	H	-0.250535	-0.587729	-0.055894
N131	N	-1.073222	-1.129960	-0.609383
N132	N	-0.573222	-0.629960	-0.109383
N133	N	-1.031888	-1.174404	-0.665765
N134	N	-0.531888	-0.674404	-0.165765
H135	H	-1.066401	-1.207117	-0.707251
H136	H	-0.566401	-0.707117	-0.207251
H137	H	-0.490788	-0.277713	-0.371707
H138	H	0.009212	0.222287	0.128293
N139	N	-0.882939	-1.138928	-0.620827
N140	N	-0.382939	-0.638928	-0.120827
N141	N	-0.834855	-1.118978	-0.679956
N142	N	-0.334855	-0.618978	-0.179956
H143	H	-0.801471	-1.154886	-0.725527
H144	H	-0.301471	-0.654886	-0.225527
N145	N	-0.274897	-0.439109	-0.614702
N146	N	0.225103	0.060891	-0.114702
N147	N	-0.213546	-0.481634	-0.588937
N148	N	0.286454	0.018366	-0.088937
H149	H	-0.172936	-0.511990	-0.634634
H150	H	0.327064	-0.011990	-0.134634
N151	N	-0.309396	-0.767289	-0.575794
N152	N	0.190604	-0.267289	-0.075794
N153	N	-0.226309	-0.762785	-0.574500
N154	N	0.273691	-0.262785	-0.074500
H155	H	-0.185696	-0.793138	-0.620197
H156	H	0.314304	-0.293138	-0.120197
N157	N	-0.282588	-0.290109	-0.606116
N158	N	0.217412	0.209891	-0.106116
N159	N	-0.232353	-0.327686	-0.662685
N160	N	0.267647	0.172314	-0.162685
H161	H	-0.194493	-0.304873	-0.705330
H162	H	0.305507	0.195127	-0.205330
N163	N	-0.499136	-1.089420	-1.132098
N164	N	0.000864	-0.589420	-0.632098
N165	N	-0.503758	-1.092985	-1.216147
N166	N	-0.003758	-0.592985	-0.716147
H167	H	-0.545553	-1.124992	-1.249492
H168	H	-0.045553	-0.624992	-0.749492
N169	N	-1.070070	-0.937659	-0.365515
N170	N	-0.570070	-0.437659	0.134485
N171	N	-1.154124	-0.933698	-0.360480
N172	N	-0.654124	-0.433698	0.139520
H173	H	-1.187529	-0.897779	-0.314936
H174	H	-0.687529	-0.397779	0.185064
H175	H	-0.534690	-1.116597	-0.980445
H176	H	-0.034690	-0.616597	-0.480445
N177	N	-0.529269	-0.746188	-0.328281
N178	N	-0.029269	-0.246188	0.171719
N179	N	-0.525876	-0.812003	-0.332091
N180	N	-0.025876	-0.312003	0.167909
H181	H	-0.563736	-0.834832	-0.289465
H182	H	-0.063736	-0.334832	0.210535
H183	H	-0.747663	-0.915140	-0.337019
H184	H	-0.247663	-0.415140	0.162981
H185	H	-0.324493	-0.955561	-0.812803
H186	H	0.175507	-0.455561	-0.312803
H187	H	-0.276932	-0.919197	-0.954871
H188	H	0.223068	-0.419197	-0.454871
H189	H	-0.525282	-0.605893	-0.332790
H190	H	-0.025282	-0.105893	0.167210
N191	N	-0.494767	-0.417985	-0.367178
N192	N	0.005233	0.082015	0.132822
N193	N	-0.545013	-0.380406	-0.310619
N194	N	-0.045013	0.119594	0.189381
H195	H	-0.582879	-0.403218	-0.267978
H196	H	-0.082879	0.096782	0.232022
H197	H	-0.476666	-0.498906	-0.387531
H198	H	0.023334	0.001094	0.112469
