data_functionalizedCrystal
_audit_creation_method	'MofGen! by Chris Wilmer'
_symmetry_space_group_name_H-M	'P1'
_symmetry_Int_Tables_number	1
_symmetry_cell_setting	triclinic
loop_
_symmetry_equiv_pos_as_xyz
  x,y,z
_cell_length_a	17.077404
_cell_length_b	12.759400
_cell_length_c	17.077396
_cell_angle_alpha	89.974414
_cell_angle_beta	89.980499
_cell_angle_gamma	90.014910
loop_
_atom_site_label
_atom_site_type_symbol
_atom_site_fract_x
_atom_site_fract_y
_atom_site_fract_z
Zn1	Zn	1.200099	-0.418260	-0.443859
Zn2	Zn	1.700099	0.081740	0.056141
Zn3	Zn	1.200025	-0.593961	-0.312599
Zn4	Zn	1.700025	-0.093961	0.187401
Zn5	Zn	1.068831	-0.418297	-0.312606
Zn6	Zn	1.568831	0.081703	0.187394
Zn7	Zn	1.068818	-0.593898	-0.443823
Zn8	Zn	1.568818	-0.093898	0.056177
O9	O	1.134443	-0.506104	-0.378222
O10	O	1.634443	-0.006104	0.121778
O11	O	1.309936	-0.441578	-0.426459
O12	O	1.809936	0.058422	0.073541
O13	O	1.182597	-0.570700	-0.202753
O14	O	1.682597	-0.070700	0.297247
O15	O	1.086281	-0.271271	-0.330035
O16	O	1.586281	0.228729	0.169965
O17	O	1.309882	-0.570664	-0.330023
O18	O	1.809882	-0.070664	0.169977
O19	O	1.182723	-0.271244	-0.426466
O20	O	1.682723	0.228756	0.073534
O21	O	1.086209	-0.441641	-0.202759
O22	O	1.586209	0.058359	0.297241
O23	O	0.958983	-0.441580	-0.330001
O24	O	1.458983	0.058420	0.169999
O25	O	1.086258	-0.570558	-0.553674
O26	O	1.586258	-0.070558	-0.053674
O27	O	0.958973	-0.570594	-0.426405
O28	O	1.458973	-0.070594	0.073595
O29	O	1.182710	-0.441517	-0.553701
O30	O	1.682710	0.058483	-0.053701
O31	O	1.182584	-0.740973	-0.329988
O32	O	1.682584	-0.240973	0.170012
O33	O	1.086186	-0.740927	-0.426398
O34	O	1.586186	-0.240927	0.073602
C35	C	0.930496	-0.506085	-0.378200
C36	C	1.430496	-0.006085	0.121800
C37	C	0.843246	-0.506102	-0.378209
C38	C	1.343246	-0.006102	0.121791
C39	C	0.802271	-0.573381	-0.428326
C40	C	1.302271	-0.073381	0.071674
C41	C	0.720291	-0.573383	-0.428339
C42	C	1.220291	-0.073383	0.071661
C43	C	0.679286	-0.506111	-0.378230
C44	C	1.179286	-0.006111	0.121770
C45	C	0.720267	-0.438825	-0.328111
C46	C	1.220267	0.061175	0.171889
C47	C	0.802246	-0.438818	-0.328103
C48	C	1.302246	0.061182	0.171897
C49	C	0.549397	-0.438846	-0.328130
C50	C	1.049397	0.061154	0.171870
C51	C	0.467412	-0.438854	-0.328136
C52	C	0.967412	0.061146	0.171864
C53	C	0.467442	-0.573410	-0.428366
C54	C	0.967442	-0.073410	0.071634
C55	C	0.549421	-0.573404	-0.428358
C56	C	1.049421	-0.073404	0.071642
C57	C	0.590395	-0.506119	-0.378237
C58	C	1.090395	-0.006119	0.121763
C59	C	1.134397	-0.779071	-0.378205
C60	C	1.634397	-0.279071	0.121795
C61	C	1.134449	-0.895848	-0.378225
C62	C	1.634449	-0.395848	0.121775
C63	C	1.184699	-0.950699	-0.328080
C64	C	1.684699	-0.450699	0.171920
C65	C	1.184747	-1.060423	-0.328104
C66	C	1.684747	-0.560423	0.171896
C67	C	1.084289	-1.060435	-0.428420
C68	C	1.584289	-0.560435	0.071580
C69	C	1.084245	-0.950713	-0.428399
C70	C	1.584245	-0.450713	0.071601
C71	C	1.242695	-0.950693	-0.270160
C72	C	1.742695	-0.450693	0.229840
C73	C	1.242743	-1.060417	-0.270185
C74	C	1.742743	-0.560417	0.229815
C75	C	1.339188	-0.506124	-0.378244
C76	C	1.839188	-0.006124	0.121756
C77	C	1.426437	-0.506132	-0.378253
C78	C	1.926437	-0.006132	0.121747
C79	C	1.134491	-0.506026	-0.582966
C80	C	1.634491	-0.006026	-0.082966
C81	C	1.134511	-0.505993	-0.670216
C82	C	1.634511	-0.005993	-0.170216
C83	C	1.134512	-0.232071	-0.378255
C84	C	1.634512	0.267929	0.121745
C85	C	1.134541	-0.115294	-0.378270
C86	C	1.634541	0.384706	0.121730
C87	C	1.184735	-0.438796	-0.711221
C88	C	1.684735	0.061204	-0.211221
C89	C	1.184745	-0.438761	-0.793202
C90	C	1.684745	0.061239	-0.293202
C91	C	1.134533	-0.505930	-0.834175
C92	C	1.634533	-0.005930	-0.334175
C93	C	1.084304	-0.573130	-0.793165
C94	C	1.584304	-0.073130	-0.293165
C95	C	1.084291	-0.573159	-0.711186
C96	C	1.584291	-0.073159	-0.211186
C97	C	1.084335	-0.573066	-0.964035
C98	C	1.584335	-0.073066	-0.464035
C99	C	1.084349	-0.573039	-1.046019
C100	C	1.584349	-0.073039	-0.546019
C101	C	1.184789	-0.438669	-1.046051
C102	C	1.684789	0.061331	-0.546051
C103	C	1.184777	-0.438698	-0.964072
C104	C	1.684777	0.061302	-0.464072
C105	C	1.134547	-0.505900	-0.923066
C106	C	1.634547	-0.005900	-0.423066
C107	C	1.134441	-0.506105	-0.174274
C108	C	1.634441	-0.006105	0.325726
C109	C	1.134573	-0.505842	-0.087025
C110	C	1.634573	-0.005842	0.412975
H111	H	0.434029	-0.384062	-0.287342
H112	H	0.934029	0.115938	0.212658
C113	C	1.028980	-0.890375	-0.483565
C114	C	1.528980	-0.390375	0.016435
H115	H	1.036149	-0.817171	-0.476374
H116	H	1.536149	-0.317171	0.023626
H117	H	0.976250	-0.908422	-0.472043
H118	H	1.476250	-0.408422	0.027957
H119	H	1.040460	-0.908299	-0.536321
H120	H	1.540460	-0.408299	-0.036321
C121	C	0.847318	-0.364810	-0.272975
C122	C	1.347318	0.135190	0.227025
H123	H	0.811157	-0.324751	-0.243129
H124	H	1.311157	0.175249	0.256871
H125	H	0.879316	-0.319084	-0.303062
H126	H	1.379316	0.180916	0.196938
H127	H	0.879278	-0.404940	-0.238714
H128	H	1.379278	0.095060	0.261286
H129	H	1.220936	-0.916737	-0.212385
H130	H	1.720936	-0.416737	0.287615
C131	C	1.029065	-1.120790	-0.483604
C132	C	1.529065	-0.620790	0.016396
H133	H	1.036284	-1.193993	-0.476433
H134	H	1.536284	-0.693993	0.023567
H135	H	1.040515	-1.102744	-0.536352
H136	H	1.540515	-0.602744	-0.036352
H137	H	0.976319	-1.102878	-0.472059
H138	H	1.476319	-0.602878	0.027941
C139	C	1.240040	-0.364744	-1.091149
C140	C	1.740040	0.135256	-0.591149
H141	H	1.269949	-0.324756	-1.055005
H142	H	1.769949	0.175244	-0.555005
H143	H	1.210032	-0.318949	-1.123129
H144	H	1.710032	0.181051	-0.623129
H145	H	1.274237	-0.404935	-1.123130
H146	H	1.774237	0.095065	-0.623130
C147	C	0.422373	-0.647416	-0.483502
C148	C	0.922373	-0.147416	0.016498
H149	H	0.367677	-0.637779	-0.476339
H150	H	0.867677	-0.137779	0.023661
H151	H	0.435791	-0.717986	-0.471921
H152	H	0.935791	-0.217986	0.028079
H153	H	0.435837	-0.632124	-0.536264
H154	H	0.935837	-0.132124	-0.036264
C155	C	1.220798	-1.100755	-0.188051
C156	C	1.720798	-0.600755	0.311949
H157	H	1.211733	-1.042887	-0.154258
H158	H	1.711733	-0.542887	0.345742
H159	H	1.262432	-1.142089	-0.167892
H160	H	1.762432	-0.642089	0.332108
H161	H	1.174677	-1.142163	-0.191334
H162	H	1.674677	-0.642163	0.308666
C163	C	1.324790	-0.910352	-0.292229
C164	C	1.824790	-0.410352	0.207771
H165	H	1.358581	-0.968219	-0.301327
H166	H	1.858581	-0.468219	0.198673
H167	H	1.344998	-0.869008	-0.250633
H168	H	1.844998	-0.369008	0.249367
H169	H	1.321435	-0.868953	-0.338356
H170	H	1.821435	-0.368953	0.161644
C171	C	0.594524	-0.647400	-0.483477
C172	C	1.094524	-0.147400	0.016523
H173	H	0.558382	-0.687466	-0.513334
H174	H	1.058382	-0.187466	-0.013334
H175	H	0.626486	-0.693120	-0.453388
H176	H	1.126486	-0.193120	0.046612
H177	H	0.626523	-0.607254	-0.517729
H178	H	1.126523	-0.107254	-0.017729
H179	H	1.225626	-0.384103	-0.677866
H180	H	1.725626	0.115897	-0.177866
C181	C	1.239995	-0.364850	-0.838304
C182	C	1.739995	0.135150	-0.338304
H183	H	1.269905	-0.324862	-0.802160
H184	H	1.769905	0.175138	-0.302160
H185	H	1.209989	-0.319054	-0.870284
H186	H	1.709989	0.180946	-0.370284
H187	H	1.274193	-0.405041	-0.870284
H188	H	1.774193	0.094959	-0.370284
H189	H	0.835651	-0.628165	-0.469129
H190	H	1.335651	-0.128165	0.030871
H191	H	1.300500	-1.094364	-0.292013
H192	H	1.800500	-0.594364	0.207987
H193	H	1.225668	-0.384010	-0.930713
H194	H	1.725668	0.115990	-0.430713
H195	H	1.043418	-0.627815	-0.826532
H196	H	1.543418	-0.127815	-0.326532
H197	H	1.043460	-0.627731	-1.079378
H198	H	1.543460	-0.127731	-0.579378
C199	C	0.594468	-0.364830	-0.273001
C200	C	1.094468	0.135170	0.226999
H201	H	0.558307	-0.324772	-0.243154
H202	H	1.058307	0.175228	0.256846
H203	H	0.626467	-0.319103	-0.303086
H204	H	1.126467	0.180897	0.196914
H205	H	0.626426	-0.404963	-0.238741
H206	H	1.126426	0.095037	0.261259
C207	C	1.029110	-0.647021	-0.918930
C208	C	1.529110	-0.147021	-0.418930
H209	H	0.999221	-0.687038	-0.955073
H210	H	1.499221	-0.187038	-0.455073
H211	H	0.994904	-0.606874	-0.886935
H212	H	1.494904	-0.106874	-0.386935
H213	H	1.059152	-0.692804	-0.886965
H214	H	1.559152	-0.192804	-0.386965
C215	C	1.029046	-0.647074	-0.666076
C216	C	1.529046	-0.147074	-0.166076
H217	H	1.036223	-0.637464	-0.611385
H218	H	1.536223	-0.137464	-0.111385
H219	H	1.040514	-0.717662	-0.679502
H220	H	1.540514	-0.217662	-0.179502
H221	H	0.976308	-0.631677	-0.679506
H222	H	1.476308	-0.131677	-0.179506
H223	H	0.686875	-0.384046	-0.287314
H224	H	1.186875	0.115954	0.212686
H225	H	0.686933	-0.628169	-0.469149
H226	H	1.186933	-0.128169	0.030851
