data_functionalizedCrystal
_audit_creation_method	'MofGen! by Chris Wilmer'
_symmetry_space_group_name_H-M	'P1'
_symmetry_Int_Tables_number	1
_symmetry_cell_setting	triclinic
loop_
_symmetry_equiv_pos_as_xyz
  x,y,z
_cell_length_a	10.723024
_cell_length_b	13.101039
_cell_length_c	10.723024
_cell_angle_alpha	86.604576
_cell_angle_beta	84.467869
_cell_angle_gamma	93.389393
loop_
_atom_site_label
_atom_site_type_symbol
_atom_site_fract_x
_atom_site_fract_y
_atom_site_fract_z
O1	O	1.663994	0.085205	0.168199
O2	O	1.300842	0.085208	0.184952
O3	O	1.490794	0.085203	-0.005000
O4	O	1.474041	0.085211	0.358152
O5	O	1.477165	-0.085226	0.008651
O6	O	1.287213	-0.085221	0.198604
O7	O	1.650365	-0.085224	0.181851
Zn8	Zn	1.466625	-0.112282	0.192395
Zn9	Zn	1.484582	0.112266	0.174408
O10	O	1.460413	-0.085219	0.371803
C11	C	1.247528	-0.000006	0.190559
C12	C	1.108974	-0.000005	0.186911
N13	N	1.454380	-0.265530	0.204669
C14	C	1.033991	-0.000002	0.293198
C15	C	0.890788	-0.000000	0.289431
C16	C	1.437719	-0.474572	0.221381
C17	C	1.513494	-0.525450	0.145416
C18	C	1.504223	-0.641768	0.154715
C19	C	1.446988	-0.358244	0.212084
C20	C	1.703679	-0.000008	0.176244
C21	C	1.842234	-0.000002	0.179891
C22	C	1.482761	-0.000011	-0.044674
C23	C	1.479113	-0.000007	-0.183229
N24	N	1.496837	0.265514	0.162124
C25	C	1.585401	-0.000006	-0.258211
C26	C	1.581634	-0.000003	-0.401415
C27	C	1.468446	-0.000003	0.411477
C28	C	1.472094	0.000000	0.550031
H29	H	1.075813	-0.000006	0.386985
H30	H	1.672624	-0.000007	-0.465847
C31	C	0.929260	-0.000006	0.056955
C32	C	1.015530	-0.088506	0.035283
C33	C	1.102566	-0.088510	-0.087653
C34	C	1.103333	-0.000013	-0.188916
C35	C	1.017060	0.088495	-0.167247
C36	C	0.930023	0.088498	-0.044311
H37	H	1.014965	-0.154023	0.110247
H38	H	1.166431	-0.154029	-0.103693
H39	H	1.167762	-0.000015	-0.279921
H40	H	1.017625	0.154012	-0.242211
H41	H	0.866159	0.154018	-0.028271
H42	H	0.826356	0.000006	0.380421
C43	C	1.352406	-0.000004	-0.239713
C44	C	1.252090	-0.088503	-0.203380
C45	C	1.125379	-0.088499	-0.259861
C46	C	1.098984	0.000003	-0.352673
C47	C	1.199303	0.088508	-0.389011
C48	C	1.326014	0.088505	-0.332531
H49	H	1.271627	-0.154023	-0.134671
H50	H	1.051117	-0.154017	-0.232961
H51	H	1.005185	0.000005	-0.394483
H52	H	1.179766	0.154029	-0.457720
H53	H	1.400277	0.154023	-0.359430
H54	H	1.067153	0.000020	0.093123
H55	H	1.585329	-0.481650	0.073398
H56	H	1.365890	-0.518367	0.293396
H57	H	1.679186	-0.000014	-0.216389
H58	H	1.381098	-0.000007	-0.385543
