data_functionalizedCrystal
_audit_creation_method	'MofGen! by Chris Wilmer'
_symmetry_space_group_name_H-M	'P1'
_symmetry_Int_Tables_number	1
_symmetry_cell_setting	triclinic
loop_
_symmetry_equiv_pos_as_xyz
  x,y,z
_cell_length_a	12.759395
_cell_length_b	12.759394
_cell_length_c	14.908308
_cell_angle_alpha	93.268403
_cell_angle_beta	93.281476
_cell_angle_gamma	90.014682
loop_
_atom_site_label
_atom_site_type_symbol
_atom_site_fract_x
_atom_site_fract_y
_atom_site_fract_z
Zn1	Zn	1.571946	-0.452528	-0.510020
Zn2	Zn	1.581988	-0.618096	-0.359168
Zn3	Zn	1.406395	-0.442432	-0.359187
Zn4	Zn	1.396239	-0.628163	-0.509986
O5	O	1.489142	-0.535305	-0.434590
O6	O	1.720299	-0.474503	-0.490015
O7	O	1.567148	-0.586356	-0.232928
O8	O	1.428403	-0.296752	-0.379218
O9	O	1.727677	-0.596145	-0.379185
O10	O	1.550033	-0.304169	-0.490034
O11	O	1.438140	-0.457297	-0.232943
O12	O	1.258027	-0.467058	-0.379185
O13	O	1.411094	-0.613302	-0.636232
O14	O	1.250565	-0.603513	-0.489976
O15	O	1.540186	-0.484264	-0.636257
O16	O	1.557300	-0.766451	-0.379152
O17	O	1.420831	-0.773847	-0.489957
C18	C	1.216175	-0.535283	-0.434579
C19	C	1.099397	-0.535301	-0.434596
C20	C	1.091683	-0.408864	-0.550190
C21	C	1.032965	-0.345659	-0.607994
C22	C	0.923243	-0.345679	-0.608005
C23	C	0.872237	-0.408908	-0.550204
C24	C	0.930955	-0.472112	-0.492400
C25	C	1.040679	-0.472089	-0.492397
C26	C	0.938669	-0.598542	-0.376803
C27	C	1.048391	-0.598529	-0.376794
C28	C	0.887663	-0.661770	-0.319001
C29	C	0.946381	-0.724982	-0.261200
C30	C	1.056110	-0.724961	-0.261192
C31	C	1.107110	-0.661734	-0.318990
C32	C	1.489080	-0.808271	-0.434568
C33	C	1.489148	-0.925049	-0.434589
C34	C	1.631349	-0.917300	-0.319294
C35	C	1.702475	-0.968287	-0.261657
C36	C	1.702535	-1.078010	-0.261682
C37	C	1.631463	-1.136749	-0.319351
C38	C	1.560336	-1.085762	-0.376988
C39	C	1.560282	-0.976036	-0.376955
C40	C	1.418142	-1.093511	-0.492286
C41	C	1.418076	-0.983788	-0.492259
C42	C	1.347070	-1.152251	-0.549956
C43	C	1.275936	-1.101263	-0.607590
C44	C	1.275879	-0.991533	-0.607562
C45	C	1.346949	-0.932801	-0.549896
C46	C	1.763175	-0.535327	-0.434602
C47	C	1.879951	-0.535337	-0.434607
C48	C	1.473387	-0.551032	-0.669893
C49	C	1.466673	-0.557734	-0.770165
C50	C	1.489231	-0.261274	-0.434632
C51	C	1.489269	-0.144498	-0.434650
C52	C	1.588477	-0.435936	-0.958615
C53	C	1.582172	-0.442230	-1.052830
C54	C	1.447753	-0.576609	-1.052811
C55	C	1.454058	-0.570315	-0.958596
C56	C	1.524424	-0.499978	-0.911502
C57	C	1.530733	-0.493690	-0.817285
C58	C	1.396310	-0.628063	-0.817268
C59	C	1.390005	-0.634357	-0.911483
C60	C	1.504896	-0.519563	-0.200203
C61	C	1.511814	-0.512565	-0.099931
H62	H	1.631294	-0.827956	-0.319257
O63	O	1.225454	-0.661702	-0.318970
H64	H	1.251053	-0.607109	-0.368864
O65	O	0.859903	-0.277501	-0.670342
H66	H	0.806841	-0.327684	-0.716164
O67	O	1.346858	-0.814456	-0.549857
H68	H	1.363449	-0.790005	-0.617905
O69	O	0.753893	-0.408918	-0.550211
H70	H	0.729516	-0.383006	-0.482202
H71	H	1.760344	-0.920452	-0.214705
H72	H	1.645776	-0.378670	-0.920270
O73	O	1.779244	-1.133014	-0.199516
H74	H	1.828651	-1.073741	-0.159407
O75	O	0.769320	-0.661790	-0.319003
H76	H	0.735841	-0.687716	-0.387011
O77	O	1.347137	-1.270595	-0.549984
H78	H	1.285775	-1.302871	-0.599771
H79	H	1.074506	-0.294178	-0.655053
H80	H	1.103913	-0.776427	-0.214117
O81	O	1.371847	-0.652451	-1.103611
H82	H	1.378224	-0.646061	-1.177039
H83	H	1.631527	-1.226092	-0.319374
O84	O	1.651246	-0.373139	-1.103642
H85	H	1.635031	-0.389317	-1.177068
O86	O	0.891373	-0.793171	-0.198860
H87	H	0.805213	-0.782564	-0.208577
O88	O	1.199276	-1.164611	-0.669777
H89	H	1.211265	-1.249474	-0.660108
O90	O	1.606620	-0.417828	-0.766484
H91	H	1.650092	-0.374346	-0.815078
H92	H	1.217962	-0.950026	-0.654501
O93	O	1.314110	-0.710210	-0.962284
H94	H	1.333312	-0.791460	-0.944191
H95	H	1.344156	-0.680213	-0.778898
H96	H	1.181025	-0.408837	-0.550183
