data_functionalizedCrystal
_audit_creation_method	'MofGen! by Chris Wilmer'
_symmetry_space_group_name_H-M	'P1'
_symmetry_Int_Tables_number	1
_symmetry_cell_setting	triclinic
loop_
_symmetry_equiv_pos_as_xyz
  x,y,z
_cell_length_a	14.750135
_cell_length_b	19.288864
_cell_length_c	19.288865
_cell_angle_alpha	83.136245
_cell_angle_beta	102.593112
_cell_angle_gamma	77.383632
loop_
_atom_site_label
_atom_site_type_symbol
_atom_site_fract_x
_atom_site_fract_y
_atom_site_fract_z
O1	O	0.080154	-0.936533	-0.071459
O2	O	0.080090	-0.734260	-0.083160
O3	O	0.080105	-0.841237	0.023817
O4	O	0.080139	-0.829555	-0.178437
O5	O	-0.079566	-0.810980	-0.006435
O6	O	-0.079581	-0.704003	-0.113413
O7	O	-0.079516	-0.906275	-0.101712
Zn8	Zn	-0.104900	-0.800335	-0.112366
Zn9	Zn	0.105473	-0.840200	-0.072507
O10	O	-0.079531	-0.799298	-0.208689
C11	C	0.000246	-0.693253	-0.097912
C12	C	0.000221	-0.616145	-0.096788
N13	N	-0.248473	-0.773133	-0.139568
C14	C	0.000267	-0.825732	0.034567
C15	C	0.000258	-0.824601	0.111669
C16	C	-0.600179	-0.943365	0.030602
C17	C	-0.700691	-0.924306	0.011561
C18	C	-0.700716	-0.829549	-0.083142
C19	C	-0.600202	-0.848602	-0.064111
C20	C	-0.549942	-0.905510	-0.007238
C21	C	-0.549965	-0.810747	-0.101951
C22	C	-0.449460	-0.829797	-0.082919
C23	C	-0.399192	-0.886701	-0.026047
C24	C	-0.449437	-0.924560	0.011794
C25	C	-0.600227	-0.753836	-0.158821
C26	C	-0.549990	-0.715981	-0.196661
C27	C	-0.449483	-0.735034	-0.177632
C28	C	-0.399216	-0.791938	-0.120760
C29	C	-0.399239	-0.697175	-0.215473
C30	C	-0.298734	-0.716225	-0.196441
C31	C	-0.298711	-0.810988	-0.101728
N32	N	0.249046	-0.867408	-0.045299
C33	C	0.000329	-0.947283	-0.086960
C34	C	0.000361	-1.024392	-0.088083
C35	C	0.000247	-0.571453	-0.159551
C36	C	0.000257	-0.499008	-0.158488
C37	C	0.000261	-0.471262	-0.094655
C38	C	0.000230	-0.515962	-0.031885
C39	C	0.000210	-0.588403	-0.032951
C40	C	0.056224	-0.373605	-0.033873
C41	C	0.056250	-0.301165	-0.032808
C42	C	0.000318	-0.247827	-0.091365
C43	C	-0.055627	-0.266938	-0.150996
C44	C	-0.055647	-0.339380	-0.152062
C45	C	0.000282	-0.392712	-0.093492
C46	C	0.000354	-0.124581	-0.152980
C47	C	0.000359	-0.052134	-0.151916
C48	C	0.000341	-0.069091	-0.025309
C49	C	0.000327	-0.141535	-0.026377
C50	C	0.000338	-0.169276	-0.090213
C51	C	0.000309	-0.814804	-0.219439
C52	C	0.000324	-0.815935	-0.296539
C53	C	0.000273	-0.887372	0.156368
C54	C	0.000288	-0.886314	0.228818
C55	C	0.000268	-0.822478	0.256562
C56	C	0.000258	-0.759700	0.211854
C57	C	0.000253	-0.760762	0.139407
C58	C	-0.055677	-0.761697	0.354249
C59	C	-0.055678	-0.760637	0.426694
C60	C	0.000289	-0.819203	0.480011
C61	C	0.056243	-0.878837	0.460875
C62	C	0.056238	-0.879899	0.388428
C63	C	0.000274	-0.821321	0.335117
C64	C	0.000321	-0.880831	0.603270
C65	C	0.000342	-0.879772	0.675722
C66	C	0.000303	-0.753154	0.658754
C67	C	0.000292	-0.754217	0.586305
C68	C	0.000296	-0.818057	0.558567
H69	H	-0.257787	-0.857333	-0.055421
H70	H	-0.317355	-0.902208	-0.010549
F71	F	0.000237	-0.693950	0.091833
F72	F	0.000229	-0.486430	0.036050
F73	F	0.000305	-0.953127	0.276399
F74	F	-0.395943	-0.985135	0.072320
F75	F	-0.546686	-1.003940	0.091128
H76	H	0.101808	-0.285612	0.015745
F77	F	0.000336	-0.039564	0.042625
F78	F	0.115791	-0.943362	0.368064
H79	H	-0.741589	-0.955136	0.042381
H80	H	0.000311	-0.177925	0.024733
F81	F	-0.115232	-0.697172	0.447053
H82	H	0.101776	-0.417030	0.013814
F83	F	0.000182	-0.635969	0.033853
H84	H	0.000280	-0.939356	0.133789
F85	F	0.000272	-0.687406	0.538730
F86	F	0.000381	-0.004568	-0.218722
H87	H	-0.440174	-0.650836	-0.261776
F88	F	-0.245267	-0.675933	-0.236714
F89	F	0.000255	-0.600973	-0.227492
F90	F	-0.115249	-0.699361	0.297509
F91	F	-0.603489	-0.655415	-0.257187
H92	H	0.101816	-0.926527	0.504286
H93	H	0.000244	-0.707725	0.234448
H94	H	0.000329	-0.932814	0.580685
F95	F	-0.754215	-0.768982	-0.143668
H96	H	-0.682065	-0.738326	-0.174312
H97	H	-0.101203	-0.354936	-0.200614
F98	F	0.000364	-0.946586	0.723296
H99	H	0.000275	-0.462613	-0.209599
F100	F	0.000287	-0.685216	0.688277
F101	F	-0.115158	-0.210176	-0.213321
H102	H	0.000349	-0.147167	-0.204962
