data_functionalizedCrystal
_audit_creation_method	'MofGen! by Chris Wilmer'
_symmetry_space_group_name_H-M	'P1'
_symmetry_Int_Tables_number	1
_symmetry_cell_setting	triclinic
loop_
_symmetry_equiv_pos_as_xyz
  x,y,z
_cell_length_a	18.215407
_cell_length_b	12.759399
_cell_length_c	18.215399
_cell_angle_alpha	89.975038
_cell_angle_beta	89.980167
_cell_angle_gamma	90.015564
loop_
_atom_site_label
_atom_site_type_symbol
_atom_site_fract_x
_atom_site_fract_y
_atom_site_fract_z
Zn1	Zn	1.125122	-0.418265	-0.416131
Zn2	Zn	1.125051	-0.593962	-0.293071
Zn3	Zn	1.002054	-0.418299	-0.293079
Zn4	Zn	1.002041	-0.593903	-0.416096
O5	O	1.063567	-0.506107	-0.354594
O6	O	1.228097	-0.441581	-0.399819
O7	O	1.108711	-0.570699	-0.190088
O8	O	1.018415	-0.271273	-0.309419
O9	O	1.228045	-0.570665	-0.309407
O10	O	1.108832	-0.271248	-0.399826
O11	O	1.018346	-0.441640	-0.190093
O12	O	0.899068	-0.441583	-0.309385
O13	O	1.018392	-0.570566	-0.519085
O14	O	0.899059	-0.570599	-0.399766
O15	O	1.108819	-0.441525	-0.519111
O16	O	1.108699	-0.740975	-0.309373
O17	O	1.018324	-0.740932	-0.399759
C18	C	0.872361	-0.506089	-0.354573
C19	C	0.790562	-0.506107	-0.354582
C20	C	0.602382	-0.573391	-0.401584
C21	C	0.525524	-0.573394	-0.401593
C22	C	0.525504	-0.438842	-0.307621
C23	C	0.602361	-0.438835	-0.307616
C24	C	0.640799	-0.506115	-0.354596
C25	C	0.487083	-0.506126	-0.354610
C26	C	0.403749	-0.506129	-0.354620
C27	C	0.724138	-0.506111	-0.354588
C28	C	1.063522	-0.779075	-0.354578
C29	C	1.063570	-0.895851	-0.354595
C30	C	1.110682	-0.950701	-0.307585
C31	C	1.110729	-1.060425	-0.307609
C32	C	1.016546	-1.060440	-0.401657
C33	C	1.016503	-0.950718	-0.401635
C34	C	1.197595	-1.210299	-0.281423
C35	C	1.244701	-1.265152	-0.234401
C36	C	1.256026	-1.229601	-0.162596
C37	C	1.220235	-1.139198	-0.137798
C38	C	1.173125	-1.084351	-0.184816
C39	C	1.161813	-1.119900	-0.256632
C40	C	0.929636	-0.800842	-0.427814
C41	C	0.882521	-0.745993	-0.474829
C42	C	0.871188	-0.781542	-0.546635
C43	C	0.906966	-0.871947	-0.571430
C44	C	0.954081	-0.926797	-0.524415
C45	C	0.965415	-0.891240	-0.452610
C46	C	1.255520	-0.506126	-0.354616
C47	C	1.337319	-0.506134	-0.354625
C48	C	1.063612	-0.506035	-0.546547
C49	C	1.063631	-0.506004	-0.628346
C50	C	1.063633	-0.232074	-0.354627
C51	C	1.063660	-0.115297	-0.354641
C52	C	1.110733	-0.438749	-0.816555
C53	C	1.110742	-0.438719	-0.893414
C54	C	1.016581	-0.573096	-0.893376
C55	C	1.016569	-0.573120	-0.816518
C56	C	1.063649	-0.505949	-0.778110
C57	C	1.063670	-0.505894	-0.931826
C58	C	1.063679	-0.505861	-1.015160
C59	C	1.063639	-0.505980	-0.694771
C60	C	1.063565	-0.506103	-0.163388
C61	C	1.063688	-0.505838	-0.081590
H62	H	1.149008	-0.906030	-0.269283
H63	H	0.832821	-0.736874	-0.584913
O64	O	1.156536	-0.373642	-0.779210
C65	C	1.204039	-0.433464	-0.734737
H66	H	1.208578	-0.516204	-0.757886
H67	H	1.260680	-0.395460	-0.733880
H68	H	1.181274	-0.437103	-0.676484
O69	O	0.970847	-1.113902	-0.447275
C70	C	0.980997	-1.222508	-0.437226
H71	H	1.005138	-1.237523	-0.380457
H72	H	0.925885	-1.264267	-0.442174
H73	H	1.020173	-1.253557	-0.480920
O74	O	0.639754	-0.638848	-0.447119
C75	C	0.684199	-0.706614	-0.405142
H76	H	0.661014	-0.713008	-0.347174
H77	H	0.685069	-0.787512	-0.431667
H78	H	0.742451	-0.674121	-0.402642
O79	O	0.488093	-0.638650	-0.447211
C80	C	0.412014	-0.624251	-0.437133
H81	H	0.401517	-0.543127	-0.413130
H82	H	0.382828	-0.631481	-0.492253
H83	H	0.390176	-0.686498	-0.397870
H84	H	0.853393	-0.672375	-0.454636
O85	O	0.940537	-0.766193	-0.358069
C86	C	0.898862	-0.674632	-0.346268
H87	H	0.851100	-0.672394	-0.386663
H88	H	0.876681	-0.674659	-0.287738
H89	H	0.935104	-0.602805	-0.354861
H90	H	1.149081	-0.383996	-0.924712
H91	H	0.978252	-0.627787	-0.924657
O92	O	0.639717	-0.373369	-0.262074
C93	C	0.684214	-0.305601	-0.304051
H94	H	0.661074	-0.299215	-0.362021
H95	H	0.685091	-0.224700	-0.277530
H96	H	0.742459	-0.338087	-0.306547
O97	O	0.488051	-0.373590	-0.262009
C98	C	0.411976	-0.388003	-0.272101
H99	H	0.401477	-0.469129	-0.296104
H100	H	0.382744	-0.380775	-0.216988
H101	H	0.390192	-0.325760	-0.311370
H102	H	0.983217	-1.000407	-0.544611
H103	H	1.188386	-1.239246	-0.339895
O104	O	0.970807	-0.638503	-0.779282
C105	C	0.929247	-0.697774	-0.829661
H106	H	0.959396	-0.701400	-0.884454
H107	H	0.921376	-0.780557	-0.807437
H108	H	0.873364	-0.659296	-0.837829
O109	O	1.301727	-1.283047	-0.116956
C110	C	1.275569	-1.386243	-0.107816
H111	H	1.239360	-1.408187	-0.156476
H112	H	1.324027	-1.442577	-0.104584
H113	H	1.242167	-1.391413	-0.054997
H114	H	1.143986	-1.010746	-0.164627
O115	O	1.231338	-1.104789	-0.068030
C116	C	1.280579	-1.172599	-0.031842
H117	H	1.315289	-1.215807	-0.074211
H118	H	1.317912	-1.125010	0.005714
H119	H	1.248354	-1.231810	0.002233
O120	O	0.895906	-0.906316	-0.641216
C121	C	0.846637	-0.838533	-0.677391
H122	H	0.847462	-0.758519	-0.649582
H123	H	0.863780	-0.829693	-0.737272
H124	H	0.788832	-0.872575	-0.674571
O125	O	1.279439	-1.352915	-0.258617
C126	C	1.259339	-1.372542	-0.332079
H127	H	1.239936	-1.296581	-0.358714
H128	H	1.308752	-1.404210	-0.363432
H129	H	1.213077	-1.432703	-0.333494
