data_functionalizedCrystal
_audit_creation_method	'MofGen! by Chris Wilmer'
_symmetry_space_group_name_H-M	'P1'
_symmetry_Int_Tables_number	1
_symmetry_cell_setting	triclinic
loop_
_symmetry_equiv_pos_as_xyz
  x,y,z
_cell_length_a	12.827893
_cell_length_b	12.645330
_cell_length_c	12.827885
_cell_angle_alpha	89.968887
_cell_angle_beta	89.980918
_cell_angle_gamma	90.012807
loop_
_atom_site_label
_atom_site_type_symbol
_atom_site_fract_x
_atom_site_fract_y
_atom_site_fract_z
Zn1	Zn	1.597690	-0.421983	-0.590834
Zn2	Zn	1.597592	-0.599284	-0.416090
Zn3	Zn	1.422931	-0.422036	-0.416108
Zn4	Zn	1.422925	-0.599206	-0.590791
O5	O	1.510284	-0.510627	-0.503456
O6	O	1.743913	-0.445514	-0.567664
O7	O	1.574385	-0.575826	-0.269856
O8	O	1.446156	-0.273681	-0.439311
O9	O	1.743841	-0.575776	-0.439281
O10	O	1.574551	-0.273643	-0.567682
O11	O	1.446062	-0.445603	-0.269869
O12	O	1.276694	-0.445527	-0.439269
O13	O	1.446146	-0.575642	-0.737032
O14	O	1.276689	-0.575693	-0.567608
O15	O	1.574545	-0.445438	-0.737064
O16	O	1.574379	-0.747621	-0.439239
O17	O	1.446051	-0.747563	-0.567591
C18	C	1.238774	-0.510608	-0.503437
C19	C	1.122621	-0.510625	-0.503453
C20	C	0.950817	-0.575152	-0.566877
C21	C	1.070868	-0.575136	-0.566861
C22	C	1.510232	-0.786057	-0.503431
C23	C	1.510305	-0.903887	-0.503455
C24	C	1.590906	-1.071443	-0.422545
C25	C	1.591169	-0.948883	-0.422743
C26	C	1.540172	-0.948261	-0.613609
C27	C	1.540811	-1.070859	-0.613179
C28	C	1.399806	-1.071217	-0.475298
C29	C	1.400335	-0.948613	-0.472827
C30	C	1.782854	-0.510648	-0.503475
C31	C	1.899007	-0.510656	-0.503484
C32	C	1.510355	-0.510525	-0.776026
C33	C	1.510386	-0.510482	-0.892179
C34	C	1.510365	-0.234122	-0.503503
C35	C	1.510400	-0.116292	-0.503524
C36	C	1.573929	-0.446040	-0.943980
C37	C	1.573961	-0.445994	-1.064030
C38	C	1.510274	-0.510652	-0.231946
C39	C	1.510446	-0.510397	-0.115793
H40	H	1.115423	-0.630348	-0.621140
H41	H	1.456045	-0.565575	-1.071253
F42	F	1.064395	-0.438441	-0.432514
F43	F	1.645076	-0.373884	-1.122252
H44	H	1.572482	-0.918886	-0.341066
F45	F	1.439303	-0.582547	-0.950376
F46	F	1.644985	-0.373948	-0.885783
F47	F	0.957193	-0.438470	-0.432521
H48	H	1.621650	-1.099370	-0.637089
H49	H	1.572454	-1.101002	-0.340629
H50	H	1.673082	-0.919473	-0.441413
H51	H	1.672380	-1.102172	-0.441006
H52	H	1.483320	-0.919111	-0.675560
F53	F	0.892632	-0.647357	-0.637821
F54	F	1.467488	-1.109635	-0.694721
H55	H	1.620097	-0.917471	-0.637917
H56	H	1.372646	-1.102232	-0.396373
H57	H	1.377816	-0.919622	-0.391763
H58	H	1.337116	-0.917994	-0.527483
H59	H	1.339822	-1.100220	-0.534277
