data_functionalizedCrystal
_audit_creation_method	'MofGen! by Chris Wilmer'
_symmetry_space_group_name_H-M	'P1'
_symmetry_Int_Tables_number	1
_symmetry_cell_setting	triclinic
loop_
_symmetry_equiv_pos_as_xyz
  x,y,z
_cell_length_a	21.395362
_cell_length_b	13.897449
_cell_length_c	21.395361
_cell_angle_alpha	89.984847
_cell_angle_beta	89.953415
_cell_angle_gamma	90.024426
loop_
_atom_site_label
_atom_site_type_symbol
_atom_site_fract_x
_atom_site_fract_y
_atom_site_fract_z
Zn1	Zn	0.957739	0.545870	0.249285
Zn2	Zn	1.457739	1.045870	0.749285
Zn3	Zn	0.957677	0.384555	0.354033
Zn4	Zn	1.457677	0.884555	0.854033
Zn5	Zn	0.852989	0.384531	0.249303
Zn6	Zn	1.352989	0.884531	0.749303
Zn7	Zn	0.852923	0.545750	0.354058
Zn8	Zn	1.352923	1.045750	0.854058
O9	O	0.905332	0.465177	0.301670
O10	O	1.405332	0.965177	0.801670
O11	O	1.045408	0.524532	0.263162
O12	O	1.545408	1.024532	0.763162
O13	O	0.943792	0.249570	0.340138
O14	O	1.443792	0.749570	0.840138
O15	O	0.866938	0.405973	0.161622
O16	O	1.366938	0.905973	0.661622
O17	O	1.045363	0.406015	0.340121
O18	O	1.545363	0.906015	0.840121
O19	O	0.943897	0.524509	0.161609
O20	O	1.443897	1.024509	0.661609
O21	O	0.866878	0.249553	0.263192
O22	O	1.366878	0.749553	0.763192
O23	O	0.765303	0.405856	0.263216
O24	O	1.265303	0.905856	0.763216
O25	O	0.866825	0.680747	0.340162
O26	O	1.366825	1.180747	0.840162
O27	O	0.765254	0.524303	0.340179
O28	O	1.265254	1.024303	0.840179
O29	O	0.943833	0.680836	0.263186
O30	O	1.443833	1.180836	0.763186
O31	O	0.943727	0.405898	0.441714
O32	O	1.443727	0.905898	0.941714
O33	O	0.866765	0.524327	0.441732
O34	O	1.366765	1.024327	0.941732
C35	C	0.742544	0.465065	0.301703
C36	C	1.242544	0.965065	0.801703
C37	C	0.672903	0.465040	0.301732
C38	C	1.172903	0.965040	0.801732
C39	C	0.640181	0.526623	0.341860
C40	C	1.140181	1.026623	0.841860
C41	C	0.574745	0.526665	0.341844
C42	C	1.074745	1.026665	0.841844
C43	C	0.542035	0.465108	0.301708
C44	C	1.042035	0.965108	0.801708
C45	C	0.574765	0.403521	0.261572
C46	C	1.074765	0.903521	0.761572
C47	C	0.640199	0.403487	0.261584
C48	C	1.140199	0.903487	0.761584
C49	C	0.438329	0.378272	0.296654
C50	C	0.938329	0.878272	0.796654
C51	C	0.372896	0.378305	0.296646
C52	C	0.872896	0.878305	0.796646
C53	C	0.340214	0.465215	0.301667
C54	C	0.840214	0.965215	0.801667
C55	C	0.372973	0.552095	0.306708
C56	C	0.872973	1.052095	0.806708
C57	C	0.438407	0.552061	0.306720
C58	C	0.938407	1.052061	0.806720
C59	C	0.471082	0.465139	0.301690
C60	C	0.971082	0.965139	0.801690
C61	C	0.236539	0.526850	0.341780
C62	C	0.736539	1.026850	0.841780
C63	C	0.171103	0.526894	0.341761
C64	C	0.671103	1.026894	0.841761
C65	C	0.171123	0.403741	0.261492
C66	C	0.671123	0.903741	0.761492
C67	C	0.236559	0.403705	0.261508
C68	C	0.736559	0.903705	0.761508
C69	C	0.269263	0.465258	0.301656
C70	C	0.769263	0.965258	0.801656
C71	C	0.905328	0.716769	0.301675
C72	C	1.405328	1.216769	0.801675
C73	C	0.905327	0.823983	0.301677
C74	C	1.405327	1.323983	0.801677
C75	C	0.905325	0.911053	0.301680
C76	C	1.405325	1.411053	0.801680
C77	C	0.905325	1.020286	0.301677
C78	C	1.405325	1.520286	0.801677
C79	C	1.068755	0.465289	0.301637
C80	C	1.568755	0.965289	0.801637
C81	C	1.138397	0.465338	0.301623
C82	C	1.638397	0.965338	0.801623
C83	C	0.905249	0.465123	0.464457
C84	C	1.405249	0.965123	0.964457
C85	C	0.905271	0.465132	0.534099
C86	C	1.405271	0.965132	1.034099
C87	C	0.905330	1.214562	0.301677
C88	C	1.405330	1.714562	0.801677
C89	C	0.905328	1.107348	0.301671
C90	C	1.405328	1.607348	0.801671
C91	C	0.905432	0.465252	0.138246
C92	C	1.405432	0.965252	0.638246
C93	C	0.905475	0.465284	0.068605
C94	C	1.405475	0.965284	0.568605
C95	C	0.945381	0.403529	0.566781
C96	C	1.445381	0.903529	1.066781
C97	C	0.945410	0.403551	0.632217
C98	C	1.445410	0.903551	1.132217
C99	C	0.905318	0.465165	0.664967
C100	C	1.405318	0.965165	1.164967
C101	C	0.865206	0.526780	0.632276
C102	C	1.365206	1.026780	1.132276
C103	C	0.865182	0.526763	0.566842
C104	C	1.365182	1.026763	1.066842
C105	C	0.848902	0.472695	0.768698
C106	C	1.348902	0.972695	1.268698
C107	C	0.848924	0.472704	0.834131
C108	C	1.348924	0.972704	1.334131
C109	C	0.905391	0.465222	0.866788
C110	C	1.405391	0.965222	1.366788
C111	C	0.961837	0.457709	0.834003
C112	C	1.461837	0.957709	1.334003
C113	C	0.961814	0.457693	0.768569
C114	C	1.461814	0.957693	1.268569
C115	C	0.905340	0.465190	0.735919
C116	C	1.405340	0.965190	1.235919
C117	C	0.945536	0.403639	0.970423
C118	C	1.445536	0.903639	1.470423
C119	C	0.945566	0.403668	1.035860
C120	C	1.445566	0.903668	1.535860
C121	C	0.865356	0.526892	1.035917
C122	C	1.365356	1.026892	1.535917
C123	C	0.865332	0.526868	0.970482
C124	C	1.365332	1.026868	1.470482
C125	C	0.905421	0.465237	0.937739
C126	C	1.405421	0.965237	1.437739
H127	H	0.464934	0.307495	0.292563
H128	H	0.964934	0.807495	0.792563
H129	H	0.802962	0.478812	0.860819
H130	H	1.302962	0.978812	1.360819
H131	H	0.978232	0.353505	1.062469
H132	H	1.478232	0.853505	1.562469
H133	H	0.263201	0.353553	0.228835
H134	H	0.763201	0.853553	0.728835
N135	N	0.337566	0.284604	0.291214
N136	N	0.837566	0.784604	0.791214
H137	H	0.368198	0.229543	0.288028
H138	H	0.868198	0.729543	0.788028
H139	H	0.310455	0.286121	0.252606
H140	H	0.810455	0.786121	0.752606
H141	H	0.978025	0.353348	0.540124
H142	H	1.478025	0.853348	1.040124
H143	H	1.007818	0.451616	0.860590
H144	H	1.507818	0.951616	1.360590
H145	H	0.978181	0.353458	0.943762
H146	H	1.478181	0.853458	1.443762
N147	N	0.821917	0.593201	0.531583
N148	N	1.321917	1.093201	1.031583
H149	H	0.831613	0.662144	0.542936
H150	H	1.331613	1.162144	1.042936
H151	H	0.777180	0.578054	0.543042
H152	H	1.277180	1.078054	1.043042
H153	H	0.144491	0.353625	0.228809
H154	H	0.644491	0.853625	0.728809
N155	N	0.675489	0.337052	0.218302
N156	N	1.175489	0.837052	0.718302
H157	H	0.702588	0.292262	0.243723
H158	H	1.202588	0.792262	0.743723
H159	H	0.702651	0.376386	0.189320
H160	H	1.202651	0.876386	0.689320
N161	N	0.539441	0.593091	0.385125
N162	N	1.039441	1.093091	0.885125
H163	H	0.570089	0.632080	0.410559
H164	H	1.070089	1.132080	0.910559
H165	H	0.512245	0.553751	0.414072
H166	H	1.012245	1.053751	0.914072
H167	H	0.144461	0.577048	0.374436
H168	H	0.644461	1.077048	0.874436
N169	N	0.539489	0.337115	0.218289
N170	N	1.039489	0.837115	0.718289
H171	H	0.493070	0.346473	0.224375
H172	H	0.993070	0.846473	0.724375
H173	H	0.550889	0.268197	0.227981
H174	H	1.050889	0.768197	0.727981
H175	H	0.978074	0.353387	0.658832
H176	H	1.478074	0.853387	1.158832
H177	H	1.007773	0.451578	0.741877
H178	H	1.507773	0.951578	1.241877
H179	H	0.832564	0.576948	0.658945
H180	H	1.332564	1.076948	1.158945
H181	H	0.832715	0.577063	1.062582
H182	H	1.332715	1.077063	1.562582
H183	H	0.832668	0.577027	0.943870
H184	H	1.332668	1.077027	1.443870
H185	H	0.802916	0.478792	0.742116
H186	H	1.302916	0.978792	1.242116
H187	H	0.465076	0.622801	0.310824
H188	H	0.965076	1.122801	0.810824
N189	N	0.675454	0.593009	0.385160
N190	N	1.175454	1.093009	0.885160
H191	H	0.644792	0.632028	0.410578
H192	H	1.144792	1.132028	0.910578
H193	H	0.702651	0.637710	0.359709
H194	H	1.202651	1.137710	0.859709
H195	H	0.346364	0.622866	0.310796
H196	H	0.846364	1.122866	0.810796
N197	N	0.271819	0.593237	0.385077
N198	N	0.771819	1.093237	0.885077
H199	H	0.241158	0.632263	0.410493
H200	H	0.741158	1.132263	0.910493
H201	H	0.299019	0.637931	0.359625
H202	H	0.799019	1.137931	0.859625
