data_functionalizedCrystal
_audit_creation_method	'MofGen! by Chris Wilmer'
_symmetry_space_group_name_H-M	'P1'
_symmetry_Int_Tables_number	1
_symmetry_cell_setting	triclinic
loop_
_symmetry_equiv_pos_as_xyz
  x,y,z
_cell_length_a	11.026607
_cell_length_b	16.109301
_cell_length_c	15.186229
_cell_angle_alpha	90.002208
_cell_angle_beta	90.004485
_cell_angle_gamma	83.976251
loop_
_atom_site_label
_atom_site_type_symbol
_atom_site_fract_x
_atom_site_fract_y
_atom_site_fract_z
O1	O	0.155976	-1.126500	0.073169
O2	O	0.655976	-0.626500	0.573169
O3	O	0.175386	-0.887347	0.073183
O4	O	0.675386	-0.387347	0.573183
O5	O	-0.010964	-0.987103	0.073174
O6	O	0.489036	-0.487103	0.573174
O7	O	0.342326	-1.026744	0.073178
O8	O	0.842326	-0.526744	0.573178
O9	O	-0.010975	-0.987100	-0.073283
O10	O	0.489025	-0.487100	0.426717
O11	O	0.175375	-0.887344	-0.073274
O12	O	0.675375	-0.387344	0.426726
O13	O	0.155965	-1.126497	-0.073288
O14	O	0.655965	-0.626497	0.426712
Zn15	Zn	0.165668	-1.006920	-0.096534
Zn16	Zn	0.665668	-0.506920	0.403466
Zn17	Zn	0.165683	-1.006924	0.096429
Zn18	Zn	0.665683	-0.506924	0.596429
O19	O	0.342315	-1.026741	-0.073279
O20	O	0.842315	-0.526741	0.426721
C21	C	0.174594	-0.856253	-0.000044
C22	C	0.674594	-0.356253	0.499956
C23	C	0.172237	-0.763604	-0.000039
C24	C	0.672237	-0.263604	0.499961
N25	N	0.165684	-1.006925	0.228122
N26	N	0.665684	-0.506925	0.728122
C27	C	-0.056178	-0.979788	-0.000053
C28	C	0.443822	-0.479788	0.499947
C29	C	-0.190883	-0.957987	-0.000049
C30	C	0.309117	-0.457987	0.499951
C31	C	-0.264713	-1.018183	-0.000051
C32	C	0.235287	-0.518183	0.499949
C33	C	-0.403938	-0.995652	-0.000046
C34	C	0.096062	-0.495652	0.499954
C35	C	0.387529	-1.034056	-0.000050
C36	C	0.887529	-0.534056	0.499950
C37	C	0.522234	-1.055857	-0.000049
C38	C	1.022234	-0.555857	0.499951
C39	C	0.156756	-1.157591	-0.000059
C40	C	0.656756	-0.657591	0.499941
C41	C	0.159114	-1.250240	-0.000059
C42	C	0.659114	-0.750240	0.499941
C43	C	0.277333	-0.557080	-0.000048
C44	C	0.777333	-0.057080	0.499952
C45	C	0.275108	-0.470027	-0.000053
C46	C	0.775108	0.029973	0.499947
C47	C	0.054010	-0.456769	-0.000052
C48	C	0.554010	0.043231	0.499948
C49	C	0.056235	-0.543821	-0.000053
C50	C	0.556235	-0.043821	0.499947
C51	C	0.167900	-0.593975	-0.000046
C52	C	0.667900	-0.093975	0.499954
C53	C	0.163450	-0.419869	-0.000051
C54	C	0.663450	0.080131	0.499949
C55	C	0.161038	-0.325481	-0.000057
C56	C	0.661038	0.174519	0.499943
C57	C	0.170314	-0.688369	-0.000042
C58	C	0.670314	-0.188369	0.499958
N59	N	0.165657	-1.006924	-0.228227
N60	N	0.665657	-0.506924	0.271773
C61	C	0.083327	-1.051230	0.453841
C62	C	0.583327	-0.551230	0.953841
C63	C	0.083324	-1.051232	0.546031
C64	C	0.583324	-0.551232	1.046031
C65	C	0.248023	-0.962618	0.546047
C66	C	0.748023	-0.462618	1.046047
C67	C	0.248031	-0.962621	0.453859
C68	C	0.748031	-0.462621	0.953859
C69	C	0.165676	-1.006925	0.407759
C70	C	0.665676	-0.506925	0.907759
C71	C	0.165665	-1.006924	0.592136
C72	C	0.665665	-0.506924	1.092136
C73	C	0.165662	-1.006926	0.692092
C74	C	0.665662	-0.506926	1.192092
C75	C	0.165680	-1.006925	0.307796
C76	C	0.665680	-0.506925	0.807796
H77	H	-0.224848	-1.086399	-0.000060
H78	H	0.275152	-0.586399	0.499940
Br79	Br	-0.028434	-1.111368	0.608568
Br80	Br	0.471566	-0.611368	1.108568
Br81	Br	0.423630	-0.419959	-0.000060
Br82	Br	0.923630	0.080041	0.499940
H83	H	0.315072	-0.926545	0.583592
H84	H	0.815072	-0.426545	1.083592
Br85	Br	-0.092291	-0.593898	-0.000062
Br86	Br	0.407709	-0.093898	0.499938
H87	H	-0.036904	-0.415924	-0.000063
H88	H	0.463096	0.084076	0.499937
H89	H	0.315095	-0.926543	0.416337
H90	H	0.815095	-0.426543	0.916337
Br91	Br	-0.470362	-0.881946	-0.000027
Br92	Br	0.029638	-0.381946	0.499973
H93	H	-0.230748	-0.889771	-0.000039
H94	H	0.269252	-0.389771	0.499961
H95	H	0.368257	-0.597913	-0.000049
H96	H	0.868257	-0.097913	0.499951
H97	H	0.016271	-1.087307	0.416308
H98	H	0.516271	-0.587307	0.916308
H99	H	-0.437909	-1.124077	0.000014
H100	H	0.062091	-0.624077	0.500014
