data_functionalizedCrystal
_audit_creation_method	'MofGen! by Chris Wilmer'
_symmetry_space_group_name_H-M	'P1'
_symmetry_Int_Tables_number	1
_symmetry_cell_setting	triclinic
loop_
_symmetry_equiv_pos_as_xyz
  x,y,z
_cell_length_a	11.169417
_cell_length_b	11.169416
_cell_length_c	11.169409
_cell_angle_alpha	89.972296
_cell_angle_beta	89.978351
_cell_angle_gamma	90.010304
loop_
_atom_site_label
_atom_site_type_symbol
_atom_site_fract_x
_atom_site_fract_y
_atom_site_fract_z
Zn1	Zn	-1.834948	0.477767	0.678640
Zn2	Zn	-1.584948	0.727767	0.928640
Zn3	Zn	-1.334948	0.977767	1.178640
Zn4	Zn	-1.084948	1.227767	1.428640
Zn5	Zn	-1.834831	0.678507	0.477973
Zn6	Zn	-1.584831	0.928507	0.727973
Zn7	Zn	-1.334831	1.178507	0.977973
Zn8	Zn	-1.084831	1.428507	1.227973
Zn9	Zn	-1.634234	0.477831	0.477968
Zn10	Zn	-1.384234	0.727831	0.727968
Zn11	Zn	-1.134234	0.977831	0.977968
Zn12	Zn	-0.884234	1.227831	1.227968
Zn13	Zn	-1.634235	0.678400	0.678611
Zn14	Zn	-1.384235	0.928400	0.928611
Zn15	Zn	-1.134235	1.178400	1.178611
Zn16	Zn	-0.884235	1.428400	1.428611
O17	O	-1.734562	0.578126	0.578298
O18	O	-1.484562	0.828126	0.828298
O19	O	-1.234562	1.078126	1.078298
O20	O	-0.984562	1.328126	1.328298
O21	O	-2.002882	0.504414	0.652035
O22	O	-1.752882	0.754414	0.902035
O23	O	-1.502882	1.004414	1.152035
O24	O	-1.252882	1.254414	1.402035
O25	O	-1.808172	0.651959	0.310022
O26	O	-1.558172	0.901959	0.560022
O27	O	-1.308172	1.151959	0.810022
O28	O	-1.058172	1.401959	1.060022
O29	O	-1.660907	0.309873	0.504597
O30	O	-1.410907	0.559873	0.754597
O31	O	-1.160907	0.809873	1.004597
O32	O	-0.910907	1.059873	1.254597
O33	O	-2.002796	0.651897	0.504606
O34	O	-1.752796	0.901897	0.754606
O35	O	-1.502796	1.151897	1.004606
O36	O	-1.252796	1.401897	1.254606
O37	O	-1.808371	0.309826	0.652030
O38	O	-1.558371	0.559826	0.902030
O39	O	-1.308371	0.809826	1.152030
O40	O	-1.058371	1.059826	1.402030
O41	O	-1.660794	0.504522	0.310019
O42	O	-1.410794	0.754522	0.560019
O43	O	-1.160794	1.004522	0.810019
O44	O	-0.910794	1.254522	1.060019
O45	O	-1.466284	0.504419	0.504570
O46	O	-1.216284	0.754419	0.754570
O47	O	-0.966284	1.004419	1.004570
O48	O	-0.716284	1.254419	1.254570
O49	O	-1.660909	0.651714	0.846565
O50	O	-1.410909	0.901714	1.096565
O51	O	-1.160909	1.151714	1.346565
O52	O	-0.910909	1.401714	1.596565
O53	O	-1.466285	0.651776	0.651982
O54	O	-1.216285	0.901776	0.901982
O55	O	-0.966285	1.151776	1.151982
O56	O	-0.716285	1.401776	1.401982
O57	O	-1.808372	0.504310	0.846586
O58	O	-1.558372	0.754310	1.096586
O59	O	-1.308372	1.004310	1.346586
O60	O	-1.058372	1.254310	1.596586
O61	O	-1.808173	0.846443	0.504578
O62	O	-1.558173	1.096443	0.754578
O63	O	-1.308173	1.346443	1.004578
O64	O	-1.058173	1.596443	1.254578
O65	O	-1.660796	0.846364	0.651987
O66	O	-1.410796	1.096364	0.901987
O67	O	-1.160796	1.346364	1.151987
O68	O	-0.910796	1.596364	1.401987
C69	C	-1.422737	0.578094	0.578273
C70	C	-1.172737	0.828094	0.828273
C71	C	-0.922737	1.078094	1.078273
C72	C	-0.672737	1.328094	1.328273
C73	C	-1.289337	0.578109	0.578290
C74	C	-1.039337	0.828109	0.828290
C75	C	-0.789337	1.078109	1.078290
C76	C	-0.539337	1.328109	1.328290
C77	C	-1.734505	0.889951	0.578306
C78	C	-1.484505	1.139951	0.828306
C79	C	-1.234505	1.389951	1.078306
C80	C	-0.984505	1.639951	1.328306
C81	C	-1.734590	1.023351	0.578350
C82	C	-1.484590	1.273351	0.828350
C83	C	-1.234590	1.523351	1.078350
C84	C	-0.984590	1.773351	1.328350
C85	C	-1.047604	0.578148	0.578316
C86	C	-0.797604	0.828148	0.828316
C87	C	-0.547604	1.078148	1.078316
C88	C	-0.297604	1.328148	1.328316
C89	C	-1.181004	0.578128	0.578303
C90	C	-0.931004	0.828128	0.828303
C91	C	-0.681004	1.078128	1.078303
C92	C	-0.431004	1.328128	1.328303
C93	C	-1.734654	0.577993	0.891341
C94	C	-1.484654	0.827993	1.141341
C95	C	-1.234654	1.077993	1.391341
C96	C	-0.984654	1.327993	1.641341
C97	C	-1.734693	0.577936	1.024741
C98	C	-1.484693	0.827936	1.274741
C99	C	-1.234693	1.077936	1.524741
C100	C	-0.984693	1.327936	1.774741
C101	C	-1.734643	1.265084	0.578332
C102	C	-1.484643	1.515084	0.828332
C103	C	-1.234643	1.765084	1.078332
C104	C	-0.984643	2.015084	1.328332
C105	C	-1.734657	1.131684	0.578388
C106	C	-1.484657	1.381684	0.828388
C107	C	-1.234657	1.631684	1.078388
C108	C	-0.984657	1.881684	1.328388
C109	C	-1.734539	0.578172	0.266473
C110	C	-1.484539	0.828172	0.516473
C111	C	-1.234539	1.078172	0.766473
C112	C	-0.984539	1.328172	1.016473
C113	C	-1.734732	0.577891	0.133074
C114	C	-1.484732	0.827891	0.383074
C115	C	-1.234732	1.077891	0.633074
C116	C	-0.984732	1.327891	0.883074
