data_functionalizedCrystal
_audit_creation_method	'MofGen! by Chris Wilmer'
_symmetry_space_group_name_H-M	'P1'
_symmetry_Int_Tables_number	1
_symmetry_cell_setting	triclinic
loop_
_symmetry_equiv_pos_as_xyz
  x,y,z
_cell_length_a	23.096457
_cell_length_b	23.196402
_cell_length_c	23.196401
_cell_angle_alpha	60.007332
_cell_angle_beta	90.011366
_cell_angle_gamma	60.002509
loop_
_atom_site_label
_atom_site_type_symbol
_atom_site_fract_x
_atom_site_fract_y
_atom_site_fract_z
Zr1	Zr	0.557822	0.630964	-0.075643
O2	O	0.465361	0.751229	-0.167688
O3	O	0.586157	0.510702	-0.047429
O4	O	0.586141	0.630965	-0.167695
O5	O	0.465401	0.630965	0.047449
O6	O	0.681423	0.630963	-0.167697
O7	O	0.465378	0.630966	-0.047422
O8	O	0.681453	0.415834	0.047437
O9	O	0.465371	0.846093	-0.167684
O10	O	0.669360	0.560165	-0.035394
O11	O	0.598269	0.560166	0.035409
O12	O	0.598250	0.701760	-0.106189
O13	O	0.527159	0.701760	-0.035386
Zr14	Zr	0.709822	0.630958	0.075663
Zr15	Zr	0.709786	0.630961	-0.075646
Zr16	Zr	0.557858	0.630962	0.075666
Zr17	Zr	0.557837	0.782262	-0.075637
Zr18	Zr	0.709807	0.479661	0.075657
O19	O	0.681487	0.751221	0.047449
O20	O	0.681435	0.751224	-0.167692
O21	O	0.465413	0.751226	0.047454
O22	O	0.802283	0.510694	0.167708
O23	O	0.802231	0.510697	-0.047434
O24	O	0.586209	0.510699	0.167713
O25	O	0.802243	0.630958	-0.047429
O26	O	0.681504	0.630958	0.167715
O27	O	0.586221	0.630960	0.167717
O28	O	0.802266	0.630957	0.047442
O29	O	0.586162	0.846090	-0.167687
O30	O	0.681482	0.415832	0.167707
O31	O	0.802273	0.415830	0.167705
O32	O	0.802244	0.415831	0.047434
O33	O	0.465400	0.846091	-0.047414
O34	O	0.586191	0.846088	-0.047416
O35	O	0.669394	0.560163	0.106209
O36	O	0.740486	0.560162	0.035406
O37	O	0.669375	0.701757	-0.035389
O38	O	0.598284	0.701758	0.035414
C39	C	0.633803	0.441712	0.000003
C40	C	0.633796	0.377482	0.000001
C41	C	0.686301	0.295051	0.052260
C42	C	0.686306	0.234691	0.052267
C43	C	0.633811	0.256766	0.000003
C44	C	0.581297	0.339211	-0.052261
C45	C	0.581290	0.399569	-0.052262
C46	C	0.617452	0.201180	-0.063789
C47	C	0.617464	0.140821	-0.063788
C48	C	0.633830	0.070604	0.000006
C49	C	0.650200	0.060744	0.063803
C50	C	0.650192	0.121102	0.063802
C51	C	0.633813	0.191324	-0.000002
C52	C	0.686344	-0.077280	0.052277
C53	C	0.686344	-0.137639	0.052284
C54	C	0.581337	-0.033117	-0.052250
C55	C	0.581335	0.027240	-0.052251
C56	C	0.633841	0.005154	0.000012
C57	C	0.443738	0.630966	0.000014
C58	C	0.379225	0.630967	0.000016
C59	C	0.348910	0.630974	-0.052253
C60	C	0.288297	0.630967	-0.052253
C61	C	0.257995	0.630969	0.000011
C62	C	0.288320	0.630958	0.052289
C63	C	0.348935	0.630957	0.052291
N64	N	0.139651	0.677122	0.015835
N65	N	0.082068	0.677125	0.015828
C66	C	0.075365	0.630969	0.000007
N67	N	0.128415	0.584822	-0.015821
N68	N	0.186002	0.584823	-0.015818
C69	C	0.192268	0.630969	0.000014
C70	C	-0.020672	0.630967	-0.052265
C71	C	-0.081283	0.630954	-0.052260
C72	C	-0.081264	0.630954	0.052279
C73	C	-0.020650	0.630958	0.052277
C74	C	0.009640	0.630968	0.000001
C75	C	0.823906	0.630957	0.000006
C76	C	0.888419	0.630955	0.000005
C77	C	0.633777	0.630964	-0.189254
C78	C	0.633761	0.630965	-0.253489
C79	C	0.633841	0.820211	0.000017
C80	C	0.633848	0.884441	0.000020
C81	C	0.596646	0.704874	-0.320616
C82	C	0.596664	0.704875	-0.380971
C83	C	0.633788	0.630963	-0.374195
C84	C	0.670911	0.557045	-0.307056
C85	C	0.670898	0.557046	-0.246703
C86	C	0.628509	0.574337	-0.441514
C87	C	0.628517	0.574339	-0.501868
C88	C	0.633832	0.630957	-0.560343
C89	C	0.639125	0.687586	-0.558464
C90	C	0.639112	0.687587	-0.498110
C91	C	0.633806	0.630954	-0.439634
C92	C	0.596735	0.704872	-0.692917
C93	C	0.596758	0.704870	-0.753271
C94	C	0.671001	0.557038	-0.679354
C95	C	0.670982	0.557042	-0.619001
C96	C	0.633845	0.630961	-0.625787
C97	C	0.633868	0.630958	0.189275
C98	C	0.633883	0.630957	0.253509
C99	C	0.823887	0.441707	-0.000001
C100	C	0.888393	0.377476	-0.000005
C101	C	0.633848	0.441709	0.189268
C102	C	0.633857	0.377478	0.253500
C103	C	0.823933	0.441704	0.189264
C104	C	0.888454	0.377472	0.253494
C105	C	0.443712	0.820219	-0.189243
C106	C	0.379190	0.884451	-0.253474
C107	C	0.443757	0.820216	0.000021
C108	C	0.379251	0.884447	0.000025
C109	C	0.633796	0.820214	-0.189247
C110	C	0.633787	0.884445	-0.253479
C111	C	0.881560	0.347314	-0.036970
C112	C	0.942164	0.286970	-0.036987
C113	C	1.009602	0.256785	-0.000035
C114	C	1.016435	0.286954	0.036931
C115	C	0.955830	0.347300	0.036944
C116	C	0.670988	0.347313	0.320627
C117	C	0.670994	0.286970	0.380986
C118	C	0.633872	0.256789	0.374216
C119	C	0.596737	0.286960	0.307081
C120	C	0.596728	0.347306	0.246724
C121	C	0.955870	0.347307	0.246699
C122	C	1.016500	0.286963	0.307045
C123	C	1.009714	0.256780	0.374185
C124	C	0.942292	0.286950	0.380979
C125	C	0.881663	0.347298	0.320634
C126	C	0.311775	0.914623	-0.246679
C127	C	0.251144	0.974986	-0.307025
C128	C	0.257930	1.005172	-0.374165
C129	C	0.325352	0.974998	-0.380959
C130	C	0.385981	0.914640	-0.320613
C131	C	0.386085	0.914615	0.036984
C132	C	0.325480	0.974976	0.036985
C133	C	0.258042	1.005162	0.000031
C134	C	0.251210	0.974991	-0.036932
C135	C	0.311814	0.914636	-0.036937
C136	C	0.670915	0.914607	-0.246687
C137	C	0.670921	0.974950	-0.307034
C138	C	0.633793	1.005135	-0.374173
C139	C	0.596664	0.974967	-0.380964
C140	C	0.596663	0.914620	-0.320618
H141	H	0.663521	0.003574	0.115750
H142	H	0.263645	0.630957	0.094843
H143	H	0.330869	0.999583	-0.435631
H144	H	0.538531	0.466691	-0.094818
H145	H	0.440872	0.890074	-0.326154
H146	H	1.058944	0.207647	-0.000051
F147	F	0.304536	0.882505	-0.175229
F148	F	0.332766	1.007073	0.076330
F149	F	0.179395	1.007086	-0.299780
F150	F	0.193547	1.069398	0.000043
H151	H	0.643450	0.733692	-0.606077
F152	F	0.633799	1.069363	-0.438394
F153	F	0.011568	0.630973	-0.107898
H154	H	0.373618	0.630951	0.094856
H155	H	0.604138	0.148855	-0.115735
F156	F	0.710503	0.379421	0.327848
F157	F	0.557137	0.882532	-0.327858
F158	F	0.179432	1.007125	-0.076257
F159	F	0.935081	0.254819	0.452440
F160	F	0.742180	0.271540	0.107887
F161	F	0.633889	0.192562	0.438460
F162	F	1.088213	0.254819	0.076257
F163	F	-0.113545	0.630955	-0.107891
H164	H	0.826772	0.371850	0.326176
H165	H	0.208556	1.054319	-0.423296
F166	F	0.742225	-0.225374	0.107913
H167	H	1.059089	0.207641	0.423317
H168	H	0.263610	0.630972	-0.094818
F169	F	0.710435	0.882493	-0.175238
H170	H	0.729063	0.167563	0.094825
H171	H	0.701203	0.496857	-0.564342
H172	H	-0.105933	0.630951	0.094835
F173	F	0.457851	0.882501	0.076316
F174	F	0.525426	0.362704	-0.107882
F175	F	0.304530	0.882531	-0.076272
H176	H	0.566409	0.765065	-0.326148
H177	H	0.663518	0.113071	0.115748
H178	H	0.701155	0.999507	-0.301490
F179	F	0.557209	0.379399	0.175284
F180	F	0.622878	0.514075	-0.503865
H181	H	0.004032	0.630957	0.094837
H182	H	0.566438	0.765062	-0.435636
F183	F	0.963108	0.379423	0.175249
F184	F	0.644745	0.747854	-0.496111
F185	F	0.557147	1.007105	-0.452425
F186	F	0.742224	-0.100784	0.107900
H187	H	1.071393	0.262404	0.301501
H188	H	0.538594	-0.015141	-0.094804
F189	F	0.600031	0.275910	-0.131692
H190	H	0.538583	0.094361	-0.094810
F191	F	0.381148	0.630981	-0.107886
H192	H	0.936587	0.262414	-0.067089
H193	H	0.961405	0.371851	0.067049
H194	H	0.566536	0.765058	-0.807931
F195	F	0.557224	0.783542	-0.700137
H196	H	0.624176	0.528233	-0.393906
F197	F	0.710423	0.478382	-0.299845
F198	F	0.710519	0.478374	-0.672138
H199	H	0.826654	0.371889	-0.067069
F200	F	0.710400	0.478378	-0.175256
H201	H	0.701236	0.262412	0.435644
H202	H	0.566514	0.262377	0.301579
