data_functionalizedCrystal
_audit_creation_method	'MofGen! by Chris Wilmer'
_symmetry_space_group_name_H-M	'P1'
_symmetry_Int_Tables_number	1
_symmetry_cell_setting	triclinic
loop_
_symmetry_equiv_pos_as_xyz
  x,y,z
_cell_length_a	9.065215
_cell_length_b	17.699103
_cell_length_c	8.140239
_cell_angle_alpha	89.991527
_cell_angle_beta	89.997810
_cell_angle_gamma	84.152879
loop_
_atom_site_label
_atom_site_type_symbol
_atom_site_fract_x
_atom_site_fract_y
_atom_site_fract_z
O1	O	1.957127	0.110961	-0.136615
O2	O	1.527573	0.120066	-0.136625
O3	O	1.754471	0.005420	-0.136588
O4	O	1.730229	0.225607	-0.136652
O5	O	1.754459	0.005419	0.136639
O6	O	1.527561	0.120065	0.136602
O7	O	1.957115	0.110960	0.136612
Zn8	Zn	1.742336	0.115512	0.179988
Zn9	Zn	1.742352	0.115514	-0.180001
O10	O	1.730217	0.225606	0.136575
C11	C	1.472606	0.119191	-0.000012
C12	C	1.308840	0.116576	-0.000014
C13	C	1.753591	-0.022784	0.000030
C14	C	1.750970	-0.106822	0.000043
C15	C	1.734947	-0.622657	-0.149000
C16	C	1.737407	-0.543695	-0.148986
C17	C	1.738628	-0.504228	-0.000040
C18	C	1.737403	-0.543728	0.148901
C19	C	1.734953	-0.622690	0.148885
C20	C	1.747285	-0.225285	0.148970
C21	C	1.749730	-0.146317	0.148975
C22	C	1.749739	-0.146290	-0.148901
C23	C	1.747290	-0.225252	-0.148917
C24	C	1.746072	-0.264745	0.000023
C25	C	1.743407	-0.350366	0.000005
C26	C	1.741282	-0.418608	-0.000021
C27	C	2.012082	0.111835	-0.000005
C28	C	2.175848	0.114450	-0.000014
C29	C	1.731097	0.253810	-0.000046
C30	C	1.733718	0.337848	-0.000071
N31	N	1.742335	0.115511	0.425670
N32	N	1.742364	0.115510	-0.425683
H33	H	1.733939	-0.654785	-0.270290
C34	C	1.745649	-0.268218	0.310571
C35	C	1.617364	-0.305907	0.319209
C36	C	1.615785	-0.345467	0.468058
H37	H	1.746622	-0.233469	0.399388
H38	H	1.830624	-0.304251	0.316851
H39	H	1.532412	-0.269878	0.312945
H40	H	1.616365	-0.340668	0.230426
H41	H	1.700760	-0.381499	0.474338
H42	H	1.616762	-0.310713	0.556863
H43	H	1.528753	-0.371049	0.473932
C44	C	1.738469	-0.500955	0.310731
C45	C	1.611007	-0.512552	0.400578
C46	C	1.611932	-0.473168	0.549672
H47	H	1.740016	-0.448256	0.289632
H48	H	1.824008	-0.519085	0.372039
H49	H	1.525490	-0.494419	0.339283
H50	H	1.609434	-0.565242	0.421721
H51	H	1.697471	-0.491297	0.610980
H52	H	1.613482	-0.420471	0.528557
H53	H	1.525458	-0.481036	0.610658
C54	C	1.733376	-0.665654	0.310462
C55	C	1.605119	-0.703363	0.319134
C56	C	1.603632	-0.742957	0.467949
H57	H	1.734372	-0.630923	0.399309
H58	H	1.818371	-0.701677	0.316664
H59	H	1.520147	-0.667345	0.312948
H60	H	1.604096	-0.738107	0.230322
H61	H	1.688626	-0.778979	0.474152
H62	H	1.604631	-0.708220	0.556785
H63	H	1.516618	-0.768553	0.473847
C64	C	1.750824	-0.103305	-0.310501
C65	C	1.625372	-0.050324	-0.319164
C66	C	1.626314	-0.010710	-0.467995
H67	H	1.749659	-0.138033	-0.399335
H68	H	1.837727	-0.077630	-0.316734
H69	H	1.538492	-0.075997	-0.312948
H70	H	1.626511	-0.015580	-0.230365
H71	H	1.713216	0.014964	-0.474228
H72	H	1.625152	-0.045444	-0.556817
H73	H	1.541204	0.025247	-0.473886
H74	H	1.738411	-0.511542	-0.270259
H75	H	1.750717	-0.114185	0.270272
H76	H	1.746288	-0.257381	-0.270204
