data_functionalizedCrystal
_audit_creation_method	'MofGen! by Chris Wilmer'
_symmetry_space_group_name_H-M	'P1'
_symmetry_Int_Tables_number	1
_symmetry_cell_setting	triclinic
loop_
_symmetry_equiv_pos_as_xyz
  x,y,z
_cell_length_a	19.188930
_cell_length_b	23.532357
_cell_length_c	22.010155
_cell_angle_alpha	89.999114
_cell_angle_beta	89.977671
_cell_angle_gamma	82.986534
loop_
_atom_site_label
_atom_site_type_symbol
_atom_site_fract_x
_atom_site_fract_y
_atom_site_fract_z
O1	O	0.925908	0.071094	-0.050728
O2	O	1.175908	0.321094	0.199272
O3	O	1.425908	0.571094	0.449272
O4	O	1.675908	0.821094	0.699272
O5	O	0.722564	0.080666	-0.050687
O6	O	0.972564	0.330666	0.199313
O7	O	1.222564	0.580666	0.449313
O8	O	1.472564	0.830666	0.699313
O9	O	0.830386	-0.007040	-0.050696
O10	O	1.080386	0.242960	0.199304
O11	O	1.330386	0.492960	0.449304
O12	O	1.580386	0.742960	0.699304
O13	O	0.818086	0.158801	-0.050719
O14	O	1.068086	0.408801	0.199281
O15	O	1.318086	0.658801	0.449281
O16	O	1.568086	0.908801	0.699281
O17	O	0.830366	-0.007027	0.050354
O18	O	1.080366	0.242973	0.300354
O19	O	1.330366	0.492973	0.550354
O20	O	1.580366	0.742973	0.800354
O21	O	0.722544	0.080680	0.050363
O22	O	0.972544	0.330680	0.300363
O23	O	1.222544	0.580680	0.550363
O24	O	1.472544	0.830680	0.800363
O25	O	0.925888	0.071108	0.050323
O26	O	1.175888	0.321108	0.300323
O27	O	1.425888	0.571108	0.550323
O28	O	1.675888	0.821108	0.800323
Cu29	Cu	0.824214	0.075895	0.059570
Cu30	Cu	1.074214	0.325895	0.309570
Cu31	Cu	1.324214	0.575895	0.559570
Cu32	Cu	1.574214	0.825895	0.809570
Cu33	Cu	0.824237	0.075879	-0.059934
Cu34	Cu	1.074237	0.325879	0.190066
Cu35	Cu	1.324237	0.575879	0.440066
Cu36	Cu	1.574237	0.825879	0.690066
O37	O	0.818066	0.158815	0.050332
O38	O	1.068066	0.408815	0.300332
O39	O	1.318066	0.658815	0.550332
O40	O	1.568066	0.908815	0.800332
C41	C	0.696544	0.080363	-0.000156
C42	C	0.946544	0.330363	0.249844
C43	C	1.196544	0.580363	0.499844
C44	C	1.446544	0.830363	0.749844
C45	C	0.619042	0.079433	-0.000140
C46	C	0.869042	0.329433	0.249860
C47	C	1.119042	0.579433	0.499860
C48	C	1.369042	0.829433	0.749860
C49	C	0.830068	-0.028251	-0.000169
C50	C	1.080068	0.221749	0.249831
C51	C	1.330068	0.471749	0.499831
C52	C	1.580068	0.721749	0.749831
C53	C	0.829143	-0.091471	-0.000163
C54	C	1.079143	0.158529	0.249837
C55	C	1.329143	0.408529	0.499837
C56	C	1.579143	0.658529	0.749837
C57	C	0.573943	0.130896	-0.000157
C58	C	0.823943	0.380896	0.249843
C59	C	1.073943	0.630896	0.499843
C60	C	1.323943	0.880896	0.749843
C61	C	0.501122	0.130022	-0.000163
C62	C	0.751122	0.380022	0.249837
C63	C	1.001122	0.630022	0.499837
C64	C	1.251122	0.880022	0.749837
C65	C	0.473404	0.077681	-0.000166
C66	C	0.723404	0.327681	0.249834
C67	C	0.973404	0.577681	0.499834
C68	C	1.223404	0.827681	0.749834
C69	C	0.518513	0.026211	-0.000146
C70	C	0.768513	0.276211	0.249854
C71	C	1.018513	0.526211	0.499854
C72	C	1.268513	0.776211	0.749854
C73	C	0.591333	0.027087	-0.000133
C74	C	0.841333	0.277087	0.249867
C75	C	1.091333	0.527087	0.499867
C76	C	1.341333	0.777087	0.749867
N77	N	0.365567	0.037669	-0.034577
N78	N	0.615567	0.287669	0.215423
N79	N	0.865567	0.537669	0.465423
N80	N	1.115567	0.787669	0.715423
N81	N	0.296391	0.036841	-0.034590
N82	N	0.546391	0.286841	0.215410
N83	N	0.796391	0.536841	0.465410
N84	N	1.046391	0.786841	0.715410
C85	C	0.254004	0.075040	-0.000203
C86	C	0.504004	0.325040	0.249797
C87	C	0.754004	0.575040	0.499797
C88	C	1.004004	0.825040	0.749797
N89	N	0.283405	0.114108	0.034191
N90	N	0.533405	0.364108	0.284191
N91	N	0.783405	0.614108	0.534191
N92	N	1.033405	0.864108	0.784191
N93	N	0.352587	0.114938	0.034202
N94	N	0.602587	0.364938	0.284202
N95	N	0.852587	0.614938	0.534202
N96	N	1.102587	0.864938	0.784202
C97	C	0.394445	0.076726	-0.000179
C98	C	0.644445	0.326726	0.249821
C99	C	0.894445	0.576726	0.499821
C100	C	1.144445	0.826726	0.749821
C101	C	0.129944	0.125559	-0.000225
C102	C	0.379944	0.375559	0.249775
C103	C	0.629944	0.625559	0.499775
C104	C	0.879944	0.875559	0.749775
C105	C	0.057122	0.124683	-0.000228
C106	C	0.307122	0.374683	0.249772
C107	C	0.557122	0.624683	0.499772
C108	C	0.807122	0.874683	0.749772
C109	C	0.074515	0.020871	-0.000216
C110	C	0.324515	0.270871	0.249784
C111	C	0.574515	0.520871	0.499784
C112	C	0.824515	0.770871	0.749784
C113	C	0.147335	0.021749	-0.000208
C114	C	0.397335	0.271749	0.249792
C115	C	0.647335	0.521749	0.499792
C116	C	0.897335	0.771749	0.749792
C117	C	0.175045	0.074094	-0.000215
C118	C	0.425045	0.324094	0.249785
C119	C	0.675045	0.574094	0.499785
C120	C	0.925045	0.824094	0.749785
C121	C	0.823347	-0.483502	-0.055277
C122	C	1.073347	-0.233502	0.194723
C123	C	1.323347	0.016498	0.444723
C124	C	1.573347	0.266498	0.694723
C125	C	0.822467	-0.542904	-0.055281
C126	C	1.072467	-0.292904	0.194719
C127	C	1.322467	-0.042904	0.444719
C128	C	1.572467	0.207096	0.694719
O129	O	0.821998	-0.573627	-0.102126
O130	O	1.071998	-0.323627	0.147874
O131	O	1.321998	-0.073627	0.397874
O132	O	1.571998	0.176373	0.647874
N133	N	0.822021	-0.572608	-0.000199
N134	N	1.072021	-0.322608	0.249801
N135	N	1.322021	-0.072608	0.499801
N136	N	1.572021	0.177392	0.749801
C137	C	0.822446	-0.542908	0.054890
C138	C	1.072446	-0.292908	0.304890
C139	C	1.322446	-0.042908	0.554890
C140	C	1.572446	0.207092	0.804890
O141	O	0.821985	-0.573628	0.101741
O142	O	1.071985	-0.323628	0.351741
O143	O	1.321985	-0.073628	0.601741
O144	O	1.571985	0.176372	0.851741
C145	C	0.823320	-0.483507	0.054893
C146	C	1.073320	-0.233507	0.304893
C147	C	1.323320	0.016493	0.554893
C148	C	1.573320	0.266493	0.804893
C149	C	0.823774	-0.453806	-0.000193
C150	C	1.073774	-0.203806	0.249807
C151	C	1.323774	0.046194	0.499807
C152	C	1.573774	0.296194	0.749807
C153	C	0.823800	-0.453802	-0.110358
C154	C	1.073800	-0.203802	0.139642
C155	C	1.323800	0.046198	0.389642
C156	C	1.573800	0.296198	0.639642
C157	C	0.824680	-0.394404	-0.110355
C158	C	1.074680	-0.144404	0.139645
C159	C	1.324680	0.105596	0.389645
C160	C	1.574680	0.355596	0.639645
C161	C	0.825108	-0.364708	-0.055270
C162	C	1.075108	-0.114708	0.194730
C163	C	1.325108	0.135292	0.444730
C164	C	1.575108	0.385292	0.694730
C165	C	0.824655	-0.394409	-0.000189
C166	C	1.074655	-0.144409	0.249811
C167	C	1.324655	0.105591	0.499811
C168	C	1.574655	0.355591	0.749811
C169	C	0.823741	-0.453807	0.109981
C170	C	1.073741	-0.203807	0.359981
C171	C	1.323741	0.046193	0.609981
C172	C	1.573741	0.296193	0.859981
C173	C	0.824615	-0.394402	0.109979
C174	C	1.074615	-0.144402	0.359979
C175	C	1.324615	0.105598	0.609979
C176	C	1.574615	0.355598	0.859979
C177	C	0.825068	-0.364701	0.054893
C178	C	1.075068	-0.114701	0.304893
C179	C	1.325068	0.135299	0.554893
C180	C	1.575068	0.385299	0.804893
C181	C	0.825963	-0.305316	0.054899
C182	C	1.075963	-0.055316	0.304899
C183	C	1.325963	0.194684	0.554899
C184	C	1.575963	0.444684	0.804899
N185	N	0.826410	-0.275611	-0.000183
N186	N	1.076410	-0.025611	0.249817
N187	N	1.326410	0.224389	0.499817
N188	N	1.576410	0.474389	0.749817
C189	C	0.825982	-0.305307	-0.055268
C190	C	1.075982	-0.055307	0.194732
C191	C	1.325982	0.194693	0.444732
C192	C	1.575982	0.444693	0.694732
C193	C	0.820609	-0.667653	0.054880
C194	C	1.070609	-0.417653	0.304880
C195	C	1.320609	-0.167653	0.554880
C196	C	1.570609	0.082347	0.804880
C197	C	0.819740	-0.727053	0.054878
C198	C	1.069740	-0.477053	0.304878
C199	C	1.319740	-0.227053	0.554878
C200	C	1.569740	0.022947	0.804878
C201	C	0.819760	-0.727045	-0.055293
C202	C	1.069760	-0.477045	0.194707
C203	C	1.319760	-0.227045	0.444707
C204	C	1.569760	0.022955	0.694707
C205	C	0.820634	-0.667644	-0.055290
C206	C	1.070634	-0.417644	0.194710
C207	C	1.320634	-0.167644	0.444710
C208	C	1.570634	0.082356	0.694710
C209	C	0.821056	-0.637949	-0.000202
C210	C	1.071056	-0.387949	0.249798
C211	C	1.321056	-0.137949	0.499798
C212	C	1.571056	0.112051	0.749798
C213	C	0.827832	-0.180569	-0.055256
C214	C	1.077832	0.069431	0.194744
C215	C	1.327832	0.319431	0.444744
C216	C	1.577832	0.569431	0.694744
C217	C	0.828716	-0.121167	-0.055248
C218	C	1.078716	0.128833	0.194752
C219	C	1.328716	0.378833	0.444752
C220	C	1.578716	0.628833	0.694752
C221	C	0.828692	-0.121180	0.054923
C222	C	1.078692	0.128820	0.304923
C223	C	1.328692	0.378820	0.554923
C224	C	1.578692	0.628820	0.804923
C225	C	0.827812	-0.180578	0.054915
C226	C	1.077812	0.069422	0.304915
C227	C	1.327812	0.319422	0.554915
C228	C	1.577812	0.569422	0.804915
C229	C	0.827380	-0.210270	-0.000180
C230	C	1.077380	0.039730	0.249820
C231	C	1.327380	0.289730	0.499820
C232	C	1.577380	0.539730	0.749820
O233	O	0.826430	-0.274554	0.101720
O234	O	1.076430	-0.024554	0.351720
O235	O	1.326430	0.225446	0.601720
O236	O	1.576430	0.475446	0.851720
O237	O	0.826434	-0.274579	-0.102111
O238	O	1.076434	-0.024579	0.147889
O239	O	1.326434	0.225421	0.397889
O240	O	1.576434	0.475421	0.647889
C241	C	0.951908	0.071411	-0.000209
C242	C	1.201908	0.321411	0.249791
C243	C	1.451908	0.571411	0.499791
C244	C	1.701908	0.821411	0.749791
C245	C	1.029409	0.072342	-0.000229
C246	C	1.279409	0.322342	0.249771
C247	C	1.529409	0.572342	0.499771
C248	C	1.779409	0.822342	0.749771
C249	C	0.818383	0.180025	-0.000197
C250	C	1.068383	0.430025	0.249803
C251	C	1.318383	0.680025	0.499803
C252	C	1.568383	0.930025	0.749803
C253	C	0.819308	0.243246	-0.000207
C254	C	1.069308	0.493246	0.249793
C255	C	1.319308	0.743246	0.499793
C256	C	1.569308	0.993246	0.749793
N257	N	0.824203	0.075907	0.143622
N258	N	1.074203	0.325907	0.393622
N259	N	1.324203	0.575907	0.643622
N260	N	1.574203	0.825907	0.893622
C261	C	0.871983	0.037052	0.563398
C262	C	1.121983	0.287052	0.813398
C263	C	1.371983	0.537052	1.063398
C264	C	1.621983	0.787052	1.313398
C265	C	0.871986	0.037049	0.627005
C266	C	1.121986	0.287049	0.877005
C267	C	1.371986	0.537049	1.127005
C268	C	1.621986	0.787049	1.377005
O269	O	0.912583	0.004019	0.659893
O270	O	1.162583	0.254019	0.909893
O271	O	1.412583	0.504019	1.159893
O272	O	1.662583	0.754019	1.409893
N273	N	0.824236	0.075872	0.658829
N274	N	1.074236	0.325872	0.908829
N275	N	1.324236	0.575872	1.158829
N276	N	1.574236	0.825872	1.408829
C277	C	0.776475	0.114697	0.627043
C278	C	1.026475	0.364697	0.877043
C279	C	1.276475	0.614697	1.127043
C280	C	1.526475	0.864697	1.377043
O281	O	0.735860	0.147719	0.659952
O282	O	0.985860	0.397719	0.909952
O283	O	1.235860	0.647719	1.159952
O284	O	1.485860	0.897719	1.409952
C285	C	0.776469	0.114698	0.563436
C286	C	1.026469	0.364698	0.813436
C287	C	1.276469	0.614698	1.063436
C288	C	1.526469	0.864698	1.313436
C289	C	0.824227	0.075876	0.531615
C290	C	1.074227	0.325876	0.781615
C291	C	1.324227	0.575876	1.031615
C292	C	1.574227	0.825876	1.281615
C293	C	0.919736	-0.001767	0.531577
C294	C	1.169736	0.248233	0.781577
C295	C	1.419736	0.498233	1.031577
C296	C	1.669736	0.748233	1.281577
C297	C	0.919734	-0.001762	0.467973
C298	C	1.169734	0.248238	0.717973
C299	C	1.419734	0.498238	0.967973
C300	C	1.669734	0.748238	1.217973
C301	C	0.871978	0.037061	0.436191
C302	C	1.121978	0.287061	0.686191
C303	C	1.371978	0.537061	0.936191
C304	C	1.621978	0.787061	1.186191
C305	C	0.824224	0.075880	0.468012
C306	C	1.074224	0.325880	0.718012
C307	C	1.324224	0.575880	0.968012
C308	C	1.574224	0.825880	1.218012
C309	C	0.728705	0.153520	0.531650
C310	C	0.978705	0.403520	0.781650
C311	C	1.228705	0.653520	1.031650
C312	C	1.478705	0.903520	1.281650
C313	C	0.728703	0.153516	0.468040
C314	C	0.978703	0.403516	0.718040
C315	C	1.228703	0.653516	0.968040
C316	C	1.478703	0.903516	1.218040
C317	C	0.776461	0.114695	0.436219
C318	C	1.026461	0.364695	0.686219
C319	C	1.276461	0.614695	0.936219
C320	C	1.526461	0.864695	1.186219
C321	C	0.776466	0.114708	0.372626
C322	C	1.026466	0.364708	0.622626
C323	C	1.276466	0.614708	0.872626
C324	C	1.526466	0.864708	1.122626
N325	N	0.824216	0.075885	0.340802
N326	N	1.074216	0.325885	0.590802
N327	N	1.324216	0.575885	0.840802
N328	N	1.574216	0.825885	1.090802
C329	C	0.871972	0.037061	0.372585
C330	C	1.121972	0.287061	0.622585
C331	C	1.371972	0.537061	0.872585
C332	C	1.621972	0.787061	1.122585
C333	C	0.776490	0.114693	0.760620
C334	C	1.026490	0.364693	1.010620
C335	C	1.276490	0.614693	1.260620
C336	C	1.526490	0.864693	1.510620
C337	C	0.776499	0.114696	0.824226
C338	C	1.026499	0.364696	1.074226
C339	C	1.276499	0.614696	1.324226
C340	C	1.526499	0.864696	1.574226
C341	C	0.872009	0.037047	0.824184
C342	C	1.122009	0.287047	1.074184
C343	C	1.372009	0.537047	1.324184
C344	C	1.622009	0.787047	1.574184
C345	C	0.872003	0.037047	0.760577
C346	C	1.122003	0.287047	1.010577
C347	C	1.372003	0.537047	1.260577
C348	C	1.622003	0.787047	1.510577
C349	C	0.824240	0.075870	0.728796
C350	C	1.074240	0.325870	0.978796
C351	C	1.324240	0.575870	1.228796
C352	C	1.574240	0.825870	1.478796
C353	C	0.871963	0.037074	0.239013
C354	C	1.121963	0.287074	0.489013
C355	C	1.371963	0.537074	0.739013
C356	C	1.621963	0.787074	0.989013
C357	C	0.871959	0.037083	0.175404
C358	C	1.121959	0.287083	0.425404
C359	C	1.371959	0.537083	0.675404
C360	C	1.621959	0.787083	0.925404
C361	C	0.776446	0.114730	0.175452
C362	C	1.026446	0.364730	0.425452
C363	C	1.276446	0.614730	0.675452
C364	C	1.526446	0.864730	0.925452
C365	C	0.776453	0.114723	0.239055
C366	C	1.026453	0.364723	0.489055
C367	C	1.276453	0.614723	0.739055
C368	C	1.526453	0.864723	0.989055
C369	C	0.824214	0.075890	0.270834
C370	C	1.074214	0.325890	0.520834
C371	C	1.324214	0.575890	0.770834
C372	C	1.574214	0.825890	1.020834
O373	O	0.735888	0.147720	0.339698
O374	O	0.985888	0.397720	0.589698
O375	O	1.235888	0.647720	0.839698
O376	O	1.485888	0.897720	1.089698
O377	O	0.912574	0.004040	0.339667
O378	O	1.162574	0.254040	0.589667
O379	O	1.412574	0.504040	0.839667
O380	O	1.662574	0.754040	1.089667
N381	N	0.824253	0.075870	0.856013
N382	N	1.074253	0.325870	1.106013
N383	N	1.324253	0.575870	1.356013
N384	N	1.574253	0.825870	1.606013
H385	H	0.596499	0.173520	-0.000164
H386	H	0.846499	0.423520	0.249836
H387	H	1.096499	0.673520	0.499836
H388	H	1.346499	0.923520	0.749836
F389	F	0.825063	-0.362801	0.168613
F390	F	1.075063	-0.112801	0.418613
F391	F	1.325063	0.137199	0.668613
F392	F	1.575063	0.387199	0.918613
H393	H	0.820954	-0.643479	0.099743
H394	H	1.070954	-0.393479	0.349743
H395	H	1.320954	-0.143479	0.599743
H396	H	1.570954	0.106521	0.849743
H397	H	0.464395	0.171931	-0.000175
H398	H	0.714395	0.421931	0.249825
H399	H	0.964395	0.671931	0.499825
H400	H	1.214395	0.921931	0.749825
F401	F	0.677864	0.194837	0.434220
F402	F	0.927864	0.444837	0.684220
F403	F	1.177864	0.694837	0.934220
F404	F	1.427864	0.944837	1.184220
H405	H	0.829087	-0.096988	-0.100107
H406	H	1.079087	0.153012	0.149893
H407	H	1.329087	0.403012	0.399893
H408	H	1.579087	0.653012	0.649893
F409	F	0.489013	-0.029493	-0.000145
F410	F	0.739013	0.220507	0.249855
F411	F	0.989013	0.470507	0.499855
F412	F	1.239013	0.720507	0.749855
F413	F	0.725631	0.156048	0.272920
F414	F	0.975631	0.406048	0.522920
F415	F	1.225631	0.656048	0.772920
F416	F	1.475631	0.906048	1.022920
F417	F	0.823255	-0.485403	0.168611
F418	F	1.073255	-0.235403	0.418611
F419	F	1.323255	0.014597	0.668611
F420	F	1.573255	0.264597	0.918611
H421	H	0.825047	-0.370227	-0.155211
H422	H	1.075047	-0.120227	0.094789
H423	H	1.325047	0.129773	0.344789
H424	H	1.575047	0.379773	0.594789
H425	H	0.827449	-0.204762	0.099770
H426	H	1.077449	0.045238	0.349770
H427	H	1.327449	0.295238	0.599770
H428	H	1.577449	0.545238	0.849770
F429	F	0.045020	-0.034834	-0.000213
F430	F	0.295020	0.215166	0.249787
F431	F	0.545020	0.465166	0.499787
F432	F	0.795020	0.715166	0.749787
H433	H	0.823449	-0.477974	-0.155217
H434	H	1.073449	-0.227974	0.094783
H435	H	1.323449	0.022026	0.344783
H436	H	1.573449	0.272026	0.594783
F437	F	0.639333	-0.027690	-0.000115
F438	F	0.889333	0.222310	0.249885
F439	F	1.139333	0.472310	0.499885
F440	F	1.389333	0.722310	0.749885
H441	H	0.184056	-0.020159	-0.000197
H442	H	0.434056	0.229841	0.249803
H443	H	0.684056	0.479841	0.499803
H444	H	0.934056	0.729841	0.749803
H445	H	0.829043	-0.096991	0.099771
H446	H	1.079043	0.153009	0.349771
H447	H	1.329043	0.403009	0.599771
H448	H	1.579043	0.653009	0.849771
H449	H	0.827477	-0.204738	-0.100119
H450	H	1.077477	0.045262	0.149881
H451	H	1.327477	0.295262	0.399881
H452	H	1.577477	0.545262	0.649881
H453	H	0.819409	-0.751234	-0.100145
H454	H	1.069409	-0.501234	0.149855
H455	H	1.319409	-0.251234	0.399855
H456	H	1.569409	-0.001234	0.649855
H457	H	0.910851	0.005470	0.149498
H458	H	1.160851	0.255470	0.399498
H459	H	1.410851	0.505470	0.649498
H460	H	1.660851	0.755470	0.899498
H461	H	0.910854	0.005452	0.264881
H462	H	1.160854	0.255452	0.514881
H463	H	1.410854	0.505452	0.764881
H464	H	1.660854	0.755452	1.014881
F465	F	0.970560	-0.043084	0.434113
F466	F	1.220560	0.206916	0.684113
F467	F	1.470560	0.456916	0.934113
F468	F	1.720560	0.706916	1.184113
F469	F	0.159437	0.181269	-0.000228
F470	F	0.409437	0.431269	0.249772
F471	F	0.659437	0.681269	0.499772
F472	F	0.909437	0.931269	0.749772
H473	H	0.020402	0.166592	-0.000238
H474	H	0.270402	0.416592	0.249762
H475	H	0.520402	0.666592	0.499762
H476	H	0.770402	0.916592	0.749762
F477	F	0.821116	-0.636040	-0.113919
F478	F	1.071116	-0.386040	0.136081
F479	F	1.321116	-0.136040	0.386081
F480	F	1.571116	0.113960	0.636081
H481	H	0.958625	-0.033384	0.557448
H482	H	1.208625	0.216616	0.807448
H483	H	1.458625	0.466616	1.057448
H484	H	1.708625	0.716616	1.307448
F485	F	0.819269	-0.758658	0.113508
F486	F	1.069269	-0.508658	0.363508
F487	F	1.319269	-0.258658	0.613508
F488	F	1.569269	-0.008658	0.863508
F489	F	0.922832	-0.004273	0.726717
F490	F	1.172832	0.245727	0.976717
F491	F	1.422832	0.495727	1.226717
F492	F	1.672832	0.745727	1.476717
F493	F	0.922834	-0.004274	0.858021
F494	F	1.172834	0.245726	1.108021
F495	F	1.422834	0.495726	1.358021
F496	F	1.672834	0.745726	1.608021
H497	H	0.737618	0.146314	0.850130
H498	H	0.987618	0.396314	1.100130
H499	H	1.237618	0.646314	1.350130
H500	H	1.487618	0.896314	1.600130
H501	H	0.737598	0.146312	0.734747
H502	H	0.987598	0.396312	0.984747
H503	H	1.237598	0.646312	1.234747
H504	H	1.487598	0.896312	1.484747
H505	H	0.689816	0.185132	0.557550
H506	H	0.939816	0.435132	0.807550
H507	H	1.189816	0.685132	1.057550
H508	H	1.439816	0.935132	1.307550
F509	F	0.725624	0.156048	0.141617
F510	F	0.975624	0.406048	0.391617
F511	F	1.225624	0.656048	0.641617
F512	F	1.475624	0.906048	0.891617
