data_functionalizedCrystal
_audit_creation_method	'MofGen! by Chris Wilmer'
_symmetry_space_group_name_H-M	'P1'
_symmetry_Int_Tables_number	1
_symmetry_cell_setting	triclinic
loop_
_symmetry_equiv_pos_as_xyz
  x,y,z
_cell_length_a	10.654554
_cell_length_b	10.654551
_cell_length_c	9.730223
_cell_angle_alpha	90.001469
_cell_angle_beta	89.999030
_cell_angle_gamma	84.486102
loop_
_atom_site_label
_atom_site_type_symbol
_atom_site_fract_x
_atom_site_fract_y
_atom_site_fract_z
O1	O	1.667831	0.176421	-0.114305
O2	O	1.302354	0.193221	-0.114302
O3	O	1.493495	0.002082	-0.114304
O4	O	1.476690	0.367560	-0.114302
O5	O	1.493492	0.002087	0.114276
O6	O	1.302351	0.193226	0.114278
O7	O	1.667829	0.176426	0.114275
Zn8	Zn	1.485090	0.184827	0.150569
Zn9	Zn	1.485093	0.184821	-0.150595
O10	O	1.476688	0.367565	0.114277
C11	C	1.255555	0.191989	-0.000011
C12	C	1.116112	0.188295	-0.000010
C13	C	0.933549	0.068808	-0.000029
C14	C	1.064571	0.072279	-0.000015
C15	C	1.036623	0.300848	-0.000006
C16	C	0.905604	0.297376	-0.000010
C17	C	0.949686	-0.063154	-0.000040
C18	C	1.080707	-0.059684	-0.000025
C19	C	1.492259	-0.044713	-0.000017
C20	C	1.488567	-0.184156	-0.000026
C21	C	1.486836	-0.249671	-0.124623
C22	C	1.483356	-0.380691	-0.124617
C23	C	1.483343	-0.380672	0.124594
C24	C	1.486814	-0.249653	0.124586
C25	C	1.486849	-0.249684	-0.268503
C26	C	1.483369	-0.380705	-0.268496
C27	C	1.714628	0.177659	-0.000018
C28	C	1.854071	0.181353	-0.000028
C29	C	1.477923	0.414361	-0.000012
C30	C	1.481616	0.553804	-0.000012
N31	N	1.485097	0.184831	0.356105
N32	N	1.485095	0.184807	-0.356132
C33	C	1.569756	0.100223	0.428030
C34	C	1.569753	0.100208	0.571913
C35	C	1.400427	0.269419	0.571933
C36	C	1.400425	0.269427	0.428053
C37	C	1.667519	0.002534	0.428019
C38	C	1.667516	0.002519	0.571902
H39	H	1.078598	0.395310	0.000011
Cl40	Cl	1.617368	-0.452184	-0.353773
Cl41	Cl	1.488949	-0.167290	0.281228
H42	H	1.331489	0.338294	0.630529
H43	H	1.758703	0.033124	0.383392
H44	H	1.126345	-0.099559	0.098673
H45	H	1.578448	-0.220117	-0.313145
Cl46	Cl	1.145186	-0.136425	-0.147725
H47	H	1.481914	-0.434014	0.226049
H48	H	0.840896	0.389021	0.000006
H49	H	1.400060	-0.203406	-0.323751
Cl50	Cl	1.341954	-0.426370	-0.337433
H51	H	1.331478	0.338310	0.369493
H52	H	1.637002	-0.088704	0.616518
Cl53	Cl	0.894669	-0.128030	-0.152419
H54	H	1.646076	-0.093998	0.388965
Cl55	Cl	0.904339	-0.142831	0.147639
H56	H	1.764027	0.024039	0.610952
