data_functionalizedCrystal
_audit_creation_method	'MofGen! by Chris Wilmer'
_symmetry_space_group_name_H-M	'P1'
_symmetry_Int_Tables_number	1
_symmetry_cell_setting	triclinic
loop_
_symmetry_equiv_pos_as_xyz
  x,y,z
_cell_length_a	15.995350
_cell_length_b	15.995350
_cell_length_c	15.072220
_cell_angle_alpha	90.001101
_cell_angle_beta	89.991149
_cell_angle_gamma	83.492375
loop_
_atom_site_label
_atom_site_type_symbol
_atom_site_fract_x
_atom_site_fract_y
_atom_site_fract_z
O1	O	1.110996	0.107921	-0.073703
O2	O	0.867221	0.121249	-0.073721
O3	O	0.995772	-0.007303	-0.073710
O4	O	0.982444	0.236472	-0.073713
O5	O	0.995740	-0.007296	0.073855
O6	O	0.867189	0.121256	0.073844
O7	O	1.110964	0.107928	0.073862
Zn8	Zn	0.989071	0.114593	0.097283
Zn9	Zn	0.989113	0.114584	-0.097141
O10	O	0.982413	0.236480	0.073852
C11	C	0.836010	0.120701	0.000060
C12	C	0.743060	0.119049	0.000053
C13	C	0.405312	0.113117	0.000071
C14	C	0.452746	0.021565	0.000401
C15	C	0.549436	0.023217	0.000063
C16	C	0.572873	0.116060	0.000063
C17	C	0.531804	0.161212	-0.084201
C18	C	0.435168	0.158912	-0.084266
C19	C	0.434793	0.160812	0.083543
C20	C	0.531738	0.160790	0.084651
C21	C	0.667570	0.117727	0.000055
C22	C	0.310614	0.111452	0.000073
C23	C	0.995205	-0.038494	0.000070
C24	C	0.993553	-0.131444	0.000065
C25	C	0.987621	-0.469192	0.000068
C26	C	0.896069	-0.421758	-0.000270
C27	C	0.897721	-0.325068	0.000063
C28	C	0.990564	-0.301631	0.000066
C29	C	1.035702	-0.342705	0.084335
C30	C	1.033402	-0.439341	0.084405
C31	C	1.035330	-0.439707	-0.083404
C32	C	1.035308	-0.342761	-0.084518
C33	C	0.992231	-0.206934	0.000068
C34	C	0.985956	-0.563890	0.000072
C35	C	1.142175	0.108476	0.000080
C36	C	1.235125	0.110127	0.000081
C37	C	0.982980	0.267671	0.000069
C38	C	0.984631	0.360621	0.000069
N39	N	0.989049	0.114599	0.229971
N40	N	0.989142	0.114571	-0.229830
C41	C	0.989112	0.114580	0.589173
C42	C	0.920095	0.183135	0.551560
C43	C	0.920254	0.183385	0.448735
C44	C	0.989080	0.114590	0.410969
C45	C	1.076445	0.133671	0.448266
C46	C	1.076058	0.134159	0.551124
C47	C	0.971542	0.026741	0.551272
C48	C	0.969537	0.027327	0.448409
C49	C	0.989067	0.114593	0.310255
C50	C	0.989130	0.114579	0.689886
H51	H	0.416873	0.125979	-0.147255
N52	N	0.989766	-0.463580	0.167840
H53	H	0.930528	-0.434036	0.169260
H54	H	0.987897	-0.526477	0.168673
N55	N	1.038202	-0.040834	0.583506
H56	H	1.010855	-0.084082	0.618718
H57	H	1.068808	-0.068903	0.530898
N58	N	0.833794	0.168331	0.584354
H59	H	0.790446	0.213004	0.559446
H60	H	0.820624	0.111020	0.564285
H61	H	0.577852	-0.012275	0.060467
H62	H	1.005411	-0.460250	-0.147274
H63	H	0.931160	0.247952	0.577399
H64	H	1.102831	-0.471468	-0.083968
H65	H	0.861974	-0.297200	0.060568
H66	H	1.103014	-0.327400	-0.089603
N67	N	0.550522	0.251558	-0.088369
H68	H	0.527195	0.282572	-0.033784
H69	H	0.613403	0.253207	-0.091092
H70	H	0.855314	0.172016	0.423519
H71	H	0.547102	0.228494	0.089741
H72	H	1.016540	-0.026078	0.422704
H73	H	0.559041	0.127829	0.146989
H74	H	0.414244	0.130885	0.147414
N75	N	0.428202	-0.026908	0.080449
H76	H	0.386093	0.010004	0.117277
H77	H	0.402266	-0.078387	0.060277
H78	H	0.403031	0.228312	0.084113
N79	N	1.122427	-0.482072	0.089499
H80	H	1.134750	-0.518786	0.035489
H81	H	1.162938	-0.438060	0.091719
H82	H	0.433165	-0.014865	-0.059694
N83	N	0.850720	-0.287415	-0.079949
H84	H	0.828738	-0.333623	-0.115753
H85	H	0.802027	-0.246057	-0.059755
N86	N	1.126062	-0.324028	0.088479
H87	H	1.138635	-0.288672	0.035648
H88	H	1.135370	-0.292376	0.144949
N89	N	0.586365	-0.024123	-0.080083
H90	H	0.539823	-0.046142	-0.115333
H91	H	0.616221	0.014946	-0.118418
H92	H	0.859490	-0.440293	-0.060701
N93	N	0.847789	-0.447700	0.079323
H94	H	0.884964	-0.490045	0.115597
H95	H	0.829524	-0.396588	0.116882
H96	H	0.560191	0.129845	-0.146912
H97	H	1.004325	-0.314320	0.147042
H98	H	1.129019	0.086195	0.576003
N99	N	1.146098	0.069290	0.415863
H100	H	1.148250	0.070522	0.348909
H101	H	1.201638	0.082823	0.440711
H102	H	1.002306	-0.315516	-0.146857
N103	N	0.934890	0.269789	0.416120
H104	H	0.941293	0.307854	0.468561
H105	H	0.987743	0.265496	0.378949
N106	N	1.096566	0.219011	0.582901
H107	H	1.105770	0.255747	0.530092
H108	H	1.048313	0.246532	0.619702
N109	N	1.097446	0.217558	0.414134
H110	H	1.052645	0.263390	0.433849
H111	H	1.153789	0.229198	0.438512
H112	H	0.905271	0.012846	0.424032
N113	N	0.392444	0.247943	-0.089296
H114	H	0.436411	0.288508	-0.091471
H115	H	0.356552	0.254668	-0.144516
N116	N	0.888976	0.002443	0.585664
H117	H	0.862122	0.048136	0.626167
H118	H	0.850194	-0.004971	0.534086
