data_functionalizedCrystal
_audit_creation_method	'MofGen! by Chris Wilmer'
_symmetry_space_group_name_H-M	'P1'
_symmetry_Int_Tables_number	1
_symmetry_cell_setting	triclinic
loop_
_symmetry_equiv_pos_as_xyz
  x,y,z
_cell_length_a	8.497374
_cell_length_b	8.497374
_cell_length_c	12.594517
_cell_angle_alpha	90.003871
_cell_angle_beta	89.999107
_cell_angle_gamma	90.005237
loop_
_atom_site_label
_atom_site_type_symbol
_atom_site_fract_x
_atom_site_fract_y
_atom_site_fract_z
Zn1	Zn	0.628338	0.892197	1.627194
Zn2	Zn	0.892084	0.628462	1.627186
Zn3	Zn	0.628310	0.628414	1.449252
Zn4	Zn	0.892069	0.892184	1.449227
O5	O	0.760200	0.760314	1.538215
O6	O	0.663342	0.857237	1.776139
O7	O	0.857088	0.407694	1.603590
O8	O	0.407552	0.663391	1.472871
O9	O	0.857115	0.663473	1.776133
O10	O	0.407572	0.857190	1.603604
O11	O	0.663295	0.407658	1.472863
O12	O	0.663281	0.663378	1.300303
O13	O	0.857090	1.112948	1.472827
O14	O	0.857063	0.857169	1.300284
O15	O	0.663328	1.112957	1.603579
O16	O	1.112844	0.663460	1.603565
O17	O	1.112833	0.857215	1.472819
C18	C	0.760169	0.760268	1.261674
C19	C	0.760193	0.760285	1.143368
C20	C	1.170080	0.760337	1.538201
C21	C	1.348724	0.760311	1.538230
C22	C	0.760203	1.171794	1.538207
C23	C	0.760219	1.350439	1.538209
C24	C	0.654651	0.655084	1.074095
C25	C	0.798539	0.616313	1.003317
C26	C	0.616376	0.799083	1.003347
C27	C	0.904156	0.721439	1.074149
C28	C	0.721896	0.904276	1.074185
C29	C	0.865883	0.865560	1.003440
C30	C	0.760233	0.760362	1.815836
C31	C	0.760247	0.760382	1.934141
H32	H	0.565485	0.566008	1.105118
C33	C	0.452036	0.843368	0.961337
N34	N	0.328251	0.876713	0.929700
C35	C	0.678025	1.068673	1.116284
N36	N	0.644961	1.192495	1.147998
H37	H	0.830964	0.494584	0.972189
H38	H	1.025839	0.688530	1.105119
C39	C	0.986630	0.985797	0.961780
N40	N	1.077580	1.076350	0.930397
