data_functionalizedCrystal
_audit_creation_method	'MofGen! by Chris Wilmer'
_symmetry_space_group_name_H-M	'P1'
_symmetry_Int_Tables_number	1
_symmetry_cell_setting	triclinic
loop_
_symmetry_equiv_pos_as_xyz
  x,y,z
_cell_length_a	14.908783
_cell_length_b	14.908520
_cell_length_c	14.908308
_cell_angle_alpha	83.639235
_cell_angle_beta	90.211273
_cell_angle_gamma	96.791586
loop_
_atom_site_label
_atom_site_type_symbol
_atom_site_fract_x
_atom_site_fract_y
_atom_site_fract_z
Zn1	Zn	1.325980	-0.317645	0.605030
Zn2	Zn	1.325877	-0.460296	0.462395
Zn3	Zn	1.184353	-0.316662	0.445949
Zn4	Zn	1.165844	-0.477686	0.604959
O5	O	1.250514	-0.393072	0.529583
O6	O	1.452212	-0.329701	0.593023
O7	O	1.314807	-0.433553	0.333974
O8	O	1.210929	-0.189703	0.460198
O9	O	1.452137	-0.434506	0.488229
O10	O	1.314982	-0.190425	0.577075
O11	O	1.210830	-0.328026	0.321891
O12	O	1.055652	-0.344889	0.460128
O13	O	1.179384	-0.464145	0.731208
O14	O	1.042054	-0.463192	0.576952
O15	O	1.297035	-0.346564	0.731260
O16	O	1.296860	-0.589691	0.488159
O17	O	1.179284	-0.602468	0.592900
C18	C	1.016119	-0.405822	0.516749
C19	C	0.915841	-0.411299	0.511280
C20	C	0.727464	-0.312628	0.610312
C21	C	0.633244	-0.317772	0.605177
C22	C	0.633180	-0.426725	0.495871
C23	C	0.727400	-0.421581	0.501006
C24	C	0.774539	-0.364532	0.558229
C25	C	0.868760	-0.359394	0.563369
C26	C	0.868694	-0.468341	0.454059
C27	C	0.774474	-0.473485	0.448924
C28	C	1.236076	-0.629032	0.542328
C29	C	1.229980	-0.729974	0.547814
C30	C	1.341070	-0.906289	0.449158
C31	C	1.335345	-1.001133	0.454310
C32	C	1.212812	-1.014508	0.563277
C33	C	1.218536	-0.919664	0.558124
C34	C	1.282666	-0.865558	0.501062
C35	C	1.288386	-0.770712	0.495905
C36	C	1.165857	-0.784088	0.604875
C37	C	1.160133	-0.878932	0.610028
C38	C	1.485824	-0.380273	0.542468
C39	C	1.586099	-0.374819	0.547959
C40	C	1.236156	-0.407404	0.764882
C41	C	1.230038	-0.413511	0.865152
C42	C	1.265031	-0.156190	0.516810
C43	C	1.271218	-0.055245	0.511367
C44	C	1.264871	-0.378727	0.295199
C45	C	1.271180	-0.372355	0.194925
C46	C	1.341049	-0.302529	1.053626
C47	C	1.335303	-0.308264	1.147839
C48	C	1.212797	-0.430712	1.147792
C49	C	1.218542	-0.424977	1.053579
C50	C	1.282672	-0.360884	1.006499
C51	C	1.288421	-0.355154	0.912285
C52	C	1.165911	-0.477597	0.912240
C53	C	1.160165	-0.483332	1.006452
H54	H	0.907031	-0.510612	0.411657
O55	O	1.108994	-0.744561	0.655195
C56	C	0.954570	-0.726729	0.688903
C57	C	1.018868	-0.771536	0.631850
H58	H	0.881690	-0.748535	0.670062
H59	H	0.969597	-0.649640	0.675407
H60	H	0.964830	-0.748889	0.763531
H61	H	1.008644	-0.749447	0.557204
H62	H	1.003826	-0.848616	0.645422
O63	O	1.109324	-0.534319	0.866374
C64	C	1.096161	-0.651171	0.766013
C65	C	1.160344	-0.586964	0.817888
H66	H	1.137385	-0.693764	0.726814
H67	H	1.054245	-0.609408	0.717013
H68	H	1.049326	-0.697919	0.815867
H69	H	1.207235	-0.540203	0.768102
H70	H	1.202197	-0.628783	0.866901
H71	H	1.340639	-0.302968	0.873955
O72	O	1.403369	-0.240199	1.008024
C73	C	1.524318	-0.119399	1.018016
C74	C	1.453768	-0.189932	1.069767
H75	H	1.565098	-0.078752	1.067914
H76	H	1.488545	-0.071417	0.969102
H77	H	1.571585	-0.155862	0.978713
H78	H	1.406481	-0.153545	1.109122
H79	H	1.489600	-0.237910	1.118627
H80	H	1.393281	-0.862235	0.402689
H81	H	1.382905	-1.034293	0.412047
O82	O	0.914417	-0.303904	0.618970
C83	C	0.904527	-0.196421	0.726883
C84	C	0.852714	-0.259213	0.663936
H85	H	0.854661	-0.160286	0.763269
H86	H	0.954034	-0.143889	0.685415
H87	H	0.943247	-0.238659	0.778614
H88	H	0.813941	-0.217050	0.612194
H89	H	0.803260	-0.311747	0.705463
O90	O	1.391886	-0.251491	1.193645
C91	C	1.405039	-0.134725	1.294100
C92	C	1.340857	-0.198963	1.242258
H93	H	1.363807	-0.092252	1.333432
H94	H	1.451842	-0.087870	1.244299
H95	H	1.446991	-0.176550	1.343002
H96	H	1.298847	-0.157211	1.193355
H97	H	1.294115	-0.245820	1.292111
O98	O	1.150572	-0.492928	1.193674
C99	C	1.087367	-0.555952	1.338791
C100	C	1.157898	-0.485473	1.286945
H101	H	1.093253	-0.549936	1.414208
H102	H	1.099833	-0.627227	1.325171
H103	H	1.016748	-0.542828	1.315362
H104	H	1.228546	-0.498512	1.310343
H105	H	1.145353	-0.414221	1.300567
H106	H	0.594920	-0.275504	0.647585
H107	H	1.340602	-0.726660	0.449439
H108	H	1.107922	-0.922998	0.656489
O109	O	1.097995	-0.545680	1.052243
C110	C	1.071865	-0.675395	1.164607
C111	C	1.142367	-0.604851	1.112802
H112	H	1.107711	-0.723240	1.213594
H113	H	1.031138	-0.716188	1.114784
H114	H	1.024539	-0.638932	1.203839
H115	H	1.189752	-0.641240	1.073567
H116	H	1.183028	-0.564060	1.162669
O117	O	0.773123	-0.257146	0.665919
C118	C	0.763240	-0.149684	0.773853
C119	C	0.711424	-0.212461	0.710897
H120	H	0.713377	-0.113553	0.810249
H121	H	0.812749	-0.097147	0.732393
H122	H	0.801960	-0.191932	0.825576
H123	H	0.672652	-0.170288	0.659162
H124	H	0.661969	-0.265001	0.752417
O125	O	1.150548	-1.067207	0.618627
C126	C	1.087474	-1.219252	0.674897
C127	C	1.158016	-1.159678	0.612160
H128	H	1.093500	-1.294026	0.669703
H129	H	1.016808	-1.203743	0.654000
H130	H	1.099932	-1.204082	0.747488
H131	H	1.145642	-1.174814	0.539551
H132	H	1.228658	-1.175197	0.633133
H133	H	0.594785	-0.473160	0.449272
H134	H	0.736082	-0.519929	0.402332
