data_functionalizedCrystal
_audit_creation_method	'MofGen! by Chris Wilmer'
_symmetry_space_group_name_H-M	'P1'
_symmetry_Int_Tables_number	1
_symmetry_cell_setting	triclinic
loop_
_symmetry_equiv_pos_as_xyz
  x,y,z
_cell_length_a	10.654550
_cell_length_b	11.026607
_cell_length_c	9.730223
_cell_angle_alpha	89.999947
_cell_angle_beta	89.996251
_cell_angle_gamma	96.535460
loop_
_atom_site_label
_atom_site_type_symbol
_atom_site_fract_x
_atom_site_fract_y
_atom_site_fract_z
O1	O	1.704901	0.170762	-0.114401
O2	O	1.342954	0.187032	-0.114379
O3	O	1.493930	0.001991	-0.114383
O4	O	1.553926	0.355802	-0.114397
O5	O	1.493929	0.001996	0.114196
O6	O	1.342953	0.187036	0.114201
O7	O	1.704900	0.170767	0.114179
Zn8	Zn	1.523926	0.178902	0.150482
Zn9	Zn	1.523928	0.178896	-0.150682
O10	O	1.553924	0.355807	0.114183
C11	C	1.295897	0.185839	-0.000086
C12	C	1.155677	0.182265	-0.000078
C13	C	1.099841	0.291214	-0.000102
C14	C	0.968090	0.287849	-0.000126
C15	C	0.948022	0.066576	-0.000107
C16	C	1.079771	0.069943	-0.000073
C17	C	1.111426	0.418964	-0.000119
C18	C	0.979675	0.415599	-0.000143
C19	C	1.482861	-0.043310	-0.000094
C20	C	1.449867	-0.178302	-0.000097
C21	C	1.540970	-0.251341	-0.000105
C22	C	1.506871	-0.390862	-0.000108
C23	C	1.751958	0.171959	-0.000117
C24	C	1.892177	0.175533	-0.000135
C25	C	1.564993	0.401109	-0.000109
C26	C	1.597988	0.536100	-0.000115
N27	N	1.523934	0.178906	0.356018
N28	N	1.523928	0.178883	-0.356219
C29	C	1.590814	0.096998	0.427942
C30	C	1.590808	0.096983	0.571825
C31	C	1.457040	0.260795	0.571847
C32	C	1.457040	0.260803	0.427967
C33	C	1.668049	0.002426	0.427931
C34	C	1.668043	0.002411	0.571814
H35	H	0.886203	-0.024874	-0.000124
C36	C	1.310393	-0.233347	-0.000098
H37	H	1.257657	-0.169431	-0.000104
H38	H	1.293727	-0.282285	0.079608
H39	H	1.293741	-0.282270	-0.079824
C40	C	1.611647	-0.123798	0.375161
H41	H	1.611653	-0.123785	0.277524
H42	H	1.527459	-0.141153	0.407708
H43	H	1.661044	-0.184322	0.407681
C44	C	0.929284	0.467789	0.133140
H45	H	0.839831	0.463683	0.128574
H46	H	0.964325	0.550409	0.143645
H47	H	0.952591	0.421459	0.209424
H48	H	1.151603	0.468929	0.095545
H49	H	1.765661	0.032038	0.383298
H50	H	0.948391	0.463731	-0.095812
C51	C	1.680442	-0.196290	-0.000108
H52	H	1.685064	-0.109737	-0.000096
H53	H	1.721159	-0.222578	-0.079819
H54	H	1.721147	-0.222580	0.079612
C55	C	1.367392	-0.445908	-0.000101
H56	H	1.362771	-0.532460	-0.000094
H57	H	1.326679	-0.419615	-0.079806
H58	H	1.326684	-0.419622	0.079626
C59	C	1.600949	-0.116890	0.632104
H60	H	1.571079	-0.170011	0.559390
H61	H	1.531686	-0.099036	0.687065
H62	H	1.658709	-0.155236	0.687039
C63	C	1.737468	-0.408857	-0.000111
H64	H	1.742092	-0.322304	-0.000096
H65	H	1.778188	-0.435144	-0.079820
H66	H	1.778166	-0.435151	0.079612
H67	H	1.155912	0.459640	-0.098808
C68	C	1.383463	0.350894	0.348854
H69	H	1.343635	0.399672	0.412314
H70	H	1.321204	0.306684	0.292727
H71	H	1.440170	0.401927	0.292729
H72	H	1.769076	0.023243	0.610858
C73	C	1.141187	-0.049900	-0.000031
H74	H	1.077108	-0.117273	-0.000044
H75	H	1.192145	-0.053176	0.079694
H76	H	1.192184	-0.053197	-0.079738
C77	C	1.383470	0.350881	0.650995
H78	H	1.393053	0.339151	0.746987
H79	H	1.296508	0.336925	0.627418
H80	H	1.415485	0.432155	0.627421
