data_functionalizedCrystal
_audit_creation_method	'MofGen! by Chris Wilmer'
_symmetry_space_group_name_H-M	'P1'
_symmetry_Int_Tables_number	1
_symmetry_cell_setting	triclinic
loop_
_symmetry_equiv_pos_as_xyz
  x,y,z
_cell_length_a	19.188930
_cell_length_b	19.188929
_cell_length_c	17.666332
_cell_angle_alpha	90.033034
_cell_angle_beta	89.984429
_cell_angle_gamma	96.855224
loop_
_atom_site_label
_atom_site_type_symbol
_atom_site_fract_x
_atom_site_fract_y
_atom_site_fract_z
O1	O	-0.926141	0.087175	0.063228
O2	O	-0.426141	0.587175	0.563228
O3	O	-0.722830	0.098909	0.063181
O4	O	-0.222830	0.598909	0.563181
O5	O	-0.830353	-0.008614	0.063159
O6	O	-0.330353	0.491386	0.563159
O7	O	-0.818618	0.194697	0.063250
O8	O	-0.318618	0.694697	0.563250
O9	O	-0.830351	-0.008631	-0.062738
O10	O	-0.330351	0.491369	0.437262
O11	O	-0.722828	0.098892	-0.062716
O12	O	-0.222828	0.598892	0.437284
O13	O	-0.926139	0.087157	-0.062669
O14	O	-0.426139	0.587157	0.437331
Cu15	Cu	-0.824483	0.093023	-0.074188
Cu16	Cu	-0.324483	0.593023	0.425812
Cu17	Cu	-0.824486	0.093043	0.074699
Cu18	Cu	-0.324486	0.593043	0.574699
O19	O	-0.818616	0.194680	-0.062647
O20	O	-0.318616	0.694680	0.437353
C21	C	-0.696818	0.098520	0.000225
C22	C	-0.196818	0.598520	0.500225
C23	C	-0.619313	0.097380	0.000205
C24	C	-0.119313	0.597380	0.500205
C25	C	-0.829972	-0.034634	0.000200
C26	C	-0.329972	0.465366	0.500200
C27	C	-0.828831	-0.112138	0.000169
C28	C	-0.328831	0.387862	0.500169
C29	C	-0.952151	0.087546	0.000288
C30	C	-0.452151	0.587546	0.500288
C31	C	-1.029656	0.088687	0.000313
C32	C	-0.529656	0.588687	0.500313
C33	C	-0.574389	0.160470	0.000245
C34	C	-0.074389	0.660470	0.500245
C35	C	-0.501566	0.159399	0.000253
C36	C	-0.001566	0.659399	0.500253
C37	C	-0.473669	0.095233	0.000236
C38	C	0.026331	0.595233	0.500236
C39	C	-0.518603	0.032133	0.000192
C40	C	-0.018603	0.532133	0.500192
C41	C	-0.591425	0.033207	0.000176
C42	C	-0.091425	0.533207	0.500176
N43	N	-0.365690	0.046192	0.043093
N44	N	0.134310	0.546192	0.543093
N45	N	-0.296511	0.045176	0.043109
N46	N	0.203489	0.545176	0.543109
C47	C	-0.254260	0.091995	0.000281
C48	C	0.245740	0.591995	0.500281
N49	N	-0.283800	0.139877	-0.042555
N50	N	0.216200	0.639877	0.457445
N51	N	-0.352985	0.140895	-0.042568
N52	N	0.147015	0.640895	0.457432
C53	C	-0.394707	0.094062	0.000252
C54	C	0.105293	0.594062	0.500252
C55	C	-0.130372	0.153928	0.000328
C56	C	0.369628	0.653928	0.500328
C57	C	-0.057547	0.152853	0.000331
C58	C	0.442453	0.652853	0.500331
C59	C	-0.074586	0.025586	0.000278
C60	C	0.425414	0.525586	0.500278
C61	C	-0.147409	0.026662	0.000267
C62	C	0.352591	0.526662	0.500267
C63	C	-0.175298	0.090835	0.000296
C64	C	0.324702	0.590835	0.500296
C65	C	-0.818997	0.220700	0.000313
C66	C	-0.318997	0.720700	0.500313
C67	C	-0.820138	0.298204	0.000350
C68	C	-0.320138	0.798204	0.500350
C69	C	-0.757047	0.343128	0.000320
C70	C	-0.257047	0.843128	0.500320
C71	C	-0.758119	0.415952	0.000303
C72	C	-0.258119	0.915952	0.500303
C73	C	-0.822285	0.443849	0.000301
C74	C	-0.322285	0.943849	0.500301
C75	C	-0.885384	0.398915	0.000335
C76	C	-0.385384	0.898915	0.500335
C77	C	-0.884311	0.326093	0.000359
C78	C	-0.384311	0.826093	0.500359
N79	N	-0.871331	0.551811	-0.042581
N80	N	-0.371331	1.051811	0.457419
N81	N	-0.872347	0.620990	-0.042606
N82	N	-0.372347	1.120990	0.457394
C83	C	-0.825523	0.663257	0.000229
C84	C	-0.325523	1.163257	0.500229
N85	N	-0.777635	0.633734	0.043080
N86	N	-0.277635	1.133734	0.543080
N87	N	-0.776618	0.564549	0.043101
N88	N	-0.276618	1.064549	0.543101
C89	C	-0.823456	0.522811	0.000275
C90	C	-0.323456	1.022811	0.500275
C91	C	-0.763590	0.787146	0.000182
C92	C	-0.263590	1.287146	0.500182
C93	C	-0.764664	0.859970	0.000169
C94	C	-0.264664	1.359970	0.500169
C95	C	-0.891931	0.842932	0.000194
C96	C	-0.391931	1.342932	0.500194
C97	C	-0.890855	0.770108	0.000214
C98	C	-0.390855	1.270108	0.500214
C99	C	-0.826683	0.742220	0.000204
C100	C	-0.326683	1.242220	0.500204
N101	N	-0.824488	0.093053	0.179419
N102	N	-0.324488	0.593053	0.679419
N103	N	-0.824487	0.093008	-0.178907
N104	N	-0.324487	0.593008	0.321093
C105	C	-0.866601	0.135347	0.781518
C106	C	-0.366601	0.635347	1.281518
C107	C	-0.866607	0.135350	0.702270
C108	C	-0.366607	0.635350	1.202270
C109	C	-0.824484	0.093022	0.662600
C110	C	-0.324484	0.593022	1.162600
C111	C	-0.782367	0.050674	0.702185
C112	C	-0.282367	0.550674	1.202185
C113	C	-0.782369	0.050667	0.781431
C114	C	-0.282369	0.550667	1.281431
N115	N	-0.763344	0.091191	0.538158
N116	N	-0.263344	0.591191	1.038158
N117	N	-0.763345	0.091202	0.462877
N118	N	-0.263345	0.591202	0.962877
C119	C	-0.824479	0.093040	0.423836
C120	C	-0.324479	0.593040	0.923836
N121	N	-0.885613	0.094880	0.462920
N122	N	-0.385613	0.594880	0.962920
N123	N	-0.885612	0.094873	0.538207
N124	N	-0.385612	0.594873	1.038207
C125	C	-0.824479	0.093025	0.576671
C126	C	-0.324479	0.593025	1.076671
C127	C	-0.866603	0.135384	0.298332
C128	C	-0.366603	0.635384	0.798332
C129	C	-0.866610	0.135382	0.219083
C130	C	-0.366610	0.635382	0.719083
C131	C	-0.782364	0.050710	0.218999
C132	C	-0.282364	0.550710	0.718999
C133	C	-0.782363	0.050708	0.298247
C134	C	-0.282363	0.550708	0.798247
C135	C	-0.824482	0.093049	0.337909
C136	C	-0.324482	0.593049	0.837909
H137	H	-0.597091	0.212725	0.000270
H138	H	-0.097091	0.712725	0.500270
H139	H	-0.900909	0.169858	0.186863
H140	H	-0.400909	0.669858	0.686863
O141	O	-0.907535	0.176547	0.663933
O142	O	-0.407535	0.676547	1.163933
C143	C	-0.991117	0.260506	0.672374
C144	C	-0.491117	0.760506	1.172374
C145	C	-0.944787	0.213897	0.715881
C146	C	-0.444787	0.713897	1.215881
H147	H	-1.021258	0.290705	0.714354
H148	H	-0.521258	0.790705	1.214354
H149	H	-0.956617	0.299140	0.635313
H150	H	-0.456617	0.799140	1.135313
H151	H	-1.029811	0.226134	0.635237
H152	H	-0.529811	0.726134	1.135237
H153	H	-0.906086	0.248213	0.753059
H154	H	-0.406086	0.748213	1.253059
H155	H	-0.979331	0.175259	0.752894
H156	H	-0.479331	0.675259	1.252894
H157	H	-0.495885	-0.020111	0.000188
H158	H	0.004115	0.479889	0.500188
H159	H	-0.748072	0.016210	0.669881
H160	H	-0.248072	0.516210	1.169881
H161	H	-0.464982	0.210777	0.000283
H162	H	0.035018	0.710777	0.500283
H163	H	-0.935689	0.289515	0.000384
H164	H	-0.435689	0.789515	0.500384
H165	H	-0.900900	0.169822	0.813805
H166	H	-0.400900	0.669822	1.313805
H167	H	-0.900899	0.169860	0.330626
H168	H	-0.400899	0.669860	0.830626
O169	O	-0.696875	0.459671	0.000168
O170	O	-0.196875	0.959671	0.500168
C171	C	-0.624218	0.551692	-0.065135
C172	C	-0.124218	1.051692	0.434865
C173	C	-0.693609	0.502236	-0.065067
C174	C	-0.193609	1.002236	0.434933
H175	H	-0.621549	0.586108	-0.117880
H176	H	-0.121549	1.086108	0.382120
H177	H	-0.621525	0.586306	-0.012498
H178	H	-0.121525	1.086306	0.487502
H179	H	-0.578182	0.519234	-0.065100
H180	H	-0.078182	1.019234	0.434900
H181	H	-0.739685	0.534639	-0.065129
H182	H	-0.239685	1.034639	0.434871
H183	H	-0.696241	0.467620	-0.117700
H184	H	-0.196241	0.967620	0.382300
H185	H	-0.937629	0.421633	0.000347
H186	H	-0.437629	0.921633	0.500347
H187	H	-0.711337	0.764438	0.000169
H188	H	-0.211337	1.264438	0.500169
H189	H	-0.748066	0.016234	0.330469
H190	H	-0.248066	0.516234	0.830469
O191	O	-0.703310	0.903513	0.000107
O192	O	-0.203310	1.403513	0.500107
C193	C	-0.576967	0.912724	0.000115
C194	C	-0.076967	1.412724	0.500115
C195	C	-0.646400	0.863332	0.000169
C196	C	-0.146400	1.363332	0.500169
H197	H	-0.530938	0.880258	0.000181
H198	H	-0.030938	1.380258	0.500181
H199	H	-0.574244	0.947190	-0.052595
H200	H	-0.074244	1.447190	0.447405
H201	H	-0.574323	0.947299	0.052780
H202	H	-0.074323	1.447299	0.552780
H203	H	-0.649090	0.828714	-0.052461
H204	H	-0.149090	1.328714	0.447539
H205	H	-0.649094	0.828914	0.052914
H206	H	-0.149094	1.328914	0.552914
H207	H	-0.153080	0.206181	0.000341
H208	H	0.346920	0.706181	0.500341
H209	H	-0.944177	0.865644	0.000247
H210	H	-0.444177	1.365644	0.500247
H211	H	-0.020970	0.204232	0.000360
H212	H	0.479030	0.704232	0.500360
H213	H	-0.628003	-0.018171	0.000144
H214	H	-0.128003	0.481829	0.500144
H215	H	-0.183988	-0.024713	0.000238
H216	H	0.316012	0.475287	0.500238
H217	H	-0.051874	-0.026659	0.000311
H218	H	0.448126	0.473341	0.500311
O219	O	-0.694651	0.316155	0.000350
O220	O	-0.194651	0.816155	0.500350
C221	C	-0.568536	0.340743	0.000271
C222	C	-0.068536	0.840743	0.500271
C223	C	-0.639149	0.371386	0.000253
C224	C	-0.139149	0.871386	0.500253
H225	H	-0.523644	0.385382	0.000177
H226	H	-0.023644	0.885382	0.500177
H227	H	-0.564801	0.307146	0.052982
H228	H	-0.064801	0.807146	0.552982
H229	H	-0.564889	0.307008	-0.052393
H230	H	-0.064889	0.807008	0.447607
H231	H	-0.642843	0.405153	0.052882
H232	H	-0.142843	0.905153	0.552882
H233	H	-0.642853	0.404943	-0.052493
H234	H	-0.142853	0.904943	0.447507
H235	H	-0.942231	0.733530	0.000233
H236	H	-0.442231	1.233530	0.500233
H237	H	-0.748072	0.016189	0.813652
H238	H	-0.248072	0.516189	1.313652
H239	H	-0.748068	0.016245	0.186701
H240	H	-0.248068	0.516245	0.686701
