data_functionalizedCrystal
_audit_creation_method	'MofGen! by Chris Wilmer'
_symmetry_space_group_name_H-M	'P1'
_symmetry_Int_Tables_number	1
_symmetry_cell_setting	triclinic
loop_
_symmetry_equiv_pos_as_xyz
  x,y,z
_cell_length_a	10.654544
_cell_length_b	15.625429
_cell_length_c	14.750426
_cell_angle_alpha	93.443197
_cell_angle_beta	75.923321
_cell_angle_gamma	84.351984
loop_
_atom_site_label
_atom_site_type_symbol
_atom_site_fract_x
_atom_site_fract_y
_atom_site_fract_z
O1	O	1.631428	0.101212	0.115078
O2	O	1.264635	0.112416	0.118974
O3	O	1.470731	-0.014998	0.074624
O4	O	1.425332	0.228627	0.159429
O5	O	1.515933	0.017736	-0.073639
O6	O	1.309837	0.145151	-0.029288
O7	O	1.676629	0.133947	-0.033184
Zn8	Zn	1.500410	0.144747	-0.054776
Zn9	Zn	1.440855	0.101617	0.140566
O10	O	1.470533	0.261362	0.011166
C11	C	1.240535	0.127961	0.044556
C12	C	1.101381	0.125501	0.043698
C13	C	1.150634	0.161199	-0.117938
C14	C	1.109886	0.177894	-0.199156
C15	C	0.979138	0.175579	-0.199957
C16	C	0.889133	0.156565	-0.119534
C17	C	0.929881	0.139871	-0.038316
C18	C	1.060635	0.142190	-0.037523
C19	C	0.880630	0.104167	0.123317
C20	C	1.011376	0.106487	0.124122
C21	C	0.790625	0.085153	0.203740
C22	C	0.831371	0.068464	0.284961
C23	C	0.962128	0.070780	0.285760
C24	C	1.052124	0.089792	0.205339
C25	C	1.495759	-0.029827	-0.010364
C26	C	1.502974	-0.122780	-0.042715
C27	C	1.403485	-0.517704	0.254945
C28	C	1.410268	-0.605041	0.224519
C29	C	1.459543	-0.569342	0.062894
C30	C	1.452771	-0.482001	0.093306
C31	C	1.424739	-0.456189	0.189333
C32	C	1.474025	-0.420486	0.027694
C33	C	1.467246	-0.333151	0.058104
C34	C	1.439213	-0.307332	0.154126
C35	C	1.417960	-0.368855	0.219743
C36	C	1.502047	-0.446298	-0.068332
C37	C	1.523302	-0.384783	-0.133945
C38	C	1.516532	-0.297448	-0.103535
C39	C	1.488499	-0.271629	-0.007513
C40	C	1.537785	-0.235925	-0.169152
C41	C	1.531006	-0.148591	-0.138741
C42	C	1.481720	-0.184295	0.022898
C43	C	1.700729	0.118402	0.041236
C44	C	1.839882	0.120861	0.042099
C45	C	1.445505	0.276190	0.096156
C46	C	1.438288	0.369142	0.128513
N47	N	1.541063	0.174181	-0.188092
C48	C	1.654586	0.256329	-0.310239
C49	C	1.626097	0.235718	-0.216910
C50	C	1.484489	0.133227	-0.252602
C51	C	1.512971	0.153826	-0.345937
C52	C	1.598019	0.215378	-0.374747
C53	C	1.456404	0.112876	-0.410445
C54	C	1.484878	0.133477	-0.503771
C55	C	1.569920	0.195028	-0.532588
C56	C	1.626493	0.235979	-0.468073
C57	C	1.371349	0.051328	-0.381631
C58	C	1.314782	0.010378	-0.446140
C59	C	1.343263	0.030974	-0.539469
C60	C	1.428305	0.092526	-0.568286
C61	C	1.286690	-0.009977	-0.603984
C62	C	1.315164	0.010624	-0.697310
C63	C	1.456779	0.113127	-0.661612
N64	N	1.400212	0.072176	0.273880
H65	H	0.945961	0.189180	-0.266089
H66	H	0.684167	0.083264	0.203080
H67	H	1.723849	0.306446	-0.333698
H68	H	1.269098	-0.022720	-0.749834
H69	H	1.526042	0.163243	-0.685072
H70	H	1.546120	-0.405811	-0.212130
H71	H	1.380670	-0.496688	0.333139
C72	C	1.600954	0.217548	-0.633861
C73	C	1.687515	0.280231	-0.645277
C74	C	1.716120	0.301005	-0.738553
H75	H	1.639708	0.167273	-0.674212
H76	H	1.522877	0.239410	-0.649035
H77	H	1.765578	0.258366	-0.630115
H78	H	1.648787	0.330518	-0.604948
H79	H	1.638044	0.322867	-0.753727
H80	H	1.754870	0.250726	-0.778896
H81	H	1.774845	0.343543	-0.746309
H82	H	1.392946	-0.655125	0.277957
H83	H	1.482361	-0.590370	-0.015291
C84	C	0.733754	0.047944	0.372382
C85	C	0.729079	0.109626	0.446374
C86	C	0.639175	0.090748	0.526925
H87	H	0.649982	0.048967	0.360410
H88	H	0.759728	-0.007727	0.388814
H89	H	0.703098	0.165283	0.429945
H90	H	0.812828	0.108613	0.458375
H91	H	0.665149	0.035076	0.543357
H92	H	0.555409	0.091770	0.514944
H93	H	0.636000	0.132591	0.577140
C94	C	1.207601	0.198368	-0.286557
C95	C	1.212312	0.136665	-0.360538
C96	C	1.302321	0.155488	-0.441062
H97	H	1.181735	0.254023	-0.303052
H98	H	1.291344	0.197320	-0.274503
H99	H	1.128588	0.137722	-0.372592
H100	H	1.238193	0.081004	-0.344073
H101	H	1.386063	0.154441	-0.429008
H102	H	1.276446	0.211145	-0.457548
H103	H	1.305538	0.113623	-0.491265
C104	C	1.006506	0.052803	0.373922
C105	C	1.058523	0.124979	0.404128
C106	C	1.099428	0.108446	0.485334
H107	H	0.934285	0.041177	0.421790
H108	H	1.071216	0.004258	0.360641
H109	H	0.993820	0.173510	0.417414
H110	H	1.130758	0.136616	0.356285
H111	H	1.164137	0.059901	0.472053
H112	H	1.027200	0.096819	0.533195
H113	H	1.134737	0.157411	0.505834
H114	H	0.782676	0.154672	-0.120197
H115	H	1.560595	-0.256954	-0.247336
H116	H	1.158588	0.091685	0.205983
H117	H	1.458905	-0.163279	0.101092
C118	C	1.553889	-0.081864	-0.210064
C119	C	1.461522	-0.083561	-0.263166
C120	C	1.482553	-0.022108	-0.328881
H121	H	1.545795	-0.026112	-0.178309
H122	H	1.638907	-0.094791	-0.250390
H123	H	1.376524	-0.070630	-0.222845
H124	H	1.469599	-0.139299	-0.294941
H125	H	1.567572	-0.035034	-0.369208
H126	H	1.474461	0.033640	-0.297118
H127	H	1.419894	-0.023256	-0.364925
C128	C	1.431732	-0.212548	0.187337
C129	C	1.402603	-0.203110	0.285475
C130	C	1.395685	-0.115807	0.316102
H131	H	1.513060	-0.192066	0.162394
H132	H	1.365445	-0.180212	0.166497
H133	H	1.468885	-0.235434	0.306306
H134	H	1.321274	-0.223573	0.310442
H135	H	1.329399	-0.083471	0.295262
H136	H	1.477016	-0.095332	0.291153
H137	H	1.375909	-0.109391	0.382691
C138	C	1.509402	-0.541073	-0.101537
C139	C	1.538456	-0.550508	-0.199673
C140	C	1.545226	-0.637800	-0.230293
H141	H	1.575655	-0.573473	-0.080743
H142	H	1.428015	-0.561482	-0.076543
H143	H	1.619833	-0.530109	-0.224657
H144	H	1.472216	-0.518128	-0.220492
H145	H	1.463838	-0.658209	-0.205299
H146	H	1.611478	-0.670192	-0.209493
H147	H	1.564927	-0.644212	-0.296880
C148	C	1.387454	-0.340989	0.324044
C149	C	1.370266	-0.413550	0.375004
C150	C	1.342146	-0.387911	0.471083
H151	H	1.457535	-0.313643	0.337316
H152	H	1.309933	-0.301727	0.341384
H153	H	1.447778	-0.452797	0.357671
H154	H	1.300181	-0.440904	0.361761
H155	H	1.264626	-0.348650	0.488422
H156	H	1.412232	-0.360565	0.484345
H157	H	1.330469	-0.437138	0.505671
H158	H	1.695756	0.286096	-0.491532
C159	C	1.222367	-0.056443	-0.415026
C160	C	1.178902	-0.087882	-0.491494
C161	C	1.093756	-0.149432	-0.462869
H162	H	1.266580	-0.102759	-0.391932
H163	H	1.149860	-0.030542	-0.366838
H164	H	1.251396	-0.113783	-0.539666
H165	H	1.134667	-0.041587	-0.514598
H166	H	1.021250	-0.123532	-0.414681
H167	H	1.137980	-0.195743	-0.439774
H168	H	1.064245	-0.170766	-0.514745
H169	H	1.257095	0.163097	-0.117290
H170	H	1.672162	0.269074	-0.164386
H171	H	1.415239	0.083113	-0.229130
H172	H	1.348159	0.034562	-0.305637
H173	H	1.217433	-0.060087	-0.580510
