data_functionalizedCrystal
_audit_creation_method	'MofGen! by Chris Wilmer'
_symmetry_space_group_name_H-M	'P1'
_symmetry_Int_Tables_number	1
_symmetry_cell_setting	triclinic
loop_
_symmetry_equiv_pos_as_xyz
  x,y,z
_cell_length_a	10.723024
_cell_length_b	27.732064
_cell_length_c	9.798715
_cell_angle_alpha	90.000953
_cell_angle_beta	89.996609
_cell_angle_gamma	83.558646
loop_
_atom_site_label
_atom_site_type_symbol
_atom_site_fract_x
_atom_site_fract_y
_atom_site_fract_z
O1	O	1.654392	0.067789	-0.113468
O2	O	1.290972	0.074277	-0.113472
O3	O	1.483959	0.000707	-0.113475
O4	O	1.461406	0.141359	-0.113465
O5	O	1.483944	0.000707	0.113507
O6	O	1.290958	0.074277	0.113510
O7	O	1.654378	0.067788	0.113514
Zn8	Zn	1.472666	0.071033	0.149550
Zn9	Zn	1.472685	0.071033	-0.149508
O10	O	1.461392	0.141359	0.113517
C11	C	1.244485	0.073805	0.000019
C12	C	1.105989	0.072392	0.000017
C13	C	0.916041	0.028507	0.000011
C14	C	1.059185	0.029967	0.000013
C15	C	1.483475	-0.017303	0.000011
C16	C	1.482040	-0.070966	-0.000001
C17	C	1.358225	-0.448808	-0.000008
C18	C	1.363507	-0.247115	-0.000009
O19	O	1.267431	-0.216459	-0.000065
N20	N	1.477944	-0.227277	-0.000009
C21	C	1.591069	-0.257865	-0.000016
O22	O	1.688526	-0.236364	-0.000029
C23	C	1.585786	-0.459558	-0.000024
C24	C	1.471341	-0.479393	-0.000011
C25	C	1.243790	-0.468644	0.000004
C26	C	1.242471	-0.519064	0.000012
C27	C	1.355587	-0.549649	0.000008
C28	C	1.470022	-0.529813	-0.000003
C29	C	1.698910	-0.490145	-0.000042
C30	C	1.697579	-0.540571	-0.000047
C31	C	1.583134	-0.560406	-0.000034
C32	C	1.581819	-0.610818	0.000001
N33	N	1.467382	-0.630656	0.000000
C34	C	1.354266	-0.600071	0.000004
C35	C	1.593835	-0.151974	-0.000009
C36	C	1.595156	-0.101551	-0.000005
C37	C	1.367593	-0.090804	-0.000001
C38	C	1.366273	-0.141228	0.000005
C39	C	1.479398	-0.171812	-0.000010
C40	C	1.351504	-0.705958	0.000021
C41	C	1.350195	-0.756383	0.000035
C42	C	1.577757	-0.767126	0.000023
C43	C	1.579067	-0.716705	0.000017
C44	C	1.465930	-0.686122	0.000011
O45	O	1.677844	-0.641503	0.000041
O46	O	1.256823	-0.621582	-0.000013
C47	C	1.359544	-0.398388	-0.000016
C48	C	1.473980	-0.378552	-0.000027
C49	C	1.587096	-0.409137	-0.000031
C50	C	1.475301	-0.328129	-0.000023
C51	C	1.362185	-0.297545	-0.000019
C52	C	1.247748	-0.317383	-0.000020
C53	C	1.246428	-0.367803	-0.000012
C54	C	1.701533	-0.389299	-0.000030
C55	C	1.702843	-0.338878	-0.000036
C56	C	1.589727	-0.308293	-0.000032
C57	C	1.700865	0.068261	0.000020
C58	C	1.839361	0.069673	0.000013
C59	C	1.461876	0.159369	0.000027
C60	C	1.463311	0.213032	0.000031
N61	N	1.472662	0.071032	0.353650
N62	N	1.472698	0.071030	-0.353608
C63	C	1.553697	0.040006	0.421425
C64	C	1.553718	0.040004	0.578588
H65	H	1.256996	-0.772530	0.000052
N66	N	1.645588	0.004823	0.344177
H67	H	1.699671	-0.015882	0.410999
H68	H	1.598005	-0.016635	0.284899
N69	N	1.018712	0.119073	0.000057
H70	H	1.034421	0.138535	0.084213
H71	H	1.034441	0.138515	-0.084128
H72	H	1.259377	-0.681063	0.000016
H73	H	1.273083	-0.157374	0.000021
N74	N	1.645630	0.004819	0.655778
H75	H	1.632619	0.009806	0.757107
H76	H	1.631645	-0.029503	0.630876
H77	H	1.125070	-0.005275	0.000003
H78	H	1.403321	0.097596	0.588117
H79	H	0.879686	0.105998	0.000024
H80	H	1.149278	-0.535209	0.000010
H81	H	1.151672	-0.443746	0.000002
H82	H	1.688348	-0.085406	0.000006
N83	N	0.862645	-0.019611	0.000029
H84	H	0.767957	-0.013833	0.000033
H85	H	0.892194	-0.038601	-0.084114
N86	N	1.245587	-0.057812	0.000012
H87	H	1.263800	-0.022861	0.000014
H88	H	1.195675	-0.064275	-0.084137
N89	N	1.380773	0.106215	0.430900
H90	H	1.428265	0.127706	0.490180
H91	H	1.326712	0.126887	0.363992
H92	H	1.685960	-0.176872	-0.000019
H93	H	1.792103	-0.474005	-0.000053
N94	N	1.819594	-0.573558	-0.000068
H95	H	1.892286	-0.553338	-0.000076
H96	H	1.824009	-0.594712	0.084079
H97	H	1.669853	-0.792037	0.000027
N98	N	1.702498	-0.695308	0.000027
H99	H	1.773956	-0.722336	0.000032
H100	H	1.708007	-0.674626	-0.084126
N101	N	1.125744	-0.284388	-0.000031
H102	H	1.053038	-0.304601	-0.000030
H103	H	1.121336	-0.263230	0.084109
H104	H	1.153236	-0.383948	-0.000000
N105	N	1.826293	-0.317491	-0.000039
H106	H	1.875798	-0.328621	-0.084186
H107	H	1.809877	-0.280911	0.000007
N108	N	1.823543	-0.422283	-0.000028
H109	H	1.896230	-0.402060	-0.000026
H110	H	1.827949	-0.443433	0.084124
