data_functionalizedCrystal
_audit_creation_method	'MofGen! by Chris Wilmer'
_symmetry_space_group_name_H-M	'P1'
_symmetry_Int_Tables_number	1
_symmetry_cell_setting	triclinic
loop_
_symmetry_equiv_pos_as_xyz
  x,y,z
_cell_length_a	16.974829
_cell_length_b	12.503572
_cell_length_c	16.992695
_cell_angle_alpha	86.236993
_cell_angle_beta	87.025716
_cell_angle_gamma	97.160689
loop_
_atom_site_label
_atom_site_type_symbol
_atom_site_fract_x
_atom_site_fract_y
_atom_site_fract_z
O1	O	1.064159	0.181821	0.090716
O2	O	0.833799	0.161800	0.104456
O3	O	0.948055	0.171722	-0.016551
O4	O	0.949903	0.171899	0.211723
O5	O	0.939464	-0.007666	-0.007436
O6	O	0.825208	-0.017588	0.113571
O7	O	1.055568	0.002433	0.099832
Cu8	Cu	0.939603	-0.023957	0.107534
Cu9	Cu	0.949764	0.188190	0.096754
O10	O	0.941311	-0.007489	0.220839
C11	C	0.799891	0.069532	0.108659
C12	C	0.711656	0.061863	0.107595
C13	C	0.214480	0.008198	0.102161
C14	C	0.297386	0.015406	0.103162
C15	C	0.343523	0.116796	0.098687
C16	C	0.306750	0.210985	0.093220
C17	C	0.223844	0.203776	0.092225
C18	C	0.591977	0.148842	0.101133
C19	C	0.674888	0.156044	0.102126
C20	C	0.665518	-0.039535	0.112069
C21	C	0.582612	-0.046735	0.111069
C22	C	0.545845	0.047453	0.105606
N23	N	0.428268	0.124166	0.099707
N24	N	0.461102	0.040082	0.104592
N25	N	0.932462	-0.173169	0.115115
C26	C	0.921958	-0.393197	0.126275
C27	C	0.967412	-0.442577	0.078009
C28	C	0.961568	-0.565007	0.084218
C29	C	0.927802	-0.270755	0.120067
C30	C	1.089476	0.094703	0.095628
C31	C	1.177711	0.102379	0.096692
C32	C	0.941384	0.081821	-0.041193
C33	C	0.934295	0.081206	-0.128198
N34	N	0.956911	0.337403	0.089166
C35	C	1.002694	0.087149	-0.178813
C36	C	0.996029	0.086580	-0.260563
C37	C	0.920963	0.080060	-0.291698
C38	C	0.852558	0.074119	-0.241077
C39	C	0.859225	0.074696	-0.159329
C40	C	0.893334	0.077673	-0.535145
C41	C	0.886673	0.077093	-0.616900
C42	C	1.030145	0.089557	-0.636381
C43	C	1.036804	0.090127	-0.554629
C44	C	0.968400	0.084192	-0.504016
N45	N	0.914148	0.079474	-0.375260
N46	N	0.975215	0.084785	-0.420456
C47	C	0.947983	0.082414	0.245480
C48	C	0.955073	0.083037	0.332485
H49	H	1.010716	-0.392903	0.032025
N50	N	1.079368	0.093821	-0.147001
N51	N	1.085314	0.094338	-0.074011
H52	H	1.139467	0.099054	-0.051545
H53	H	0.878658	-0.442864	0.172257
N54	N	1.065888	0.092650	-0.312279
N55	N	1.081799	0.169334	-0.363909
H56	H	1.131138	0.173621	-0.400436
H57	H	0.344321	0.293539	0.089581
H58	H	1.097931	0.095436	-0.529286
H59	H	0.562052	0.225537	0.096682
N60	N	1.100006	0.095617	-0.688092
N61	N	1.094048	0.095099	-0.761080
H62	H	1.143390	0.099381	-0.797602
H63	H	0.695463	-0.116217	0.116518
N64	N	0.809983	0.070411	-0.648690
N65	N	0.748914	0.065100	-0.603492
H66	H	0.694753	0.060373	-0.625943
N67	N	0.823455	0.071602	-0.483464
N68	N	0.756438	0.065772	-0.511275
H69	H	0.707081	0.061481	-0.474772
N70	N	0.775886	0.067472	-0.272891
N71	N	0.769942	0.066957	-0.345882
H72	H	0.715791	0.062261	-0.368350
N73	N	0.789363	0.068609	-0.107613
N74	N	0.795324	0.069125	-0.034625
H75	H	0.745983	0.064829	0.001900
N76	N	0.167368	-0.095380	0.106725
N77	N	0.200211	-0.179461	0.111608
H78	H	0.166940	-0.252617	0.114833
N79	N	0.186296	0.299990	0.086642
N80	N	0.227497	0.390511	0.082648
H81	H	0.200980	0.458467	0.078707
H82	H	0.327319	-0.061286	0.107613
H83	H	0.545053	-0.129297	0.114696
H84	H	0.712451	0.238613	0.098488
