data_functionalizedCrystal
_audit_creation_method	'MofGen! by Chris Wilmer'
_symmetry_space_group_name_H-M	'P1'
_symmetry_Int_Tables_number	1
_symmetry_cell_setting	triclinic
loop_
_symmetry_equiv_pos_as_xyz
  x,y,z
_cell_length_a	16.120530
_cell_length_b	18.050590
_cell_length_c	16.120256
_cell_angle_alpha	92.872767
_cell_angle_beta	90.128265
_cell_angle_gamma	87.114013
loop_
_atom_site_label
_atom_site_type_symbol
_atom_site_fract_x
_atom_site_fract_y
_atom_site_fract_z
Zn1	Zn	1.247477	-0.376264	-0.534555
Zn2	Zn	1.497477	-0.126264	-0.284555
Zn3	Zn	1.747477	0.123736	-0.034555
Zn4	Zn	1.997477	0.373736	0.215445
Zn5	Zn	1.254440	-0.494486	-0.395493
Zn6	Zn	1.504440	-0.244486	-0.145493
Zn7	Zn	1.754440	0.005514	0.104507
Zn8	Zn	2.004440	0.255514	0.354507
Zn9	Zn	1.115466	-0.363711	-0.388473
Zn10	Zn	1.365466	-0.113711	-0.138473
Zn11	Zn	1.615466	0.136289	0.111527
Zn12	Zn	1.865466	0.386289	0.361527
Zn13	Zn	1.108396	-0.493805	-0.527463
Zn14	Zn	1.358396	-0.243805	-0.277463
Zn15	Zn	1.608396	0.006195	-0.027463
Zn16	Zn	1.858396	0.256195	0.222537
O17	O	1.181445	-0.432067	-0.461496
O18	O	1.431445	-0.182067	-0.211496
O19	O	1.681445	0.067933	0.038504
O20	O	1.931445	0.317933	0.288504
O21	O	1.364767	-0.397485	-0.522014
O22	O	1.614767	-0.147485	-0.272014
O23	O	1.864767	0.102515	-0.022014
O24	O	2.114767	0.352515	0.227986
O25	O	1.241877	-0.472169	-0.278196
O26	O	1.491877	-0.222169	-0.028196
O27	O	1.741877	0.027831	0.221804
O28	O	1.991877	0.277831	0.471804
O29	O	1.133023	-0.261455	-0.407881
O30	O	1.383023	-0.011455	-0.157881
O31	O	1.633023	0.238545	0.092119
O32	O	1.883023	0.488545	0.342119
O33	O	1.369883	-0.484342	-0.419846
O34	O	1.619883	-0.234342	-0.169846
O35	O	1.869883	0.015658	0.080154
O36	O	2.119883	0.265658	0.330154
O37	O	1.230011	-0.270678	-0.515207
O38	O	1.480011	-0.020678	-0.265207
O39	O	1.730011	0.229322	-0.015207
O40	O	1.980011	0.479322	0.234793
O41	O	1.139774	-0.376089	-0.273038
O42	O	1.389774	-0.126089	-0.023038
O43	O	1.639774	0.123911	0.226962
O44	O	1.889774	0.373911	0.476962
O45	O	0.998161	-0.375430	-0.401004
O46	O	1.248161	-0.125430	-0.151004
O47	O	1.498161	0.124570	0.098996
O48	O	1.748161	0.374570	0.348996
O49	O	1.120972	-0.483182	-0.644770
O50	O	1.370972	-0.233182	-0.394770
O51	O	1.620972	0.016818	-0.144770
O52	O	1.870972	0.266818	0.105230
O53	O	0.992967	-0.471010	-0.503120
O54	O	1.242967	-0.221010	-0.253120
O55	O	1.492967	0.028990	-0.003120
O56	O	1.742967	0.278990	0.246880
O57	O	1.223155	-0.396825	-0.649980
O58	O	1.473155	-0.146825	-0.399980
O59	O	1.723155	0.103175	-0.149980
O60	O	1.973155	0.353175	0.100020
O61	O	1.235021	-0.598317	-0.412969
O62	O	1.485021	-0.348317	-0.162969
O63	O	1.735021	-0.098317	0.087031
O64	O	1.985021	0.151683	0.337031
O65	O	1.127724	-0.597817	-0.509927
O66	O	1.377724	-0.347817	-0.259927
O67	O	1.627724	-0.097817	-0.009927
O68	O	1.877724	0.152183	0.240073
C69	C	0.965392	-0.421784	-0.450531
C70	C	1.215392	-0.171784	-0.200531
C71	C	1.465392	0.078216	0.049469
C72	C	1.715392	0.328216	0.299469
C73	C	0.872962	-0.417404	-0.445860
C74	C	1.122962	-0.167404	-0.195860
C75	C	1.372962	0.082596	0.054140
C76	C	1.622962	0.332596	0.304140
C77	C	0.703732	-0.409390	-0.437339
C78	C	0.953732	-0.159390	-0.187339
C79	C	1.203732	0.090610	0.062661
C80	C	1.453732	0.340610	0.312661
C81	C	0.659995	-0.454800	-0.485714
C82	C	0.909995	-0.204800	-0.235714
C83	C	1.159995	0.045200	0.014286
C84	C	1.409995	0.295200	0.264286
C85	C	0.565829	-0.450341	-0.480973
C86	C	0.815829	-0.200341	-0.230973
C87	C	1.065829	0.049659	0.019027
C88	C	1.315829	0.299659	0.269027
C89	C	0.797906	-0.413848	-0.442079
C90	C	1.047906	-0.163848	-0.192079
C91	C	1.297906	0.086152	0.057921
C92	C	1.547906	0.336152	0.307921
C93	C	1.181382	-0.625014	-0.461460
C94	C	1.431382	-0.375014	-0.211460
C95	C	1.681382	-0.125014	0.038540
C96	C	1.931382	0.124986	0.288540
C97	C	1.181430	-0.707563	-0.461476
C98	C	1.431430	-0.457563	-0.211476
C99	C	1.681430	-0.207563	0.038524
C100	C	1.931430	0.042437	0.288524
C101	C	1.239891	-0.907267	-0.408834
C102	C	1.489891	-0.657267	-0.158834
C103	C	1.739891	-0.407267	0.091166
C104	C	1.989891	-0.157267	0.341166
C105	C	1.256356	-0.960823	-0.485756
C106	C	1.506356	-0.710823	-0.235756
C107	C	1.756356	-0.460823	0.014244
C108	C	2.006356	-0.210823	0.264244
C109	C	1.181476	-0.858697	-0.461511
C110	C	1.431476	-0.608697	-0.211511
C111	C	1.681476	-0.358697	0.038489
C112	C	1.931476	-0.108697	0.288489
C113	C	1.165094	-0.952229	-0.384628
C114	C	1.415094	-0.702229	-0.134628
C115	C	1.665094	-0.452229	0.115372
C116	C	1.915094	-0.202229	0.365372
C117	C	1.181522	-1.004685	-0.461539
C118	C	1.431522	-0.754685	-0.211539
C119	C	1.681522	-0.504685	0.038461
C120	C	1.931522	-0.254685	0.288461
C121	C	1.197978	-0.911169	-0.538475
C122	C	1.447978	-0.661169	-0.288475
C123	C	1.697978	-0.411169	-0.038475
C124	C	1.947978	-0.161169	0.211525
C125	C	1.106683	-0.902566	-0.437294
C126	C	1.356683	-0.652566	-0.187294
C127	C	1.606683	-0.402566	0.062706
C128	C	1.856683	-0.152566	0.312706
C129	C	1.123117	-0.956100	-0.514267
C130	C	1.373117	-0.706100	-0.264267
C131	C	1.623117	-0.456100	-0.014267
C132	C	1.873117	-0.206100	0.235733
C133	C	1.181452	-0.774597	-0.461494
C134	C	1.431452	-0.524597	-0.211494
C135	C	1.681452	-0.274597	0.038506
C136	C	1.931452	-0.024597	0.288506
C137	C	1.181546	-1.088784	-0.461565
C138	C	1.431546	-0.838784	-0.211565
C139	C	1.681546	-0.588784	0.038435
C140	C	1.931546	-0.338784	0.288435
C141	C	1.398341	-0.442390	-0.472505
C142	C	1.648341	-0.192390	-0.222505
C143	C	1.898341	0.057610	0.027495
C144	C	2.148341	0.307610	0.277495
C145	C	1.490770	-0.446789	-0.477196
C146	C	1.740770	-0.196789	-0.227196
C147	C	1.990770	0.053211	0.022804
C148	C	2.240770	0.303211	0.272804
C149	C	1.170498	-0.441328	-0.678391
C150	C	1.420498	-0.191328	-0.428391
C151	C	1.670498	0.058672	-0.178391
C152	C	1.920498	0.308672	0.071609
C153	C	1.165834	-0.445275	-0.770819
C154	C	1.415834	-0.195275	-0.520819
C155	C	1.665834	0.054725	-0.270819
C156	C	1.915834	0.304725	-0.020819
C157	C	1.181529	-0.238367	-0.461552
C158	C	1.431529	0.011633	-0.211552
C159	C	1.681529	0.261633	0.038448
C160	C	1.931529	0.511633	0.288448
C161	C	1.181565	-0.155824	-0.461576
C162	C	1.431565	0.094176	-0.211576
C163	C	1.681565	0.344176	0.038424
C164	C	1.931565	0.594176	0.288424
C165	C	1.205769	-0.411465	-0.983804
C166	C	1.455769	-0.161465	-0.733804
C167	C	1.705769	0.088535	-0.483804
C168	C	1.955769	0.338535	-0.233804
C169	C	1.157289	-0.452449	-0.940038
C170	C	1.407289	-0.202449	-0.690038
C171	C	1.657289	0.047551	-0.440038
C172	C	1.907289	0.297551	-0.190038
C173	C	1.162045	-0.448456	-0.845876
C174	C	1.412045	-0.198456	-0.595876
C175	C	1.662045	0.051544	-0.345876
C176	C	1.912045	0.301544	-0.095876
C177	C	1.201015	-0.415457	-1.077975
C178	C	1.451015	-0.165457	-0.827975
C179	C	1.701015	0.084543	-0.577975
C180	C	1.951015	0.334543	-0.327975
C181	C	1.192396	-0.422790	-0.245448
C182	C	1.442396	-0.172790	0.004552
C183	C	1.692396	0.077210	0.254552
C184	C	1.942396	0.327210	0.504552
C185	C	1.197222	-0.418641	-0.153029
C186	C	1.447222	-0.168641	0.096971
C187	C	1.697222	0.081359	0.346971
C188	C	1.947222	0.331359	0.596971
H189	H	1.319625	-0.986266	-0.506256
H190	H	1.569625	-0.736266	-0.256256
H191	H	1.819625	-0.486266	-0.006256
H192	H	2.069625	-0.236266	0.243744
H193	H	1.211787	-0.893084	-0.603559
H194	H	1.461787	-0.643084	-0.353559
H195	H	1.711787	-0.393084	-0.103559
H196	H	1.961787	-0.143084	0.146441
H197	H	1.043433	-0.877107	-0.416773
H198	H	1.293433	-0.627107	-0.166773
H199	H	1.543433	-0.377107	0.083227
H200	H	1.793433	-0.127107	0.333227
N201	N	0.704064	-0.510735	-0.545292
N202	N	0.954064	-0.260735	-0.295292
N203	N	1.204064	-0.010735	-0.045292
N204	N	1.454064	0.239265	0.204708
H205	H	0.766062	-0.506034	-0.540276
H206	H	1.016062	-0.256034	-0.290276
H207	H	1.266062	-0.006034	-0.040276
H208	H	1.516062	0.243966	0.209724
H209	H	0.689573	-0.562495	-0.531490
H210	H	0.939573	-0.312495	-0.281490
H211	H	1.189573	-0.062495	-0.031490
H212	H	1.439573	0.187505	0.218510
N213	N	0.659664	-0.353476	-0.377745
N214	N	0.909664	-0.103476	-0.127745
N215	N	1.159664	0.146524	0.122255
N216	N	1.409664	0.396524	0.372255
H217	H	0.597667	-0.358189	-0.382756
H218	H	0.847667	-0.108189	-0.132756
H219	H	1.097667	0.141811	0.117244
H220	H	1.347667	0.391811	0.367244
H221	H	0.677780	-0.363140	-0.319087
H222	H	0.927780	-0.113140	-0.069087
H223	H	1.177780	0.136860	0.180913
H224	H	1.427780	0.386860	0.430913
N225	N	1.146708	-0.976309	-0.298491
N226	N	1.396708	-0.726309	-0.048491
N227	N	1.646708	-0.476309	0.201509
N228	N	1.896708	-0.226309	0.451509
H229	H	1.190855	-0.958557	-0.258741
H230	H	1.440855	-0.708557	-0.008741
H231	H	1.690855	-0.458557	0.241259
H232	H	1.940855	-0.208557	0.491259
H233	H	1.090609	-0.954221	-0.279850
H234	H	1.340609	-0.704221	-0.029850
H235	H	1.590609	-0.454221	0.220150
H236	H	1.840609	-0.204221	0.470150
H237	H	1.250842	-0.373384	-0.950556
H238	H	1.500842	-0.123384	-0.700556
H239	H	1.750842	0.126616	-0.450556
H240	H	2.000842	0.376616	-0.200556
N241	N	1.305335	-0.878854	-0.349887
N242	N	1.555335	-0.628854	-0.099887
N243	N	1.805335	-0.378854	0.150113
N244	N	2.055335	-0.128854	0.400113
H245	H	1.361829	-0.900173	-0.368302
H246	H	1.611829	-0.650173	-0.118302
H247	H	1.861829	-0.400173	0.131698
H248	H	2.111829	-0.150173	0.381698
H249	H	1.304427	-0.822869	-0.349922
H250	H	1.554427	-0.572869	-0.099922
H251	H	1.804427	-0.322869	0.150078
H252	H	2.054427	-0.072869	0.400078
H253	H	1.112208	-0.490530	-0.973288
H254	H	1.362208	-0.240530	-0.723288
H255	H	1.612208	0.009470	-0.473288
H256	H	1.862208	0.259470	-0.223288
H257	H	1.073735	-0.977415	-0.558881
H258	H	1.323735	-0.727415	-0.308881
H259	H	1.573735	-0.477415	-0.058881
H260	H	1.823735	-0.227415	0.191119
