data_functionalizedCrystal
_audit_creation_method	'MofGen! by Chris Wilmer'
_symmetry_space_group_name_H-M	'P1'
_symmetry_Int_Tables_number	1
_symmetry_cell_setting	triclinic
loop_
_symmetry_equiv_pos_as_xyz
  x,y,z
_cell_length_a	17.019282
_cell_length_b	14.519709
_cell_length_c	13.596369
_cell_angle_alpha	89.998664
_cell_angle_beta	86.124696
_cell_angle_gamma	96.465707
loop_
_atom_site_label
_atom_site_type_symbol
_atom_site_fract_x
_atom_site_fract_y
_atom_site_fract_z
O1	O	1.046846	-0.117428	-0.006905
O2	O	1.546846	0.382572	0.493095
O3	O	0.817203	-0.132423	0.012555
O4	O	1.317203	0.367577	0.512555
O5	O	0.938113	0.009333	0.002300
O6	O	1.438113	0.509333	0.502300
O7	O	0.925936	-0.259184	0.003350
O8	O	1.425936	0.240816	0.503350
O9	O	0.938098	0.009325	-0.161282
O10	O	1.438098	0.509325	0.338718
O11	O	0.817188	-0.132431	-0.151027
O12	O	1.317188	0.367569	0.348973
O13	O	1.046831	-0.117436	-0.170487
O14	O	1.546831	0.382564	0.329513
Zn15	Zn	0.932007	-0.124934	-0.186729
Zn16	Zn	1.432007	0.375066	0.313271
Zn17	Zn	0.932027	-0.124924	0.028797
Zn18	Zn	1.432027	0.375076	0.528797
O19	O	0.925921	-0.259192	-0.160232
O20	O	1.425921	0.240808	0.339768
C21	C	0.787805	-0.131860	-0.066746
C22	C	1.287805	0.368140	0.433254
C23	C	0.700233	-0.130161	-0.059325
C24	C	1.200233	0.369839	0.440675
C25	C	0.659088	-0.129365	-0.145010
C26	C	1.159088	0.370635	0.354990
C27	C	0.576805	-0.127754	-0.138040
C28	C	1.076805	0.372246	0.361960
C29	C	0.535669	-0.126946	-0.045385
C30	C	1.035669	0.373054	0.454615
C31	C	0.576820	-0.127739	0.040306
C32	C	1.076820	0.372261	0.540306
C33	C	0.659102	-0.129344	0.033335
C34	C	1.159102	0.370656	0.533335
C35	C	0.287234	-0.122095	-0.019878
C36	C	0.787234	0.377905	0.480122
C37	C	0.204946	-0.120493	-0.012914
C38	C	0.704946	0.379507	0.487086
C39	C	0.204937	-0.120506	-0.191260
C40	C	0.704937	0.379494	0.308740
C41	C	0.287220	-0.122116	-0.198223
C42	C	0.787220	0.377884	0.301777
C43	C	0.328364	-0.122905	-0.112532
C44	C	0.828364	0.377095	0.387468
C45	C	0.451563	-0.125302	-0.038259
C46	C	0.951563	0.374698	0.461741
C47	C	0.412469	-0.124542	-0.119659
C48	C	0.912469	0.375458	0.380341
C49	C	0.937538	0.043687	-0.079443
C50	C	1.437538	0.543687	0.420557
C51	C	0.935837	0.146063	-0.079299
C52	C	1.435837	0.646063	0.420701
C53	C	1.076229	-0.117998	-0.091184
C54	C	1.576229	0.382002	0.408816
C55	C	1.163801	-0.119697	-0.098598
C56	C	1.663801	0.380303	0.401402
C57	C	0.926496	-0.293546	-0.078487
C58	C	1.426496	0.206454	0.421513
C59	C	0.928196	-0.395921	-0.078624
C60	C	1.428196	0.104079	0.421376
N61	N	0.932000	-0.124941	-0.333820
N62	N	1.432000	0.375059	0.166180
C63	C	0.929577	0.520938	-0.078743
C64	C	1.429577	1.020938	0.421257
C65	C	0.931315	0.416636	-0.078898
C66	C	1.431315	0.916636	0.421102
C67	C	0.932707	0.333504	-0.079022
C68	C	1.432707	0.833504	0.420978
C69	C	0.934446	0.229195	-0.079175
C70	C	1.434446	0.729195	0.420825
C71	C	0.932003	-0.124943	-0.422818
C72	C	1.432003	0.375057	0.077182
C73	C	0.932011	-0.124937	-0.534470
C74	C	1.432011	0.375063	-0.034470
C75	C	0.932021	-0.124926	-0.623462
C76	C	1.432021	0.375074	-0.123462
C77	C	0.932030	-0.124921	-0.735121
C78	C	1.432030	0.375079	-0.235121
N79	N	0.932041	-0.124910	0.175888
N80	N	1.432041	0.375090	0.675888
H81	H	0.320724	-0.122734	0.049898
H82	H	0.820724	0.377266	0.549898
O83	O	0.407194	-0.124431	0.061676
O84	O	0.907194	0.375569	0.561676
H85	H	0.416043	-0.187561	0.103694
H86	H	0.916043	0.312439	0.603694
H87	H	0.171455	-0.119838	0.062541
H88	H	0.671455	0.380162	0.562541
H89	H	0.543322	-0.127075	0.115747
H90	H	1.043322	0.372925	0.615747
H91	H	0.692601	-0.129994	0.103109
H92	H	1.192601	0.370006	0.603109
O93	O	0.703448	-0.130242	-0.244949
O94	O	1.203448	0.369758	0.255051
H95	H	0.767576	-0.131502	-0.235405
H96	H	1.267576	0.368498	0.264595
O97	O	0.532423	-0.126905	-0.230456
O98	O	1.032423	0.373095	0.269544
H99	H	0.574850	-0.127752	-0.296055
H100	H	1.074850	0.372248	0.203945
O101	O	0.331584	-0.123031	-0.298157
O102	O	0.831584	0.376969	0.201843
H103	H	0.289148	-0.122217	-0.356570
H104	H	0.789148	0.377783	0.143430
H105	H	0.171429	-0.119863	-0.261025
H106	H	0.671429	0.380137	0.238975
O107	O	0.456829	-0.125426	-0.219594
O108	O	0.956829	0.374574	0.280406
H109	H	0.501269	-0.063337	-0.227635
H110	H	1.001269	0.436663	0.272365
