data_functionalizedCrystal
_audit_creation_method	'MofGen! by Chris Wilmer'
_symmetry_space_group_name_H-M	'P1'
_symmetry_Int_Tables_number	1
_symmetry_cell_setting	triclinic
loop_
_symmetry_equiv_pos_as_xyz
  x,y,z
_cell_length_a	19.121424
_cell_length_b	19.120786
_cell_length_c	13.897441
_cell_angle_alpha	92.474365
_cell_angle_beta	87.588321
_cell_angle_gamma	95.008527
loop_
_atom_site_label
_atom_site_type_symbol
_atom_site_fract_x
_atom_site_fract_y
_atom_site_fract_z
Zn1	Zn	1.063733	-0.234191	0.469555
Zn2	Zn	1.058619	-0.351880	0.301648
Zn3	Zn	0.946064	-0.239246	0.314844
Zn4	Zn	0.941017	-0.356852	0.469473
O5	O	1.002358	-0.295542	0.388880
O6	O	1.161517	-0.245606	0.441794
O7	O	1.043660	-0.336973	0.168417
O8	O	0.965925	-0.140103	0.340924
O9	O	1.157759	-0.332072	0.318434
O10	O	1.052376	-0.136389	0.454590
O11	O	0.960966	-0.254221	0.178112
O12	O	0.846932	-0.259043	0.340844
O13	O	0.957324	-0.340546	0.604466
O14	O	0.843225	-0.345448	0.454449
O15	O	1.047483	-0.250427	0.604526
O16	O	1.038767	-0.451012	0.318353
O17	O	0.952365	-0.454665	0.441653
C18	C	0.819548	-0.303334	0.399070
C19	C	0.741341	-0.306684	0.403451
C20	C	0.298919	-0.327871	0.431270
C21	C	0.372403	-0.324728	0.427136
C22	C	0.411056	-0.278098	0.366027
C23	C	0.376220	-0.234612	0.309042
C24	C	0.302737	-0.237759	0.313172
C25	C	0.633022	-0.266346	0.350597
C26	C	0.706510	-0.263201	0.346473
C27	C	0.702688	-0.353318	0.464566
C28	C	0.629204	-0.356457	0.468695
C29	C	0.594375	-0.312975	0.411707
C30	C	0.486168	-0.274883	0.361801
C31	C	0.519263	-0.316194	0.415928
C32	C	0.994483	-0.478370	0.378582
C33	C	0.991178	-0.556582	0.374206
C34	C	1.034602	-0.591334	0.431381
C35	C	1.031494	-0.664822	0.427270
C36	C	0.984965	-0.703558	0.365979
C37	C	0.941536	-0.668801	0.308801
C38	C	0.944641	-0.595314	0.312918
C39	C	0.973337	-0.925541	0.350591
C40	C	0.970236	-0.999033	0.346477
C41	C	1.060194	-0.995049	0.464948
C42	C	1.063298	-0.921560	0.469055
C43	C	1.019867	-0.886810	0.411881
C44	C	0.981789	-0.778675	0.361773
C45	C	1.023040	-0.811695	0.416092
C46	C	1.185882	-0.287720	0.378651
C47	C	1.264089	-0.284387	0.374292
C48	C	1.002411	-0.295478	0.640474
C49	C	1.002433	-0.295450	0.747688
C50	C	1.010284	-0.111999	0.399238
C51	C	1.013661	-0.033784	0.403652
C52	C	1.002349	-0.295554	0.138266
C53	C	1.002471	-0.295377	0.031056
C54	C	1.002454	-0.295402	0.943985
C55	C	1.002440	-0.295431	0.834752
H56	H	0.597738	-0.394430	0.518454
H57	H	0.909279	-0.567020	0.266361
F58	F	1.077705	-0.701804	0.488135
H59	H	1.101186	-0.890023	0.518963
F60	F	0.527312	-0.225254	0.296770
H61	H	0.400759	-0.360138	0.473531
H62	H	0.932343	-1.030570	0.296566
F63	F	1.106412	-1.032037	0.525794
F64	F	0.927107	-0.888567	0.289749
H65	H	1.060922	-0.780154	0.466000
H66	H	0.903648	-0.700346	0.258900
F67	F	0.595964	-0.220061	0.289952
H68	H	0.943906	-0.810221	0.311867
H69	H	0.267454	-0.365838	0.481037
H70	H	0.737980	-0.225220	0.296718
F71	F	0.417359	-0.184987	0.244001
F72	F	0.265669	-0.191481	0.252524
F73	F	0.478125	-0.365824	0.480956
F74	F	1.084129	-0.550115	0.496611
F75	F	0.739761	-0.399596	0.525206
