data_functionalizedCrystal
_audit_creation_method	'MofGen! by Chris Wilmer'
_symmetry_space_group_name_H-M	'P1'
_symmetry_Int_Tables_number	1
_symmetry_cell_setting	triclinic
loop_
_symmetry_equiv_pos_as_xyz
  x,y,z
_cell_length_a	10.723024
_cell_length_b	10.723024
_cell_length_c	9.798715
_cell_angle_alpha	90.001323
_cell_angle_beta	89.996597
_cell_angle_gamma	95.532131
loop_
_atom_site_label
_atom_site_type_symbol
_atom_site_fract_x
_atom_site_fract_y
_atom_site_fract_z
O1	O	-1.657187	0.175025	0.113475
O2	O	-1.157187	0.675025	0.613475
O3	O	-1.294035	0.191778	0.113479
O4	O	-0.794035	0.691778	0.613479
O5	O	-1.483988	0.001825	0.113475
O6	O	-0.983988	0.501825	0.613475
O7	O	-1.467234	0.364978	0.113479
O8	O	-0.967234	0.864978	0.613479
O9	O	-1.483974	0.001824	-0.113507
O10	O	-0.983974	0.501824	0.386493
O11	O	-1.294021	0.191777	-0.113503
O12	O	-0.794021	0.691777	0.386497
O13	O	-1.657173	0.175024	-0.113507
O14	O	-1.157173	0.675024	0.386493
Zn15	Zn	-1.475595	0.183400	-0.149543
Zn16	Zn	-0.975595	0.683400	0.350457
Zn17	Zn	-1.475613	0.183402	0.149516
Zn18	Zn	-0.975613	0.683402	0.649516
O19	O	-1.467220	0.364976	-0.113503
O20	O	-0.967220	0.864976	0.386497
C21	C	-1.247528	0.190558	-0.000011
C22	C	-0.747528	0.690558	0.499989
C23	C	-1.108974	0.186911	-0.000009
C24	C	-0.608974	0.686911	0.499991
C25	C	-1.482762	-0.044675	-0.000013
C26	C	-0.982762	0.455325	0.499987
C27	C	-1.479114	-0.183229	-0.000006
C28	C	-0.979114	0.316771	0.499994
C29	C	-1.703680	0.176243	-0.000013
C30	C	-1.203680	0.676243	0.499987
C31	C	-1.842234	0.179891	-0.000006
C32	C	-1.342234	0.679891	0.499994
C33	C	-1.468447	0.411477	-0.000011
C34	C	-0.968447	0.911477	0.499989
C35	C	-1.472094	0.550031	-0.000009
C36	C	-0.972094	1.050031	0.499991
C37	C	-1.033991	0.293198	-0.000007
C38	C	-0.533991	0.793198	0.499993
C39	C	-0.890788	0.289431	-0.000006
C40	C	-0.390788	0.789431	0.499994
N41	N	-1.475591	0.183398	-0.353643
N42	N	-0.975591	0.683398	0.146357
C43	C	-1.585401	0.741788	-0.000008
C44	C	-1.085401	1.241788	0.499992
C45	C	-1.581634	0.598585	-0.000010
C46	C	-1.081634	1.098585	0.499990
C47	C	-1.548356	0.255759	-0.421421
C48	C	-1.048356	0.755759	0.078579
C49	C	-1.548376	0.255758	-0.578583
C50	C	-1.048376	0.755758	-0.078583
N51	N	-1.475627	0.183394	0.353615
N52	N	-0.975627	0.683394	0.853615
H53	H	-1.075814	0.386984	-0.000014
H54	H	-0.575814	0.886984	0.499986
H55	H	-1.610643	0.317706	-0.363095
H56	H	-1.110643	0.817706	0.136905
Cl57	Cl	-0.791315	0.429921	0.000008
Cl58	Cl	-0.291315	0.929921	0.500008
Cl59	Cl	-1.331599	0.649496	-0.000017
Cl60	Cl	-0.831599	1.149496	0.499983
H61	H	-0.906659	0.088896	0.000001
H62	H	-0.406659	0.588896	0.500001
Cl63	Cl	-1.334308	0.752212	0.000005
Cl64	Cl	-0.834308	1.252212	0.500005
H65	H	-1.672624	0.534152	-0.000018
H66	H	-1.172624	1.034152	0.499982
Cl67	Cl	-1.379430	0.087745	-0.556410
Cl68	Cl	-0.879430	0.587745	-0.056410
Cl69	Cl	-1.379434	0.087736	-0.443681
Cl70	Cl	-0.879434	0.587736	0.056319
H71	H	-1.067152	0.093125	0.000025
H72	H	-0.567152	0.593125	0.500025
H73	H	-1.679187	0.783610	-0.000015
H74	H	-1.179187	1.283610	0.499985
H75	H	-1.610666	0.317716	-0.636871
H76	H	-1.110666	0.817716	-0.136871
