data_functionalizedCrystal
_audit_creation_method	'MofGen! by Chris Wilmer'
_symmetry_space_group_name_H-M	'P1'
_symmetry_Int_Tables_number	1
_symmetry_cell_setting	triclinic
loop_
_symmetry_equiv_pos_as_xyz
  x,y,z
_cell_length_a	14.044191
_cell_length_b	11.026607
_cell_length_c	10.065875
_cell_angle_alpha	100.731764
_cell_angle_beta	99.551392
_cell_angle_gamma	79.111103
loop_
_atom_site_label
_atom_site_type_symbol
_atom_site_fract_x
_atom_site_fract_y
_atom_site_fract_z
O1	O	1.319591	-0.281488	0.113356
O2	O	1.819591	0.218512	0.613356
O3	O	1.041788	-0.270718	0.113386
O4	O	1.541788	0.229282	0.613386
O5	O	1.157665	-0.096957	0.113369
O6	O	1.657665	0.403043	0.613369
O7	O	1.203714	-0.455249	0.113373
O8	O	1.703714	0.044751	0.613373
O9	O	1.135594	-0.130236	-0.113617
O10	O	1.635594	0.369764	0.386383
O11	O	1.019716	-0.303997	-0.113599
O12	O	1.519716	0.196003	0.386401
O13	O	1.297520	-0.314767	-0.113630
O14	O	1.797520	0.185233	0.386370
Zn15	Zn	1.155114	-0.314666	-0.149653
Zn16	Zn	1.655114	0.185334	0.350347
Zn17	Zn	1.184194	-0.270819	0.149410
Zn18	Zn	1.684194	0.229181	0.649410
O19	O	1.181643	-0.488528	-0.113612
O20	O	1.681643	0.011472	0.386388
C21	C	0.994634	-0.282648	-0.000102
C22	C	1.494634	0.217352	0.499898
C23	C	0.887013	-0.268599	-0.000091
C24	C	1.387013	0.231401	0.499909
C25	C	1.344674	-0.302837	-0.000138
C26	C	1.844674	0.197163	0.499862
C27	C	1.452296	-0.316885	-0.000141
C28	C	1.952296	0.183115	0.499859
C29	C	1.138134	-0.067466	-0.000122
C30	C	1.638134	0.432534	0.499878
C31	C	1.112811	0.069992	-0.000114
C32	C	1.612811	0.569992	0.499886
C33	C	1.689968	-0.242935	-0.000114
C34	C	2.189968	0.257065	0.499886
C35	C	1.649335	-0.342543	-0.000118
C36	C	2.149335	0.157457	0.499882
C37	C	1.539692	-0.328263	-0.000131
C38	C	2.039692	0.171737	0.499869
C39	C	1.799620	-0.257213	-0.000101
C40	C	2.299620	0.242787	0.499899
C41	C	1.201174	-0.518019	-0.000119
C42	C	1.701174	-0.018019	0.499881
C43	C	1.226498	-0.655475	-0.000118
C44	C	1.726498	-0.155475	0.499882
N45	N	1.135274	-0.344590	-0.353756
N46	N	1.635274	0.155410	0.146244
C47	C	1.182735	0.136225	-0.000120
C48	C	1.682735	0.636225	0.499880
C49	C	1.156564	0.278294	-0.000112
C50	C	1.656564	0.778294	0.499888
C51	C	1.177284	-0.281222	-0.421541
C52	C	1.677284	0.218778	0.078459
C53	C	1.162024	-0.304263	-0.578706
C54	C	1.662024	0.195737	-0.078706
N55	N	1.204039	-0.240886	0.353512
N56	N	1.704039	0.259114	0.853512
H57	H	1.696892	-0.438544	-0.000111
H58	H	2.196892	0.061456	0.499889
H59	H	1.642414	-0.146942	-0.000122
H60	H	2.142414	0.353058	0.499878
H61	H	1.224543	-0.209908	-0.363224
H62	H	1.724543	0.290092	0.136776
H63	H	1.261975	0.087751	-0.000137
H64	H	1.761975	0.587751	0.499863
Cl65	Cl	1.034215	0.353119	-0.000085
Cl66	Cl	1.534215	0.853119	0.499915
H67	H	1.305754	0.296074	-0.000024
H68	H	1.805754	0.796074	0.499976
H69	H	1.033571	0.118466	-0.000096
H70	H	1.533571	0.618466	0.499904
H71	H	1.114753	-0.375572	-0.637020
H72	H	1.614753	0.124428	-0.137020
H73	H	1.251301	-0.169567	-0.588174
H74	H	1.751301	0.330433	-0.088174
H75	H	1.088007	-0.415895	-0.412075
H76	H	1.588007	0.084105	0.087925
