data_functionalizedCrystal
_audit_creation_method	'MofGen! by Chris Wilmer'
_symmetry_space_group_name_H-M	'P1'
_symmetry_Int_Tables_number	1
_symmetry_cell_setting	triclinic
loop_
_symmetry_equiv_pos_as_xyz
  x,y,z
_cell_length_a	10.654550
_cell_length_b	10.268362
_cell_length_c	10.654550
_cell_angle_alpha	90.005126
_cell_angle_beta	84.484931
_cell_angle_gamma	90.001331
loop_
_atom_site_label
_atom_site_type_symbol
_atom_site_fract_x
_atom_site_fract_y
_atom_site_fract_z
O1	O	1.667841	0.108203	0.176400
O2	O	1.302363	0.108227	0.193206
O3	O	1.493505	0.108206	0.002064
O4	O	1.476699	0.108223	0.367542
O5	O	1.493488	-0.108395	0.002056
O6	O	1.302346	-0.108374	0.193198
O7	O	1.667824	-0.108398	0.176392
Cu8	Cu	1.485084	-0.128163	0.184794
Cu9	Cu	1.485104	0.127992	0.184804
O10	O	1.476682	-0.108377	0.367534
C11	C	1.255556	-0.000071	0.191968
C12	C	1.116113	-0.000062	0.188276
N13	N	1.485079	-0.308329	0.184787
C14	C	1.036628	-0.000060	0.300818
C15	C	0.905607	-0.000083	0.297341
C16	C	0.933570	-0.000104	0.068772
C17	C	1.064588	-0.000090	0.072250
C18	C	1.485097	-0.574000	0.184801
C19	C	1.485083	-0.426162	0.184797
C20	C	1.714631	-0.000098	0.177630
C21	C	1.854074	-0.000098	0.181322
C22	C	1.492263	-0.000094	-0.044738
C23	C	1.488571	-0.000091	-0.184181
N24	N	1.485118	0.308158	0.184801
C25	C	1.601112	-0.000098	-0.263667
C26	C	1.597636	-0.000082	-0.394688
C27	C	1.369066	-0.000058	-0.366725
C28	C	1.372544	-0.000065	-0.235706
C29	C	1.477925	-0.000075	0.414336
C30	C	1.481616	-0.000069	0.553779
H31	H	1.078574	-0.000047	0.395294
C32	C	1.146254	-0.000053	-0.221215
C33	C	1.248828	-0.000062	-0.148325
H34	H	1.069883	-0.000056	-0.167266
H35	H	1.149656	0.075477	-0.272886
H36	H	1.149650	-0.075591	-0.272910
H37	H	1.245438	0.075481	-0.096636
H38	H	1.245425	-0.075600	-0.096631
H39	H	0.840894	-0.000084	0.388984
C40	C	0.745143	-0.000120	-0.038050
C41	C	0.876928	-0.000118	-0.058760
H42	H	0.710180	-0.000118	-0.116787
H43	H	0.717938	-0.075648	0.008324
H44	H	0.717937	0.075419	0.008341
H45	H	0.904135	-0.075663	-0.105144
H46	H	0.904145	0.075418	-0.105155
H47	H	1.129309	-0.000095	-0.019401
H48	H	1.695588	-0.000117	-0.221720
H49	H	1.689279	-0.000085	-0.459401
C50	C	1.262244	-0.000053	-0.555151
C51	C	1.241534	-0.000048	-0.423366
H52	H	1.183508	-0.000058	-0.590114
H53	H	1.308626	0.075474	-0.582353
H54	H	1.308629	-0.075594	-0.582361
H55	H	1.195158	0.075499	-0.396156
H56	H	1.195133	-0.075582	-0.396153
