data_functionalizedCrystal
_audit_creation_method	'MofGen! by Chris Wilmer'
_symmetry_space_group_name_H-M	'P1'
_symmetry_Int_Tables_number	1
_symmetry_cell_setting	triclinic
loop_
_symmetry_equiv_pos_as_xyz
  x,y,z
_cell_length_a	14.908571
_cell_length_b	12.645330
_cell_length_c	14.908308
_cell_angle_alpha	86.731360
_cell_angle_beta	89.824947
_cell_angle_gamma	86.708920
loop_
_atom_site_label
_atom_site_type_symbol
_atom_site_fract_x
_atom_site_fract_y
_atom_site_fract_z
Zn1	Zn	1.345359	-0.553229	0.587594
Zn2	Zn	1.353958	-0.720908	0.437238
Zn3	Zn	1.203672	-0.532867	0.428592
Zn4	Zn	1.194986	-0.719648	0.578890
O5	O	1.274494	-0.631663	0.508078
O6	O	1.472326	-0.584520	0.574911
O7	O	1.341256	-0.687969	0.310266
O8	O	1.222503	-0.387225	0.449708
O9	O	1.478645	-0.707714	0.464445
O10	O	1.326600	-0.402184	0.566526
O11	O	1.230841	-0.549816	0.303914
O12	O	1.076692	-0.548595	0.441267
O13	O	1.207699	-0.705567	0.705869
O14	O	1.070311	-0.685823	0.551691
O15	O	1.318177	-0.583299	0.712264
O16	O	1.332834	-0.869084	0.456004
O17	O	1.216038	-0.868159	0.560075
C18	C	1.040876	-0.614864	0.494597
C19	C	0.940932	-0.607704	0.488851
C20	C	1.274450	-0.907088	0.508055
C21	C	1.274512	-1.024924	0.508079
C22	C	0.746540	-0.737345	0.592883
C23	C	0.652633	-0.730621	0.587487
C24	C	0.659211	-0.587528	0.472668
C25	C	0.753118	-0.594251	0.478064
C26	C	0.796778	-0.669164	0.538172
C27	C	0.890687	-0.675892	0.543563
C28	C	0.897263	-0.532794	0.428750
C29	C	0.803357	-0.526070	0.423354
C30	C	1.347885	-1.193009	0.442461
C31	C	1.348101	-1.070476	0.442644
C32	C	1.294736	-1.077205	0.604337
C33	C	1.295308	-1.199819	0.604000
C34	C	1.180833	-1.183876	0.478372
C35	C	1.181411	-1.061168	0.476273
C36	C	1.509023	-0.648529	0.521613
C37	C	1.608966	-0.655716	0.527381
C38	C	1.261010	-0.646564	0.742604
C39	C	1.255264	-0.652914	0.842545
C40	C	1.274561	-0.355165	0.508123
C41	C	1.274590	-0.237338	0.508143
C42	C	1.287976	-0.616747	0.274468
C43	C	1.293896	-0.610111	0.174538
C44	C	1.359506	-0.537503	1.037005
C45	C	1.354110	-0.543466	1.130909
C46	C	1.239073	-0.670796	1.124257
C47	C	1.244469	-0.664833	1.030353
C48	C	1.304688	-0.598186	0.986731
C49	C	1.310088	-0.592229	0.892826
C50	C	1.195047	-0.719553	0.886176
C51	C	1.189651	-0.725515	0.980079
H52	H	0.926234	-0.736891	0.592505
Br53	Br	1.391817	-0.501786	0.833624
H54	H	1.243962	-1.229451	0.654920
H55	H	1.242740	-1.047950	0.654821
H56	H	0.782089	-0.798347	0.641820
H57	H	1.124298	-1.029651	0.520164
H58	H	0.611732	-0.786139	0.632039
H59	H	1.140620	-0.779775	1.015609
Br60	Br	1.441242	-0.447073	0.977799
H61	H	0.623646	-0.526531	0.423737
H62	H	0.767795	-0.465076	0.374418
H63	H	0.938178	-0.477278	0.384199
Br64	Br	1.409260	-1.257864	0.644969
Br65	Br	1.157344	-0.761227	1.183474
Br66	Br	1.120660	-0.801929	0.817942
Br67	Br	1.407346	-1.036352	0.645809
H68	H	1.336081	-1.034830	0.371442
Br69	Br	1.328214	-1.232865	0.323457
H70	H	1.126289	-1.212418	0.526144
H71	H	1.417655	-1.047156	0.462770
Br72	Br	1.463203	-1.254304	0.475665
Br73	Br	1.148416	-1.225535	0.362944
Br74	Br	1.155820	-1.003090	0.358162
Br75	Br	1.428505	-0.461104	1.199136
