data_functionalizedCrystal
_audit_creation_method	'MofGen! by Chris Wilmer'
_symmetry_space_group_name_H-M	'P1'
_symmetry_Int_Tables_number	1
_symmetry_cell_setting	triclinic
loop_
_symmetry_equiv_pos_as_xyz
  x,y,z
_cell_length_a	33.428889
_cell_length_b	33.428139
_cell_length_c	33.424847
_cell_angle_alpha	60.004234
_cell_angle_beta	60.008465
_cell_angle_gamma	59.994972
loop_
_atom_site_label
_atom_site_type_symbol
_atom_site_fract_x
_atom_site_fract_y
_atom_site_fract_z
O1	O	0.055565	-0.584504	0.488714
O2	O	0.555565	-0.084504	0.988714
O3	O	0.020982	-0.455083	0.393778
O4	O	0.520982	0.044917	0.893778
O5	O	0.102943	-0.536959	0.393689
O6	O	0.602943	-0.036959	0.893689
O7	O	-0.026396	-0.502628	0.488803
O8	O	0.473604	-0.002628	0.988803
O9	O	0.130140	-0.509767	0.420792
O10	O	0.630140	-0.009767	0.920792
O11	O	0.048179	-0.427891	0.420881
O12	O	0.548179	0.072109	0.920881
O13	O	0.082762	-0.557312	0.515817
O14	O	0.582762	-0.057312	1.015817
Cu15	Cu	0.067954	-0.490119	0.470823
Cu16	Cu	0.567954	0.009881	0.970823
Cu17	Cu	0.035790	-0.522276	0.438771
Cu18	Cu	0.535790	-0.022276	0.938771
O19	O	0.000801	-0.475436	0.515906
O20	O	0.500801	0.024564	1.015906
N21	N	0.090577	-0.467504	0.493370
N22	N	0.590577	0.032496	0.993370
N23	N	0.013171	-0.544895	0.416225
N24	N	0.513171	-0.044895	0.916225
C25	C	0.143377	-0.280390	0.546067
C26	C	0.643377	0.219610	1.046067
C27	C	0.143515	-0.414755	0.680369
C28	C	0.643515	0.085245	1.180369
C29	C	0.143392	-0.414735	0.546069
C30	C	0.643392	0.085265	1.046069
C31	C	0.277766	-0.414702	0.545966
C32	C	0.777766	0.085298	1.045966
C33	C	0.158177	-0.324719	0.560828
C34	C	0.658177	0.175281	1.060828
C35	C	0.158255	-0.399967	0.636038
C36	C	0.658255	0.100033	1.136038
C37	C	0.233434	-0.399936	0.560773
C38	C	0.733434	0.100064	1.060773
C39	C	0.158186	-0.399955	0.560829
C40	C	0.658186	0.100045	1.060829
C41	C	0.124540	-0.223964	0.527278
C42	C	0.624540	0.276036	1.027278
C43	C	0.124565	-0.433545	0.527281
C44	C	0.624565	0.066455	1.027281
C45	C	0.177014	-0.381145	0.579617
C46	C	0.677014	0.118855	1.079617
C47	C	0.359814	-0.400540	0.502735
C48	C	0.859814	0.099460	1.002735
C49	C	0.411105	-0.417624	0.485606
C50	C	0.911105	0.082376	0.985606
C51	C	0.411136	-0.500620	0.517255
C52	C	0.911136	-0.000620	1.017255
C53	C	0.359845	-0.483534	0.534385
C54	C	0.859845	0.016466	1.034385
C55	C	0.136887	-0.198305	0.476855
C56	C	0.636887	0.301695	0.976855
C57	C	0.119761	-0.147011	0.459777
C58	C	0.619761	0.352989	0.959777
C59	C	0.077945	-0.147038	0.543547
C60	C	0.577945	0.352962	1.043547
C61	C	0.095072	-0.198332	0.560625
C62	C	0.595072	0.301668	1.060625
C63	C	0.074134	-0.421169	0.539710
C64	C	0.574134	0.078831	1.039710
C65	C	0.057023	-0.438269	0.522625
C66	C	0.557023	0.061731	1.022625
C67	C	0.140770	-0.480120	0.480694
C68	C	0.640770	0.019880	0.980694
C69	C	0.157883	-0.463020	0.497773
C70	C	0.657883	0.036980	0.997773
C71	C	0.074339	-0.421208	0.762475
C72	C	0.574339	0.078792	1.262475
C73	C	0.057288	-0.438323	0.813768
C74	C	0.557288	0.061677	1.313768
C75	C	0.141075	-0.480183	0.813699
C76	C	0.641075	0.019817	1.313699
C77	C	0.158125	-0.463069	0.762404
C78	C	0.658125	0.036931	1.262404
C79	C	0.124756	-0.433580	0.736794
C80	C	0.624756	0.066420	1.236794
C81	C	0.334186	-0.433494	0.527123
C82	C	0.834186	0.066506	1.027123
C83	C	-0.173769	-0.597444	0.363037
C84	C	0.326231	-0.097444	0.863037
C85	C	-0.039302	-0.597595	0.228856
C86	C	0.460698	-0.097595	0.728856
C87	C	-0.039496	-0.597587	0.363300
C88	C	0.460504	-0.097587	0.863300
C89	C	-0.039512	-0.731889	0.363237
C90	C	0.460488	-0.231889	0.863237
C91	C	-0.129442	-0.612265	0.348329
C92	C	0.370558	-0.112265	0.848329
C93	C	-0.054138	-0.612351	0.273187
C94	C	0.445862	-0.112351	0.773187
C95	C	-0.054257	-0.687554	0.348440
C96	C	0.445743	-0.187554	0.848440
C97	C	-0.054247	-0.612346	0.348477
C98	C	0.445753	-0.112346	0.848477
C99	C	-0.230191	-0.578579	0.381758
C100	C	0.269809	-0.078579	0.881758
C101	C	-0.020722	-0.578803	0.382168
C102	C	0.479278	-0.078803	0.882168
C103	C	-0.073020	-0.631130	0.329609
C104	C	0.426980	-0.131130	0.829609
C105	C	-0.053713	-0.813916	0.406386
C106	C	0.446287	-0.313916	0.906386
C107	C	-0.036654	-0.865210	0.423504
C108	C	0.463346	-0.365210	0.923504
C109	C	0.046338	-0.865293	0.391984
C110	C	0.546338	-0.365293	0.891984
C111	C	0.029278	-0.813999	0.374865
C112	C	0.529278	-0.313999	0.874865
C113	C	-0.255900	-0.590938	0.432169
C114	C	0.244100	-0.090938	0.932169
C115	C	-0.307191	-0.573786	0.449185
C116	C	0.192809	-0.073786	0.949185
C117	C	-0.307060	-0.531922	0.365377
C118	C	0.192940	-0.031922	0.865377
C119	C	-0.255769	-0.549074	0.348360
C120	C	0.244231	-0.049074	0.848360
C121	C	-0.033081	-0.528377	0.369764
C122	C	0.466919	-0.028377	0.869764
C123	C	-0.016014	-0.511306	0.386922
C124	C	0.483986	-0.011306	0.886922
C125	C	0.025770	-0.595083	0.428877
C126	C	0.525770	-0.095083	0.928877
C127	C	0.008703	-0.612156	0.411725
C128	C	0.508703	-0.112156	0.911725
C129	C	-0.032755	-0.528393	0.146761
C130	C	0.467245	-0.028393	0.646761
C131	C	-0.015585	-0.511324	0.095468
C132	C	0.484415	-0.011324	0.595468
C133	C	0.026262	-0.595106	0.095516
C134	C	0.526262	-0.095106	0.595516
C135	C	0.009094	-0.612174	0.146811
C136	C	0.509094	-0.112174	0.646811
C137	C	-0.020417	-0.578816	0.172432
C138	C	0.479583	-0.078816	0.672432
C139	C	-0.020748	-0.788312	0.382068
C140	C	0.479252	-0.288312	0.882068
N141	N	0.436037	-0.467415	0.493101
N142	N	0.936037	0.032585	0.993101
O143	O	0.592642	-0.471896	0.376066
O144	O	1.092642	0.028104	0.876066
O145	O	0.592838	-0.567146	0.505347
O146	O	1.092838	-0.067146	1.005347
O147	O	0.592754	-0.566928	0.423360
O148	O	1.092754	-0.066928	0.923360
O149	O	0.592727	-0.472113	0.458053
O150	O	1.092727	0.027887	0.958053
O151	O	0.511269	-0.539835	0.450606
O152	O	1.011269	-0.039835	0.950606
O153	O	0.511353	-0.540052	0.532594
O154	O	1.011353	-0.040052	1.032594
O155	O	0.511157	-0.444802	0.403312
O156	O	1.011157	0.055198	0.903312
Cu157	Cu	0.503815	-0.489954	0.470441
Cu158	Cu	1.003815	0.010046	0.970441
Cu159	Cu	0.600180	-0.521995	0.438219
Cu160	Cu	1.100180	-0.021995	0.938219
O161	O	0.511242	-0.445020	0.485300
O162	O	1.011242	0.054980	0.985300
N163	N	0.667959	-0.544533	0.415554
N164	N	1.167959	-0.044533	0.915554
N165	N	0.090544	-0.122107	0.493359
N166	N	0.590544	0.377893	0.993359
O167	O	-0.026406	0.034587	0.488773
O168	O	0.473594	0.534587	0.988773
O169	O	0.102877	0.034627	0.393499
O170	O	0.602877	0.534627	0.893499
O171	O	0.020848	0.034591	0.393771
O172	O	0.520848	0.534591	0.893771
O173	O	0.055623	0.034623	0.488500
O174	O	0.555623	0.534623	0.988500
O175	O	0.048051	-0.046899	0.420925
O176	O	0.548051	0.453101	0.920925
O177	O	0.130080	-0.046864	0.420653
O178	O	0.630080	0.453136	0.920653
O179	O	0.000796	-0.046903	0.515927
O180	O	0.500796	0.453097	1.015927
Cu181	Cu	0.067922	-0.054324	0.470769
Cu182	Cu	0.567922	0.445676	0.970769
Cu183	Cu	0.035752	0.042048	0.438656
Cu184	Cu	0.535752	0.542048	0.938656
O185	O	0.082825	-0.046867	0.515655
O186	O	0.582825	0.453133	1.015655
N187	N	0.013123	0.109830	0.416068
N188	N	0.513123	0.609830	0.916068
N189	N	0.090892	-0.467554	0.838649
N190	N	0.590892	0.032446	1.338649
O191	O	0.086330	-0.584488	0.995334
O192	O	0.586330	-0.084488	1.495334
O193	O	-0.008902	-0.455160	0.995379
O194	O	0.491098	0.044840	1.495379
O195	O	-0.008679	-0.537172	0.995355
O196	O	0.491321	-0.037172	1.495355
O197	O	0.086107	-0.502475	0.995358
O198	O	0.586107	-0.002475	1.495358
O199	O	0.018452	-0.509990	0.913868
O200	O	0.518452	-0.009990	1.413868
O201	O	0.018230	-0.427978	0.913891
O202	O	0.518230	0.072022	1.413891
O203	O	0.113461	-0.557306	0.913847
O204	O	0.613461	-0.057306	1.413847
Cu205	Cu	0.068323	-0.490160	0.906429
Cu206	Cu	0.568323	0.009840	1.406429
Cu207	Cu	0.036237	-0.522306	1.002797
Cu208	Cu	0.536237	-0.022306	1.502797
O209	O	0.113239	-0.475293	0.913870
O210	O	0.613239	0.024707	1.413870
N211	N	0.013667	-0.544916	1.070577
N212	N	0.513667	-0.044916	1.570577
C213	C	0.031339	-0.425179	0.394250
C214	C	0.531339	0.074821	0.894250
C215	C	0.132837	-0.526572	0.394139
C216	C	0.632837	-0.026572	0.894139
C217	C	0.072405	-0.587216	0.515344
C218	C	0.572405	-0.087216	1.015344
C219	C	-0.029093	-0.485823	0.515455
C220	C	0.470907	0.014177	1.015455
C221	C	0.552119	-0.566716	0.535258
C222	C	1.052119	-0.066716	1.035258
C223	C	0.552016	-0.566447	0.433726
C224	C	1.052016	-0.066447	0.933726
C225	C	0.551873	-0.445232	0.373402
C226	C	1.051873	0.054768	0.873402
C227	C	0.551980	-0.445502	0.474933
C228	C	1.051980	0.054498	0.974933
C229	C	0.132731	-0.006013	0.393923
C230	C	0.632731	0.493987	0.893923
C231	C	0.031182	-0.006158	0.394293
C232	C	0.531182	0.493842	0.894293
C233	C	-0.029092	-0.006163	0.515469
C234	C	0.470908	0.493837	1.015469
C235	C	0.072491	-0.006119	0.515133
C236	C	0.572491	0.493881	1.015133
C237	C	-0.008451	-0.425276	0.954641
C238	C	0.491549	0.074724	1.454641
C239	C	-0.008170	-0.526833	0.954596
C240	C	0.491830	-0.026833	1.454596
C241	C	0.113010	-0.587190	0.954585
C242	C	0.613010	-0.087190	1.454585
C243	C	0.112735	-0.485627	0.954611
C244	C	0.612735	0.014373	1.454611
H245	H	0.047163	-0.397193	0.741627
H246	H	0.547163	0.102807	1.241627
C247	C	0.021591	-0.375632	0.354433
C248	C	0.521591	0.124368	0.854433
C249	C	0.063415	-0.375551	0.312494
C250	C	0.563415	0.124449	0.812494
C251	C	0.054456	-0.329915	0.275807
C252	C	0.554456	0.170085	0.775807
H253	H	-0.005113	-0.369645	0.346743
H254	H	0.494887	0.130355	0.846743
H255	H	0.013856	-0.350714	0.365683
H256	H	0.513856	0.149286	0.865683
H257	H	0.071144	-0.400461	0.301246
H258	H	0.571144	0.099539	0.801246
H259	H	0.090124	-0.381529	0.320168
H260	H	0.590124	0.118471	0.820168
H261	H	0.046721	-0.304998	0.287058
H262	H	0.546721	0.195002	0.787058
H263	H	0.027751	-0.323933	0.268122
H264	H	0.527751	0.176067	0.768122
H265	H	0.082833	-0.329853	0.247350
H266	H	0.582833	0.170147	0.747350
C267	C	0.081634	-0.226101	0.615390
C268	C	0.581634	0.273899	1.115390
C269	C	0.052170	-0.192673	0.640936
C270	C	0.552170	0.307327	1.140936
C271	C	0.039785	-0.218236	0.691388
C272	C	0.539785	0.281764	1.191388
H273	H	0.064213	-0.246121	0.623877
H274	H	0.564213	0.253879	1.123877
H275	H	0.110645	-0.246094	0.623799
H276	H	0.610645	0.253906	1.123799
H277	H	0.023164	-0.172689	0.632530
H278	H	0.523164	0.327311	1.132530
H279	H	0.069581	-0.172652	0.632464
H280	H	0.569581	0.327348	1.132464
H281	H	0.068796	-0.238229	0.699797
H282	H	0.568796	0.261771	1.199797
H283	H	0.022366	-0.238255	0.699870
H284	H	0.522366	0.261745	1.199870
H285	H	0.019796	-0.195559	0.708727
H286	H	0.519796	0.304441	1.208727
C287	C	0.212862	-0.476571	0.734498
C288	C	0.712862	0.023429	1.234498
C289	C	0.225107	-0.502214	0.705059
C290	C	0.725107	-0.002214	1.205059
C291	C	0.275525	-0.514665	0.679352
C292	C	0.775525	-0.014665	1.179352
H293	H	0.221311	-0.447598	0.714447
H294	H	0.721311	0.052402	1.214447
H295	H	0.230309	-0.496605	0.757084
H296	H	0.730309	0.003395	1.257084
H297	H	0.207665	-0.482181	0.682476
H298	H	0.707665	0.017819	1.182476
H299	H	0.216670	-0.531192	0.725098
H300	H	0.716670	-0.031192	1.225098
H301	H	0.292972	-0.534699	0.701938
H302	H	0.792972	-0.034699	1.201938
H303	H	0.283970	-0.485689	0.659304
H304	H	0.783970	0.014311	1.159304
H305	H	0.283841	-0.532069	0.659378
H306	H	0.783841	-0.032069	1.159378
C307	C	-0.078557	-0.006200	0.555423
C308	C	0.421443	0.493800	1.055423
C309	C	-0.078463	-0.006204	0.597266
C310	C	0.421537	0.493796	1.097266
C311	C	-0.124019	-0.006246	0.634084
C312	C	0.375981	0.493754	1.134084
H313	H	-0.103542	0.022202	0.544270
H314	H	0.396458	0.522202	1.044270
H315	H	-0.084534	-0.034637	0.563173
H316	H	0.415466	0.465363	1.063173
H317	H	-0.072491	0.022229	0.589516
H318	H	0.427509	0.522229	1.089516
H319	H	-0.053487	-0.034605	0.608434
H320	H	0.446513	0.465395	1.108434
H321	H	-0.129996	-0.034682	0.641834
H322	H	0.370004	0.465318	1.141834
H323	H	-0.149000	0.022157	0.622925
H324	H	0.351000	0.522157	1.122925
H325	H	-0.123960	-0.006253	0.662480
H326	H	0.376040	0.493747	1.162480
C327	C	0.082524	-0.006144	0.554768
C328	C	0.582524	0.493856	1.054768
C329	C	0.130362	-0.006143	0.536983
C330	C	0.630362	0.493857	1.036983
C331	C	0.139624	-0.006175	0.573484
C332	C	0.639624	0.493825	1.073484
H333	H	0.059967	0.022260	0.563728
H334	H	0.559967	0.522260	1.063728
H335	H	0.078922	-0.034579	0.582631
H336	H	0.578922	0.465421	1.082631
H337	H	0.133960	0.022290	0.509128
H338	H	0.633960	0.522290	1.009128
H339	H	0.152928	-0.034544	0.528026
H340	H	0.652928	0.465456	1.028026
H341	H	0.136022	-0.034611	0.601348
H342	H	0.636022	0.465389	1.101348
H343	H	0.117065	0.022229	0.582442
H344	H	0.617065	0.522229	1.082442
H345	H	0.172084	-0.006179	0.561424
H346	H	0.672084	0.493821	1.061424
C347	C	0.552093	-0.606577	0.584789
C348	C	1.052093	-0.106577	1.084789
C349	C	0.510191	-0.619639	0.606322
C350	C	1.010191	-0.119639	1.106322
C351	C	0.510148	-0.656354	0.651952
C352	C	1.010148	-0.156354	1.151952
H353	H	0.580493	-0.634444	0.580531
H354	H	1.080493	-0.134444	1.080531
H355	H	0.552080	-0.594750	0.605398
H356	H	1.052080	-0.094750	1.105398
H357	H	0.510209	-0.631467	0.585718
H358	H	1.010209	-0.131467	1.085718
H359	H	0.481784	-0.591784	0.610593
H360	H	0.981784	-0.091784	1.110593
H361	H	0.510135	-0.644527	0.672561
H362	H	1.010135	-0.144527	1.172561
H363	H	0.538550	-0.684217	0.647689
H364	H	1.038550	-0.184217	1.147689
H365	H	0.481716	-0.665217	0.666570
H366	H	0.981716	-0.165217	1.166570
H367	H	-0.038348	-0.388133	0.954654
H368	H	0.461652	0.111867	1.454654
H369	H	0.169783	-0.005775	0.363939
H370	H	0.669783	0.494225	0.863939
H371	H	0.142514	-0.478200	0.954606
H372	H	0.642514	0.021800	1.454606
H373	H	0.551811	-0.415327	0.336274
H374	H	1.051811	0.084673	0.836274
H375	H	-0.037935	-0.534246	0.954563
H376	H	0.462065	-0.034246	1.454563
H377	H	-0.066242	-0.478508	0.545321
H378	H	0.433758	0.021492	1.045321
C379	C	0.152861	-0.636710	0.954489
C380	C	0.652861	-0.136710	1.454489
C381	C	0.164107	-0.645396	0.912564
C382	C	0.664107	-0.145396	1.412564
C383	C	0.200811	-0.691011	0.912462
C384	C	0.700811	-0.191011	1.412462
H385	H	0.181341	-0.636811	0.954461
H386	H	0.681341	-0.136811	1.454461
H387	H	0.141645	-0.661662	0.982886
H388	H	0.641645	-0.161662	1.482886
H389	H	0.175325	-0.620451	0.884175
H390	H	0.675325	-0.120451	1.384175
H391	H	0.135638	-0.645305	0.912583
H392	H	0.635638	-0.145305	1.412583
H393	H	0.189595	-0.715964	0.940858
H394	H	0.689595	-0.215964	1.440858
H395	H	0.229288	-0.691109	0.912435
H396	H	0.729288	-0.191109	1.412435
H397	H	0.208443	-0.696913	0.884019
H398	H	0.708443	-0.196913	1.384019
C399	C	0.002529	-0.424806	0.841557
C400	C	0.502529	0.075194	1.341557
C401	C	-0.023040	-0.395305	0.808146
C402	C	0.476960	0.104695	1.308146
C403	C	-0.073486	-0.382841	0.833728
C404	C	0.426514	0.117159	1.333728
H405	H	-0.005933	-0.453774	0.861570
H406	H	0.494067	0.046226	1.361570
H407	H	-0.005886	-0.407384	0.861558
H408	H	0.494114	0.092616	1.361558
H409	H	-0.014629	-0.412727	0.788155
H410	H	0.485371	0.087273	1.288155
H411	H	-0.014594	-0.366331	0.788133
H412	H	0.485406	0.133669	1.288133
H413	H	-0.081900	-0.365419	0.853728
H414	H	0.418100	0.134581	1.353728
H415	H	-0.081942	-0.411812	0.853739
H416	H	0.418058	0.088188	1.353739
H417	H	-0.090841	-0.362820	0.811062
H418	H	0.409159	0.137180	1.311062
H419	H	0.079796	-0.624394	0.545162
H420	H	0.579796	-0.124394	1.045162
C421	C	0.182407	-0.536409	0.354383
C422	C	0.682407	-0.036409	0.854383
C423	C	0.212618	-0.584219	0.372009
C424	C	0.712618	-0.084219	0.872009
C425	C	0.258288	-0.593295	0.335401
C426	C	0.758288	-0.093295	0.835401
H427	H	0.178187	-0.532764	0.326528
H428	H	0.678187	-0.032764	0.826528
H429	H	0.197119	-0.513782	0.345454
H430	H	0.697119	-0.013782	0.845454
H431	H	0.197910	-0.606839	0.380931
H432	H	0.697910	-0.106839	0.880931
H433	H	0.216852	-0.587875	0.399859
H434	H	0.716852	-0.087875	0.899859
H435	H	0.272999	-0.570669	0.326473
H436	H	0.772999	-0.070669	0.826473
H437	H	0.254063	-0.589648	0.307548
H438	H	0.754063	-0.089648	0.807548
H439	H	0.278793	-0.625733	0.347357
H440	H	0.778793	-0.125733	0.847357
H441	H	0.168250	-0.504186	0.834549
H442	H	0.668250	-0.004186	1.334549
C443	C	0.551930	-0.606113	0.423839
C444	C	1.051930	-0.106113	0.923839
C445	C	0.509973	-0.589344	0.412451
C446	C	1.009973	-0.089344	0.912451
C447	C	0.509873	-0.625873	0.403346
C448	C	1.009873	-0.125873	0.903346
H449	H	0.580293	-0.613740	0.397082
H450	H	1.080293	-0.113740	0.897082
H451	H	0.551950	-0.634641	0.452151
H452	H	1.051950	-0.134641	0.952151
H453	H	0.509957	-0.560825	0.384142
H454	H	1.009957	-0.060825	0.884142
H455	H	0.481603	-0.581721	0.439201
H456	H	0.981603	-0.081721	0.939201
H457	H	0.509893	-0.654401	0.431659
H458	H	1.009893	-0.154401	0.931659
H459	H	0.538238	-0.633498	0.376590
H460	H	1.038238	-0.133498	0.876590
H461	H	0.481404	-0.614502	0.395623
H462	H	0.981404	-0.114502	0.895623
C463	C	0.037883	-0.389149	0.571716
C464	C	0.537883	0.110851	1.071716
C465	C	-0.009945	-0.381959	0.578928
C466	C	0.490055	0.118041	1.078928
C467	C	-0.043353	-0.352459	0.608405
C468	C	0.456647	0.147541	1.108405
H469	H	0.042774	-0.404775	0.602476
H470	H	0.542774	0.095225	1.102476
H471	H	0.042768	-0.358384	0.556054
H472	H	0.542768	0.141616	1.056054
H473	H	-0.014828	-0.412719	0.594591
H474	H	0.485172	0.087281	1.094591
H475	H	-0.014851	-0.366327	0.548178
H476	H	0.485149	0.133673	1.048178
H477	H	-0.038467	-0.321693	0.592743
H478	H	0.461533	0.178307	1.092743
H479	H	-0.038457	-0.368088	0.639162
H480	H	0.461543	0.131912	1.139162
H481	H	-0.075807	-0.347572	0.613298
H482	H	0.424193	0.152428	1.113298
H483	H	0.023733	-0.006162	0.364531
H484	H	0.523733	0.493838	0.864531
C485	C	0.002274	-0.424768	0.536020
C486	C	0.502274	0.075232	1.036020
C487	C	-0.010037	-0.399108	0.493220
C488	C	0.489963	0.100892	0.993220
C489	C	-0.060468	-0.386657	0.505540
C490	C	0.439532	0.113343	1.005540
H491	H	-0.006176	-0.453742	0.553403
H492	H	0.493824	0.046258	1.053403
H493	H	-0.015135	-0.404745	0.556024
H494	H	0.484865	0.095255	1.056024
H495	H	0.007366	-0.419131	0.473224
H496	H	0.507366	0.080869	0.973224
H497	H	-0.001600	-0.370130	0.475831
H498	H	0.498400	0.129870	0.975831
H499	H	-0.077877	-0.366633	0.525544
H500	H	0.422123	0.133367	1.025544
H501	H	-0.068913	-0.415632	0.522924
H502	H	0.431087	0.084368	1.022924
H503	H	-0.068828	-0.369241	0.476503
H504	H	0.431172	0.130759	0.976503
C505	C	0.177025	-0.512101	0.448645
C506	C	0.677025	-0.012101	0.948645
C507	C	0.224852	-0.519269	0.441411
C508	C	0.724852	-0.019269	0.941411
C509	C	0.258260	-0.548719	0.411884
C510	C	0.758260	-0.048719	0.911884
H511	H	0.172177	-0.542876	0.464265
H512	H	0.672177	-0.042876	0.964265
H513	H	0.172096	-0.496433	0.417895
H514	H	0.672096	0.003567	0.917895
H515	H	0.229779	-0.534937	0.472155
H516	H	0.729779	-0.034937	0.972155
H517	H	0.229715	-0.488503	0.425784
H518	H	0.729715	0.011497	0.925784
H519	H	0.253331	-0.533052	0.381134
H520	H	0.753331	-0.033052	0.881134
H521	H	0.253408	-0.579492	0.427508
H522	H	0.753408	-0.079492	0.927508
H523	H	0.290714	-0.553583	0.406968
H524	H	0.790714	-0.053583	0.906968
H525	H	0.551974	-0.415718	0.482355
H526	H	1.051974	0.084282	0.982355
H527	H	0.338981	-0.510371	0.554246
H528	H	0.838981	-0.010371	1.054246
C529	C	0.212631	-0.476353	0.484216
C530	C	0.712631	0.023647	0.984216
C531	C	0.224863	-0.433516	0.458568
C532	C	0.724863	0.066484	0.958568
C533	C	0.275292	-0.445779	0.446066
C534	C	0.775292	0.054221	0.946066
H535	H	0.221128	-0.493741	0.513168
H536	H	0.721128	0.006259	1.013168
H537	H	0.230045	-0.496336	0.464172
H538	H	0.730045	0.003664	0.964172
H539	H	0.207455	-0.413541	0.478611
H540	H	0.707455	0.086459	0.978611
H541	H	0.216377	-0.416123	0.429611
H542	H	0.716377	0.083877	0.929611
H543	H	0.292706	-0.465762	0.426022
H544	H	0.792706	0.034238	0.926022
H545	H	0.283785	-0.463167	0.475020
H546	H	0.783785	0.036833	0.975020
H547	H	0.283598	-0.416717	0.428659
H548	H	0.783598	0.083283	0.928659
C549	C	0.438907	-0.554970	0.525205
C550	C	0.938907	-0.054970	1.025205
C551	C	0.405485	-0.580177	0.550241
C552	C	0.905485	-0.080177	1.050241
C553	C	0.431052	-0.630246	0.557578
C554	C	0.931052	-0.130246	1.057578
H555	H	0.458896	-0.559788	0.494413
H556	H	0.958896	-0.059788	0.994413
H557	H	0.458928	-0.567021	0.544002
H558	H	0.958928	-0.067021	1.044002
H559	H	0.385472	-0.568130	0.531445
H560	H	0.885472	-0.068130	1.031445
H561	H	0.385495	-0.575374	0.581038
H562	H	0.885495	-0.075374	1.081038
H563	H	0.451073	-0.642297	0.576375
H564	H	0.951073	-0.142297	1.076375
H565	H	0.451040	-0.635058	0.526784
H566	H	0.951040	-0.135058	1.026784
H567	H	0.408379	-0.647355	0.574569
H568	H	0.908379	-0.147355	1.074569
H569	H	0.338923	-0.359792	0.496821
H570	H	0.838923	0.140208	0.996821
C571	C	0.438908	-0.381810	0.459038
C572	C	0.938908	0.118190	0.959038
C573	C	0.426398	-0.347261	0.417065
C574	C	0.926398	0.152739	0.917065
C575	C	0.452005	-0.314266	0.392572
C576	C	0.952005	0.185734	0.892572
H577	H	0.430542	-0.365543	0.480081
H578	H	0.930542	0.134457	0.980081
H579	H	0.473134	-0.399132	0.449843
H580	H	0.973134	0.100868	0.949843
H581	H	0.392179	-0.329941	0.426261
H582	H	0.892179	0.170059	0.926261
H583	H	0.434765	-0.363514	0.396011
H584	H	0.934765	0.136486	0.896011
H585	H	0.486231	-0.331588	0.383378
H586	H	0.986231	0.168412	0.883378
H587	H	0.443637	-0.298002	0.413619
H588	H	0.943637	0.201998	0.913619
H589	H	0.443524	-0.290823	0.364089
H590	H	0.943524	0.209177	0.864089
C591	C	0.168795	-0.226106	0.440626
C592	C	0.668795	0.273894	0.940626
C593	C	0.142997	-0.213642	0.411240
C594	C	0.642997	0.286358	0.911240
C595	C	0.172373	-0.239250	0.377866
C596	C	0.672373	0.260750	0.877866
H597	H	0.197793	-0.217707	0.420548
H598	H	0.697793	0.282293	0.920548
H599	H	0.177218	-0.260335	0.458001
H600	H	0.677218	0.239665	0.958001
H601	H	0.134581	-0.179421	0.393867
H602	H	0.634581	0.320579	0.893867
H603	H	0.114001	-0.222042	0.431305
H604	H	0.614001	0.277958	0.931305
H605	H	0.180795	-0.273479	0.395241
H606	H	0.680795	0.226521	0.895241
H607	H	0.201369	-0.230849	0.357792
H608	H	0.701369	0.269151	0.857792
H609	H	0.154871	-0.230800	0.357927
H610	H	0.654871	0.269200	0.857927
C611	C	-0.029066	-0.456557	0.067690
C612	C	0.470934	0.043443	0.567690
C613	C	-0.058597	-0.431002	0.101110
C614	C	0.441403	0.068998	0.601110
C615	C	-0.071029	-0.380550	0.075539
C616	C	0.428971	0.119450	0.575539
H617	H	-0.000089	-0.448110	0.047723
H618	H	0.499911	0.051890	0.547723
H619	H	-0.046454	-0.448114	0.047645
H620	H	0.453546	0.051886	0.547645
H621	H	-0.041210	-0.439442	0.121146
H622	H	0.458790	0.060558	0.621146
H623	H	-0.087581	-0.439434	0.121077
H624	H	0.412419	0.060566	0.621077
H625	H	-0.088417	-0.372107	0.055494
H626	H	0.411583	0.127893	0.555494
H627	H	-0.042049	-0.372108	0.055573
H628	H	0.457951	0.127892	0.555573
H629	H	-0.091071	-0.363205	0.098210
H630	H	0.408929	0.136795	0.598210
H631	H	0.129813	-0.126117	0.418717
H632	H	0.629813	0.373883	0.918717
C633	C	-0.064822	-0.492251	0.174664
C634	C	0.435178	0.007749	0.674664
C635	C	-0.077228	-0.517988	0.225079
C636	C	0.422772	-0.017988	0.725079
C637	C	-0.106770	-0.484712	0.250799
C638	C	0.393230	0.015288	0.750799
H639	H	-0.047458	-0.472251	0.166352
H640	H	0.452542	0.027749	0.666352
H641	H	-0.093817	-0.472224	0.166230
H642	H	0.406183	0.027776	0.666230
H643	H	-0.048238	-0.538007	0.233509
H644	H	0.451762	-0.038007	0.733509
H645	H	-0.094598	-0.537987	0.233406
H646	H	0.405402	-0.037987	0.733406
H647	H	-0.135765	-0.464685	0.242365
H648	H	0.364235	0.035315	0.742365
H649	H	-0.089403	-0.464713	0.242483
H650	H	0.410597	0.035287	0.742483
H651	H	-0.115195	-0.502170	0.285007
H652	H	0.384805	-0.002170	0.785007
C653	C	0.058306	-0.631401	0.067788
C654	C	0.558306	-0.131401	0.567788
C655	C	0.065444	-0.679214	0.101247
C656	C	0.565444	-0.179214	0.601247
C657	C	0.094968	-0.712661	0.075722
C658	C	0.594968	-0.212661	0.575722
H659	H	0.042720	-0.626521	0.047732
H660	H	0.542720	-0.126521	0.547732
H661	H	0.089084	-0.626541	0.047836
H662	H	0.589084	-0.126541	0.547836
H663	H	0.034672	-0.684073	0.121191
H664	H	0.534672	-0.184073	0.621191
H665	H	0.081036	-0.684110	0.121304
H666	H	0.581036	-0.184110	0.621304
H667	H	0.125746	-0.707800	0.055770
H668	H	0.625746	-0.207800	0.555770
H669	H	0.079378	-0.707776	0.055667
H670	H	0.579378	-0.207776	0.555667
H671	H	0.099818	-0.745105	0.098420
H672	H	0.599818	-0.245105	0.598420
C673	C	-0.334770	-0.499959	0.329062
C674	C	0.165230	0.000041	0.829062
C675	C	-0.322252	-0.525725	0.299624
C676	C	0.177748	-0.025725	0.799624
C677	C	-0.347761	-0.496293	0.266160
C678	C	0.152239	0.003707	0.766160
H679	H	-0.369007	-0.491498	0.346352
H680	H	0.130993	0.008502	0.846352
H681	H	-0.326320	-0.470979	0.309033
H682	H	0.173680	0.029021	0.809033
H683	H	-0.330705	-0.554696	0.319650
H684	H	0.169295	-0.054696	0.819650
H685	H	-0.288019	-0.534186	0.282323
H686	H	0.211981	-0.034186	0.782323
H687	H	-0.339311	-0.467313	0.246131
H688	H	0.160689	0.032687	0.746131
H689	H	-0.381996	-0.487833	0.283454
H690	H	0.118004	0.012167	0.783454
H691	H	-0.339267	-0.513769	0.246179
H692	H	0.160733	-0.013769	0.746179
H693	H	0.053957	-0.126168	0.570702
H694	H	0.553957	0.373832	1.070702
H695	H	-0.057039	-0.501216	0.345698
H696	H	0.442961	-0.001216	0.845698
C697	C	0.022456	-0.666904	0.174769
C698	C	0.522456	-0.166904	0.674769
C699	C	0.001116	-0.674716	0.225173
C700	C	0.501116	-0.174716	0.725173
C701	C	0.013418	-0.725125	0.250943
C702	C	0.513418	-0.225125	0.750943
H703	H	0.010677	-0.681346	0.166386
H704	H	0.510677	-0.181346	0.666386
H705	H	0.057059	-0.681359	0.166448
H706	H	0.557059	-0.181359	0.666448
H707	H	-0.033481	-0.660267	0.233492
H708	H	0.466519	-0.160267	0.733492
H709	H	0.012891	-0.660286	0.233572
H710	H	0.512891	-0.160286	0.733572
H711	H	0.048021	-0.739580	0.242621
H712	H	0.548021	-0.239580	0.742621
H713	H	0.001639	-0.739563	0.242555
H714	H	0.501639	-0.239563	0.742555
H715	H	-0.001055	-0.730432	0.285144
H716	H	0.498945	-0.230432	0.785144
C717	C	-0.029348	-0.456553	0.373353
C718	C	0.470652	0.043447	0.873353
C719	C	-0.011814	-0.435486	0.322334
C720	C	0.488186	0.064514	0.822334
C721	C	-0.024075	-0.385051	0.309814
C722	C	0.475925	0.114949	0.809814
H723	H	-0.063947	-0.442037	0.385040
H724	H	0.436053	0.057963	0.885040
H725	H	-0.014952	-0.451150	0.387776
H726	H	0.485048	0.048850	0.887776
H727	H	-0.026212	-0.440886	0.307916
H728	H	0.473788	0.059114	0.807916
H729	H	0.022784	-0.449988	0.310635
H730	H	0.522784	0.050012	0.810635
H731	H	-0.009679	-0.379647	0.324237
H732	H	0.490321	0.120353	0.824237
H733	H	-0.058674	-0.370540	0.321504
H734	H	0.441326	0.129460	0.821504
H735	H	-0.012177	-0.370751	0.275197
H736	H	0.487823	0.129249	0.775197
C737	C	0.057782	-0.631353	0.460897
C738	C	0.557782	-0.131353	0.960897
C739	C	0.100494	-0.660822	0.435192
C740	C	0.600494	-0.160822	0.935192
C741	C	0.129990	-0.694241	0.464676
C742	C	0.629990	-0.194241	0.964676
H743	H	0.066232	-0.614027	0.469353
H744	H	0.566232	-0.114027	0.969353
H745	H	0.040366	-0.651367	0.489878
H746	H	0.540366	-0.151367	0.989878
H747	H	0.117906	-0.640811	0.406221
H748	H	0.617906	-0.140811	0.906221
H749	H	0.092058	-0.678160	0.426737
H750	H	0.592058	-0.178160	0.926737
H751	H	0.112575	-0.714255	0.493656
H752	H	0.612575	-0.214255	0.993656
H753	H	0.138437	-0.676910	0.473130
H754	H	0.638437	-0.176910	0.973130
H755	H	0.158971	-0.714243	0.447241
H756	H	0.658971	-0.214243	0.947241
C757	C	0.022025	-0.666899	0.425250
C758	C	0.522025	-0.166899	0.925250
C759	C	-0.020814	-0.679116	0.450825
C760	C	0.479186	-0.179116	0.950825
C761	C	-0.008558	-0.729541	0.463294
C762	C	0.491442	-0.229541	0.963294
H763	H	0.039443	-0.675379	0.396288
H764	H	0.539443	-0.175379	0.896288
H765	H	0.041976	-0.684339	0.445331
H766	H	0.541976	-0.184339	0.945331
H767	H	-0.040757	-0.661683	0.430745
H768	H	0.459243	-0.161683	0.930745
H769	H	-0.038237	-0.670648	0.479793
H770	H	0.461763	-0.170648	0.979793
H771	H	0.011393	-0.746980	0.483376
H772	H	0.511393	-0.246980	0.983376
H773	H	0.008860	-0.738016	0.434330
H774	H	0.508860	-0.238016	0.934330
H775	H	-0.037622	-0.737837	0.480652
H776	H	0.462378	-0.237837	0.980652
C777	C	0.065145	-0.786292	0.348497
C778	C	0.565145	-0.286292	0.848497
C779	C	0.112603	-0.819771	0.345869
C780	C	0.612603	-0.319771	0.845869
C781	C	0.145657	-0.794265	0.321589
C782	C	0.645657	-0.294265	0.821589
H783	H	0.063948	-0.766286	0.316327
H784	H	0.563948	-0.266286	0.816327
H785	H	0.056573	-0.766291	0.365986
H786	H	0.556573	-0.266291	0.865986
H787	H	0.121172	-0.839764	0.328379
H788	H	0.621172	-0.339764	0.828379
H789	H	0.113815	-0.839778	0.378032
H790	H	0.613815	-0.339778	0.878032
H791	H	0.137086	-0.774264	0.339079
H792	H	0.637086	-0.274264	0.839079
H793	H	0.144457	-0.774260	0.289421
H794	H	0.644457	-0.274260	0.789421
H795	H	0.177861	-0.816977	0.319807
H796	H	0.677861	-0.316977	0.819807
H797	H	0.087072	-0.886205	0.386121
H798	H	0.587072	-0.386205	0.886121
H799	H	-0.094449	-0.793002	0.412253
H800	H	0.405551	-0.293002	0.912253
C801	C	-0.072524	-0.892924	0.449918
C802	C	0.427476	-0.392924	0.949918
C803	C	-0.119989	-0.859451	0.452573
C804	C	0.380011	-0.359451	0.952573
C805	C	-0.153045	-0.884964	0.476910
C806	C	0.346955	-0.384964	0.976910
H807	H	-0.063991	-0.912940	0.432466
H808	H	0.436009	-0.412940	0.932466
H809	H	-0.071289	-0.912917	0.482083
H810	H	0.428711	-0.412917	0.982083
H811	H	-0.121223	-0.839467	0.420413
H812	H	0.378777	-0.339467	0.920413
H813	H	-0.128538	-0.839434	0.470028
H814	H	0.371462	-0.339434	0.970028
H815	H	-0.151811	-0.904956	0.509076
H816	H	0.348189	-0.404956	1.009076
H817	H	-0.144508	-0.904979	0.459456
H818	H	0.355492	-0.404979	0.959456
H819	H	-0.185255	-0.862256	0.478719
H820	H	0.314745	-0.362256	0.978719
H821	H	-0.235077	-0.614964	0.459366
H822	H	0.264923	-0.114964	0.959366
H823	H	-0.328125	-0.583847	0.490235
H824	H	0.171875	-0.083847	0.990235
C825	C	-0.227796	-0.535757	0.293641
C826	C	0.272204	-0.035757	0.793641
C827	C	-0.198343	-0.578598	0.281405
C828	C	0.301657	-0.078598	0.781405
C829	C	-0.172562	-0.566348	0.231001
C830	C	0.327438	-0.066348	0.731001
H831	H	-0.250322	-0.515747	0.276133
H832	H	0.249678	-0.015747	0.776133
H833	H	-0.207752	-0.518402	0.285258
H834	H	0.292248	-0.018402	0.785258
H835	H	-0.218385	-0.595945	0.289783
H836	H	0.281615	-0.095945	0.789783
H837	H	-0.175808	-0.598613	0.298900
H838	H	0.324192	-0.098613	0.798900
H839	H	-0.152518	-0.548993	0.222619
H840	H	0.347482	-0.048993	0.722619
H841	H	-0.195091	-0.546337	0.213498
H842	H	0.304909	-0.046337	0.713498
H843	H	-0.152572	-0.595413	0.222694
H844	H	0.347428	-0.095413	0.722694
