data_functionalizedCrystal
_audit_creation_method	'MofGen! by Chris Wilmer'
_symmetry_space_group_name_H-M	'P1'
_symmetry_Int_Tables_number	1
_symmetry_cell_setting	triclinic
loop_
_symmetry_equiv_pos_as_xyz
  x,y,z
_cell_length_a	16.109302
_cell_length_b	19.188929
_cell_length_c	18.266242
_cell_angle_alpha	90.026281
_cell_angle_beta	89.992432
_cell_angle_gamma	96.696719
loop_
_atom_site_label
_atom_site_type_symbol
_atom_site_fract_x
_atom_site_fract_y
_atom_site_fract_z
O1	O	1.102836	-0.089747	-0.060950
O2	O	0.860737	-0.100915	-0.060948
O3	O	0.988773	0.006308	-0.060904
O4	O	0.974800	-0.196970	-0.060994
O5	O	0.988759	0.006311	0.060858
O6	O	0.860723	-0.100912	0.060814
O7	O	1.102822	-0.089744	0.060812
Zn8	Zn	0.981770	-0.095328	0.080145
Zn9	Zn	0.981788	-0.095331	-0.080281
O10	O	0.974786	-0.196968	0.060768
C11	C	0.829756	-0.100461	-0.000066
C12	C	0.737466	-0.099105	-0.000064
C13	C	0.525127	-0.095966	0.066303
C14	C	0.438412	-0.094684	0.066301
C15	C	0.438437	-0.094691	-0.066451
C16	C	0.525152	-0.095968	-0.066448
C17	C	0.568495	-0.096609	-0.000069
C18	C	0.395064	-0.094050	-0.000074
C19	C	0.301043	-0.092660	-0.000076
C20	C	0.662522	-0.097998	-0.000066
C21	C	0.975245	-0.222981	-0.000125
C22	C	0.976604	-0.300489	-0.000160
C23	C	0.901476	-0.345237	-0.000145
C24	C	0.902752	-0.418064	-0.000128
C25	C	0.979160	-0.446139	-0.000112
C26	C	1.054297	-0.401381	-0.000131
C27	C	1.053019	-0.328556	-0.000155
N28	N	1.037559	-0.554243	0.041372
N29	N	1.038768	-0.623425	0.041396
C30	C	0.983016	-0.665557	-0.000042
N31	N	0.925996	-0.635895	-0.041496
N32	N	0.924784	-0.566708	-0.041517
C33	C	0.980555	-0.525105	-0.000087
C34	C	0.909267	-0.789272	-0.000010
C35	C	0.910546	-0.862100	0.000002
C36	C	1.062093	-0.845416	0.000007
C37	C	1.060812	-0.772590	-0.000013
C38	C	0.984397	-0.744523	-0.000017
C39	C	1.133802	-0.090198	-0.000071
C40	C	1.226093	-0.091555	-0.000079
C41	C	0.988313	0.032322	-0.000013
C42	C	0.986955	0.109830	0.000017
N43	N	0.981764	-0.095325	0.189632
N44	N	0.981801	-0.095328	-0.189768
C45	C	1.038497	-0.047863	0.771929
C46	C	1.038498	-0.047865	0.695284
C47	C	0.981789	-0.095325	0.656945
C48	C	0.925089	-0.142799	0.695257
C49	C	0.925095	-0.142801	0.771900
N50	N	0.908184	-0.104201	0.536616
N51	N	0.908181	-0.104195	0.463808
C52	C	0.981769	-0.095323	0.426022
N53	N	1.055362	-0.086444	0.463795
N54	N	1.055364	-0.086447	0.536610
C55	C	0.981777	-0.095329	0.573838
C56	C	1.038470	-0.047857	0.304613
C57	C	1.038472	-0.047864	0.227966
C58	C	0.925056	-0.142795	0.227940
C59	C	0.925061	-0.142792	0.304585
C60	C	0.981767	-0.095319	0.342917
H61	H	0.560463	-0.096489	-0.120499
O62	O	0.870093	-0.188963	0.341830
C63	C	0.852049	-0.284283	0.428354
C64	C	0.914393	-0.232042	0.386207
H65	H	0.887841	-0.319117	0.464255
H66	H	0.811526	-0.318257	0.387823
H67	H	0.810618	-0.254112	0.464226
H68	H	0.955879	-0.262156	0.350335
H69	H	0.954858	-0.198069	0.426778
H70	H	1.121989	-0.736154	-0.000020
O71	O	1.136266	-0.872761	-0.000077
C72	C	1.225689	-0.945307	-0.063158
C73	C	1.141649	-0.914396	-0.063141
H74	H	1.230077	-0.978963	-0.114147
H75	H	1.230086	-0.978995	-0.012226
H76	H	1.279152	-0.900798	-0.063134
H77	H	1.088138	-0.958860	-0.063191
H78	H	1.137325	-0.880688	-0.114069
H79	H	1.084646	-0.009204	0.335824
H80	H	0.839253	-0.322390	-0.000155
O81	O	0.567249	-0.096707	0.130762
C82	C	0.655537	-0.158569	0.207772
C83	C	0.607860	-0.157830	0.134752
H84	H	0.688398	-0.207975	0.211015
H85	H	0.609672	-0.157933	0.255237
H86	H	0.703888	-0.110310	0.211099
H87	H	0.559509	-0.206080	0.131353
H88	H	0.653775	-0.158431	0.087321
H89	H	1.114199	-0.292121	-0.000168
H90	H	0.841573	-0.454505	-0.000114
H91	H	1.084672	-0.009210	0.803137
H92	H	1.084668	-0.009211	0.664093
O93	O	0.869934	-0.188934	0.808997
C94	C	0.757476	-0.283120	0.800883
C95	C	0.819890	-0.230903	0.758778
H96	H	0.717011	-0.317075	0.760299
H97	H	0.715999	-0.253000	0.836765
H98	H	0.793260	-0.317975	0.836765
H99	H	0.784174	-0.196035	0.722856
H100	H	0.861367	-0.261067	0.722942
O101	O	1.093582	-0.001686	0.190870
C102	C	1.206096	0.092452	0.198988
C103	C	1.143717	0.040204	0.241091
H104	H	1.246658	0.126323	0.239573
H105	H	1.170368	0.127385	0.163147
H106	H	1.247483	0.062287	0.163066
H107	H	1.102314	0.070312	0.277054
H108	H	1.179497	0.005272	0.276886
O109	O	0.835062	-0.761971	0.000106
C110	C	0.745675	-0.689357	0.063137
C111	C	0.829733	-0.720239	0.063106
H112	H	0.741348	-0.655598	0.114059
H113	H	0.692165	-0.733827	0.063190
H114	H	0.741308	-0.655743	0.012147
H115	H	0.834182	-0.753845	0.114087
H116	H	0.883204	-0.675736	0.063015
O117	O	0.837487	-0.905472	0.000049
C118	C	0.687041	-0.914331	0.000014
C119	C	0.769719	-0.865133	-0.000022
H120	H	0.632230	-0.881737	-0.000059
H121	H	0.683793	-0.948796	0.050993
H122	H	0.683897	-0.948892	-0.050922
H123	H	0.772918	-0.830528	0.050879
H124	H	0.772933	-0.830716	-0.051035
H125	H	0.878886	-0.181441	0.196725
H126	H	0.403106	-0.094161	0.120348
H127	H	0.403137	-0.094169	-0.120494
O128	O	1.128467	-0.428733	-0.000212
C129	C	1.217885	-0.501288	-0.063286
C130	C	1.133848	-0.470373	-0.063272
H131	H	1.222271	-0.534949	-0.114273
H132	H	1.222280	-0.534974	-0.012352
H133	H	1.271351	-0.456781	-0.063266
H134	H	1.080335	-0.514835	-0.063319
H135	H	1.129526	-0.436669	-0.114203
O136	O	0.870115	-0.188931	0.657937
C137	C	0.852064	-0.284306	0.571390
C138	C	0.914411	-0.232086	0.613594
H139	H	0.887853	-0.319220	0.535541
H140	H	0.810648	-0.254189	0.535482
H141	H	0.811525	-0.318201	0.611949
H142	H	0.955006	-0.198177	0.573088
H143	H	0.955769	-0.262246	0.649513
