data_functionalizedCrystal
_audit_creation_method	'MofGen! by Chris Wilmer'
_symmetry_space_group_name_H-M	'P1'
_symmetry_Int_Tables_number	1
_symmetry_cell_setting	triclinic
loop_
_symmetry_equiv_pos_as_xyz
  x,y,z
_cell_length_a	16.109301
_cell_length_b	9.198806
_cell_length_c	16.109301
_cell_angle_alpha	90.003194
_cell_angle_beta	83.461532
_cell_angle_gamma	90.001223
loop_
_atom_site_label
_atom_site_type_symbol
_atom_site_fract_x
_atom_site_fract_y
_atom_site_fract_z
O1	O	1.103132	0.120801	0.106865
O2	O	1.436465	0.454134	0.440199
O3	O	1.769798	0.787467	0.773532
O4	O	0.861070	0.120824	0.120165
O5	O	1.194403	0.454157	0.453498
O6	O	1.527736	0.787490	0.786831
O7	O	0.988750	0.120802	-0.007516
O8	O	1.322083	0.454135	0.325817
O9	O	1.655417	0.787469	0.659151
O10	O	0.975451	0.120822	0.234546
O11	O	1.308784	0.454156	0.567879
O12	O	1.642118	0.787489	0.901213
O13	O	0.988740	-0.120983	-0.007516
O14	O	1.322073	0.212350	0.325817
O15	O	1.655407	0.545683	0.659150
O16	O	0.861059	-0.120961	0.120164
O17	O	1.194393	0.212372	0.453498
O18	O	1.527726	0.545705	0.786831
O19	O	1.103121	-0.120985	0.106865
O20	O	1.436455	0.212349	0.440198
O21	O	1.769788	0.545682	0.773532
Cu22	Cu	0.982090	-0.143050	0.113515
Cu23	Cu	1.315423	0.190283	0.446848
Cu24	Cu	1.648756	0.523617	0.780181
Cu25	Cu	0.982101	0.142889	0.113515
Cu26	Cu	1.315435	0.476222	0.446848
Cu27	Cu	1.648768	0.809556	0.780182
O28	O	0.975441	-0.120963	0.234546
O29	O	1.308774	0.212371	0.567879
O30	O	1.642108	0.545704	0.901212
C31	C	0.830090	-0.000066	0.119626
C32	C	1.163423	0.333267	0.452959
C33	C	1.496756	0.666601	0.786292
C34	C	0.737794	-0.000057	0.118011
C35	C	1.071128	0.333276	0.451344
C36	C	1.404461	0.666609	0.784677
N37	N	0.982087	-0.344164	0.113514
N38	N	1.315421	-0.010830	0.446847
N39	N	1.648754	0.322503	0.780181
C40	C	0.515522	-0.000068	0.190018
C41	C	0.848855	0.333265	0.523352
C42	C	1.182189	0.666599	0.856685
C43	C	0.428802	-0.000078	0.188494
C44	C	0.762135	0.333256	0.521828
C45	C	1.095468	0.666589	0.855161
C46	C	0.448676	-0.000084	0.037006
C47	C	0.782009	0.333249	0.370339
C48	C	1.115342	0.666582	0.703672
C49	C	0.535395	-0.000085	0.038530
C50	C	0.868728	0.333248	0.371864
C51	C	1.202061	0.666581	0.705197
C52	C	0.568815	-0.000070	0.115039
C53	C	0.902148	0.333264	0.448373
C54	C	1.235482	0.666597	0.781706
C55	C	0.395376	-0.000078	0.111990
C56	C	0.728709	0.333255	0.445324
C57	C	1.062043	0.666588	0.778657
C58	C	0.301350	-0.000089	0.110337
C59	C	0.634683	0.333245	0.443671
C60	C	0.968017	0.666578	0.777004
C61	C	0.662847	-0.000062	0.116693
C62	C	0.996180	0.333271	0.450026
C63	C	1.329514	0.666604	0.783359
C64	C	1.035699	-0.416370	0.059670
C65	C	1.369032	-0.083037	0.393003
C66	C	1.702365	0.250297	0.726337
C67	C	1.035712	-0.583782	0.059667
C68	C	1.369045	-0.250449	0.393000
C69	C	1.702378	0.082884	0.726334
C70	C	1.134101	-0.000092	0.107404
C71	C	1.467435	0.333242	0.440737
C72	C	1.800768	0.666575	0.774070
C73	C	1.226397	-0.000091	0.109019
C74	C	1.559730	0.333243	0.442352
C75	C	1.893063	0.666576	0.775686
C76	C	0.988206	-0.000090	-0.038491
C77	C	1.321540	0.333243	0.294842
C78	C	1.654873	0.666577	0.628176
C79	C	0.986591	-0.000088	-0.130786
C80	C	1.319924	0.333245	0.202547
C81	C	1.653258	0.666579	0.535880
N82	N	0.982110	0.344003	0.113509
N83	N	1.315444	0.677336	0.446842
N84	N	1.648777	1.010670	0.780176
C85	C	1.057074	-0.000069	-0.439785
C86	C	1.390408	0.333264	-0.106451
C87	C	1.723741	0.666597	0.226882
C88	C	1.058600	-0.000078	-0.353064
C89	C	1.391933	0.333255	-0.019731
C90	C	1.725266	0.666589	0.313602
C91	C	0.907111	-0.000083	-0.333191
C92	C	1.240444	0.333250	0.000142
C93	C	1.573777	0.666584	0.333476
C94	C	0.905586	-0.000085	-0.419910
C95	C	1.238920	0.333249	-0.086577
C96	C	1.572253	0.666582	0.246757
C97	C	0.980571	-0.000071	-0.473205
C98	C	1.313904	0.333263	-0.139871
C99	C	1.647237	0.666596	0.193462
C100	C	0.983620	-0.000077	-0.299766
C101	C	1.316954	0.333256	0.033568
C102	C	1.650287	0.666589	0.366901
C103	C	0.985274	-0.000087	-0.205740
C104	C	1.318607	0.333247	0.127594
C105	C	1.651940	0.666580	0.460927
C106	C	0.978917	-0.000064	-0.567237
C107	C	1.312251	0.333269	-0.233903
C108	C	1.645584	0.666602	0.099430
C109	C	0.975985	-0.000068	0.265521
C110	C	1.309318	0.333266	0.598854
C111	C	1.642651	0.666599	0.932187
C112	C	0.977600	-0.000060	0.357816
C113	C	1.310933	0.333273	0.691149
C114	C	1.644267	0.666607	1.024483
H115	H	0.385413	-0.000079	0.249550
H116	H	0.718747	0.333254	0.582883
H117	H	1.052080	0.666587	0.916217
H118	H	0.936212	-0.593912	0.159612
H119	H	1.269545	-0.260579	0.492946
H120	H	1.602879	0.072754	0.826279
H121	H	0.843284	-0.000092	-0.447120
H122	H	1.176618	0.333241	-0.113786
H123	H	1.509951	0.666574	0.219547
H124	H	0.542730	-0.000066	0.252317
H125	H	0.876063	0.333267	0.585650
H126	H	1.209396	0.666600	0.918983
H127	H	1.081614	-0.645876	0.013572
H128	H	1.414947	-0.312543	0.346906
H129	H	1.748280	0.020790	0.680239
H130	H	0.421454	-0.000106	-0.025285
H131	H	0.754787	0.333228	0.308048
H132	H	1.088121	0.666561	0.641381
H133	H	1.120896	-0.000080	-0.325859
H134	H	1.454230	0.333254	0.007475
H135	H	1.787563	0.666587	0.340808
O136	O	0.921302	-0.426420	0.174589
O137	O	1.254636	-0.093086	0.507922
O138	O	1.587969	0.240247	0.841256
H139	H	0.880836	-0.495793	0.139675
H140	H	1.214170	-0.162460	0.473008
H141	H	1.547503	0.170873	0.806342
H142	H	1.118131	-0.000058	-0.483175
H143	H	1.451465	0.333275	-0.149842
H144	H	1.784798	0.666609	0.183491
O145	O	0.826237	-0.000093	-0.275710
O146	O	1.159570	0.333240	0.057623
O147	O	1.492903	0.666573	0.390957
H148	H	0.823302	0.098461	-0.235728
H149	H	1.156635	0.431795	0.097605
H150	H	1.489969	0.765128	0.430938
O151	O	0.592885	-0.000090	-0.042343
O152	O	0.926219	0.333243	0.290990
O153	O	1.259552	0.666576	0.624324
H154	H	0.555079	-0.000081	-0.095801
H155	H	0.888412	0.333252	0.237533
H156	H	1.221745	0.666586	0.570866
H157	H	1.081585	-0.354252	0.013571
H158	H	1.414919	-0.020918	0.346904
H159	H	1.748252	0.312415	0.680238
