data_functionalizedCrystal
_audit_creation_method	'MofGen! by Chris Wilmer'
_symmetry_space_group_name_H-M	'P1'
_symmetry_Int_Tables_number	1
_symmetry_cell_setting	triclinic
loop_
_symmetry_equiv_pos_as_xyz
  x,y,z
_cell_length_a	21.395364
_cell_length_b	18.215399
_cell_length_c	21.395361
_cell_angle_alpha	90.034621
_cell_angle_beta	89.973528
_cell_angle_gamma	89.983349
loop_
_atom_site_label
_atom_site_type_symbol
_atom_site_fract_x
_atom_site_fract_y
_atom_site_fract_z
Zn1	Zn	0.957810	-0.416091	0.249501
Zn2	Zn	1.457810	0.083909	0.749501
Zn3	Zn	0.957727	-0.293015	0.354285
Zn4	Zn	1.457727	0.206985	0.854285
Zn5	Zn	0.853040	-0.293038	0.249517
Zn6	Zn	1.353040	0.206962	0.749517
Zn7	Zn	0.852995	-0.416040	0.354237
Zn8	Zn	1.352995	0.083960	0.854237
O9	O	0.905393	-0.354546	0.301885
O10	O	1.405393	0.145454	0.801885
O11	O	1.045477	-0.399776	0.263414
O12	O	1.545477	0.100224	0.763414
O13	O	0.943824	-0.190034	0.340414
O14	O	1.443824	0.309966	0.840414
O15	O	0.866992	-0.309392	0.161837
O16	O	1.366992	0.190608	0.661837
O17	O	1.045416	-0.309353	0.340398
O18	O	1.545416	0.190647	0.840398
O19	O	0.943966	-0.399798	0.161825
O20	O	1.443966	0.100202	0.661825
O21	O	0.866911	-0.190051	0.263442
O22	O	1.366911	0.309949	0.763442
O23	O	0.765356	-0.309344	0.263395
O24	O	1.265356	0.190656	0.763395
O25	O	0.866915	-0.519031	0.340317
O26	O	1.366915	-0.019031	0.840317
O27	O	0.765323	-0.399713	0.340332
O28	O	1.265323	0.100287	0.840332
O29	O	0.943922	-0.519068	0.263367
O30	O	1.443922	-0.019068	0.763367
O31	O	0.943781	-0.309304	0.441956
O32	O	1.443781	0.190696	0.941956
O33	O	0.866834	-0.399690	0.441921
O34	O	1.366834	0.100310	0.941921
C35	C	0.742605	-0.354526	0.301861
C36	C	1.242605	0.145474	0.801861
C37	C	0.672964	-0.354534	0.301866
C38	C	1.172964	0.145466	0.801866
C39	C	0.171199	-0.401716	0.261894
C40	C	0.671199	0.098284	0.761894
C41	C	0.236635	-0.401716	0.261889
C42	C	0.736635	0.098284	0.761889
C43	C	0.269326	-0.354563	0.301904
C44	C	0.769326	0.145437	0.801904
C45	C	0.236576	-0.307419	0.341938
C46	C	0.736576	0.192581	0.841938
C47	C	0.171142	-0.307426	0.341946
C48	C	0.671142	0.192574	0.841946
C49	C	0.372970	-0.288237	0.306769
C50	C	0.872970	0.211763	0.806769
C51	C	0.438403	-0.288229	0.306756
C52	C	0.938403	0.211771	0.806756
C53	C	0.471147	-0.354542	0.301883
C54	C	0.971147	0.145458	0.801883
C55	C	0.438449	-0.420865	0.297009
C56	C	0.938449	0.079135	0.797009
C57	C	0.373015	-0.420872	0.297017
C58	C	0.873015	0.079128	0.797017
C59	C	0.340278	-0.354550	0.301900
C60	C	0.840278	0.145450	0.801900
C61	C	0.574841	-0.401686	0.261850
C62	C	1.074841	0.098314	0.761850
C63	C	0.640277	-0.401688	0.261850
C64	C	1.140277	0.098312	0.761850
C65	C	0.640218	-0.307384	0.341895
C66	C	1.140218	0.192616	0.841895
C67	C	0.574783	-0.307389	0.341899
C68	C	1.074783	0.192611	0.841899
C69	C	0.542098	-0.354540	0.301873
C70	C	1.042098	0.145460	0.801873
C71	C	0.905423	-0.546499	0.301835
C72	C	1.405423	-0.046499	0.801835
C73	C	0.905435	-0.628298	0.301814
C74	C	1.405435	-0.128298	0.801814
C75	C	0.865420	-0.816502	0.261707
C76	C	1.365420	-0.316502	0.761707
C77	C	0.865431	-0.893361	0.261694
C78	C	1.365431	-0.393361	0.761694
C79	C	0.945525	-0.893332	0.341845
C80	C	1.445525	-0.393332	0.841845
C81	C	0.945511	-0.816475	0.341861
C82	C	1.445511	-0.316475	0.841861
C83	C	0.905459	-0.778062	0.301788
C84	C	1.405459	-0.278062	0.801788
C85	C	0.905484	-0.931778	0.301760
C86	C	1.405484	-0.431778	0.801760
C87	C	0.905497	-1.015112	0.301747
C88	C	1.405497	-0.515112	0.801747
C89	C	0.905446	-0.694723	0.301802
C90	C	1.405446	-0.194723	0.801802
C91	C	1.068816	-0.354567	0.301909
C92	C	1.568816	0.145433	0.801909
C93	C	1.138457	-0.354576	0.301920
C94	C	1.638457	0.145424	0.801920
C95	C	0.905310	-0.354505	0.464673
C96	C	1.405310	0.145495	0.964673
C97	C	0.905332	-0.354512	0.534314
C98	C	1.405332	0.145488	1.034314
C99	C	0.905400	-0.163340	0.301890
C100	C	1.405400	0.336660	0.801890
C101	C	0.905508	-0.081541	0.301734
C102	C	1.405508	0.418459	0.801734
C103	C	0.905493	-0.354603	0.138462
C104	C	1.405493	0.145397	0.638462
C105	C	0.905536	-0.354628	0.068820
C106	C	1.405536	0.145372	0.568820
C107	C	0.945434	-0.307496	0.567024
C108	C	1.445434	0.192504	1.067024
C109	C	0.945463	-0.307513	0.632460
C110	C	1.445463	0.192487	1.132460
C111	C	0.905379	-0.354538	0.665182
C112	C	1.405379	0.145462	1.165182
C113	C	0.865275	-0.401563	0.632464
C114	C	1.365275	0.098437	1.132464
C115	C	0.865251	-0.401550	0.567029
C116	C	1.365251	0.098450	1.067029
C117	C	0.848964	-0.360305	0.768892
C118	C	1.348964	0.139695	1.268892
C119	C	0.848986	-0.360312	0.834325
C120	C	1.348986	0.139688	1.334325
C121	C	0.905452	-0.354581	0.867003
C122	C	1.405452	0.145419	1.367003
C123	C	0.961897	-0.348826	0.834240
C124	C	1.461897	0.151174	1.334240
C125	C	0.961874	-0.348814	0.768806
C126	C	1.461874	0.151186	1.268806
C127	C	0.905401	-0.354557	0.736134
C128	C	1.405401	0.145443	1.236134
C129	C	0.945589	-0.307580	0.970666
C130	C	1.445589	0.192420	1.470666
C131	C	0.945619	-0.307602	1.036103
C132	C	1.445619	0.192398	1.536103
C133	C	0.865425	-0.401648	1.036105
C134	C	1.365425	0.098352	1.536105
C135	C	0.865401	-0.401630	0.970670
C136	C	1.365401	0.098370	1.470670
C137	C	0.905482	-0.354592	0.937954
C138	C	1.405482	0.145408	1.437954
H139	H	0.144484	-0.269037	0.374541
H140	H	0.644484	0.230963	0.874541
C141	C	0.821134	-0.453266	0.531046
C142	C	1.321134	0.046734	1.031046
H143	H	0.797263	-0.481273	0.559904
H144	H	1.297263	0.018727	1.059904
H145	H	0.845074	-0.485349	0.505477
H146	H	1.345074	0.014651	1.005477
H147	H	0.793837	-0.425073	0.505565
H148	H	1.293837	0.074927	1.005565
H149	H	0.832808	-0.785228	0.229077
H150	H	1.332808	-0.285228	0.729077
C151	C	0.989528	-0.255765	0.531041
C152	C	1.489528	0.244235	1.031041
H153	H	1.013420	-0.227772	0.559898
H154	H	1.513420	0.272228	1.059898
H155	H	0.965572	-0.223669	0.505553
H156	H	1.465572	0.276331	1.005553
H157	H	1.016807	-0.283948	0.505477
H158	H	1.516807	0.216052	1.005477
C159	C	0.474455	-0.493815	0.291648
C160	C	0.974455	0.006185	0.791648
H161	H	0.445611	-0.533312	0.288742
H162	H	0.945611	-0.033312	0.788742
H163	H	0.499969	-0.500208	0.327560
H164	H	0.999969	-0.000208	0.827560
H165	H	0.499993	-0.492932	0.255322
H166	H	0.999993	0.007068	0.755322
H167	H	0.832827	-0.924655	0.229057
H168	H	1.332827	-0.424655	0.729057
C169	C	0.989588	-0.935586	0.385914
C170	C	1.489588	-0.435586	0.885914
H171	H	1.013429	-0.901682	0.409790
H172	H	1.513429	-0.401682	0.909790
H173	H	1.016905	-0.965577	0.361939
H174	H	1.516905	-0.465577	0.861939
H175	H	0.965611	-0.965556	0.413209
H176	H	1.465611	-0.465556	0.913209
C177	C	0.821184	-0.453291	0.668452
C178	C	1.321184	0.046709	1.168452
H179	H	0.797300	-0.481295	0.639597
H180	H	1.297300	0.018705	1.139597
H181	H	0.793907	-0.425117	0.694019
H182	H	1.293907	0.074883	1.194019
H183	H	0.845149	-0.485388	0.693937
H184	H	1.345149	0.014612	1.193937
C185	C	0.474364	-0.215286	0.312191
C186	C	0.974364	0.284714	0.812191
H187	H	0.445493	-0.175797	0.315128
H188	H	0.945493	0.324203	0.815128
H189	H	0.499927	-0.208832	0.276300
H190	H	0.999927	0.291168	0.776300
H191	H	0.499850	-0.216226	0.348529
H192	H	0.999850	0.283774	0.848529
C193	C	0.135249	-0.453586	0.217872
C194	C	0.635249	0.046414	0.717872
H195	H	0.164125	-0.481666	0.194037
H196	H	0.664125	0.018334	0.694037
H197	H	0.109722	-0.425497	0.190548
H198	H	0.609722	0.074503	0.690548
H199	H	0.109728	-0.485608	0.241880
H200	H	0.609728	0.014392	0.741880
C201	C	0.272658	-0.453570	0.217856
C202	C	0.772658	0.046430	0.717856
H203	H	0.243820	-0.481648	0.194018
H204	H	0.743820	0.018352	0.694018
H205	H	0.298188	-0.485582	0.241850
H206	H	0.798188	0.014418	0.741850
H207	H	0.298182	-0.425462	0.190526
H208	H	0.798182	0.074538	0.690526
H209	H	0.978117	-0.785176	0.374502
H210	H	1.478117	-0.285176	0.874502
C211	C	0.538882	-0.453553	0.217830
C212	C	1.038882	0.046447	0.717830
H213	H	0.495222	-0.446798	0.223561
H214	H	0.995222	0.053202	0.723561
H215	H	0.549616	-0.502979	0.227049
H216	H	1.049616	-0.002979	0.727049
H217	H	0.549619	-0.442866	0.175718
H218	H	1.049619	0.057134	0.675718
H219	H	0.803025	-0.364990	0.860996
H220	H	1.303025	0.135010	1.360996
C221	C	0.676293	-0.453544	0.217818
C222	C	1.176293	0.046456	0.717818
H223	H	0.647454	-0.481618	0.193978
H224	H	1.147454	0.018382	0.693978
H225	H	0.701821	-0.485560	0.241811
H226	H	1.201821	0.014440	0.741811
H227	H	0.701820	-0.425439	0.190487
H228	H	1.201820	0.074561	0.690487
C229	C	0.989733	-0.255881	1.072084
C230	C	1.489733	0.244119	1.572084
H231	H	1.013594	-0.227863	1.043226
H232	H	1.513594	0.272137	1.543226
H233	H	1.017030	-0.284063	1.097569
H234	H	1.517030	0.215937	1.597569
H235	H	0.965785	-0.223796	1.097651
H236	H	1.465785	0.276204	1.597651
C237	C	0.989571	-0.255788	0.668449
C238	C	1.489571	0.244212	1.168449
H239	H	1.013435	-0.227769	0.639593
H240	H	1.513435	0.272231	1.139593
H241	H	1.016866	-0.283967	0.693938
H242	H	1.516866	0.216033	1.193938
H243	H	0.965619	-0.223703	0.694012
H244	H	1.465619	0.276297	1.194012
C245	C	0.676170	-0.255516	0.385912
C246	C	1.176170	0.244484	0.885912
H247	H	0.719830	-0.262261	0.380173
H248	H	1.219830	0.237739	0.880173
H249	H	0.665434	-0.266197	0.428021
H250	H	1.165434	0.233803	0.928021
H251	H	0.665435	-0.206087	0.376689
H252	H	1.165435	0.293913	0.876689
H253	H	0.548124	-0.268999	0.374490
H254	H	1.048124	0.231001	0.874490
C255	C	0.337047	-0.493819	0.291664
C256	C	0.837047	0.006181	0.791664
H257	H	0.293388	-0.484322	0.292363
H258	H	0.793388	0.015678	0.792363
H259	H	0.347768	-0.524702	0.325778
H260	H	0.847768	-0.024702	0.825778
H261	H	0.347788	-0.517432	0.253539
H262	H	0.847788	-0.017432	0.753539
H263	H	0.346316	-0.234234	0.310740
H264	H	0.846316	0.265766	0.810740
C265	C	1.023956	-0.342496	0.732765
C266	C	1.523956	0.157504	1.232765
H267	H	1.015852	-0.343307	0.689116
H268	H	1.515852	0.156693	1.189116
H269	H	1.050292	-0.382562	0.743441
H270	H	1.550292	0.117438	1.243441
H271	H	1.044022	-0.297714	0.743498
H272	H	1.544022	0.202286	1.243498
H273	H	1.007877	-0.344160	0.860845
H274	H	1.507877	0.155840	1.360845
H275	H	0.263198	-0.269028	0.374520
H276	H	0.763198	0.230972	0.874520
C277	C	0.786849	-0.366608	0.732950
C278	C	1.286849	0.133392	1.232950
H279	H	0.794919	-0.365783	0.689288
H280	H	1.294919	0.134217	1.189288
H281	H	0.760520	-0.326548	0.743721
H282	H	1.260520	0.173452	1.243721
H283	H	0.766794	-0.411395	0.743660
H284	H	1.266794	0.088605	1.243660
C285	C	0.989682	-0.255850	0.934676
C286	C	1.489682	0.244150	1.434676
H287	H	1.013577	-0.227859	0.963532
H288	H	1.513577	0.272141	1.463532
H289	H	0.965724	-0.223752	0.909192
H290	H	1.465724	0.276248	1.409192
H291	H	1.016957	-0.284032	0.909109
H292	H	1.516957	0.215968	1.409109
H293	H	0.832791	-0.439939	1.062747
H294	H	1.332791	0.060061	1.562747
C295	C	0.821281	-0.453339	0.934686
C296	C	1.321281	0.046661	1.434686
H297	H	0.797408	-0.481343	0.963544
H298	H	1.297408	0.018657	1.463544
H299	H	0.845218	-0.485425	0.909117
H300	H	1.345218	0.014575	1.409117
H301	H	0.793985	-0.425144	0.909204
H302	H	1.293985	0.074856	1.409204
