data_functionalizedCrystal
_audit_creation_method	'MofGen! by Chris Wilmer'
_symmetry_space_group_name_H-M	'P1'
_symmetry_Int_Tables_number	1
_symmetry_cell_setting	triclinic
loop_
_symmetry_equiv_pos_as_xyz
  x,y,z
_cell_length_a	17.077404
_cell_length_b	14.908520
_cell_length_c	17.077396
_cell_angle_alpha	86.731679
_cell_angle_beta	90.018362
_cell_angle_gamma	93.318621
loop_
_atom_site_label
_atom_site_type_symbol
_atom_site_fract_x
_atom_site_fract_y
_atom_site_fract_z
Zn1	Zn	1.182021	-0.359207	0.461847
Zn2	Zn	1.682021	0.140793	0.961847
Zn3	Zn	1.174354	-0.510079	0.338153
Zn4	Zn	1.674354	-0.010079	0.838153
Zn5	Zn	1.050752	-0.359233	0.330599
Zn6	Zn	1.550752	0.140767	0.830599
Zn7	Zn	1.043150	-0.510019	0.469376
Zn8	Zn	1.543150	-0.010019	0.969376
O9	O	1.112569	-0.434635	0.399993
O10	O	1.612569	0.065365	0.899993
O11	O	1.290850	-0.379235	0.445449
O12	O	1.790850	0.120765	0.945449
O13	O	1.157930	-0.490104	0.227305
O14	O	1.657930	0.009896	0.727305
O15	O	1.074555	-0.232985	0.341697
O16	O	1.574555	0.267015	0.841697
O17	O	1.285217	-0.490079	0.354571
O18	O	1.785217	0.009921	0.854571
O19	O	1.170998	-0.232966	0.438124
O20	O	1.670998	0.267034	0.938124
O21	O	1.067120	-0.379279	0.221755
O22	O	1.567120	0.120721	0.721755
O23	O	0.939897	-0.379221	0.348997
O24	O	1.439897	0.120779	0.848997
O25	O	1.061598	-0.489978	0.578222
O26	O	1.561598	0.010022	1.078222
O27	O	0.934312	-0.490003	0.450956
O28	O	1.434312	0.009997	0.950956
O29	O	1.163627	-0.379177	0.572691
O30	O	1.663627	0.120823	1.072691
O31	O	1.150559	-0.636315	0.361872
O32	O	1.650559	-0.136315	0.861872
O33	O	1.054164	-0.636272	0.458281
O34	O	1.554164	-0.136272	0.958281
C35	C	0.908622	-0.434609	0.399974
C36	C	1.408622	0.065391	0.899974
C37	C	0.821372	-0.434620	0.399986
C38	C	1.321372	0.065380	0.899986
C39	C	0.783311	-0.377006	0.447388
C40	C	1.283311	0.122994	0.947388
C41	C	0.701330	-0.377012	0.447392
C42	C	1.201330	0.122988	0.947392
C43	C	0.657412	-0.434637	0.399998
C44	C	1.157412	0.065363	0.899998
C45	C	0.695479	-0.492253	0.352590
C46	C	1.195479	0.007747	0.852590
C47	C	0.777458	-0.492242	0.352583
C48	C	1.277458	0.007758	0.852583
C49	C	0.524608	-0.492274	0.352611
C50	C	1.024608	0.007726	0.852611
C51	C	0.442623	-0.492286	0.352619
C52	C	0.942623	0.007714	0.852619
C53	C	0.448479	-0.377043	0.447420
C54	C	0.948479	0.122957	0.947420
C55	C	0.530459	-0.377032	0.447412
C56	C	1.030459	0.122968	0.947412
C57	C	0.568520	-0.434650	0.400006
C58	C	1.068520	0.065350	0.900006
C59	C	1.100726	-0.669027	0.411730
C60	C	1.600726	-0.169027	0.911730
C61	C	1.095731	-0.769302	0.416778
C62	C	1.595731	-0.269302	0.916778
C63	C	1.186825	-0.957712	0.325952
C64	C	1.686825	-0.457712	0.825952
C65	C	1.182135	-1.051929	0.330692
C66	C	1.682135	-0.551929	0.830692
C67	C	1.081665	-1.051953	0.431001
C68	C	1.581665	-0.551953	0.931001
C69	C	1.086355	-0.957736	0.426261
C70	C	1.586355	-0.457736	0.926261
C71	C	1.138936	-0.910619	0.373734
C72	C	1.638936	-0.410619	0.873734
C73	C	1.143622	-0.816401	0.368991
C74	C	1.643622	-0.316401	0.868991
C75	C	1.043156	-0.816427	0.469303
C76	C	1.543156	-0.316427	0.969303
C77	C	1.038466	-0.910644	0.474043
C78	C	1.538466	-0.410644	0.974043
C79	C	1.317312	-0.434661	0.400013
C80	C	1.817312	0.065339	0.900013
C81	C	1.404561	-0.434672	0.400021
C82	C	1.904561	0.065328	0.900021
C83	C	1.112620	-0.434568	0.604734
C84	C	1.612620	0.065432	1.104734
C85	C	1.112642	-0.434540	0.691983
C86	C	1.612642	0.065460	1.191983
C87	C	1.124480	-0.199327	0.388228
C88	C	1.624480	0.300673	0.888228
C89	C	1.129555	-0.099052	0.383214
C90	C	1.629555	0.400948	0.883214
C91	C	1.112567	-0.434636	0.196046
C92	C	1.612567	0.065364	0.696046
C93	C	1.112710	-0.434410	0.108785
C94	C	1.612710	0.065590	0.608785
C95	C	1.165770	-0.376841	0.730094
C96	C	1.665770	0.123159	1.230094
C97	C	1.165781	-0.376811	0.812073
C98	C	1.665781	0.123189	1.312073
C99	C	1.112667	-0.434485	0.855940
C100	C	1.612667	0.065515	1.355940
C101	C	1.059533	-0.492186	0.817823
C102	C	1.559533	0.007814	1.317823
C103	C	1.059519	-0.492211	0.735845
C104	C	1.559519	0.007789	1.235845
C105	C	1.059567	-0.492132	0.988691
C106	C	1.559567	0.007868	1.488691
C107	C	1.059582	-0.492109	1.070674
C108	C	1.559582	0.007891	1.570674
C109	C	1.165829	-0.376732	1.064918
C110	C	1.665829	0.123268	1.564918
C111	C	1.165815	-0.376757	0.982940
C112	C	1.665815	0.123243	1.482940
C113	C	1.112682	-0.434460	0.944829
C114	C	1.612682	0.065540	1.444829
H115	H	0.566215	-0.330114	0.486010
H116	H	1.066215	0.169886	0.986010
Cl117	Cl	0.640268	-0.564692	0.293004
Cl118	Cl	1.140268	-0.064692	0.793004
Cl119	Cl	1.252913	-0.898476	0.259909
Cl120	Cl	1.752913	-0.398476	0.759909
Cl121	Cl	0.387411	-0.564752	0.293057
Cl122	Cl	0.887411	-0.064752	0.793057
Cl123	Cl	0.972370	-0.969885	0.540075
Cl124	Cl	1.472370	-0.469885	1.040075
Cl125	Cl	0.982939	-0.757220	0.529364
Cl126	Cl	1.482939	-0.257220	1.029364
Cl127	Cl	0.653485	-0.304582	0.506988
Cl128	Cl	1.153485	0.195418	1.006988
Cl129	Cl	1.232606	-0.304312	0.859982
Cl130	Cl	1.732606	0.195688	1.359982
H131	H	1.209024	-0.329879	0.694383
H132	H	1.709024	0.170121	1.194383
Cl133	Cl	1.209720	-0.757169	0.302955
Cl134	Cl	1.709720	-0.257169	0.802955
H135	H	0.808447	-0.539157	0.313983
H136	H	1.308447	-0.039157	0.813983
H137	H	0.417486	-0.330127	0.486018
H138	H	0.917486	0.169873	0.986018
Cl139	Cl	1.232592	-0.304257	0.927794
Cl140	Cl	1.732592	0.195743	1.427794
Cl141	Cl	1.232626	-0.304193	1.112828
Cl142	Cl	1.732626	0.195807	1.612828
H143	H	1.221132	-1.090268	0.291785
H144	H	1.721132	-0.590268	0.791785
H145	H	1.038861	-1.090332	0.473771
H146	H	1.538861	-0.590332	0.973771
H147	H	1.016330	-0.539070	1.106388
H148	H	1.516330	-0.039070	1.606388
H149	H	1.016289	-0.539106	0.957663
H150	H	1.516289	-0.039106	1.457663
H151	H	1.016284	-0.539142	0.853546
H152	H	1.516284	-0.039142	1.353546
H153	H	1.016249	-0.539186	0.704816
H154	H	1.516249	-0.039186	1.204816
Cl155	Cl	0.838514	-0.304562	0.506976
Cl156	Cl	1.338514	0.195438	1.006976
Cl157	Cl	0.572455	-0.564715	0.293019
Cl158	Cl	1.072455	-0.064715	0.793019
