data_functionalizedCrystal
_audit_creation_method	'MofGen! by Chris Wilmer'
_symmetry_space_group_name_H-M	'P1'
_symmetry_Int_Tables_number	1
_symmetry_cell_setting	triclinic
loop_
_symmetry_equiv_pos_as_xyz
  x,y,z
_cell_length_a	12.759401
_cell_length_b	21.295417
_cell_length_c	12.759393
_cell_angle_alpha	90.039170
_cell_angle_beta	90.018496
_cell_angle_gamma	90.030668
loop_
_atom_site_label
_atom_site_type_symbol
_atom_site_fract_x
_atom_site_fract_y
_atom_site_fract_z
Zn1	Zn	1.606140	-0.250569	0.593926
Zn2	Zn	1.605986	-0.355853	0.418223
Zn3	Zn	1.430442	-0.250602	0.418265
Zn4	Zn	1.430382	-0.355805	0.593864
O5	O	1.518237	-0.303208	0.506069
O6	O	1.753141	-0.264542	0.570626
O7	O	1.582660	-0.341926	0.271207
O8	O	1.453838	-0.162509	0.441611
O9	O	1.753027	-0.341894	0.441538
O10	O	1.582923	-0.162484	0.570668
O11	O	1.453689	-0.264598	0.271238
O12	O	1.283413	-0.264551	0.441551
O13	O	1.453736	-0.341811	0.740893
O14	O	1.283369	-0.341843	0.570562
O15	O	1.582865	-0.264495	0.740939
O16	O	1.582602	-0.443936	0.441478
O17	O	1.453587	-0.443901	0.570521
C18	C	1.245270	-0.303196	0.506055
C19	C	1.128493	-0.303206	0.506074
C20	C	1.073636	-0.343516	0.573139
C21	C	0.963912	-0.343524	0.573151
C22	C	0.963912	-0.262910	0.439022
C23	C	1.073635	-0.262899	0.439017
C24	C	1.073635	-0.390061	0.650574
C25	C	0.963911	-0.390069	0.650585
C26	C	1.518100	-0.466759	0.506011
C27	C	1.518137	-0.536727	0.506021
C28	C	1.585375	-0.569592	0.438898
C29	C	1.585424	-0.635334	0.438921
C30	C	1.518217	-0.668210	0.506058
C31	C	1.450974	-0.635338	0.573195
C32	C	1.450934	-0.569596	0.573177
N33	N	1.426309	-0.771475	0.514062
N34	N	1.426350	-0.833927	0.514073
C35	C	1.518334	-0.866284	0.506118
N36	N	1.610278	-0.833832	0.498130
N37	N	1.610236	-0.771375	0.498114
C38	C	1.518253	-0.739495	0.506085
C39	C	1.585631	-0.970434	0.439016
C40	C	1.585682	-1.036178	0.439047
C41	C	1.451223	-1.036180	0.573315
C42	C	1.451181	-0.970438	0.573289
C43	C	1.518384	-0.937569	0.506134
C44	C	1.792271	-0.303220	0.506084
C45	C	1.909047	-0.303225	0.506091
C46	C	1.518311	-0.303144	0.780103
C47	C	1.518342	-0.303117	0.896880
C48	C	1.518404	-0.139017	0.506151
C49	C	1.518475	-0.069049	0.506185
C50	C	1.518225	-0.303225	0.233102
C51	C	1.518397	-0.303075	0.116326
C52	C	1.585589	-0.262855	0.951767
C53	C	1.585614	-0.262832	1.061491
C54	C	1.451143	-0.343339	1.061431
C55	C	1.451113	-0.343358	0.951709
C56	C	1.663228	-0.216376	0.951803
C57	C	1.663253	-0.216353	1.061527
H58	H	0.919233	-0.230093	0.384428
H59	H	1.640442	-1.062935	0.384389
H60	H	0.934093	-0.438810	0.628642
H61	H	1.634161	-0.170033	1.095585
O62	O	1.755486	-0.237207	0.911357
C63	C	1.928826	-0.276420	0.947754
C64	C	1.824409	-0.252826	0.993699
H65	H	1.984571	-0.289067	1.014306
H66	H	1.965425	-0.237969	0.897532
H67	H	1.913750	-0.319736	0.897398
H68	H	1.839395	-0.209521	1.044103
H69	H	1.787842	-0.291316	1.043862
O70	O	1.109036	-0.374511	0.747738
C71	C	1.063302	-0.346273	0.924817
C72	C	1.023068	-0.363860	0.814828
H73	H	0.993817	-0.337670	0.979096
H74	H	1.112925	-0.301846	0.919713
H75	H	1.112962	-0.386332	0.957088
H76	H	0.973364	-0.323843	0.782493
H77	H	0.973501	-0.408307	0.819998
H78	H	1.396255	-0.662109	0.627859
O79	O	1.650765	-0.938471	0.373683
C80	C	1.664930	-0.864283	0.231870
C81	C	1.591047	-0.900452	0.305776
H82	H	1.616679	-0.833526	0.176963
H83	H	1.712988	-0.899038	0.183825
H84	H	1.719836	-0.833476	0.280168
H85	H	1.536078	-0.931260	0.257558
H86	H	1.543063	-0.865663	0.353824
O87	O	1.385805	-0.938440	0.638339
C88	C	1.243865	-0.864313	0.652320
C89	C	1.317853	-0.900501	0.578528
H90	H	1.188893	-0.833641	0.603991
H91	H	1.291994	-0.833438	0.707271
H92	H	1.195884	-0.899112	0.700334
H93	H	1.365850	-0.865747	0.530446
H94	H	1.269664	-0.931385	0.523646
O95	O	1.385926	-0.382496	0.898280
C96	C	1.371638	-0.467533	0.774401
C97	C	1.445587	-0.423239	0.834820
H98	H	1.419845	-0.500494	0.723096
H99	H	1.316738	-0.438669	0.722980
H100	H	1.323576	-0.496259	0.832465
H101	H	1.493717	-0.394504	0.776832
H102	H	1.500417	-0.452139	0.886257
H103	H	1.744618	-0.229411	1.091302
H104	H	1.118295	-0.230071	0.384413
H105	H	1.107628	-0.436347	0.621279
H106	H	0.929921	-0.372666	0.727941
H107	H	1.641482	-0.167626	0.922058
O108	O	1.650580	-0.667330	0.373637
C109	C	1.664763	-0.741568	0.231743
C110	C	1.590868	-0.705391	0.305642
H111	H	1.616514	-0.772339	0.176737
H112	H	1.719692	-0.772344	0.279940
H113	H	1.712796	-0.706763	0.183794
H114	H	1.542767	-0.740151	0.353607
H115	H	1.536008	-0.674605	0.257385
O116	O	1.650613	-0.537735	0.373528
C117	C	1.701664	-0.517659	0.194853
C118	C	1.627730	-0.553787	0.268761
H119	H	1.683176	-0.530614	0.110132
H120	H	1.786393	-0.530547	0.213296
H121	H	1.690112	-0.465028	0.206420
H122	H	1.639190	-0.606426	0.257235
H123	H	1.543029	-0.540847	0.250300
O124	O	1.385974	-1.068205	0.638437
C125	C	1.326502	-1.169484	0.698029
C126	C	1.400427	-1.133291	0.624200
H127	H	1.338177	-1.222112	0.686560
H128	H	1.241762	-1.156663	0.679506
H129	H	1.344890	-1.156464	0.782744
H130	H	1.382133	-1.146291	0.539461
H131	H	1.485145	-1.146115	0.642814
O132	O	1.385945	-0.382411	1.114856
C133	C	1.326346	-0.418034	1.283862
C134	C	1.400253	-0.373762	1.223492
H135	H	1.337873	-0.411047	1.371704
H136	H	1.344740	-0.468812	1.262337
H137	H	1.241648	-0.406987	1.262225
H138	H	1.484976	-0.384753	1.245097
H139	H	1.381769	-0.322998	1.245022
H140	H	1.396180	-0.542838	0.627838
