data_functionalizedCrystal
_audit_creation_method	'MofGen! by Chris Wilmer'
_symmetry_space_group_name_H-M	'P1'
_symmetry_Int_Tables_number	1
_symmetry_cell_setting	triclinic
loop_
_symmetry_equiv_pos_as_xyz
  x,y,z
_cell_length_a	19.288864
_cell_length_b	16.109301
_cell_length_c	17.766277
_cell_angle_alpha	89.992214
_cell_angle_beta	89.976791
_cell_angle_gamma	83.298863
loop_
_atom_site_label
_atom_site_type_symbol
_atom_site_fract_x
_atom_site_fract_y
_atom_site_fract_z
O1	O	0.921601	0.103716	-0.062838
O2	O	1.421601	0.603716	0.437162
O3	O	0.719373	0.117707	-0.062787
O4	O	1.219373	0.617707	0.437213
O5	O	0.826042	-0.010338	-0.062806
O6	O	1.326042	0.489662	0.437194
O7	O	0.814932	0.231761	-0.062819
O8	O	1.314932	0.731761	0.437181
O9	O	0.826024	-0.010345	0.062382
O10	O	1.326024	0.489655	0.562382
O11	O	0.719355	0.117701	0.062402
O12	O	1.219355	0.617701	0.562402
O13	O	0.921582	0.103710	0.062351
O14	O	1.421582	0.603710	0.562351
Cu15	Cu	0.820467	0.110704	0.073807
Cu16	Cu	1.320467	0.610704	0.573807
Cu17	Cu	0.820489	0.110712	-0.074243
Cu18	Cu	1.320489	0.610712	0.425757
O19	O	0.814913	0.231755	0.062370
O20	O	1.314913	0.731755	0.562370
C21	C	0.693487	0.117254	-0.000186
C22	C	1.193487	0.617254	0.499814
C23	C	0.616380	0.115902	-0.000166
C24	C	1.116380	0.615902	0.499834
C25	C	0.571863	0.191034	-0.000182
C26	C	1.071863	0.691034	0.499818
C27	C	0.499413	0.189764	-0.000190
C28	C	0.999413	0.689764	0.499810
C29	C	0.471483	0.113359	-0.000198
C30	C	0.971483	0.613359	0.499802
C31	C	0.516009	0.038218	-0.000178
C32	C	1.016009	0.538218	0.499822
C33	C	0.588458	0.039489	-0.000162
C34	C	1.088458	0.539489	0.499838
C35	C	0.363084	0.053298	-0.044079
C36	C	0.863084	0.553298	0.455921
C37	C	0.290636	0.052029	-0.044100
C38	C	0.790636	0.552029	0.455900
C39	C	0.248028	0.109433	-0.000243
C40	C	0.748028	0.609433	0.499757
C41	C	0.277874	0.168120	0.043624
C42	C	0.777874	0.668120	0.543624
C43	C	0.350323	0.169391	0.043640
C44	C	0.850323	0.669391	0.543640
C45	C	0.392925	0.111971	-0.000214
C46	C	0.892925	0.611971	0.499786
C47	C	0.124952	0.183193	-0.000267
C48	C	0.624952	0.683193	0.499733
C49	C	0.052501	0.181920	-0.000270
C50	C	0.552501	0.681920	0.499730
C51	C	0.069099	0.030372	-0.000266
C52	C	0.569099	0.530372	0.499734
C53	C	0.141548	0.031647	-0.000254
C54	C	0.641548	0.531647	0.499746
C55	C	0.169470	0.108060	-0.000259
C56	C	0.669470	0.608060	0.499741
C57	C	0.825583	-0.041315	-0.000211
C58	C	1.325583	0.458685	0.499789
C59	C	0.824234	-0.133606	-0.000210
C60	C	1.324234	0.366394	0.499790
C61	C	0.884391	-0.356084	-0.000237
C62	C	1.384391	0.143916	0.499763
C63	C	0.883118	-0.442800	-0.000243
C64	C	1.383118	0.057200	0.499757
C65	C	0.756559	-0.422493	-0.000208
C66	C	1.256559	0.077507	0.499792
C67	C	0.757833	-0.335778	-0.000208
C68	C	1.257833	0.164222	0.499792
C69	C	0.821751	-0.302577	-0.000218
C70	C	1.321751	0.197423	0.499782
C71	C	0.819204	-0.476007	-0.000225
C72	C	1.319204	0.023993	0.499775
C73	C	0.817823	-0.570028	-0.000231
C74	C	1.317823	-0.070028	0.499769
C75	C	0.823133	-0.208549	-0.000213
C76	C	1.323133	0.291451	0.499787
C77	C	0.947469	0.104163	-0.000252
C78	C	1.447469	0.604163	0.499748
C79	C	1.024576	0.105514	-0.000277
C80	C	1.524576	0.605514	0.499723
C81	C	0.815372	0.262732	-0.000227
C82	C	1.315372	0.762732	0.499773
C83	C	0.816722	0.355022	-0.000233
C84	C	1.316722	0.855022	0.499767
N85	N	0.820456	0.110699	0.177937
N86	N	1.320456	0.610699	0.677937
N87	N	0.820505	0.110711	-0.178373
N88	N	1.320505	0.610711	0.321627
C89	C	0.867704	0.054028	0.217315
C90	C	1.367704	0.554028	0.717315
C91	C	0.867708	0.054024	0.296117
C92	C	1.367708	0.554024	0.796117
C93	C	0.820471	0.110705	0.335538
C94	C	1.320471	0.610705	0.835538
C95	C	0.773214	0.167380	0.296150
C96	C	1.273214	0.667380	0.796150
C97	C	0.773206	0.167377	0.217350
C98	C	1.273206	0.667377	0.717350
C99	C	0.811353	0.186459	0.460373
C100	C	1.311353	0.686459	0.960373
C101	C	0.811365	0.186463	0.539172
C102	C	1.311365	0.686463	1.039172
C103	C	0.820489	0.110715	0.578584
C104	C	1.320489	0.610715	1.078584
C105	C	0.829616	0.034960	0.539188
C106	C	1.329616	0.534960	1.039188
C107	C	0.829609	0.034956	0.460387
C108	C	1.329609	0.534956	0.960387
C109	C	0.820473	0.110715	0.420983
C110	C	1.320473	0.610715	0.920983
C111	C	0.867745	0.054035	0.703408
C112	C	1.367745	0.554035	1.203408
C113	C	0.867744	0.054030	0.782212
C114	C	1.367744	0.554030	1.282212
C115	C	0.773252	0.167394	0.782243
C116	C	1.273252	0.667394	1.282243
C117	C	0.773250	0.167392	0.703441
C118	C	1.273250	0.667392	1.203441
C119	C	0.820500	0.110713	0.664028
C120	C	1.320500	0.610713	1.164028
H121	H	0.374621	0.217173	0.079360
H122	H	0.874621	0.717173	0.579360
C123	C	0.919713	-0.008319	0.660052
C124	C	1.419713	0.491681	1.160052
N125	N	0.958856	-0.055287	0.627398
N126	N	1.458856	0.444713	1.127398
H127	H	0.463160	0.250947	-0.000201
H128	H	0.963160	0.750947	0.499799
H129	H	0.837046	-0.026722	0.571275
H130	H	1.337046	0.473278	1.071275
H131	H	0.016255	0.243104	-0.000279
H132	H	0.516255	0.743104	0.499721
C133	C	0.954703	-0.319565	-0.000257
C134	C	1.454703	0.180435	0.499743
N135	N	1.007664	-0.292062	-0.000276
N136	N	1.507664	0.207938	0.499724
H137	H	0.934126	-0.486363	-0.000260
H138	H	1.434126	0.013637	0.499740
H139	H	0.493264	-0.023992	-0.000194
H140	H	0.993264	0.476008	0.499806
C141	C	0.839639	-0.048373	0.417054
C142	C	1.339639	0.451627	0.917054
N143	N	0.847190	-0.111138	0.384416
N144	N	1.347190	0.388862	0.884416
C145	C	0.688920	-0.276916	-0.000190
C146	C	1.188920	0.223084	0.499810
N147	N	0.637017	-0.232581	-0.000180
N148	N	1.137017	0.267419	0.499820
C149	C	0.686253	-0.459023	-0.000182
C150	C	1.186253	0.040977	0.499818
N151	N	0.633296	-0.486537	-0.000156
N152	N	1.133296	0.013463	0.499844
C153	C	0.637429	-0.043165	-0.000150
C154	C	1.137429	0.456835	0.499850
N155	N	0.674315	-0.105421	-0.000143
N156	N	1.174315	0.394579	0.499857
C157	C	0.409947	-0.009852	-0.092331
C158	C	0.909947	0.490148	0.407669
N159	N	0.445243	-0.057413	-0.128675
N160	N	0.945243	0.442587	0.371325
H161	H	0.906176	0.007875	0.185228
H162	H	1.406176	0.507875	0.685228
C163	C	0.038380	-0.053675	-0.000273
C164	C	0.538380	0.446325	0.499727
N165	N	0.015240	-0.116982	-0.000277
N166	N	0.515240	0.383018	0.499723
H167	H	0.177795	-0.029534	-0.000246
H168	H	0.677795	0.470466	0.499754
C169	C	0.919712	-0.008329	0.825528
C170	C	1.419712	0.491671	1.325528
N171	N	0.958852	-0.055304	0.858154
N172	N	1.458852	0.444696	1.358154
H173	H	0.243183	0.214863	0.079337
H174	H	0.743183	0.714863	0.579337
H175	H	0.803938	0.248147	0.571243
H176	H	1.303938	0.748147	1.071243
C177	C	0.919694	-0.008313	0.339442
C178	C	1.419694	0.491687	0.839442
N179	N	0.958853	-0.055262	0.372072
N180	N	1.458853	0.444738	0.872072
C181	C	0.155668	0.267248	-0.000262
C182	C	0.655668	0.767248	0.499738
N183	N	0.178801	0.330559	-0.000257
N184	N	0.678801	0.830559	0.499743
C185	C	0.257813	-0.012531	-0.092349
C186	C	0.757813	0.487469	0.407651
N187	N	0.233093	-0.061163	-0.128688
N188	N	0.733093	0.438837	0.371312
C189	C	0.721290	0.229745	0.825600
C190	C	1.221290	0.729745	1.325600
N191	N	0.682151	0.276709	0.858262
N192	N	1.182151	0.776709	1.358262
H193	H	0.803911	0.248146	0.428290
H194	H	1.303911	0.748146	0.928290
H195	H	0.734730	0.213526	0.185287
H196	H	1.234730	0.713526	0.685287
C197	C	0.602572	0.275090	-0.000171
C198	C	1.102572	0.775090	0.499829
N199	N	0.625704	0.338403	-0.000159
N200	N	1.125704	0.838403	0.499841
C201	C	0.721322	0.229795	0.660123
C202	C	1.221322	0.729795	1.160123
N203	N	0.682224	0.276819	0.627496
N204	N	1.182224	0.776819	1.127496
C205	C	0.721249	0.229726	0.339514
C206	C	1.221249	0.729726	0.839514
N207	N	0.682105	0.276684	0.372176
N208	N	1.182105	0.776684	0.872176
