data_functionalizedCrystal
_audit_creation_method	'MofGen! by Chris Wilmer'
_symmetry_space_group_name_H-M	'P1'
_symmetry_Int_Tables_number	1
_symmetry_cell_setting	triclinic
loop_
_symmetry_equiv_pos_as_xyz
  x,y,z
_cell_length_a	14.971482
_cell_length_b	9.065218
_cell_length_c	14.048226
_cell_angle_alpha	89.995444
_cell_angle_beta	89.994098
_cell_angle_gamma	84.314247
loop_
_atom_site_label
_atom_site_type_symbol
_atom_site_fract_x
_atom_site_fract_y
_atom_site_fract_z
O1	O	1.188382	0.192235	-0.079144
O2	O	0.928153	0.215264	-0.079149
O3	O	1.063646	-0.011002	-0.079144
O4	O	1.052888	0.418501	-0.079148
O5	O	1.063630	-0.011015	0.079177
O6	O	0.928136	0.215251	0.079173
O7	O	1.188365	0.192222	0.079177
Zn8	Zn	1.058248	0.203734	0.104312
Zn9	Zn	1.058270	0.203752	-0.104283
O10	O	1.052872	0.418488	0.079173
C11	C	0.894812	0.214229	0.000012
C12	C	0.795492	0.211145	0.000010
C13	C	0.748827	0.209686	0.086312
C14	C	0.655507	0.206765	0.086313
C15	C	0.608852	0.205314	0.000011
C16	C	0.655524	0.206770	-0.086298
C17	C	0.748843	0.209680	-0.086298
C18	C	0.461017	0.200708	-0.086291
C19	C	0.367691	0.197800	-0.086292
C20	C	0.367681	0.197793	0.086319
C21	C	0.461000	0.200703	0.086319
C22	C	0.507665	0.202161	0.000010
C23	C	1.062604	-0.065974	0.000015
C24	C	1.059513	-0.229754	0.000010
C25	C	1.221706	0.193257	0.000015
C26	C	1.321026	0.196341	0.000010
C27	C	1.053914	0.473460	0.000012
C28	C	1.057005	0.637240	0.000010
N29	N	1.058240	0.203721	0.246672
N30	N	1.058285	0.203753	-0.246644
C31	C	1.118255	0.103572	0.296492
C32	C	1.118262	0.103571	0.396150
C33	C	1.058255	0.203728	0.445986
C34	C	0.998233	0.303882	0.396159
C35	C	0.998223	0.303874	0.296503
C36	C	0.998259	0.303893	0.603873
C37	C	0.998269	0.303902	0.703536
C38	C	1.118297	0.103589	0.703520
C39	C	1.118287	0.103582	0.603864
C40	C	1.058266	0.203738	0.554044
H41	H	0.498983	0.201893	0.156594
O42	O	0.940079	0.401246	0.555371
C43	C	0.988712	0.492410	0.497726
H44	H	1.058225	0.433835	0.482788
H45	H	0.951562	0.515644	0.427653
H46	H	0.995673	0.601468	0.536121
O47	O	1.176657	0.006247	0.444397
C48	C	1.229611	-0.082165	0.379041
H49	H	1.231089	-0.021680	0.307996
H50	H	1.300865	-0.104447	0.407816
H51	H	1.199700	-0.191857	0.368463
O52	O	0.940063	0.401130	0.752096
C53	C	0.952933	0.379635	0.850737
H54	H	1.023605	0.324700	0.864330
H55	H	0.943883	0.491335	0.888607
H56	H	0.901721	0.305491	0.879038
H57	H	0.617531	0.205578	-0.156566
H58	H	1.167153	0.022034	0.563288
H59	H	0.499008	0.201895	-0.156574
H60	H	0.786836	0.210871	-0.156574
H61	H	0.949370	0.385427	0.436741
O62	O	0.322341	0.196092	0.170140
C63	C	0.277454	0.066742	0.175298
H64	H	0.311943	-0.021604	0.126317
H65	H	0.279455	0.023841	0.251628
H66	H	0.204670	0.093392	0.152121
H67	H	0.949351	0.385424	0.255941
O68	O	0.322511	0.196336	-0.170209
C69	C	0.383704	0.198279	-0.246388
H70	H	0.453550	0.153666	-0.221094
H71	H	0.361838	0.125881	-0.306746
H72	H	0.385206	0.316858	-0.272924
H73	H	0.786806	0.210879	0.156589
O74	O	0.610310	0.205426	0.170232
C75	C	0.671502	0.207305	0.246403
H76	H	0.734697	0.256052	0.221097
H77	H	0.639431	0.278038	0.306759
H78	H	0.689857	0.089350	0.272948
O79	O	1.176405	0.006158	0.248003
C80	C	1.127732	-0.085013	0.190425
H81	H	1.058234	-0.026389	0.175483
H82	H	1.164868	-0.108353	0.120350
H83	H	1.120734	-0.194018	0.228882
O84	O	1.176513	0.006344	0.752057
C85	C	1.163669	0.027841	0.850702
H86	H	1.093003	0.082783	0.864325
H87	H	1.172725	-0.083860	0.888581
H88	H	1.214892	0.101978	0.878968
