data_functionalizedCrystal
_audit_creation_method	'MofGen! by Chris Wilmer'
_symmetry_space_group_name_H-M	'P1'
_symmetry_Int_Tables_number	1
_symmetry_cell_setting	triclinic
loop_
_symmetry_equiv_pos_as_xyz
  x,y,z
_cell_length_a	29.839135
_cell_length_b	29.839131
_cell_length_c	16.959447
_cell_angle_alpha	90.041568
_cell_angle_beta	90.018681
_cell_angle_gamma	90.037758
loop_
_atom_site_label
_atom_site_type_symbol
_atom_site_fract_x
_atom_site_fract_y
_atom_site_fract_z
Zn1	Zn	0.686753	-0.178814	0.446939
Zn2	Zn	0.686689	-0.253947	0.314734
Zn3	Zn	0.611632	-0.178836	0.314766
Zn4	Zn	0.611592	-0.253921	0.446863
O5	O	0.649166	-0.216380	0.380826
O6	O	0.749612	-0.188783	0.429420
O7	O	0.676723	-0.244004	0.204128
O8	O	0.621640	-0.115966	0.332344
O9	O	0.749565	-0.243983	0.332290
O10	O	0.676832	-0.115950	0.429451
O11	O	0.621578	-0.188819	0.204151
O12	O	0.548759	-0.188794	0.332271
O13	O	0.621572	-0.243938	0.557484
O14	O	0.548730	-0.243959	0.429322
O15	O	0.676793	-0.188757	0.557540
O16	O	0.676684	-0.316811	0.332216
O17	O	0.621510	-0.316792	0.429291
C18	C	0.532444	-0.216376	0.380792
C19	C	0.482509	-0.216385	0.380796
C20	C	0.172888	-0.187680	0.431476
C21	C	-0.014785	-0.187683	0.431498
O22	O	-0.039032	-0.163267	0.474550
N23	N	-0.038276	-0.216380	0.380855
C24	C	-0.014845	-0.245076	0.330198
O25	O	-0.039131	-0.269481	0.287117
C26	C	0.172828	-0.245070	0.330172
C27	C	0.196315	-0.216375	0.380825
C28	C	0.196375	-0.158987	0.482124
C29	C	0.243291	-0.158988	0.482120
C30	C	0.266718	-0.187683	0.431470
C31	C	0.243231	-0.216376	0.380822
C32	C	0.196258	-0.273763	0.279512
C33	C	0.243179	-0.273758	0.279509
C34	C	0.266666	-0.245063	0.330162
C35	C	0.313574	-0.245072	0.330168
N36	N	0.337064	-0.216375	0.380811
C37	C	0.313636	-0.187681	0.431462
C38	C	-0.113375	-0.245077	0.330216
C39	C	-0.160293	-0.245079	0.330224
C40	C	-0.160231	-0.187686	0.431523
C41	C	-0.113312	-0.187687	0.431519
C42	C	-0.089885	-0.216381	0.380860
C43	C	0.412162	-0.187686	0.431452
C44	C	0.459082	-0.187691	0.431447
C45	C	0.459015	-0.245082	0.330145
C46	C	0.412100	-0.245079	0.330153
C47	C	0.388674	-0.216377	0.380809
O48	O	0.337849	-0.269472	0.287132
O49	O	0.337930	-0.163272	0.474524
C50	C	0.125972	-0.187679	0.431479
C51	C	0.102484	-0.216372	0.380831
C52	C	0.125912	-0.245067	0.330180
C53	C	0.055567	-0.216374	0.380838
C54	C	0.032139	-0.187680	0.431489
C55	C	0.055629	-0.158983	0.482133
C56	C	0.102544	-0.158985	0.482130
C57	C	0.102422	-0.273763	0.279537
C58	C	0.055507	-0.273760	0.279544
C59	C	0.032079	-0.245066	0.330195
C60	C	0.649098	-0.333102	0.380759
C61	C	0.649110	-0.383037	0.380757
C62	C	0.677898	-0.692637	0.431461
C63	C	0.677947	-0.880310	0.431509
O64	O	0.702357	-0.904538	0.474570
N65	N	0.649243	-0.903822	0.380913
C66	C	0.620522	-0.880412	0.330306
O67	O	0.596105	-0.904717	0.287279
C68	C	0.620471	-0.692740	0.330263
C69	C	0.649181	-0.669231	0.380856
C70	C	0.706605	-0.669128	0.482050
C71	C	0.706594	-0.622212	0.482035
C72	C	0.677877	-0.598806	0.431430
C73	C	0.649170	-0.622315	0.380841
C74	C	0.591749	-0.669331	0.279661
C75	C	0.591738	-0.622410	0.279656
C76	C	0.620447	-0.598901	0.330249
C77	C	0.620442	-0.551994	0.330221
N78	N	0.649146	-0.528482	0.380816
C79	C	0.677864	-0.551888	0.431421
C80	C	0.620551	-0.978943	0.330331
C81	C	0.620565	-1.025861	0.330341
C82	C	0.677989	-1.025755	0.431544
C83	C	0.677978	-0.978836	0.431530
C84	C	0.649256	-0.955431	0.380927
C85	C	0.677839	-0.453362	0.431384
C86	C	0.677827	-0.406443	0.431362
C87	C	0.620401	-0.406552	0.330162
C88	C	0.620415	-0.453468	0.330180
C89	C	0.649135	-0.476872	0.380798
O90	O	0.596041	-0.527737	0.287188
O91	O	0.702270	-0.527576	0.474454
C92	C	0.677909	-0.739552	0.431477
C93	C	0.649202	-0.763062	0.380887
C94	C	0.620485	-0.739655	0.330282
C95	C	0.649216	-0.809979	0.380897
C96	C	0.677933	-0.833386	0.431502
C97	C	0.706637	-0.809874	0.482097
C98	C	0.706627	-0.762958	0.482081
C99	C	0.591781	-0.763167	0.279687
C100	C	0.591794	-0.810083	0.279706
C101	C	0.620511	-0.833489	0.330311
C102	C	0.766345	-0.216383	0.380860
C103	C	0.816279	-0.216385	0.380875
C104	C	0.649185	-0.216342	0.586994
C105	C	0.649193	-0.216327	0.674851
C106	C	0.649248	-0.099201	0.380910
C107	C	0.649282	-0.049267	0.380946
C108	C	0.649174	-0.216384	0.175459
C109	C	0.649253	-0.216273	0.087603
C110	C	0.620496	-0.245009	1.046300
C111	C	0.677998	-0.187549	1.046353
C112	C	0.677986	-0.187559	0.963807
C113	C	0.649229	-0.216294	0.922504
C114	C	0.620484	-0.245021	0.963746
C115	C	0.706733	-0.158836	0.922558
C116	C	0.706723	-0.158845	0.840007
C117	C	0.677963	-0.187579	0.798703
C118	C	0.649217	-0.216306	0.839950
C119	C	0.620460	-0.245041	0.798647
C120	C	0.591711	-0.273767	0.839893
C121	C	0.591725	-0.273754	0.922441
C122	C	0.677950	-0.187591	0.716154
C123	C	0.620448	-0.245053	0.716093
H124	H	0.036387	-0.297132	0.238298
H125	H	0.729971	-0.603074	0.523234
H126	H	0.730022	-0.828939	0.523298
H127	H	-0.094191	-0.164320	0.472763
O128	O	0.708953	-0.156613	0.671664
H129	H	0.728951	-0.136629	0.714253
O130	O	0.589573	-0.953700	0.275745
H131	H	0.609690	-0.932323	0.235564
H132	H	0.121492	-0.297130	0.238288
H133	H	0.729990	-0.688180	0.523264
H134	H	0.597088	-0.268395	1.079886
H135	H	0.701413	-0.164156	1.079987
H136	H	0.478099	-0.268445	0.288908
O137	O	0.484416	-0.156736	0.486073
H138	H	0.460240	-0.136779	0.521285
O139	O	0.386899	-0.156733	0.486091
H140	H	0.411120	-0.136786	0.521310
O141	O	0.268622	-0.128030	0.536737
H142	H	0.244442	-0.108075	0.571945
O143	O	0.708944	-0.953480	0.486094
H144	H	0.728914	-0.977643	0.521281
H145	H	-0.094305	-0.268445	0.288962
O146	O	0.708798	-0.381085	0.485922
H147	H	0.728767	-0.405246	0.521114
H148	H	0.730004	-0.743821	0.523279
H149	H	0.730148	-0.135444	0.956194
H150	H	0.701223	-0.472412	0.472607
H151	H	0.177305	-0.135618	0.523370
O152	O	0.386763	-0.276027	0.275522
H153	H	0.395745	-0.311297	0.288949
O154	O	0.737727	-0.127863	0.795521
H155	H	0.757723	-0.107879	0.838111
H156	H	0.568347	-0.603356	0.238449
O157	O	0.589461	-0.478831	0.275600
H158	H	0.566596	-0.500212	0.310941
H159	H	0.568416	-0.829220	0.238500
O160	O	0.708959	-1.051004	0.486137
H161	H	0.704139	-1.087577	0.477645
H162	H	-0.179314	-0.164322	0.472765
O163	O	0.560690	-0.304757	0.795346
H164	H	0.580773	-0.327620	0.757716
H165	H	-0.179413	-0.268451	0.288986
H166	H	0.568395	-0.744114	0.238479
O167	O	0.589428	-0.276047	0.671551
H168	H	0.594247	-0.271228	0.607219
H169	H	0.568371	-0.688465	0.238462
H170	H	0.177142	-0.297129	0.238265
H171	H	0.036546	-0.135621	0.523377
O172	O	0.589427	-0.381304	0.275583
H173	H	0.594241	-0.344730	0.284084
O174	O	0.560720	-0.304733	0.966932
H175	H	0.568394	-0.339995	0.951056
O176	O	0.589606	-1.051217	0.275765
H177	H	0.554339	-1.042241	0.289264
O178	O	0.268447	-0.304708	0.224870
H179	H	0.244229	-0.324662	0.189657
H180	H	0.121664	-0.135618	0.523376
