data_functionalizedCrystal
_audit_creation_method	'MofGen! by Chris Wilmer'
_symmetry_space_group_name_H-M	'P1'
_symmetry_Int_Tables_number	1
_symmetry_cell_setting	triclinic
loop_
_symmetry_equiv_pos_as_xyz
  x,y,z
_cell_length_a	18.101395
_cell_length_b	19.805407
_cell_length_c	19.805407
_cell_angle_alpha	89.990779
_cell_angle_beta	90.010856
_cell_angle_gamma	89.968896
loop_
_atom_site_label
_atom_site_type_symbol
_atom_site_fract_x
_atom_site_fract_y
_atom_site_fract_z
Zn1	Zn	-0.294951	-1.034644	0.382731
Zn2	Zn	-0.044951	-0.784644	0.632731
Zn3	Zn	0.205049	-0.534644	0.882731
Zn4	Zn	0.455049	-0.284644	1.132731
Zn5	Zn	-0.418764	-1.034570	0.269548
Zn6	Zn	-0.168764	-0.784570	0.519548
Zn7	Zn	0.081236	-0.534570	0.769548
Zn8	Zn	0.331236	-0.284570	1.019548
Zn9	Zn	-0.294941	-0.921480	0.269556
Zn10	Zn	-0.044941	-0.671480	0.519556
Zn11	Zn	0.205059	-0.421480	0.769556
Zn12	Zn	0.455059	-0.171480	1.019556
Zn13	Zn	-0.418755	-0.921413	0.382694
Zn14	Zn	-0.168755	-0.671413	0.632694
Zn15	Zn	0.081245	-0.421413	0.882694
Zn16	Zn	0.331245	-0.171413	1.132694
O17	O	-0.356853	-0.978027	0.326132
O18	O	-0.106853	-0.728027	0.576132
O19	O	0.143147	-0.478027	0.826132
O20	O	0.393147	-0.228027	1.076132
O21	O	-0.311383	-1.129351	0.367729
O22	O	-0.061383	-0.879351	0.617729
O23	O	0.188617	-0.629351	0.867729
O24	O	0.438617	-0.379351	1.117729
O25	O	-0.402338	-1.019565	0.174832
O26	O	-0.152338	-0.769565	0.424832
O27	O	0.097662	-0.519565	0.674832
O28	O	0.347662	-0.269565	0.924832
O29	O	-0.191309	-0.936550	0.284587
O30	O	0.058691	-0.686550	0.534587
O31	O	0.308691	-0.436550	0.784587
O32	O	0.558691	-0.186550	1.034587
O33	O	-0.402348	-1.129297	0.284574
O34	O	-0.152348	-0.879297	0.534574
O35	O	0.097652	-0.629297	0.784574
O36	O	0.347652	-0.379297	1.034574
O37	O	-0.191317	-1.019691	0.367737
O38	O	0.058683	-0.769691	0.617737
O39	O	0.308683	-0.519691	0.867737
O40	O	0.558683	-0.269691	1.117737
O41	O	-0.311365	-0.936478	0.174838
O42	O	-0.061365	-0.686478	0.424838
O43	O	0.188635	-0.436478	0.674838
O44	O	0.438635	-0.186478	0.924838
O45	O	-0.311357	-0.826754	0.284552
O46	O	-0.061357	-0.576754	0.534552
O47	O	0.188643	-0.326754	0.784552
O48	O	0.438643	-0.076754	1.034552
O49	O	-0.402333	-0.936437	0.477416
O50	O	-0.152333	-0.686437	0.727416
O51	O	0.097667	-0.436437	0.977416
O52	O	0.347667	-0.186437	1.227416
O53	O	-0.402323	-0.826706	0.367674
O54	O	-0.152323	-0.576706	0.617674
O55	O	0.097677	-0.326706	0.867674
O56	O	0.347677	-0.076706	1.117674
O57	O	-0.311375	-1.019627	0.477443
O58	O	-0.061375	-0.769627	0.727443
O59	O	0.188625	-0.519627	0.977443
O60	O	0.438625	-0.269627	1.227443
O61	O	-0.522396	-1.019501	0.284538
O62	O	-0.272396	-0.769501	0.534538
O63	O	-0.022396	-0.519501	0.784538
O64	O	0.227604	-0.269501	1.034538
O65	O	-0.522389	-0.936365	0.367667
O66	O	-0.272389	-0.686365	0.617667
O67	O	-0.022389	-0.436365	0.867667
O68	O	0.227611	-0.186365	1.117667
C69	C	-0.549263	-0.977936	0.326112
C70	C	-0.299263	-0.727936	0.576112
C71	C	-0.049263	-0.477936	0.826112
C72	C	0.200737	-0.227936	1.076112
C73	C	-0.631577	-0.977960	0.326126
C74	C	-0.381577	-0.727960	0.576126
C75	C	-0.131577	-0.477960	0.826126
C76	C	0.118423	-0.227960	1.076126
C77	C	-0.356839	-0.802171	0.326110
C78	C	-0.106839	-0.552171	0.576110
C79	C	0.143161	-0.302171	0.826110
C80	C	0.393161	-0.052171	1.076110
C81	C	-0.356850	-0.726939	0.326117
C82	C	-0.106850	-0.476939	0.576117
C83	C	0.143150	-0.226939	0.826117
C84	C	0.393150	0.023061	1.076117
C85	C	-0.356854	-0.978033	0.502675
C86	C	-0.106854	-0.728033	0.752675
C87	C	0.143146	-0.478033	1.002675
C88	C	0.393146	-0.228033	1.252675
C89	C	-0.356855	-0.978036	0.577907
C90	C	-0.106855	-0.728036	0.827907
C91	C	0.143145	-0.478036	1.077907
C92	C	0.393145	-0.228036	1.327907
C93	C	-0.930668	-0.978108	0.326163
C94	C	-0.680668	-0.728108	0.576163
C95	C	-0.430668	-0.478108	0.826163
C96	C	-0.180668	-0.228108	1.076163
C97	C	-0.899370	-0.925922	0.378595
C98	C	-0.649370	-0.675922	0.628595
C99	C	-0.399370	-0.425922	0.878595
C100	C	-0.149370	-0.175922	1.128595
C101	C	-0.813752	-0.925674	0.378431
C102	C	-0.563752	-0.675674	0.628431
C103	C	-0.313752	-0.425674	0.878431
C104	C	-0.063752	-0.175674	1.128431
C105	C	-0.782286	-0.978034	0.326145
C106	C	-0.532286	-0.728034	0.576145
C107	C	-0.282286	-0.478034	0.826145
C108	C	-0.032286	-0.228034	1.076145
C109	C	-0.813415	-0.958736	0.254811
C110	C	-0.563415	-0.708736	0.504811
C111	C	-0.313415	-0.458736	0.754811
C112	C	-0.063415	-0.208736	1.004811
C113	C	-0.899060	-0.958400	0.255125
C114	C	-0.649060	-0.708400	0.505125
C115	C	-0.399060	-0.458400	0.755125
C116	C	-0.149060	-0.208400	1.005125
C117	C	-0.899018	-1.049706	0.344438
C118	C	-0.649018	-0.799706	0.594438
C119	C	-0.399018	-0.549706	0.844438
C120	C	-0.149018	-0.299706	1.094438
C121	C	-0.813367	-1.049285	0.346002
C122	C	-0.563367	-0.799285	0.596002
C123	C	-0.313367	-0.549285	0.846002
C124	C	-0.063367	-0.299285	1.096002
C125	C	-0.698426	-0.977994	0.326131
C126	C	-0.448426	-0.727994	0.576131
C127	C	-0.198426	-0.477994	0.826131
C128	C	0.051574	-0.227994	1.076131
C129	C	-1.014528	-0.978147	0.326172
C130	C	-0.764528	-0.728147	0.576172
C131	C	-0.514528	-0.478147	0.826172
C132	C	-0.264528	-0.228147	1.076172
C133	C	-0.163691	-0.978136	0.326167
C134	C	0.086309	-0.728136	0.576167
C135	C	0.336309	-0.478136	0.826167
C136	C	0.586309	-0.228136	1.076167
C137	C	-0.081377	-0.978183	0.326182
C138	C	0.168623	-0.728183	0.576182
C139	C	0.418623	-0.478183	0.826182
C140	C	0.668623	-0.228183	1.076182
C141	C	-0.356867	-1.154570	0.326155
C142	C	-0.106867	-0.904570	0.576155
C143	C	0.143133	-0.654570	0.826155
C144	C	0.393133	-0.404570	1.076155
C145	C	-0.356874	-1.229802	0.326164
C146	C	-0.106874	-0.979802	0.576164
C147	C	0.143126	-0.729802	0.826164
C148	C	0.393126	-0.479802	1.076164
C149	C	-0.404288	-0.691587	0.369329
C150	C	-0.154288	-0.441587	0.619329
C151	C	0.095712	-0.191587	0.869329
C152	C	0.345712	0.058413	1.119329
C153	C	-0.404289	-0.620899	0.369338
C154	C	-0.154289	-0.370899	0.619338
C155	C	0.095711	-0.120899	0.869338
C156	C	0.345711	0.129101	1.119338
C157	C	-0.356856	-0.585563	0.326132
C158	C	-0.106856	-0.335563	0.576132
C159	C	0.143144	-0.085563	0.826132
C160	C	0.393144	0.164437	1.076132
C161	C	-0.309414	-0.620920	0.282918
C162	C	-0.059414	-0.370920	0.532918
C163	C	0.190586	-0.120920	0.782918
C164	C	0.440586	0.129080	1.032918
C165	C	-0.309409	-0.691607	0.282913
C166	C	-0.059409	-0.441607	0.532913
C167	C	0.190591	-0.191607	0.782913
C168	C	0.440591	0.058393	1.032913
C169	C	-0.309430	-0.335847	0.282941
C170	C	-0.059430	-0.085847	0.532941
C171	C	0.190570	0.164153	0.782941
C172	C	0.440570	0.414153	1.032941
C173	C	-0.309440	-0.265155	0.282948
C174	C	-0.059440	-0.015155	0.532948
C175	C	0.190560	0.234845	0.782948
C176	C	0.440560	0.484845	1.032948
C177	C	-0.404310	-0.265138	0.369366
C178	C	-0.154310	-0.015138	0.619366
C179	C	0.095690	0.234862	0.869366
C180	C	0.345690	0.484862	1.119366
C181	C	-0.404305	-0.335825	0.369361
C182	C	-0.154305	-0.085825	0.619361
C183	C	0.095695	0.164175	0.869361
C184	C	0.345695	0.414175	1.119361
C185	C	-0.356860	-0.371176	0.326150
C186	C	-0.106860	-0.121176	0.576150
C187	C	0.143140	0.128824	0.826150
C188	C	0.393140	0.378824	1.076150
C189	C	-0.356858	-0.447824	0.326141
C190	C	-0.106858	-0.197824	0.576141
C191	C	0.143142	0.052176	0.826141
C192	C	0.393142	0.302176	1.076141
C193	C	-0.356861	-0.508916	0.326137
C194	C	-0.106861	-0.258916	0.576137
C195	C	0.143139	-0.008916	0.826137
C196	C	0.393139	0.241084	1.076137
C197	C	-0.309500	-1.021347	0.613266
C198	C	-0.059500	-0.771347	0.863266
C199	C	0.190500	-0.521347	1.113266
C200	C	0.440500	-0.271347	1.363266
C201	C	-0.309498	-1.021342	0.683955
C202	C	-0.059498	-0.771342	0.933955
C203	C	0.190502	-0.521342	1.183955
C204	C	0.440502	-0.271342	1.433955
C205	C	-0.356855	-0.978027	0.719282
C206	C	-0.106855	-0.728027	0.969282
C207	C	0.143145	-0.478027	1.219282
C208	C	0.393145	-0.228027	1.469282
C209	C	-0.404211	-0.934710	0.683918
C210	C	-0.154211	-0.684710	0.933918
C211	C	0.095789	-0.434710	1.183918
C212	C	0.345789	-0.184710	1.433918
C213	C	-0.404209	-0.934713	0.613231
C214	C	-0.154209	-0.684713	0.863231
C215	C	0.095791	-0.434713	1.113231
C216	C	0.345791	-0.184713	1.363231
C217	C	-0.404220	-0.934697	0.968992
C218	C	-0.154220	-0.684697	1.218992
C219	C	0.095780	-0.434697	1.468992
C220	C	0.345780	-0.184697	1.718992
C221	C	-0.404220	-0.934699	1.039684
C222	C	-0.154220	-0.684699	1.289684
C223	C	0.095780	-0.434699	1.539684
C224	C	0.345780	-0.184699	1.789684
C225	C	-0.309508	-1.021325	1.039715
C226	C	-0.059508	-0.771325	1.289715
C227	C	0.190492	-0.521325	1.539715
C228	C	0.440492	-0.271325	1.789715
C229	C	-0.309506	-1.021328	0.969028
C230	C	-0.059506	-0.771328	1.219028
C231	C	0.190494	-0.521328	1.469028
C232	C	0.440494	-0.271328	1.719028
C233	C	-0.356860	-0.978009	0.933670
C234	C	-0.106860	-0.728009	1.183670
C235	C	0.143140	-0.478009	1.433670
C236	C	0.393140	-0.228009	1.683670
C237	C	-0.356861	-0.978015	0.857021
C238	C	-0.106861	-0.728015	1.107021
C239	C	0.143139	-0.478015	1.357021
C240	C	0.393139	-0.228015	1.607021
C241	C	-0.356858	-0.978024	0.795930
C242	C	-0.106858	-0.728024	1.045930
C243	C	0.143142	-0.478024	1.295930
C244	C	0.393142	-0.228024	1.545930
C245	C	-0.356866	-0.978014	1.150276
C246	C	-0.106866	-0.728014	1.400276
C247	C	0.143134	-0.478014	1.650276
C248	C	0.393134	-0.228014	1.900276
C249	C	-0.356861	-0.978008	1.075044
C250	C	-0.106861	-0.728008	1.325044
C251	C	0.143139	-0.478008	1.575044
C252	C	0.393139	-0.228008	1.825044
H253	H	-0.792705	-0.937747	0.431325
H254	H	-0.542705	-0.687747	0.681325
H255	H	-0.292705	-0.437747	0.931325
H256	H	-0.042705	-0.187747	1.181325
H257	H	-0.270946	-1.056602	0.940267
H258	H	-0.020946	-0.806602	1.190267
H259	H	0.229054	-0.556602	1.440267
H260	H	0.479054	-0.306602	1.690267
H261	H	-0.270939	-1.056621	0.584507
H262	H	-0.020939	-0.806621	0.834507
H263	H	0.229061	-0.556621	1.084507
H264	H	0.479061	-0.306621	1.334507
Br265	Br	-0.932463	-0.871169	0.229322
Br266	Br	-0.682463	-0.621169	0.479322
Br267	Br	-0.432463	-0.371169	0.729322
Br268	Br	-0.182463	-0.121169	0.979322
H269	H	-0.791944	-1.090221	0.310597
H270	H	-0.541944	-0.840221	0.560597
H271	H	-0.291944	-0.590221	0.810597
H272	H	-0.041944	-0.340221	1.060597
Br273	Br	-0.933646	-0.945838	0.467044
Br274	Br	-0.683646	-0.695838	0.717044
Br275	Br	-0.433646	-0.445838	0.967044
Br276	Br	-0.183646	-0.195838	1.217044
H277	H	-0.920582	-1.067303	0.395568
H278	H	-0.670582	-0.817303	0.645568
H279	H	-0.420582	-0.567303	0.895568
H280	H	-0.170582	-0.317303	1.145568
Br281	Br	-0.245262	-1.080156	0.731940
Br282	Br	0.004738	-0.830156	0.981940
Br283	Br	0.254738	-0.580156	1.231940
Br284	Br	0.504738	-0.330156	1.481940
H285	H	-0.919765	-0.994762	0.214726
H286	H	-0.669765	-0.744762	0.464726
H287	H	-0.419765	-0.494762	0.714726
H288	H	-0.169765	-0.244762	0.964726
H289	H	-0.442939	-0.236347	0.404553
H290	H	-0.192939	0.013653	0.654553
H291	H	0.057061	0.263653	0.904553
H292	H	0.307061	0.513653	1.154553
H293	H	-0.442763	-0.899437	0.584442
H294	H	-0.192763	-0.649437	0.834442
H295	H	0.057237	-0.399437	1.084442
H296	H	0.307237	-0.149437	1.334442
H297	H	-0.442785	-0.899424	1.068446
H298	H	-0.192785	-0.649424	1.318446
H299	H	0.057215	-0.399424	1.568446
H300	H	0.307215	-0.149424	1.818446
H301	H	-0.442915	-0.720352	0.404510
H302	H	-0.192915	-0.470352	0.654510
H303	H	0.057085	-0.220352	0.904510
H304	H	0.307085	0.029648	1.154510
H305	H	-0.920953	-0.873175	0.366642
H306	H	-0.670953	-0.623175	0.616642
H307	H	-0.420953	-0.373175	0.866642
H308	H	-0.170953	-0.123175	1.116642
H309	H	-0.270948	-1.056595	1.068512
H310	H	-0.020948	-0.806595	1.318512
H311	H	0.229052	-0.556595	1.568512
H312	H	0.479052	-0.306595	1.818512
Br313	Br	-0.779699	-0.837219	0.358260
Br314	Br	-0.529699	-0.587219	0.608260
Br315	Br	-0.279699	-0.337219	0.858260
Br316	Br	-0.029699	-0.087219	1.108260
H317	H	-0.442768	-0.899440	0.712688
H318	H	-0.192768	-0.649440	0.962688
H319	H	0.057232	-0.399440	1.212688
H320	H	0.307232	-0.149440	1.462688
Br321	Br	-0.779447	-1.020095	0.187919
Br322	Br	-0.529447	-0.770095	0.437919
Br323	Br	-0.279447	-0.520095	0.687919
Br324	Br	-0.029447	-0.270095	0.937919
Br325	Br	-0.777769	-0.872427	0.228544
Br326	Br	-0.527769	-0.622427	0.478544
Br327	Br	-0.277769	-0.372427	0.728544
Br328	Br	-0.027769	-0.122427	0.978544
H329	H	-0.793021	-1.063838	0.398500
H330	H	-0.543021	-0.813838	0.648500
H331	H	-0.293021	-0.563838	0.898500
H332	H	-0.043021	-0.313838	1.148500
Br333	Br	-0.468485	-0.875906	0.921014
Br334	Br	-0.218485	-0.625906	1.171014
Br335	Br	0.031515	-0.375906	1.421014
Br336	Br	0.281515	-0.125906	1.671014
H337	H	-0.919256	-1.088586	0.306249
H338	H	-0.669256	-0.838586	0.556249
H339	H	-0.419256	-0.588586	0.806249
H340	H	-0.169256	-0.338586	1.056249
H341	H	-0.270803	-0.364621	0.247751
H342	H	-0.020803	-0.114621	0.497751
H343	H	0.229197	0.135379	0.747751
H344	H	0.479197	0.385379	0.997751
Br345	Br	-0.468685	-0.383777	0.427996
Br346	Br	-0.218685	-0.133777	0.677996
Br347	Br	0.031315	0.116223	0.927996
Br348	Br	0.281315	0.366223	1.177996
Br349	Br	-0.468669	-0.572924	0.427987
Br350	Br	-0.218669	-0.322924	0.677987
Br351	Br	0.031331	-0.072924	0.927987
Br352	Br	0.281331	0.177076	1.177987
H353	H	-0.270810	-0.236387	0.247765
H354	H	-0.020810	0.013613	0.497765
H355	H	0.229190	0.263613	0.747765
H356	H	0.479190	0.513613	0.997765
H357	H	-0.270790	-0.592144	0.247742
H358	H	-0.020790	-0.342144	0.497742
H359	H	0.229210	-0.092144	0.747742
H360	H	0.479210	0.157856	0.997742
Br361	Br	-0.245023	-0.739586	0.224270
Br362	Br	0.004977	-0.489586	0.474270
Br363	Br	0.254977	-0.239586	0.724270
Br364	Br	0.504977	0.010414	0.974270
