data_functionalizedCrystal
_audit_creation_method	'MofGen! by Chris Wilmer'
_symmetry_space_group_name_H-M	'P1'
_symmetry_Int_Tables_number	1
_symmetry_cell_setting	triclinic
loop_
_symmetry_equiv_pos_as_xyz
  x,y,z
_cell_length_a	34.571875
_cell_length_b	34.571051
_cell_length_c	34.567439
_cell_angle_alpha	60.004367
_cell_angle_beta	60.008842
_cell_angle_gamma	59.994195
loop_
_atom_site_label
_atom_site_type_symbol
_atom_site_fract_x
_atom_site_fract_y
_atom_site_fract_z
O1	O	0.053721	-0.565181	0.472559
O2	O	0.020283	-0.440038	0.380761
O3	O	0.099534	-0.519209	0.380676
O4	O	-0.025530	-0.486010	0.472643
O5	O	0.125831	-0.492917	0.406885
O6	O	0.046580	-0.413746	0.406969
O7	O	0.080018	-0.538889	0.498767
Zn8	Zn	0.067475	-0.472143	0.457030
Zn9	Zn	0.032827	-0.506784	0.422498
O10	O	0.000767	-0.459718	0.498852
N11	N	0.091122	-0.448505	0.480598
N12	N	0.009184	-0.530426	0.398930
C13	C	0.124402	-0.415465	0.717633
C14	C	0.328327	-0.415388	0.513477
C15	C	0.124221	-0.415437	0.513630
C16	C	0.124201	-0.211364	0.513624
C17	C	0.157075	-0.309853	0.546423
C18	C	0.157084	-0.382601	0.546423
C19	C	0.175289	-0.364414	0.564591
C20	C	0.254624	-0.350722	0.522790
C21	C	0.304220	-0.367243	0.506229
C22	C	0.304249	-0.447494	0.536832
C23	C	0.254655	-0.430972	0.553394
C24	C	0.169014	-0.285043	0.497667
C25	C	0.152454	-0.235444	0.481153
C26	C	0.112020	-0.235469	0.562154
C27	C	0.128580	-0.285068	0.578668
C28	C	0.108321	-0.370634	0.558439
C29	C	0.091776	-0.387168	0.541918
C30	C	0.172754	-0.427637	0.501375
C31	C	0.189301	-0.411103	0.517891
C32	C	0.108399	-0.370649	0.643978
C33	C	0.091911	-0.387197	0.693575
C34	C	0.172928	-0.427676	0.693511
C35	C	0.189415	-0.411128	0.643912
C36	C	0.157149	-0.382613	0.619147
C37	C	0.229844	-0.382585	0.546371
C38	C	0.105624	-0.433333	0.772186
C39	C	0.382878	-0.432925	0.495007
C40	C	0.105380	-0.433313	0.495792
C41	C	0.105683	-0.156808	0.496094
C42	C	-0.023527	-0.563458	0.161535
C43	C	-0.023851	-0.767445	0.365663
C44	C	-0.023821	-0.563448	0.365756
C45	C	-0.227785	-0.563229	0.365355
C46	C	-0.129302	-0.596153	0.332678
C47	C	-0.056593	-0.596234	0.332823
C48	C	-0.074746	-0.614396	0.314578
C49	C	-0.088477	-0.693710	0.356299
C50	C	-0.071982	-0.743310	0.372851
C51	C	0.008266	-0.743392	0.342376
C52	C	-0.008230	-0.693794	0.325823
C53	C	-0.154162	-0.608103	0.381422
C54	C	-0.203757	-0.591517	0.397874
C55	C	-0.203630	-0.551037	0.316836
C56	C	-0.154034	-0.567623	0.300384
C57	C	-0.068543	-0.547475	0.320829
C58	C	-0.052041	-0.530969	0.337421
C59	C	-0.011639	-0.611977	0.377990
C60	C	-0.028141	-0.628485	0.361404
C61	C	-0.068417	-0.547482	0.235199
C62	C	-0.051814	-0.530977	0.185602
C63	C	-0.011349	-0.611990	0.185649
C64	C	-0.027951	-0.628493	0.235248
C65	C	-0.056486	-0.596238	0.260022
C66	C	-0.056602	-0.668955	0.332787
C67	C	-0.005599	-0.544662	0.106983
C68	C	-0.006342	-0.821999	0.384121
C69	C	-0.005979	-0.544649	0.383673
C70	C	-0.282336	-0.544682	0.382817
N71	N	0.427518	-0.448428	0.480350
O72	O	0.589573	-0.456297	0.363634
O73	O	0.589761	-0.548399	0.488643
O74	O	0.589681	-0.548188	0.409364
O75	O	0.589654	-0.456508	0.442913
O76	O	0.510890	-0.521988	0.435708
O77	O	0.510970	-0.522199	0.514987
O78	O	0.510782	-0.430098	0.389978
Zn79	Zn	0.498366	-0.471989	0.456665
Zn80	Zn	0.602177	-0.506508	0.421956
O81	O	0.510862	-0.430308	0.469257
N82	N	0.673025	-0.530068	0.398267
N83	N	0.091092	-0.112167	0.480590
O84	O	-0.025539	0.049976	0.472612
O85	O	0.099472	0.050011	0.380491
O86	O	0.020155	0.049979	0.380751
O87	O	0.053778	0.050009	0.472352
O88	O	0.046458	-0.028818	0.407008
O89	O	0.125775	-0.028785	0.406748
O90	O	0.000764	-0.028821	0.498869
Zn91	Zn	0.067445	-0.041314	0.456977
Zn92	Zn	0.032791	0.062504	0.422382
O93	O	0.080081	-0.028788	0.498609
N94	N	0.009138	0.133358	0.398771
N95	N	0.091421	-0.448552	0.816827
O96	O	0.083469	-0.565164	0.978960
O97	O	-0.008614	-0.440110	0.979002
O98	O	-0.008399	-0.519410	0.978978
O99	O	0.083253	-0.485863	0.978984
O100	O	0.017837	-0.493128	0.900185
O101	O	0.017621	-0.413827	0.900208
O102	O	0.109704	-0.538881	0.900167
Zn103	Zn	0.067828	-0.472181	0.887677
Zn104	Zn	0.033262	-0.506810	0.991491
O105	O	0.109489	-0.459581	0.900191
N106	N	0.009668	-0.530444	1.062341
C107	C	0.030297	-0.411123	0.381218
C108	C	0.128439	-0.509167	0.381113
C109	C	0.070004	-0.567805	0.498310
C110	C	-0.028138	-0.469761	0.498415
C111	C	0.550388	-0.547982	0.517564
C112	C	0.550290	-0.547721	0.419387
C113	C	0.550153	-0.430514	0.361058
C114	C	0.550253	-0.430775	0.459234
C115	C	0.128339	0.010714	0.380902
C116	C	0.030148	0.010577	0.381256
C117	C	-0.028136	0.010574	0.498426
C118	C	0.070089	0.010613	0.498104
C119	C	-0.008178	-0.411214	0.939610
C120	C	-0.007906	-0.509413	0.939566
C121	C	0.109268	-0.567777	0.939558
C122	C	0.109002	-0.469572	0.939586
H123	H	0.052212	-0.377448	0.713786
O124	O	0.550265	-0.396370	0.467708
C125	C	0.550186	-0.355469	0.427043
H126	H	0.565074	-0.365803	0.394466
H127	H	0.573052	-0.337803	0.422873
H128	H	0.512369	-0.329726	0.430907
O129	O	-0.071010	-0.461375	0.532855
C130	C	-0.092009	-0.493922	0.545626
H131	H	-0.076344	-0.507744	0.515235
H132	H	-0.131870	-0.475540	0.553421
H133	H	-0.084794	-0.524801	0.578548
H134	H	0.138179	-0.603691	0.939539
O135	O	-0.016418	-0.675863	0.259338
C136	C	-0.033348	-0.696436	0.247157
H137	H	-0.063899	-0.668172	0.233463
H138	H	-0.046269	-0.725650	0.279762
H139	H	-0.003568	-0.712121	0.218399
H140	H	0.550303	-0.576522	0.412207
H141	H	0.022945	0.010574	0.352477
O142	O	0.171288	-0.517680	0.346674
C143	C	0.179752	-0.556014	0.335727
H144	H	0.157619	-0.578781	0.367061
H145	H	0.218919	-0.578322	0.328031
H146	H	0.169564	-0.541937	0.303239
H147	H	-0.036687	-0.516580	0.939532
H148	H	0.137795	-0.462392	0.939581
O149	O	0.078764	0.010592	0.532396
C150	C	0.125329	0.010617	0.515114
H151	H	0.147725	-0.004292	0.484696
H152	H	0.141297	-0.012262	0.544771
H153	H	0.124621	0.048422	0.501901
O154	O	-0.070930	0.010482	0.532968
C155	C	-0.064657	-0.030318	0.572890
H156	H	-0.029966	-0.058838	0.561466
H157	H	-0.095384	-0.044026	0.589865
H158	H	-0.063550	-0.021083	0.599620
O159	O	0.550147	-0.395999	0.318227
C160	C	0.590934	-0.383247	0.297218
H161	H	0.604578	-0.392841	0.325924
H162	H	0.581707	-0.343475	0.277398
H163	H	0.619497	-0.403114	0.271343
H164	H	-0.037087	-0.375298	0.939623
H165	H	0.164166	0.010943	0.351910
O166	O	0.077036	-0.343019	0.619941
C167	C	0.048357	-0.368064	0.632089
H168	H	0.067526	-0.407745	0.645706
H169	H	0.040827	-0.359187	0.599487
H170	H	0.013528	-0.357514	0.660897
O171	O	0.204290	-0.455434	0.717543
C172	C	0.232978	-0.497018	0.705393
H173	H	0.213813	-0.503923	0.691781
H174	H	0.240517	-0.528264	0.737994
H175	H	0.267803	-0.492493	0.676582
O176	O	0.077005	-0.342878	0.586082
C177	C	0.048291	-0.301286	0.561069
H178	H	0.067413	-0.294378	0.521385
H179	H	0.040794	-0.270047	0.569947
H180	H	0.013448	-0.305801	0.571649
O181	O	0.236762	-0.422670	0.619740
C182	C	0.248724	-0.380989	0.591058
H183	H	0.216023	-0.349829	0.583654
H184	H	0.277463	-0.385415	0.556168
H185	H	0.262357	-0.374021	0.610156
O186	O	0.196669	-0.309047	0.466282
C187	C	0.203659	-0.276510	0.419706
H188	H	0.173747	-0.241162	0.419818
H189	H	0.203896	-0.290837	0.396169
H190	H	0.238986	-0.271223	0.405469
O191	O	0.550534	-0.582491	0.560375
C192	C	0.591354	-0.593454	0.568843
H193	H	0.619838	-0.582940	0.533662
H194	H	0.605096	-0.633127	0.587971
H195	H	0.582135	-0.573162	0.591742
O196	O	0.044403	-0.375605	0.553671
C197	C	0.023848	-0.392577	0.603351
H198	H	0.052115	-0.423162	0.619310
H199	H	-0.005383	-0.405466	0.612863
H200	H	0.008192	-0.362829	0.618051
H201	H	0.198991	-0.450848	0.478149
H202	H	0.229008	-0.420842	0.508101
H203	H	0.324452	-0.486894	0.542541
O204	O	0.230603	-0.461934	0.576223
C205	C	0.242709	-0.485163	0.545875
H206	H	0.256311	-0.462574	0.507478
H207	H	0.210090	-0.490745	0.551753
H208	H	0.271514	-0.520954	0.553851
O209	O	0.328220	-0.336224	0.483312
C210	C	0.295686	-0.289975	0.480675
H211	H	0.260325	-0.288050	0.483948
H212	H	0.309989	-0.263758	0.445224
H213	H	0.290435	-0.280718	0.510720
O214	O	0.078518	-0.610726	0.532665
C215	C	0.089655	-0.646407	0.516400
H216	H	0.074380	-0.630245	0.486971
H217	H	0.073816	-0.674767	0.546935
H218	H	0.129773	-0.663061	0.502144
O219	O	0.163989	-0.211266	0.433804
C220	C	0.143274	-0.162174	0.426143
H221	H	0.111456	-0.155415	0.458703
H222	H	0.131211	-0.143319	0.394013
H223	H	0.170405	-0.148091	0.419516
O224	O	0.084398	-0.211439	0.593517
C225	C	0.109478	-0.223540	0.622153
H226	H	0.138360	-0.259545	0.622624
H227	H	0.084057	-0.225246	0.659774
H228	H	0.126298	-0.195614	0.607219
O229	O	-0.063494	-0.483607	0.161516
C230	C	-0.113164	-0.462969	0.173569
H231	H	-0.129160	-0.491186	0.187169
H232	H	-0.122607	-0.433730	0.140922
H233	H	-0.127888	-0.447302	0.202360
O234	O	-0.096061	-0.516132	0.259248
C235	C	-0.071009	-0.487488	0.247170
H236	H	-0.031331	-0.506676	0.233588
H237	H	-0.079916	-0.479988	0.279800
H238	H	-0.081522	-0.452640	0.218358
H239	H	0.234427	-0.311322	0.517070
H240	H	0.011877	-0.638258	0.165483
O241	O	-0.096252	-0.516125	0.293141
C242	C	-0.137855	-0.487408	0.318135
H243	H	-0.144808	-0.506548	0.357824
H244	H	-0.169069	-0.479876	0.309195
H245	H	-0.133332	-0.452580	0.307596
H246	H	-0.061773	-0.491265	0.327657
O247	O	0.015980	-0.643371	0.405762
C248	C	0.022998	-0.689946	0.412774
H249	H	-0.006881	-0.689823	0.407167
H250	H	0.023199	-0.713486	0.450410
H251	H	0.058350	-0.704189	0.386418
H252	H	0.118851	-0.305270	0.618371
H253	H	-0.018411	-0.668189	0.371171
H254	H	0.047655	-0.763617	0.336709
O255	O	0.022788	-0.669796	0.302935
C256	C	0.056491	-0.681940	0.262065
H257	H	0.058817	-0.717943	0.266534
H258	H	0.092576	-0.683673	0.256708
H259	H	0.045334	-0.654025	0.229904
O260	O	-0.103008	-0.767284	0.395669
C261	C	-0.126216	-0.755163	0.365293
H262	H	-0.125006	-0.719185	0.337025
H263	H	-0.164678	-0.753387	0.386710
H264	H	-0.107733	-0.783114	0.347583
O265	O	-0.130209	-0.635795	0.412855
C266	C	-0.162788	-0.642790	0.459407
H267	H	-0.198120	-0.612858	0.459262
H268	H	-0.148498	-0.643064	0.482999
H269	H	-0.168089	-0.678103	0.473603
O270	O	-0.227963	-0.603142	0.445216
C271	C	-0.256650	-0.628079	0.457138
H272	H	-0.264022	-0.619127	0.424414
H273	H	-0.291554	-0.617492	0.485859
H274	H	-0.237573	-0.667783	0.470782
O275	O	-0.135445	-0.669525	0.362972
C276	C	-0.142110	-0.640851	0.318664
H277	H	-0.107983	-0.633467	0.291077
H278	H	-0.171872	-0.605950	0.321481
H279	H	-0.151866	-0.659948	0.307605
O280	O	-0.227585	-0.523315	0.285403
C281	C	-0.195007	-0.516344	0.238850
H282	H	-0.159669	-0.521921	0.239001
H283	H	-0.209288	-0.478727	0.215270
H284	H	-0.189722	-0.542744	0.224635
H285	H	0.023152	-0.375173	0.352387
H286	H	-0.133793	-0.557888	0.260690
