data_functionalizedCrystal
_audit_creation_method	'MofGen! by Chris Wilmer'
_symmetry_space_group_name_H-M	'P1'
_symmetry_Int_Tables_number	1
_symmetry_cell_setting	triclinic
loop_
_symmetry_equiv_pos_as_xyz
  x,y,z
_cell_length_a	19.077115
_cell_length_b	16.625545
_cell_length_c	19.076919
_cell_angle_alpha	92.272080
_cell_angle_beta	90.076897
_cell_angle_gamma	87.721928
loop_
_atom_site_label
_atom_site_type_symbol
_atom_site_fract_x
_atom_site_fract_y
_atom_site_fract_z
Zn1	Zn	1.058263	-0.390076	-0.440407
Zn2	Zn	1.062901	-0.519719	-0.322901
Zn3	Zn	0.945481	-0.379275	-0.318202
Zn4	Zn	0.940723	-0.519233	-0.435655
O5	O	1.001842	-0.452076	-0.379291
O6	O	1.157210	-0.411997	-0.428775
O7	O	1.051257	-0.496772	-0.223946
O8	O	0.960493	-0.267879	-0.334435
O9	O	1.160617	-0.507246	-0.342444
O10	O	1.043353	-0.275814	-0.424219
O11	O	0.964990	-0.393588	-0.220494
O12	O	0.846518	-0.393117	-0.329827
O13	O	0.952382	-0.506417	-0.534617
O14	O	0.843022	-0.495943	-0.416119
O15	O	1.038739	-0.411526	-0.538108
O16	O	1.046643	-0.632484	-0.337836
O17	O	0.956879	-0.632127	-0.420676
C18	C	0.819274	-0.443306	-0.371948
C19	C	0.741170	-0.439574	-0.368823
C20	C	0.301720	-0.412775	-0.346417
C21	C	0.375107	-0.416286	-0.349357
C22	C	0.409999	-0.471659	-0.395682
C23	C	0.371500	-0.523519	-0.439075
C24	C	0.298114	-0.520004	-0.436138
C25	C	0.629285	-0.487919	-0.409279
C26	C	0.702676	-0.491432	-0.412211
C27	C	0.706278	-0.384197	-0.322494
C28	C	0.632891	-0.380690	-0.319558
C29	C	0.594398	-0.432547	-0.362953
N30	N	0.485012	-0.475251	-0.398687
N31	N	0.519386	-0.428951	-0.359952
C32	C	1.001767	-0.661562	-0.379266
C33	C	1.001798	-0.751185	-0.379281
C34	C	1.001824	-0.823970	-0.379296
C35	C	1.001865	-0.915281	-0.379314
C36	C	1.001901	-0.988059	-0.379324
C37	C	1.001940	-1.079376	-0.379340
C38	C	1.185123	-0.460881	-0.386664
C39	C	1.263226	-0.464633	-0.389805
C40	C	0.994512	-0.460122	-0.562571
C41	C	0.991389	-0.463551	-0.640675
C42	C	1.001936	-0.241773	-0.379333
C43	C	1.001976	-0.152155	-0.379350
C44	C	1.034880	-0.415759	-0.679187
C45	C	1.031937	-0.418978	-0.752572
C46	C	0.985505	-0.469992	-0.787445
C47	C	0.942009	-0.517786	-0.748928
C48	C	0.944949	-0.514563	-0.675543
C49	C	0.971887	-0.484925	-1.006726
C50	C	0.968952	-0.488147	-1.080116
C51	C	1.058879	-0.389337	-1.083756
C52	C	1.061818	-0.386122	-1.010370
C53	C	1.018319	-0.433912	-0.971859
N54	N	0.982497	-0.473285	-0.862457
N55	N	1.021324	-0.430615	-0.896848
C56	C	1.009183	-0.444005	-0.196726
C57	C	1.012443	-0.440355	-0.118628
H58	H	0.731083	-0.536524	-0.449938
H59	H	0.406445	-0.374061	-0.314023
O60	O	1.106811	-0.336486	-0.976429
C61	C	1.119579	-0.224363	-0.894053
C62	C	1.068556	-0.280548	-0.932423
H63	H	1.088669	-0.179113	-0.858476
H64	H	1.157690	-0.261550	-0.861108
H65	H	1.150154	-0.190796	-0.934215
H66	H	1.037933	-0.314127	-0.892310
H67	H	1.030490	-0.243318	-0.965380
H68	H	1.094292	-0.350428	-1.115119
O69	O	0.923939	-0.537788	-1.114032
C70	C	0.911104	-0.649784	-1.196526
C71	C	0.962157	-0.593641	-1.158150
H72	H	0.941982	-0.694945	-1.232216
H73	H	0.880524	-0.683449	-1.156433
H74	H	0.873000	-0.612478	-1.229379
H75	H	1.000303	-0.630887	-1.125298
H76	H	0.992686	-0.559973	-1.198279
O77	O	0.902730	-0.560910	-0.638023
C78	C	0.867434	-0.599769	-0.523356
C79	C	0.915278	-0.547227	-0.565760
H80	H	0.877572	-0.588738	-0.464924
H81	H	0.810189	-0.583516	-0.535452
H82	H	0.879155	-0.666003	-0.538308
H83	H	0.903619	-0.480978	-0.550831
H84	H	0.972509	-0.563548	-0.553660
H85	H	0.936478	-0.523852	-0.975380
H86	H	0.399915	-0.568602	-0.476796
O87	O	0.260791	-0.570345	-0.478386
C88	C	0.233535	-0.613824	-0.596958
C89	C	0.275857	-0.556787	-0.549187
H90	H	0.245689	-0.602871	-0.654210
H91	H	0.248441	-0.678981	-0.585156
H92	H	0.175097	-0.601807	-0.586866
H93	H	0.334305	-0.568732	-0.559252
H94	H	0.260892	-0.491649	-0.560999
O95	O	0.599102	-0.326937	-0.274448
C96	C	0.581450	-0.281318	-0.154064
C97	C	0.619760	-0.342226	-0.205088
H98	H	0.598126	-0.293669	-0.097973
H99	H	0.595432	-0.217549	-0.167019
H100	H	0.522384	-0.287680	-0.159426
H101	H	0.678833	-0.335938	-0.199753
H102	H	0.605720	-0.405971	-0.192117
H103	H	0.737626	-0.341977	-0.287165
O104	O	0.896965	-0.567322	-0.782912
C105	C	0.852551	-0.616044	-0.894348
C106	C	0.903606	-0.559920	-0.855953
H107	H	0.857892	-0.610066	-0.953408
H108	H	0.865436	-0.681038	-0.880455
H109	H	0.796484	-0.598534	-0.877598
H110	H	0.959689	-0.577358	-0.872683
H111	H	0.890660	-0.494941	-0.869848
H112	H	0.273316	-0.367685	-0.308694
H113	H	1.072693	-0.374220	-0.650799
O114	O	0.592008	-0.538386	-0.451446
C115	C	0.596187	-0.645109	-0.540752
C116	C	0.638493	-0.588006	-0.493028
H117	H	0.633751	-0.685230	-0.574393
H118	H	0.563123	-0.684197	-0.507075
H119	H	0.560357	-0.608127	-0.576154
H120	H	0.674362	-0.624924	-0.457618
H121	H	0.671511	-0.548916	-0.526747
H122	H	1.067354	-0.380063	-0.783926
