data_functionalizedCrystal
_audit_creation_method	'MofGen! by Chris Wilmer'
_symmetry_space_group_name_H-M	'P1'
_symmetry_Int_Tables_number	1
_symmetry_cell_setting	triclinic
loop_
_symmetry_equiv_pos_as_xyz
  x,y,z
_cell_length_a	17.699083
_cell_length_b	17.699083
_cell_length_c	16.776229
_cell_angle_alpha	89.992455
_cell_angle_beta	89.998886
_cell_angle_gamma	83.283015
loop_
_atom_site_label
_atom_site_type_symbol
_atom_site_fract_x
_atom_site_fract_y
_atom_site_fract_z
O1	O	1.004078	0.095713	-0.066178
O2	O	0.783700	0.108165	-0.066204
O3	O	0.900116	-0.008250	-0.066183
O4	O	0.887663	0.212128	-0.066199
O5	O	0.900100	-0.008257	0.066393
O6	O	0.783685	0.108158	0.066372
O7	O	1.004063	0.095706	0.066398
Zn8	Zn	0.893871	0.101931	0.087435
Zn9	Zn	0.893892	0.101940	-0.087241
O10	O	0.887648	0.212121	0.066378
C11	C	0.755495	0.107716	0.000081
C12	C	0.671477	0.106377	0.000071
C13	C	0.622856	0.174710	0.000066
C14	C	0.543913	0.173448	0.000077
C15	C	0.513592	0.103852	0.000086
C16	C	0.562219	0.035513	0.000093
C17	C	0.641161	0.036776	0.000088
C18	C	0.243856	0.030418	0.000113
C19	C	0.164908	0.029160	0.000115
C20	C	0.146608	0.167090	0.000101
C21	C	0.225550	0.168353	0.000097
C22	C	0.274170	0.100015	0.000108
C23	C	0.359769	0.101384	0.000098
C24	C	0.427995	0.102481	0.000090
C25	C	0.899662	-0.036451	0.000105
C26	C	0.898323	-0.120469	0.000105
C27	C	0.966656	-0.169090	0.000114
C28	C	0.965394	-0.248033	0.000107
C29	C	0.895798	-0.278354	0.000096
C30	C	0.827459	-0.229727	0.000085
C31	C	0.828722	-0.150785	0.000086
C32	C	0.822364	-0.548090	0.000078
C33	C	0.821106	-0.627038	0.000078
C34	C	0.959036	-0.645338	0.000099
C35	C	0.960299	-0.566396	0.000100
C36	C	0.891961	-0.517776	0.000084
C37	C	0.893330	-0.432177	0.000090
C38	C	0.894427	-0.363951	0.000096
C39	C	1.032268	0.096156	0.000112
C40	C	1.116286	0.097494	0.000116
C41	C	0.888102	0.240322	0.000087
C42	C	0.889440	0.324340	0.000082
N43	N	0.893863	0.101924	0.206646
N44	N	0.893906	0.101941	-0.206452
C45	C	0.945428	0.050396	0.248372
C46	C	0.945432	0.050396	0.331824
C47	C	0.893875	0.101927	0.373549
C48	C	0.842305	0.153457	0.331817
C49	C	0.842297	0.153454	0.248366
C50	C	0.842332	0.153472	0.668364
C51	C	0.842345	0.153473	0.751820
C52	C	0.945466	0.050414	0.751822
C53	C	0.945459	0.050411	0.668372
C54	C	0.893887	0.101938	0.626647
C55	C	0.893882	0.101937	0.536158
C56	C	0.893882	0.101932	0.464036
H57	H	0.647537	0.231384	0.000058
H58	H	0.504328	0.229092	0.000072
H59	H	0.800342	0.195428	0.634398
Br60	Br	0.266696	0.262808	0.000077
H61	H	0.107012	0.222734	0.000097
H62	H	0.773078	-0.111198	0.000078
Br63	Br	0.772327	0.223389	0.388439
H64	H	0.987444	0.008452	0.634402
H65	H	0.140225	-0.027517	0.000124
Br66	Br	0.309831	-0.062327	0.000130
H67	H	0.537526	-0.021154	0.000112
Br68	Br	1.051783	-0.711327	0.000120
H69	H	0.987414	0.008437	0.214406
H70	H	0.770792	-0.254420	0.000071
Br71	Br	0.772309	0.223382	0.191737
H72	H	0.680748	-0.018868	0.000091
H73	H	0.764429	-0.651721	0.000071
H74	H	0.766718	-0.508512	0.000065
H75	H	1.021038	-0.287618	0.000116
H76	H	1.023330	-0.144409	0.000128
Br77	Br	1.015410	-0.019538	0.388456
H78	H	0.987457	0.008456	0.785804
H79	H	1.016971	-0.541714	0.000113
Br80	Br	0.772370	0.223414	0.808447
