data_functionalizedCrystal
_audit_creation_method	'MofGen! by Chris Wilmer'
_symmetry_space_group_name_H-M	'P1'
_symmetry_Int_Tables_number	1
_symmetry_cell_setting	triclinic
loop_
_symmetry_equiv_pos_as_xyz
  x,y,z
_cell_length_a	17.699083
_cell_length_b	14.971486
_cell_length_c	16.776229
_cell_angle_alpha	89.992388
_cell_angle_beta	90.004823
_cell_angle_gamma	83.448572
loop_
_atom_site_label
_atom_site_type_symbol
_atom_site_fract_x
_atom_site_fract_y
_atom_site_fract_z
O1	O	-1.004350	-0.113114	0.066177
O2	O	-0.784008	-0.127831	0.066203
O3	O	-0.900085	0.009748	0.066184
O4	O	-0.888273	-0.250693	0.066196
O5	O	-0.900083	0.009760	-0.066393
O6	O	-0.784006	-0.127818	-0.066374
O7	O	-1.004348	-0.113102	-0.066400
Zn8	Zn	-0.894177	-0.120458	-0.087436
Zn9	Zn	-0.894179	-0.120474	0.087239
O10	O	-0.888271	-0.250681	-0.066380
C11	C	-0.755809	-0.127297	-0.000082
C12	C	-0.671787	-0.125715	-0.000072
C13	C	-0.899556	0.043077	-0.000104
C14	C	-0.897973	0.142368	-0.000104
C15	C	-1.032547	-0.113636	-0.000113
C16	C	-1.116569	-0.115218	-0.000118
C17	C	-0.623365	-0.206471	-0.000068
C18	C	-0.544418	-0.204979	-0.000079
C19	C	-0.513894	-0.122731	-0.000087
C20	C	-0.562323	-0.041969	-0.000093
C21	C	-0.641268	-0.043462	-0.000089
C22	C	-0.243945	-0.035947	-0.000113
C23	C	-0.164993	-0.034461	-0.000116
C24	C	-0.147094	-0.197465	-0.000103
C25	C	-0.226040	-0.198958	-0.000099
C26	C	-0.274461	-0.118196	-0.000109
C27	C	-0.360064	-0.119815	-0.000099
C28	C	-0.428293	-0.121111	-0.000091
C29	C	-0.888801	-0.284010	-0.000091
C30	C	-0.890384	-0.383301	-0.000086
N31	N	-0.894180	-0.120447	-0.206647
C32	C	-0.966165	0.199828	-0.000112
C33	C	-0.964673	0.293123	-0.000104
C34	C	-0.894988	0.328955	-0.000093
C35	C	-0.826791	0.271488	-0.000082
C36	C	-0.828284	0.178196	-0.000084
C37	C	-0.823685	0.465940	-0.000079
C38	C	-0.822192	0.559239	-0.000078
C39	C	-0.960074	0.580867	-0.000098
C40	C	-0.961566	0.487574	-0.000101
C41	C	-0.893369	0.430114	-0.000091
N42	N	-0.894182	-0.120479	0.206451
C43	C	-0.945676	-0.059679	0.248159
C44	C	-0.945679	-0.059676	0.331611
C45	C	-0.894183	-0.120471	0.373353
C46	C	-0.842686	-0.181277	0.331639
C47	C	-0.842688	-0.181283	0.248188
C48	C	-0.842680	-0.181256	0.668186
C49	C	-0.842682	-0.181243	0.751643
C50	C	-0.945672	-0.059649	0.751609
C51	C	-0.945673	-0.059655	0.668158
C52	C	-0.894179	-0.120464	0.626451
C53	C	-0.894178	-0.120467	0.535963
C54	C	-0.894181	-0.120464	0.463840
H55	H	-0.648210	-0.273447	-0.000061
H56	H	-0.765448	0.588411	-0.000081
H57	H	-0.680693	0.022298	-0.000091
O58	O	-0.995666	-0.000478	0.627699
C59	C	-0.983422	0.088099	0.648058
H60	H	-0.954255	0.088019	0.708651
H61	H	-1.040332	0.132113	0.650901
H62	H	-0.945781	0.115791	0.601088
H63	H	-1.022910	0.170661	-0.000126
H64	H	-0.770052	0.300671	-0.000068
H65	H	-1.015603	0.627656	-0.000104
H66	H	-0.800756	-0.230794	0.214230
H67	H	-0.987604	-0.010137	0.785576
O68	O	-0.757368	0.410249	-0.000103
C69	C	-0.695541	0.461878	-0.000074
H70	H	-0.714687	0.531556	-0.025175
H71	H	-0.647756	0.427364	-0.038559
H72	H	-0.674187	0.468464	0.063533
H73	H	-0.800746	-0.230753	0.785628
O74	O	-0.761972	0.122504	-0.000111
C75	C	-0.700145	0.174133	-0.000080
H76	H	-0.719289	0.243809	-0.025185
H77	H	-0.652357	0.139617	-0.038561
H78	H	-0.678794	0.180722	0.063527
H79	H	-1.020202	0.339903	-0.000113
O80	O	-0.291049	0.042444	-0.000007
C81	C	-0.337227	0.046465	0.068668
H82	H	-0.341286	-0.024524	0.091560
H83	H	-0.396529	0.079923	0.053228
H84	H	-0.311207	0.087248	0.116746
O85	O	-0.792761	-0.240404	0.627640
C86	C	-0.833240	-0.295621	0.579362
H87	H	-0.892911	-0.297179	0.604507
H88	H	-0.802313	-0.366708	0.578430
H89	H	-0.837229	-0.267630	0.516111
O90	O	-0.792738	-0.240457	0.372150
C91	C	-0.804961	-0.329032	0.351761
H92	H	-0.865542	-0.329518	0.328817
H93	H	-0.796223	-0.373920	0.406651
H94	H	-0.763003	-0.355284	0.303329
H95	H	-0.987610	-0.010169	0.365570
H96	H	-0.987607	-0.010169	0.214178
O97	O	-0.497489	-0.283508	-0.000039
C98	C	-0.541358	-0.356422	-0.000046
H99	H	-0.600252	-0.333591	0.025059
H100	H	-0.512280	-0.412996	0.038447
H101	H	-0.547014	-0.381638	-0.063646
O102	O	-0.255563	-0.278932	-0.000127
C103	C	-0.195895	-0.349891	-0.000107
H104	H	-0.142246	-0.324933	-0.025209
H105	H	-0.212450	-0.407320	-0.038595
H106	H	-0.184738	-0.374801	0.063497
H107	H	-0.107660	-0.263225	-0.000099
O108	O	-0.135432	0.045496	-0.000023
C109	C	-0.160144	0.094709	0.068642
H110	H	-0.214919	0.070456	0.091538
H111	H	-0.171032	0.169219	0.053189
H112	H	-0.114468	0.084247	0.116723
O113	O	-0.532638	0.037905	0.000039
C114	C	-0.487485	0.043629	0.068690
H115	H	-0.506191	-0.003075	0.116685
H116	H	-0.494504	0.115730	0.091733
H117	H	-0.425251	0.022864	0.053166
O118	O	-1.029323	0.452913	-0.000080
C119	C	-1.089196	0.523632	-0.000107
H120	H	-1.067928	0.586961	0.024998
H121	H	-1.137843	0.504230	0.038374
H122	H	-1.110232	0.536889	-0.063714
