data_functionalizedCrystal
_audit_creation_method	'MofGen! by Chris Wilmer'
_symmetry_space_group_name_H-M	'P1'
_symmetry_Int_Tables_number	1
_symmetry_cell_setting	triclinic
loop_
_symmetry_equiv_pos_as_xyz
  x,y,z
_cell_length_a	18.050591
_cell_length_b	18.050589
_cell_length_c	10.686551
_cell_angle_alpha	85.590054
_cell_angle_beta	85.596624
_cell_angle_gamma	90.016540
loop_
_atom_site_label
_atom_site_type_symbol
_atom_site_fract_x
_atom_site_fract_y
_atom_site_fract_z
Zn1	Zn	1.167629	-0.263461	-0.713689
Zn2	Zn	1.417629	-0.013461	-0.463689
Zn3	Zn	1.667629	0.236539	-0.213689
Zn4	Zn	1.917629	0.486539	0.036311
Zn5	Zn	1.158007	-0.397202	-0.502667
Zn6	Zn	1.408007	-0.147202	-0.252667
Zn7	Zn	1.658007	0.102798	-0.002667
Zn8	Zn	1.908007	0.352798	0.247333
Zn9	Zn	1.033899	-0.273022	-0.502673
Zn10	Zn	1.283899	-0.023022	-0.252673
Zn11	Zn	1.533899	0.226978	-0.002673
Zn12	Zn	1.783899	0.476978	0.247327
Zn13	Zn	1.043408	-0.387610	-0.713592
Zn14	Zn	1.293408	-0.137610	-0.463592
Zn15	Zn	1.543408	0.112390	-0.213592
Zn16	Zn	1.793408	0.362390	0.036408
O17	O	1.100736	-0.330324	-0.608155
O18	O	1.350736	-0.080324	-0.358155
O19	O	1.600736	0.169676	-0.108155
O20	O	1.850736	0.419676	0.141845
O21	O	1.270279	-0.281216	-0.685735
O22	O	1.520279	-0.031216	-0.435735
O23	O	1.770279	0.218784	-0.185735
O24	O	2.020279	0.468784	0.064265
O25	O	1.133537	-0.388745	-0.326083
O26	O	1.383537	-0.138745	-0.076083
O27	O	1.633537	0.111255	0.173917
O28	O	1.883537	0.361255	0.423917
O29	O	1.051686	-0.167827	-0.530708
O30	O	1.301686	0.082173	-0.280708
O31	O	1.551686	0.332173	-0.030708
O32	O	1.801686	0.582173	0.219292
O33	O	1.263209	-0.379475	-0.530697
O34	O	1.513209	-0.129475	-0.280697
O35	O	1.763209	0.120525	-0.030697
O36	O	2.013209	0.370525	0.219303
O37	O	1.149936	-0.160803	-0.685741
O38	O	1.399936	0.089197	-0.435741
O39	O	1.649936	0.339197	-0.185741
O40	O	1.899936	0.589197	0.064259
O41	O	1.042356	-0.297510	-0.326088
O42	O	1.292356	-0.047510	-0.076088
O43	O	1.542356	0.202490	0.173912
O44	O	1.792356	0.452490	0.423912
O45	O	0.931234	-0.288208	-0.530614
O46	O	1.181234	-0.038208	-0.280614
O47	O	1.431234	0.211792	-0.030614
O48	O	1.681234	0.461792	0.219386
O49	O	1.067893	-0.363126	-0.890190
O50	O	1.317893	-0.113126	-0.640190
O51	O	1.567893	0.136874	-0.390190
O52	O	1.817893	0.386874	-0.140190
O53	O	0.938221	-0.372396	-0.685576
O54	O	1.188221	-0.122396	-0.435576
O55	O	1.438221	0.127604	-0.185576
O56	O	1.688221	0.377604	0.064424
O57	O	1.159157	-0.271914	-0.890261
O58	O	1.409157	-0.021914	-0.640261
O59	O	1.659157	0.228086	-0.390261
O60	O	1.909157	0.478086	-0.140261
O61	O	1.142758	-0.499856	-0.530603
O62	O	1.392758	-0.249856	-0.280603
O63	O	1.642758	0.000144	-0.030603
O64	O	1.892758	0.250144	0.219397
O65	O	1.058563	-0.492809	-0.685570
O66	O	1.308563	-0.242809	-0.435570
O67	O	1.558563	0.007191	-0.185570
O68	O	1.808563	0.257191	0.064430
C69	C	1.100670	-0.523278	-0.608103
C70	C	1.350670	-0.273278	-0.358103
C71	C	1.600670	-0.023278	-0.108103
C72	C	1.850670	0.226722	0.141897
C73	C	1.100711	-0.605823	-0.608123
C74	C	1.350711	-0.355823	-0.358123
C75	C	1.600711	-0.105823	-0.108123
C76	C	1.850711	0.144177	0.141877
C77	C	0.907780	-0.330299	-0.608086
C78	C	1.157780	-0.080299	-0.358086
C79	C	1.407780	0.169701	-0.108086
C80	C	1.657780	0.419701	0.141914
C81	C	0.825235	-0.330305	-0.608086
C82	C	1.075235	-0.080305	-0.358086
C83	C	1.325235	0.169695	-0.108086
C84	C	1.575235	0.419695	0.141914
C85	C	1.146632	-0.858448	-0.523992
C86	C	1.396632	-0.608448	-0.273992
C87	C	1.646632	-0.358448	-0.023992
C88	C	1.896632	-0.108448	0.226008
C89	C	1.077471	-0.810515	-0.492986
C90	C	1.327471	-0.560515	-0.242986
C91	C	1.577471	-0.310515	0.007014
C92	C	1.827471	-0.060515	0.257014
C93	C	1.100809	-0.902939	-0.608220
C94	C	1.350809	-0.652939	-0.358220
C95	C	1.600809	-0.402939	-0.108220
C96	C	1.850809	-0.152939	0.141780
C97	C	1.169914	-0.803795	-0.639118
C98	C	1.419914	-0.553795	-0.389118
C99	C	1.669914	-0.303795	-0.139118
C100	C	1.919914	-0.053795	0.110882
C101	C	1.100764	-0.756956	-0.608169
C102	C	1.350764	-0.506956	-0.358169
C103	C	1.600764	-0.256956	-0.108169
C104	C	1.850764	-0.006956	0.141831
C105	C	1.031610	-0.856096	-0.577155
C106	C	1.281610	-0.606096	-0.327155
C107	C	1.531610	-0.356096	-0.077155
C108	C	1.781610	-0.106096	0.172845
C109	C	1.124101	-0.849378	-0.723340
C110	C	1.374101	-0.599378	-0.473340
C111	C	1.624101	-0.349378	-0.223340
C112	C	1.874101	-0.099378	0.026660
C113	C	1.054896	-0.801466	-0.692378
C114	C	1.304896	-0.551466	-0.442378
C115	C	1.554896	-0.301466	-0.192378
C116	C	1.804896	-0.051466	0.057622
C117	C	1.100835	-0.987036	-0.608246
C118	C	1.350835	-0.737036	-0.358246
C119	C	1.600835	-0.487036	-0.108246
C120	C	1.850835	-0.237036	0.141754
C121	C	1.100730	-0.672861	-0.608143
C122	C	1.350730	-0.422861	-0.358143
C123	C	1.600730	-0.172861	-0.108143
C124	C	1.850730	0.077139	0.141857
C125	C	0.621972	-0.284458	-0.524012
C126	C	0.871972	-0.034458	-0.274012
C127	C	1.121972	0.215542	-0.024012
C128	C	1.371972	0.465542	0.225988
C129	C	0.571156	-0.353600	-0.492955
C130	C	0.821156	-0.103600	-0.242955
C131	C	1.071156	0.146400	0.007045
C132	C	1.321156	0.396400	0.257045
C133	C	0.674107	-0.330325	-0.608143
C134	C	0.924107	-0.080325	-0.358143
C135	C	1.174107	0.169675	-0.108143
C136	C	1.424107	0.419675	0.141857
C137	C	0.577841	-0.261206	-0.639196
C138	C	0.827841	-0.011206	-0.389196
C139	C	1.077841	0.238794	-0.139196
C140	C	1.327841	0.488794	0.110804
C141	C	0.528124	-0.330339	-0.608195
C142	C	0.778124	-0.080339	-0.358195
C143	C	1.028124	0.169661	-0.108195
C144	C	1.278124	0.419661	0.141805
C145	C	0.624375	-0.399506	-0.577026
C146	C	0.874375	-0.149506	-0.327026
C147	C	1.124375	0.100494	-0.077026
C148	C	1.374375	0.350494	0.172974
C149	C	0.631067	-0.307064	-0.723320
C150	C	0.881067	-0.057064	-0.473320
C151	C	1.131067	0.192936	-0.223320
C152	C	1.381067	0.442936	0.026680
C153	C	0.580276	-0.376251	-0.692308
C154	C	0.830276	-0.126251	-0.442308
C155	C	1.080276	0.123749	-0.192308
C156	C	1.330276	0.373749	0.057692
C157	C	0.758204	-0.330317	-0.608109
C158	C	1.008204	-0.080317	-0.358109
C159	C	1.258204	0.169683	-0.108109
C160	C	1.508204	0.419683	0.141891
C161	C	0.444029	-0.330355	-0.608229
C162	C	0.694029	-0.080355	-0.358229
C163	C	0.944029	0.169645	-0.108229
C164	C	1.194029	0.419645	0.141771
C165	C	1.294445	-0.330349	-0.608226
C166	C	1.544445	-0.080349	-0.358226
C167	C	1.794445	0.169651	-0.108226
C168	C	2.044445	0.419651	0.141774
C169	C	1.376992	-0.330359	-0.608256
C170	C	1.626992	-0.080359	-0.358256
C171	C	1.876992	0.169641	-0.108256
C172	C	2.126992	0.419641	0.141744
C173	C	1.115659	-0.315383	-0.937292
C174	C	1.365659	-0.065383	-0.687292
C175	C	1.615659	0.184617	-0.437292
C176	C	1.865659	0.434617	-0.187292
C177	C	1.122019	-0.309017	-1.077550
C178	C	1.372019	-0.059017	-0.827550
C179	C	1.622019	0.190983	-0.577550
C180	C	1.872019	0.440983	-0.327550
C181	C	1.100824	-0.136614	-0.608236
C182	C	1.350824	0.113386	-0.358236
C183	C	1.600824	0.363386	-0.108236
C184	C	1.850824	0.613386	0.141764
C185	C	1.100861	-0.054067	-0.608270
C186	C	1.350861	0.195933	-0.358270
C187	C	1.600861	0.445933	-0.108270
C188	C	1.850861	0.695933	0.141730
C189	C	1.085913	-0.345152	-0.280299
C190	C	1.335913	-0.095152	-0.030299
C191	C	1.585913	0.154848	0.219701
C192	C	1.835913	0.404848	0.469701
C193	C	1.079697	-0.351310	-0.140042
C194	C	1.329697	-0.101310	0.109958
C195	C	1.579697	0.148690	0.359958
C196	C	1.829697	0.398690	0.609958
H197	H	1.185347	-0.883346	-0.452730
H198	H	1.435347	-0.633346	-0.202730
H199	H	1.685347	-0.383346	0.047270
H200	H	1.935347	-0.133346	0.297270
Br201	Br	1.190533	-0.240550	-1.167219
Br202	Br	1.440533	0.009450	-0.917219
Br203	Br	1.690533	0.259450	-0.667219
Br204	Br	1.940533	0.509450	-0.417219
H205	H	1.057747	-0.793269	-0.395609
H206	H	1.307747	-0.543269	-0.145609
H207	H	1.557747	-0.293269	0.104391
H208	H	1.807747	-0.043269	0.354391
Br209	Br	0.934135	-0.894154	-0.533372
Br210	Br	1.184135	-0.644154	-0.283372
Br211	Br	1.434135	-0.394154	-0.033372
Br212	Br	1.684135	-0.144154	0.216628
Br213	Br	0.990201	-0.760197	-0.811069
Br214	Br	1.240201	-0.510197	-0.561069
Br215	Br	1.490201	-0.260197	-0.311069
Br216	Br	1.740201	-0.010197	-0.061069
Br217	Br	1.011199	-0.419786	-1.050377
Br218	Br	1.261199	-0.169786	-0.800377
Br219	Br	1.511199	0.080214	-0.550377
Br220	Br	1.761199	0.330214	-0.300377
H221	H	0.640401	-0.245718	-0.452788
H222	H	0.890401	0.004282	-0.202788
H223	H	1.140401	0.254282	0.047212
H224	H	1.390401	0.504282	0.297212
H225	H	1.143844	-0.866640	-0.820690
H226	H	1.393844	-0.616640	-0.570690
H227	H	1.643844	-0.366640	-0.320690
H228	H	1.893844	-0.116640	-0.070690
H229	H	0.545013	-0.373285	-0.395574
H230	H	0.795013	-0.123285	-0.145574
H231	H	1.045013	0.126715	0.104426
H232	H	1.295013	0.376715	0.354426
Br233	Br	1.267349	-0.765581	-0.682708
Br234	Br	1.517349	-0.515581	-0.432708
Br235	Br	1.767349	-0.265581	-0.182708
Br236	Br	2.017349	-0.015581	0.067292
H237	H	0.644769	-0.457987	-0.550676
H238	H	0.894769	-0.207987	-0.300676
H239	H	1.144769	0.042013	-0.050676
H240	H	1.394769	0.292013	0.199324
Br241	Br	0.549780	-0.440987	-0.810933
Br242	Br	0.799780	-0.190987	-0.560933
Br243	Br	1.049780	0.059013	-0.310933
Br244	Br	1.299780	0.309013	-0.060933
Br245	Br	0.674666	-0.274225	-0.885587
Br246	Br	0.924666	-0.024225	-0.635587
Br247	Br	1.174666	0.225775	-0.385587
Br248	Br	1.424666	0.475775	-0.135587
Br249	Br	0.543682	-0.163775	-0.682931
Br250	Br	0.793682	0.086225	-0.432931
Br251	Br	1.043682	0.336225	-0.182931
Br252	Br	1.293682	0.586225	0.067069
