data_functionalizedCrystal
_audit_creation_method	'MofGen! by Chris Wilmer'
_symmetry_space_group_name_H-M	'P1'
_symmetry_Int_Tables_number	1
_symmetry_cell_setting	triclinic
loop_
_symmetry_equiv_pos_as_xyz
  x,y,z
_cell_length_a	14.044220
_cell_length_b	14.971486
_cell_length_c	13.101018
_cell_angle_alpha	86.637324
_cell_angle_beta	93.664297
_cell_angle_gamma	88.401503
loop_
_atom_site_label
_atom_site_type_symbol
_atom_site_fract_x
_atom_site_fract_y
_atom_site_fract_z
O1	O	1.263160	0.211151	0.085107
O2	O	1.596493	0.544484	0.418440
O3	O	1.929826	0.877817	0.751773
O4	O	0.987183	0.203367	0.085132
O5	O	1.320517	0.536700	0.418466
O6	O	1.653850	0.870034	0.751799
O7	O	1.132568	0.077642	0.085112
O8	O	1.465901	0.410975	0.418445
O9	O	1.799235	0.744308	0.751778
O10	O	1.117775	0.336876	0.085127
O11	O	1.451108	0.670209	0.418461
O12	O	1.784442	1.003542	0.751794
O13	O	1.122125	0.086670	-0.085317
O14	O	1.455458	0.420003	0.248016
O15	O	1.788792	0.753337	0.581349
O16	O	0.976740	0.212395	-0.085296
O17	O	1.310074	0.545729	0.248037
O18	O	1.643407	0.879062	0.581370
O19	O	1.252717	0.220179	-0.085322
O20	O	1.586050	0.553512	0.248011
O21	O	1.919383	0.886845	0.581344
Zn22	Zn	1.113070	0.217720	-0.112369
Zn23	Zn	1.446404	0.551054	0.220965
Zn24	Zn	1.779737	0.884387	0.554298
Zn25	Zn	1.126830	0.205825	0.112179
Zn26	Zn	1.460163	0.539159	0.445512
Zn27	Zn	1.793496	0.872492	0.778845
O28	O	1.107332	0.345904	-0.085301
O29	O	1.440665	0.679237	0.248032
O30	O	1.773999	1.012571	0.581365
C31	C	1.126685	0.048779	-0.000103
C32	C	1.460018	0.382112	0.333231
C33	C	1.793352	0.715446	0.666564
C34	C	1.124702	-0.050674	-0.000101
C35	C	1.458036	0.282659	0.333232
C36	C	1.791369	0.615992	0.666565
C37	C	0.946644	0.204474	-0.000079
C38	C	1.279977	0.537808	0.333255
C39	C	1.613310	0.871141	0.666588
C40	C	0.841407	0.194313	-0.000069
C41	C	1.174740	0.527646	0.333264
C42	C	1.508074	0.860979	0.666598
C43	C	1.210112	-0.101171	-0.000110
C44	C	1.543445	0.232163	0.333223
C45	C	1.876779	0.565496	0.666556
C46	C	1.208244	-0.194618	-0.000100
C47	C	1.541577	0.138715	0.333234
C48	C	1.874911	0.472049	0.666567
C49	C	1.120965	-0.237567	-0.000088
C50	C	1.454298	0.095767	0.333246
C51	C	1.787632	0.429100	0.666579
C52	C	1.035549	-0.187063	-0.000076
C53	C	1.368882	0.146270	0.333257
C54	C	1.702216	0.479603	0.666591
C55	C	1.037418	-0.093618	-0.000079
C56	C	1.370752	0.239715	0.333254
C57	C	1.704085	0.573048	0.666588
C58	C	1.031658	-0.381833	-0.000072
C59	C	1.364992	-0.048499	0.333261
C60	C	1.698325	0.284834	0.666595
C61	C	1.029788	-0.475284	-0.000071
C62	C	1.363122	-0.141951	0.333263
C63	C	1.696455	0.191383	0.666596
C64	C	1.202484	-0.482832	-0.000092
C65	C	1.535818	-0.149499	0.333241
C66	C	1.869151	0.183835	0.666574
C67	C	1.204354	-0.389387	-0.000096
C68	C	1.537687	-0.056054	0.333238
C69	C	1.871020	0.277280	0.666571
C70	C	1.118937	-0.338890	-0.000086
C71	C	1.452270	-0.005557	0.333248
C72	C	1.785604	0.327776	0.666581
C73	C	0.648723	0.175737	-0.000090
C74	C	0.982057	0.509071	0.333243
C75	C	1.315390	0.842404	0.666576
C76	C	0.591172	0.247804	-0.000090
C77	C	0.924505	0.581137	0.333243
C78	C	1.257838	0.914471	0.666576
C79	C	0.483956	0.237468	-0.000102
C80	C	0.817289	0.570802	0.333231
C81	C	1.150623	0.904135	0.666564
C82	C	0.755949	0.186072	-0.000079
C83	C	1.089282	0.519405	0.333255
C84	C	1.422616	0.852738	0.666588
C85	C	1.293256	0.219071	-0.000109
C86	C	1.626590	0.552405	0.333224
C87	C	1.959923	0.885738	0.666558
C88	C	1.398494	0.229233	-0.000112
C89	C	1.731827	0.562566	0.333221
C90	C	2.065160	0.895899	0.666555
C91	C	1.113215	0.374767	-0.000085
C92	C	1.446549	0.708100	0.333248
C93	C	1.779882	1.041433	0.666582
C94	C	1.115198	0.474220	-0.000079
C95	C	1.448532	0.807553	0.333254
C96	C	1.781865	1.140886	0.666587
N97	N	1.103687	0.225839	-0.265616
N98	N	1.437020	0.559172	0.067717
N99	N	1.770354	0.892505	0.401050
C100	C	1.148982	0.186652	-0.525532
C101	C	1.482316	0.519985	-0.192199
C102	C	1.815649	0.853318	0.141134
C103	C	1.090928	0.236885	-0.474651
C104	C	1.424262	0.570218	-0.141318
C105	C	1.757595	0.903552	0.192016
C106	C	1.098029	0.230737	-0.358333
C107	C	1.431362	0.564070	-0.025000
C108	C	1.764696	0.897404	0.308333
C109	C	1.141883	0.192798	-0.641861
C110	C	1.475216	0.526132	-0.308527
C111	C	1.808549	0.859465	0.024806
N112	N	1.136221	0.197701	0.265426
N113	N	1.469554	0.531034	0.598760
N114	N	1.802887	0.864367	0.932093
H115	H	1.281184	-0.066209	-0.000126
H116	H	1.614518	0.267125	0.333207
H117	H	1.947851	0.600458	0.666540
H118	H	0.622422	0.317265	-0.000081
H119	H	0.955755	0.650598	0.333252
H120	H	1.289089	0.983932	0.666586
N121	N	0.609513	0.088610	-0.000103
N122	N	0.942846	0.421943	0.333230
N123	N	1.276179	0.755276	0.666563
N124	N	0.521207	0.080233	-0.000112
N125	N	0.854541	0.413567	0.333222
N126	N	1.187874	0.746900	0.666555
H127	H	0.493503	0.018700	-0.000118
H128	H	0.826837	0.352033	0.333215
H129	H	1.160170	0.685367	0.666549
N130	N	1.021907	0.296649	-0.529587
N131	N	1.355241	0.629983	-0.196254
N132	N	1.688574	0.963316	0.137079
N133	N	1.024082	0.378816	-0.517700
N134	N	1.357415	0.712149	-0.184367
N135	N	1.690748	1.045483	0.148967
H136	H	0.975341	0.421027	-0.556503
H137	H	1.308675	0.754361	-0.223170
H138	H	1.642008	1.087694	0.110163
H139	H	0.962103	-0.340721	-0.000061
H140	H	1.295436	-0.007388	0.333272
H141	H	1.628770	0.325946	0.666605
H142	H	1.204014	0.139033	-0.481740
H143	H	1.537347	0.472366	-0.148407
H144	H	1.870680	0.805699	0.184926
H145	H	0.964485	-0.222040	-0.000060
H146	H	1.297818	0.111293	0.333273
H147	H	1.631152	0.444627	0.666607
H148	H	1.277793	-0.235728	-0.000109
H149	H	1.611127	0.097605	0.333224
H150	H	1.944460	0.430939	0.666558
H151	H	1.272034	-0.523951	-0.000097
H152	H	1.605367	-0.190618	0.333236
H153	H	1.938701	0.142715	0.666569
N154	N	1.293505	-0.345514	-0.000131
N155	N	1.626838	-0.012181	0.333202
N156	N	1.960171	0.321153	0.666535
N157	N	1.346705	-0.354674	-0.071981
N158	N	1.680039	-0.021341	0.261352
N159	N	2.013372	0.311992	0.594686
H160	H	1.409670	-0.323689	-0.072006
H161	H	1.743003	0.009644	0.261327
H162	H	2.076337	0.342978	0.594661
N163	N	0.940628	-0.519142	-0.000076
N164	N	1.273961	-0.185809	0.333258
N165	N	1.607294	0.147525	0.666591
N166	N	0.864371	-0.474048	-0.000070
N167	N	1.197704	-0.140715	0.333263
N168	N	1.531037	0.192618	0.666597
H169	H	0.801398	-0.505022	-0.000080
H170	H	1.134731	-0.171688	0.333253
H171	H	1.468065	0.161645	0.666587
H172	H	0.967869	-0.052505	-0.000072
H173	H	1.301202	0.280828	0.333262
H174	H	1.634535	0.614162	0.666595
