data_functionalizedCrystal
_audit_creation_method	'MofGen! by Chris Wilmer'
_symmetry_space_group_name_H-M	'P1'
_symmetry_Int_Tables_number	1
_symmetry_cell_setting	triclinic
loop_
_symmetry_equiv_pos_as_xyz
  x,y,z
_cell_length_a	14.044191
_cell_length_b	27.731996
_cell_length_c	12.503572
_cell_angle_alpha	93.487301
_cell_angle_beta	86.162165
_cell_angle_gamma	87.906582
loop_
_atom_site_label
_atom_site_type_symbol
_atom_site_fract_x
_atom_site_fract_y
_atom_site_fract_z
O1	O	1.261462	0.113918	-0.089295
O2	O	0.985557	0.109712	-0.089307
O3	O	1.132103	0.041821	-0.089277
O4	O	1.114916	0.181809	-0.089325
O5	O	1.121082	0.046936	0.089362
O6	O	0.974535	0.114827	0.089332
O7	O	1.250441	0.119033	0.089345
Cu8	Cu	1.111482	0.117397	0.105650
Cu9	Cu	1.124516	0.111348	-0.105612
O10	O	1.103895	0.186924	0.089315
C11	C	0.944759	0.110429	0.000011
C12	C	0.839616	0.104941	0.000008
C13	C	1.126239	0.026354	0.000046
C14	C	1.125175	-0.027352	0.000057
C15	C	0.588896	0.133832	0.000009
C16	C	0.647108	0.094915	0.000020
C17	C	0.754229	0.100494	0.000013
C18	C	0.481765	0.128253	0.000015
C19	C	1.124494	-0.363172	-0.097372
C20	C	1.120456	-0.565020	-0.097391
O21	O	1.125003	-0.593489	-0.180207
N22	N	1.113947	-0.587473	-0.000016
C23	C	1.108441	-0.559460	0.097372
O24	O	1.102802	-0.583188	0.180195
C25	C	1.112472	-0.357612	0.097390
C26	C	1.118991	-0.335163	0.000008
C27	C	1.131012	-0.340722	-0.194746
C28	C	1.132026	-0.290263	-0.194740
C29	C	1.126523	-0.262254	-0.097361
C30	C	1.120005	-0.284704	0.000013
C31	C	1.106958	-0.329600	0.194776
C32	C	1.107964	-0.279135	0.194771
C33	C	1.114483	-0.256685	0.097390
C34	C	1.115517	-0.206235	0.097399
N35	N	1.122026	-0.183783	0.000023
C36	C	1.127529	-0.211792	-0.097356
C37	C	1.106327	-0.665433	0.097355
C38	C	1.105321	-0.715894	0.097351
C39	C	1.117335	-0.721451	-0.097412
C40	C	1.118347	-0.670989	-0.097407
C41	C	1.112836	-0.642980	-0.000020
C42	C	1.129660	-0.105824	-0.097337
C43	C	1.130678	-0.055361	-0.097323
C44	C	1.118659	-0.049808	0.097440
C45	C	1.117646	-0.100267	0.097426
C46	C	1.123144	-0.128275	0.000029
O47	O	1.110963	-0.177737	0.180171
O48	O	1.133146	-0.188054	-0.180168
C49	C	1.123480	-0.413631	-0.097378
C50	C	1.116962	-0.436081	-0.000004
C51	C	1.111459	-0.408071	0.097376
C52	C	1.115956	-0.486542	-0.000008
C53	C	1.121459	-0.514551	-0.097388
C54	C	1.127968	-0.492099	-0.194763
C55	C	1.128983	-0.441640	-0.194758
C56	C	1.104949	-0.430524	0.194751
C57	C	1.103936	-0.480983	0.194738
C58	C	1.109440	-0.508992	0.097358
C59	C	1.291239	0.118316	0.000024
C60	C	1.396382	0.123804	0.000021
C61	C	1.109759	0.202391	-0.000011
C62	C	1.110824	0.256096	-0.000029
N63	N	1.102322	0.121652	0.254240
N64	N	1.133684	0.107090	-0.254203
C65	C	1.088846	0.127915	0.473353
C66	C	1.147156	0.100828	0.526692
C67	C	1.139658	0.104313	0.648614
C68	C	1.096343	0.124430	0.351420
H69	H	0.616500	0.057403	-0.000043
N70	N	0.629434	0.183516	-0.000030
H71	H	0.602999	0.203563	0.066181
H72	H	0.701318	0.180468	-0.000077
H73	H	1.103462	-0.256332	0.274077
N74	N	1.136978	-0.370917	-0.299800
H75	H	1.078097	-0.390597	-0.304197
H76	H	1.141297	-0.348990	-0.361394
N77	N	1.015263	0.162096	0.534142
H78	H	1.020273	0.159771	0.613883
H79	H	1.026997	0.196278	0.514544
H80	H	1.101651	-0.347869	0.274075
H81	H	1.135989	-0.037085	-0.176626
N82	N	1.139053	-0.266053	-0.299774
H83	H	1.142381	-0.291460	-0.361456
H84	H	1.080987	-0.243851	-0.304021
N85	N	1.135616	-0.136028	-0.202383
H86	H	1.139909	-0.114143	-0.264061
H87	H	1.194211	-0.158468	-0.206606
N88	N	1.112710	-0.019591	0.202465
H89	H	1.108425	-0.041467	0.264159
H90	H	1.171609	0.000081	0.206717
H91	H	1.123655	-0.652714	-0.176704
N92	N	1.110631	-0.124485	0.202455
H93	H	1.107303	-0.099082	0.264145
H94	H	1.051201	-0.143909	0.206694
H95	H	1.121816	-0.744265	-0.176703
H96	H	1.100026	-0.734169	0.176649
H97	H	1.101843	-0.642632	0.176664
N98	N	1.136002	-0.417422	-0.299782
H99	H	1.197193	-0.428806	-0.342359
H100	H	1.079662	-0.426040	-0.342267
N101	N	1.220744	0.066646	0.465894
H102	H	1.265298	0.085580	0.419228
H103	H	1.258549	0.049063	0.518546
N104	N	1.133910	-0.522314	-0.299796
H105	H	1.132279	-0.557686	-0.285012
H106	H	1.077966	-0.513322	-0.342324
N107	N	1.096914	-0.505194	0.299778
H108	H	1.093580	-0.479788	0.361463
H109	H	1.037485	-0.524619	0.304016
H110	H	1.100469	-0.407723	0.274051
