data_functionalizedCrystal
_audit_creation_method	'MofGen! by Chris Wilmer'
_symmetry_space_group_name_H-M	'P1'
_symmetry_Int_Tables_number	1
_symmetry_cell_setting	triclinic
loop_
_symmetry_equiv_pos_as_xyz
  x,y,z
_cell_length_a	14.519709
_cell_length_b	15.944493
_cell_length_c	15.021413
_cell_angle_alpha	89.997322
_cell_angle_beta	90.000611
_cell_angle_gamma	83.577594
loop_
_atom_site_label
_atom_site_type_symbol
_atom_site_fract_x
_atom_site_fract_y
_atom_site_fract_z
O1	O	1.223650	0.110115	-0.073904
O2	O	1.473650	0.360115	0.176096
O3	O	1.723650	0.610115	0.426096
O4	O	1.973650	0.860115	0.676096
O5	O	0.955147	0.123082	-0.073930
O6	O	1.205147	0.373082	0.176070
O7	O	1.455147	0.623082	0.426070
O8	O	1.705147	0.873082	0.676070
O9	O	1.096759	-0.005669	-0.073924
O10	O	1.346759	0.244331	0.176076
O11	O	1.596759	0.494331	0.426076
O12	O	1.846759	0.744331	0.676076
O13	O	1.082039	0.238866	-0.073910
O14	O	1.332039	0.488866	0.176090
O15	O	1.582039	0.738866	0.426090
O16	O	1.832039	0.988866	0.676090
O17	O	1.096746	-0.005682	0.074140
O18	O	1.346746	0.244318	0.324140
O19	O	1.596746	0.494318	0.574140
O20	O	1.846746	0.744318	0.824140
O21	O	0.955135	0.123069	0.074134
O22	O	1.205135	0.373069	0.324134
O23	O	1.455135	0.623069	0.574134
O24	O	1.705135	0.873069	0.824134
O25	O	1.223637	0.110102	0.074160
O26	O	1.473637	0.360102	0.324160
O27	O	1.723637	0.610102	0.574160
O28	O	1.973637	0.860102	0.824160
Zn29	Zn	1.089384	0.116583	0.097656
Zn30	Zn	1.339384	0.366583	0.347656
Zn31	Zn	1.589384	0.616583	0.597656
Zn32	Zn	1.839384	0.866583	0.847656
Zn33	Zn	1.089401	0.116601	-0.097425
Zn34	Zn	1.339401	0.366601	0.152575
Zn35	Zn	1.589401	0.616601	0.402575
Zn36	Zn	1.839401	0.866601	0.652575
O37	O	1.082026	0.238853	0.074154
O38	O	1.332026	0.488853	0.324154
O39	O	1.582026	0.738853	0.574154
O40	O	1.832026	0.988853	0.824154
C41	C	0.920783	0.122471	0.000099
C42	C	1.170783	0.372471	0.250099
C43	C	1.420783	0.622471	0.500099
C44	C	1.670783	0.872471	0.750099
C45	C	0.818405	0.120660	0.000088
C46	C	1.068405	0.370660	0.250088
C47	C	1.318405	0.620660	0.500088
C48	C	1.568405	0.870660	0.750088
C49	C	1.096151	-0.036971	0.000104
C50	C	1.346151	0.213029	0.250104
C51	C	1.596151	0.463029	0.500104
C52	C	1.846151	0.713029	0.750104
C53	C	1.094347	-0.130222	0.000093
C54	C	1.344347	0.119778	0.250093
C55	C	1.594347	0.369778	0.500093
C56	C	1.844347	0.619778	0.750093
C57	C	0.443522	0.113993	0.000128
C58	C	0.693522	0.363993	0.250128
C59	C	0.943522	0.613993	0.500128
C60	C	1.193522	0.863993	0.750128
C61	C	0.547826	0.115845	0.000117
C62	C	0.797826	0.365845	0.250117
C63	C	1.047826	0.615845	0.500117
C64	C	1.297826	0.865845	0.750117
C65	C	0.630960	0.117327	0.000107
C66	C	0.880960	0.367327	0.250107
C67	C	1.130960	0.617327	0.500107
C68	C	1.380960	0.867327	0.750107
C69	C	0.735271	0.119178	0.000098
C70	C	0.985271	0.369178	0.250098
C71	C	1.235271	0.619178	0.500098
C72	C	1.485271	0.869178	0.750098
C73	C	1.177703	-0.365861	0.000118
C74	C	1.427703	-0.115861	0.250118
C75	C	1.677703	0.134139	0.500118
C76	C	1.927703	0.384139	0.750118
C77	C	1.132758	-0.416488	-0.072889
C78	C	1.382758	-0.166488	0.177111
C79	C	1.632758	0.083512	0.427111
C80	C	1.882758	0.333512	0.677111
C81	C	1.091005	-0.300948	0.000104
C82	C	1.341005	-0.050948	0.250104
C83	C	1.591005	0.199052	0.500104
C84	C	1.841005	0.449052	0.750104
C85	C	1.132726	-0.416477	0.073090
C86	C	1.382726	-0.166477	0.323090
C87	C	1.632726	0.083523	0.573090
C88	C	1.882726	0.333523	0.823090
C89	C	1.087783	-0.465863	0.000118
C90	C	1.337783	-0.215863	0.250118
C91	C	1.587783	0.034137	0.500118
C92	C	1.837783	0.284137	0.750118
C93	C	1.046084	-0.350347	-0.072964
C94	C	1.296084	-0.100347	0.177036
C95	C	1.546084	0.149653	0.427036
C96	C	1.796084	0.399653	0.677036
C97	C	1.046064	-0.350333	0.073081
C98	C	1.296064	-0.100333	0.323081
C99	C	1.546064	0.149667	0.573081
C100	C	1.796064	0.399667	0.823081
C101	C	1.001056	-0.400926	0.000056
C102	C	1.251056	-0.150926	0.250056
C103	C	1.501056	0.099074	0.500056
C104	C	1.751056	0.349074	0.750056
C105	C	1.092863	-0.205946	0.000095
C106	C	1.342863	0.044054	0.250095
C107	C	1.592863	0.294054	0.500095
C108	C	1.842863	0.544054	0.750095
C109	C	1.085918	-0.560862	0.000120
C110	C	1.335918	-0.310862	0.250120
C111	C	1.585918	-0.060862	0.500120
C112	C	1.835918	0.189138	0.750120
C113	C	1.258002	0.110713	0.000129
C114	C	1.508002	0.360713	0.250129
C115	C	1.758002	0.610713	0.500129
C116	C	2.008002	0.860713	0.750129
C117	C	1.360380	0.112524	0.000134
C118	C	1.610380	0.362524	0.250134
C119	C	1.860380	0.612524	0.500134
C120	C	2.110380	0.862524	0.750134
C121	C	1.082634	0.270155	0.000124
C122	C	1.332634	0.520155	0.250124
C123	C	1.582634	0.770155	0.500124
C124	C	1.832634	1.020155	0.750124
C125	C	1.084438	0.363406	0.000129
C126	C	1.334438	0.613406	0.250129
C127	C	1.584438	0.863406	0.500129
C128	C	1.834438	1.113406	0.750129
N129	N	1.089380	0.116571	0.230793
N130	N	1.339380	0.366571	0.480793
N131	N	1.589380	0.616571	0.730793
N132	N	1.839380	0.866571	0.980793
N133	N	1.089412	0.116606	-0.230563
N134	N	1.339412	0.366606	0.019437
N135	N	1.589412	0.616606	0.269437
N136	N	1.839412	0.866606	0.519437
C137	C	1.154371	0.056562	0.529787
C138	C	1.404371	0.306562	0.779787
C139	C	1.654371	0.556562	1.029787
C140	C	1.904371	0.806562	1.279787
C141	C	1.173004	0.132262	0.470427
C142	C	1.423004	0.382262	0.720427
C143	C	1.673004	0.632262	0.970427
C144	C	1.923004	0.882262	1.220427
C145	C	1.089402	0.116596	0.587830
C146	C	1.339402	0.366596	0.837830
C147	C	1.589402	0.616596	1.087830
C148	C	1.839402	0.866596	1.337830
C149	C	1.070801	0.040886	0.470449
C150	C	1.320801	0.290886	0.720449
C151	C	1.570801	0.540886	0.970449
C152	C	1.820801	0.790886	1.220449
C153	C	1.089393	0.116580	0.412406
C154	C	1.339393	0.366580	0.662406
C155	C	1.589393	0.616580	0.912406
C156	C	1.839393	0.866580	1.162406
C157	C	1.108077	0.192334	0.529776
C158	C	1.358077	0.442334	0.779776
C159	C	1.608077	0.692334	1.029776
C160	C	1.858077	0.942334	1.279776
C161	C	1.005837	0.100909	0.529803
C162	C	1.255837	0.350909	0.779803
C163	C	1.505837	0.600909	1.029803
C164	C	1.755837	0.850909	1.279803
C165	C	1.024435	0.176663	0.470470
C166	C	1.274435	0.426663	0.720470
C167	C	1.524435	0.676663	0.970470
C168	C	1.774435	0.926663	1.220470
C169	C	1.089409	0.116605	0.688887
C170	C	1.339409	0.366605	0.938887
C171	C	1.589409	0.616605	1.188887
C172	C	1.839409	0.866605	1.438887
C173	C	1.089386	0.116580	0.311351
C174	C	1.339386	0.366580	0.561351
C175	C	1.589386	0.616580	0.811351
C176	C	1.839386	0.866580	1.061351
H177	H	1.252382	-0.350125	0.000052
H178	H	1.502382	-0.100125	0.250052
H179	H	1.752382	0.149875	0.500052
H180	H	2.002382	0.399875	0.750052
H181	H	1.169352	-0.445361	0.134808
H182	H	1.419352	-0.195361	0.384808
H183	H	1.669352	0.054639	0.634808
H184	H	1.919352	0.304639	0.884808
H185	H	1.169377	-0.445375	-0.134605
H186	H	1.419377	-0.195375	0.115395
H187	H	1.669377	0.054625	0.365395
H188	H	1.919377	0.304625	0.615395
Cl189	Cl	0.989599	-0.305931	-0.168363
Cl190	Cl	1.239599	-0.055931	0.081637
Cl191	Cl	1.489599	0.194069	0.331637
Cl192	Cl	1.739599	0.444069	0.581637
H193	H	1.123882	0.256369	0.555727
H194	H	1.373882	0.506369	0.805727
H195	H	1.623882	0.756369	1.055727
H196	H	1.873882	1.006369	1.305727
Cl197	Cl	0.939600	0.255117	0.430504
Cl198	Cl	1.189600	0.505117	0.680504
Cl199	Cl	1.439600	0.755117	0.930504
Cl200	Cl	1.689600	1.005117	1.180504
H201	H	0.926319	-0.416501	0.000009
H202	H	1.176319	-0.166501	0.250009
H203	H	1.426319	0.083499	0.500009
H204	H	1.676319	0.333499	0.750009
Cl205	Cl	0.989595	-0.305686	0.168371
Cl206	Cl	1.239595	-0.055686	0.418371
Cl207	Cl	1.489595	0.194314	0.668371
Cl208	Cl	1.739595	0.444314	0.918371
H209	H	1.055071	-0.023133	0.444387
H210	H	1.305071	0.226867	0.694387
H211	H	1.555071	0.476867	0.944387
H212	H	1.805071	0.726867	1.194387
H213	H	1.209353	0.005857	0.555831
H214	H	1.459353	0.255857	0.805831
H215	H	1.709353	0.505857	1.055831
H216	H	1.959353	0.755857	1.305831
Cl217	Cl	0.896768	0.080388	0.570105
Cl218	Cl	1.146768	0.330388	0.820105
Cl219	Cl	1.396768	0.580388	1.070105
Cl220	Cl	1.646768	0.830388	1.320105
Cl221	Cl	1.282099	0.152733	0.430134
Cl222	Cl	1.532099	0.402733	0.680134
Cl223	Cl	1.782099	0.652733	0.930134
Cl224	Cl	2.032099	0.902733	1.180134
