data_functionalizedCrystal
_audit_creation_method	'MofGen! by Chris Wilmer'
_symmetry_space_group_name_H-M	'P1'
_symmetry_Int_Tables_number	1
_symmetry_cell_setting	triclinic
loop_
_symmetry_equiv_pos_as_xyz
  x,y,z
_cell_length_a	16.120530
_cell_length_b	18.101395
_cell_length_c	18.101389
_cell_angle_alpha	90.016841
_cell_angle_beta	92.915477
_cell_angle_gamma	87.126665
loop_
_atom_site_label
_atom_site_type_symbol
_atom_site_fract_x
_atom_site_fract_y
_atom_site_fract_z
Zn1	Zn	1.274487	-0.352401	0.476079
Zn2	Zn	1.274370	-0.476222	0.352236
Zn3	Zn	1.135073	-0.346115	0.345980
Zn4	Zn	1.135017	-0.469914	0.469767
O5	O	1.204737	-0.411163	0.411016
O6	O	1.391137	-0.374097	0.464911
O7	O	1.255866	-0.458972	0.247772
O8	O	1.153639	-0.243319	0.363262
O9	O	1.391050	-0.465068	0.373924
O10	O	1.256066	-0.247938	0.458845
O11	O	1.153525	-0.363383	0.243176
O12	O	1.018401	-0.357266	0.357141
O13	O	1.153544	-0.454317	0.574238
O14	O	1.018360	-0.448221	0.448086
O15	O	1.256012	-0.367981	0.578876
O16	O	1.255812	-0.579015	0.367803
O17	O	1.153431	-0.574380	0.454152
C18	C	0.988130	-0.401377	0.401250
C19	C	0.895465	-0.397209	0.397090
C20	C	0.725805	-0.389581	0.389501
C21	C	0.684509	-0.432799	0.432585
C22	C	0.590105	-0.428555	0.428362
C23	C	0.820218	-0.393824	0.393722
C24	C	1.204625	-0.603568	0.410989
C25	C	1.204654	-0.685884	0.411005
C26	C	1.204837	-0.984983	0.411054
C27	C	1.140570	-0.950780	0.465531
C28	C	1.140265	-0.865148	0.465338
C29	C	1.204746	-0.836596	0.411030
C30	C	1.180960	-0.866660	0.331911
C31	C	1.180546	-0.952287	0.332235
C32	C	1.293030	-0.957309	0.435015
C33	C	1.292512	-0.871635	0.436703
C34	C	1.204696	-0.752735	0.411013
C35	C	1.204885	-1.068845	0.411066
C36	C	1.422189	-0.420987	0.420820
C37	C	1.514854	-0.425174	0.424998
C38	C	1.204785	-0.411146	0.604180
C39	C	1.204806	-0.411139	0.686495
C40	C	1.204872	-0.218007	0.411060
C41	C	1.204929	-0.135696	0.411078
C42	C	1.204737	-0.411128	0.218605
C43	C	1.204878	-0.410934	0.136298
C44	C	1.204854	-0.411003	0.985588
C45	C	1.140162	-0.465131	0.951335
C46	C	1.140337	-0.465403	0.865724
C47	C	1.204829	-0.411070	0.837204
C48	C	1.292667	-0.436217	0.872255
C49	C	1.292306	-0.436575	0.957884
C50	C	1.182473	-0.331635	0.953005
C51	C	1.180518	-0.332000	0.867266
C52	C	1.204821	-0.411108	0.753344
C53	C	1.204869	-0.410968	1.069448
H54	H	0.690261	-0.349397	0.349447
H55	H	1.155147	-0.844766	0.523880
N56	N	1.054058	-0.443961	0.833985
H57	H	1.054006	-0.444103	0.778186
H58	H	1.036746	-0.392848	0.851718
H59	H	1.116077	-0.969419	0.312398
N60	N	1.159541	-0.542473	0.980710
H61	H	1.117699	-0.576892	0.958430
H62	H	1.156662	-0.542390	1.036316
N63	N	0.731586	-0.486035	0.485646
H64	H	0.793330	-0.481561	0.481178
H65	H	0.716381	-0.538238	0.473355
H66	H	1.155304	-0.972003	0.524254
N67	N	1.054502	-0.975481	0.444343
H68	H	1.056960	-1.008731	0.399609
H69	H	1.016229	-0.930746	0.432335
N70	N	1.053616	-0.443841	0.974694
H71	H	1.055500	-0.398904	1.007710
H72	H	1.031376	-0.486307	1.002555
N73	N	1.239853	-0.982402	0.276354
H74	H	1.266147	-0.940047	0.251617
H75	H	1.208398	-1.011961	0.237857
N76	N	1.053679	-0.834175	0.443892
H77	H	1.013580	-0.851129	0.480711
H78	H	1.036398	-0.852300	0.392901
H79	H	1.155113	-0.524151	0.845907
N80	N	1.359291	-0.846272	0.388394
H81	H	1.346362	-0.861514	0.335544
H82	H	1.414900	-0.869664	0.406259
H83	H	1.226296	-0.848327	0.290041
H84	H	1.117174	-0.842395	0.311801
H85	H	1.314716	-0.979845	0.491934
H86	H	1.310449	-0.852091	0.494951
H87	H	1.340911	-0.979711	0.395385
N88	N	1.317438	-0.513580	0.985493
H89	H	1.328645	-0.546973	0.942034
H90	H	1.271060	-0.533345	1.014030
N91	N	1.358325	-0.386920	0.988328
H92	H	1.387535	-0.364897	0.946115
H93	H	1.400028	-0.416776	1.021144
H94	H	1.115878	-0.313109	0.844031
N95	N	1.358232	-0.385864	0.848263
H96	H	1.331564	-0.346174	0.814358
H97	H	1.401740	-0.415673	0.821194
H98	H	1.311968	-0.493759	0.851681
N99	N	1.099105	-0.302304	0.977849
H100	H	1.075001	-0.340172	1.010482
H101	H	1.060175	-0.292089	0.933132
H102	H	1.224199	-0.289211	0.847843
N103	N	1.244882	-0.278147	0.982659
H104	H	1.287451	-0.305153	1.017031
H105	H	1.215233	-0.237288	1.010590
