data_functionalizedCrystal
_audit_creation_method	'MofGen! by Chris Wilmer'
_symmetry_space_group_name_H-M	'P1'
_symmetry_Int_Tables_number	1
_symmetry_cell_setting	triclinic
loop_
_symmetry_equiv_pos_as_xyz
  x,y,z
_cell_length_a	14.560438
_cell_length_b	14.560438
_cell_length_c	14.560438
_cell_angle_alpha	60.004377
_cell_angle_beta	90.002385
_cell_angle_gamma	60.000929
loop_
_atom_site_label
_atom_site_type_symbol
_atom_site_fract_x
_atom_site_fract_y
_atom_site_fract_z
Zr1	Zr	0.884772	1.005243	-0.120416
O2	O	0.738127	1.196834	-0.267048
O3	O	0.929724	0.813651	-0.075478
O4	O	0.929724	1.005246	-0.267064
O5	O	0.738131	1.005237	0.075678
O6	O	1.080862	1.005249	-0.267061
O7	O	0.738127	1.005240	-0.075462
O8	O	1.080863	0.662521	0.075651
O9	O	0.738130	1.347965	-0.267034
O10	O	1.061692	0.892458	-0.056295
O11	O	0.948902	0.892454	0.056498
O12	O	0.948901	1.118032	-0.169070
O13	O	0.836112	1.118028	-0.056277
Zr14	Zr	1.125827	1.005243	0.120640
Zr15	Zr	1.125821	1.005247	-0.120412
Zr16	Zr	0.884779	1.005239	0.120637
Zr17	Zr	0.884778	1.246279	-0.120393
Zr18	Zr	1.125821	0.764207	0.120617
O19	O	1.080875	1.196834	0.075702
O20	O	1.080866	1.196840	-0.267043
O21	O	0.738136	1.196828	0.075697
O22	O	1.272472	0.813652	0.267273
O23	O	1.272463	0.813657	-0.075472
O24	O	0.929733	0.813646	0.267268
O25	O	1.272468	1.005249	-0.075454
O26	O	1.080875	1.005240	0.267288
O27	O	0.929737	1.005237	0.267286
O28	O	1.272472	1.005246	0.075687
O29	O	0.929731	1.347968	-0.267031
O30	O	1.080868	0.662518	0.267255
O31	O	1.272469	0.662521	0.267259
O32	O	1.272464	0.662524	0.075654
O33	O	0.738135	1.347961	-0.075430
O34	O	0.929736	1.347965	-0.075426
O35	O	1.061698	0.892454	0.169295
O36	O	1.174488	0.892458	0.056502
O37	O	1.061697	1.118032	-0.056273
O38	O	0.948907	1.118028	0.056520
C39	C	1.005293	0.703744	0.000084
C40	C	1.005290	0.601418	0.000074
C41	C	0.922041	0.540387	-0.083130
C42	C	0.922029	0.636563	-0.083167
C43	C	1.088563	0.470085	0.083363
C44	C	1.088569	0.373912	0.083404
C45	C	0.825896	0.636503	-0.179278
C46	C	0.825884	0.732679	-0.179315
C47	C	0.703785	1.005238	0.000108
C48	C	0.601454	1.005236	0.000106
C49	C	0.612251	0.887491	0.058973
C50	C	0.516096	0.887497	0.058983
C51	C	0.398350	1.123004	-0.058750
C52	C	0.494504	1.122996	-0.058753
C53	C	0.680230	0.751522	0.126941
C54	C	0.584075	0.751529	0.126951
C55	C	1.306814	1.005248	0.000117
C56	C	1.409145	1.005250	0.000119
C57	C	1.005292	1.005248	-0.301407
C58	C	1.005289	1.005250	-0.403740
C59	C	1.005306	1.306742	0.000141
C60	C	1.005309	1.409068	0.000151
C61	C	0.946415	1.122995	-0.510684
C62	C	0.946428	1.122989	-0.606832
C63	C	1.064191	0.887482	-0.489080
C64	C	1.064184	0.887489	-0.392934
C65	C	1.005307	1.005238	0.301632
C66	C	1.005310	1.005236	0.403965
C67	C	1.306807	0.703749	0.000088
C68	C	1.409136	0.601425	0.000080
C69	C	1.005300	0.703739	0.301603
C70	C	1.005301	0.601411	0.403926
C71	C	1.306815	0.703744	0.301608
C72	C	1.409146	0.601418	0.403933
C73	C	0.703784	1.306742	-0.301383
C74	C	0.601453	1.409068	-0.403708
C75	C	0.703792	1.306737	0.000136
C76	C	0.601463	1.409061	0.000145
C77	C	1.005299	1.306747	-0.301378
C78	C	1.005299	1.409075	-0.403701
C79	C	1.398335	0.553350	-0.058800
C80	C	1.494488	0.457213	-0.058811
C81	C	1.612239	0.457231	0.058946
C82	C	1.516087	0.553372	0.058950
C83	C	1.064178	0.553335	0.510876
C84	C	1.064165	0.457196	0.607016
C85	C	0.946397	0.457214	0.489241
C86	C	0.946403	0.553357	0.393104
C87	C	1.516097	0.553345	0.393131
C88	C	1.612244	0.457207	0.489280
C89	C	1.494477	0.457220	0.607028
C90	C	1.398332	0.553363	0.510881
H91	H	1.156366	0.266987	0.151227
F92	F	1.177168	0.432683	0.171963
F93	F	1.126861	0.762160	-0.477591
F94	F	1.284512	0.604493	-0.121459
F95	F	1.126827	0.406038	0.720840
H96	H	1.112132	0.791601	-0.305849
H97	H	1.112131	0.592462	0.519694
H98	H	1.699326	0.418070	0.480478
F99	F	0.718568	0.650645	-0.168437
H100	H	1.524890	0.592519	0.106897
H101	H	1.485685	0.418080	0.694115
F102	F	0.883729	0.604532	0.279270
H103	H	0.898447	0.418075	0.480444
H104	H	1.524908	0.592471	0.306053
H105	H	0.311262	1.218880	-0.106671
H106	H	1.311241	0.592508	0.519684
F107	F	1.726069	0.406077	0.121600
F108	F	0.847856	0.636467	-0.279211
H109	H	0.834166	0.795667	-0.261441
F110	F	0.725930	0.810676	-0.157364
H111	H	0.485704	1.218876	-0.106684
F112	F	0.746773	0.696384	0.068297
F113	F	0.748468	0.683279	0.244606
H114	H	0.575359	0.709332	0.214005
H115	H	0.584067	0.699335	0.089120
H116	H	0.898488	1.218869	-0.693908
F117	F	0.883741	1.248326	-0.522188
H118	H	1.485684	0.418077	-0.106759
