data_functionalizedCrystal
_audit_creation_method	'MofGen! by Chris Wilmer'
_symmetry_space_group_name_H-M	'P1'
_symmetry_Int_Tables_number	1
_symmetry_cell_setting	triclinic
loop_
_symmetry_equiv_pos_as_xyz
  x,y,z
_cell_length_a	9.065218
_cell_length_b	16.776229
_cell_length_c	9.065215
_cell_angle_alpha	90.005650
_cell_angle_beta	85.015291
_cell_angle_gamma	90.007185
loop_
_atom_site_label
_atom_site_type_symbol
_atom_site_fract_x
_atom_site_fract_y
_atom_site_fract_z
O1	O	1.960405	0.066289	0.216361
O2	O	1.531120	0.066289	0.234107
O3	O	1.754638	0.066286	0.010591
O4	O	1.736887	0.066292	0.439877
O5	O	1.754607	-0.066291	0.010577
O6	O	1.531089	-0.066287	0.234093
O7	O	1.960374	-0.066288	0.216346
Zn8	Zn	1.745727	-0.087337	0.225217
Zn9	Zn	1.745767	0.087338	0.225236
O10	O	1.736856	-0.066284	0.439862
C11	C	1.476118	0.000001	0.232394
C12	C	1.312275	0.000002	0.227295
N13	N	1.745711	-0.206548	0.225204
C14	C	1.844715	-0.248267	0.126272
C15	C	1.844724	-0.331719	0.126271
C16	C	1.745733	-0.373451	0.225210
C17	C	1.646717	-0.331726	0.324146
C18	C	1.646703	-0.248276	0.324138
C19	C	1.646771	-0.668274	0.324175
C20	C	1.646796	-0.751730	0.324178
C21	C	1.844792	-0.751717	0.126308
C22	C	1.844777	-0.668266	0.126301
C23	C	1.745757	-0.626549	0.225231
C24	C	1.745748	-0.536061	0.225229
C25	C	1.745749	-0.463938	0.225220
C26	C	2.015376	0.000002	0.218059
C27	C	2.179219	0.000007	0.223159
C28	C	1.752917	-0.000002	-0.044403
C29	C	1.747819	0.000001	-0.208246
N30	N	1.745795	0.206550	0.225238
C31	C	1.738576	0.000005	0.494856
C32	C	1.743674	0.000008	0.658699
H33	H	1.925340	-0.365686	0.045713
H34	H	1.566148	-0.634314	0.404730
O35	O	1.940931	-0.207856	0.030021
C36	C	2.028339	-0.262577	-0.057274
H37	H	1.967831	-0.322071	-0.059777
H38	H	2.049278	-0.238474	-0.174804
H39	H	2.138587	-0.271436	-0.007833
O40	O	1.940989	-0.627853	0.030050
C41	C	2.028402	-0.682571	-0.057250
H42	H	1.967900	-0.742066	-0.059755
H43	H	2.049336	-0.658465	-0.174779
H44	H	2.138651	-0.691427	-0.007811
O45	O	1.940831	-0.792366	0.030247
C46	C	1.919646	-0.874971	0.051481
H47	H	1.803072	-0.886381	0.104988
H48	H	1.934588	-0.906690	-0.060037
H49	H	2.004145	-0.898638	0.126658
O50	O	1.550416	-0.792235	0.420134
C51	C	1.404036	-0.771853	0.394114
H52	H	1.401752	-0.748920	0.275963
H53	H	1.330228	-0.826745	0.410043
H54	H	1.361759	-0.723416	0.475293
H55	H	1.566110	-0.365709	0.404698
O56	O	1.550480	-0.207871	0.420386
C57	C	1.463086	-0.262597	0.507691
H58	H	1.523613	-0.322076	0.510210
H59	H	1.442136	-0.238477	0.625215
H60	H	1.352844	-0.271490	0.458248
