data_functionalizedCrystal
_audit_creation_method	'MofGen! by Chris Wilmer'
_symmetry_space_group_name_H-M	'P1'
_symmetry_Int_Tables_number	1
_symmetry_cell_setting	triclinic
loop_
_symmetry_equiv_pos_as_xyz
  x,y,z
_cell_length_a	12.594517
_cell_length_b	21.295417
_cell_length_c	12.594509
_cell_angle_alpha	89.963755
_cell_angle_beta	89.978673
_cell_angle_gamma	90.030306
loop_
_atom_site_label
_atom_site_type_symbol
_atom_site_fract_x
_atom_site_fract_y
_atom_site_fract_z
Zn1	Zn	1.627160	-0.250594	-0.601801
Zn2	Zn	1.627006	-0.355872	-0.423797
Zn3	Zn	1.449164	-0.250621	-0.423830
Zn4	Zn	1.449101	-0.355829	-0.601727
O5	O	1.538108	-0.303229	-0.512789
O6	O	1.776085	-0.264566	-0.578205
O7	O	1.603377	-0.341940	-0.274856
O8	O	1.472866	-0.162528	-0.447482
O9	O	1.775972	-0.341914	-0.447427
O10	O	1.603639	-0.162508	-0.578237
O11	O	1.472717	-0.264612	-0.274879
O12	O	1.300210	-0.264570	-0.447411
O13	O	1.472759	-0.341839	-0.750683
O14	O	1.300164	-0.341865	-0.578112
O15	O	1.603578	-0.264524	-0.750737
O16	O	1.603316	-0.443956	-0.447356
O17	O	1.472610	-0.443924	-0.578080
C18	C	1.261567	-0.303216	-0.512757
C19	C	1.143261	-0.303226	-0.512769
C20	C	1.074002	-0.261127	-0.441817
C21	C	1.003167	-0.318547	-0.415623
C22	C	1.003298	-0.245834	-0.538981
C23	C	1.073984	-0.360676	-0.486525
C24	C	1.074121	-0.287924	-0.609928
C25	C	1.003318	-0.345384	-0.583771
C26	C	1.537968	-0.466780	-0.512730
C27	C	1.538006	-0.536748	-0.512740
C28	C	1.606125	-0.569611	-0.444742
C29	C	1.606175	-0.635353	-0.444766
C30	C	1.538087	-0.668231	-0.512777
C31	C	1.469963	-0.635361	-0.580789
C32	C	1.469923	-0.569619	-0.580770
N33	N	1.444976	-0.771496	-0.520881
N34	N	1.445018	-0.833948	-0.520892
C35	C	1.538206	-0.866306	-0.512838
N36	N	1.631353	-0.833853	-0.504752
N37	N	1.631311	-0.771396	-0.504735
C38	C	1.538123	-0.739516	-0.512805
C39	C	1.606385	-0.970454	-0.444862
C40	C	1.606436	-1.036197	-0.444893
C41	C	1.470215	-1.036203	-0.580910
C42	C	1.470173	-0.970461	-0.580885
C43	C	1.538256	-0.937590	-0.512855
C44	C	1.815729	-0.303242	-0.512821
C45	C	1.934034	-0.303247	-0.512835
C46	C	1.538179	-0.303174	-0.790410
C47	C	1.538209	-0.303150	-0.908715
C48	C	1.538277	-0.139038	-0.512871
C49	C	1.538349	-0.069070	-0.512906
C50	C	1.467079	-0.345178	-0.977939
C51	C	1.564193	-0.360559	-1.048726
C52	C	1.441171	-0.287731	-1.048728
C53	C	1.635374	-0.318561	-0.977944
C54	C	1.512287	-0.245707	-0.977939
C55	C	1.609468	-0.261066	-1.048694
C56	C	1.538098	-0.303238	-0.236248
C57	C	1.538274	-0.303084	-0.117943
H58	H	0.972003	-0.331503	-0.333486
H59	H	1.661565	-0.542849	-0.389350
C60	C	1.741346	-0.183946	-1.004476
C61	C	1.690803	-0.213050	-1.090373
H62	H	1.791566	-0.154308	-1.030209
H63	H	1.690019	-0.163050	-0.962019
H64	H	1.776746	-0.214742	-0.962954
H65	H	1.655395	-0.182254	-1.131890
H66	H	1.742138	-0.233946	-1.132847
C67	C	1.740797	-0.628751	-0.310293
C68	C	1.681049	-0.671486	-0.370009
H69	H	1.787014	-0.651058	-0.264137
H70	H	1.781478	-0.603070	-0.356691
H71	H	1.694415	-0.603149	-0.269539
H72	H	1.727430	-0.697085	-0.410770
H73	H	1.640364	-0.697178	-0.323605
H74	H	1.105311	-0.274950	-0.692040
C75	C	1.078688	-0.153163	-0.387159
C76	C	1.115911	-0.213113	-0.360724
H77	H	1.104558	-0.123525	-0.337090
H78	H	1.102991	-0.142191	-0.456122
H79	H	1.003269	-0.153116	-0.386173
H80	H	1.191331	-0.213162	-0.361718
H81	H	1.091614	-0.224088	-0.291743
H82	H	1.104905	-0.409235	-0.464291
H83	H	1.414527	-0.662134	-0.636166
C84	C	1.335280	-0.576230	-0.715219
C85	C	1.395034	-0.533493	-0.655513
H86	H	1.289042	-0.553925	-0.761356
H87	H	1.381649	-0.601824	-0.755983
H88	H	1.294611	-0.601919	-0.668806
H89	H	1.435709	-0.507807	-0.701926
H90	H	1.348660	-0.507888	-0.614746
C91	C	1.773554	-0.396135	-0.972772
C92	C	1.746228	-0.336210	-0.936161
H93	H	1.841991	-0.407030	-0.946980
H94	H	1.722973	-0.425820	-0.947973
H95	H	1.774248	-0.396193	-1.048194
H96	H	1.745527	-0.336154	-0.860738
H97	H	1.796823	-0.306518	-0.960954
C98	C	1.380864	-0.164167	-0.971581
C99	C	1.482602	-0.180187	-0.935915
H100	H	1.362529	-0.123720	-0.945628
H101	H	1.380036	-0.163757	-1.046989
H102	H	1.331028	-0.194157	-0.946297
H103	H	1.532439	-0.150200	-0.961206
H104	H	1.483438	-0.180593	-0.860492
H105	H	0.972477	-0.381035	-0.643801
H106	H	1.586154	-0.409109	-1.079819
H107	H	1.661914	-1.062953	-0.389523
C108	C	0.850210	-0.181156	-0.569522
C109	C	0.961378	-0.180302	-0.568877
H110	H	0.824335	-0.140697	-0.587965
H111	H	0.826018	-0.211015	-0.620025
H112	H	0.824887	-0.192326	-0.501006
H113	H	0.986701	-0.169136	-0.637395
H114	H	0.985580	-0.150433	-0.518372
H115	H	1.414781	-1.062971	-0.636291
H116	H	1.359080	-0.274717	-1.079821
C117	C	1.741039	-0.977049	-0.310420
C118	C	1.681226	-0.934317	-0.370093
H119	H	1.787245	-0.954739	-0.264265
H120	H	1.694705	-1.002735	-0.269675
H121	H	1.781744	-1.002645	-0.356852
H122	H	1.640515	-0.908724	-0.323660
H123	H	1.727566	-0.908619	-0.410840
C124	C	1.335520	-0.977072	-0.715316
C125	C	1.395279	-0.934334	-0.655617
H126	H	1.289278	-0.954768	-0.761451
H127	H	1.381885	-1.002667	-0.756083
H128	H	1.294855	-1.002760	-0.668899
H129	H	1.435950	-0.908649	-0.702035
H130	H	1.348907	-0.908729	-0.614847
C131	C	1.413385	-0.453320	-0.971725
C132	C	1.385941	-0.393229	-0.935988
H133	H	1.363299	-0.482984	-0.945819
H134	H	1.413296	-0.453888	-1.047134
H135	H	1.482167	-0.463844	-0.946441
H136	H	1.317161	-0.382703	-0.961279
H137	H	1.386019	-0.392659	-0.860564
