data_functionalizedCrystal
_audit_creation_method	'MofGen! by Chris Wilmer'
_symmetry_space_group_name_H-M	'P1'
_symmetry_Int_Tables_number	1
_symmetry_cell_setting	triclinic
loop_
_symmetry_equiv_pos_as_xyz
  x,y,z
_cell_length_a	6.817900
_cell_length_b	7.190334
_cell_length_c	11.102183
_cell_angle_alpha	92.055521
_cell_angle_beta	108.603876
_cell_angle_gamma	60.611776
loop_
_atom_site_label
_atom_site_type_symbol
_atom_site_fract_x
_atom_site_fract_y
_atom_site_fract_z
V1	V	-4.248748	0.664997	-0.173812
O2	O	-4.205181	0.652342	0.010438
O3	O	-4.224575	0.660445	-0.346645
O4	O	-4.285380	0.955027	-0.170223
O5	O	-4.143955	0.355721	-0.167206
V6	V	-4.718219	0.628006	-0.151881
O7	O	-4.540832	0.746141	-0.221917
O8	O	-4.876332	0.546862	-0.103775
O9	O	-4.519185	0.632557	0.020952
O10	O	-4.879183	0.640661	-0.336131
O11	O	-4.940409	0.937282	-0.158487
O12	O	-4.458380	0.337976	-0.155470
C13	C	-4.072719	0.649954	-0.388807
C14	C	-4.134808	0.648165	-0.530095
C15	C	-4.150291	1.025719	-0.163756
C16	C	-4.263777	1.267276	-0.161930
C17	C	-3.933837	0.257514	-0.495008
C18	C	-3.862520	0.061356	-0.543841
C19	C	-3.920869	0.059687	-0.676594
C20	C	-4.050553	0.254198	-0.760519
C21	C	-4.121870	0.450356	-0.711686
C22	C	-4.063503	0.452003	-0.578928
C23	C	-4.322853	0.841004	-0.746773
C24	C	-4.264492	0.842676	-0.614020
C25	C	-4.452538	1.035514	-0.830698
C26	C	-4.523843	1.231677	-0.781865
C27	C	-4.465484	1.233337	-0.649103
C28	C	-4.335809	1.038835	-0.565187
C29	C	-4.334383	0.643043	0.063107
C30	C	-4.251536	0.644845	0.204394
H31	H	-3.756933	-0.097010	-0.475495
N32	N	-3.843976	-0.151874	-0.729275
H33	H	-3.752976	-0.274843	-0.655972
H34	H	-3.737182	-0.168294	-0.779216
H35	H	-4.098081	0.252823	-0.868613
N36	N	-4.663742	1.441435	-0.872395
H37	H	-4.565832	1.442230	-0.923896
H38	H	-4.700060	1.565853	-0.821243
N39	N	-4.515483	1.033708	-0.973880
H40	H	-4.363458	0.949399	-0.994594
H41	H	-4.608518	1.186746	-1.019543
N42	N	-4.272843	1.040625	-0.422002
H43	H	-4.179869	0.887644	-0.376252
H44	H	-4.424959	1.125031	-0.401390
N45	N	-3.870864	0.259313	-0.351824
H46	H	-3.777884	0.106335	-0.306069
H47	H	-4.022977	0.343720	-0.331209
N48	N	-4.542424	1.444912	-0.596436
H49	H	-4.633429	1.567866	-0.669749
H50	H	-4.395966	1.446897	-0.537748
