data_functionalizedCrystal
_audit_creation_method	'MofGen! by Chris Wilmer'
_symmetry_space_group_name_H-M	'P1'
_symmetry_Int_Tables_number	1
_symmetry_cell_setting	triclinic
loop_
_symmetry_equiv_pos_as_xyz
  x,y,z
_cell_length_a	21.295419
_cell_length_b	12.759401
_cell_length_c	12.759393
_cell_angle_alpha	90.018496
_cell_angle_beta	89.978300
_cell_angle_gamma	89.997782
loop_
_atom_site_label
_atom_site_type_symbol
_atom_site_fract_x
_atom_site_fract_y
_atom_site_fract_z
Zn1	Zn	0.250569	1.606348	0.594053
Zn2	Zn	0.355853	1.606281	0.418404
Zn3	Zn	0.250602	1.430650	0.418393
Zn4	Zn	0.355805	1.430677	0.594045
O5	O	0.303207	1.518489	0.506224
O6	O	0.264542	1.753360	0.570761
O7	O	0.341926	1.582944	0.271381
O8	O	0.162509	1.453973	0.441693
O9	O	0.341894	1.753311	0.441712
O10	O	0.162484	1.583057	0.570750
O11	O	0.264598	1.453908	0.271373
O12	O	0.264551	1.283632	0.441685
O13	O	0.341811	1.454020	0.741067
O14	O	0.341843	1.283652	0.570737
O15	O	0.264495	1.583084	0.741073
O16	O	0.443936	1.582970	0.441704
O17	O	0.443901	1.453955	0.570747
C18	C	0.303196	1.245521	0.506210
C19	C	0.303206	1.128745	0.506228
C20	C	0.139017	1.518520	0.506222
C21	C	0.069049	1.518533	0.506221
C22	C	0.343516	1.073921	0.573314
C23	C	0.343524	0.964197	0.573326
C24	C	0.262910	0.964130	0.439156
C25	C	0.262899	1.073852	0.439151
C26	C	0.390060	1.073958	0.650773
C27	C	0.390068	0.964234	0.650784
C28	C	0.036194	1.451337	0.439029
C29	C	-0.029548	1.451336	0.439042
C30	C	-0.062433	1.518549	0.506235
C31	C	-0.029570	1.585749	0.573439
C32	C	0.036171	1.585741	0.573432
N33	N	-0.165653	1.610529	0.514307
N34	N	-0.228104	1.610533	0.514307
C35	C	-0.260508	1.518575	0.506261
N36	N	-0.228101	1.426610	0.498194
N37	N	-0.165644	1.426607	0.498188
C38	C	-0.133719	1.518564	0.506250
C39	C	-0.364649	1.451373	0.439080
C40	C	-0.430393	1.451370	0.439100
C41	C	-0.430413	1.585792	0.573492
C42	C	-0.364671	1.585786	0.573478
C43	C	-0.331792	1.518578	0.506266
C44	C	0.466759	1.518487	0.506249
C45	C	0.536727	1.518582	0.506295
C46	C	0.303144	1.518562	0.780257
C47	C	0.303117	1.518594	0.897034
C48	C	0.303220	1.792522	0.506239
C49	C	0.303225	1.909299	0.506245
C50	C	0.303225	1.518476	0.233256
C51	C	0.303075	1.518648	0.116480
C52	C	0.262855	1.585807	0.951901
C53	C	0.262832	1.585832	1.061625
C54	C	0.343339	1.451428	1.061606
C55	C	0.343358	1.451398	0.951884
C56	C	0.216376	1.663407	0.951913
C57	C	0.216353	1.663432	1.061637
H58	H	0.230071	1.118486	0.384530
Br59	Br	0.245503	1.792207	0.895181
H60	H	0.376101	1.396717	1.106278
H61	H	-0.337878	1.396643	0.384357
H62	H	0.170033	1.634302	1.095672
H63	H	0.229410	1.744808	1.091419
Br64	Br	0.467230	1.130690	0.602094
Br65	Br	0.208208	0.889627	0.348131
H66	H	0.377059	1.103762	0.732176
H67	H	0.372666	0.930230	0.728131
Br68	Br	0.471298	0.914592	0.614217
Br69	Br	0.080812	1.360122	0.347819
H70	H	-0.457144	1.396645	0.384388
Br71	Br	0.397989	1.360156	0.877423
Br72	Br	-0.074148	1.360141	0.347841
Br73	Br	-0.074198	1.676957	0.664641
Br74	Br	-0.475036	1.677005	0.664691
Br75	Br	0.080763	1.676938	0.664631
Br76	Br	-0.320078	1.676982	0.664674
H77	H	0.167626	1.641621	0.922143
