data_functionalizedCrystal
_audit_creation_method	'MofGen! by Chris Wilmer'
_symmetry_space_group_name_H-M	'P1'
_symmetry_Int_Tables_number	1
_symmetry_cell_setting	triclinic
loop_
_symmetry_equiv_pos_as_xyz
  x,y,z
_cell_length_a	9.065215
_cell_length_b	16.109304
_cell_length_c	7.540329
_cell_angle_alpha	89.999220
_cell_angle_beta	89.997574
_cell_angle_gamma	84.238668
loop_
_atom_site_label
_atom_site_type_symbol
_atom_site_fract_x
_atom_site_fract_y
_atom_site_fract_z
O1	O	1.957454	0.121893	-0.147449
O2	O	1.527927	0.131895	-0.147456
O3	O	1.754487	0.005954	-0.147454
O4	O	1.730893	0.247835	-0.147452
O5	O	1.754474	0.005952	0.147511
O6	O	1.527913	0.131894	0.147509
O7	O	1.957440	0.121892	0.147516
Cu8	Cu	1.742675	0.126893	0.174445
Cu9	Cu	1.742691	0.126895	-0.174385
O10	O	1.730879	0.247833	0.147513
C11	C	1.472956	0.130934	0.000025
C12	C	1.309183	0.128061	0.000022
C13	C	1.753524	-0.025029	0.000025
C14	C	1.750657	-0.117346	0.000013
C15	C	1.744039	-0.329733	-0.160766
C16	C	1.741331	-0.416474	-0.160765
C17	C	1.741324	-0.416473	0.160823
C18	C	1.744021	-0.329733	0.160819
C19	C	1.745386	-0.286366	0.000019
C20	C	1.739981	-0.459847	0.000024
C21	C	1.737045	-0.553895	0.000027
C22	C	1.748320	-0.192311	0.000016
C23	C	2.012410	0.122853	0.000030
C24	C	2.176184	0.125726	0.000022
C25	C	1.731843	0.278816	0.000031
C26	C	1.734710	0.371133	0.000031
N27	N	1.742675	0.126891	0.419793
N28	N	1.742703	0.126890	-0.419734
H29	H	1.740231	-0.451780	-0.291692
H30	H	1.745146	-0.294426	-0.291700
C31	C	1.745505	-0.282023	0.337697
C32	C	1.619324	-0.213915	0.381916
C33	C	1.620802	-0.166205	0.558784
C34	C	1.748460	-0.186603	0.691434
C35	C	1.874650	-0.254715	0.647218
C36	C	1.873173	-0.302425	0.470349
H37	H	1.524816	-0.198812	0.283717
H38	H	1.527387	-0.115784	0.591515
H39	H	1.749554	-0.151285	0.822362
H40	H	1.969159	-0.269818	0.745416
H41	H	1.966588	-0.352846	0.437619
C42	C	1.739812	-0.464171	0.337705
C43	C	1.868191	-0.460717	0.470377
C44	C	1.866672	-0.508408	0.647269
C45	C	1.736774	-0.559553	0.691487
C46	C	1.608385	-0.563009	0.558811
C47	C	1.609904	-0.515318	0.381920
H48	H	1.964358	-0.422854	0.437647
H49	H	1.961715	-0.505849	0.745484
H50	H	1.735649	-0.594857	0.822433
H51	H	1.512217	-0.600872	0.591541
H52	H	1.514861	-0.517876	0.283705
