data_functionalizedCrystal
_audit_creation_method	'MofGen! by Chris Wilmer'
_symmetry_space_group_name_H-M	'P1'
_symmetry_Int_Tables_number	1
_symmetry_cell_setting	triclinic
loop_
_symmetry_equiv_pos_as_xyz
  x,y,z
_cell_length_a	13.032721
_cell_length_b	21.395364
_cell_length_c	21.395355
_cell_angle_alpha	89.974702
_cell_angle_beta	82.834036
_cell_angle_gamma	82.778791
loop_
_atom_site_label
_atom_site_type_symbol
_atom_site_fract_x
_atom_site_fract_y
_atom_site_fract_z
Zn1	Zn	-0.415723	-0.926248	0.385930
Zn2	Zn	-0.590464	-0.912863	0.294458
Zn3	Zn	-0.415774	-0.821459	0.281169
Zn4	Zn	-0.590488	-0.808143	0.399199
O5	O	-0.503112	-0.867178	0.340189
O6	O	-0.438871	-1.012153	0.373804
O7	O	-0.567303	-0.900710	0.205018
O8	O	-0.269519	-0.846534	0.283951
O9	O	-0.567253	-1.002319	0.306601
O10	O	-0.269482	-0.923522	0.360918
O11	O	-0.438959	-0.833555	0.195255
O12	O	-0.438982	-0.732012	0.296817
O13	O	-0.567294	-0.823839	0.485116
O14	O	-0.567343	-0.722229	0.383533
O15	O	-0.438895	-0.910610	0.475367
O16	O	-0.736716	-0.887798	0.319467
O17	O	-0.736733	-0.810860	0.396419
C18	C	-0.503172	-0.704386	0.340174
C19	C	-0.503222	-0.634741	0.340184
C20	C	-0.436485	-0.607162	0.375247
C21	C	-0.436460	-0.541729	0.375247
C22	C	-0.503192	-0.503875	0.340191
C23	C	-0.569934	-0.531461	0.305121
C24	C	-0.569949	-0.596894	0.305117
C25	C	-0.597314	-0.392994	0.342320
C26	C	-0.597301	-0.327562	0.342328
C27	C	-0.503144	-0.302058	0.340199
C28	C	-0.408999	-0.341994	0.338075
C29	C	-0.409014	-0.407427	0.338071
C30	C	-0.503182	-0.432923	0.340191
C31	C	-0.436375	-0.203529	0.375263
C32	C	-0.436349	-0.138094	0.375259
C33	C	-0.569831	-0.127828	0.305137
C34	C	-0.569848	-0.193262	0.305138
C35	C	-0.503122	-0.231108	0.340204
C36	C	-0.774645	-0.846449	0.360839
C37	C	-0.890808	-0.837638	0.369694
C38	C	-0.942553	-0.871810	0.335596
C39	C	-1.062614	-0.862704	0.344747
C40	C	-0.230520	-0.888006	0.319472
C41	C	-0.114357	-0.896882	0.310644
C42	C	-0.503091	-0.867232	0.503611
C43	C	-0.503082	-0.867255	0.573251
C44	C	-0.503067	-0.030605	0.340202
C45	C	-0.503080	-0.100245	0.340202
C46	C	-0.503058	-0.867167	0.177397
C47	C	-0.502773	-0.867288	0.107735
C48	C	-0.436222	-0.912435	0.600889
C49	C	-0.436177	-0.912438	0.666321
C50	C	-0.503011	-0.867265	0.704114
C51	C	-0.569876	-0.822077	0.676469
C52	C	-0.569912	-0.822072	0.611037
C53	C	-0.597115	-0.855134	0.814945
C54	C	-0.597081	-0.855143	0.880376
C55	C	-0.502901	-0.867277	0.905927
C56	C	-0.408751	-0.879416	0.866039
C57	C	-0.408786	-0.879411	0.800607
C58	C	-0.502979	-0.867265	0.775064
C59	C	-0.435986	-0.912463	1.004513
C60	C	-0.435939	-0.912461	1.069946
C61	C	-0.569647	-0.822103	1.080093
C62	C	-0.569685	-0.822102	1.014661
C63	C	-0.502855	-0.867285	0.976875
H64	H	-0.624197	-0.215716	0.276589
H65	H	-0.673744	-0.845263	0.912848
H66	H	-0.897973	-0.907811	0.299630
H67	H	-1.107192	-0.826707	0.380720
H68	H	-1.069779	-0.932885	0.274676
H69	H	-0.382110	-0.519270	0.403798
N70	N	-0.698877	-0.420495	0.344613
H71	H	-0.708778	-0.446907	0.383522
H72	H	-0.697314	-0.447706	0.305861
H73	H	-0.381726	-0.949228	0.688828
H74	H	-0.624296	-0.619348	0.276564
H75	H	-0.935390	-0.801642	0.405664
H76	H	-0.624054	-0.785317	1.110863
H77	H	-0.381487	-0.949252	1.092446
H78	H	-0.381803	-0.949226	0.570127
H79	H	-0.332357	-0.439941	0.336340
N80	N	-0.641809	-0.087007	0.267329
H81	H	-0.684093	-0.114410	0.245117
H82	H	-0.599187	-0.063110	0.235135
H83	H	-0.382036	-0.234346	0.403812
N84	N	-0.307250	-0.892503	0.757585
H85	H	-0.247577	-0.900194	0.783695
H86	H	-0.297574	-0.855067	0.729683
N87	N	-0.307161	-0.892511	0.893586
H88	H	-0.321420	-0.890671	0.941088
H89	H	-0.260454	-0.859848	0.878574
N90	N	-0.363908	-0.961191	0.963752
H91	H	-0.321537	-0.989811	0.991191
H92	H	-0.315570	-0.939380	0.932909
H93	H	-0.624136	-0.785315	0.992159
H94	H	-0.673789	-0.845086	0.794147
H95	H	-0.624289	-0.785295	0.707244
H96	H	-0.624356	-0.785278	0.588536
H97	H	-0.382150	-0.637973	0.403801
H98	H	-0.332327	-0.321231	0.336342
N99	N	-0.364346	-0.108347	0.413066
H100	H	-0.322078	-0.142254	0.435276
H101	H	-0.406942	-0.077942	0.445260
N102	N	-0.641907	-0.490632	0.267315
H103	H	-0.716606	-0.496302	0.282650
H104	H	-0.625477	-0.503266	0.221330
H105	H	-0.673960	-0.295050	0.344060
