data_functionalizedCrystal
_audit_creation_method	'MofGen! by Chris Wilmer'
_symmetry_space_group_name_H-M	'P1'
_symmetry_Int_Tables_number	1
_symmetry_cell_setting	triclinic
loop_
_symmetry_equiv_pos_as_xyz
  x,y,z
_cell_length_a	15.944486
_cell_length_b	15.944551
_cell_length_c	13.448316
_cell_angle_alpha	90.007556
_cell_angle_beta	90.010260
_cell_angle_gamma	83.485575
loop_
_atom_site_label
_atom_site_type_symbol
_atom_site_fract_x
_atom_site_fract_y
_atom_site_fract_z
O1	O	-1.114560	-0.108076	-0.082775
O2	O	-0.870003	-0.121489	-0.082759
O3	O	-0.998960	0.007494	-0.082758
O4	O	-0.985604	-0.237059	-0.082775
O5	O	-0.998944	0.007502	0.082625
O6	O	-0.869987	-0.121481	0.082625
O7	O	-1.114544	-0.108068	0.082609
Cu8	Cu	-0.992264	-0.114774	0.097718
Cu9	Cu	-0.992283	-0.114783	-0.097868
O10	O	-0.985587	-0.237051	0.082608
C11	C	-0.838700	-0.120938	-0.000065
C12	C	-0.745452	-0.119297	-0.000059
C13	C	-0.998398	0.038791	-0.000066
C14	C	-0.996735	0.132037	-0.000066
C15	C	-0.453914	-0.194243	-0.000074
C16	C	-0.514951	-0.155292	-0.081617
C17	C	-0.409813	-0.113336	-0.000075
C18	C	-0.514921	-0.155263	0.081439
C19	C	-0.574723	-0.116269	-0.000066
C20	C	-0.469622	-0.074363	-0.081686
C21	C	-0.469586	-0.074345	0.081443
C22	C	-0.530606	-0.035336	-0.000120
C23	C	-0.314812	-0.111649	-0.000082
C24	C	-0.669722	-0.117951	-0.000066
C25	C	-0.145846	-0.108631	-0.000082
C26	C	-0.239090	-0.110306	-0.000081
C27	C	-0.986150	-0.268349	-0.000086
C28	C	-0.987812	-0.361595	-0.000093
C29	C	-0.912828	0.346874	-0.000074
C30	C	-0.951784	0.407905	0.081468
C31	C	-0.993728	0.302762	-0.000073
C32	C	-0.951819	0.407880	-0.081588
C33	C	-0.990817	0.467674	-0.000085
C34	C	-1.032706	0.362564	0.081536
C35	C	-1.032729	0.362534	-0.081593
C36	C	-1.071744	0.423546	-0.000031
C37	C	-0.995402	0.207760	-0.000065
C38	C	-0.989149	0.562675	-0.000085
N39	N	-0.992257	-0.114767	0.235282
N40	N	-0.992297	-0.114784	-0.235432
C41	C	-1.049377	-0.057677	0.287323
C42	C	-1.049382	-0.057676	0.391426
C43	C	-0.992271	-0.114770	0.443487
C44	C	-0.935145	-0.171863	0.391439
C45	C	-0.935136	-0.171859	0.287337
C46	C	-0.935168	-0.171869	0.608419
C47	C	-0.935178	-0.171874	0.712527
C48	C	-1.049414	-0.057686	0.712507
C49	C	-1.049405	-0.057682	0.608406
C50	C	-0.992280	-0.114776	0.556365
H51	H	-0.420584	-0.261390	-0.000157
O52	O	-0.910882	0.431716	-0.163800
C53	C	-0.827126	0.392302	-0.163469
H54	H	-0.823096	0.332905	-0.115730
H55	H	-0.783558	0.437545	-0.131641
C56	C	-0.804886	0.441320	-0.329223
C57	C	-0.799937	0.368364	-0.270595
H58	H	-0.788112	0.426557	-0.395303
H59	H	-0.861313	0.467877	-0.329445
H60	H	-0.768579	0.479016	-0.302688
H61	H	-0.836252	0.330675	-0.297123
H62	H	-0.743516	0.341800	-0.270380
O63	O	-1.104959	-0.002197	0.441824
C64	C	-1.155358	0.048202	0.373551
H65	H	-1.156288	0.013766	0.299335
H66	H	-1.128099	0.110622	0.362507
C67	C	-1.244833	0.107749	0.505301
C68	C	-1.245982	0.065451	0.414149
H69	H	-1.300734	0.118393	0.530344
H70	H	-1.210877	0.073797	0.551298
H71	H	-1.222114	0.159761	0.496085
H72	H	-1.268691	0.013436	0.423369
H73	H	-1.279944	0.099395	0.368154
O74	O	-1.104724	-0.002146	0.236668
C75	C	-1.059705	0.049706	0.176530
H76	H	-0.993995	0.016248	0.160925
H77	H	-1.053959	0.111760	0.216705
C78	C	-1.187760	0.108812	0.096811
C79	C	-1.107056	0.067714	0.077638
H80	H	-1.216969	0.119924	0.035812
H81	H	-1.218091	0.073881	0.137330
H82	H	-1.182960	0.160519	0.130294
H83	H	-1.111856	0.016004	0.044168
H84	H	-1.076726	0.102638	0.037111
O85	O	-1.073401	0.338539	-0.163941
C86	C	-1.030549	0.361379	-0.249747
H87	H	-0.962064	0.368130	-0.230206
H88	H	-1.062323	0.424025	-0.279501
C89	C	-1.117444	0.284295	-0.353683
C90	C	-1.033328	0.292579	-0.329684
H91	H	-1.119160	0.241859	-0.402994
H92	H	-1.146317	0.268909	-0.295875
H93	H	-1.143912	0.336505	-0.378472
H94	H	-1.006864	0.240374	-0.304884
H95	H	-1.004450	0.307955	-0.387490
H96	H	-0.563783	0.031872	-0.000159
O97	O	-0.445746	-0.033717	-0.164095
C98	C	-0.389270	-0.089164	-0.220531
H99	H	-0.398949	-0.157176	-0.202053
H100	H	-0.321628	-0.078024	-0.202083
C101	C	-0.393994	0.010623	-0.354758
C102	C	-0.405886	-0.072909	-0.332068
H103	H	-0.404239	0.020652	-0.423559
H104	H	-0.432040	0.047981	-0.316735
H105	H	-0.337625	0.019897	-0.339377
H106	H	-0.462257	-0.082178	-0.347438
H107	H	-0.367850	-0.110268	-0.370097
O108	O	-1.104872	-0.002107	0.762942
C109	C	-1.091212	0.081053	0.737540
H110	H	-1.058826	0.080965	0.661969
H111	H	-1.049414	0.107052	0.796150
C112	C	-1.216278	0.136996	0.825524
C113	C	-1.176508	0.136889	0.732702
H114	H	-1.268892	0.171440	0.822544
H115	H	-1.225480	0.080970	0.842641
H116	H	-1.181438	0.158660	0.874356
H117	H	-1.211343	0.115215	0.683874
H118	H	-1.167314	0.192913	0.715576
O119	O	-0.879608	-0.227354	0.762947
C120	C	-0.829190	-0.277750	0.694694
H121	H	-0.828245	-0.243315	0.620490
H122	H	-0.856442	-0.340172	0.683609
C123	C	-0.739742	-0.337291	0.826490
C124	C	-0.738575	-0.294993	0.735354
H125	H	-0.683847	-0.347931	0.851572
H126	H	-0.773711	-0.303340	0.872474
H127	H	-0.762455	-0.389304	0.817240
H128	H	-0.715872	-0.242976	0.744608
H129	H	-0.704600	-0.328935	0.689372
H130	H	-1.095913	-0.011196	0.566019
O131	O	-0.879793	-0.227365	0.557754
C132	C	-0.924775	-0.279214	0.497531
H133	H	-0.990499	-0.245783	0.481923
H134	H	-0.930485	-0.341298	0.537635
C135	C	-0.796688	-0.338203	0.417825
C136	C	-0.877410	-0.297140	0.398648
H137	H	-0.767471	-0.349265	0.356831
H138	H	-0.766383	-0.303274	0.458401
H139	H	-0.801459	-0.389936	0.451247
H140	H	-0.872638	-0.245405	0.365238
H141	H	-0.907714	-0.332061	0.358064
H142	H	-0.888640	-0.218347	0.433832
H143	H	-1.066887	0.342585	0.150549
H144	H	-0.888623	-0.218347	0.244967
H145	H	-0.845678	0.313551	0.000012
O146	O	-0.538824	-0.196229	-0.163835
C147	C	-0.466973	-0.224023	-0.221145
H148	H	-0.408565	-0.229799	-0.171627
H149	H	-0.459446	-0.176577	-0.283010
C150	C	-0.549290	-0.303581	-0.327889
C151	C	-0.477553	-0.310682	-0.267068
H152	H	-0.555817	-0.357034	-0.356221
H153	H	-0.597699	-0.284854	-0.289281
H154	H	-0.543009	-0.264039	-0.379434
H155	H	-0.483840	-0.350215	-0.215517
H156	H	-0.429146	-0.329418	-0.305669
O157	O	-0.445594	-0.033672	0.163792
C158	C	-0.468426	-0.076531	0.249598
H159	H	-0.475168	-0.145016	0.230058
H160	H	-0.531075	-0.044766	0.279350
C161	C	-0.391352	0.010373	0.353534
C162	C	-0.399625	-0.073745	0.329536
H163	H	-0.348915	0.012094	0.402845
H164	H	-0.375972	0.039250	0.295725
H165	H	-0.443564	0.036834	0.378321
H166	H	-0.347417	-0.100201	0.304738
H167	H	-0.414995	-0.102627	0.387342
H168	H	-1.138953	0.456720	0.000011
H169	H	-0.534990	-0.189493	0.150373
H170	H	-0.917560	0.428008	0.150409
