data_functionalizedCrystal
_audit_creation_method	'MofGen! by Chris Wilmer'
_symmetry_space_group_name_H-M	'P1'
_symmetry_Int_Tables_number	1
_symmetry_cell_setting	triclinic
loop_
_symmetry_equiv_pos_as_xyz
  x,y,z
_cell_length_a	17.052832
_cell_length_b	17.052862
_cell_length_c	17.052862
_cell_angle_alpha	61.493325
_cell_angle_beta	102.027225
_cell_angle_gamma	78.839794
loop_
_atom_site_label
_atom_site_type_symbol
_atom_site_fract_x
_atom_site_fract_y
_atom_site_fract_z
Zr1	Zr	0.912567	0.867850	-0.034718
O2	O	0.825611	0.990869	-0.178639
O3	O	0.920078	0.717550	0.020837
O4	O	0.962271	0.837719	-0.132313
O5	O	0.771914	0.903982	0.082308
O6	O	1.091849	0.844984	-0.108778
O7	O	0.783419	0.870701	-0.025490
O8	O	1.016374	0.630024	0.165178
O9	O	0.847390	1.118942	-0.191648
O10	O	1.043115	0.794897	0.048278
O11	O	0.937827	0.814313	0.111163
O12	O	0.987503	0.955796	-0.069151
O13	O	0.882216	0.975212	-0.006266
Zr14	Zr	1.100880	0.932518	0.174742
Zr15	Zr	1.119228	0.879437	0.002817
Zr16	Zr	0.894219	0.920931	0.137207
Zr17	Zr	0.947300	1.072112	-0.055466
Zr18	Zr	1.066147	0.728256	0.195490
O19	O	1.093369	1.082819	0.119187
O20	O	1.119457	1.007345	-0.125269
O21	O	0.799523	1.066343	0.065817
O22	O	1.187836	0.809499	0.318663
O23	O	1.213924	0.734025	0.074207
O24	O	0.893990	0.793024	0.265293
O25	O	1.241533	0.896386	0.057715
O26	O	1.051176	0.962650	0.272337
O27	O	0.921598	0.955385	0.248802
O28	O	1.230029	0.929668	0.165514
O29	O	1.011658	1.128152	-0.161813
O30	O	1.001789	0.672216	0.301837
O31	O	1.166058	0.681426	0.331672
O32	O	1.180642	0.639234	0.195014
O33	O	0.832805	1.161134	-0.054990
O34	O	0.997074	1.170345	-0.025155
O35	O	1.025944	0.844573	0.209175
O36	O	1.131232	0.825157	0.146290
O37	O	1.075620	0.986056	0.028861
O38	O	0.970332	1.005472	0.091746
C39	C	0.963277	0.644684	0.095964
C40	C	0.948532	0.557970	0.104772
C41	C	0.748222	0.885691	0.023061
C42	C	0.660488	0.880772	0.007127
C43	C	1.126803	0.273001	-0.001715
C44	C	1.140656	0.354476	-0.009996
C45	C	1.092626	0.405353	0.018695
C46	C	1.030741	0.374748	0.055669
C47	C	1.016883	0.293269	0.063945
C48	C	0.982706	0.425621	0.084355
C49	C	0.920821	0.395015	0.121329
C50	C	0.906966	0.313544	0.129603
C51	C	0.954995	0.262667	0.100912
C52	C	0.996564	0.507100	0.076079
C53	C	0.886644	0.527368	0.141739
C54	C	0.872792	0.445892	0.150020
C55	C	0.387837	0.940242	0.199775
C56	C	0.470269	0.944858	0.214752
C57	C	0.517827	0.928837	0.162847
C58	C	0.482947	0.908199	0.095963
C59	C	0.400510	0.903575	0.080990
C60	C	0.530500	0.892170	0.044061
C61	C	0.495620	0.871531	-0.022823
C62	C	0.413190	0.866909	-0.037794
C63	C	0.365632	0.882930	0.014111
C64	C	0.612937	0.896794	0.059034
C65	C	0.625610	0.860127	-0.059751
C66	C	0.543179	0.855511	-0.074728
C67	C	1.265226	0.914678	0.116963
C68	C	1.352959	0.919597	0.132897
C69	C	1.029674	0.833788	-0.145041
C70	C	1.037463	0.811254	-0.218028
C71	C	1.050170	1.155684	0.044060
C72	C	1.064915	1.242399	0.035252
C73	C	0.943293	1.083693	-0.668961
C74	C	0.935969	1.104867	-0.600389
C75	C	0.961342	1.031466	-0.504796
C76	C	0.994040	0.936886	-0.477781
C77	C	1.001358	0.915709	-0.546360
C78	C	1.019407	0.863482	-0.382196
C79	C	1.052105	0.768902	-0.355180
C80	C	1.059422	0.747729	-0.423755
C81	C	1.034049	0.821131	-0.519347
C82	C	1.012089	0.884660	-0.313616
C83	C	1.070154	0.716676	-0.191015
C84	C	1.077478	0.695501	-0.259587
C85	C	0.983773	0.966580	0.285065
C86	C	0.975984	0.989114	0.358052
C87	C	1.221779	0.659178	0.142914
C88	C	1.294767	0.577382	0.167657
C89	C	0.940327	0.711080	0.311017
C90	C	0.917792	0.646900	0.392812
C91	C	1.198829	0.725574	0.357967
C92	C	1.264027	0.666312	0.455697
C93	C	0.814619	1.074795	-0.217943
C94	C	0.749420	1.134056	-0.315673
C95	C	0.791668	1.141191	-0.002890
C96	C	0.718680	1.222986	-0.027633
C97	C	1.073121	1.089289	-0.170993
C98	C	1.095655	1.153469	-0.252788
C99	C	1.283048	0.523173	0.128107
C100	C	1.351623	0.446323	0.151337
C101	C	1.431916	0.423681	0.214121
C102	C	1.443635	0.477898	0.253670
C103	C	1.375061	0.554751	0.230436
C104	C	0.953205	0.632557	0.482392
C105	C	0.932029	0.572267	0.559252
C106	C	0.875445	0.526313	0.546531
C107	C	0.840028	0.540661	0.456940
C108	C	0.861199	0.600956	0.380081
C109	C	1.349613	0.628348	0.468768
C110	C	1.410885	0.572676	0.560589
C111	C	1.386568	0.554963	0.639338
C112	C	1.300974	0.592934	0.626263
C113	C	1.239705	0.648611	0.534443
C114	C	0.663836	1.172030	-0.328745
C115	C	0.602569	1.227728	-0.420568
C116	C	0.626886	1.245445	-0.499318
C117	C	0.712479	1.207469	-0.486242
C118	C	0.773746	1.151778	-0.394421
C119	C	0.730402	1.277202	0.011908
C120	C	0.661832	1.354068	-0.011342
C121	C	0.581540	1.376713	-0.074129
C122	C	0.569820	1.322492	-0.113675
C123	C	0.638391	1.245632	-0.090429
C124	C	1.152242	1.199405	-0.240037
C125	C	1.173432	1.259701	-0.316880
C126	C	1.138029	1.274066	-0.406476
C127	C	1.081439	1.228122	-0.419225
C128	C	1.060255	1.167822	-0.342381
H129	H	1.103909	0.471694	0.011950
H130	H	0.644019	1.157608	-0.264633
N131	N	1.387706	0.613217	0.273097
H132	H	1.407285	0.571224	0.344771
H133	H	1.332062	0.665334	0.248783
H134	H	1.181075	1.187721	-0.167090
N135	N	0.507881	0.967131	0.286876
H136	H	0.567318	0.967628	0.288487
H137	H	0.510446	0.917212	0.351880
N138	N	0.852628	0.461268	0.629440
H139	H	0.811411	0.434327	0.607796
H140	H	0.825243	0.498263	0.654317
N141	N	0.510253	1.268677	-0.434666
H142	H	0.505049	1.311386	-0.409191
H143	H	0.488789	1.215374	-0.399471
N144	N	0.738701	1.226572	-0.571181
H145	H	0.781550	1.260434	-0.574440
H146	H	0.686852	1.267580	-0.631278
H147	H	1.155286	1.323169	-0.469040
N148	N	0.625743	1.187145	-0.133065
H149	H	0.664609	1.190056	-0.170965
H150	H	0.564453	1.213188	-0.176317
N151	N	1.505873	0.340782	0.239188
H152	H	1.552925	0.363976	0.219615
H153	H	1.486186	0.309910	0.204602
N154	N	1.207394	0.387489	-0.049877
H155	H	1.235718	0.342897	-0.066796
H156	H	1.251618	0.388061	-0.000665
H157	H	0.576991	1.290794	-0.574080
H158	H	0.909348	1.181875	-0.622391
N159	N	1.178589	0.218141	-0.032675
H160	H	1.160414	0.161888	-0.021827
H161	H	1.241093	0.195155	0.005615
N162	N	0.674478	1.412547	0.031308
H163	H	0.694045	1.370567	0.102983
H164	H	0.618834	1.464672	0.006977
N165	N	1.530238	0.453472	0.321386
H166	H	1.571893	0.396558	0.330100
H167	H	1.525875	0.438277	0.384932
N168	N	0.336552	0.957499	0.255768
H169	H	0.279041	0.951431	0.236136
H170	H	0.328442	1.023430	0.242644
N171	N	0.866049	1.110811	-0.380339
H172	H	0.885749	1.039273	-0.338842
H173	H	0.902033	1.135293	-0.348610
N174	N	0.483213	1.346908	-0.181377
H175	H	0.441557	1.403819	-0.190087
H176	H	0.462649	1.291059	-0.154374
N177	N	0.276723	0.877945	-0.002042
H178	H	0.234637	0.941147	-0.024015
H179	H	0.274199	0.826875	0.059382
N180	N	1.452654	0.494889	0.738371
H181	H	1.424268	0.489420	0.786281
H182	H	1.497135	0.525514	0.742641
H183	H	0.795773	1.258774	0.063039
N184	N	1.014238	0.682112	0.496127
H185	H	1.033449	0.663872	0.564542
H186	H	0.984638	0.753083	0.452773
N187	N	0.970236	0.556797	0.655874
H188	H	1.009300	0.595051	0.652265
H189	H	1.003841	0.487202	0.703685
N190	N	0.507585	1.459614	-0.099197
H191	H	0.527202	1.490517	-0.064613
H192	H	0.460564	1.436350	-0.079627
H193	H	0.514769	0.838706	-0.129186
N194	N	0.779004	0.491089	0.443229
H195	H	0.770976	0.450713	0.505518
H196	H	0.803014	0.449460	0.421157
H197	H	0.922632	1.143445	-0.746794
H198	H	0.832361	0.612622	0.307144
N199	N	1.338966	0.387846	0.108687
H200	H	1.394586	0.335724	0.132924
H201	H	1.319347	0.429902	0.037018
N202	N	1.375851	0.647436	0.383841
H203	H	1.439369	0.614933	0.406069
H204	H	1.360984	0.718081	0.339432
N205	N	1.147393	0.689551	0.520352
H206	H	1.141294	0.669874	0.584176
H207	H	1.111423	0.665102	0.488567
N208	N	1.234470	1.309245	-0.303117
H209	H	1.253672	1.290997	-0.234699
H210	H	1.204878	1.380217	-0.346467
N211	N	1.043258	1.243620	-0.515863
H212	H	1.065267	1.288795	-0.562602
H213	H	0.979082	1.271455	-0.538471
N214	N	1.503198	0.531726	0.574679
H215	H	1.509297	0.551390	0.510856
H216	H	1.522855	0.460197	0.616225
N217	N	1.041812	0.798158	-0.593251
H218	H	1.103484	0.762736	-0.576944
H219	H	1.020701	0.858981	-0.657936
N220	N	0.999216	1.118287	-0.356151
H221	H	0.942412	1.167151	-0.405592
H222	H	0.991229	1.077901	-0.293841
N223	N	0.976833	0.986662	-0.342747
H224	H	0.916868	1.016974	-0.390298
H225	H	1.014022	1.022340	-0.372620
N226	N	1.274752	0.573825	0.711203
H227	H	1.326558	0.532788	0.771349
H228	H	1.231892	0.539988	0.714371
H229	H	0.847532	0.568794	0.165099
H230	H	1.046952	0.532012	0.045974
H231	H	0.856568	0.288633	0.159701
N232	N	0.940056	0.174784	0.109852
H233	H	0.979878	0.147198	0.086070
H234	H	0.879045	0.191993	0.070665
H235	H	1.104099	0.618493	-0.237603
H236	H	0.822404	0.420962	0.180124
H237	H	0.641330	0.913598	0.113493
H238	H	1.090812	0.656906	-0.113180
N239	N	0.606736	0.933813	0.179044
H240	H	0.609370	0.984847	0.117670
H241	H	0.648778	0.870573	0.201059
N242	N	0.375567	0.844640	-0.109923
H243	H	0.412426	0.780313	-0.091599
H244	H	0.372938	0.894602	-0.174941
N245	N	0.676896	0.842842	-0.115738
H246	H	0.734408	0.848906	-0.096107
H247	H	0.645513	0.891146	-0.185977
H248	H	0.955377	1.048712	-0.448965
H249	H	1.086038	0.670715	-0.401753
H250	H	1.217677	0.541603	0.076974
