data_functionalizedCrystal
_audit_creation_method	'MofGen! by Chris Wilmer'
_symmetry_space_group_name_H-M	'P1'
_symmetry_Int_Tables_number	1
_symmetry_cell_setting	triclinic
loop_
_symmetry_equiv_pos_as_xyz
  x,y,z
_cell_length_a	6.394989
_cell_length_b	16.109318
_cell_length_c	15.186229
_cell_angle_alpha	90.000224
_cell_angle_beta	89.999328
_cell_angle_gamma	84.983137
loop_
_atom_site_label
_atom_site_type_symbol
_atom_site_fract_x
_atom_site_fract_y
_atom_site_fract_z
O1	O	0.268653	1.105966	-0.073149
O2	O	0.302027	0.864259	-0.073166
O3	O	-0.018726	0.988543	-0.073158
O4	O	0.589406	0.981681	-0.073157
O5	O	-0.018731	0.988534	0.073299
O6	O	0.302022	0.864250	0.073291
O7	O	0.268648	1.105957	0.073308
Zn8	Zn	0.285335	0.985102	0.096553
Zn9	Zn	0.285341	0.985114	-0.096411
O10	O	0.589401	0.981673	0.073300
C11	C	0.300666	0.833266	0.000060
C12	C	0.296594	0.740928	0.000053
C13	C	0.283445	0.441720	-0.079765
C14	C	0.287257	0.528481	-0.079770
C15	C	0.287224	0.528490	0.079905
C16	C	0.283397	0.441731	0.079910
C17	C	0.281518	0.398347	0.000072
C18	C	0.289157	0.571868	0.000062
C19	C	0.293291	0.665939	0.000057
C20	C	0.277380	0.304271	0.000077
C21	C	0.667224	0.983034	0.000068
C22	C	0.903457	0.987180	0.000065
C23	C	0.270009	1.136950	0.000080
C24	C	0.274081	1.229288	0.000081
N25	N	0.285329	0.985101	0.228245
N26	N	0.285329	0.985122	-0.228104
C27	C	0.143348	1.040153	0.453972
C28	C	0.143343	1.040156	0.546161
C29	C	0.427318	0.930063	0.546164
C30	C	0.427311	0.930057	0.453976
C31	C	0.285328	0.985107	0.407882
C32	C	0.285330	0.985115	0.592260
C33	C	0.285326	0.985118	0.692216
C34	C	0.285329	0.985104	0.307920
H35	H	0.281825	0.406416	0.144927
Br36	Br	-0.049347	1.114862	0.391420
H37	H	0.542920	0.885244	0.583702
H38	H	0.027727	1.084979	0.583685
Br39	Br	0.289792	0.587372	0.188251
Br40	Br	0.619996	0.855339	0.391418
H41	H	0.288824	0.563791	-0.144782
Br42	Br	0.280890	0.382844	-0.188116
