data_functionalizedCrystal
_audit_creation_method	'MofGen! by Chris Wilmer'
_symmetry_space_group_name_H-M	'P1'
_symmetry_Int_Tables_number	1
_symmetry_cell_setting	triclinic
loop_
_symmetry_equiv_pos_as_xyz
  x,y,z
_cell_length_a	16.109301
_cell_length_b	10.654550
_cell_length_c	15.186229
_cell_angle_alpha	89.996404
_cell_angle_beta	89.999362
_cell_angle_gamma	83.973206
loop_
_atom_site_label
_atom_site_type_symbol
_atom_site_fract_x
_atom_site_fract_y
_atom_site_fract_z
O1	O	1.104090	0.161419	-0.073173
O2	O	0.862148	0.181507	-0.073187
O3	O	0.988682	-0.011352	-0.073174
O4	O	0.977556	0.354278	-0.073185
O5	O	0.988673	-0.011354	0.073284
O6	O	0.862139	0.181504	0.073271
O7	O	1.104082	0.161416	0.073285
Zn8	Zn	0.983109	0.171460	0.096531
Zn9	Zn	0.983120	0.171463	-0.096433
O10	O	0.977548	0.354275	0.073272
C11	C	0.831164	0.180692	0.000040
C12	C	0.738854	0.178253	0.000035
C13	C	0.517228	0.287019	0.000042
C14	C	0.430494	0.284717	0.000048
C15	C	0.449008	0.055896	0.000051
C16	C	0.535741	0.058199	0.000052
C17	C	0.569848	0.173764	0.000043
C18	C	0.396382	0.169159	0.000048
C19	C	0.302341	0.166662	0.000054
C20	C	0.663895	0.176262	0.000038
C21	C	0.987861	-0.058140	0.000054
C22	C	0.985417	-0.197550	0.000053
C23	C	1.059918	-0.278046	0.000057
C24	C	1.057616	-0.409036	0.000046
C25	C	0.906306	-0.379020	0.000031
C26	C	0.908608	-0.248033	0.000035
C27	C	1.145364	-0.606070	-0.051264
C28	C	1.219869	-0.686572	-0.051245
C29	C	1.287407	-0.657317	0.000083
C30	C	1.280443	-0.547563	0.051414
C31	C	1.205937	-0.467068	0.051402
C32	C	1.138402	-0.496322	0.000054
C33	C	0.820866	-0.050997	0.051353
C34	C	0.746359	0.029500	0.051348
C35	C	0.678814	0.000249	0.000025
C36	C	0.685769	-0.109507	-0.051292
C37	C	0.760277	-0.190004	-0.051287
C38	C	0.827822	-0.160745	0.000034
C39	C	1.135066	0.162231	0.000056
C40	C	1.227376	0.164671	0.000055
C41	C	0.978369	0.401063	0.000042
C42	C	0.980813	0.540473	0.000037
N43	N	0.983108	0.171457	0.228224
N44	N	0.983129	0.171457	-0.228126
C45	C	1.039156	0.086088	0.453952
C46	C	1.039159	0.086085	0.546142
C47	C	0.927074	0.256830	0.546140
C48	C	0.927068	0.256826	0.453952
C49	C	0.983114	0.171456	0.407860
C50	C	0.983122	0.171457	0.592238
C51	C	0.983125	0.171455	0.692194
C52	C	0.983111	0.171457	0.307898
H53	H	1.122460	-0.236948	0.000069
H54	H	1.348071	-0.722871	0.000097
H55	H	1.084791	0.016573	0.416427
O56	O	0.886516	-0.022800	0.101243
C57	C	0.907275	-0.120609	0.162429
H58	H	0.884068	-0.211489	0.137255
H59	H	0.876621	-0.094092	0.228452
C60	C	1.031214	-0.028885	0.205004
C61	C	1.002717	-0.140509	0.174081
H62	H	1.090086	-0.041158	0.212195
H63	H	1.017227	0.037014	0.163784
H64	H	1.005661	-0.006800	0.260020
H65	H	1.028262	-0.162584	0.119061
H66	H	1.016710	-0.206413	0.215292
O67	O	1.199228	-0.360580	0.101381
C68	C	1.211666	-0.393384	0.190712
H69	H	1.249091	-0.490071	0.195504
H70	H	1.148610	-0.396519	0.224266
C71	C	1.213907	-0.175625	0.230608
C72	C	1.259881	-0.294372	0.236494
H73	H	1.243645	-0.114547	0.258851
H74	H	1.205525	-0.153522	0.170425
H75	H	1.161364	-0.178254	0.258570
H76	H	1.312419	-0.291745	0.208523
H77	H	1.268273	-0.316471	0.296674
H78	H	0.881444	0.326338	0.583676
H79	H	0.421227	-0.038193	0.000064
O80	O	0.620227	-0.138145	-0.101173
C81	C	0.642351	-0.252263	-0.146482
H82	H	0.695510	-0.309528	-0.110193
H83	H	0.663339	-0.230860	-0.216084
C84	C	0.501067	-0.258140	-0.195546
C85	C	0.566354	-0.328479	-0.150971
H86	H	0.454188	-0.305153	-0.198320
H87	H	0.486162	-0.181255	-0.165024
H88	H	0.518569	-0.240309	-0.253544
H89	H	0.548856	-0.346296	-0.092972
H90	H	0.581255	-0.405370	-0.181484
O91	O	1.346067	-0.519373	0.101339
C92	C	1.366795	-0.617189	0.162528
H93	H	1.343604	-0.708068	0.137329
H94	H	1.336103	-0.590683	0.228534
C95	C	1.490707	-0.525465	0.205192
C96	C	1.462230	-0.637086	0.174238
H97	H	1.549575	-0.537735	0.212419
H98	H	1.476741	-0.459560	0.163971
H99	H	1.465122	-0.503388	0.260194
H100	H	1.487806	-0.659152	0.119232
H101	H	1.476202	-0.702995	0.215451
O102	O	1.093680	0.003113	0.590779
C103	C	1.143127	-0.072255	0.530325
H104	H	1.144358	-0.020764	0.464608
H105	H	1.115597	-0.165560	0.520525
C106	C	1.231154	-0.161341	0.647013
C107	C	1.232672	-0.098094	0.566301
H108	H	1.286389	-0.177285	0.669205
H109	H	1.197839	-0.110568	0.687743
H110	H	1.208209	-0.239088	0.638836
H111	H	1.255607	-0.020342	0.574481
H112	H	1.265993	-0.148854	0.525573
H113	H	0.618142	0.065794	0.000037
H114	H	0.578586	-0.034032	0.000055
H115	H	0.387654	0.376940	0.000049
H116	H	0.881427	0.326344	0.416421
H117	H	0.544996	0.381119	0.000041
O118	O	1.226646	-0.793048	-0.101245
C119	C	1.214170	-0.760231	-0.190570
H120	H	1.228301	-0.658697	-0.201140
H121	H	1.146577	-0.769372	-0.209456
C122	C	1.255404	-0.973896	-0.235366
C123	C	1.272768	-0.849194	-0.248351
H124	H	1.291547	-1.028776	-0.271010
H125	H	1.263807	-0.996008	-0.175187
H126	H	1.199075	-0.981496	-0.251105
H127	H	1.329092	-0.841593	-0.232602
H128	H	1.264376	-0.827083	-0.308529
O129	O	0.739657	0.135996	0.101326
C130	C	0.752115	0.103195	0.190655
H131	H	0.789549	0.006515	0.195440
H132	H	0.689067	0.100050	0.224223
C133	C	0.754347	0.320959	0.230546
C134	C	0.800330	0.202219	0.236424
H135	H	0.784084	0.382043	0.258780
H136	H	0.745950	0.343059	0.170364
H137	H	0.701809	0.318320	0.258519
H138	H	0.852862	0.204855	0.208442
H139	H	0.808736	0.180121	0.296602
O140	O	0.767178	-0.296570	-0.101195
C141	C	0.832608	-0.291849	-0.162378
H142	H	0.878121	-0.225079	-0.137186
H143	H	0.805862	-0.256320	-0.228393
C144	C	0.822830	-0.506888	-0.205004
C145	C	0.878734	-0.424888	-0.174060
H146	H	0.851281	-0.588953	-0.212214
H147	H	0.778746	-0.510068	-0.163787
H148	H	0.800546	-0.477266	-0.260013
H149	H	0.901009	-0.454503	-0.119046
H150	H	0.922823	-0.421716	-0.215268
H151	H	0.843771	-0.420140	0.000018
O152	O	1.079787	-0.634317	-0.101241
C153	C	1.059036	-0.536479	-0.162407
H154	H	1.115567	-0.482560	-0.173879
H155	H	1.005241	-0.469328	-0.135498
C156	C	0.963237	-0.659375	-0.235984
C157	C	1.032673	-0.593158	-0.250080
H158	H	0.946972	-0.694335	-0.290064
H159	H	0.977215	-0.725289	-0.194774
H160	H	0.918417	-0.603405	-0.213558
H161	H	1.077495	-0.649131	-0.272495
H162	H	1.018702	-0.527255	-0.291297
