data_functionalizedCrystal
_audit_creation_method	'MofGen! by Chris Wilmer'
_symmetry_space_group_name_H-M	'P1'
_symmetry_Int_Tables_number	1
_symmetry_cell_setting	triclinic
loop_
_symmetry_equiv_pos_as_xyz
  x,y,z
_cell_length_a	17.077404
_cell_length_b	29.839131
_cell_length_c	17.077396
_cell_angle_alpha	90.033517
_cell_angle_beta	90.017060
_cell_angle_gamma	90.041645
loop_
_atom_site_label
_atom_site_type_symbol
_atom_site_fract_x
_atom_site_fract_y
_atom_site_fract_z
Zn1	Zn	1.199935	-0.178844	0.443824
Zn2	Zn	1.699935	0.321156	0.943824
Zn3	Zn	1.199805	-0.253976	0.312550
Zn4	Zn	1.699805	0.246024	0.812550
Zn5	Zn	1.068672	-0.178861	0.312572
Zn6	Zn	1.568672	0.321139	0.812572
Zn7	Zn	1.068592	-0.253948	0.443774
Zn8	Zn	1.568592	0.246052	0.943774
O9	O	1.134251	-0.216407	0.378180
O10	O	1.634251	0.283593	0.878180
O11	O	1.309764	-0.188815	0.426422
O12	O	1.809764	0.311185	0.926422
O13	O	1.182389	-0.244032	0.202706
O14	O	1.682389	0.255968	0.702706
O15	O	1.086172	-0.115992	0.330013
O16	O	1.586172	0.384008	0.830013
O17	O	1.309669	-0.244014	0.329976
O18	O	1.809669	0.255986	0.829976
O19	O	1.182610	-0.115979	0.426443
O20	O	1.682610	0.384021	0.926443
O21	O	1.086046	-0.188845	0.202722
O22	O	1.586046	0.311155	0.702722
O23	O	0.958814	-0.188817	0.329964
O24	O	1.458814	0.311183	0.829964
O25	O	1.086036	-0.243965	0.553627
O26	O	1.586036	0.256035	1.053627
O27	O	0.958756	-0.243983	0.426358
O28	O	1.458756	0.256017	0.926358
O29	O	1.182533	-0.188787	0.553664
O30	O	1.682533	0.311213	1.053664
O31	O	1.182311	-0.316840	0.329927
O32	O	1.682311	0.183160	0.829927
O33	O	1.085910	-0.316818	0.426336
O34	O	1.585910	0.183182	0.926336
C35	C	0.930303	-0.216399	0.378158
C36	C	1.430303	0.283601	0.878158
C37	C	0.843053	-0.216406	0.378168
C38	C	1.343053	0.283594	0.878168
C39	C	1.134109	-0.333130	0.378141
C40	C	1.634109	0.166870	0.878141
C41	C	1.134120	-0.383064	0.378151
C42	C	1.634120	0.116936	0.878151
C43	C	0.802053	-0.245174	0.428279
C44	C	1.302053	0.254826	0.928279
C45	C	0.720073	-0.245175	0.428292
C46	C	1.220073	0.254825	0.928292
C47	C	0.679094	-0.216410	0.378188
C48	C	1.179094	0.283590	0.878188
C49	C	0.720100	-0.187639	0.328074
C50	C	1.220100	0.312361	0.828074
C51	C	0.802079	-0.187636	0.328066
C52	C	1.302079	0.312364	0.828066
C53	C	0.549230	-0.187648	0.328093
C54	C	1.049230	0.312352	0.828093
C55	C	0.467245	-0.187651	0.328100
C56	C	0.967245	0.312349	0.828100
C57	C	0.467224	-0.245187	0.428319
C58	C	0.967224	0.254813	0.928319
C59	C	0.549202	-0.245184	0.428311
C60	C	1.049202	0.254816	0.928311
C61	C	0.590203	-0.216414	0.378196
C62	C	1.090203	0.283586	0.878196
C63	C	1.184538	-0.692706	0.328053
C64	C	1.684538	-0.192706	0.828053
C65	C	1.184635	-0.880379	0.328083
C66	C	1.684635	-0.380379	0.828083
O67	O	1.227390	-0.904642	0.285459
O68	O	1.727390	-0.404642	0.785459
N69	N	1.134414	-0.903849	0.378239
N70	N	1.634414	-0.403849	0.878239
C71	C	1.084168	-0.880398	0.428394
C72	C	1.584168	-0.380398	0.928394
O73	O	1.041459	-0.904668	0.471061
O74	O	1.541459	-0.404668	0.971061
C75	C	1.084075	-0.692726	0.428367
C76	C	1.584075	-0.192726	0.928367
C77	C	1.134295	-0.669258	0.378203
C78	C	1.634295	-0.169258	0.878203
C79	C	1.234754	-0.669238	0.277893
C80	C	1.734754	-0.169238	0.777893
C81	C	1.234727	-0.622323	0.277883
C82	C	1.734727	-0.122323	0.777883
C83	C	1.184483	-0.598875	0.328033
C84	C	1.684483	-0.098875	0.828033
C85	C	1.134267	-0.622343	0.378193
C86	C	1.634267	-0.122343	0.878193
C87	C	1.033834	-0.669276	0.478526
C88	C	1.533834	-0.169276	0.978526
C89	C	1.033817	-0.622355	0.478516
C90	C	1.533817	-0.122355	0.978516
C91	C	1.084036	-0.598887	0.428352
C92	C	1.584036	-0.098887	0.928352
C93	C	1.083996	-0.551980	0.428332
C94	C	1.583996	-0.051980	0.928332
N95	N	1.134217	-0.528510	0.378177
N96	N	1.634217	-0.028510	0.878177
C97	C	1.184461	-0.551957	0.328027
C98	C	1.684461	-0.051957	0.828027
C99	C	1.084219	-0.978929	0.428404
C100	C	1.584219	-0.478929	0.928404
C101	C	1.084241	-1.025847	0.428410
C102	C	1.584241	-0.525847	0.928410
C103	C	1.184709	-1.025824	0.328100
C104	C	1.684709	-0.525824	0.828100
C105	C	1.184683	-0.978905	0.328090
C106	C	1.684683	-0.478905	0.828090
C107	C	1.134440	-0.955459	0.378248
C108	C	1.634440	-0.455459	0.878248
C109	C	1.184398	-0.453431	0.328009
C110	C	1.684398	0.046569	0.828009
C111	C	1.184364	-0.406512	0.328001
C112	C	1.684364	0.093488	0.828001
C113	C	1.083898	-0.406539	0.428314
C114	C	1.583898	0.093461	0.928314
C115	C	1.083930	-0.453454	0.428319
C116	C	1.583930	0.046546	0.928319
C117	C	1.134186	-0.476899	0.378164
C118	C	1.634186	0.023101	0.878164
O119	O	1.041269	-0.527688	0.470941
O120	O	1.541269	-0.027688	0.970941
O121	O	1.227176	-0.527680	0.285378
O122	O	1.727176	-0.027680	0.785378
C123	C	1.184566	-0.739621	0.328063
C124	C	1.684566	-0.239621	0.828063
C125	C	1.134350	-0.763089	0.378223
C126	C	1.634350	-0.263089	0.878223
C127	C	1.084107	-0.739642	0.428373
C128	C	1.584107	-0.239642	0.928373
C129	C	1.134372	-0.810007	0.378229
C130	C	1.634372	-0.310007	0.878229
C131	C	1.184616	-0.833455	0.328079
C132	C	1.684616	-0.333455	0.828079
C133	C	1.234838	-0.809984	0.277923
C134	C	1.734838	-0.309984	0.777923
C135	C	1.234810	-0.763069	0.277913
C136	C	1.734810	-0.263069	0.777913
C137	C	1.033885	-0.763112	0.478529
C138	C	1.533885	-0.263112	0.978529
C139	C	1.033916	-0.810027	0.478534
C140	C	1.533916	-0.310027	0.978534
C141	C	1.084160	-0.833475	0.428384
C142	C	1.584160	-0.333475	0.928384
C143	C	1.338995	-0.216416	0.378202
C144	C	1.838995	0.283584	0.878202
C145	C	1.426245	-0.216419	0.378212
C146	C	1.926245	0.283581	0.878212
C147	C	1.134290	-0.216371	0.582924
C148	C	1.634290	0.283629	1.082924
C149	C	1.134306	-0.216355	0.670174
C150	C	1.634306	0.283645	1.170174
C151	C	1.134415	-0.099229	0.378236
C152	C	1.634415	0.400771	0.878236
C153	C	1.134484	-0.049294	0.378260
C154	C	1.634484	0.450706	0.878260
C155	C	1.134257	-0.216411	0.174232
C156	C	1.634257	0.283589	0.674232
C157	C	1.134393	-0.216300	0.086983
C158	C	1.634393	0.283700	0.586983
C159	C	1.184543	-0.245039	1.045983
C160	C	1.684543	0.254961	1.545983
C161	C	1.184523	-0.245052	0.964002
C162	C	1.684523	0.254948	1.464002
C163	C	1.134357	-0.216324	0.923023
C164	C	1.634357	0.283676	1.423023
C165	C	1.084201	-0.187584	0.964029
C166	C	1.584201	0.312416	1.464029
C167	C	1.084218	-0.187573	1.046008
C168	C	1.584218	0.312427	1.546008
C169	C	1.084172	-0.187607	0.793159
C170	C	1.584172	0.312393	1.293159
C171	C	1.084156	-0.187617	0.711174
C172	C	1.584156	0.312383	1.211174
C173	C	1.184478	-0.245085	0.711153
C174	C	1.684478	0.254915	1.211153
C175	C	1.184494	-0.245075	0.793132
C176	C	1.684494	0.254925	1.293132
C177	C	1.134339	-0.216334	0.834132
C178	C	1.634339	0.283666	1.334132
H179	H	0.835412	-0.268600	0.469077
H180	H	1.335412	0.231400	0.969077
H181	H	0.582565	-0.268610	0.469105
H182	H	1.082565	0.231390	0.969105
H183	H	0.433837	-0.268612	0.469126
H184	H	0.933837	0.231388	0.969126
Br185	Br	1.016156	-0.148568	1.101652
Br186	Br	1.516156	0.351432	1.601652
Br187	Br	1.016127	-0.148589	0.908415
Br188	Br	1.516127	0.351411	1.408415
H189	H	1.275622	-0.603218	0.237037
H190	H	1.775622	-0.103218	0.737037
Br191	Br	1.252839	-0.947061	0.260007
Br192	Br	1.752839	-0.447061	0.760007
H193	H	1.043308	-0.164222	0.677811
H194	H	1.543308	0.335778	1.177811
H195	H	0.686694	-0.268602	0.469097
H196	H	1.186694	0.231398	0.969097
H197	H	0.433882	-0.164223	0.287311
H198	H	0.933882	0.335777	0.787311
H199	H	1.043039	-0.472563	0.469170
H200	H	1.543039	0.027437	0.969170
Br201	Br	0.604873	-0.148601	0.260081
Br202	Br	1.104873	0.351399	0.760081
Br203	Br	1.016116	-0.148594	0.848801
Br204	Br	1.516116	0.351406	1.348801
Br205	Br	1.252604	-0.485243	0.259941
Br206	Br	1.752604	0.014757	0.759941
Br207	Br	0.965630	-0.590537	0.546595
Br208	Br	1.465630	-0.090537	1.046595
H209	H	0.686728	-0.164216	0.287283
H210	H	1.186728	0.335784	0.787283
Br211	Br	1.252522	-0.374665	0.259914
Br212	Br	1.752522	0.125335	0.759914
Br213	Br	0.857723	-0.148590	0.260060
Br214	Br	1.357723	0.351410	0.760060
Br215	Br	1.302953	-0.701051	0.209825
Br216	Br	1.802953	-0.201051	0.709825
Br217	Br	1.252894	-1.057655	0.260037
Br218	Br	1.752894	-0.557655	0.760037
Br219	Br	1.016072	-1.057690	0.496482
Br220	Br	1.516072	-0.557690	0.996482
Br221	Br	1.303021	-0.841815	0.209860
Br222	Br	1.803021	-0.341815	0.709860
Br223	Br	1.016025	-0.947115	0.496482
Br224	Br	1.516025	-0.447115	0.996482
H225	H	0.992936	-0.688376	0.519372
H226	H	1.492936	-0.188376	1.019372
Br227	Br	1.015717	-0.374708	0.496374
Br228	Br	1.515717	0.125292	0.996374
Br229	Br	0.965752	-0.841871	0.546619
Br230	Br	1.465752	-0.341871	1.046619
H231	H	1.275703	-0.743965	0.237065
H232	H	1.775703	-0.243965	0.737065
Br233	Br	0.965691	-0.731298	0.546598
Br234	Br	1.465691	-0.231298	1.046598
H235	H	1.225398	-0.268430	1.079342
H236	H	1.725398	0.231570	1.579342
Br237	Br	1.252587	-0.284056	0.908362
Br238	Br	1.752587	0.215944	1.408362
H239	H	1.225348	-0.268466	0.826495
H240	H	1.725348	0.231534	1.326495
H241	H	1.225316	-0.268487	0.677767
H242	H	1.725316	0.231513	1.177767
