data_functionalizedCrystal
_audit_creation_method	'MofGen! by Chris Wilmer'
_symmetry_space_group_name_H-M	'P1'
_symmetry_Int_Tables_number	1
_symmetry_cell_setting	triclinic
loop_
_symmetry_equiv_pos_as_xyz
  x,y,z
_cell_length_a	10.723023
_cell_length_b	9.198806
_cell_length_c	9.065218
_cell_angle_alpha	89.998664
_cell_angle_beta	95.258283
_cell_angle_gamma	90.003487
loop_
_atom_site_label
_atom_site_type_symbol
_atom_site_fract_x
_atom_site_fract_y
_atom_site_fract_z
O1	O	1.658029	0.120871	-0.206933
O2	O	2.158029	0.620871	0.293067
O3	O	1.294957	0.120877	-0.226742
O4	O	1.794957	0.620877	0.273258
O5	O	1.483998	0.120871	-0.002153
O6	O	1.983998	0.620871	0.497847
O7	O	1.468988	0.120877	-0.431523
O8	O	1.968988	0.620877	0.068477
O9	O	1.483982	-0.120914	-0.002152
O10	O	1.983982	0.379086	0.497848
O11	O	1.294942	-0.120908	-0.226742
O12	O	1.794942	0.379092	0.273258
O13	O	1.658014	-0.120914	-0.206933
O14	O	2.158014	0.379086	0.293067
Cu15	Cu	1.476476	-0.142988	-0.216837
Cu16	Cu	1.976476	0.357012	0.283163
Cu17	Cu	1.476494	0.142951	-0.216838
Cu18	Cu	1.976494	0.642951	0.283162
O19	O	1.468973	-0.120908	-0.431522
O20	O	1.968973	0.379092	0.068478
C21	C	1.248444	-0.000015	-0.225301
C22	C	1.748444	0.499985	0.274699
C23	C	1.109872	-0.000013	-0.220989
C24	C	1.609872	0.499987	0.279011
C25	C	1.048084	-0.125263	-0.219066
C26	C	1.548084	0.374737	0.280934
C27	C	0.904863	-0.125264	-0.214609
C28	C	1.404863	0.374736	0.285391
N29	N	1.476473	-0.344102	-0.216836
N30	N	1.976473	0.155898	0.283164
C31	C	1.555844	-0.416301	-0.122121
C32	C	2.055844	0.083699	0.377879
C33	C	1.555863	-0.583714	-0.122116
C34	C	2.055863	-0.083714	0.377884
C35	C	1.704527	-0.000019	-0.208374
C36	C	2.204527	0.499981	0.291626
C37	C	1.843099	-0.000012	-0.212687
C38	C	2.343099	0.499988	0.287313
C39	C	1.482547	-0.000019	0.052826
C40	C	1.982547	0.499981	0.552826
C41	C	1.478234	-0.000012	0.216644
C42	C	1.978234	0.499988	0.716644
N43	N	1.476508	0.344065	-0.216828
N44	N	1.976508	0.844065	0.283172
C45	C	1.470423	-0.000015	-0.486501
C46	C	1.970423	0.499985	0.013499
C47	C	1.474736	-0.000012	-0.650319
C48	C	1.974736	0.499988	-0.150319
H49	H	0.896226	0.107226	-0.214349
H50	H	1.396226	0.607226	0.285651
H51	H	1.056740	0.107219	-0.219331
H52	H	1.556740	0.607219	0.280669
H53	H	1.623821	-0.645802	-0.041032
H54	H	2.123821	-0.145802	0.458968
H55	H	1.623778	-0.354177	-0.041030
H56	H	2.123778	0.145823	0.458970
H57	H	1.408556	-0.593856	-0.297926
H58	H	1.908556	-0.093856	0.202074
Br59	Br	1.363221	-0.447636	-0.351979
Br60	Br	1.863221	0.052364	0.148021
H61	H	0.851726	-0.232496	-0.212963
H62	H	1.351726	0.267504	0.287037
Br63	Br	1.136629	-0.304001	-0.221812
Br64	Br	1.636629	0.195999	0.278188
