data_functionalizedCrystal
_audit_creation_method	'MofGen! by Chris Wilmer'
_symmetry_space_group_name_H-M	'P1'
_symmetry_Int_Tables_number	1
_symmetry_cell_setting	triclinic
loop_
_symmetry_equiv_pos_as_xyz
  x,y,z
_cell_length_a	10.723024
_cell_length_b	15.995350
_cell_length_c	9.798715
_cell_angle_alpha	89.999084
_cell_angle_beta	89.996609
_cell_angle_gamma	83.980122
loop_
_atom_site_label
_atom_site_type_symbol
_atom_site_fract_x
_atom_site_fract_y
_atom_site_fract_z
O1	O	1.655689	0.117435	-0.113475
O2	O	1.292393	0.128675	-0.113479
O3	O	1.483972	0.001224	-0.113475
O4	O	1.464110	0.244886	-0.113478
O5	O	1.483958	0.001224	0.113507
O6	O	1.292379	0.128675	0.113503
O7	O	1.655675	0.117434	0.113507
Zn8	Zn	1.474025	0.123055	0.149544
Zn9	Zn	1.474044	0.123055	-0.149515
O10	O	1.464096	0.244885	0.113504
C11	C	1.245897	0.127857	0.000012
C12	C	1.107374	0.125410	0.000010
C13	C	1.031482	0.196725	0.000008
C14	C	0.888310	0.194197	0.000007
C15	C	1.483144	-0.029975	0.000013
C16	C	1.480682	-0.122940	0.000005
C17	C	1.471842	-0.460738	0.000010
C18	C	1.335403	-0.414088	-0.000501
C19	C	1.337865	-0.317383	0.000011
C20	C	1.476227	-0.293152	0.000007
C21	C	1.543515	-0.333843	0.129623
C22	C	1.540088	-0.430499	0.129732
C23	C	1.542922	-0.430840	-0.128390
C24	C	1.542890	-0.333895	-0.130103
C25	C	1.478712	-0.198441	0.000010
C26	C	1.469360	-0.555450	0.000016
C27	C	1.702171	0.118252	0.000014
C28	C	1.840694	0.120700	0.000007
C29	C	1.464924	0.276085	0.000013
C30	C	1.467386	0.369049	0.000011
N31	N	1.474021	0.123054	0.353643
N32	N	1.474057	0.123049	-0.353615
C33	C	1.554463	0.069305	0.421422
C34	C	1.554483	0.069302	0.578584
H35	H	1.284971	-0.289265	-0.092903
H36	H	0.905898	0.059646	-0.000001
C37	C	1.380997	0.185220	0.432421
C38	C	1.383461	0.280562	0.412908
C39	C	1.290433	0.342731	0.491681
C40	C	1.194942	0.309558	0.589968
C41	C	1.192475	0.214212	0.609486
C42	C	1.285502	0.152043	0.530713
H43	H	1.454152	0.305123	0.340146
H44	H	1.292261	0.413313	0.477232
H45	H	1.126078	0.355579	0.648281
H46	H	1.121783	0.189651	0.682248
H47	H	1.283675	0.081461	0.545162
H48	H	1.643790	-0.317954	-0.137932
H49	H	1.280875	-0.432932	-0.093451
C50	C	1.476418	-0.297426	-0.259608
C51	C	1.417880	-0.356030	-0.360385
C52	C	1.351353	-0.319568	-0.489867
C53	C	1.343364	-0.224502	-0.518571
C54	C	1.401904	-0.165892	-0.417791
C55	C	1.468431	-0.202354	-0.288309
H56	H	1.423792	-0.426409	-0.339140
H57	H	1.308017	-0.362955	-0.564471
H58	H	1.294117	-0.197510	-0.614421
H59	H	1.395992	-0.095513	-0.439037
H60	H	1.511766	-0.158966	-0.213705
H61	H	1.623357	0.023288	0.636871
H62	H	1.066355	0.062483	-0.000024
C63	C	1.473773	-0.455609	0.260617
C64	C	1.543934	-0.516537	0.363147
C65	C	1.477615	-0.541641	0.494033
C66	C	1.341134	-0.505818	0.522390
C67	C	1.270965	-0.444887	0.419857
C68	C	1.337285	-0.419782	0.288971
H69	H	1.644972	-0.543058	0.342158
H70	H	1.529559	-0.586746	0.569935
H71	H	1.292041	-0.524402	0.619280
H72	H	1.169928	-0.418365	0.440846
H73	H	1.285341	-0.374677	0.213069
H74	H	1.072501	0.259651	0.000015
H75	H	0.823099	0.255248	-0.000000
H76	H	1.496768	-0.305731	0.226082
H77	H	1.281106	-0.433994	0.091931
C78	C	1.678820	-0.472964	-0.129589
C79	C	1.789083	-0.418597	-0.125586
C80	C	1.924975	-0.460724	-0.126775
C81	C	1.950605	-0.557218	-0.131967
C82	C	1.840339	-0.611590	-0.135970
C83	C	1.704447	-0.569464	-0.134781
H84	H	1.770113	-0.347162	-0.121742
H85	H	2.006601	-0.420473	-0.123811
H86	H	2.051201	-0.588402	-0.132847
H87	H	1.859309	-0.683026	-0.139814
H88	H	1.622821	-0.609714	-0.137745
C89	C	1.647488	0.007138	0.342647
C90	C	1.647221	0.007148	0.185491
C91	C	1.740250	-0.055022	0.106722
C92	C	1.833546	-0.117202	0.185109
C93	C	1.833817	-0.117215	0.342274
C94	C	1.740788	-0.055045	0.421043
H95	H	1.578154	0.053179	0.127456
H96	H	1.740049	-0.055012	-0.009623
H97	H	1.902412	-0.163224	0.126799
H98	H	1.902884	-0.163247	0.400309
H99	H	1.740989	-0.055055	0.537387
H100	H	1.284604	-0.289825	0.093082
H101	H	1.405188	0.169072	0.588108
C102	C	1.675405	-0.473294	0.137692
C103	C	1.699888	-0.569889	0.139415
C104	C	1.835202	-0.612679	0.147383
C105	C	1.946033	-0.558874	0.153627
C106	C	1.921554	-0.462273	0.151904
C107	C	1.786240	-0.419483	0.143936
H108	H	1.617840	-0.609724	0.134793
H109	H	1.853322	-0.684190	0.148658
H110	H	2.046201	-0.590550	0.159525
H111	H	2.003601	-0.422438	0.156526
H112	H	1.768120	-0.347972	0.142660
C113	C	1.680838	-0.313972	0.136148
C114	C	1.733599	-0.260437	0.023586
C115	C	1.870921	-0.240564	0.030109
C116	C	1.955482	-0.274225	0.149194
C117	C	1.902721	-0.327763	0.261765
C118	C	1.765399	-0.347636	0.255242
H119	H	1.671002	-0.235516	-0.064575
H120	H	1.909978	-0.200931	-0.053224
H121	H	2.057135	-0.259513	0.154022
H122	H	1.965319	-0.352683	0.349926
H123	H	1.726343	-0.387268	0.338575
H124	H	1.498320	-0.451636	-0.226631
