data_functionalizedCrystal
_audit_creation_method	'MofGen! by Chris Wilmer'
_symmetry_space_group_name_H-M	'P1'
_symmetry_Int_Tables_number	1
_symmetry_cell_setting	triclinic
loop_
_symmetry_equiv_pos_as_xyz
  x,y,z
_cell_length_a	15.624967
_cell_length_b	15.711784
_cell_length_c	17.766277
_cell_angle_alpha	89.998621
_cell_angle_beta	108.090753
_cell_angle_gamma	101.031735
loop_
_atom_site_label
_atom_site_type_symbol
_atom_site_fract_x
_atom_site_fract_y
_atom_site_fract_z
O1	O	0.494696	1.147530	0.197673
O2	O	0.426016	0.895783	0.178918
O3	O	0.331326	1.028379	0.153068
O4	O	0.589386	1.014934	0.223523
O5	O	0.331313	1.028383	0.027876
O6	O	0.426003	0.895786	0.053726
O7	O	0.494683	1.147534	0.072481
Cu8	Cu	0.460342	1.021660	0.051672
Cu9	Cu	0.460357	1.021656	0.199727
O10	O	0.589373	1.014937	0.098331
C11	C	0.414790	0.863567	0.113259
C12	C	0.381349	0.767568	0.104127
C13	C	0.255455	0.642467	0.069755
C14	C	0.286887	0.732672	0.078338
C15	C	0.444416	0.712266	0.121349
C16	C	0.412997	0.622058	0.112774
C17	C	0.318516	0.587166	0.086976
C18	C	0.476058	0.566757	0.129995
C19	C	0.444641	0.476557	0.121416
C20	C	0.350164	0.441658	0.095617
C21	C	0.287099	0.496966	0.078397
C22	C	0.570538	0.601651	0.155787
C23	C	0.633599	0.546350	0.173008
C24	C	0.602183	0.456149	0.164435
C25	C	0.507705	0.421249	0.138636
C26	C	0.665247	0.400841	0.181655
C27	C	0.633830	0.310641	0.173076
C28	C	0.476289	0.331049	0.130057
C29	C	0.297528	1.027771	0.081248
C30	C	0.196837	1.025943	0.053762
C31	C	0.054905	1.023370	-0.053217
C32	C	0.149520	1.025087	-0.027382
C33	C	0.149553	1.025088	0.109102
C34	C	0.054937	1.023375	0.083279
C35	C	0.007621	1.022515	0.002118
C36	C	0.007653	1.022520	0.138614
C37	C	-0.086955	1.020803	0.112792
C38	C	-0.134278	1.019941	0.031635
C39	C	-0.086987	1.020798	-0.023704
C40	C	0.054970	1.023373	0.219774
C41	C	0.007685	1.022519	0.275110
C42	C	-0.086923	1.020808	0.249288
C43	C	-0.134247	1.019945	0.168131
C44	C	-0.134215	1.019950	0.304627
C45	C	-0.228823	1.018233	0.278805
C46	C	-0.228854	1.018228	0.142309
C47	C	0.623170	1.015546	0.170153
C48	C	0.723861	1.017373	0.197644
C49	C	0.505908	1.179750	0.138142
C50	C	0.539349	1.275749	0.147278
N51	N	0.460361	1.021654	0.303858
N52	N	0.460332	1.021669	-0.052460
C53	C	0.418587	1.080473	0.331841
C54	C	0.418588	1.080481	0.410643
C55	C	0.460349	1.021654	0.461455
C56	C	0.502133	0.962831	0.433466
C57	C	0.502139	0.962831	0.354667
C58	C	0.445993	0.942913	0.582380
C59	C	0.445980	0.942911	0.661175
C60	C	0.460337	1.021655	0.704498
C61	C	0.474687	1.100402	0.669011
C62	C	0.474693	1.100402	0.590213
C63	C	0.460348	1.021648	0.546901
C64	C	0.418562	1.080486	0.817927
C65	C	0.418569	1.080495	0.896732
C66	C	0.502108	0.962838	0.919552
C67	C	0.502107	0.962837	0.840750
C68	C	0.460329	1.021660	0.789941
H69	H	0.324586	0.368211	0.088626
H70	H	0.596115	0.675099	0.162768
H71	H	0.210164	0.468556	0.057398
O72	O	0.195605	1.025822	0.187911
C73	C	0.235849	0.951977	0.202999
H74	H	0.245175	0.927268	0.146299
H75	H	0.189272	0.898923	0.223979
C76	C	0.318674	1.006708	0.337375
C77	C	0.330135	0.976364	0.267736
H78	H	0.376833	1.021749	0.377310
H79	H	0.291559	1.056458	0.327212
H80	H	0.279857	0.962491	0.354848
H81	H	0.368942	1.020585	0.250259
H82	H	0.357260	0.926622	0.277898
H83	H	-0.125514	1.020103	-0.089793
O84	O	0.225658	0.786425	0.061487
C85	C	0.239126	0.839228	0.000338
H86	H	0.274358	0.806259	-0.035358
H87	H	0.284094	0.904849	0.027277
C88	C	0.102224	0.893293	-0.010784
C89	C	0.145490	0.852796	-0.054631
H90	H	0.044467	0.901666	-0.044690
H91	H	0.093152	0.857721	0.030415
H92	H	0.139707	0.947973	0.011662
H93	H	0.108012	0.798113	-0.077068
H94	H	0.154554	0.888359	-0.095836
O95	O	-0.274620	1.017408	0.332660
C96	C	-0.212579	1.018495	0.409829
H97	H	-0.139855	1.047110	0.409689
H98	H	-0.215895	0.949348	0.429873
C99	C	-0.327887	1.039289	0.467408
C100	C	-0.238567	1.074441	0.467238
H101	H	-0.343919	1.073795	0.502822
H102	H	-0.369687	1.038553	0.415419
H103	H	-0.330639	0.981667	0.484110
H104	H	-0.235819	1.132057	0.450527
H105	H	-0.196767	1.075187	0.519226
O106	O	0.377705	1.137430	0.923838
C107	C	0.306647	1.091005	0.949880
H108	H	0.320269	1.023421	0.965491
H109	H	0.238129	1.084960	0.900652
C110	C	0.286455	1.222758	1.004567
C111	C	0.303189	1.139754	1.023746
H112	H	0.284318	1.252830	1.050128
H113	H	0.334326	1.254037	0.987019
H114	H	0.229358	1.217710	0.963542
H115	H	0.360291	1.144804	1.064763
H116	H	0.255328	1.108477	1.041303
H117	H	0.434305	0.878786	0.547113
O118	O	0.542758	0.905814	0.969005
C119	C	0.613785	0.952081	1.033967
H120	H	0.600357	1.019751	1.042104
H121	H	0.682372	0.957915	1.022327
C122	C	0.633352	0.820215	1.099666
C123	C	0.616855	0.903326	1.109664
H124	H	0.635249	0.790139	1.146360
H125	H	0.585502	0.789043	1.055899
H126	H	0.690507	0.825088	1.089964
H127	H	0.559696	0.898451	1.119356
H128	H	0.664696	0.934496	1.153435
H129	H	0.742174	0.429264	0.202652
O130	O	-0.226159	1.018384	0.006465
C131	C	-0.243314	1.092651	-0.035631
H132	H	-0.183985	1.118593	-0.059290
H133	H	-0.249957	1.144746	0.005696
C134	C	-0.406095	1.036497	-0.076423
C135	C	-0.333229	1.068356	-0.105487
H136	H	-0.461560	1.021513	-0.119512
H137	H	-0.394538	0.986463	-0.048060
H138	H	-0.411618	1.079916	-0.041984
H139	H	-0.327699	1.024934	-0.139918
H140	H	-0.344786	1.118382	-0.133858
O141	O	0.009068	1.022504	-0.132089
C142	C	0.071092	1.023656	-0.175397
H143	H	0.133249	0.997525	-0.138432
H144	H	0.094551	1.093160	-0.189973
C145	C	-0.053151	0.998421	-0.298346
C146	C	0.023188	0.966319	-0.252948
H147	H	-0.082700	0.963056	-0.346185
H148	H	-0.094938	0.997648	-0.269170
H149	H	-0.033591	1.056340	-0.310485
H150	H	0.003626	0.908405	-0.240801
H151	H	0.064971	0.967081	-0.282124
O152	O	0.377973	1.137707	0.768680
C153	C	0.341084	1.189613	0.810276
H154	H	0.378380	1.190578	0.876631
H155	H	0.264778	1.161577	0.797824
C156	C	0.307676	1.281697	0.701399
C157	C	0.353489	1.282887	0.782897
H158	H	0.315324	1.339232	0.684509
H159	H	0.332526	1.246725	0.673373
H160	H	0.244092	1.258329	0.691033
H161	H	0.417074	1.306244	0.793261
H162	H	0.328651	1.317866	0.810924
O163	O	0.377926	1.137649	0.437696
C164	C	0.341076	1.189583	0.375960
H165	H	0.328285	1.154144	0.316293
H166	H	0.391691	1.253791	0.381407
C167	C	0.265437	1.250976	0.455047
C168	C	0.249720	1.207446	0.381763
H169	H	0.209087	1.261999	0.458628
H170	H	0.290266	1.215990	0.496642
H171	H	0.307620	1.304478	0.459578
H172	H	0.207548	1.153941	0.377238
H173	H	0.224882	1.242424	0.340168
O174	O	0.378151	1.137653	0.282440
C175	C	0.444177	1.190971	0.254909
H176	H	0.503284	1.156492	0.259254
H177	H	0.471537	1.254860	0.292751
C178	C	0.326899	1.251829	0.162514
C179	C	0.399492	1.209479	0.167844
H180	H	0.299336	1.263249	0.108810
H181	H	0.282416	1.215910	0.181064
H182	H	0.349709	1.305065	0.194054
H183	H	0.376679	1.156239	0.136313
H184	H	0.443971	1.245388	0.149286
H185	H	0.685181	0.265613	0.187096
O186	O	0.488696	1.176970	0.555874
C187	C	0.501342	1.246475	0.610995
H188	H	0.525637	1.224204	0.673806
H189	H	0.433511	1.268643	0.600843
C190	C	0.544128	1.349895	0.522926
C191	C	0.573975	1.322543	0.600072
H192	H	0.588928	1.396819	0.516187
H193	H	0.535605	1.303069	0.485789
H194	H	0.487602	1.368362	0.514475
H195	H	0.630494	1.304066	0.608518
H196	H	0.582510	1.369368	0.637211
H197	H	-0.095677	1.020642	0.370708
O198	O	0.725343	0.580392	0.198091
C199	C	0.739552	0.671864	0.201948
H200	H	0.676149	0.692954	0.208334
H201	H	0.752199	0.696974	0.145341
C202	C	0.901512	0.683468	0.266159
C203	C	0.823641	0.709372	0.274009
H204	H	0.953384	0.706607	0.310607
H205	H	0.891940	0.621842	0.263558
H206	H	0.912038	0.704396	0.218984
H207	H	0.813109	0.688436	0.321178
H208	H	0.833213	0.770996	0.276620
O209	O	0.542721	0.905604	0.327599
C210	C	0.579606	0.853699	0.389347
H211	H	0.542318	0.852748	0.435336
H212	H	0.655915	0.881726	0.418566
C213	C	0.612987	0.761592	0.298722
C214	C	0.567183	0.760418	0.355203
H215	H	0.605328	0.704053	0.277661
H216	H	0.588140	0.796563	0.257121
H217	H	0.676574	0.784952	0.323079
H218	H	0.503596	0.737069	0.330844
H219	H	0.592019	0.725441	0.396800
H220	H	0.188011	1.025760	-0.072450
O221	O	0.163644	0.608709	0.044660
C222	C	0.114715	0.676859	0.031326
H223	H	0.160192	0.738168	0.020039
H224	H	0.093848	0.689587	0.085690
C225	C	-0.027832	0.575989	-0.027568
C226	C	0.028021	0.651289	-0.041437
H227	H	-0.081311	0.560216	-0.072449
H228	H	0.005131	0.530074	-0.018582
H229	H	-0.045211	0.586605	0.017738
H230	H	0.045409	0.640668	-0.086736
H231	H	-0.004941	0.697201	-0.050433
O232	O	0.053803	1.023411	0.353920
C233	C	0.147443	1.025094	0.364846
H234	H	0.165634	1.052663	0.311156
H235	H	0.160895	0.956266	0.371771
C236	C	0.184642	1.048806	0.505899
C237	C	0.206987	1.082673	0.439958
H238	H	0.221373	1.084320	0.552233
H239	H	0.121554	1.047669	0.498539
H240	H	0.195853	0.991449	0.511660
H241	H	0.195765	1.140024	0.434193
H242	H	0.270074	1.083821	0.447320
O243	O	0.488834	1.176895	0.711157
C244	C	0.567690	1.183789	0.778264
H245	H	0.614013	1.140608	0.767169
H246	H	0.546219	1.162171	0.832135
C247	C	0.563363	1.331887	0.807412
C248	C	0.620261	1.278858	0.793783
H249	H	0.595790	1.390530	0.816988
H250	H	0.510234	1.327242	0.762203
H251	H	0.545474	1.313862	0.852303
H252	H	0.638139	1.296876	0.748887
H253	H	0.673395	1.283508	0.838985
H254	H	-0.267381	1.017533	0.076220
O255	O	0.542684	0.905610	0.813679
C256	C	0.579566	0.853703	0.875428
H257	H	0.542273	0.852750	0.921414
H258	H	0.655874	0.881730	0.904651
C259	C	0.612956	0.761600	0.784806
C260	C	0.567146	0.760424	0.841283
H261	H	0.605299	0.704062	0.763744
H262	H	0.588111	0.796572	0.743205
H263	H	0.676542	0.784960	0.809166
H264	H	0.503560	0.737074	0.816920
H265	H	0.591980	0.725446	0.882880
H266	H	0.132003	1.024759	0.240795
O267	O	0.432065	0.866344	0.695533
C268	C	0.419385	0.796843	0.640399
H269	H	0.452109	0.820739	0.593166
H270	H	0.342727	0.770575	0.611077
C271	C	0.424692	0.694777	0.741597
C272	C	0.464891	0.724126	0.683588
H273	H	0.452757	0.649920	0.768238
H274	H	0.433230	0.741601	0.778742
H275	H	0.360812	0.672894	0.717153
H276	H	0.528767	0.746019	0.708033
H277	H	0.456364	0.677304	0.646448
H278	H	0.536138	0.914935	0.474842
H279	H	0.521343	0.740688	0.142351
H280	H	0.399353	0.302639	0.109058
