data_functionalizedCrystal
_audit_creation_method	'MofGen! by Chris Wilmer'
_symmetry_space_group_name_H-M	'P1'
_symmetry_Int_Tables_number	1
_symmetry_cell_setting	triclinic
loop_
_symmetry_equiv_pos_as_xyz
  x,y,z
_cell_length_a	15.944551
_cell_length_b	10.489741
_cell_length_c	15.021413
_cell_angle_alpha	90.004547
_cell_angle_beta	89.998676
_cell_angle_gamma	84.018956
loop_
_atom_site_label
_atom_site_type_symbol
_atom_site_fract_x
_atom_site_fract_y
_atom_site_fract_z
O1	O	0.118498	1.692417	0.073979
O2	O	0.129621	1.321067	0.073993
O3	O	0.001846	1.516883	0.073978
O4	O	0.246273	1.496602	0.073995
O5	O	0.001860	1.516853	-0.074086
O6	O	0.129635	1.321037	-0.074071
O7	O	0.118512	1.692387	-0.074085
Zn8	Zn	0.124076	1.506708	-0.097586
Zn9	Zn	0.124057	1.506747	0.097495
O10	O	0.246287	1.496572	-0.074070
C11	C	0.128788	1.273532	-0.000037
C12	C	0.126275	1.131938	-0.000032
C13	C	0.044975	1.064925	-0.000046
C14	C	0.083373	0.972280	0.072958
C15	C	0.083406	0.972285	-0.073022
C16	C	0.164706	1.041158	0.073032
C17	C	0.164728	1.041172	-0.073013
C18	C	0.203186	0.948554	0.000009
C19	C	-0.029446	1.516026	-0.000054
C20	C	-0.122708	1.513502	-0.000055
C21	C	-0.338330	1.386093	-0.000038
C22	C	-0.398985	1.445243	-0.073045
C23	C	-0.293461	1.508935	-0.000048
C24	C	-0.398982	1.445301	0.072935
C25	C	-0.458400	1.504515	-0.000037
C26	C	-0.352887	1.568119	-0.073115
C27	C	-0.352878	1.568160	0.072930
C28	C	-0.413515	1.627399	-0.000094
C29	C	-0.198443	1.511478	-0.000055
C30	C	-0.553417	1.501982	-0.000037
C31	C	0.277579	1.497429	-0.000035
C32	C	0.370841	1.499953	-0.000029
C33	C	0.119345	1.739922	-0.000053
C34	C	0.121858	1.881517	-0.000052
N35	N	0.124088	1.506690	-0.230724
C36	C	0.183641	1.416895	-0.529732
C37	C	0.107818	1.391086	-0.470377
C38	C	0.124053	1.506746	-0.587761
C39	C	0.199892	1.532467	-0.470374
C40	C	0.124074	1.506715	-0.412337
C41	C	0.048191	1.480879	-0.529712
C42	C	0.140315	1.622311	-0.529715
C43	C	0.064436	1.596551	-0.470387
C44	C	0.124042	1.506760	-0.688818
C45	C	0.124077	1.506701	-0.311282
N46	N	0.124039	1.506775	0.230632
H47	H	0.199074	1.071522	0.134822
C48	C	-0.317303	1.184412	-0.076672
C49	C	-0.294185	1.248450	-0.000127
H50	H	-0.290044	1.099444	-0.076731
H51	H	-0.376673	1.181867	-0.077194
H52	H	-0.300856	1.228489	-0.128003
H53	H	-0.310638	1.204379	0.051204
H54	H	-0.234802	1.250989	0.000404
C55	C	-0.032993	0.869637	-0.130464
C56	C	0.036962	0.931091	-0.156344
H57	H	-0.061671	0.844217	-0.181901
H58	H	-0.014690	0.796180	-0.095870
H59	H	-0.070068	0.926850	-0.096080
H60	H	0.074040	0.873874	-0.190722
H61	H	0.018659	1.004558	-0.190952
H62	H	-0.015950	1.458996	-0.555668
H63	H	-0.419400	1.393272	-0.134762
H64	H	0.013999	1.672526	-0.444495
C65	C	-0.396528	1.852151	-0.000933
C66	C	-0.457444	1.765172	-0.000163
H67	H	-0.423647	1.937205	-0.000987
H68	H	-0.361968	1.839413	0.050460
H69	H	-0.362664	1.838835	-0.052803
H70	H	-0.491304	1.778482	0.051711
H71	H	-0.492018	1.777916	-0.051561
C72	C	0.078713	0.967559	0.232680
C73	C	0.036929	0.931077	0.156275
H74	H	0.050032	0.942136	0.284113
H75	H	0.134905	0.927308	0.232761
H76	H	0.079527	1.057980	0.232988
H77	H	0.036120	0.840654	0.155963
H78	H	-0.019278	0.971324	0.156194
H79	H	-0.419377	1.393340	0.134661
C80	C	0.234350	1.193317	-0.534956
C81	C	0.251580	1.314277	-0.564914
H82	H	0.276288	1.129966	-0.556681
H83	H	0.234489	1.192096	-0.471731
H84	H	0.180592	1.175848	-0.556153
H85	H	0.305335	1.331750	-0.543711
H86	H	0.251450	1.315501	-0.628153
C87	C	-0.348295	1.573757	0.232628
C88	C	-0.325277	1.638256	0.156249
H89	H	-0.331247	1.617021	0.284069
H90	H	-0.407727	1.571994	0.233524
H91	H	-0.321506	1.488518	0.232098
H92	H	-0.352071	1.723493	0.156776
H93	H	-0.265834	1.640033	0.155354
H94	H	0.154092	1.720024	-0.555801
C95	C	0.088708	1.260901	-0.341972
C96	C	0.089252	1.259142	-0.435179
H97	H	0.077247	1.179444	-0.320246
H98	H	0.142163	1.279798	-0.320791
H99	H	0.046335	1.324645	-0.321668
H100	H	0.131630	1.195405	-0.455483
H101	H	0.035791	1.240230	-0.456369
H102	H	-0.332579	1.620020	-0.134904
C103	C	-0.087630	1.098712	0.076594
C104	C	-0.045255	1.133227	0.000049
H105	H	-0.143329	1.140891	0.076658
H106	H	-0.089856	1.008582	0.077112
H107	H	-0.058448	1.123276	0.127925
H108	H	-0.074434	1.108654	-0.051282
H109	H	-0.043034	1.223376	-0.000477
C110	C	0.335847	0.915309	0.076571
C111	C	0.293500	0.880566	0.000066
H112	H	0.391600	0.873327	0.076609
H113	H	0.337928	1.005470	0.077058
H114	H	0.306739	0.890672	0.127930
H115	H	0.322605	0.905212	-0.051293
H116	H	0.291424	0.790385	-0.000429
C117	C	0.348737	1.467639	-0.465129
C118	C	0.286456	1.561851	-0.435173
H119	H	0.402178	1.485774	-0.443397
H120	H	0.336771	1.386161	-0.443945
H121	H	0.349508	1.467105	-0.528362
H122	H	0.285680	1.562379	-0.371939
H123	H	0.298425	1.643350	-0.456352
H124	H	0.199106	1.071729	-0.134732
