data_functionalizedCrystal
_audit_creation_method	'MofGen! by Chris Wilmer'
_symmetry_space_group_name_H-M	'P1'
_symmetry_Int_Tables_number	1
_symmetry_cell_setting	triclinic
loop_
_symmetry_equiv_pos_as_xyz
  x,y,z
_cell_length_a	27.440280
_cell_length_b	27.440280
_cell_length_c	27.440280
_cell_angle_alpha	60.004742
_cell_angle_beta	90.008003
_cell_angle_gamma	60.004534
loop_
_atom_site_label
_atom_site_type_symbol
_atom_site_fract_x
_atom_site_fract_y
_atom_site_fract_z
Zr1	Zr	0.469569	0.533327	-0.063884
O2	O	0.391762	0.634989	-0.141703
O3	O	0.493412	0.431666	-0.040030
O4	O	0.493424	0.533315	-0.141691
O5	O	0.391752	0.533349	0.040152
O6	O	0.573627	0.533306	-0.141681
O7	O	0.391751	0.533339	-0.040041
O8	O	0.573606	0.351473	0.040173
O9	O	0.391773	0.715181	-0.141702
O10	O	0.563446	0.473473	-0.029848
O11	O	0.503593	0.473488	0.029992
O12	O	0.503607	0.593167	-0.089701
O13	O	0.443753	0.593181	-0.029861
Zr14	Zr	0.597485	0.533327	0.064031
Zr15	Zr	0.597483	0.533312	-0.063868
Zr16	Zr	0.469571	0.533342	0.064015
Zr17	Zr	0.469586	0.661225	-0.063883
Zr18	Zr	0.597469	0.405430	0.064029
O19	O	0.573642	0.634989	0.040176
O20	O	0.573640	0.634968	-0.141680
O21	O	0.391765	0.635010	0.040153
O22	O	0.675292	0.431666	0.141849
O23	O	0.675290	0.431644	-0.040007
O24	O	0.493415	0.431687	0.141826
O25	O	0.675303	0.533306	-0.040006
O26	O	0.573631	0.533339	0.141838
O27	O	0.493428	0.533349	0.141828
O28	O	0.675304	0.533315	0.040188
O29	O	0.493447	0.715169	-0.141689
O30	O	0.573607	0.351485	0.141835
O31	O	0.675282	0.351473	0.141848
O32	O	0.675281	0.351461	0.040185
O33	O	0.391774	0.715193	-0.040039
O34	O	0.493449	0.715181	-0.040026
O35	O	0.563448	0.473488	0.089847
O36	O	0.623302	0.473473	0.030007
O37	O	0.563462	0.593167	-0.029846
O38	O	0.503608	0.593181	0.029994
C39	C	0.533507	0.373347	0.000071
C40	C	0.533500	0.319051	0.000071
C41	C	0.564787	-0.017698	-0.031157
C42	C	0.564792	-0.068722	-0.031156
O43	O	0.591381	-0.095135	-0.057702
N44	N	0.533549	-0.094231	0.000079
C45	C	0.502303	-0.068718	0.031319
O46	O	0.475729	-0.095101	0.057887
C47	C	0.502301	-0.017699	0.031320
C48	C	0.533542	0.007812	0.000079
C49	C	0.596025	0.007812	-0.062396
C50	C	0.596019	0.058833	-0.062398
C51	C	0.564774	0.084344	-0.031162
C52	C	0.533535	0.058833	0.000076
C53	C	0.471059	0.007809	0.062563
C54	C	0.471061	0.058832	0.062563
C55	C	0.502301	0.084343	0.031321
C56	C	0.502284	0.135365	0.031310
N57	N	0.533527	0.160874	0.000075
C58	C	0.564772	0.135364	-0.031161
C59	C	0.502309	-0.175864	0.031314
C60	C	0.502307	-0.226879	0.031309
C61	C	0.564798	-0.226880	-0.031164
C62	C	0.564796	-0.175861	-0.031163
C63	C	0.533553	-0.150355	0.000079
C64	C	0.564756	0.242512	-0.031164
C65	C	0.564745	0.293540	-0.031166
C66	C	0.502257	0.293534	0.031311
C67	C	0.502265	0.242514	0.031310
C68	C	0.533519	0.217002	0.000072
O69	O	0.475710	0.161808	0.057845
O70	O	0.591348	0.161746	-0.057718
C71	C	0.373526	0.533346	0.000053
C72	C	0.319223	0.533352	0.000046
C73	C	0.013761	0.470837	0.031332
C74	C	-0.037257	0.470833	0.031338
O75	O	-0.037080	0.417698	0.057927
N76	N	-0.094010	0.533311	0.000094
C77	C	-0.099743	0.595797	-0.031152
O78	O	-0.152700	0.648939	-0.057726
C79	C	-0.048725	0.595800	-0.031153
C80	C	0.008027	0.533318	0.000088
C81	C	0.070511	0.408360	0.062571
C82	C	0.121525	0.408364	0.062565
C83	C	0.115791	0.470845	0.031320
C84	C	0.059042	0.533322	0.000081
C85	C	-0.054459	0.658286	-0.062395
C86	C	-0.003435	0.658283	-0.062393
C87	C	0.053317	0.595801	-0.031153
C88	C	0.104322	0.595807	-0.031170
N89	N	0.161074	0.533329	0.000073
C90	C	0.166809	0.470848	0.031318
C91	C	-0.206882	0.595786	-0.031145
C92	C	-0.257899	0.595784	-0.031148
C93	C	-0.195409	0.470819	0.031343
C94	C	-0.144392	0.470823	0.031341
C95	C	-0.150129	0.533308	0.000098
C96	C	0.273941	0.470862	0.031302
C97	C	0.324958	0.470871	0.031291
C98	C	0.262464	0.595835	-0.031196
C99	C	0.211452	0.595826	-0.031188
C100	C	0.217194	0.533334	0.000066
O101	O	0.104191	0.648916	-0.057744
O102	O	0.219768	0.417715	0.057894
C103	C	0.693528	0.533308	0.000093
C104	C	0.747831	0.533302	0.000100
C105	C	0.533525	0.533308	-0.159909
C106	C	0.533524	0.533302	-0.214206
C107	C	0.533548	0.693308	0.000075
C108	C	0.533555	0.747604	0.000076
C109	C	0.502297	0.595817	-0.582183
C110	C	0.502299	0.595821	-0.633205
O111	O	0.475752	0.648957	-0.686164
N112	N	0.533533	0.533343	-0.627480
C113	C	0.564773	0.470857	-0.570727
O114	O	0.591341	0.417715	-0.570542
C115	C	0.564774	0.470854	-0.519706
C116	C	0.533533	0.533336	-0.525436
C117	C	0.471058	0.658294	-0.587911
C118	C	0.471056	0.658290	-0.536892
C119	C	0.502292	0.595809	-0.480145
C120	C	0.533530	0.533332	-0.474418
C121	C	0.596018	0.408369	-0.462955
C122	C	0.596017	0.408371	-0.411933
C123	C	0.564775	0.470853	-0.417663
C124	C	0.564764	0.470847	-0.366652
N125	N	0.533529	0.533325	-0.372378
C126	C	0.502293	0.595806	-0.429124
C127	C	0.564769	0.470868	-0.677877
C128	C	0.564764	0.470871	-0.728897
C129	C	0.502290	0.595835	-0.791371
C130	C	0.502292	0.595832	-0.740350
C131	C	0.533534	0.533346	-0.683603
C132	C	0.502290	0.595793	-0.321979
C133	C	0.502288	0.595783	-0.270952
C134	C	0.564764	0.470819	-0.208482
C135	C	0.564764	0.470829	-0.259504
C136	C	0.533525	0.533321	-0.316253
O137	O	0.591299	0.417738	-0.313675
O138	O	0.475736	0.648939	-0.429298
C139	C	0.533530	0.533346	0.160056
C140	C	0.533530	0.533352	0.214352
C141	C	0.693508	0.373328	0.000091
C142	C	0.747804	0.319026	0.000097
C143	C	0.533509	0.373365	0.160054
C144	C	0.533503	0.319076	0.214350
C145	C	0.693510	0.373347	0.160074
C146	C	0.747807	0.319051	0.214376
C147	C	0.373544	0.693308	-0.159927
C148	C	0.319248	0.747604	-0.214230
C149	C	0.373547	0.693326	0.000055
C150	C	0.319251	0.747629	0.000049
C151	C	0.533546	0.693289	-0.159907
C152	C	0.533552	0.747579	-0.214203
C153	C	0.742058	0.293525	-0.031149
C154	C	0.793070	0.242509	-0.031155
C155	C	0.849827	0.216992	0.000089
C156	C	0.855572	0.242498	0.031336
C157	C	0.804560	0.293516	0.031338
C158	C	0.564744	0.293581	0.271096
C159	C	0.564736	0.242577	0.322118
C160	C	0.533490	0.217066	0.316392
C161	C	0.502245	0.242566	0.259639
C162	C	0.502250	0.293572	0.208618
C163	C	0.804553	0.293546	0.208642
C164	C	0.855576	0.242536	0.259660
C165	C	0.849850	0.217029	0.316412
C166	C	0.793098	0.242539	0.322146
C167	C	0.742077	0.293551	0.271128
C168	C	0.262501	0.773115	-0.208495
C169	C	0.211479	0.824141	-0.259514
C170	C	0.217204	0.849650	-0.316266
C171	C	0.273957	0.824137	-0.322000
C172	C	0.324978	0.773116	-0.270982
C173	C	0.324997	0.773135	0.031290
C174	C	0.273985	0.824165	0.031282
C175	C	0.217228	0.849684	0.000036
C176	C	0.211483	0.824176	-0.031209
C177	C	0.262494	0.773150	-0.031204
C178	C	0.564804	0.773074	-0.208458
C179	C	0.564821	0.824078	-0.259469
C180	C	0.533583	0.849589	-0.316227
C181	C	0.502330	0.824089	-0.321971
C182	C	0.502316	0.773082	-0.270960
H183	H	0.590235	-0.155093	-0.056602
H184	H	0.788381	0.221748	-0.056600
N185	N	0.810410	0.319586	0.150674
N186	N	0.837027	0.279720	0.135457
H187	H	0.841167	0.298111	0.094518
H188	H	0.371182	0.752345	-0.275658
N189	N	0.470383	0.659651	-0.746198
N190	N	0.429244	0.673602	-0.724707
H191	H	0.406708	0.718677	-0.728841
H192	H	0.257807	0.752384	-0.056642
N193	N	0.787256	0.216483	0.380120
N194	N	0.808763	0.222175	0.415563
H195	H	0.804640	0.203767	0.456509
H196	H	0.891359	0.175449	0.000083
H197	H	0.590270	0.844834	-0.254780
N198	N	0.596686	0.216463	-0.063074
N199	N	0.624573	0.239255	-0.090960
H200	H	0.647121	0.220861	-0.113499
H201	H	0.476865	0.752330	-0.275646
H202	H	0.476816	0.314316	0.056740
H203	H	0.901790	0.221714	0.056773
N204	N	0.382964	0.747090	0.063204
N205	N	0.398185	0.786955	0.049951
H206	H	0.439123	0.768567	0.072490
H207	H	0.809247	0.314272	0.056786
H208	H	0.175696	0.891232	0.000037
H209	H	0.590207	0.419982	-0.631671
N210	N	0.596669	0.319623	0.276966
N211	N	0.624556	0.296847	0.327642
H212	H	0.647104	0.315238	0.331793
H213	H	0.257828	0.752348	-0.162289
N214	N	-0.086419	0.407006	0.063248
N215	N	-0.050980	0.393061	0.036056
H216	H	-0.010037	0.347989	0.058591
H217	H	-0.304105	0.646663	-0.056595
N218	N	0.153519	0.850173	-0.253634
N219	N	0.138308	0.810300	-0.227018
H220	H	0.097376	0.828681	-0.222861
H221	H	0.621460	0.079600	-0.087836
N222	N	0.153500	0.850256	-0.063122
N223	N	0.107965	0.895811	-0.063115
H224	H	0.067013	0.914230	-0.085651
N225	N	0.596656	0.216544	0.380080
N226	N	0.624556	0.239326	0.385179
H227	H	0.647100	0.220942	0.426113
N228	N	0.533608	0.901689	-0.368324
N229	N	0.561516	0.924444	-0.363179
H230	H	0.561535	0.961240	-0.399971
N231	N	0.470357	0.216448	0.063222
N232	N	0.497554	0.153819	0.104364
H233	H	0.475021	0.135409	0.126905
H234	H	0.621472	-0.012956	-0.087832
H235	H	0.590184	0.314311	-0.056608
H236	H	0.590240	-0.247661	-0.056598
H237	H	0.476860	-0.247638	0.056742
N238	N	0.165078	0.901758	-0.368370
N239	N	0.128355	0.890360	-0.377184
H240	H	0.091537	0.927160	-0.413980
N241	N	0.153474	0.659640	-0.063103
N242	N	0.118025	0.673574	-0.104231
H243	H	0.077079	0.718644	-0.126768
N244	N	0.596719	0.747029	-0.150490
N245	N	0.624621	0.769802	-0.145380
H246	H	0.647166	0.751409	-0.104442
H247	H	0.476861	-0.155095	0.056752
N248	N	0.470427	0.850158	-0.379953
N249	N	0.470447	0.895702	-0.425489
H250	H	0.447913	0.914117	-0.466441
N251	N	0.470385	0.659604	-0.276797
N252	N	0.470386	0.659598	-0.231242
H253	H	0.447856	0.704670	-0.235369
N254	N	0.439142	-0.018232	0.094478
N255	N	0.411254	0.004558	0.122365
H256	H	0.388711	-0.013833	0.144908
N257	N	0.470344	0.319592	0.150658
N258	N	0.483594	0.279709	0.135459
H259	H	0.461059	0.298083	0.094525
H260	H	0.695873	0.314311	0.275806
N261	N	0.533492	0.164966	0.368517
N262	N	0.561392	0.142212	0.419179
H263	H	0.561397	0.105415	0.455995
N264	N	0.470333	0.216496	0.253805
N265	N	0.470341	0.170952	0.299368
H266	H	0.447806	0.152534	0.295251
N267	N	0.913537	0.216492	0.253784
N268	N	0.918636	0.239270	0.203107
H269	H	0.959570	0.220878	0.198955
N270	N	0.901976	0.164921	0.368517
N271	N	0.952638	0.142157	0.363381
H272	H	0.989455	0.105355	0.400178
N273	N	0.382925	0.407038	0.063203
N274	N	0.388032	0.351257	0.091098
H275	H	0.428969	0.306176	0.113635
N276	N	0.439135	0.084883	0.094473
N277	N	0.384052	0.113339	0.081222
H278	H	0.361502	0.131737	0.103758
N279	N	0.279822	0.407022	0.063232
N280	N	0.330501	0.351249	0.091119
H281	H	0.334655	0.306161	0.113667
N282	N	0.179488	0.344533	0.094482
N283	N	0.184589	0.288756	0.122377
H284	H	0.225524	0.243672	0.144922
N285	N	0.076387	0.344525	0.094496
N286	N	0.127067	0.288753	0.122384
H287	H	0.131223	0.243664	0.144931
N288	N	-0.009309	0.722119	-0.094319
N289	N	-0.035935	0.763950	-0.149402
H290	H	-0.040085	0.809035	-0.171952
N291	N	0.279789	0.850208	-0.379977
N292	N	0.234226	0.895760	-0.425519
H293	H	0.238342	0.914173	-0.466467
N294	N	0.279872	0.850207	0.063201
N295	N	0.330554	0.827407	0.091100
H296	H	0.334714	0.845798	0.113643
H297	H	-0.190748	0.419944	0.056782
H298	H	-0.100661	0.709165	-0.087834
N299	N	-0.212758	0.659624	-0.063068
N300	N	-0.263435	0.715399	-0.090959
H301	H	-0.267588	0.760485	-0.113503
H302	H	0.257805	0.646706	-0.056637
H303	H	0.476853	0.646680	-0.368181
N304	N	0.439132	0.722121	-0.542760
N305	N	0.411243	0.777898	-0.593436
H306	H	0.388692	0.822983	-0.597586
H307	H	0.445622	0.709177	-0.634113
H308	H	0.476855	0.646711	-0.837585
N309	N	0.596672	0.407053	-0.723051
N310	N	0.596675	0.407056	-0.768605
H311	H	0.619213	0.361982	-0.764475
H312	H	0.621459	0.357489	-0.458277
H313	H	0.590195	0.419951	-0.254837
N314	N	0.627947	0.344535	-0.353971
N315	N	0.655844	0.288758	-0.348870
H316	H	0.678398	0.243674	-0.307935
H317	H	0.590194	0.419949	-0.162271
N318	N	0.684090	0.319570	-0.063064
N319	N	0.678979	0.296788	-0.090957
H320	H	0.638041	0.315180	-0.113500
