data_functionalizedCrystal
_audit_creation_method	'MofGen! by Chris Wilmer'
_symmetry_space_group_name_H-M	'P1'
_symmetry_Int_Tables_number	1
_symmetry_cell_setting	triclinic
loop_
_symmetry_equiv_pos_as_xyz
  x,y,z
_cell_length_a	14.908571
_cell_length_b	15.299816
_cell_length_c	14.908308
_cell_angle_alpha	103.454544
_cell_angle_beta	90.175053
_cell_angle_gamma	77.679493
loop_
_atom_site_label
_atom_site_type_symbol
_atom_site_fract_x
_atom_site_fract_y
_atom_site_fract_z
Zn1	Zn	1.423314	-0.480234	-0.675272
Zn2	Zn	1.455541	-0.625789	-0.551491
Zn3	Zn	1.278757	-0.462558	-0.513043
Zn4	Zn	1.296391	-0.624695	-0.692943
O5	O	1.363501	-0.548319	-0.608187
O6	O	1.554691	-0.507396	-0.667548
O7	O	1.438197	-0.597196	-0.419299
O8	O	1.277066	-0.336133	-0.511077
O9	O	1.578368	-0.614335	-0.576606
O10	O	1.383271	-0.349119	-0.630266
O11	O	1.308316	-0.477271	-0.391051
O12	O	1.153994	-0.476211	-0.528211
O13	O	1.307120	-0.612472	-0.817691
O14	O	1.166950	-0.595333	-0.660383
O15	O	1.400370	-0.506336	-0.804708
O16	O	1.455296	-0.754414	-0.593741
O17	O	1.338369	-0.753610	-0.697665
C18	C	1.127516	-0.533736	-0.592043
C19	C	1.026563	-0.527521	-0.585163
C20	C	0.850438	-0.640057	-0.709741
C21	C	0.755584	-0.634220	-0.703279
C22	C	0.741999	-0.510007	-0.565783
C23	C	0.836853	-0.515844	-0.572244
C24	C	0.891070	-0.580872	-0.644225
C25	C	0.985926	-0.586712	-0.650682
C26	C	0.972338	-0.462495	-0.513190
C27	C	0.877485	-0.456658	-0.506728
C28	C	1.402267	-0.787403	-0.651814
C29	C	1.418933	-0.889692	-0.670514
C30	C	1.244967	-1.151286	-0.474886
C31	C	1.229304	-1.055181	-0.457319
C32	C	1.276710	-1.013804	-0.510616
C33	C	1.339782	-1.068541	-0.581484
C34	C	1.355441	-1.164656	-0.599058
C35	C	1.387184	-1.027173	-0.634787
C36	C	1.450255	-1.081911	-0.705655
C37	C	1.465912	-1.178016	-0.723226
C38	C	1.418506	-1.219393	-0.669929
C39	C	1.371524	-0.931059	-0.617213
C40	C	1.481998	-0.944429	-0.741385
C41	C	1.497661	-1.040534	-0.758952
C42	C	1.600407	-0.562959	-0.624395
C43	C	1.701362	-0.569198	-0.631302
C44	C	1.352117	-0.561254	-0.845075
C45	C	1.347266	-0.566766	-0.946022
C46	C	1.324607	-0.308303	-0.564412
C47	C	1.308033	-0.206023	-0.545757
C48	C	1.435245	-0.466583	-1.122191
C49	C	1.430689	-0.471759	-1.217040
C50	C	1.333594	-0.582288	-1.230568
C51	C	1.338150	-0.577112	-1.135719
C52	C	1.388978	-0.519259	-1.081534
C53	C	1.393538	-0.514088	-0.986685
C54	C	1.296438	-0.624612	-1.000214
C55	C	1.291883	-0.629788	-1.095062
C56	C	1.374882	-0.535371	-0.372213
C57	C	1.379866	-0.529611	-0.271231
H58	H	1.030068	-0.639663	-0.709291
F59	F	0.819773	-0.387451	-0.430129
F60	F	0.684281	-0.440794	-0.489192
H61	H	1.468362	-0.428862	-1.250138
F62	F	1.279496	-0.643849	-1.288248
H63	H	1.250498	-0.676889	-1.139192
F64	F	1.532453	-0.900397	-0.798113
H65	H	1.476637	-0.419481	-1.078074
F66	F	1.162173	-0.996933	-0.381907
H67	H	1.258767	-0.667507	-0.967102
H68	H	1.005430	-0.414304	-0.459840
F69	F	1.447637	-0.452519	-0.929019
F70	F	1.435331	-1.321680	-0.688483
F71	F	0.908143	-0.709271	-0.786340
F72	F	0.712345	-0.697211	-0.773012
F73	F	1.304401	-0.872814	-0.541792
F74	F	1.259776	-0.911519	-0.492150
F75	F	1.194510	-1.195328	-0.418183
F76	F	1.533023	-1.236269	-0.798664
H77	H	1.549014	-1.085114	-0.816654
