data_functionalizedCrystal
_audit_creation_method	'MofGen! by Chris Wilmer'
_symmetry_space_group_name_H-M	'P1'
_symmetry_Int_Tables_number	1
_symmetry_cell_setting	triclinic
loop_
_symmetry_equiv_pos_as_xyz
  x,y,z
_cell_length_a	14.395555
_cell_length_b	14.809374
_cell_length_c	14.809374
_cell_angle_alpha	60.797835
_cell_angle_beta	90.002017
_cell_angle_gamma	67.425796
loop_
_atom_site_label
_atom_site_type_symbol
_atom_site_fract_x
_atom_site_fract_y
_atom_site_fract_z
Zr1	Zr	1.026088	0.955167	-0.203622
O2	O	0.912293	1.113092	-0.350786
O3	O	1.044862	0.777400	-0.145544
O4	O	1.082861	0.926546	-0.332082
O5	O	0.862646	0.993441	-0.031851
O6	O	1.235734	0.926541	-0.332074
O7	O	0.874294	0.963945	-0.164248
O8	O	1.167760	0.659746	0.001608
O9	O	0.930619	1.260237	-0.365533
O10	O	1.186420	0.857863	-0.136431
O11	O	1.063640	0.879880	-0.037630
O12	O	1.108379	1.055480	-0.257255
O13	O	0.985598	1.077497	-0.158454
Zr14	Zr	1.251324	1.002202	0.007549
Zr15	Zr	1.269902	0.955159	-0.203609
Zr16	Zr	1.007510	1.002210	0.007537
Zr17	Zr	1.055316	1.189847	-0.227141
Zr18	Zr	1.222097	0.767522	0.031069
O19	O	1.232551	1.179969	-0.050528
O20	O	1.258966	1.113080	-0.350769
O21	O	0.885878	1.179981	-0.050546
O22	O	1.365119	0.844277	0.154714
O23	O	1.391534	0.777388	-0.145526
O24	O	1.018447	0.844289	0.154697
O25	O	1.414766	0.963927	-0.164221
O26	O	1.194552	1.030823	0.136009
O27	O	1.041679	1.030828	0.136002
O28	O	1.403118	0.993424	-0.031824
O29	O	1.124419	1.260231	-0.365524
O30	O	1.152993	0.697138	0.169451
O31	O	1.346793	0.697132	0.169461
O32	O	1.361560	0.659739	0.001618
O33	O	0.915853	1.297630	-0.197690
O34	O	1.109652	1.297623	-0.197681
O35	O	1.169034	0.901889	0.061182
O36	O	1.291814	0.879872	-0.037619
O37	O	1.213773	1.077489	-0.158442
O38	O	1.090993	1.099506	-0.059641
C39	C	1.102147	0.685136	-0.068617
C40	C	1.089738	0.585508	-0.058632
C41	C	0.833732	0.978695	-0.098051
C42	C	0.730226	0.978698	-0.098057
C43	C	1.145114	0.530169	-0.103192
C44	C	1.132291	0.427199	-0.092874
C45	C	0.627085	1.086449	-0.163926
C46	C	0.592229	1.017888	-0.196966
C47	C	0.580660	1.047253	-0.065024
C48	C	0.696738	0.910124	-0.131150
C49	C	0.685163	0.939518	0.000841
C50	C	0.650367	0.870874	-0.032166
C51	C	1.443681	0.978674	-0.098021
C52	C	1.547186	0.978671	-0.098015
C53	C	1.161944	0.919841	-0.362163
C54	C	1.169831	0.899870	-0.451806
C55	C	1.175266	1.272233	-0.127456
C56	C	1.187674	1.371861	-0.137440
C57	C	1.134633	0.988998	-0.551708
C58	C	1.142784	0.968359	-0.644359
C59	C	1.115468	1.037528	0.166091
C60	C	1.107582	1.057499	0.255734
C61	C	1.407121	0.685126	-0.068601
C62	C	1.498218	0.585495	-0.058611
C63	C	1.078909	0.743979	0.195511
C64	C	1.058614	0.664323	0.295138
C65	C	1.383883	0.743969	0.195526
C66	C	1.467094	0.664309	0.295158
C67	C	0.893529	1.213400	-0.391598
C68	C	0.810319	1.293060	-0.491231
C69	C	0.870291	1.272243	-0.127471
C70	C	0.779194	1.371874	-0.137461
C71	C	1.198504	1.213390	-0.391583
C72	C	1.218799	1.293046	-0.491210
C73	C	1.485985	0.527216	-0.105508
C74	C	1.571575	0.433611	-0.096142
C75	C	1.669396	0.398280	-0.039873
C76	C	1.681628	0.456568	0.007024
C77	C	1.596041	0.550177	-0.002348
C78	C	1.104097	0.638405	0.393512
C79	C	1.085025	0.563574	0.487129
C80	C	1.020474	0.514655	0.482370
C81	C	0.974986	0.540579	0.383986
C82	C	0.994053	0.615416	0.290370
C83	C	1.570271	0.615407	0.290374
C84	C	1.648468	0.540569	0.383980
C85	C	1.623485	0.514628	0.482370
C86	C	1.520298	0.563538	0.487151
C87	C	1.442104	0.638381	0.393546
C88	C	0.707143	1.341973	-0.486447
C89	C	0.628950	1.416840	-0.580056
C90	C	0.653933	1.442786	-0.678446
C91	C	0.757119	1.393870	-0.683228
C92	C	0.835311	1.319011	-0.589621
C93	C	0.791429	1.430160	-0.090574
C94	C	0.705845	1.523787	-0.099966
C95	C	0.608024	1.559120	-0.156238
C96	C	0.595791	1.500828	-0.203131
C97	C	0.681376	1.407209	-0.193745
C98	C	1.283354	1.341943	-0.486417
C99	C	1.302443	1.416778	-0.580018
C100	C	1.256970	1.442722	-0.678411
C101	C	1.192411	1.393817	-0.683202
C102	C	1.173329	1.318977	-0.589601
H103	H	1.202021	0.559018	-0.148977
N104	N	0.762915	0.833385	-0.168283
H105	H	0.722518	0.798596	-0.185049
H106	H	0.827134	0.769872	-0.110377
N107	N	1.493360	0.535553	0.593275
H108	H	1.558558	0.480715	0.651840
H109	H	1.444849	0.498511	0.604968
H110	H	1.739078	0.322055	-0.032249
N111	N	0.515712	1.660082	-0.166343
H112	H	0.484714	1.722210	-0.243980
H113	H	0.538385	1.691542	-0.128039
H114	H	1.155392	1.414952	-0.763326
H115	H	0.551925	1.051001	-0.280585
N116	N	0.517660	1.469586	-0.574894
H117	H	0.510118	1.516695	-0.541560
H118	H	0.496457	1.406384	-0.530558
H119	H	1.071414	1.149091	-0.761213
N120	N	1.372065	1.469520	-0.574825
H121	H	1.332028	1.556217	-0.616893
H122	H	1.432841	1.445864	-0.605793
H123	H	1.244584	0.400706	-0.183228
N124	N	0.668160	1.344352	-0.244319
H125	H	0.617973	1.311560	-0.213369
H126	H	0.737255	1.279732	-0.229833
H127	H	1.032839	0.556651	-0.012840
H128	H	0.725471	0.906445	0.084439
H129	H	0.777450	1.415005	-0.763348
N130	N	0.569592	1.523527	-0.779404
H131	H	0.500441	1.550568	-0.761434
H132	H	0.569136	1.481858	-0.816637
N133	N	1.759754	0.487798	0.378819
H134	H	1.801930	0.511360	0.409819
H135	H	1.763621	0.515593	0.302268
H136	H	0.618267	1.177547	-0.219699
H137	H	1.206002	0.808285	-0.434869
N138	N	1.086716	1.110320	-0.574165
H139	H	1.127456	1.152188	-0.616370
H140	H	1.087686	1.107775	-0.504755
H141	H	1.406344	0.555977	-0.151340
N142	N	0.999931	0.433929	0.583353
H143	H	1.024152	0.356254	0.591187
H144	H	0.923326	0.466604	0.580077
H145	H	1.075387	0.398346	-0.047079
N146	N	1.173723	0.691156	0.398660
H147	H	1.199632	0.663376	0.475192
H148	H	1.133622	0.777843	0.356535
H149	H	1.561595	0.386163	-0.134333
N150	N	0.662317	0.750082	0.041643
H151	H	0.705364	0.698431	0.016577
H152	H	0.591830	0.750931	0.041702
H153	H	0.530558	1.105239	-0.037104
N154	N	1.787138	0.418456	0.067711
H155	H	1.839491	0.350309	0.066529
H156	H	1.784980	0.395743	0.143729
N157	N	1.330816	0.691115	0.398707
H158	H	1.323266	0.738239	0.432025
H159	H	1.309626	0.627906	0.443058
H160	H	0.922428	0.500739	0.380127
H161	H	1.178958	0.876768	-0.627415
H162	H	1.120759	1.279173	-0.593519
H163	H	0.957016	0.636505	0.210274
H164	H	0.686780	1.320852	-0.406341
H165	H	1.122074	0.542477	0.567228
N166	N	1.597223	0.643392	0.184256
H167	H	1.560783	0.618801	0.148640
H168	H	1.674465	0.601054	0.195521
H169	H	1.687165	0.453684	0.558581
H170	H	1.272516	1.503664	-0.754619
N171	N	1.332407	1.313959	-0.380296
H172	H	1.309381	1.387134	-0.379559
H173	H	1.410175	1.276837	-0.368571
N174	N	1.609241	0.613030	0.048237
H175	H	1.636965	0.557673	0.127547
H176	H	1.540153	0.677694	0.033685
N177	N	0.946593	1.266252	-0.594787
H178	H	0.950544	1.294052	-0.671323
H179	H	0.974953	1.179567	-0.552680
N180	N	0.896929	1.392064	-0.029878
H181	H	0.891679	1.443209	-0.001611
H182	H	0.946067	1.397801	-0.078870
N183	N	0.719052	1.586645	-0.049384
H184	H	0.794007	1.550042	-0.012304
H185	H	0.674703	1.581915	0.004097
N186	N	0.490278	1.538927	-0.263801
H187	H	0.437924	1.607070	-0.262614
H188	H	0.469991	1.473464	-0.229534
