data_functionalizedCrystal
_audit_creation_method	'MofGen! by Chris Wilmer'
_symmetry_space_group_name_H-M	'P1'
_symmetry_Int_Tables_number	1
_symmetry_cell_setting	triclinic
loop_
_symmetry_equiv_pos_as_xyz
  x,y,z
_cell_length_a	11.792241
_cell_length_b	9.130313
_cell_length_c	10.654550
_cell_angle_alpha	89.995631
_cell_angle_beta	84.339173
_cell_angle_gamma	90.000683
loop_
_atom_site_label
_atom_site_type_symbol
_atom_site_fract_x
_atom_site_fract_y
_atom_site_fract_z
O1	O	1.507305	-0.121657	0.172135
O2	O	2.007305	0.378343	0.672135
O3	O	1.177005	-0.121691	0.189875
O4	O	1.677005	0.378309	0.689875
O5	O	1.349749	-0.121664	-0.001755
O6	O	1.849749	0.378336	0.498245
O7	O	1.334561	-0.121684	0.363766
O8	O	1.834561	0.378316	0.863766
O9	O	1.349737	0.121935	-0.001761
O10	O	1.849737	0.621935	0.498239
O11	O	1.176993	0.121908	0.189870
O12	O	1.676993	0.621908	0.689870
O13	O	1.507293	0.121942	0.172130
O14	O	2.007293	0.621942	0.672130
Cu15	Cu	1.342142	0.144168	0.180999
Cu16	Cu	1.842142	0.644168	0.680999
Cu17	Cu	1.342156	-0.143916	0.181006
Cu18	Cu	1.842156	0.356084	0.681006
O19	O	1.334549	0.121915	0.363760
O20	O	1.834549	0.621915	0.863760
C21	C	1.134705	0.000104	0.188758
C22	C	1.634705	0.500104	0.688758
C23	C	1.008684	0.000092	0.185423
C24	C	1.508684	0.500092	0.685423
N25	N	1.342140	0.346790	0.180994
N26	N	1.842140	0.846790	0.680994
N27	N	1.342166	-0.346539	0.181001
N28	N	1.842166	0.153461	0.681001
C29	C	0.777958	0.000134	0.179290
C30	C	1.277958	0.500134	0.679290
C31	C	0.906351	0.000111	0.182697
C32	C	1.406351	0.500111	0.682697
C33	C	1.549592	0.000144	0.173247
C34	C	2.049592	0.500144	0.673247
C35	C	1.675614	0.000147	0.176582
C36	C	2.175614	0.500147	0.676582
C37	C	1.348628	0.000135	-0.048553
C38	C	1.848628	0.500135	0.451447
C39	C	1.345291	0.000132	-0.187987
C40	C	1.845291	0.500132	0.312013
C41	C	1.418657	0.423454	0.096175
C42	C	1.918657	0.923454	0.596175
C43	C	1.418668	0.576791	0.096176
C44	C	1.918668	1.076791	0.596176
C45	C	1.265641	0.576787	0.265824
C46	C	1.765641	1.076787	0.765824
C47	C	1.265626	0.423453	0.265816
C48	C	1.765626	0.923453	0.765816
C49	C	1.447000	0.000142	-0.267760
C50	C	1.947000	0.500142	0.232240
C51	C	1.443859	0.000124	-0.398772
C52	C	1.943859	0.500124	0.101228
C53	C	1.237290	0.000092	-0.370225
C54	C	1.737290	0.500092	0.129775
C55	C	1.240433	0.000100	-0.239215
C56	C	1.740433	0.500100	0.260785
C57	C	1.335670	0.000113	0.410558
C58	C	1.835670	0.500113	0.910558
C59	C	1.339006	0.000106	0.549992
C60	C	1.839006	0.500106	1.049992
H61	H	1.480959	0.361039	0.027106
H62	H	1.980959	0.861039	0.527106
H63	H	1.157604	0.000087	-0.174260
H64	H	1.657604	0.500087	0.325740
C65	C	1.555747	0.000148	-0.486518
C66	C	2.055747	0.500148	0.013482
N67	N	1.640027	0.000169	-0.552608
N68	N	2.140027	0.500169	-0.052608
H69	H	1.203346	0.639220	0.334886
H70	H	1.703346	1.139220	0.834886
H71	H	1.151917	0.000068	-0.411951
H72	H	1.651917	0.500068	0.088049
H73	H	1.480974	0.639206	0.027108
H74	H	1.980974	1.139206	0.527108
C75	C	1.181498	0.339117	0.359186
C76	C	1.681498	0.839117	0.859186
N77	N	1.118154	0.275596	0.429527
N78	N	1.618154	0.775596	0.929527
C79	C	1.562348	0.000162	-0.211414
C80	C	2.062348	0.500162	0.288586
N81	N	1.649231	0.000170	-0.168978
N82	N	2.149231	0.500170	0.331022
