data_functionalizedCrystal
_audit_creation_method	'MofGen! by Chris Wilmer'
_symmetry_space_group_name_H-M	'P1'
_symmetry_Int_Tables_number	1
_symmetry_cell_setting	triclinic
loop_
_symmetry_equiv_pos_as_xyz
  x,y,z
_cell_length_a	9.065218
_cell_length_b	17.038272
_cell_length_c	7.540329
_cell_angle_alpha	89.996089
_cell_angle_beta	89.996962
_cell_angle_gamma	88.063721
loop_
_atom_site_label
_atom_site_type_symbol
_atom_site_fract_x
_atom_site_fract_y
_atom_site_fract_z
O1	O	1.971909	0.114742	-0.147490
O2	O	1.543568	0.124154	-0.147492
O3	O	1.755192	0.005614	-0.147477
O4	O	1.760284	0.233281	-0.147505
O5	O	1.755179	0.005612	0.147488
O6	O	1.543554	0.124152	0.147473
O7	O	1.971895	0.114740	0.147476
Cu8	Cu	1.757723	0.119446	0.174407
Cu9	Cu	1.757739	0.119448	-0.174424
O10	O	1.760270	0.233280	0.147460
C11	C	1.488484	0.123248	-0.000010
C12	C	1.324369	0.120544	-0.000011
C13	C	1.750555	-0.023549	0.000005
C14	C	1.736739	-0.110441	0.000005
C15	C	1.863587	-0.159639	0.000008
C16	C	1.850596	-0.241284	-0.000009
C17	C	1.710756	-0.273728	-0.000016
C18	C	1.583899	-0.224524	-0.000024
C19	C	1.596891	-0.142881	-0.000020
C20	C	1.664859	-0.519818	-0.000041
C21	C	1.651876	-0.601467	-0.000040
C22	C	1.918575	-0.618221	-0.000028
C23	C	1.931554	-0.536576	-0.000013
C24	C	1.804697	-0.487379	-0.000031
C25	C	1.697475	-0.357182	-0.000028
C26	C	1.817980	-0.403927	-0.000032
C27	C	2.026979	0.115646	-0.000011
C28	C	2.191093	0.118350	-0.000022
C29	C	1.764908	0.262442	-0.000026
C30	C	1.778724	0.349335	-0.000037
N31	N	1.757723	0.119444	0.419755
N32	N	1.757751	0.119443	-0.419772
H33	H	1.977459	-0.133230	0.000024
H34	H	2.045426	-0.510166	-0.000007
H35	H	1.470038	-0.250946	-0.000041
H36	H	1.931837	-0.377507	-0.000065
H37	H	2.021854	-0.658286	-0.000017
H38	H	1.953890	-0.281338	-0.000003
H39	H	1.583616	-0.383607	-0.000030
H40	H	1.493597	-0.102824	-0.000023
H41	H	1.537996	-0.627879	-0.000017
H42	H	1.561561	-0.479770	-0.000054
