data_functionalizedCrystal
_audit_creation_method	'MofGen! by Chris Wilmer'
_symmetry_space_group_name_H-M	'P1'
_symmetry_Int_Tables_number	1
_symmetry_cell_setting	triclinic
loop_
_symmetry_equiv_pos_as_xyz
  x,y,z
_cell_length_a	13.339070
_cell_length_b	13.262975
_cell_length_c	11.804783
_cell_angle_alpha	61.243430
_cell_angle_beta	80.565097
_cell_angle_gamma	99.433729
loop_
_atom_site_label
_atom_site_type_symbol
_atom_site_fract_x
_atom_site_fract_y
_atom_site_fract_z
O1	O	1.358894	0.545825	-0.077670
O2	O	1.059574	0.470724	-0.053360
O3	O	1.206844	0.344678	-0.012552
O4	O	1.211624	0.671870	-0.118478
O5	O	1.246638	0.397372	-0.227652
O6	O	1.099368	0.523417	-0.268460
O7	O	1.398688	0.598519	-0.292770
Cu8	Cu	1.252661	0.565779	-0.300255
Cu9	Cu	1.205600	0.503463	-0.045875
O10	O	1.251418	0.724564	-0.333578
C11	C	1.040972	0.484384	-0.156803
C12	C	0.926257	0.446570	-0.144562
C13	C	0.580226	0.740592	-0.239731
C14	C	0.688006	0.776122	-0.251229
C15	C	0.747574	0.693738	-0.224564
C16	C	0.699352	0.575815	-0.186398
C17	C	0.591560	0.540278	-0.174888
C18	C	0.758908	0.493424	-0.159721
C19	C	0.710686	0.375502	-0.121555
C20	C	0.602904	0.339971	-0.110048
C21	C	0.543336	0.422356	-0.136714
C22	C	0.866700	0.528961	-0.171230
C23	C	0.878033	0.328648	-0.106388
C24	C	0.770254	0.293117	-0.094890
C25	C	1.223347	0.328292	-0.106265
C26	C	1.213223	0.200957	-0.065034
C27	C	1.417289	0.584857	-0.189324
C28	C	1.532002	0.622669	-0.201556
C29	C	1.186786	0.112438	0.071597
C30	C	1.177281	-0.007205	0.110365
C31	C	1.194219	-0.038340	0.012506
C32	C	1.220664	0.050182	-0.124128
C33	C	1.230162	0.169835	-0.162899
C34	C	1.237595	0.019058	-0.221991
C35	C	1.264040	0.107579	-0.358624
C36	C	1.273538	0.227220	-0.397389
C37	C	1.256599	0.258354	-0.299530
C38	C	1.228097	-0.100596	-0.183219
C39	C	1.271473	-0.043198	-0.417716
C40	C	1.280979	0.076445	-0.456484
C41	C	1.234914	0.740950	-0.239862
C42	C	1.245036	0.868283	-0.281085
N43	N	1.285769	0.609611	-0.479173
C44	C	1.092959	0.354349	-0.770558
C45	C	1.067892	0.321177	-0.635167
C46	C	1.122359	0.393283	-0.596161
C47	C	1.201897	0.498566	-0.692561
C48	C	1.226972	0.531736	-0.827964
C49	C	1.256372	0.570670	-0.653567
C50	C	1.335910	0.675953	-0.749966
C51	C	1.360980	0.709118	-0.885355
C52	C	1.306513	0.637012	-0.924361
C53	C	1.231298	0.537500	-0.518164
C54	C	1.365310	0.714887	-0.575570
C55	C	1.390377	0.748058	-0.710961
N56	N	1.172500	0.459625	0.133045
H57	H	0.455573	0.393432	-0.127354
N58	N	0.938888	0.244503	-0.079169
N59	N	1.017069	0.264204	-0.169032
H60	H	1.060054	0.204784	-0.149810
H61	H	1.285262	-0.068546	-0.497401
H62	H	1.186477	-0.135760	0.044079
N63	N	0.553667	0.219514	-0.071065
N64	N	0.586277	0.178640	-0.141316
H65	H	0.551507	0.093566	-0.113785
N66	N	0.720975	0.172672	-0.055912
N67	N	0.624739	0.140967	-0.045650
H68	H	0.589933	0.055903	-0.018124
H69	H	1.302510	0.148535	-0.567733
H70	H	1.172992	0.137800	0.151259
N71	N	1.201104	-0.190987	-0.043656
N72	N	1.259681	-0.184762	0.026603
H73	H	1.240619	-0.248600	0.125179
N74	N	0.986631	0.213665	-0.536701
N75	N	0.907259	0.218526	-0.468736
H76	H	0.849861	0.142594	-0.399188
H77	H	1.425753	0.794838	-0.963840
H78	H	1.048627	0.295647	-0.802329
H79	H	1.166537	0.451779	-0.439688
H80	H	0.835332	0.722673	-0.233925
H81	H	0.727258	0.872132	-0.282294
H82	H	0.531714	0.807654	-0.261426
N83	N	1.150262	-0.097607	0.249927
N84	N	1.135140	-0.069799	0.337289
H85	H	1.116056	-0.133647	0.435864
H86	H	1.101945	0.366269	-0.485918
N87	N	1.332101	0.670883	-1.062659
N88	N	1.283454	0.606495	-1.097460
H89	H	1.301523	0.630413	-1.195134
H90	H	1.295067	0.299292	-0.508645
H91	H	1.264343	0.355776	-0.331088
N92	N	1.471614	0.855598	-0.809454
N93	N	1.493983	0.885196	-0.930336
H94	H	1.551356	0.961147	-0.999900
H95	H	0.905952	0.624975	-0.202311
N96	N	1.420956	0.788571	-0.535769
N97	N	1.491973	0.882563	-0.621848
H98	H	1.531271	0.934598	-0.593733
