data_functionalizedCrystal
_audit_creation_method	'MofGen! by Chris Wilmer'
_symmetry_space_group_name_H-M	'P1'
_symmetry_Int_Tables_number	1
_symmetry_cell_setting	triclinic
loop_
_symmetry_equiv_pos_as_xyz
  x,y,z
_cell_length_a	16.959455
_cell_length_b	18.050590
_cell_length_c	16.959447
_cell_angle_alpha	89.968225
_cell_angle_beta	89.983277
_cell_angle_gamma	90.017500
loop_
_atom_site_label
_atom_site_type_symbol
_atom_site_fract_x
_atom_site_fract_y
_atom_site_fract_z
Zn1	Zn	1.208392	-0.295666	-0.446951
Zn2	Zn	1.708392	0.204334	0.053049
Zn3	Zn	1.208318	-0.419867	-0.314769
Zn4	Zn	1.708318	0.080133	0.185231
Zn5	Zn	1.076221	-0.295693	-0.314783
Zn6	Zn	1.576221	0.204307	0.185217
Zn7	Zn	1.076189	-0.419816	-0.446902
Zn8	Zn	1.576189	0.080184	0.053098
O9	O	1.142280	-0.357761	-0.380852
O10	O	1.642280	0.142239	0.119148
O11	O	1.318993	-0.312151	-0.429432
O12	O	1.818993	0.187849	0.070568
O13	O	1.190777	-0.403428	-0.204160
O14	O	1.690777	0.096572	0.295840
O15	O	1.093798	-0.191765	-0.332342
O16	O	1.593798	0.308235	0.167658
O17	O	1.318939	-0.403401	-0.332318
O18	O	1.818939	0.096599	0.167682
O19	O	1.190904	-0.191745	-0.429445
O20	O	1.690904	0.308255	0.070555
O21	O	1.093726	-0.312198	-0.204171
O22	O	1.593726	0.187802	0.295829
O23	O	0.965606	-0.312149	-0.332295
O24	O	1.465606	0.187851	0.167705
O25	O	1.093743	-0.403314	-0.557520
O26	O	1.593743	0.096686	-0.057520
O27	O	0.965582	-0.403341	-0.429362
O28	O	1.465582	0.096659	0.070638
O29	O	1.190873	-0.312101	-0.557556
O30	O	1.690873	0.187899	-0.057556
O31	O	1.190747	-0.523785	-0.332271
O32	O	1.690747	-0.023785	0.167729
O33	O	1.093672	-0.523747	-0.429349
O34	O	1.593672	-0.023747	0.070651
C35	C	0.936914	-0.357743	-0.380825
C36	C	1.436914	0.142257	0.119175
C37	C	0.849057	-0.357753	-0.380832
C38	C	1.349057	0.142247	0.119168
C39	C	0.807772	-0.310206	-0.330375
C40	C	1.307772	0.189794	0.169625
C41	C	0.807789	-0.405306	-0.431301
C42	C	1.307789	0.094694	0.068699
C43	C	0.725243	-0.405315	-0.431313
C44	C	1.225243	0.094685	0.068687
C45	C	0.683958	-0.357767	-0.380856
C46	C	1.183958	0.142233	0.119144
C47	C	0.725218	-0.310211	-0.330386
C48	C	1.225218	0.189789	0.169614
C49	C	0.683976	-0.452864	-0.481787
C50	C	1.183976	0.047136	0.018213
C51	C	0.601425	-0.452874	-0.481801
C52	C	1.101425	0.047126	0.018199
C53	C	0.560138	-0.405330	-0.431339
C54	C	1.060138	0.094670	0.068661
C55	C	0.601404	-0.357773	-0.380867
C56	C	1.101404	0.142227	0.119133
C57	C	0.560119	-0.310225	-0.330410
C58	C	1.060119	0.189775	0.169590
C59	C	0.601383	-0.262671	-0.279933
C60	C	1.101383	0.237329	0.220067
C61	C	0.683931	-0.262667	-0.279924
C62	C	1.183931	0.237333	0.220076
C63	C	0.477590	-0.405334	-0.431348
C64	C	0.977590	0.094666	0.068652
C65	C	0.477565	-0.310231	-0.330421
C66	C	0.977565	0.189769	0.169579
C67	C	1.142219	-0.550713	-0.380820
C68	C	1.642219	-0.050713	0.119180
C69	C	1.142265	-0.633258	-0.380833
C70	C	1.642265	-0.133258	0.119167
C71	C	1.195165	-0.832702	-0.328116
C72	C	1.695165	-0.332702	0.171884
C73	C	1.214468	-0.882031	-0.400257
C74	C	1.714468	-0.382031	0.099743
C75	C	1.142310	-0.784389	-0.380865
C76	C	1.642310	-0.284389	0.119135
C77	C	1.123088	-0.882141	-0.308756
C78	C	1.623088	-0.382141	0.191244
C79	C	1.142355	-0.930374	-0.380889
C80	C	1.642355	-0.430374	0.119111
C81	C	1.161650	-0.832630	-0.453044
C82	C	1.661650	-0.332630	0.046956
C83	C	1.070237	-0.832736	-0.361494
C84	C	1.570237	-0.332736	0.138506
C85	C	1.089513	-0.882043	-0.433685
C86	C	1.589513	-0.382043	0.066315
C87	C	1.142287	-0.700290	-0.380850
C88	C	1.642287	-0.200290	0.119150
C89	C	1.142379	-1.014470	-0.380912
C90	C	1.642379	-0.514470	0.119088
C91	C	1.348448	-0.357779	-0.380879
C92	C	1.848448	0.142221	0.119121
C93	C	1.436305	-0.357787	-0.380891
C94	C	1.936305	0.142213	0.119109
C95	C	1.142313	-0.357699	-0.587020
C96	C	1.642313	0.142301	-0.087020
C97	C	1.142327	-0.357673	-0.674877
C98	C	1.642327	0.142327	-0.174877
C99	C	1.142362	-0.164055	-0.380901
C100	C	1.642362	0.335945	0.119099
C101	C	1.142398	-0.081509	-0.380921
C102	C	1.642398	0.418491	0.119079
C103	C	1.091850	-0.405085	-1.046336
C104	C	1.591850	0.094915	-0.546336
C105	C	1.192992	-0.310104	-1.046369
C106	C	1.692992	0.189896	-0.546369
C107	C	1.192971	-0.310120	-0.963823
C108	C	1.692971	0.189880	-0.463823
C109	C	1.142390	-0.357620	-0.922530
C110	C	1.642390	0.142380	-0.422530
C111	C	1.091830	-0.405104	-0.963783
C112	C	1.591830	0.094896	-0.463783
C113	C	1.243536	-0.262642	-0.922564
C114	C	1.743536	0.237358	-0.422564
C115	C	1.243518	-0.262657	-0.840013
C116	C	1.743518	0.237343	-0.340013
C117	C	1.192932	-0.310153	-0.798718
C118	C	1.692932	0.189847	-0.298718
C119	C	1.142369	-0.357638	-0.839976
C120	C	1.642369	0.142362	-0.339976
C121	C	1.091788	-0.405138	-0.798683
C122	C	1.591788	0.094862	-0.298683
C123	C	1.041220	-0.452620	-0.839940
C124	C	1.541220	0.047380	-0.339940
C125	C	1.041244	-0.452600	-0.922488
C126	C	1.541244	0.047400	-0.422488
C127	C	1.192908	-0.310173	-0.716170
C128	C	1.692908	0.189827	-0.216170
C129	C	1.091767	-0.405157	-0.716130
C130	C	1.591767	0.094843	-0.216130
C131	C	1.142293	-0.357768	-0.175485
C132	C	1.642293	0.142232	0.324515
C133	C	1.142432	-0.357585	-0.087629
C134	C	1.642432	0.142415	0.412371
H135	H	0.443996	-0.444047	-0.472450
H136	H	0.943996	0.055953	0.027550
N137	N	0.559207	-0.214091	-0.228407
N138	N	1.059207	0.285909	0.271593
N139	N	0.513174	-0.166801	-0.256320
N140	N	1.013174	0.333199	0.243680
H141	H	0.483384	-0.132491	-0.219931
H142	H	0.983384	0.367509	0.280069
H143	H	1.177867	-0.810975	-0.514088
H144	H	1.677867	-0.310975	-0.014088
N145	N	1.040086	-0.453676	-0.673965
N146	N	1.540086	0.046324	-0.173965
N147	N	0.994943	-0.496061	-0.710812
N148	N	1.494943	0.003939	-0.210812
H149	H	0.958442	-0.530328	-0.681034
H150	H	1.458442	-0.030328	-0.181034
N151	N	1.033467	-0.909044	-0.489726
N152	N	1.533467	-0.409044	0.010274
N153	N	1.040651	-0.893008	-0.561077
N154	N	1.540651	-0.393008	-0.061077
H155	H	1.001072	-0.912078	-0.600659
H156	H	1.501072	-0.412078	-0.100659
N157	N	1.295150	-0.214150	-0.797862
N158	N	1.795150	0.285850	-0.297862
N159	N	1.295119	-0.214165	-0.724158
N160	N	1.795119	0.285835	-0.224158
H161	H	1.331581	-0.179904	-0.694387
H162	H	1.831581	0.320096	-0.194387
H163	H	1.234081	-0.271516	-0.682582
H164	H	1.734081	0.228484	-0.182582
H165	H	1.000077	-0.491260	-0.956087
H166	H	1.500077	0.008740	-0.456087
H167	H	1.050677	-0.443741	-1.079931
H168	H	1.550677	0.056259	-0.579931
N169	N	0.993772	-0.805555	-0.340887
N170	N	1.493772	-0.305555	0.159113
N171	N	0.964386	-0.821412	-0.275416
N172	N	1.464386	-0.321412	0.224584
H173	H	0.910382	-0.802215	-0.260854
H174	H	1.410382	-0.302215	0.239146
N175	N	1.251259	-0.805529	-0.272216
N176	N	1.751259	-0.305529	0.227784
N177	N	1.322638	-0.821333	-0.279551
N178	N	1.822638	-0.321333	0.220449
H179	H	1.362257	-0.802142	-0.240074
H180	H	1.862257	-0.302142	0.259926
N181	N	0.726069	-0.214075	-0.228380
N182	N	1.226069	0.285925	0.271620
N183	N	0.689202	-0.171619	-0.183338
N184	N	1.189202	0.328381	0.316662
H185	H	0.718963	-0.137296	-0.146939
H186	H	1.218963	0.362704	0.353061
N187	N	0.435409	-0.261650	-0.278880
N188	N	0.935409	0.238350	0.221120
N189	N	0.444656	-0.193128	-0.284245
N190	N	0.944656	0.306872	0.215755
H191	H	0.414884	-0.158816	-0.247844
H192	H	0.914884	0.341184	0.252156
N193	N	0.849928	-0.261642	-0.278816
N194	N	1.349928	0.238358	0.221184
N195	N	0.923632	-0.261645	-0.278804
N196	N	1.423632	0.238355	0.221196
H197	H	0.953407	-0.227347	-0.242390
H198	H	1.453407	0.272653	0.257610
N199	N	1.102675	-0.909420	-0.232240
N200	N	1.602675	-0.409420	0.267760
N201	N	1.144656	-0.893615	-0.174061
N202	N	1.644656	-0.393615	0.325939
H203	H	1.130246	-0.912878	-0.120020
H204	H	1.630246	-0.412878	0.379980
H205	H	0.841408	-0.444014	-0.472385
H206	H	1.341408	0.055986	0.027615
H207	H	1.000040	-0.491298	-0.806308
H208	H	1.500040	0.008702	-0.306308
N209	N	0.559291	-0.501450	-0.533365
N210	N	1.059291	-0.001450	-0.033365
N211	N	0.596163	-0.543897	-0.578414
N212	N	1.096163	-0.043897	-0.078414
H213	H	0.566406	-0.578206	-0.614831
H214	H	1.066406	-0.078206	-0.114831
N215	N	0.726158	-0.501412	-0.533333
N216	N	1.226158	-0.001412	-0.033333
N217	N	0.799862	-0.501396	-0.533316
N218	N	1.299862	-0.001396	-0.033316
H219	H	0.829658	-0.535682	-0.569724
H220	H	1.329658	-0.035682	-0.069724
H221	H	1.275438	-0.903687	-0.416657
H222	H	1.775438	-0.403687	0.083343
H223	H	1.234177	-0.271436	-1.079994
H224	H	1.734177	0.228564	-0.579994
H225	H	1.284721	-0.223975	-0.956190
H226	H	1.784721	0.276025	-0.456190
