data_functionalizedCrystal
_audit_creation_method	'MofGen! by Chris Wilmer'
_symmetry_space_group_name_H-M	'P1'
_symmetry_Int_Tables_number	1
_symmetry_cell_setting	triclinic
loop_
_symmetry_equiv_pos_as_xyz
  x,y,z
_cell_length_a	16.974885
_cell_length_b	14.971486
_cell_length_c	14.048226
_cell_angle_alpha	90.006640
_cell_angle_beta	93.645561
_cell_angle_gamma	96.496699
loop_
_atom_site_label
_atom_site_type_symbol
_atom_site_fract_x
_atom_site_fract_y
_atom_site_fract_z
O1	O	1.049242	-0.113969	0.001596
O2	O	1.549242	0.386031	0.501596
O3	O	0.819053	-0.128497	-0.016123
O4	O	1.319053	0.371503	0.483877
O5	O	0.940317	0.008982	-0.006782
O6	O	1.440317	0.508982	0.493218
O7	O	0.927978	-0.251448	-0.007745
O8	O	1.427978	0.248552	0.492255
O9	O	0.940302	0.008990	0.151538
O10	O	1.440302	0.508990	0.651538
O11	O	0.819038	-0.128489	0.142197
O12	O	1.319038	0.371511	0.642197
O13	O	1.049228	-0.113961	0.159916
O14	O	1.549228	0.386039	0.659916
Zn15	Zn	0.934130	-0.121224	0.176193
Zn16	Zn	1.434130	0.378776	0.676193
Zn17	Zn	0.934150	-0.121234	-0.032400
Zn18	Zn	1.434150	0.378766	0.467600
O19	O	0.927963	-0.251440	0.150575
O20	O	1.427963	0.248560	0.650575
C21	C	0.789587	-0.127942	0.060769
C22	C	1.289587	0.372058	0.560769
C23	C	0.701810	-0.126288	0.054013
C24	C	1.201810	0.373712	0.554013
C25	C	0.207723	-0.116951	0.006652
C26	C	0.707723	0.383049	0.506652
C27	C	0.290199	-0.118505	0.013013
C28	C	0.790199	0.381495	0.513013
C29	C	0.331420	-0.119284	0.102495
C30	C	0.831420	0.380716	0.602495
C31	C	0.290162	-0.118500	0.185621
C32	C	0.790162	0.381500	0.685621
C33	C	0.207688	-0.116940	0.179259
C34	C	0.707688	0.383060	0.679259
C35	C	0.578078	-0.123944	0.130777
C36	C	1.078078	0.376056	0.630777
C37	C	0.660557	-0.125507	0.137133
C38	C	1.160557	0.374493	0.637133
C39	C	0.660588	-0.125510	-0.035476
C40	C	1.160588	0.374490	0.464524
C41	C	0.578113	-0.123955	-0.041830
C42	C	1.078113	0.376045	0.458170
C43	C	0.536863	-0.123167	0.041296
C44	C	1.036863	0.376833	0.541296
N45	N	0.415723	-0.120875	0.108999
N46	N	0.915723	0.379125	0.608999
N47	N	0.452562	-0.121569	0.034790
N48	N	0.952562	0.378431	0.534790
C49	C	0.939758	0.042310	0.072335
C50	C	1.439758	0.542310	0.572335
C51	C	0.938104	0.141603	0.072207
C52	C	1.438104	0.641603	0.572207
C53	C	1.078693	-0.114516	0.083021
C54	C	1.578693	0.385484	0.583021
C55	C	1.166470	-0.116170	0.089772
C56	C	1.666470	0.383830	0.589772
C57	C	0.928522	-0.284768	0.071455
C58	C	1.428522	0.215232	0.571455
C59	C	0.930176	-0.384061	0.071577
C60	C	1.430176	0.115939	0.571577
N61	N	0.934123	-0.121216	0.318553
N62	N	1.434123	0.378784	0.818553
C63	C	1.009344	0.199004	0.077692
C64	C	1.509344	0.699004	0.577692
C65	C	1.007785	0.292300	0.077562
C66	C	1.507785	0.792300	0.577562
C67	C	0.934986	0.328192	0.071955
C68	C	1.434986	0.828192	0.571955
C69	C	0.863741	0.270783	0.066467
C70	C	1.363741	0.770783	0.566467
C71	C	0.865301	0.177489	0.066590
C72	C	1.365301	0.677489	0.566590
C73	C	0.860496	0.465237	0.066214
C74	C	1.360496	0.965237	0.566214
C75	C	0.858936	0.558538	0.066093
C76	C	1.358936	1.058538	0.566093
C77	C	1.002981	0.580048	0.077186
C78	C	1.502981	1.080048	0.577186
C79	C	1.004540	0.486754	0.077309
C80	C	1.504540	0.986754	0.577309
C81	C	0.933295	0.429352	0.071823
C82	C	1.433295	0.929352	0.571823
N83	N	0.934163	-0.121235	-0.174760
N84	N	1.434163	0.378765	0.325240
C85	C	0.987836	-0.060365	0.372509
C86	C	1.487836	0.439635	0.872509
C87	C	0.987841	-0.060365	0.472167
C88	C	1.487841	0.439635	0.972167
C89	C	0.934137	-0.121220	0.517868
C90	C	1.434137	0.378780	1.017868
C91	C	0.880418	-0.182074	0.463905
C92	C	1.380418	0.317926	0.963905
C93	C	0.880410	-0.182069	0.364248
C94	C	1.380410	0.317931	0.864248
C95	C	0.880441	-0.182080	0.671621
C96	C	1.380441	0.317920	1.171621
C97	C	0.880451	-0.182086	0.771284
C98	C	1.380451	0.317914	1.271284
C99	C	0.987873	-0.060376	0.779540
C100	C	1.487873	0.439624	1.279540
C101	C	0.987864	-0.060371	0.679883
C102	C	1.487864	0.439629	1.179883
C103	C	0.934146	-0.121226	0.625927
C104	C	1.434146	0.378774	1.125927
H105	H	1.068625	0.169789	0.082263
H106	H	1.568625	0.669789	0.582263
O107	O	0.334694	-0.119348	-0.076637
O108	O	0.834694	0.380652	0.423363
H109	H	0.311887	-0.179990	-0.119779
H110	H	0.811887	0.320010	0.380221
H111	H	1.031571	-0.010814	0.335307
H112	H	1.531571	0.489186	0.835307
H113	H	0.836671	-0.231619	0.320318
H114	H	1.336671	0.268381	0.820318
H115	H	1.031578	-0.010815	0.516098
H116	H	1.531578	0.489185	1.016098
O117	O	0.163265	-0.116092	-0.089861
O118	O	0.663265	0.383908	0.410139
H119	H	0.205812	-0.116881	-0.146590
H120	H	0.705812	0.383119	0.353410
O121	O	0.822490	-0.247714	0.613437
O122	O	1.322490	0.252286	1.113437
H123	H	0.784020	-0.210075	0.565104
H124	H	1.284020	0.289925	1.065104
O125	O	0.533649	-0.123072	0.220473
O126	O	1.033649	0.376928	0.720473
H127	H	0.556522	-0.062431	0.263582
H128	H	1.056522	0.437569	0.763582
O129	O	0.334615	-0.119346	0.282137
O130	O	0.834615	0.380654	0.782137
H131	H	0.398894	-0.120574	0.272599
H132	H	0.898894	0.379426	0.772599
O133	O	0.533658	-0.123060	-0.138342
O134	O	1.033658	0.376940	0.361658
H135	H	0.576203	-0.123838	-0.195073
H136	H	1.076203	0.376162	0.304927
O137	O	0.163143	-0.116556	0.268907
O138	O	0.663143	0.383444	0.768907
H139	H	0.098851	-0.115497	0.249450
H140	H	0.598851	0.384503	0.749450
O141	O	0.785224	0.309499	0.060424
O142	O	1.285224	0.809499	0.560424
H143	H	0.750995	0.286437	-0.006744
H144	H	1.250995	0.786437	0.493256
H145	H	1.065796	0.339033	0.082030
H146	H	1.565796	0.839033	0.582030
O147	O	1.045782	0.005269	0.630587
O148	O	1.545782	0.505269	1.130587
H149	H	1.107432	-0.006082	0.654440
H150	H	1.607432	0.493918	1.154440
H151	H	1.031611	-0.010825	0.823476
H152	H	1.531611	0.489175	1.323476
H153	H	0.694183	-0.126151	-0.103152
H154	H	1.194183	0.373849	0.396848
H155	H	0.836718	-0.231640	0.808488
H156	H	1.336718	0.268360	1.308488
H157	H	0.836687	-0.231620	0.501120
H158	H	1.336687	0.268380	1.001120
O159	O	0.788465	0.115570	0.060685
O160	O	1.288465	0.615570	0.560685
H161	H	0.737580	0.156200	0.056776
H162	H	1.237580	0.656200	0.556776
H163	H	0.694117	-0.126148	0.210003
H164	H	1.194117	0.373852	0.710003
H165	H	1.060991	0.626790	0.081650
H166	H	1.560991	1.126790	0.581650
O167	O	1.083060	0.448044	0.083345
O168	O	1.583060	0.948044	0.583345
H169	H	1.117298	0.471119	0.150503
H170	H	1.617298	0.971119	0.650503
O171	O	0.780420	0.597256	0.060029
O172	O	1.280420	1.097256	0.560029
H173	H	0.731141	0.541669	0.056217
H174	H	1.231141	1.041669	0.556217
O175	O	0.783655	0.403320	0.060306
O176	O	1.283655	0.903320	0.560306
H177	H	0.732771	0.443949	0.056400
H178	H	1.232771	0.943949	0.556400
