data_functionalizedCrystal
_audit_creation_method	'MofGen! by Chris Wilmer'
_symmetry_space_group_name_H-M	'P1'
_symmetry_Int_Tables_number	1
_symmetry_cell_setting	triclinic
loop_
_symmetry_equiv_pos_as_xyz
  x,y,z
_cell_length_a	14.971486
_cell_length_b	10.654541
_cell_length_c	13.448316
_cell_angle_alpha	89.993648
_cell_angle_beta	89.998199
_cell_angle_gamma	84.049029
loop_
_atom_site_label
_atom_site_type_symbol
_atom_site_fract_x
_atom_site_fract_y
_atom_site_fract_z
O1	O	1.187837	0.163659	-0.082577
O2	O	0.927543	0.183258	-0.082604
O3	O	1.063676	-0.009345	-0.082584
O4	O	1.051704	0.356262	-0.082597
O5	O	1.063659	-0.009357	0.082800
O6	O	0.927526	0.183246	0.082780
O7	O	1.187820	0.163648	0.082807
Cu8	Cu	1.057671	0.173446	0.097894
Cu9	Cu	1.057692	0.173460	-0.097691
O10	O	1.051687	0.356251	0.082787
C11	C	0.894205	0.182376	0.000085
C12	C	0.794894	0.179749	0.000074
C13	C	0.738284	0.292898	0.000072
C14	C	0.644971	0.290423	0.000087
C15	C	0.608270	0.174797	0.000097
C16	C	0.664887	0.061639	0.000103
C17	C	0.758199	0.064116	0.000095
C18	C	0.470397	0.056485	0.000117
C19	C	0.377079	0.054008	0.000123
C20	C	0.357169	0.282792	0.000108
C21	C	0.450480	0.285268	0.000100
C22	C	0.507091	0.172110	0.000104
C23	C	1.062789	-0.056140	0.000107
C24	C	1.060160	-0.195555	0.000106
C25	C	1.222944	-0.225272	0.000135
C26	C	1.303097	-0.305626	0.000152
C27	C	1.300621	-0.436618	0.000148
C28	C	1.217984	-0.487256	0.000125
C29	C	1.137831	-0.406902	0.000109
C30	C	1.140315	-0.275909	0.000115
C31	C	0.975050	-0.377185	0.000072
C32	C	0.977523	-0.246194	0.000083
C33	C	0.892412	-0.427824	0.000049
C34	C	0.812257	-0.347470	0.000040
C35	C	0.814736	-0.216471	0.000044
C36	C	0.897370	-0.165839	0.000066
C37	C	1.221158	0.164530	0.000116
C38	C	1.320469	0.167157	0.000120
C39	C	1.052574	0.403045	0.000093
C40	C	1.055203	0.542460	0.000089
N41	N	1.057663	0.173435	0.235458
N42	N	1.057707	0.173461	-0.235256
C43	C	1.117962	0.088186	0.287508
C44	C	1.117968	0.088185	0.391611
C45	C	1.057678	0.173440	0.443663
C46	C	0.997373	0.258694	0.391606
C47	C	0.997364	0.258688	0.287505
C48	C	0.997398	0.258702	0.608587
C49	C	0.997408	0.258710	0.712695
C50	C	1.118002	0.088199	0.712692
C51	C	1.117992	0.088193	0.608591
C52	C	1.057688	0.173449	0.556542
H53	H	0.634998	-0.032506	0.000126
O54	O	1.176638	0.005340	0.442017
C55	C	1.229842	-0.069918	0.373752
H56	H	1.231149	-0.018431	0.299537
H57	H	1.200241	-0.163293	0.362701
C58	C	1.324572	-0.158780	0.505516
C59	C	1.326184	-0.095538	0.414366
H60	H	1.383999	-0.174589	0.530569
H61	H	1.288726	-0.108081	0.551508
H62	H	1.299900	-0.236585	0.496294
H63	H	1.350845	-0.017728	0.423590
H64	H	1.362037	-0.146224	0.368375
H65	H	1.167103	0.018781	0.755077
O66	O	0.731971	-0.396600	-0.000162
C67	C	0.683067	-0.355507	-0.085810
H68	H	0.731381	-0.328167	-0.145662
H69	H	0.633747	-0.270219	-0.066446
C70	C	0.571664	-0.496341	-0.051160
C71	C	0.631006	-0.462772	-0.124676
H72	H	0.539547	-0.562503	-0.075133
H73	H	0.604610	-0.524023	0.006544
H74	H	0.530573	-0.425258	-0.035031
H75	H	0.672103	-0.533850	-0.140795
H76	H	0.598066	-0.435104	-0.182384
O77	O	0.938745	0.341555	0.763106
C78	C	0.885522	0.416809	0.694846
H79	H	0.884199	0.365322	0.620641
H80	H	0.915116	0.510187	0.683767
C81	C	0.790821	0.505662	0.826628
C82	C	0.789189	0.442420	0.735491
H83	H	0.731399	0.521466	0.851700
H84	H	0.826680	0.454966	0.872617
H85	H	0.815486	0.583470	0.817383
H86	H	0.764534	0.364607	0.744739
H87	H	0.753323	0.493104	0.689504
H88	H	0.804290	-0.028022	0.000097
H89	H	0.749465	-0.151052	0.000026
O90	O	0.938943	0.341571	0.557914
C91	C	0.987318	0.419175	0.497699
H92	H	1.056997	0.369315	0.482102
H93	H	0.993971	0.512008	0.537806
C94	C	0.851469	0.507132	0.417973
C95	C	0.937047	0.445889	0.398809
H96	H	0.820458	0.523617	0.356974
H97	H	0.818876	0.454854	0.458542
H98	H	0.857025	0.584487	0.451397
H99	H	0.931490	0.368530	0.365397
H100	H	0.969638	0.498156	0.358231
H101	H	1.224967	-0.118613	0.000151
H102	H	1.365889	-0.502043	0.000154
H103	H	0.516488	-0.035661	0.000121
H104	H	0.948262	0.328105	0.245128
O105	O	1.176387	0.005265	0.236862
C106	C	1.127971	-0.072344	0.176714
H107	H	1.058308	-0.022442	0.161098
H108	H	1.121282	-0.165133	0.216887
C109	C	1.263787	-0.160475	0.097016
C110	C	1.178227	-0.099180	0.077830
H111	H	1.294788	-0.177035	0.036022
H112	H	1.296406	-0.108193	0.137542
H113	H	1.258200	-0.237792	0.130497
H114	H	1.183815	-0.021858	0.044362
H115	H	1.145610	-0.151451	0.037297
H116	H	1.167089	0.018778	0.566211
O117	O	0.938681	0.341382	0.442125
C118	C	0.850015	0.320773	0.416686
H119	H	0.848959	0.220223	0.388080
H120	H	0.824163	0.390318	0.356257
C121	C	0.790803	0.463641	0.544306
C122	C	0.789506	0.340140	0.509179
H123	H	0.753477	0.475592	0.601358
H124	H	0.850539	0.477530	0.561442
H125	H	0.769262	0.521581	0.493939
H126	H	0.811057	0.282203	0.559541
H127	H	0.729772	0.326241	0.492053
H128	H	0.899396	-0.059181	0.000076
H129	H	0.768157	0.387054	0.000062
H130	H	0.598882	0.382560	0.000083
H131	H	0.890403	-0.534485	0.000040
H132	H	1.370379	-0.264381	0.000179
H133	H	0.480359	0.379421	0.000082
H134	H	0.311071	0.374929	0.000109
H135	H	1.215976	-0.593918	0.000110
H136	H	0.347201	-0.040145	0.000132
