data_functionalizedCrystal
_audit_creation_method	'MofGen! by Chris Wilmer'
_symmetry_space_group_name_H-M	'P1'
_symmetry_Int_Tables_number	1
_symmetry_cell_setting	triclinic
loop_
_symmetry_equiv_pos_as_xyz
  x,y,z
_cell_length_a	27.732048
_cell_length_b	27.732048
_cell_length_c	13.448316
_cell_angle_alpha	89.988441
_cell_angle_beta	89.998727
_cell_angle_gamma	82.642655
loop_
_atom_site_label
_atom_site_type_symbol
_atom_site_fract_x
_atom_site_fract_y
_atom_site_fract_z
O1	O	0.640929	0.057518	-0.082574
O2	O	1.140929	0.557518	0.417426
O3	O	0.500135	0.066264	-0.082606
O4	O	1.000135	0.566264	0.417394
O5	O	0.574905	-0.008506	-0.082570
O6	O	1.074905	0.491494	0.417430
O7	O	0.566159	0.132288	-0.082610
O8	O	1.066159	0.632288	0.417390
O9	O	0.574895	-0.008510	0.082814
O10	O	1.074895	0.491490	0.582814
O11	O	0.500126	0.066259	0.082778
O12	O	1.000126	0.566259	0.582778
O13	O	0.640919	0.057514	0.082810
O14	O	1.140919	0.557514	0.582810
Cu15	Cu	0.570522	0.061886	0.097895
Cu16	Cu	1.070522	0.561886	0.597895
Cu17	Cu	0.570533	0.061891	-0.097691
Cu18	Cu	1.070533	0.561891	0.402309
O19	O	0.566150	0.132283	0.082774
O20	O	1.066150	0.632283	0.582774
C21	C	0.482124	0.066078	0.000082
C22	C	0.982124	0.566078	0.500082
C23	C	0.428469	0.065525	0.000071
C24	C	0.928469	0.565525	0.500071
C25	C	0.089654	0.106229	0.000103
C26	C	0.589654	0.606229	0.500103
C27	C	-0.112006	0.104178	0.000112
C28	C	0.387994	0.604178	0.500112
O29	O	-0.143262	0.141398	0.000145
O30	O	0.356738	0.641398	0.500145
N31	N	-0.131130	0.059843	0.000123
N32	N	0.368870	0.559843	0.500123
C33	C	-0.099835	0.016017	0.000138
C34	C	0.400165	0.516017	0.500138
O35	O	-0.120728	-0.021740	0.000157
O36	O	0.379272	0.478260	0.500157
C37	C	0.101824	0.018068	0.000135
C38	C	0.601824	0.518068	0.500135
C39	C	0.120944	0.062407	0.000115
C40	C	0.620944	0.562407	0.500115
C41	C	0.108775	0.150563	0.000083
C42	C	0.608775	0.650563	0.500083
C43	C	0.159187	0.151075	0.000075
C44	C	0.659187	0.651075	0.500075
C45	C	0.190477	0.107253	0.000087
C46	C	0.690477	0.607253	0.500087
C47	C	0.171356	0.062919	0.000107
C48	C	0.671356	0.562919	0.500107
C49	C	0.133117	-0.025757	0.000157
C50	C	0.633117	0.474243	0.500157
C51	C	0.183535	-0.025240	0.000159
C52	C	0.683535	0.474760	0.500159
C53	C	0.202655	0.019098	0.000139
C54	C	0.702655	0.519098	0.500139
C55	C	0.253059	0.019609	0.000111
C56	C	0.753059	0.519609	0.500111
N57	N	0.272183	0.063944	0.000100
N58	N	0.772183	0.563944	0.500100
C59	C	0.240892	0.107766	0.000088
C60	C	0.740892	0.607766	0.500088
C61	C	-0.205709	0.014943	0.000137
C62	C	0.294291	0.514943	0.500137
C63	C	-0.256124	0.014430	0.000136
C64	C	0.243876	0.514430	0.500136
C65	C	-0.268291	0.102591	0.000112
C66	C	0.231709	0.602591	0.500112
C67	C	-0.217876	0.103104	0.000106
C68	C	0.282124	0.603104	0.500106
C69	C	-0.186585	0.059278	0.000126
C70	C	0.313415	0.559278	0.500126
C71	C	0.346761	0.108839	0.000071
C72	C	0.846761	0.608839	0.500071
C73	C	0.397178	0.109347	0.000059
C74	C	0.897178	0.609347	0.500059
C75	C	0.409341	0.021186	0.000088
C76	C	0.909341	0.521186	0.500088
C77	C	0.358929	0.020678	0.000095
C78	C	0.858929	0.520678	0.500095
C79	C	0.327639	0.064508	0.000090
C80	C	0.827639	0.564508	0.500090
O81	O	0.284343	-0.017592	0.000090
O82	O	0.784343	0.482408	0.500090
O83	O	0.261794	0.145518	0.000091
O84	O	0.761794	0.645518	0.500091
C85	C	0.039242	0.105716	0.000110
C86	C	0.539242	0.605716	0.500110
C87	C	0.020120	0.061382	0.000130
C88	C	0.520120	0.561382	0.500130
C89	C	0.051411	0.017560	0.000142
C90	C	0.551411	0.517560	0.500142
C91	C	-0.030294	0.060869	0.000129
C92	C	0.469706	0.560869	0.500129
C93	C	-0.061585	0.104691	0.000117
C94	C	0.438415	0.604691	0.500117
C95	C	-0.042461	0.149026	0.000106
C96	C	0.457539	0.649026	0.500106
C97	C	0.007951	0.149539	0.000098
C98	C	0.507951	0.649539	0.500098
C99	C	0.032287	-0.026775	0.000153
C100	C	0.532287	0.473225	0.500153
C101	C	-0.018125	-0.027284	0.000159
C102	C	0.481875	0.472716	0.500159
C103	C	-0.049416	0.016538	0.000148
C104	C	0.450584	0.516538	0.500148
C105	C	0.574716	-0.026515	0.000124
C106	C	1.074716	0.473485	0.500124
C107	C	0.574164	-0.080170	0.000132
C108	C	1.074164	0.419830	0.500132
C109	C	0.614867	-0.418985	0.000091
C110	C	1.114867	0.081015	0.500091
C111	C	0.612816	-0.620645	0.000076
C112	C	1.112816	-0.120645	0.500076
O113	O	0.650037	-0.651900	0.000041
O114	O	1.150037	-0.151900	0.500041
N115	N	0.568481	-0.639768	0.000067
N116	N	1.068481	-0.139768	0.500067
C117	C	0.524656	-0.608474	0.000055
C118	C	1.024656	-0.108474	0.500055
O119	O	0.486899	-0.629367	0.000037
O120	O	0.986899	-0.129367	0.500037
C121	C	0.526707	-0.406815	0.000062
C122	C	1.026707	0.093185	0.500062
C123	C	0.571045	-0.387694	0.000082
C124	C	1.071045	0.112306	0.500082
C125	C	0.659202	-0.399864	0.000109
C126	C	1.159202	0.100136	0.500109
C127	C	0.659714	-0.349452	0.000118
C128	C	1.159714	0.150548	0.500118
C129	C	0.615892	-0.318161	0.000109
C130	C	1.115892	0.181839	0.500109
C131	C	0.571557	-0.337282	0.000091
C132	C	1.071557	0.162718	0.500091
C133	C	0.482882	-0.375521	0.000043
C134	C	0.982882	0.124479	0.500043
C135	C	0.483399	-0.325104	0.000043
C136	C	0.983399	0.174896	0.500043
C137	C	0.527737	-0.305983	0.000062
C138	C	1.027737	0.194017	0.500062
C139	C	0.528247	-0.255580	0.000091
C140	C	1.028247	0.244420	0.500091
N141	N	0.572583	-0.236456	0.000100
N142	N	1.072583	0.263544	0.500100
C143	C	0.616405	-0.267747	0.000109
C144	C	1.116405	0.232253	0.500109
C145	C	0.523582	-0.714348	0.000053
C146	C	1.023582	-0.214348	0.500053
C147	C	0.523069	-0.764762	0.000053
C148	C	1.023069	-0.264762	0.500053
C149	C	0.611230	-0.776930	0.000073
C150	C	1.111230	-0.276930	0.500073
C151	C	0.611742	-0.726514	0.000080
C152	C	1.111742	-0.226514	0.500080
C153	C	0.567917	-0.695224	0.000062
C154	C	1.067917	-0.195224	0.500062
C155	C	0.617477	-0.161878	0.000128
C156	C	1.117477	0.338122	0.500128
C157	C	0.617986	-0.111461	0.000141
C158	C	1.117986	0.388539	0.500141
C159	C	0.529825	-0.099298	0.000117
C160	C	1.029825	0.400702	0.500117
C161	C	0.529316	-0.149710	0.000109
C162	C	1.029316	0.350290	0.500109
C163	C	0.573147	-0.180999	0.000111
C164	C	1.073147	0.319001	0.500111
O165	O	0.491047	-0.224296	0.000115
O166	O	0.991047	0.275704	0.500115
O167	O	0.654156	-0.246844	0.000105
O168	O	1.154156	0.253156	0.500105
C169	C	0.614355	-0.469397	0.000082
C170	C	1.114355	0.030603	0.500082
C171	C	0.570021	-0.488518	0.000064
C172	C	1.070021	0.011482	0.500064
C173	C	0.526198	-0.457228	0.000055
C174	C	1.026198	0.042772	0.500055
C175	C	0.569508	-0.538933	0.000064
C176	C	1.069508	-0.038933	0.500064
C177	C	0.613330	-0.570223	0.000073
C178	C	1.113330	-0.070223	0.500073
C179	C	0.657665	-0.551100	0.000082
C180	C	1.157665	-0.051100	0.500082
C181	C	0.658177	-0.500688	0.000091
C182	C	1.158177	-0.000688	0.500091
C183	C	0.481863	-0.476351	0.000046
C184	C	0.981863	0.023649	0.500046
C185	C	0.481355	-0.526764	0.000038
C186	C	0.981355	-0.026764	0.500038
C187	C	0.525177	-0.558054	0.000047
C188	C	1.025177	-0.058054	0.500047
C189	C	0.658931	0.057699	0.000119
C190	C	1.158931	0.557699	0.500119
C191	C	0.712586	0.058252	0.000124
C192	C	1.212586	0.558252	0.500124
C193	C	0.566338	0.150292	0.000077
C194	C	1.066338	0.650292	0.500077
C195	C	0.566891	0.203947	0.000062
C196	C	1.066891	0.703947	0.500062
N197	N	0.570518	0.061882	0.235459
N198	N	1.070518	0.561882	0.735459
N199	N	0.570541	0.061891	-0.235255
N200	N	1.070541	0.561891	0.264745
C201	C	0.603636	0.028787	0.287515
C202	C	1.103636	0.528787	0.787515
C203	C	0.603639	0.028787	0.391618
C204	C	1.103639	0.528787	0.891618
C205	C	0.570525	0.061884	0.443663
C206	C	1.070525	0.561884	0.943663
C207	C	0.537404	0.094980	0.391600
C208	C	1.037404	0.594980	0.891600
C209	C	0.537399	0.094978	0.287499
C210	C	1.037399	0.594978	0.787499
C211	C	0.537417	0.094983	0.608580
C212	C	1.037417	0.594983	1.108580
C213	C	0.537423	0.094986	0.712689
C214	C	1.037423	0.594986	1.212689
C215	C	0.603657	0.028792	0.712700
C216	C	1.103657	0.528792	1.212700
C217	C	0.603652	0.028790	0.608598
C218	C	1.103652	0.528790	1.108598
C219	C	0.570531	0.061887	0.556542
C220	C	1.070531	0.561887	1.056542
H221	H	-0.271687	-0.021674	0.000137
H222	H	0.228313	0.478326	0.500137
H223	H	0.412743	0.145454	0.000041
H224	H	0.912743	0.645454	0.500041
F225	F	0.638886	-0.006436	0.447021
F226	F	1.138886	0.493564	0.947021
F227	F	0.216833	-0.071886	0.000183
F228	F	0.716833	0.428114	0.500183
H229	H	0.447710	-0.299629	0.000027
H230	H	0.947710	0.200371	0.500027
H231	H	0.117558	-0.061861	0.000175
H232	H	0.617558	0.438139	0.500175
F233	F	0.338578	-0.026511	0.000118
F234	F	0.838578	0.473489	0.500118
H235	H	-0.293777	0.138273	0.000102
H236	H	0.206223	0.638273	0.500102
F237	F	0.665178	-0.091114	0.000161
F238	F	1.165178	0.408886	0.500161
H239	H	-0.180236	-0.020747	0.000153
H240	H	0.319764	0.479253	0.500153
H241	H	-0.202311	0.139207	0.000095
H242	H	0.297689	0.639207	0.500095
H243	H	0.510440	0.121926	0.433981
H244	H	1.010440	0.621926	0.933981
F245	F	0.502178	0.130212	0.768072
F246	F	1.002178	0.630212	1.268072
F247	F	0.638907	-0.006431	0.768106
F248	F	1.138907	0.493569	1.268106
H249	H	-0.067947	0.184708	0.000092
H250	H	0.432053	0.684708	0.500092
F251	F	0.442651	-0.025450	0.000102
F252	F	0.942651	0.474550	0.500102
H253	H	0.510430	0.121926	0.245115
H254	H	1.010430	0.621926	0.745115
H255	H	0.321291	0.144530	0.000070
H256	H	0.821291	0.644530	0.500070
F257	F	0.075480	0.197209	0.000070
F258	F	0.575480	0.697209	0.500070
H259	H	0.695819	-0.333889	0.000129
H260	H	1.195819	0.166111	0.500129
F261	F	0.658932	-0.706169	0.000100
F262	F	1.158932	-0.206169	0.500100
F263	F	0.502164	0.130208	0.553182
F264	F	1.002164	0.630208	1.053182
F265	F	0.028294	0.196730	0.000076
F266	F	0.528294	0.696730	0.500076
F267	F	0.179530	0.198267	0.000058
F268	F	0.679530	0.698267	0.500058
H269	H	-0.033688	-0.063392	0.000169
H270	H	0.466312	0.436608	0.500169
H271	H	0.057760	-0.062462	0.000165
H272	H	0.557760	0.437538	0.500165
H273	H	0.446777	-0.391080	0.000022
H274	H	0.946777	0.108920	0.500022
H275	H	0.653168	-0.187348	0.000126
H276	H	1.153168	0.312652	0.500126
F277	F	0.475878	-0.785106	0.000051
F278	F	0.975878	-0.285106	0.500051
H279	H	0.694889	-0.425336	0.000112
H280	H	1.194889	0.074664	0.500112
F281	F	0.657869	-0.810240	0.000080
F282	F	1.157869	-0.310240	0.500080
F283	F	0.638897	-0.006432	0.553207
F284	F	1.138897	0.493568	1.053207
F285	F	0.482127	-0.170060	0.000107
F286	F	0.982127	0.329940	0.500107
H287	H	0.487892	-0.688875	0.000040
H288	H	0.987892	-0.188875	0.500040
H289	H	0.494146	-0.073812	0.000113
H290	H	0.994146	0.426188	0.500113
H291	H	0.693347	-0.576585	0.000093
H292	H	1.193347	-0.076585	0.500093
F293	F	0.705368	-0.480345	0.000105
F294	F	1.205368	0.019655	0.500105
H295	H	0.445246	-0.542327	0.000031
H296	H	0.945246	-0.042327	0.500031
H297	H	0.446177	-0.450879	0.000036
H298	H	0.946177	0.049121	0.500036
H299	H	0.630602	0.001838	0.245147
H300	H	1.130602	0.501838	0.745147
