data_functionalizedCrystal
_audit_creation_method	'MofGen! by Chris Wilmer'
_symmetry_space_group_name_H-M	'P1'
_symmetry_Int_Tables_number	1
_symmetry_cell_setting	triclinic
loop_
_symmetry_equiv_pos_as_xyz
  x,y,z
_cell_length_a	16.992694
_cell_length_b	13.101018
_cell_length_c	16.992695
_cell_angle_alpha	93.587846
_cell_angle_beta	89.331777
_cell_angle_gamma	93.586237
loop_
_atom_site_label
_atom_site_type_symbol
_atom_site_fract_x
_atom_site_fract_y
_atom_site_fract_z
O1	O	1.054908	0.085087	-0.162853
O2	O	1.388241	0.418420	0.170480
O3	O	1.721575	0.751753	0.503814
O4	O	0.826509	0.085117	-0.161020
O5	O	1.159843	0.418450	0.172313
O6	O	1.493176	0.751784	0.505646
O7	O	0.939793	0.085094	-0.047737
O8	O	1.273126	0.418427	0.285596
O9	O	1.606459	0.751761	0.618930
O10	O	0.941625	0.085110	-0.276136
O11	O	1.274958	0.418443	0.057197
O12	O	1.608291	0.751777	0.390530
O13	O	0.931655	-0.085335	-0.055872
O14	O	1.264988	0.247999	0.277461
O15	O	1.598322	0.581332	0.610795
O16	O	0.818372	-0.085312	-0.169155
O17	O	1.151705	0.248022	0.164178
O18	O	1.485039	0.581355	0.497511
O19	O	1.046770	-0.085342	-0.170988
O20	O	1.380104	0.247991	0.162345
O21	O	1.713437	0.581325	0.495679
Zn22	Zn	0.931279	-0.112386	-0.171363
Zn23	Zn	1.264612	0.220947	0.161970
Zn24	Zn	1.597946	0.554281	0.495303
Zn25	Zn	0.942001	0.112161	-0.160645
Zn26	Zn	1.275334	0.445494	0.172688
Zn27	Zn	1.608667	0.778828	0.506022
O28	O	0.933487	-0.085319	-0.284271
O29	O	1.266820	0.248015	0.049062
O30	O	1.600154	0.581348	0.382395
C31	C	0.793081	-0.000094	-0.162732
C32	C	1.126414	0.333240	0.170601
C33	C	1.459747	0.666573	0.503935
C34	C	0.705597	-0.000082	-0.155703
C35	C	1.038930	0.333251	0.177631
C36	C	1.372263	0.666584	0.510964
N37	N	0.923968	-0.265634	-0.178678
N38	N	1.257301	0.067700	0.154655
N39	N	1.590634	0.401033	0.487989
C40	C	0.659606	-0.000078	-0.223520
C41	C	0.992939	0.333255	0.109813
C42	C	1.326273	0.666588	0.443146
C43	C	0.577404	-0.000093	-0.216912
C44	C	0.910738	0.333240	0.116421
C45	C	1.244071	0.666574	0.449755
C46	C	0.541196	-0.000104	-0.142485
C47	C	0.874529	0.333229	0.190848
C48	C	1.207862	0.666563	0.524182
C49	C	0.587192	-0.000111	-0.074662
C50	C	0.920526	0.333222	0.258671
C51	C	1.253859	0.666556	0.592004
C52	C	0.669392	-0.000104	-0.081272
C53	C	1.002725	0.333229	0.252062
C54	C	1.336058	0.666563	0.585395
C55	C	0.295880	-0.000133	-0.115092
C56	C	0.629213	0.333200	0.218241
C57	C	0.962547	0.666533	0.551575
C58	C	0.213674	-0.000138	-0.108487
C59	C	0.547008	0.333196	0.224846
C60	C	0.880341	0.666529	0.558179
C61	C	0.203892	-0.000121	-0.250738
C62	C	0.537225	0.333212	0.082595
C63	C	0.870559	0.666545	0.415929
C64	C	0.286094	-0.000108	-0.257341
C65	C	0.619427	0.333225	0.075993
C66	C	0.952761	0.666559	0.409326
C67	C	0.332083	-0.000120	-0.189518
C68	C	0.665416	0.333213	0.143815
C69	C	0.998750	0.666546	0.477148
N70	N	0.457173	-0.000116	-0.135728
N71	N	0.790506	0.333218	0.197605
N72	N	1.123839	0.666551	0.530938
N73	N	0.416104	-0.000116	-0.196276
N74	N	0.749437	0.333217	0.137057
N75	N	1.082771	0.666551	0.470391
C76	C	0.959261	-0.525550	-0.143369
C77	C	1.292594	-0.192217	0.189964
C78	C	1.625928	0.141117	0.523297
C79	C	0.914027	-0.474668	-0.188631
C80	C	1.247360	-0.141335	0.144703
C81	C	1.580694	0.191999	0.478036
C82	C	0.919560	-0.358350	-0.183092
C83	C	1.252893	-0.025017	0.150242
C84	C	1.586226	0.308316	0.483575
C85	C	0.953729	-0.641878	-0.148908
C86	C	1.287063	-0.308545	0.184426
C87	C	1.620396	0.024788	0.517759
C88	C	1.080199	-0.000129	-0.169276
C89	C	1.413533	0.333204	0.164057
C90	C	1.746866	0.666538	0.497390
C91	C	1.167684	-0.000134	-0.176305
C92	C	1.501017	0.333200	0.157028
C93	C	1.834350	0.666533	0.490361
C94	C	0.933368	-0.000120	-0.022444
C95	C	1.266701	0.333213	0.310889
C96	C	1.600035	0.666547	0.644222
C97	C	0.926339	-0.000119	0.065040
C98	C	1.259673	0.333215	0.398374
C99	C	1.593006	0.666548	0.731707
N100	N	0.949318	0.265409	-0.153325
N101	N	1.282651	0.598742	0.180009
N102	N	1.615984	0.932075	0.513342
C103	C	0.939912	-0.000103	-0.309564
C104	C	1.273245	0.333231	0.023769
C105	C	1.606578	0.666564	0.357103
C106	C	0.946941	-0.000097	-0.397048
C107	C	1.280274	0.333236	-0.063715
C108	C	1.613607	0.666570	0.269618
C109	C	0.994157	-0.000129	0.111031
C110	C	1.327490	0.333204	0.444364
C111	C	1.660824	0.666538	0.777697
C112	C	0.987549	-0.000118	0.193232
C113	C	1.320882	0.333215	0.526565
C114	C	1.654215	0.666548	0.859899
C115	C	0.913122	-0.000105	0.229441
C116	C	1.246455	0.333228	0.562774
C117	C	1.579788	0.666562	0.896108
C118	C	0.845299	-0.000092	0.183445
C119	C	1.178632	0.333241	0.516778
C120	C	1.511966	0.666575	0.850111
C121	C	0.851909	-0.000095	0.101245
C122	C	1.185242	0.333238	0.434579
C123	C	1.518575	0.666572	0.767912
C124	C	0.885728	-0.000087	0.474756
C125	C	1.219061	0.333246	0.808089
C126	C	1.552395	0.666579	1.141423
C127	C	0.879123	-0.000087	0.556961
C128	C	1.212457	0.333246	0.890295
C129	C	1.545790	0.666580	1.223628
C130	C	1.021373	-0.000112	0.566743
C131	C	1.354707	0.333222	0.900077
C132	C	1.688040	0.666555	1.233410
C133	C	1.027976	-0.000121	0.484542
C134	C	1.361310	0.333212	0.817875
C135	C	1.694643	0.666546	1.151208
C136	C	0.960154	-0.000102	0.438553
C137	C	1.293487	0.333231	0.771886
C138	C	1.626821	0.666564	1.105219
N139	N	0.906365	-0.000097	0.313464
N140	N	1.239698	0.333236	0.646797
N141	N	1.573031	0.666569	0.980130
N142	N	0.966912	-0.000103	0.354532
N143	N	1.300245	0.333231	0.687865
N144	N	1.633579	0.666564	1.021199
H145	H	0.539962	-0.000088	-0.272137
H146	H	0.873295	0.333245	0.061197
H147	H	1.206629	0.666578	0.394530
H148	H	0.871147	-0.518464	-0.231541
H149	H	1.204480	-0.185131	0.101793
H150	H	1.537813	0.148202	0.435126
N151	N	0.323066	-0.000083	-0.333372
N152	N	0.656399	0.333250	-0.000039
N153	N	0.989732	0.666583	0.333295
N154	N	0.281993	-0.000074	-0.393919
N155	N	0.615326	0.333260	-0.060586
N156	N	0.948659	0.666593	0.272748
H157	H	0.308104	-0.000049	-0.447618
H158	H	0.641437	0.333284	-0.114285
H159	H	0.974770	0.666617	0.219049
H160	H	1.002140	-0.481759	-0.100463
H161	H	1.335473	-0.148426	0.232870
H162	H	1.668806	0.184908	0.566204
H163	H	0.333315	-0.000144	-0.059866
H164	H	0.666648	0.333189	0.273468
H165	H	0.999981	0.666522	0.606801
N166	N	1.070189	-0.000156	0.074060
N167	N	1.403522	0.333177	0.407393
N168	N	1.736856	0.666511	0.740727
N169	N	1.130733	-0.000166	0.115136
N170	N	1.464067	0.333167	0.448470
N171	N	1.797400	0.666501	0.781803
H172	H	1.184434	-0.000185	0.089029
H173	H	1.517767	0.333149	0.422362
H174	H	1.851101	0.666482	0.755695
N175	N	1.056831	-0.000118	0.240198
N176	N	1.390165	0.333215	0.573532
N177	N	1.723498	0.666548	0.906865
N178	N	1.123279	-0.000132	0.207860
N179	N	1.456612	0.333202	0.541193
N180	N	1.789946	0.666535	0.874526
H181	H	1.172214	-0.000128	0.241029
H182	H	1.505547	0.333205	0.574362
H183	H	1.838881	0.666538	0.907696
N184	N	1.104008	-0.000136	0.447570
N185	N	1.437341	0.333198	0.780904
N186	N	1.770675	0.666531	1.114237
N187	N	1.164555	-0.000143	0.488643
N188	N	1.497889	0.333191	0.821977
N189	N	1.831222	0.666524	1.155310
H190	H	1.218255	-0.000155	0.462533
H191	H	1.551588	0.333178	0.795866
H192	H	1.884921	0.666511	1.129200
N193	N	0.550195	-0.000133	0.001357
N194	N	0.883529	0.333200	0.334691
N195	N	1.216862	0.666533	0.668024
N196	N	0.476803	-0.000139	0.007250
N197	N	0.810137	0.333195	0.340583
N198	N	1.143470	0.666528	0.673917
H199	H	0.450674	-0.000152	0.060941
H200	H	0.784008	0.333181	0.394274
H201	H	1.117341	0.666514	0.727607
N202	N	0.716361	-0.000119	-0.011990
N203	N	1.049694	0.333214	0.321343
N204	N	1.383027	0.666547	0.654677
N205	N	0.684024	-0.000134	0.054459
N206	N	1.017357	0.333199	0.387792
N207	N	1.350691	0.666533	0.721125
H208	H	0.717194	-0.000151	0.103392
H209	H	1.050527	0.333182	0.436725
H210	H	1.383861	0.666515	0.770058
H211	H	0.166439	-0.000113	-0.305955
H212	H	0.499772	0.333220	0.027378
H213	H	0.833106	0.666553	0.360712
N214	N	0.696602	-0.000058	-0.299541
N215	N	1.029935	0.333275	0.033793
N216	N	1.363268	0.666609	0.367126
N217	N	0.744799	0.071787	-0.315669
N218	N	1.078133	0.405120	0.017664
N219	N	1.411466	0.738454	0.350997
H220	H	0.770927	0.071799	-0.369360
H221	H	1.104260	0.405133	-0.036027
H222	H	1.437594	0.738466	0.297306
N223	N	0.769273	-0.000105	0.220430
N224	N	1.102606	0.333228	0.553763
N225	N	1.435940	0.666561	0.887097
N226	N	0.718964	-0.071946	0.204547
N227	N	1.052297	0.261388	0.537880
N228	N	1.385631	0.594721	0.871213
H229	H	0.665269	-0.071962	0.230667
H230	H	0.998602	0.261371	0.564000
H231	H	1.331935	0.594705	0.897334
H232	H	1.076590	-0.000125	0.604196
H233	H	1.409924	0.333209	0.937529
H234	H	1.743257	0.666542	1.270863
N235	N	0.803087	-0.000093	0.593936
N236	N	1.136420	0.333240	0.927269
N237	N	1.469753	0.666574	1.260602
N238	N	0.742537	-0.000088	0.552866
N239	N	1.075870	0.333245	0.886199
N240	N	1.409204	0.666578	1.219533
H241	H	0.688838	-0.000100	0.578978
H242	H	1.022171	0.333233	0.912312
H243	H	1.355505	0.666566	1.245645
N244	N	0.816443	-0.000076	0.427798
N245	N	1.149777	0.333258	0.761131
N246	N	1.483110	0.666591	1.094465
N247	N	0.749997	-0.000072	0.460140
N248	N	1.083330	0.333261	0.793473
N249	N	1.416663	0.666595	1.126807
H250	H	0.701060	-0.000067	0.426974
H251	H	1.034394	0.333266	0.760307
H252	H	1.367727	0.666599	1.093640
H253	H	0.796684	-0.000087	0.063800
H254	H	1.130018	0.333247	0.397134
H255	H	1.463351	0.666580	0.730467
N256	N	0.176696	-0.000166	-0.032453
N257	N	0.510030	0.333167	0.300880
N258	N	0.843363	0.666501	0.634213
N259	N	0.185725	-0.072016	0.010997
N260	N	0.519059	0.261317	0.344330
N261	N	0.852392	0.594650	0.677663
H262	H	0.159609	-0.072036	0.064693
H263	H	0.492942	0.261297	0.398026
H264	H	0.826276	0.594631	0.731360
