data_functionalizedCrystal
_audit_creation_method	'MofGen! by Chris Wilmer'
_symmetry_space_group_name_H-M	'P1'
_symmetry_Int_Tables_number	1
_symmetry_cell_setting	triclinic
loop_
_symmetry_equiv_pos_as_xyz
  x,y,z
_cell_length_a	14.519709
_cell_length_b	14.519731
_cell_length_c	9.730223
_cell_angle_alpha	89.994614
_cell_angle_beta	90.002325
_cell_angle_gamma	83.684499
loop_
_atom_site_label
_atom_site_type_symbol
_atom_site_fract_x
_atom_site_fract_y
_atom_site_fract_z
O1	O	1.223875	0.120890	-0.114114
O2	O	1.473875	0.370890	0.135886
O3	O	1.723875	0.620890	0.385886
O4	O	1.973875	0.870890	0.635886
O5	O	0.955399	0.135126	-0.114156
O6	O	1.205399	0.385126	0.135844
O7	O	1.455399	0.635126	0.385844
O8	O	1.705399	0.885126	0.635844
O9	O	1.096745	-0.006229	-0.114122
O10	O	1.346745	0.243771	0.135878
O11	O	1.596745	0.493771	0.385878
O12	O	1.846745	0.743771	0.635878
O13	O	1.082529	0.262245	-0.114149
O14	O	1.332529	0.512245	0.135851
O15	O	1.582529	0.762245	0.385851
O16	O	1.832529	1.012245	0.635851
O17	O	1.096736	-0.006233	0.114458
O18	O	1.346736	0.243767	0.364458
O19	O	1.596736	0.493767	0.614458
O20	O	1.846736	0.743767	0.864458
O21	O	0.955390	0.135122	0.114423
O22	O	1.205390	0.385122	0.364423
O23	O	1.455390	0.635122	0.614423
O24	O	1.705390	0.885122	0.864423
O25	O	1.223866	0.120886	0.114466
O26	O	1.473866	0.370886	0.364466
O27	O	1.723866	0.620886	0.614466
O28	O	1.973866	0.870886	0.864466
Zn29	Zn	1.089627	0.128003	0.150737
Zn30	Zn	1.339627	0.378003	0.400737
Zn31	Zn	1.589627	0.628003	0.650737
Zn32	Zn	1.839627	0.878003	0.900737
Zn33	Zn	1.089639	0.128009	-0.150427
Zn34	Zn	1.339639	0.378009	0.099573
Zn35	Zn	1.589639	0.628009	0.349573
Zn36	Zn	1.839639	0.878009	0.599573
O37	O	1.082520	0.262241	0.114431
O38	O	1.332520	0.512241	0.364431
O39	O	1.582520	0.762241	0.614431
O40	O	1.832520	1.012241	0.864431
C41	C	0.921035	0.134461	0.000128
C42	C	1.171035	0.384461	0.250128
C43	C	1.421035	0.634461	0.500128
C44	C	1.671035	0.884461	0.750128
C45	C	0.818654	0.132473	0.000112
C46	C	1.068654	0.382473	0.250112
C47	C	1.318654	0.632473	0.500112
C48	C	1.568654	0.882473	0.750112
C49	C	0.443757	0.125153	0.000176
C50	C	0.693757	0.375153	0.250176
C51	C	0.943757	0.625153	0.500176
C52	C	1.193757	0.875153	0.750176
C53	C	0.548065	0.127186	0.000158
C54	C	0.798065	0.377186	0.250158
C55	C	1.048065	0.627186	0.500158
C56	C	1.298065	0.877186	0.750158
C57	C	0.631202	0.128813	0.000143
C58	C	0.881202	0.378813	0.250143
C59	C	1.131202	0.628813	0.500143
C60	C	1.381202	0.878813	0.750143
C61	C	0.735517	0.130846	0.000127
C62	C	0.985517	0.380846	0.250127
C63	C	1.235517	0.630846	0.500127
C64	C	1.485517	0.880846	0.750127
C65	C	1.096075	-0.040591	0.000169
C66	C	1.346075	0.209409	0.250169
C67	C	1.596075	0.459409	0.500169
C68	C	1.846075	0.709409	0.750169
C69	C	1.094079	-0.142971	0.000169
C70	C	1.344079	0.107029	0.250169
C71	C	1.594079	0.357029	0.500169
C72	C	1.844079	0.607029	0.750169
C73	C	1.092457	-0.226115	0.000166
C74	C	1.342457	0.023885	0.250166
C75	C	1.592457	0.273885	0.500166
C76	C	1.842457	0.523885	0.750166
C77	C	1.090430	-0.330424	0.000155
C78	C	1.340430	-0.080424	0.250155
C79	C	1.590430	0.169576	0.500155
C80	C	1.840430	0.419576	0.750155
C81	C	1.088822	-0.413563	0.000146
C82	C	1.338822	-0.163563	0.250146
C83	C	1.588822	0.086437	0.500146
C84	C	1.838822	0.336437	0.750146
C85	C	1.086795	-0.517878	0.000137
C86	C	1.336795	-0.267878	0.250137
C87	C	1.586795	-0.017878	0.500137
C88	C	1.836795	0.232122	0.750137
C89	C	1.258230	0.121551	0.000178
C90	C	1.508230	0.371551	0.250178
C91	C	1.758230	0.621551	0.500178
C92	C	2.008230	0.871551	0.750178
C93	C	1.360612	0.123539	0.000185
C94	C	1.610612	0.373539	0.250185
C95	C	1.860612	0.623539	0.500185
C96	C	2.110612	0.873539	0.750185
C97	C	1.083191	0.296603	0.000138
C98	C	1.333191	0.546603	0.250138
C99	C	1.583191	0.796603	0.500138
C100	C	1.833191	1.046603	0.750138
C101	C	1.085187	0.398983	0.000128
C102	C	1.335187	0.648983	0.250128
C103	C	1.585187	0.898983	0.500128
C104	C	1.835187	1.148983	0.750128
N105	N	1.089625	0.128000	0.356273
N106	N	1.339625	0.378000	0.606273
N107	N	1.589625	0.628000	0.856273
N108	N	1.839625	0.878000	1.106273
N109	N	1.089647	0.128005	-0.355964
N110	N	1.339647	0.378005	-0.105964
N111	N	1.589647	0.628005	0.144036
N112	N	1.839647	0.878005	0.394036
C113	C	1.152234	0.065434	0.428214
C114	C	1.402234	0.315434	0.678214
C115	C	1.652234	0.565434	0.928214
C116	C	1.902234	0.815434	1.178214
C117	C	1.152244	0.065434	0.572097
C118	C	1.402244	0.315434	0.822097
C119	C	1.652244	0.565434	1.072097
C120	C	1.902244	0.815434	1.322097
C121	C	1.027032	0.190574	0.572085
C122	C	1.277032	0.440574	0.822085
C123	C	1.527032	0.690574	1.072085
C124	C	1.777032	0.940574	1.322085
C125	C	1.027019	0.190569	0.428205
C126	C	1.277019	0.440569	0.678205
C127	C	1.527019	0.690569	0.928205
C128	C	1.777019	0.940569	1.178205
H129	H	1.203225	0.014486	0.630668
H130	H	1.453225	0.264486	0.880668
H131	H	1.703225	0.514486	1.130668
H132	H	1.953225	0.764486	1.380668
O133	O	0.966235	0.251264	0.358099
O134	O	1.216235	0.501264	0.608099
O135	O	1.466235	0.751264	0.858099
O136	O	1.716235	1.001264	1.108099
C137	C	0.979665	0.237855	0.215683
C138	C	1.229665	0.487855	0.465683
C139	C	1.479665	0.737855	0.715683
C140	C	1.729665	0.987855	0.965683
H141	H	1.014007	0.164609	0.196051
H142	H	1.264007	0.414609	0.446051
H143	H	1.514007	0.664609	0.696051
H144	H	1.764007	0.914609	0.946051
H145	H	0.909843	0.247958	0.161002
H146	H	1.159843	0.497958	0.411002
H147	H	1.409843	0.747958	0.661002
H148	H	1.659843	0.997958	0.911002
H149	H	1.026004	0.290155	0.174835
H150	H	1.276004	0.540155	0.424835
H151	H	1.526004	0.790155	0.674835
H152	H	1.776004	1.040155	0.924835
H153	H	0.976060	0.241518	0.630666
H154	H	1.226060	0.491518	0.880666
H155	H	1.476060	0.741518	1.130666
H156	H	1.726060	0.991518	1.380666
H157	H	1.203211	0.014485	0.369651
H158	H	1.453211	0.264485	0.619651
H159	H	1.703211	0.514485	0.869651
H160	H	1.953211	0.764485	1.119651
