data_functionalizedCrystal
_audit_creation_method	'MofGen! by Chris Wilmer'
_symmetry_space_group_name_H-M	'P1'
_symmetry_Int_Tables_number	1
_symmetry_cell_setting	triclinic
loop_
_symmetry_equiv_pos_as_xyz
  x,y,z
_cell_length_a	19.077105
_cell_length_b	21.295417
_cell_length_c	19.076919
_cell_angle_alpha	92.266620
_cell_angle_beta	90.076224
_cell_angle_gamma	87.726672
loop_
_atom_site_label
_atom_site_type_symbol
_atom_site_fract_x
_atom_site_fract_y
_atom_site_fract_z
Zn1	Zn	1.058236	-0.304534	-0.440387
Zn2	Zn	1.062864	-0.405747	-0.322870
Zn3	Zn	0.945454	-0.296102	-0.318181
Zn4	Zn	0.940686	-0.405368	-0.435623
O5	O	1.001810	-0.352938	-0.379265
O6	O	1.157181	-0.321649	-0.428754
O7	O	1.051222	-0.387832	-0.223917
O8	O	0.960474	-0.209134	-0.334424
O9	O	1.160581	-0.396009	-0.342415
O10	O	1.043334	-0.215330	-0.424208
O11	O	0.964962	-0.307276	-0.220472
O12	O	0.846490	-0.306908	-0.329804
O13	O	0.952346	-0.395362	-0.534586
O14	O	0.842987	-0.387185	-0.416088
O15	O	1.038710	-0.321280	-0.538086
O16	O	1.046598	-0.493783	-0.337795
O17	O	0.956834	-0.493504	-0.420634
C18	C	0.819242	-0.346091	-0.371921
C19	C	0.741139	-0.343178	-0.368795
C20	C	0.702642	-0.383663	-0.412179
C21	C	0.629255	-0.380918	-0.409246
C22	C	0.594366	-0.337689	-0.362924
C23	C	0.632868	-0.297199	-0.319538
C24	C	0.706253	-0.299942	-0.322476
C25	C	0.375080	-0.324994	-0.349333
C26	C	0.301690	-0.322256	-0.346397
C27	C	0.298082	-0.405974	-0.436106
C28	C	0.371470	-0.408715	-0.439037
C29	C	0.409965	-0.368223	-0.395653
N30	N	0.519353	-0.334883	-0.359923
N31	N	0.484976	-0.371027	-0.398658
C32	C	1.001719	-0.516485	-0.379223
C33	C	1.001744	-0.586454	-0.379231
C34	C	1.048522	-0.619448	-0.336144
C35	C	1.048554	-0.685192	-0.336161
C36	C	1.001796	-0.717939	-0.379257
C37	C	0.955015	-0.684937	-0.422352
C38	C	0.954989	-0.619195	-0.422339
N39	N	0.940111	-0.819089	-0.382141
N40	N	0.940138	-0.881541	-0.382149
C41	C	1.001873	-0.916018	-0.379300
N42	N	1.063583	-0.885683	-0.376429
N43	N	1.063555	-0.823224	-0.376417
C44	C	1.001820	-0.789226	-0.379276
C45	C	1.048690	-1.020300	-0.336230
C46	C	1.048724	-1.086046	-0.336252
C47	C	0.955178	-1.085789	-0.422439
C48	C	0.955151	-1.020045	-0.422421
C49	C	1.001906	-0.987304	-0.379313
C50	C	1.185090	-0.359812	-0.386639
C51	C	1.263193	-0.362741	-0.389782
C52	C	0.994480	-0.359220	-0.562545
C53	C	0.991356	-0.361897	-0.640648
C54	C	1.001919	-0.188754	-0.379324
C55	C	1.001966	-0.118788	-0.379349
C56	C	1.034851	-0.324586	-0.679164
C57	C	1.031907	-0.327098	-0.752550
C58	C	0.985472	-0.366925	-0.787418
C59	C	0.941972	-0.404238	-0.748896
C60	C	0.944913	-0.401722	-0.675512
C61	C	0.971853	-0.378584	-1.006698
C62	C	0.968917	-0.381099	-1.080087
C63	C	1.058852	-0.303958	-1.083736
C64	C	1.061791	-0.301448	-1.010350
C65	C	1.018289	-0.338758	-0.971835
N66	N	0.982464	-0.369496	-0.862429
N67	N	1.021294	-0.336183	-0.896824
C68	C	1.009152	-0.346637	-0.196700
C69	C	1.012412	-0.343787	-0.118604
H70	H	0.597915	-0.413886	-0.444573
H71	H	0.909487	-0.432098	-0.644152
H72	H	0.399871	-0.443918	-0.476755
C73	C	0.890895	-0.448048	-0.787249
H74	H	0.895378	-0.444208	-0.836471
H75	H	0.844170	-0.436654	-0.773324
H76	H	0.901638	-0.490316	-0.775619
C77	C	1.100182	-1.122339	-0.288854
H78	H	1.128017	-1.093421	-0.263176
H79	H	1.129715	-1.150016	-0.316991
H80	H	1.074555	-1.145964	-0.257141
H81	H	0.266732	-0.438939	-0.471428
C82	C	0.263309	-0.274708	-0.295437
H83	H	0.214091	-0.278883	-0.299894
H84	H	0.274937	-0.233230	-0.306284
H85	H	0.277215	-0.282693	-0.248685
C86	C	0.741014	-0.431214	-0.463135
H87	H	0.707574	-0.454928	-0.488557
H88	H	0.770700	-0.458752	-0.437347
H89	H	0.768432	-0.409294	-0.494950
C90	C	1.085930	-0.280777	-0.640812
H91	H	1.081458	-0.284625	-0.591591
H92	H	1.075193	-0.238510	-0.652441
H93	H	1.132657	-0.292177	-0.654740
C94	C	0.417416	-0.280465	-0.301601
H95	H	0.386125	-0.254335	-0.273586
H96	H	0.444990	-0.255064	-0.329674
H97	H	0.447247	-0.304530	-0.272079
H98	H	1.086649	-0.712061	-0.301075
H99	H	0.604455	-0.261999	-0.281825
H100	H	1.067327	-0.296717	-0.783907
H101	H	0.737596	-0.266971	-0.287151
C102	C	1.099958	-0.583437	-0.288735
H103	H	1.127827	-0.612507	-0.263081
H104	H	1.074323	-0.555767	-0.257011
H105	H	1.129471	-0.559827	-0.316872
H106	H	0.931101	-0.413532	-1.108474
H107	H	0.916945	-0.711604	-0.457442
C108	C	0.903530	-0.582897	-0.469733
H109	H	0.910213	-0.539054	-0.463554
H110	H	0.856742	-0.591593	-0.457517
H111	H	0.911898	-0.595643	-0.517371
C112	C	1.100125	-0.984283	-0.288822
H113	H	1.127998	-1.013352	-0.263171
H114	H	1.074487	-0.956616	-0.257096
H115	H	1.129634	-0.960668	-0.316958
C116	C	0.903748	-1.121803	-0.469847
H117	H	0.910461	-1.165683	-0.463683
H118	H	0.912102	-1.113001	-0.517477
H119	H	0.856949	-1.108952	-0.457621
C120	C	0.903686	-0.983749	-0.469808
H121	H	0.875838	-1.012666	-0.495473
H122	H	0.929301	-0.960122	-0.501522
H123	H	0.874155	-0.956074	-0.441659
H124	H	1.099606	-0.269018	-0.981966
C125	C	1.106694	-0.262916	-1.126104
H126	H	1.098290	-0.270113	-1.174802
H127	H	1.154383	-0.273484	-1.115976
H128	H	1.096913	-0.219822	-1.113677
C129	C	0.923988	-0.419610	-0.964339
H130	H	0.895913	-0.443688	-0.995618
H131	H	0.894538	-0.393387	-0.934498
H132	H	0.951981	-0.447071	-0.936775
