data_functionalizedCrystal
_audit_creation_method	'MofGen! by Chris Wilmer'
_symmetry_space_group_name_H-M	'P1'
_symmetry_Int_Tables_number	1
_symmetry_cell_setting	triclinic
loop_
_symmetry_equiv_pos_as_xyz
  x,y,z
_cell_length_a	23.532407
_cell_length_b	9.065218
_cell_length_c	7.540329
_cell_angle_alpha	90.003038
_cell_angle_beta	89.991770
_cell_angle_gamma	96.067719
loop_
_atom_site_label
_atom_site_type_symbol
_atom_site_fract_x
_atom_site_fract_y
_atom_site_fract_z
O1	O	0.083497	-1.956284	-0.147508
O2	O	0.090346	-1.526662	-0.147513
O3	O	0.004085	-1.754428	-0.147478
O4	O	0.169758	-1.728517	-0.147543
O5	O	0.004084	-1.754415	0.147487
O6	O	0.090345	-1.526648	0.147453
O7	O	0.083496	-1.956270	0.147457
Cu8	Cu	0.086921	-1.741458	0.174387
Cu9	Cu	0.086922	-1.741474	-0.174443
O10	O	0.169757	-1.728504	0.147422
C11	C	0.089687	-1.471701	-0.000030
C12	C	0.087719	-1.307955	-0.000030
C13	C	-0.017136	-1.753761	0.000009
C14	C	-0.080368	-1.751778	0.000023
C15	C	0.084155	-2.011231	-0.000030
C16	C	0.086123	-2.174977	-0.000041
C17	C	-0.478573	-1.874123	-0.000073
C18	C	-0.537986	-1.872280	-0.000087
O19	O	-0.573898	-1.985695	-0.000151
N20	N	-0.561607	-1.736873	-0.000087
C21	C	-0.525810	-1.603300	-0.000091
O22	O	-0.551356	-1.487956	-0.000094
C23	C	-0.466397	-1.605144	-0.000090
C24	C	-0.442780	-1.740560	-0.000072
C25	C	-0.454955	-2.009527	-0.000057
C26	C	-0.395546	-2.011370	-0.000040
C27	C	-0.359753	-1.877807	-0.000040
C28	C	-0.383371	-1.742402	-0.000056
C29	C	-0.430601	-1.471573	-0.000108
C30	C	-0.371185	-1.473429	-0.000108
C31	C	-0.347568	-1.608845	-0.000090
C32	C	-0.288169	-1.610682	-0.000038
N33	N	-0.264548	-1.746089	-0.000038
C34	C	-0.300341	-1.879651	-0.000039
C35	C	-0.650581	-1.599437	-0.000096
C36	C	-0.709992	-1.597591	-0.000084
C37	C	-0.722165	-1.866571	-0.000083
C38	C	-0.662752	-1.868416	-0.000082
C39	C	-0.626960	-1.734844	-0.000096
C40	C	-0.175576	-1.883510	-0.000002
C41	C	-0.116160	-1.885340	0.000022
C42	C	-0.103993	-1.616360	0.000011
C43	C	-0.163403	-1.614529	-0.000003
C44	C	-0.199194	-1.748116	-0.000016
O45	O	-0.252222	-1.497326	0.000019
O46	O	-0.274786	-1.994976	-0.000059
C47	C	0.190979	-1.729170	-0.000069
C48	C	0.254210	-1.731154	-0.000094
N49	N	0.086919	-1.741458	0.419736
N50	N	0.086919	-1.741486	-0.419792
H51	H	-0.096935	-1.995617	0.000041
F52	F	-0.188539	-1.470406	0.000009
F53	F	-0.760268	-2.008722	-0.000093
H54	H	-0.204710	-1.992289	-0.000019
F55	F	-0.065890	-1.474221	0.000013
F56	F	-0.493040	-2.151696	-0.000059
F57	F	-0.370418	-2.155499	-0.000059
F58	F	-0.612493	-1.457261	-0.000095
H59	H	-0.729215	-1.487322	-0.000068
F60	F	-0.455723	-1.327442	-0.000134
H61	H	-0.342046	-1.364656	-0.000122
F62	F	-0.637623	-2.012542	-0.000063
