data_functionalizedCrystal
_audit_creation_method	'MofGen! by Chris Wilmer'
_symmetry_space_group_name_H-M	'P1'
_symmetry_Int_Tables_number	1
_symmetry_cell_setting	triclinic
loop_
_symmetry_equiv_pos_as_xyz
  x,y,z
_cell_length_a	19.288864
_cell_length_b	14.472311
_cell_length_c	19.288857
_cell_angle_alpha	90.011806
_cell_angle_beta	83.134677
_cell_angle_gamma	90.017990
loop_
_atom_site_label
_atom_site_type_symbol
_atom_site_fract_x
_atom_site_fract_y
_atom_site_fract_z
O1	O	0.921345	0.077142	0.086653
O2	O	1.421345	0.577142	0.586653
O3	O	0.719084	0.077079	0.098342
O4	O	1.219084	0.577079	0.598342
O5	O	0.826062	0.077101	-0.008633
O6	O	1.326062	0.577101	0.491367
O7	O	0.814367	0.077120	0.193628
O8	O	1.314367	0.577120	0.693628
O9	O	0.826054	-0.076581	-0.008647
O10	O	1.326054	0.423419	0.491353
O11	O	0.719077	-0.076603	0.098328
O12	O	1.219077	0.423397	0.598328
O13	O	0.921338	-0.076540	0.086640
O14	O	1.421338	0.423460	0.586640
Cu15	Cu	0.820207	-0.090604	0.092483
Cu16	Cu	1.320207	0.409396	0.592483
Cu17	Cu	0.820215	0.091143	0.092499
Cu18	Cu	1.320215	0.591143	0.592499
O19	O	0.814360	-0.076562	0.193615
O20	O	1.314360	0.423438	0.693615
C21	C	0.693204	0.000230	0.097959
C22	C	1.193204	0.500230	0.597959
C23	C	0.616100	0.000206	0.096830
C24	C	1.116100	0.500206	0.596830
N25	N	0.820206	-0.218435	0.092471
N26	N	1.320206	0.281565	0.592471
C27	C	0.571402	0.000226	0.159598
C28	C	1.071402	0.500226	0.659598
C29	C	0.498955	0.000236	0.158537
C30	C	0.998955	0.500236	0.658537
C31	C	0.471209	0.000244	0.094705
C32	C	0.971209	0.500244	0.594705
C33	C	0.515917	0.000219	0.031929
C34	C	1.015917	0.500219	0.531929
C35	C	0.588363	0.000199	0.032991
C36	C	1.088363	0.500199	0.532991
C37	C	0.362951	0.054112	0.044530
C38	C	0.862951	0.554112	0.544530
C39	C	0.290507	0.054137	0.043471
C40	C	0.790507	0.554137	0.543471
C41	C	0.247764	0.000300	0.091425
C42	C	0.747764	0.500300	0.591425
C43	C	0.277473	-0.053551	0.140452
C44	C	0.777473	0.446449	0.640452
C45	C	0.349918	-0.053570	0.141514
C46	C	0.849918	0.446430	0.641514
C47	C	0.392656	0.000265	0.093546
C48	C	0.892656	0.500265	0.593546
C49	C	0.124510	0.000330	0.153048
C50	C	0.624510	0.500330	0.653048
C51	C	0.052062	0.000334	0.151984
C52	C	0.552062	0.500334	0.651984
C53	C	0.069026	0.000326	0.025374
C54	C	0.569026	0.500326	0.525374
C55	C	0.141472	0.000313	0.026439
C56	C	0.641472	0.500313	0.526439
C57	C	0.169210	0.000319	0.090278
C58	C	0.669210	0.500319	0.590278
C59	C	0.820216	-0.592526	0.092494
C60	C	1.320216	-0.092526	0.592494
C61	C	0.877642	-0.553320	0.035443
C62	C	1.377642	-0.053320	0.535443
C63	C	0.877493	-0.446232	0.035234
C64	C	1.377493	0.053768	0.535234
C65	C	0.820211	-0.406935	0.092482
C66	C	1.320211	0.093065	0.592482
C67	C	0.747793	-0.445851	0.076880
C68	C	1.247793	0.054149	0.576880
C69	C	0.748133	-0.552972	0.076477
C70	C	1.248133	-0.052972	0.576477
C71	C	0.834554	-0.553019	0.165316
C72	C	1.334554	-0.053019	0.665316
C73	C	0.836201	-0.445890	0.164822
C74	C	1.336201	0.054110	0.664822
C75	C	0.820204	-0.302047	0.092478
C76	C	1.320204	0.197953	0.592478
C77	C	0.820218	-0.697414	0.092497
C78	C	1.320218	-0.197414	0.592497
C79	C	0.947218	0.000311	0.087022
C80	C	1.447218	0.500311	0.587022
C81	C	1.024321	0.000341	0.088151
C82	C	1.524321	0.500341	0.588151
C83	C	0.825683	0.000259	-0.034516
C84	C	1.325683	0.500259	0.465484
C85	C	0.824556	0.000256	-0.111620
C86	C	1.324556	0.500256	0.388380
N87	N	0.820222	0.218974	0.092505
N88	N	1.320222	0.718974	0.592505
C89	C	0.824034	0.084028	-0.147824
C90	C	1.324034	0.584028	0.352176
C91	C	0.822965	0.084035	-0.220270
C92	C	1.322965	0.584035	0.279730
C93	C	0.822432	0.000264	-0.256511
C94	C	1.322432	0.500264	0.243489
C95	C	0.822950	-0.083519	-0.220299
C96	C	1.322950	0.416481	0.279701
C97	C	0.824012	-0.083523	-0.147853
C98	C	1.324012	0.416477	0.352147
C99	C	0.861431	-0.063897	-0.376748
C100	C	1.361431	0.436103	0.123252
C101	C	0.860374	-0.063889	-0.449193
C102	C	1.360374	0.436111	0.050807
C103	C	0.819155	0.000274	-0.479957
C104	C	1.319155	0.500274	0.020043
C105	C	0.779002	0.064444	-0.438269
C106	C	1.279002	0.564444	0.061731
C107	C	0.780064	0.064440	-0.365823
C108	C	1.280064	0.564440	0.134177
C109	C	0.821281	0.000260	-0.335066
C110	C	1.321281	0.500260	0.164934
C111	C	0.817473	0.084059	-0.594715
C112	C	1.317473	0.584059	-0.094715
C113	C	0.816400	0.084062	-0.667161
C114	C	1.316400	0.584062	-0.167161
C115	C	0.816392	-0.083494	-0.667190
C116	C	1.316392	0.416506	-0.167190
C117	C	0.817458	-0.083495	-0.594744
C118	C	1.317458	0.416505	-0.094744
C119	C	0.818002	0.000284	-0.558511
C120	C	1.318002	0.500284	-0.058511
C121	C	0.814739	0.000282	0.219498
C122	C	1.314739	0.500282	0.719498
C123	C	0.815866	0.000291	0.296602
C124	C	1.315866	0.500291	0.796602
H125	H	0.593981	0.000233	0.211581
H126	H	1.093981	0.500233	0.711581
H127	H	0.397748	0.097959	0.005478
H128	H	0.897748	0.597959	0.505478
N129	N	0.948809	-0.411371	0.047489
N130	N	1.448809	0.088629	0.547489
H131	H	0.948849	-0.341583	0.047373
H132	H	1.448849	0.158417	0.547373
H133	H	0.960484	-0.434517	0.094105
H134	H	1.460484	0.065483	0.594105
H135	H	0.735461	-0.577977	0.023376
H136	H	1.235461	-0.077977	0.523376
N137	N	0.815810	-0.173849	-0.706268
N138	N	1.315810	0.326151	-0.206268
H139	H	0.815056	-0.161136	-0.757656
H140	H	1.315056	0.338864	-0.257656
H141	H	0.859043	-0.210422	-0.699380
H142	H	1.359043	0.289578	-0.199380
H143	H	0.817889	-0.151711	-0.565268
H144	H	1.317889	0.348289	-0.065268
H145	H	0.797067	-0.419137	0.209247
H146	H	1.297067	0.080863	0.709247
H147	H	0.374104	-0.097420	0.181431
H148	H	0.874104	0.402580	0.681431
N149	N	0.824586	-0.173879	-0.108800
N150	N	1.324586	0.326121	0.391200
H151	H	0.781981	-0.177629	-0.072973
H152	H	1.281981	0.322371	0.427027
H153	H	0.824112	-0.226897	-0.142794
H154	H	1.324112	0.273103	0.357206
H155	H	0.462555	0.000250	0.209652
H156	H	0.962555	0.500250	0.709652
N157	N	0.779082	-0.586600	0.221552
N158	N	1.279082	-0.086600	0.721552
H159	H	0.744824	-0.627206	0.200003
H160	H	1.244824	-0.127206	0.700003
H161	H	0.801711	-0.623194	0.257346
H162	H	1.301711	-0.123194	0.757346
H163	H	0.493322	0.000238	-0.020044
H164	H	0.993322	0.500238	0.479956
H165	H	0.822536	0.152254	-0.249752
H166	H	1.322536	0.652254	0.250248
H167	H	0.242673	-0.097391	0.179501
H168	H	0.742673	0.402609	0.679501
H169	H	0.147095	0.000321	0.205029
H170	H	0.647095	0.500321	0.705029
N171	N	0.815854	0.174407	-0.706233
N172	N	1.315854	0.674407	-0.206233
H173	H	0.858466	0.178113	-0.742055
H174	H	1.358466	0.678113	-0.242055
H175	H	0.772341	0.178078	-0.730486
H176	H	1.272341	0.678078	-0.230486
N177	N	0.949202	-0.587403	0.047497
N178	N	1.449202	-0.087403	0.547497
H179	H	0.945093	-0.628593	0.090054
H180	H	1.445093	-0.128593	0.590054
H181	H	0.970285	-0.623504	0.005355
H182	H	1.470285	-0.123504	0.505355
H183	H	0.893071	-0.116137	-0.483131
H184	H	1.393071	0.383863	0.016869
H185	H	0.624757	0.000183	-0.018124
H186	H	1.124757	0.500183	0.481876
H187	H	0.894996	-0.116153	-0.351707
H188	H	1.394996	0.383847	0.148293
H189	H	0.015669	0.000345	0.203100
H190	H	0.515669	0.500345	0.703100
N191	N	0.906761	-0.412181	0.180514
N192	N	1.406761	0.087819	0.680514
H193	H	0.901082	-0.375229	0.225258
H194	H	1.401082	0.124771	0.725258
H195	H	0.938158	-0.466920	0.185827
H196	H	1.438158	0.033080	0.685827
H197	H	0.745438	0.116692	-0.463315
H198	H	1.245438	0.616692	0.036685
N199	N	0.039111	0.000325	-0.043476
N200	N	0.539111	0.500325	0.456524
H201	H	-0.013566	0.000337	-0.034626
H202	H	0.486434	0.500337	0.465374
H203	H	0.055497	0.057291	-0.070930
H204	H	0.555497	0.557291	0.429070
N205	N	0.865725	-0.588999	-0.035745
N206	N	1.365725	-0.088999	0.464255
H207	H	0.823289	-0.630448	-0.031200
H208	H	1.323289	-0.130448	0.468800
H209	H	0.857988	-0.535174	-0.067238
H210	H	1.357988	-0.035174	0.432762
H211	H	0.868356	-0.420624	-0.018812
H212	H	1.368356	0.079376	0.481188
H213	H	0.747369	0.116688	-0.331883
H214	H	1.247369	0.616688	0.168117
N215	N	0.189682	0.000294	-0.041265
N216	N	0.689682	0.500294	0.458735
H217	H	0.180803	0.057265	-0.069121
H218	H	0.680803	0.557265	0.430879
H219	H	0.239766	0.000244	-0.030853
H220	H	0.739766	0.500244	0.469147
N221	N	0.258466	0.112218	-0.009403
N222	N	0.758466	0.612218	0.490597
H223	H	0.296535	0.146311	-0.039627
H224	H	0.796535	0.646311	0.460373
H225	H	0.232381	0.070920	-0.039626
H226	H	0.732381	0.570920	0.460374
H227	H	0.704129	-0.578910	0.116462
H228	H	1.204129	-0.078910	0.616462
H229	H	0.704040	-0.420399	0.117336
H230	H	1.204040	0.079601	0.617336
H231	H	0.734804	-0.419041	0.024385
H232	H	1.234804	0.080959	0.524385
N233	N	0.902990	-0.588768	0.185256
N234	N	1.402990	-0.088768	0.685256
H235	H	0.942305	-0.569261	0.148869
H236	H	1.442305	-0.069261	0.648869
H237	H	0.911092	-0.562550	0.232146
H238	H	1.411092	-0.062550	0.732146
N239	N	0.824617	0.174385	-0.108744
N240	N	1.324617	0.674385	0.391256
H241	H	0.824124	0.227456	-0.142676
H242	H	1.324124	0.727456	0.357324
H243	H	0.782008	0.178023	-0.072919
H244	H	1.282008	0.678023	0.427081
H245	H	0.817911	0.152276	-0.565212
H246	H	1.317911	0.652276	-0.065212
H247	H	0.822515	-0.151725	-0.249811
H248	H	1.322515	0.348275	0.250189
