data_functionalizedCrystal
_audit_creation_method	'MofGen! by Chris Wilmer'
_symmetry_space_group_name_H-M	'P1'
_symmetry_Int_Tables_number	1
_symmetry_cell_setting	triclinic
loop_
_symmetry_equiv_pos_as_xyz
  x,y,z
_cell_length_a	15.297475
_cell_length_b	25.639240
_cell_length_c	15.296720
_cell_angle_alpha	80.367210
_cell_angle_beta	88.382886
_cell_angle_gamma	80.333474
loop_
_atom_site_label
_atom_site_type_symbol
_atom_site_fract_x
_atom_site_fract_y
_atom_site_fract_z
Zn1	Zn	1.253298	-0.406890	0.726448
Zn2	Zn	1.278542	-0.482171	0.579936
Zn3	Zn	1.132184	-0.377519	0.554699
Zn4	Zn	1.106770	-0.477032	0.701066
O5	O	1.192698	-0.435903	0.640537
O6	O	1.379221	-0.431318	0.728196
O7	O	1.280328	-0.458148	0.454017
O8	O	1.148321	-0.308263	0.577543
O9	O	1.397768	-0.486627	0.620555
O10	O	1.237304	-0.329842	0.703726
O11	O	1.172799	-0.381261	0.435476
O12	O	1.006238	-0.376278	0.552931
O13	O	1.105007	-0.477868	0.827004
O14	O	0.987566	-0.449389	0.660466
O15	O	1.212661	-0.426335	0.845652
O16	O	1.255685	-0.554641	0.595943
O17	O	1.129484	-0.550866	0.684937
C18	C	0.965120	-0.409089	0.601207
C19	C	0.867757	-0.397632	0.584402
C20	C	0.554581	-0.517791	0.760647
C21	C	0.646058	-0.528559	0.776434
C22	C	0.701487	-0.495828	0.728428
C23	C	0.665430	-0.452327	0.664631
C24	C	0.573945	-0.441561	0.648838
C25	C	0.720851	-0.419598	0.616618
C26	C	0.684794	-0.376098	0.552822
C27	C	0.593317	-0.365333	0.537032
C28	C	0.537888	-0.398064	0.585039
C29	C	0.812337	-0.430365	0.632411
C30	C	0.831701	-0.354135	0.520602
C31	C	0.740223	-0.343367	0.504816
C32	C	1.192586	-0.571725	0.640447
C33	C	1.192614	-0.629843	0.640452
C34	C	1.239042	-1.001432	0.706346
C35	C	1.239065	-1.056040	0.706369
O36	O	1.278405	-1.093799	0.762299
N37	N	1.192805	-1.072163	0.640643
C38	C	1.146513	-1.033674	0.574896
O39	O	1.107167	-1.052402	0.518993
C40	C	1.146485	-0.979066	0.574878
C41	C	1.192755	-0.962947	0.640603
C42	C	1.285307	-0.985312	0.772067
C43	C	1.285286	-0.930706	0.772043
C44	C	1.238999	-0.892222	0.706299
C45	C	1.192734	-0.908342	0.640579
C46	C	1.100188	-0.940577	0.509135
C47	C	1.100164	-0.885967	0.509123
C48	C	1.146434	-0.869847	0.574848
C49	C	1.146425	-0.815252	0.574812
N50	N	1.192685	-0.799129	0.640538
C51	C	1.238971	-0.837614	0.706282
C52	C	1.146573	-1.148355	0.574939
C53	C	1.146605	-1.202962	0.574952
C54	C	1.239155	-1.225325	0.706427
C55	C	1.239128	-1.170717	0.706409
C56	C	1.192832	-1.132232	0.640665
C57	C	1.238923	-0.722938	0.706227
C58	C	1.238900	-0.668328	0.706196
C59	C	1.146346	-0.645969	0.574724
C60	C	1.146372	-0.700575	0.574753
C61	C	1.192663	-0.739059	0.640512
O62	O	1.107102	-0.777463	0.518913
O63	O	1.278301	-0.818877	0.762181
C64	C	1.421165	-0.462822	0.680022
C65	C	1.518524	-0.474293	0.696848
C66	C	1.153183	-0.454805	0.868998
C67	C	1.136344	-0.462859	0.966354
C68	C	1.192831	-0.299555	0.640651
C69	C	1.192888	-0.241451	0.640699
C70	C	1.232111	-0.417043	0.412974
C71	C	1.249119	-0.408861	0.315648
C72	C	1.313083	-0.378247	1.279622
C73	C	1.328910	-0.370680	1.188152
C74	C	1.280770	-0.393724	1.132698
C75	C	1.216800	-0.424336	1.168723
C76	C	1.200977	-0.431907	1.260203
C77	C	1.168663	-0.447384	1.113279
C78	C	1.104694	-0.477996	1.149304
C79	C	1.088873	-0.485565	1.240775
C80	C	1.137013	-0.462521	1.296229
C81	C	1.184486	-0.439814	1.021799
C82	C	1.072380	-0.493474	1.002380
C83	C	1.056553	-0.501040	1.093850
H84	H	0.563964	-0.329917	0.485076
Cl85	Cl	1.343501	-1.033685	0.854730
Cl86	Cl	1.041960	-0.837588	0.426468
H87	H	0.775972	-0.504598	0.741285
H88	H	1.108704	-0.713700	0.521228
H89	H	1.293660	-0.387562	1.058220
Cl90	Cl	0.976139	-0.539523	1.139149
H91	H	0.675410	-0.563978	0.828375
Cl92	Cl	0.484900	-0.558942	0.820971
Cl93	Cl	1.088160	-0.597579	0.492080
Cl94	Cl	1.011862	-0.522449	0.932673
H95	H	0.841685	-0.465783	0.684356
Cl96	Cl	0.694883	-0.288683	0.424617
H97	H	1.236570	-0.414889	0.992477
H98	H	1.352277	-0.359491	1.324781
Cl99	Cl	0.422881	-0.384526	0.565200
H100	H	0.876832	-0.327484	0.481510
H101	H	1.276582	-0.655207	0.759717
Cl102	Cl	1.409325	-0.332199	1.142870
H103	H	1.276610	-0.754266	0.759779
Cl104	Cl	1.117124	-0.472035	1.411226
H105	H	1.036791	-0.510496	1.270104
Cl106	Cl	1.343448	-0.910451	0.854680
Cl107	Cl	1.297295	-1.150459	0.789039
H108	H	1.062511	-0.953691	0.455614
H109	H	1.276843	-1.256669	0.759960
H110	H	1.108877	-1.117021	0.521395
Cl111	Cl	1.088448	-1.223219	0.492313
