data_functionalizedCrystal
_audit_creation_method	'MofGen! by Chris Wilmer'
_symmetry_space_group_name_H-M	'P1'
_symmetry_Int_Tables_number	1
_symmetry_cell_setting	triclinic
loop_
_symmetry_equiv_pos_as_xyz
  x,y,z
_cell_length_a	19.288864
_cell_length_b	11.792241
_cell_length_c	18.366186
_cell_angle_alpha	89.993644
_cell_angle_beta	89.977106
_cell_angle_gamma	83.664831
loop_
_atom_site_label
_atom_site_type_symbol
_atom_site_fract_x
_atom_site_fract_y
_atom_site_fract_z
O1	O	0.922157	0.141582	-0.060784
O2	O	0.720005	0.160681	-0.060734
O3	O	0.825987	-0.014113	-0.060755
O4	O	0.816175	0.316377	-0.060763
O5	O	0.825968	-0.014122	0.060345
O6	O	0.719987	0.160673	0.060365
O7	O	0.922139	0.141574	0.060316
Zn8	Zn	0.821060	0.151122	0.079568
Zn9	Zn	0.821084	0.151133	-0.079986
O10	O	0.816157	0.316368	0.060337
C11	C	0.694116	0.160063	-0.000178
C12	C	0.617002	0.158218	-0.000159
C13	C	0.572888	0.260779	-0.000173
C14	C	0.500431	0.259046	-0.000181
C15	C	0.472091	0.154746	-0.000189
C16	C	0.516215	0.052171	-0.000171
C17	C	0.588670	0.053907	-0.000156
C18	C	0.363370	0.072757	-0.042638
C19	C	0.290915	0.071025	-0.042658
C20	C	0.248615	0.149387	-0.000233
C21	C	0.278777	0.229500	0.042202
C22	C	0.351232	0.231236	0.042217
C23	C	0.393526	0.152852	-0.000205
C24	C	0.125935	0.250076	-0.000255
C25	C	0.053477	0.248339	-0.000258
C26	C	0.069262	0.041460	-0.000256
C27	C	0.141718	0.043201	-0.000246
C28	C	0.170050	0.147512	-0.000248
C29	C	0.825361	-0.056399	-0.000205
C30	C	0.823517	-0.182385	-0.000206
C31	C	0.820125	-0.413045	-0.000217
C32	C	0.822009	-0.284689	-0.000211
C33	C	0.948028	0.142192	-0.000242
C34	C	1.025142	0.144037	-0.000266
C35	C	0.816783	0.358654	-0.000214
C36	C	0.818627	0.484640	-0.000219
N37	N	0.821049	0.151113	0.188459
N38	N	0.821101	0.151133	-0.188877
C39	C	0.867993	0.073752	0.226550
C40	C	0.867997	0.073747	0.302778
C41	C	0.821064	0.151123	0.340912
C42	C	0.774111	0.228490	0.302811
C43	C	0.774103	0.228485	0.226585
C44	C	0.812353	0.254534	0.461671
C45	C	0.812366	0.254540	0.537896
C46	C	0.821084	0.151137	0.576019
C47	C	0.829804	0.047723	0.537908
C48	C	0.829796	0.047719	0.461682
C49	C	0.821067	0.151136	0.423566
C50	C	0.868036	0.073764	0.696765
C51	C	0.868035	0.073757	0.772994
C52	C	0.774152	0.228510	0.773026
C53	C	0.774149	0.228507	0.696799
C54	C	0.821095	0.151135	0.658673
H55	H	0.493136	-0.032752	-0.000188
O56	O	0.600434	0.362081	-0.000310
C57	C	0.641916	0.369258	-0.063016
H58	H	0.624589	0.310016	-0.106845
H59	H	0.698944	0.342809	-0.048826
C60	C	0.654881	0.565613	-0.037645
C61	C	0.633596	0.492858	-0.091479
H62	H	0.649752	0.641856	-0.055201
H63	H	0.626936	0.560778	0.004603
H64	H	0.702403	0.543558	-0.025825
H65	H	0.586073	0.514905	-0.103291
H66	H	0.661533	0.497700	-0.133730
H67	H	0.046188	-0.043463	-0.000309
H68	H	0.836895	-0.036484	0.430655
O69	O	0.728452	0.303695	0.339738
C70	C	0.687026	0.371997	0.289768
H71	H	0.686064	0.325463	0.235436
H72	H	0.709888	0.456219	0.281639
C73	C	0.613373	0.452848	0.386286
C74	C	0.612186	0.395691	0.319557
H75	H	0.567209	0.467469	0.404662
H76	H	0.641284	0.406836	0.419953
H77	H	0.632428	0.523027	0.379503
H78	H	0.593140	0.325508	0.326342
H79	H	0.584270	0.441692	0.285892
H80	H	0.017560	0.331860	-0.000265
O81	O	0.184475	-0.056533	-0.000273
C82	C	0.143927	-0.148966	-0.000263
H83	H	0.089978	-0.119880	-0.023201
H84	H	0.138616	-0.180960	0.057833
C85	C	0.245949	-0.281733	-0.019575
C86	C	0.179689	-0.246011	-0.047753
H87	H	0.268010	-0.341598	-0.048866
H88	H	0.273268	-0.219461	-0.019578
H89	H	0.241514	-0.308387	0.028838
H90	H	0.184126	-0.219345	-0.096161
H91	H	0.152372	-0.308282	-0.047758
H92	H	0.266364	0.005797	-0.077214
H93	H	0.464507	0.342567	-0.000190
H94	H	0.906259	0.010760	0.665722
O95	O	0.631426	-0.045831	-0.000180
C96	C	0.590880	-0.138266	-0.000167
H97	H	0.536929	-0.109181	-0.023101
H98	H	0.585572	-0.170259	0.057930
C99	C	0.692902	-0.271029	-0.019484
C100	C	0.626641	-0.235309	-0.047658
H101	H	0.714962	-0.330893	-0.048776
H102	H	0.720220	-0.208756	-0.019490
H103	H	0.688470	-0.297683	0.028929
H104	H	0.631074	-0.208643	-0.096067
H105	H	0.599324	-0.297581	-0.047662
H106	H	0.375787	0.296463	0.076772
H107	H	0.805242	0.338743	0.430637
O108	O	0.728527	0.303775	0.659906
C109	C	0.687090	0.372051	0.709906
H110	H	0.715575	0.373217	0.764228
H111	H	0.635358	0.335413	0.718043
C112	C	0.638244	0.493113	0.613432
C113	C	0.673232	0.494554	0.680150
H114	H	0.629692	0.568678	0.595076
H115	H	0.666158	0.447113	0.579745
H116	H	0.595138	0.462577	0.620222
H117	H	0.716340	0.525076	0.673357
H118	H	0.645324	0.540563	0.713835
O119	O	0.803858	0.355091	0.574801
C120	C	0.796169	0.446356	0.524809
H121	H	0.776964	0.415039	0.470487
H122	H	0.848612	0.480682	0.516668
C123	C	0.766457	0.580451	0.621299
C124	C	0.742864	0.541988	0.554581
H125	H	0.733579	0.639444	0.639664
H126	H	0.771640	0.518965	0.654980
H127	H	0.810160	0.609047	0.614505
H128	H	0.699167	0.513379	0.561377
H129	H	0.737673	0.603472	0.520902
H130	H	0.397806	0.008943	-0.077190
O131	O	0.728599	0.303692	0.189500
C132	C	0.766055	0.373576	0.145400
H133	H	0.820233	0.328144	0.133958
H134	H	0.771089	0.457437	0.174769
C135	C	0.660442	0.453799	0.087062
C136	C	0.726982	0.397995	0.073004
H137	H	0.636339	0.468867	0.042406
H138	H	0.635206	0.406721	0.116775
H139	H	0.664646	0.523677	0.111538
H140	H	0.722777	0.328112	0.048537
H141	H	0.752217	0.445062	0.043285
O142	O	0.913615	-0.001522	0.189629
C143	C	0.955062	-0.069786	0.239601
H144	H	0.926587	-0.070943	0.293954
H145	H	1.006795	-0.033146	0.247675
C146	C	1.003891	-0.190867	0.143104
C147	C	0.968915	-0.192295	0.209860
H148	H	1.012440	-0.266436	0.124758
H149	H	0.975970	-0.144874	0.109436
H150	H	1.046998	-0.160328	0.149842
H151	H	0.925806	-0.222820	0.203120
H152	H	0.996830	-0.238297	0.243526
O153	O	0.838321	-0.052832	0.574818
C154	C	0.846003	-0.144102	0.524836
H155	H	0.865189	-0.112785	0.470485
H156	H	0.793560	-0.178439	0.516763
C157	C	0.875752	-0.278183	0.621317
C158	C	0.899323	-0.239722	0.554564
H159	H	0.908640	-0.337169	0.639656
H160	H	0.870575	-0.216694	0.654992
H161	H	0.832050	-0.306789	0.614581
H162	H	0.943019	-0.211103	0.561303
H163	H	0.904509	-0.301208	0.520891
O164	O	0.237772	0.305870	0.083323
C165	C	0.247099	0.417597	0.061033
H166	H	0.267183	0.415741	0.002614
H167	H	0.286520	0.453670	0.098309
C168	C	0.152238	0.495700	0.136998
C169	C	0.176900	0.493421	0.065244
H170	H	0.108937	0.542475	0.139598
H171	H	0.145955	0.420428	0.152018
H172	H	0.185095	0.525758	0.168053
H173	H	0.144047	0.463351	0.034192
H174	H	0.183175	0.568690	0.050219
O175	O	0.913634	-0.001249	0.339867
C176	C	0.956722	0.059366	0.383914
H177	H	0.929387	0.148291	0.395340
H178	H	1.008077	0.066871	0.354507
C179	C	1.004913	-0.113898	0.442287
C180	C	0.971338	-0.004682	0.456325
H181	H	1.013932	-0.153407	0.486953
H182	H	0.975886	-0.154737	0.412610
H183	H	1.047705	-0.107629	0.417780
H184	H	0.928543	-0.010953	0.480824
H185	H	1.000358	0.036155	0.486009
O186	O	0.913708	-0.001437	0.809886
C187	C	0.955127	-0.069739	0.759885
H188	H	0.956077	-0.023210	0.705543
H189	H	0.932268	-0.153966	0.751797
C190	C	1.028802	-0.150573	0.856342
C191	C	1.029973	-0.093421	0.789600
H192	H	1.074970	-0.165186	0.874672
H193	H	1.000895	-0.104560	0.890029
H194	H	1.009749	-0.220755	0.849593
H195	H	1.049017	-0.023234	0.796351
H196	H	1.057885	-0.139423	0.755914
H197	H	0.149004	0.335012	-0.000246
H198	H	0.735935	0.291506	0.804074
