data_functionalizedCrystal
_audit_creation_method	'MofGen! by Chris Wilmer'
_symmetry_space_group_name_H-M	'P1'
_symmetry_Int_Tables_number	1
_symmetry_cell_setting	triclinic
loop_
_symmetry_equiv_pos_as_xyz
  x,y,z
_cell_length_a	6.817900
_cell_length_b	16.417823
_cell_length_c	16.418042
_cell_angle_alpha	95.403474
_cell_angle_beta	103.389568
_cell_angle_gamma	103.385419
loop_
_atom_site_label
_atom_site_type_symbol
_atom_site_fract_x
_atom_site_fract_y
_atom_site_fract_z
V1	V	-4.025072	-0.116566	-0.261445
O2	O	-4.013115	0.004901	-0.256170
O3	O	-3.976121	-0.230458	-0.259944
O4	O	-3.976152	-0.115081	-0.375340
O5	O	-4.013084	-0.111275	-0.139976
V6	V	-4.508838	-0.102001	-0.246882
O7	O	-4.285796	-0.148516	-0.293392
O8	O	-4.698311	-0.070051	-0.214935
O9	O	-4.334582	0.011890	-0.248383
O10	O	-4.638192	-0.223468	-0.252157
O11	O	-4.638223	-0.107293	-0.368351
O12	O	-4.334551	-0.103487	-0.132987
C13	C	-3.821005	-0.258212	-0.255893
C14	C	-3.862266	-0.351322	-0.255425
C15	C	-3.956214	-0.640884	-0.177216
C16	C	-3.917418	-0.553395	-0.177643
C17	C	-3.997069	-0.577696	-0.331119
C18	C	-4.035849	-0.665183	-0.330692
C19	C	-4.015430	-0.696774	-0.253738
C20	C	-3.937853	-0.521798	-0.254592
C21	C	-3.895789	-0.426939	-0.255055
C22	C	-4.057493	-0.791639	-0.253274
C23	C	-3.821044	-0.111036	-0.403091
C24	C	-3.862327	-0.110575	-0.496202
C25	C	-4.139334	-0.113691	-0.714696
C26	C	-4.178105	-0.113251	-0.802182
C27	C	-3.813932	-0.104872	-0.793619
C28	C	-3.775161	-0.105306	-0.706133
C29	C	-3.937871	-0.109720	-0.666675
C30	C	-4.015413	-0.108845	-0.841647
C31	C	-4.057448	-0.108368	-0.936503
C32	C	-3.895833	-0.110196	-0.571812
C33	C	-4.153040	0.039640	-0.252431
C34	C	-4.091017	0.132749	-0.252905
C35	C	-4.153002	-0.107534	-0.105231
C36	C	-4.090957	-0.107991	-0.012119
H37	H	-3.939578	-0.666602	-0.114555
N38	N	-4.019084	-0.543612	-0.414111
H39	H	-4.128593	-0.510763	-0.420564
H40	H	-4.062396	-0.592336	-0.462476
N41	N	-4.314800	-0.118434	-0.672128
H42	H	-4.333932	-0.170984	-0.644287
H43	H	-4.448204	-0.120843	-0.715869
N44	N	-3.557849	-0.101025	-0.654339
H45	H	-3.560734	-0.153201	-0.626115
H46	H	-3.506682	-0.048801	-0.609631
H47	H	-3.869198	-0.507891	-0.115331
N48	N	-4.099709	-0.725473	-0.413229
H49	H	-4.106774	-0.692186	-0.462044
H50	H	-4.241359	-0.765210	-0.419247
N51	N	-4.395391	-0.117523	-0.853976
H52	H	-4.492573	-0.120382	-0.815701
H53	H	-4.446510	-0.169707	-0.898733
N54	N	-3.638439	-0.100119	-0.836173
H55	H	-3.619317	-0.047569	-0.864016
H56	H	-3.673609	-0.151975	-0.880505
