data_functionalizedCrystal
_audit_creation_method	'MofGen! by Chris Wilmer'
_symmetry_space_group_name_H-M	'P1'
_symmetry_Int_Tables_number	1
_symmetry_cell_setting	triclinic
loop_
_symmetry_equiv_pos_as_xyz
  x,y,z
_cell_length_a	21.395362
_cell_length_b	18.215405
_cell_length_c	21.395355
_cell_angle_alpha	89.980149
_cell_angle_beta	89.956060
_cell_angle_gamma	90.040762
loop_
_atom_site_label
_atom_site_type_symbol
_atom_site_fract_x
_atom_site_fract_y
_atom_site_fract_z
Zn1	Zn	0.957885	-0.292758	-0.354580
Zn2	Zn	1.291218	0.040576	-0.021246
Zn3	Zn	1.624551	0.373909	0.312087
Zn4	Zn	0.957798	-0.415806	-0.249800
Zn5	Zn	1.291131	-0.082473	0.083533
Zn6	Zn	1.624465	0.250861	0.416867
Zn7	Zn	0.853100	-0.292792	-0.249781
Zn8	Zn	1.186433	0.040541	0.083552
Zn9	Zn	1.519766	0.373875	0.416886
Zn10	Zn	0.853080	-0.415821	-0.354505
Zn11	Zn	1.186413	-0.082488	-0.021171
Zn12	Zn	1.519746	0.250846	0.312162
O13	O	0.905466	-0.354294	-0.302166
O14	O	1.238799	-0.020961	0.031167
O15	O	1.572132	0.312373	0.364500
O16	O	1.045551	-0.309060	-0.340720
O17	O	1.378885	0.024274	-0.007387
O18	O	1.712218	0.357607	0.325947
O19	O	0.943882	-0.399496	-0.162119
O20	O	1.277215	-0.066163	0.171214
O21	O	1.610548	0.267171	0.504547
O22	O	0.867045	-0.189803	-0.263706
O23	O	1.200378	0.143530	0.069627
O24	O	1.533711	0.476864	0.402960
O25	O	1.045487	-0.399463	-0.263739
O26	O	1.378821	-0.066129	0.069595
O27	O	1.712154	0.267204	0.402928
O28	O	0.944030	-0.189778	-0.340702
O29	O	1.277363	0.143555	-0.007368
O30	O	1.610696	0.476889	0.325965
O31	O	0.866960	-0.309118	-0.162106
O32	O	1.200294	0.024215	0.171228
O33	O	1.533627	0.357549	0.504561
O34	O	0.765419	-0.309133	-0.263634
O35	O	1.098753	0.024201	0.069700
O36	O	1.432086	0.357534	0.403033
O37	O	0.867010	-0.399488	-0.442193
O38	O	1.200343	-0.066155	-0.108859
O39	O	1.533677	0.267178	0.224474
O40	O	0.765404	-0.399522	-0.340573
O41	O	1.098738	-0.066188	-0.007240
O42	O	1.432071	0.267145	0.326093
O43	O	0.944010	-0.309074	-0.442248
O44	O	1.277343	0.024259	-0.108914
O45	O	1.610677	0.357592	0.224419
O46	O	0.943862	-0.518792	-0.263666
O47	O	1.277195	-0.185459	0.069668
O48	O	1.610529	0.147874	0.403001
O49	O	0.866926	-0.518803	-0.340592
O50	O	1.200259	-0.185470	-0.007258
O51	O	1.533593	0.147863	0.326075
C52	C	0.742678	-0.354333	-0.302094
C53	C	1.076011	-0.021000	0.031240
C54	C	1.409345	0.312334	0.364573
C55	C	0.673037	-0.354367	-0.302077
C56	C	1.006370	-0.021034	0.031256
C57	C	1.339703	0.312299	0.364589
C58	C	0.640332	-0.401495	-0.342080
C59	C	0.973665	-0.068162	-0.008747
C60	C	1.306999	0.265171	0.324587
C61	C	0.574897	-0.401477	-0.342108
C62	C	0.908230	-0.068144	-0.008775
C63	C	1.241563	0.265189	0.324559
C64	C	0.542168	-0.354339	-0.302122
C65	C	0.875502	-0.021006	0.031211
C66	C	1.208835	0.312328	0.364545
C67	C	0.574881	-0.307202	-0.262117
C68	C	0.908214	0.026131	0.071217
C69	C	1.241547	0.359465	0.404550
C70	C	0.640315	-0.307216	-0.262094
C71	C	0.973648	0.026117	0.071239
C72	C	1.306981	0.359450	0.404572
C73	C	0.438443	-0.348410	-0.245717
C74	C	0.771776	-0.015077	0.087616
C75	C	1.105110	0.318256	0.420950
C76	C	0.373010	-0.348401	-0.245738
C77	C	0.706343	-0.015068	0.087595
C78	C	1.039677	0.318265	0.420928
C79	C	0.340348	-0.354291	-0.302191
C80	C	0.673681	-0.020958	0.031142
C81	C	1.007014	0.312376	0.364475
C82	C	0.373126	-0.360205	-0.358625
C83	C	0.706459	-0.026872	-0.025291
C84	C	1.039793	0.306462	0.308042
C85	C	0.438560	-0.360219	-0.358602
C86	C	0.771894	-0.026886	-0.025269
C87	C	1.105227	0.306447	0.308064
C88	C	0.471216	-0.354318	-0.302142
C89	C	0.804549	-0.020985	0.031191
C90	C	1.137883	0.312349	0.364525
C91	C	0.236691	-0.401402	-0.342228
C92	C	0.570024	-0.068069	-0.008894
C93	C	0.903357	0.265265	0.324439
C94	C	0.171254	-0.401379	-0.342256
C95	C	0.504587	-0.068045	-0.008923
C96	C	0.837921	0.265288	0.324410
C97	C	0.171239	-0.307107	-0.262260
C98	C	0.504573	0.026226	0.071074
C99	C	0.837906	0.359559	0.404407
C100	C	0.236675	-0.307127	-0.262236
C101	C	0.570008	0.026207	0.071097
C102	C	0.903341	0.359540	0.404430
C103	C	0.269396	-0.354278	-0.302219
C104	C	0.602730	-0.020945	0.031114
C105	C	0.936063	0.312389	0.364447
C106	C	0.905399	-0.545500	-0.302136
C107	C	1.238733	-0.212167	0.031197
C108	C	1.572066	0.121166	0.364530
C109	C	0.905428	-0.627299	-0.302144
C110	C	1.238762	-0.293966	0.031189
C111	C	1.572095	0.039367	0.364522
C112	C	0.945583	-0.815463	-0.262163
C113	C	1.278916	-0.482130	0.071171
C114	C	1.612250	-0.148796	0.404504
C115	C	0.945611	-0.892322	-0.262178
C116	C	1.278944	-0.558988	0.071156
C117	C	1.612278	-0.225655	0.404489
C118	C	0.865428	-0.892373	-0.342215
C119	C	1.198761	-0.559040	-0.008882
C120	C	1.532095	-0.225707	0.324452
C121	C	0.865404	-0.815516	-0.342203
C122	C	1.198737	-0.482183	-0.008869
C123	C	1.532070	-0.148849	0.324464
C124	C	0.905480	-0.777063	-0.302173
C125	C	1.238814	-0.443729	0.031160
C126	C	1.572147	-0.110396	0.364494
C127	C	0.905533	-0.930779	-0.302200
C128	C	1.238866	-0.597445	0.031133
C129	C	1.572199	-0.264112	0.364466
C130	C	0.905563	-1.014112	-0.302217
C131	C	1.238896	-0.680779	0.031116
C132	C	1.572229	-0.347446	0.364449
C133	C	0.905451	-0.693724	-0.302157
C134	C	1.238785	-0.360390	0.031177
C135	C	1.572118	-0.027057	0.364510
C136	C	1.068889	-0.354256	-0.302240
C137	C	1.402222	-0.020922	0.031094
C138	C	1.735556	0.312411	0.364427
C139	C	1.138530	-0.354239	-0.302271
C140	C	1.471863	-0.020906	0.031062
C141	C	1.805197	0.312428	0.364396
C142	C	0.905518	-0.354279	-0.465590
C143	C	1.238851	-0.020946	-0.132256
C144	C	1.572184	0.312387	0.201077
C145	C	0.905540	-0.354273	-0.535231
C146	C	1.238873	-0.020940	-0.201898
C147	C	1.572206	0.312394	0.131436
C148	C	0.905549	-0.162341	-0.302210
C149	C	1.238882	0.170992	0.031123
C150	C	1.572216	0.504326	0.364456
C151	C	0.905585	-0.080542	-0.302229
C152	C	1.238918	0.252791	0.031104
C153	C	1.572251	0.586124	0.364438
C154	C	0.945632	-0.307192	-0.567974
C155	C	1.278965	0.026141	-0.234641
C156	C	1.612299	0.359474	0.098693
C157	C	0.945631	-0.307161	-0.633409
C158	C	1.278964	0.026173	-0.300076
C159	C	1.612298	0.359506	0.033257
C160	C	0.905545	-0.354223	-0.666099
C161	C	1.238878	-0.020889	-0.332766
C162	C	1.572211	0.312444	0.000567
C163	C	0.865445	-0.401307	-0.633349
C164	C	1.198778	-0.067973	-0.300015
C165	C	1.532111	0.265360	0.033318
C166	C	0.865442	-0.401332	-0.567914
C167	C	1.198776	-0.067998	-0.234581
C168	C	1.532109	0.265335	0.098752
C169	C	0.900574	-0.420488	-0.769762
C170	C	1.233908	-0.087155	-0.436429
C171	C	1.567241	0.246178	-0.103095
C172	C	0.900581	-0.420465	-0.835195
C173	C	1.233915	-0.087131	-0.501862
C174	C	1.567248	0.246202	-0.168528
C175	C	0.905548	-0.354145	-0.867920
C176	C	1.238882	-0.020812	-0.534587
C177	C	1.572215	0.312522	-0.201254
C178	C	0.910522	-0.287847	-0.835205
C179	C	1.243855	0.045486	-0.501871
C180	C	1.577189	0.378820	-0.168538
C181	C	0.910520	-0.287872	-0.769770
C182	C	1.243853	0.045461	-0.436437
C183	C	1.577186	0.378794	-0.103104
C184	C	0.905542	-0.354200	-0.737052
C185	C	1.238876	-0.020867	-0.403718
C186	C	1.572209	0.312466	-0.070385
C187	C	0.945642	-0.307026	-0.971616
C188	C	1.278975	0.026307	-0.638282
C189	C	1.612309	0.359641	-0.304949
C190	C	0.945637	-0.306993	-1.037052
C191	C	1.278970	0.026340	-0.703719
C192	C	1.612303	0.359674	-0.370386
C193	C	0.865454	-0.401146	-1.036990
C194	C	1.198787	-0.067812	-0.703657
C195	C	1.532120	0.265521	-0.370324
C196	C	0.865455	-0.401172	-0.971555
C197	C	1.198789	-0.067839	-0.638222
C198	C	1.532122	0.265495	-0.304888
C199	C	0.905553	-0.354113	-0.938872
C200	C	1.238886	-0.020780	-0.605538
C201	C	1.572220	0.312553	-0.272205
C202	C	0.905450	-0.354256	-0.139379
C203	C	1.238783	-0.020923	0.193955
C204	C	1.572116	0.312411	0.527288
C205	C	0.905549	-0.354055	-0.069738
C206	C	1.238882	-0.020722	0.263595
C207	C	1.572216	0.312612	0.596929
H208	H	0.263334	-0.439792	-0.374787
H209	H	0.596668	-0.106458	-0.041454
H210	H	0.930001	0.226875	0.291879
H211	H	0.832747	-0.784248	-0.374787
H212	H	1.166080	-0.450915	-0.041453
H213	H	1.499414	-0.117582	0.291880
H214	H	0.832812	-0.439515	-0.944895
H215	H	1.166145	-0.106181	-0.611562
H216	H	1.499478	0.227152	-0.278229
H217	H	0.978278	-0.268818	-0.660074
H218	H	1.311611	0.064515	-0.326740
H219	H	1.644944	0.397849	0.006593
H220	H	0.978217	-0.784156	-0.229569
H221	H	1.311550	-0.450823	0.103765
H222	H	1.644883	-0.117490	0.437098
H223	H	0.548264	-0.439854	-0.374685
H224	H	0.881597	-0.106521	-0.041352
H225	H	1.214930	0.226813	0.291981
F226	F	0.822780	-0.451391	-0.668140
F227	F	1.156113	-0.118058	-0.334807
F228	F	1.489447	0.215275	-0.001474
F229	F	0.822777	-0.933304	-0.384814
F230	F	1.156110	-0.599971	-0.051481
F231	F	1.489444	-0.266638	0.281853
H232	H	0.346534	-0.365000	-0.404594
H233	H	0.679867	-0.031666	-0.071261
H234	H	1.013200	0.301667	0.262072
F235	F	0.988296	-0.933187	-0.219595
F236	F	1.321629	-0.599853	0.113738
F237	F	1.654962	-0.266520	0.447072
H238	H	0.914568	-0.233843	-0.861848
H239	H	1.247901	0.099490	-0.528515
H240	H	1.581235	0.432823	-0.195181
F241	F	0.540048	-0.257031	-0.219563
F242	F	0.873381	0.076302	0.113770
F243	F	1.206715	0.409635	0.447103
H244	H	0.914568	-0.233890	-0.743136
H245	H	1.247901	0.099443	-0.409803
H246	H	1.581234	0.432776	-0.076469
H247	H	0.978288	-0.268704	-0.945003
H248	H	1.311621	0.064630	-0.611670
H249	H	1.644955	0.397963	-0.278337
H250	H	0.978282	-0.268872	-0.541367
H251	H	1.311615	0.064461	-0.208034
H252	H	1.644948	0.397794	0.125300
F253	F	0.675122	-0.257054	-0.219516
F254	F	1.008456	0.076280	0.113817
F255	F	1.341789	0.409613	0.447150
H256	H	0.978283	-0.268650	-1.063711
H257	H	1.311617	0.064683	-0.730377
H258	H	1.644950	0.398017	-0.397044
F259	F	0.822785	-0.451228	-1.071777
F260	F	1.156119	-0.117894	-0.738444
F261	F	1.489452	0.215439	-0.405110
H262	H	0.896362	-0.474480	-0.743122
H263	H	1.229695	-0.141147	-0.409789
H264	H	1.563028	0.192187	-0.076456
H265	H	0.666970	-0.439889	-0.374638
H266	H	1.000304	-0.106555	-0.041305
H267	H	1.333637	0.226778	0.292028
F268	F	0.895293	-0.491024	-0.870007
F269	F	1.228627	-0.157691	-0.536674
F270	F	1.561960	0.175643	-0.203341
H271	H	0.832791	-0.439669	-0.541255
H272	H	1.166125	-0.106336	-0.207922
H273	H	1.499458	0.226997	0.125411
H274	H	0.465246	-0.365033	-0.404553
H275	H	0.798579	-0.031699	-0.071219
H276	H	1.131912	0.301634	0.262114
H277	H	0.144592	-0.268723	-0.229705
H278	H	0.477926	0.064610	0.103628
H279	H	0.811259	0.397944	0.436961
F280	F	0.136448	-0.451538	-0.384839
F281	F	0.469781	-0.118204	-0.051505
F282	F	0.803114	0.215129	0.281828
H283	H	0.263303	-0.268754	-0.229659
H284	H	0.596636	0.064580	0.103675
H285	H	0.929969	0.397913	0.437008
H286	H	0.346327	-0.343590	-0.199787
H287	H	0.679660	-0.010257	0.133547
H288	H	1.012994	0.323076	0.466880
H289	H	0.465031	-0.343611	-0.199743
H290	H	0.798365	-0.010278	0.133590
H291	H	1.131698	0.323055	0.466924
