data_functionalizedCrystal
_audit_creation_method	'MofGen! by Chris Wilmer'
_symmetry_space_group_name_H-M	'P1'
_symmetry_Int_Tables_number	1
_symmetry_cell_setting	triclinic
loop_
_symmetry_equiv_pos_as_xyz
  x,y,z
_cell_length_a	16.120530
_cell_length_b	12.594516
_cell_length_c	16.120297
_cell_angle_alpha	92.877768
_cell_angle_beta	90.128140
_cell_angle_gamma	87.111852
loop_
_atom_site_label
_atom_site_type_symbol
_atom_site_fract_x
_atom_site_fract_y
_atom_site_fract_z
Zn1	Zn	1.247493	-0.539249	-0.534603
Zn2	Zn	1.254461	-0.708692	-0.395557
Zn3	Zn	1.115482	-0.521263	-0.388519
Zn4	Zn	1.108417	-0.707712	-0.527526
O5	O	1.181463	-0.619229	-0.461551
O6	O	1.364785	-0.569664	-0.522065
O7	O	1.241897	-0.676712	-0.278258
O8	O	1.133034	-0.374707	-0.407914
O9	O	1.369904	-0.694153	-0.419909
O10	O	1.230022	-0.387921	-0.515241
O11	O	1.139790	-0.539009	-0.273087
O12	O	0.998178	-0.538058	-0.401052
O13	O	1.120993	-0.692482	-0.644831
O14	O	0.992987	-0.675042	-0.503180
O15	O	1.223172	-0.568713	-0.650030
O16	O	1.235047	-0.857504	-0.413047
O17	O	1.127749	-0.856784	-0.510004
C18	C	0.965410	-0.604493	-0.450585
C19	C	0.872980	-0.598215	-0.445913
C20	C	0.703749	-0.586730	-0.437391
C21	C	0.660015	-0.651810	-0.485772
C22	C	0.565849	-0.645420	-0.481031
C23	C	0.797924	-0.593119	-0.442132
C24	C	1.181409	-0.895766	-0.461540
C25	C	1.181461	-1.014076	-0.461567
C26	C	1.123098	-1.082974	-0.514263
C27	C	1.106686	-1.147787	-0.437359
C28	C	1.197948	-1.160068	-0.538488
C29	C	1.165010	-1.077326	-0.384621
C30	C	1.256305	-1.089606	-0.485803
C31	C	1.239924	-1.154387	-0.408848
C32	C	1.398360	-0.634024	-0.472561
C33	C	1.490789	-0.640328	-0.477253
C34	C	1.170517	-0.632495	-0.678446
C35	C	1.165853	-0.638148	-0.770874
C36	C	1.181539	-0.341615	-0.461582
C37	C	1.181572	-0.223313	-0.461595
C38	C	1.157306	-0.648443	-0.940100
C39	C	1.205784	-0.589708	-0.983863
C40	C	1.201029	-0.595436	-1.078026
C41	C	1.162061	-0.642716	-0.845928
C42	C	1.192414	-0.605942	-0.245502
C43	C	1.197240	-0.600000	-0.153083
H44	H	0.670473	-0.526218	-0.392412
C45	C	1.364468	-1.264151	-0.392581
C46	C	1.306619	-1.196450	-0.348638
H47	H	1.405640	-1.290116	-0.355407
H48	H	1.337003	-1.322290	-0.418028
H49	H	1.390003	-1.225953	-0.434101
H50	H	1.281079	-1.234651	-0.307122
H51	H	1.334087	-1.138303	-0.323178
H52	H	1.073662	-1.051620	-0.558754
H53	H	1.112236	-0.703026	-0.973349
C54	C	0.790875	-0.724116	-0.539495
C55	C	0.704933	-0.733514	-0.546493
H56	H	0.818606	-0.774560	-0.576975
H57	H	0.804453	-0.654330	-0.552465
H58	H	0.807852	-0.737101	-0.484297
H59	H	0.687955	-0.720521	-0.601689
H60	H	0.691349	-0.803316	-0.533528
C61	C	0.987321	-1.247206	-0.472920
C62	C	1.021309	-1.182579	-0.409694
H63	H	0.934614	-1.268686	-0.455841
H64	H	0.981015	-1.208436	-0.521772
H65	H	1.023279	-1.308334	-0.484016
H66	H	0.985354	-1.121446	-0.398603
H67	H	1.027611	-1.221349	-0.360828
C68	C	1.146213	-0.917590	-0.297580
C69	C	1.146138	-1.028708	-0.296790
H70	H	1.134555	-0.887576	-0.243359
H71	H	1.199163	-0.897241	-0.314860
H72	H	1.104960	-0.892594	-0.335050
H73	H	1.187395	-1.053705	-0.259325
H74	H	1.093180	-1.049066	-0.279500
H75	H	1.250858	-0.535120	-0.950612
C76	C	1.358739	-1.096700	-0.594091
C77	C	1.341657	-1.054780	-0.513495
H78	H	1.411429	-1.075191	-0.611194
H79	H	1.359254	-1.172185	-0.594792
H80	H	1.317124	-1.071135	-0.630949
H81	H	1.383269	-1.080351	-0.476635
H82	H	1.341149	-0.979279	-0.512788
H83	H	1.211849	-1.196211	-0.603528
