data_functionalizedCrystal
_audit_creation_method	'MofGen! by Chris Wilmer'
_symmetry_space_group_name_H-M	'P1'
_symmetry_Int_Tables_number	1
_symmetry_cell_setting	triclinic
loop_
_symmetry_equiv_pos_as_xyz
  x,y,z
_cell_length_a	16.959453
_cell_length_b	18.050591
_cell_length_c	16.959447
_cell_angle_alpha	89.978541
_cell_angle_beta	89.968429
_cell_angle_gamma	90.018732
loop_
_atom_site_label
_atom_site_type_symbol
_atom_site_fract_x
_atom_site_fract_y
_atom_site_fract_z
Zn1	Zn	-0.314750	1.135325	-0.447052
Zn2	Zn	0.185250	1.635325	0.052948
Zn3	Zn	-0.446943	1.135246	-0.314871
Zn4	Zn	0.053057	1.635246	0.185129
Zn5	Zn	-0.314773	1.011143	-0.314873
Zn6	Zn	0.185227	1.511143	0.185127
Zn7	Zn	-0.446881	1.011104	-0.446993
Zn8	Zn	0.053119	1.511104	0.053007
O9	O	-0.380837	1.073204	-0.380947
O10	O	0.119163	1.573204	0.119053
O11	O	-0.332302	1.239239	-0.429542
O12	O	0.167698	1.739239	0.070458
O13	O	-0.429445	1.118767	-0.204260
O14	O	0.070555	1.618767	0.295740
O15	O	-0.204159	1.027665	-0.332433
O16	O	0.295841	1.527665	0.167567
O17	O	-0.429423	1.239181	-0.332429
O18	O	0.070577	1.739181	0.167571
O19	O	-0.204142	1.118901	-0.429544
O20	O	0.295858	1.618901	0.070456
O21	O	-0.332340	1.027589	-0.204262
O22	O	0.167660	1.527589	0.295738
O23	O	-0.332281	0.907213	-0.332376
O24	O	0.167719	1.407213	0.167624
O25	O	-0.429319	1.027599	-0.557612
O26	O	0.070681	1.527599	-0.057612
O27	O	-0.429341	0.907185	-0.429443
O28	O	0.070659	1.407185	0.070557
O29	O	-0.332243	1.118863	-0.557655
O30	O	0.167757	1.618863	-0.057655
O31	O	-0.557545	1.118729	-0.332371
O32	O	-0.057545	1.618729	0.167629
O33	O	-0.557500	1.027523	-0.429441
O34	O	-0.057500	1.527523	0.070559
C35	C	-0.586203	1.073133	-0.380917
C36	C	-0.086203	1.573133	0.119083
C37	C	-0.674060	1.073171	-0.380930
C38	C	-0.174060	1.573171	0.119070
C39	C	-0.380807	0.880252	-0.380904
C40	C	0.119193	1.380252	0.119096
C41	C	-0.380814	0.797707	-0.380904
C42	C	0.119186	1.297707	0.119096
C43	C	-0.715410	1.025726	-0.330333
C44	C	-0.215410	1.525726	0.169667
C45	C	-0.715262	1.120647	-0.431544
C46	C	-0.215262	1.620647	0.068456
C47	C	-0.797808	1.120682	-0.431562
C48	C	-0.297808	1.620682	0.068438
C49	C	-0.839159	1.073237	-0.380964
C50	C	-0.339159	1.573237	0.119036
C51	C	-0.797964	1.025758	-0.330350
C52	C	-0.297964	1.525758	0.169650
C53	C	-0.839009	1.168155	-0.482181
C54	C	-0.339009	1.668155	0.017819
C55	C	-0.921560	1.168191	-0.482201
C56	C	-0.421560	1.668191	0.017799
C57	C	-0.962913	1.120750	-0.431599
C58	C	-0.462913	1.620750	0.068401
C59	C	-0.921712	1.073269	-0.380982
C60	C	-0.421712	1.573269	0.119018
C61	C	-0.963063	1.025824	-0.330384
C62	C	-0.463063	1.525824	0.169616
C63	C	-0.921865	0.978347	-0.279763
C64	C	-0.421865	1.478347	0.220237
C65	C	-0.839316	0.978316	-0.279748
C66	C	-0.339316	1.478316	0.220252
C67	C	-1.045461	1.120780	-0.431613
C68	C	-0.545461	1.620780	0.068387
C69	C	-1.045617	1.025856	-0.330402
C70	C	-0.545617	1.525856	0.169598
C71	C	-0.327971	0.598250	-0.328240
C72	C	0.172029	1.098250	0.171760
C73	C	-0.400068	0.548837	-0.308787
C74	C	0.099932	1.048837	0.191213
C75	C	-0.380838	0.646576	-0.380939
C76	C	0.119162	1.146576	0.119061
C77	C	-0.308766	0.548908	-0.400390
C78	C	0.191234	1.048908	0.099610
C79	C	-0.380855	0.500591	-0.380972
C80	C	0.119145	1.000591	0.119028
C81	C	-0.452972	0.598250	-0.361449
C82	C	0.047028	1.098250	0.138551
C83	C	-0.361621	0.598326	-0.453086
C84	C	0.138379	1.098326	0.046914
C85	C	-0.433768	0.548935	-0.433660
C86	C	0.066232	1.048935	0.066340
C87	C	-0.380827	0.730674	-0.380918
C88	C	0.119173	1.230674	0.119082
C89	C	-0.380873	0.416495	-0.380994
C90	C	0.119127	0.916495	0.119006
C91	C	-0.174668	1.073296	-0.380996
C92	C	0.325332	1.573296	0.119004
C93	C	-0.086812	1.073335	-0.381016
C94	C	0.413188	1.573335	0.118984
C95	C	-0.380771	1.073235	-0.587116
C96	C	0.119229	1.573235	-0.087116
C97	C	-0.380743	1.073249	-0.674972
C98	C	0.119257	1.573249	-0.174972
C99	C	-0.380867	1.266910	-0.380992
C100	C	0.119133	1.766910	0.119008
C101	C	-0.380880	1.349456	-0.381011
C102	C	0.119120	1.849456	0.118989
C103	C	-0.431203	1.025820	-1.046428
C104	C	0.068797	1.525820	-0.546428
C105	C	-0.330117	1.120855	-1.046468
C106	C	0.169883	1.620855	-0.546468
C107	C	-0.330134	1.120835	-0.963922
C108	C	0.169866	1.620835	-0.463922
C109	C	-0.380687	1.073308	-0.922625
C110	C	0.119313	1.573308	-0.422625
C111	C	-0.431223	1.025800	-0.963874
C112	C	0.068777	1.525800	-0.463874
C113	C	-0.279604	1.168347	-0.922667
C114	C	0.220396	1.668347	-0.422667
C115	C	-0.279619	1.168329	-0.840116
C116	C	0.220381	1.668329	-0.340116
C117	C	-0.330169	1.120798	-0.798818
C118	C	0.169831	1.620798	-0.298818
C119	C	-0.380707	1.073288	-0.840072
C120	C	0.119293	1.573288	-0.340072
C121	C	-0.431260	1.025761	-0.798775
C122	C	0.068740	1.525761	-0.298775
C123	C	-0.481794	0.978247	-0.840027
C124	C	0.018206	1.478247	-0.340027
C125	C	-0.481773	0.978269	-0.922576
C126	C	0.018227	1.478269	-0.422576
C127	C	-0.330190	1.120776	-0.716269
C128	C	0.169810	1.620776	-0.216269
C129	C	-0.431280	1.025741	-0.716221
C130	C	0.068720	1.525741	-0.216221
C131	C	-0.380845	1.073216	-0.175581
C132	C	0.119155	1.573216	0.324419
C133	C	-0.380650	1.073347	-0.087725
C134	C	0.119350	1.573347	0.412275
H135	H	-1.079279	0.987222	-0.289196
H136	H	-0.579279	1.487222	0.210804
F137	F	-0.532671	0.626459	-0.339872
F138	F	-0.032671	1.126459	0.160128
F139	F	-0.276417	1.171344	-0.672369
F140	F	0.223583	1.671344	-0.172369
H141	H	-0.522918	0.939588	-0.956171
H142	H	-0.022918	1.439588	-0.456171
H143	H	-0.472345	0.987133	-1.080019
H144	H	0.027655	1.487133	-0.580019
F145	F	-0.485083	0.975151	-0.672276
F146	F	0.014917	1.475151	-0.172276
F147	F	-0.340334	0.626759	-0.532793
F148	F	0.159666	1.126759	-0.032793
F149	F	-0.965399	1.218718	-0.536078
F150	F	-0.465399	1.718718	-0.036078
H151	H	-0.805339	1.206779	-0.523380
H152	H	-0.305339	1.706779	-0.023380
H153	H	-0.288963	1.159553	-1.080097
H154	H	0.211037	1.659553	-0.580097
F155	F	-0.269598	0.626555	-0.269928
F156	F	0.230402	1.126555	0.230072
F157	F	-0.671252	1.171129	-0.485400
F158	F	-0.171252	1.671129	0.014600
H159	H	-0.416334	0.527100	-0.247789
H160	H	0.083666	1.027100	0.252211
H161	H	-0.238451	1.207045	-0.956297
H162	H	0.261549	1.707045	-0.456297
F163	F	-0.965883	0.927848	-0.225922
F164	F	-0.465883	1.427848	0.274078
F165	F	-1.089304	1.171303	-0.485487
F166	F	-0.589304	1.671303	0.014513
H167	H	-0.238471	1.207018	-0.806536
H168	H	0.261529	1.707018	-0.306536
H169	H	-0.247817	0.527195	-0.416800
H170	H	0.252183	1.027195	0.083200
F171	F	-0.535599	0.927670	-0.796067
F172	F	-0.035599	1.427670	-0.296067
H173	H	-0.805767	0.939661	-0.238534
H174	H	-0.305767	1.439661	0.261466
F175	F	-0.492278	0.520808	-0.491931
F176	F	0.007722	1.020808	0.008069
F177	F	-0.671565	0.975202	-0.276458
F178	F	-0.171565	1.475202	0.223542
