data_functionalizedCrystal
_audit_creation_method	'MofGen! by Chris Wilmer'
_symmetry_space_group_name_H-M	'P1'
_symmetry_Int_Tables_number	1
_symmetry_cell_setting	triclinic
loop_
_symmetry_equiv_pos_as_xyz
  x,y,z
_cell_length_a	14.971486
_cell_length_b	16.109301
_cell_length_c	13.448316
_cell_angle_alpha	89.991973
_cell_angle_beta	89.998199
_cell_angle_gamma	83.537805
loop_
_atom_site_label
_atom_site_type_symbol
_atom_site_fract_x
_atom_site_fract_y
_atom_site_fract_z
O1	O	1.186791	0.108348	-0.082581
O2	O	0.926372	0.121323	-0.082608
O3	O	1.063736	-0.006187	-0.082584
O4	O	1.049428	0.235857	-0.082605
O5	O	1.063718	-0.006195	0.082800
O6	O	0.926355	0.121315	0.082776
O7	O	1.186774	0.108340	0.082803
Cu8	Cu	1.056563	0.114827	0.097890
Cu9	Cu	1.056583	0.114836	-0.097695
O10	O	1.049410	0.235850	0.082778
C11	C	0.893040	0.120739	0.000080
C12	C	0.793745	0.119000	0.000070
C13	C	1.063147	-0.037166	0.000109
C14	C	1.061410	-0.129464	0.000110
C15	C	0.736412	0.193908	0.000065
C16	C	0.643115	0.192269	0.000080
C17	C	0.607153	0.115721	0.000093
C18	C	0.664494	0.040807	0.000101
C19	C	0.757789	0.042447	0.000093
C20	C	0.470036	0.037395	0.000115
C21	C	0.376734	0.035755	0.000121
C22	C	0.355362	0.187217	0.000102
C23	C	0.448657	0.188857	0.000094
C24	C	0.505991	0.113942	0.000100
C25	C	1.138878	-0.351640	0.000102
C26	C	1.137239	-0.438362	0.000094
C27	C	0.974262	-0.418691	0.000081
C28	C	0.975902	-0.331970	0.000082
C29	C	1.058213	-0.298447	0.000098
C30	C	1.054933	-0.471890	0.000088
C31	C	1.053155	-0.565918	0.000079
C32	C	1.059992	-0.204413	0.000105
C33	C	1.220106	0.108924	0.000112
C34	C	1.319401	0.110663	0.000116
C35	C	1.049999	0.266829	0.000084
C36	C	1.051736	0.359127	0.000076
N37	N	1.056555	0.114820	0.235454
N38	N	1.056598	0.114837	-0.235260
C39	C	1.117398	0.058382	0.287506
C40	C	1.117404	0.058381	0.391609
C41	C	1.056570	0.114823	0.443659
C42	C	0.995720	0.171264	0.391601
C43	C	0.995711	0.171260	0.287499
C44	C	0.995745	0.171269	0.608581
C45	C	0.995755	0.171275	0.712689
C46	C	1.117438	0.058391	0.712690
C47	C	1.117429	0.058387	0.608589
C48	C	1.056580	0.114829	0.556538
H49	H	0.596437	0.253267	0.000074
H50	H	1.166983	0.012434	0.755077
H51	H	0.910211	-0.288658	0.000075
C52	C	0.541206	0.278559	0.085062
C53	C	0.488201	0.272993	0.000059
H54	H	0.565625	0.330499	0.085031
H55	H	0.505259	0.274792	0.142732
H56	H	0.588693	0.234168	0.085058
H57	H	0.440710	0.317382	0.000067
H58	H	0.524150	0.276769	-0.057626
C59	C	0.877878	-0.504803	-0.084940
C60	C	0.883790	-0.455546	0.000075
H61	H	0.822026	-0.527558	-0.084936
H62	H	0.881903	-0.471374	-0.142602
H63	H	0.925691	-0.548891	-0.084925
H64	H	0.835981	-0.411454	0.000057
H65	H	0.879757	-0.488977	0.057752
C66	C	1.237705	-0.053199	0.619041
C67	C	1.184297	-0.003655	0.551373
H68	H	1.278981	-0.091505	0.583716
H69	H	1.269871	-0.018542	0.659628
H70	H	1.200481	-0.083161	0.659660
H71	H	1.221520	0.026312	0.510758
H72	H	1.152129	-0.038317	0.510769
C73	C	0.875445	0.282828	0.702237
C74	C	0.928869	0.233300	0.769905
H75	H	0.834146	0.321113	0.737562
H76	H	0.912648	0.312807	0.661629
H77	H	0.843297	0.248153	0.661639
H78	H	0.961022	0.267976	0.810499
H79	H	0.891660	0.203320	0.810531
C80	C	1.213762	-0.227438	0.000116
C81	C	1.229352	-0.314789	0.000111
H82	H	1.269619	-0.204692	0.000125
H83	H	1.180558	-0.209182	-0.057554
H84	H	1.180546	-0.209200	0.057792
H85	H	1.262562	-0.333027	-0.057570
H86	H	1.262570	-0.333052	0.057787
H87	H	0.804470	-0.018551	0.000097
C88	C	0.976284	0.284383	0.491482
C89	C	0.928862	0.233310	0.551359
H90	H	0.934995	0.322680	0.456152
H91	H	1.013498	0.314347	0.532082
H92	H	1.012510	0.250755	0.445593
H93	H	0.892641	0.266937	0.597254
H94	H	0.891632	0.203344	0.510756
H95	H	0.946183	0.217217	0.433986
H96	H	0.946165	0.217216	0.245120
H97	H	0.765684	0.256242	0.000053
C98	C	1.298496	-0.449089	0.000122
C99	C	1.225909	-0.496832	0.000106
H100	H	1.353239	-0.485188	0.000135
H101	H	1.295753	-0.414850	-0.057546
H102	H	1.295731	-0.414861	0.057801
H103	H	1.228670	-0.531055	-0.057577
H104	H	1.228653	-0.531085	0.057780
H105	H	0.308675	0.248215	0.000101
C106	C	1.237670	-0.053204	0.297974
C107	C	1.184269	-0.003664	0.230297
H108	H	1.278948	-0.091514	0.262656
H109	H	1.269833	-0.018545	0.338561
H110	H	1.200442	-0.083162	0.338593
H111	H	1.221496	0.026299	0.189683
H112	H	1.152103	-0.038327	0.189693
C113	C	0.407226	-0.113796	0.000157
C114	C	0.337203	-0.048387	0.000142
H115	H	0.382818	-0.165741	0.000174
H116	H	0.443169	-0.110011	-0.057514
H117	H	0.443171	-0.110002	0.057832
H118	H	0.301261	-0.052178	-0.057538
H119	H	0.301244	-0.052174	0.057818
H120	H	0.635206	-0.021520	0.000126
C121	C	0.587356	-0.048620	-0.084902
C122	C	0.533064	-0.044949	0.000119
H123	H	0.626271	-0.099452	-0.084898
H124	H	0.550512	-0.046113	-0.142560
H125	H	0.622117	-0.002790	-0.084897
H126	H	0.498298	-0.090776	0.000111
H127	H	0.569912	-0.047465	0.057793
H128	H	1.166947	0.012425	0.433989
