data_functionalizedCrystal
_audit_creation_method	'MofGen! by Chris Wilmer'
_symmetry_space_group_name_H-M	'P1'
_symmetry_Int_Tables_number	1
_symmetry_cell_setting	triclinic
loop_
_symmetry_equiv_pos_as_xyz
  x,y,z
_cell_length_a	27.440280
_cell_length_b	27.440280
_cell_length_c	18.878441
_cell_angle_alpha	59.992727
_cell_angle_beta	89.996292
_cell_angle_gamma	60.002656
loop_
_atom_site_label
_atom_site_type_symbol
_atom_site_fract_x
_atom_site_fract_y
_atom_site_fract_z
Zr1	Zr	0.469572	0.533368	-0.093052
O2	O	0.391766	0.635044	-0.206168
O3	O	0.493414	0.431699	-0.058367
O4	O	0.493425	0.533369	-0.206161
O5	O	0.391758	0.533372	0.058197
O6	O	0.573627	0.533361	-0.206165
O7	O	0.391755	0.533375	-0.058375
O8	O	0.573607	0.351493	0.058211
O9	O	0.391778	0.715240	-0.206179
O10	O	0.563448	0.473509	-0.043588
O11	O	0.503597	0.473512	0.043411
O12	O	0.503609	0.593215	-0.130597
O13	O	0.443758	0.593219	-0.043597
Zr14	Zr	0.597490	0.533351	0.092860
Zr15	Zr	0.597485	0.533356	-0.093059
Zr16	Zr	0.469577	0.533364	0.092867
Zr17	Zr	0.469591	0.661271	-0.093069
Zr18	Zr	0.597471	0.405448	0.092876
O19	O	0.573648	0.635020	0.058175
O20	O	0.573642	0.635027	-0.206178
O21	O	0.391773	0.635038	0.058184
O22	O	0.675296	0.431675	0.205976
O23	O	0.675289	0.431682	-0.058377
O24	O	0.493421	0.431693	0.205986
O25	O	0.675304	0.533347	-0.058390
O26	O	0.573638	0.533351	0.205968
O27	O	0.493436	0.533359	0.205973
O28	O	0.675307	0.533345	0.058182
O29	O	0.493451	0.715230	-0.206184
O30	O	0.573611	0.351489	0.205992
O31	O	0.675285	0.351479	0.205986
O32	O	0.675281	0.351483	0.058205
O33	O	0.391781	0.715237	-0.058398
O34	O	0.493455	0.715227	-0.058403
O35	O	0.563453	0.473504	0.130404
O36	O	0.623304	0.473501	0.043405
O37	O	0.563466	0.593207	-0.043604
O38	O	0.503614	0.593211	0.043396
C39	C	0.533508	0.373373	-0.000076
C40	C	0.533500	0.319074	-0.000069
C41	C	0.577716	0.040185	0.064131
C42	C	0.577711	0.091207	0.064135
O43	O	0.615291	0.080026	0.118737
N44	N	0.533525	0.160904	-0.000086
C45	C	0.489346	0.179579	-0.064320
O46	O	0.451763	0.243547	-0.118945
C47	C	0.489354	0.128558	-0.064326
C48	C	0.533539	0.058861	-0.000096
C49	C	0.621898	-0.029508	0.128356
C50	C	0.621902	-0.080527	0.128353
C51	C	0.577725	-0.061851	0.064126
C52	C	0.533544	0.007842	-0.000098
C53	C	0.445178	0.147233	-0.128562
C54	C	0.445191	0.096204	-0.128563
C55	C	0.489375	0.026507	-0.064333
C56	C	0.489372	-0.024501	-0.064328
N57	N	0.533557	-0.094197	-0.000107
C58	C	0.577734	-0.112873	0.064120
C59	C	0.489332	0.286725	-0.064303
C60	C	0.489321	0.337746	-0.064294
C61	C	0.577686	0.249370	0.064160
C62	C	0.577695	0.198348	0.064154
C63	C	0.533518	0.217028	-0.000082
C64	C	0.577740	-0.220011	0.064110
C65	C	0.577739	-0.271030	0.064103
C66	C	0.489376	-0.182650	-0.064352
C67	C	0.489374	-0.131636	-0.064344
C68	C	0.533562	-0.150321	-0.000109
O69	O	0.451811	-0.013370	-0.118905
O70	O	0.615315	-0.176840	0.118729
C71	C	0.373532	0.533375	-0.000088
C72	C	0.319229	0.533381	-0.000085
C73	C	-0.017470	0.533346	-0.064318
C74	C	-0.068488	0.533341	-0.064318
O75	O	-0.094864	0.533317	-0.118917
N76	N	-0.094004	0.533341	-0.000099
C77	C	-0.068496	0.533338	0.064130
O78	O	-0.094884	0.533337	0.118754
C79	C	-0.017477	0.533338	0.064133
C80	C	0.008033	0.533346	-0.000095
C81	C	0.008040	0.533353	-0.128541
C82	C	0.059054	0.533359	-0.128541
C83	C	0.084557	0.533358	-0.064318
C84	C	0.059047	0.533352	-0.000095
C85	C	0.008033	0.533331	0.128365
C86	C	0.059056	0.533330	0.128364
C87	C	0.084566	0.533338	0.064135
C88	C	0.135564	0.533358	0.064127
N89	N	0.161080	0.533358	-0.000092
C90	C	0.135577	0.533358	-0.064315
C91	C	-0.175640	0.533337	0.064119
C92	C	-0.226661	0.533342	0.064113
C93	C	-0.226649	0.533344	-0.064335
C94	C	-0.175629	0.533344	-0.064332
C95	C	-0.150124	0.533338	-0.000100
C96	C	0.242709	0.533372	-0.064311
C97	C	0.293726	0.533381	-0.064308
C98	C	0.293711	0.533376	0.064142
C99	C	0.242697	0.533371	0.064137
C100	C	0.217198	0.533366	-0.000094
O101	O	0.161974	0.533379	0.118700
O102	O	0.161975	0.533351	-0.118923
C103	C	0.693531	0.533344	-0.000105
C104	C	0.747833	0.533339	-0.000108
C105	C	0.533525	0.533365	-0.232652
C106	C	0.533523	0.533367	-0.311580
C107	C	0.533554	0.693347	-0.000117
C108	C	0.533562	0.747645	-0.000124
C109	C	0.502288	0.595852	-0.394078
C110	C	0.502294	0.595850	-0.468235
C111	C	0.533531	0.533362	-0.459893
C112	C	0.564770	0.470872	-0.377387
C113	C	0.564768	0.470875	-0.303231
C114	C	0.564773	0.470871	-0.531954
C115	C	0.564774	0.470867	-0.606115
C116	C	0.502298	0.595845	-0.696958
C117	C	0.502296	0.595848	-0.622803
C118	C	0.533534	0.533358	-0.540301
C119	C	0.533537	0.533354	0.232460
C120	C	0.533539	0.533352	0.311387
C121	C	0.693507	0.373357	-0.000084
C122	C	0.747802	0.319054	-0.000080
C123	C	0.533514	0.373367	0.232480
C124	C	0.533508	0.319067	0.311415
C125	C	0.693513	0.373351	0.232472
C126	C	0.747810	0.319046	0.311403
C127	C	0.373549	0.693368	-0.232664
C128	C	0.319252	0.747674	-0.311596
C129	C	0.373555	0.693362	-0.000108
C130	C	0.319260	0.747666	-0.000112
C131	C	0.533548	0.693353	-0.232673
C132	C	0.533554	0.747653	-0.311607
C133	C	0.742055	0.293556	-0.045496
C134	C	0.793065	0.242539	-0.045509
C135	C	0.849822	0.217017	-0.000102
C136	C	0.855568	0.242520	0.045315
C137	C	0.804558	0.293539	0.045323
C138	C	0.564750	0.293563	0.393900
C139	C	0.564742	0.242549	0.468075
C140	C	0.533496	0.217037	0.459761
C141	C	0.502250	0.242546	0.377267
C142	C	0.502255	0.293562	0.303094
C143	C	0.804555	0.293542	0.303058
C144	C	0.855578	0.242523	0.377215
C145	C	0.849853	0.217006	0.459717
C146	C	0.793102	0.242516	0.468061
C147	C	0.742081	0.293537	0.393905
C148	C	0.262507	0.773184	-0.303250
C149	C	0.211485	0.824218	-0.377407
C150	C	0.217209	0.849738	-0.459910
C151	C	0.273961	0.824225	-0.468254
C152	C	0.324981	0.773195	-0.394097
C153	C	0.325007	0.773169	0.045295
C154	C	0.273997	0.824199	0.045289
C155	C	0.217240	0.849723	-0.000122
C156	C	0.211494	0.824218	-0.045535
C157	C	0.262504	0.773192	-0.045532
C158	C	0.564806	0.773149	-0.303266
C159	C	0.564824	0.824162	-0.377426
C160	C	0.533585	0.849683	-0.459926
C161	C	0.502331	0.824182	-0.468266
C162	C	0.502318	0.773166	-0.394107
H163	H	0.657884	-0.137274	0.180653
C164	C	0.256199	0.745120	-0.212503
C165	C	0.312312	0.688988	-0.130921
C166	C	0.305998	0.660929	-0.040177
C167	C	0.243573	0.689003	-0.031016
C168	C	0.187456	0.745139	-0.112600
C169	C	0.193769	0.773197	-0.203344
H170	H	0.358527	0.668203	-0.137701
H171	H	0.347540	0.619374	0.020217
H172	H	0.238899	0.668233	0.036159
H173	H	0.141241	0.765924	-0.105821
H174	H	0.152228	0.814753	-0.263739
C175	C	0.149063	0.852269	-0.368215
C176	C	0.130320	0.887320	-0.320529
C177	C	0.067901	0.915367	-0.311333
C178	C	0.024226	0.908363	-0.349824
C179	C	0.042968	0.873310	-0.397513
C180	C	0.105387	0.845263	-0.406709
H181	H	0.162652	0.892506	-0.292033
H182	H	0.054027	0.941315	-0.276031
H183	H	-0.021980	0.929125	-0.343017
H184	H	0.010636	0.868124	-0.426009
H185	H	0.119261	0.819315	-0.442012
C186	C	0.599119	0.214492	0.558810
C187	C	0.649794	0.137324	0.622295
C188	C	0.684172	0.109268	0.713028
C189	C	0.667876	0.158379	0.740275
C190	C	0.617198	0.235551	0.676789
C191	C	0.582820	0.263607	0.586057
H192	H	0.661860	0.100965	0.602126
H193	H	0.721687	0.052140	0.760024
H194	H	0.693324	0.137610	0.807441
H195	H	0.605132	0.271910	0.696958
H196	H	0.545305	0.320735	0.539060
C197	C	0.467886	0.214473	0.368131
C198	C	0.433521	0.242516	0.277403
C199	C	0.399162	0.214437	0.268270
C200	C	0.399168	0.158315	0.349864
C201	C	0.433535	0.130269	0.440599
C202	C	0.467894	0.158348	0.449732
H203	H	0.433515	0.284064	0.216996
H204	H	0.373721	0.235199	0.201102
H205	H	0.373734	0.137529	0.343103
H206	H	0.433541	0.088721	0.501005
H207	H	0.493335	0.137586	0.516900
H208	H	0.476866	0.752413	-0.400910
C209	C	0.161082	0.905868	-0.541478
C210	C	0.098665	0.933889	-0.532288
C211	C	0.042535	0.990016	-0.613853
C212	C	0.048824	1.018122	-0.704608
C213	C	0.111244	0.990101	-0.713802
C214	C	0.167373	0.933973	-0.632237
H215	H	0.094007	0.913084	-0.465103
H216	H	-0.003672	1.010760	-0.607047
H217	H	0.007274	1.059671	-0.764987
H218	H	0.115901	1.010906	-0.780988
H219	H	0.213580	0.913230	-0.639044
C220	C	-0.254723	0.533342	0.134760
C221	C	-0.260035	0.473813	0.195694
C222	C	-0.288093	0.473809	0.266346
C223	C	-0.310839	0.533332	0.276064
C224	C	-0.305527	0.592866	0.215128
C225	C	-0.277469	0.592870	0.144476
H226	H	-0.243197	0.429746	0.188502
H227	H	-0.292025	0.429738	0.311455
H228	H	-0.331609	0.533329	0.328365
H229	H	-0.322365	0.636933	0.222320
H230	H	-0.273538	0.636941	0.099367
C231	C	0.280250	0.852299	-0.559012
C232	C	0.253748	0.845293	-0.622472
C233	C	0.260035	0.873365	-0.713232
C234	C	0.292823	0.908443	-0.740532
C235	C	0.319328	0.915451	-0.677070
C236	C	0.313041	0.887379	-0.586310
H237	H	0.229473	0.819324	-0.602264
H238	H	0.240414	0.868177	-0.760210
H239	H	0.297477	0.929224	-0.807718
H240	H	0.343602	0.941419	-0.697278
H241	H	0.332662	0.892566	-0.539332
C242	C	0.387401	0.745133	-0.403286
C243	C	0.393690	0.773207	-0.494041
C244	C	0.456109	0.745149	-0.503237
C245	C	0.512238	0.689017	-0.421679
C246	C	0.505950	0.660940	-0.330919
C247	C	0.443532	0.688998	-0.321722
H248	H	0.352139	0.814761	-0.554420
H249	H	0.460763	0.765933	-0.570425
H250	H	0.558444	0.668247	-0.428487
H251	H	0.547502	0.619385	-0.270539
H252	H	0.438878	0.668213	-0.254535
H253	H	0.371217	0.752391	0.082280
C254	C	0.599199	0.852212	-0.368240
C255	C	0.565715	0.929377	-0.406741
C256	C	0.600090	0.957425	-0.397553
C257	C	0.667948	0.908307	-0.349865
C258	C	0.701436	0.831138	-0.311361
C259	C	0.667061	0.803090	-0.320549
H260	H	0.515479	0.965741	-0.442046
H261	H	0.575300	1.014551	-0.426057
H262	H	0.693394	0.929070	-0.343064
H263	H	0.751672	0.794774	-0.276056
H264	H	0.691851	0.745963	-0.292045
C265	C	0.905980	0.160878	0.541286
C266	C	0.916876	0.174893	0.607052
C267	C	0.973005	0.118764	0.688617
C268	C	1.018238	0.048618	0.704416
C269	C	1.007344	0.034599	0.638648
C270	C	0.951215	0.090729	0.557083
H271	H	0.883391	0.226822	0.595358
H272	H	0.981070	0.129141	0.737302
H273	H	1.059789	0.007067	0.764795
H274	H	1.040829	-0.017329	0.650341
H275	H	0.943150	0.080351	0.508397
H276	H	0.788375	0.221782	-0.082493
C277	C	0.440767	-0.054967	-0.134992
C278	C	0.398849	-0.007744	-0.109400
C279	C	0.350244	0.068921	-0.180055
C280	C	0.343558	0.098362	-0.276302
C281	C	0.385477	0.051138	-0.301898
C282	C	0.434082	-0.025527	-0.231244
H283	H	0.403798	-0.029537	-0.038148
H284	H	0.319213	0.103879	-0.161106
H285	H	0.307577	0.155114	-0.328605
H286	H	0.380528	0.072931	-0.373150
H287	H	0.465113	-0.060485	-0.250193
C288	C	0.599134	0.402133	-0.441200
C289	C	0.666995	0.350574	-0.413919
C290	C	0.701353	0.281839	-0.323166
C291	C	0.667849	0.264662	-0.259694
C292	C	0.599985	0.316222	-0.286973
C293	C	0.565627	0.384957	-0.377726
H294	H	0.691799	0.363288	-0.460906
H295	H	0.751591	0.243671	-0.302972
H296	H	0.693283	0.213780	-0.192513
H297	H	0.575180	0.303508	-0.239986
H298	H	0.515389	0.423125	-0.397920
C299	C	0.626343	-0.240570	0.134771
C300	C	0.692555	-0.284037	0.144503
C301	C	0.741154	-0.304594	0.215167
C302	C	0.723542	-0.281686	0.276100
C303	C	0.657327	-0.238217	0.266371
C304	C	0.608727	-0.217659	0.195706
H305	H	0.705595	-0.300997	0.099395
H306	H	0.790171	-0.336773	0.222370
H307	H	0.759518	-0.296904	0.328410
H308	H	0.644286	-0.221256	0.311478
H309	H	0.559710	-0.185480	0.188504
C310	C	0.810863	0.321606	0.212311
C311	C	0.873288	0.293547	0.203149
C312	C	0.879602	0.321611	0.112405
C313	C	0.823490	0.377733	0.030823
C314	C	0.761059	0.405794	0.039982
C315	C	0.754746	0.377731	0.130726
H316	H	0.914830	0.252000	0.263543
H317	H	0.925817	0.300838	0.105625
H318	H	0.828163	0.398507	-0.036351
H319	H	0.719518	0.447342	-0.020412
H320	H	0.708531	0.398504	0.137506
C321	C	0.917999	0.214466	0.368022
C322	C	0.961662	0.137300	0.406520
C323	C	1.024080	0.109244	0.397324
C324	C	1.042836	0.158354	0.349628
C325	C	0.999172	0.235524	0.311127
C326	C	0.936753	0.263580	0.320323
H327	H	0.947778	0.100941	0.441830
H328	H	1.056403	0.052117	0.425826
H329	H	1.089041	0.137585	0.342821
H330	H	1.013055	0.271883	0.275817
H331	H	0.904430	0.320707	0.291821
C332	C	0.161132	0.905848	-0.000112
C333	C	0.167461	0.933892	0.049846
C334	C	0.111355	0.990014	0.049863
C335	C	0.048921	1.018093	-0.000078
C336	C	0.042589	0.990049	-0.050040
C337	C	0.098695	0.933927	-0.050057
H338	H	0.213681	0.913106	0.086819
H339	H	0.116043	1.010773	0.086849
H340	H	0.007388	1.059638	-0.000066
H341	H	-0.003631	1.010835	-0.087013
H342	H	0.094007	0.913168	-0.087043
H343	H	0.257816	0.752429	-0.082506
H344	H	0.590208	0.419994	-0.370600
C345	C	0.467934	0.664583	-0.631974
C346	C	0.417253	0.681770	-0.593481
C347	C	0.382893	0.750505	-0.602652
C348	C	0.399215	0.802053	-0.650314
C349	C	0.449899	0.784868	-0.688810
C350	C	0.484258	0.716133	-0.679640
H351	H	0.405169	0.643610	-0.558196
H352	H	0.345373	0.763226	-0.574154
H353	H	0.373779	0.852935	-0.657102
H354	H	0.461983	0.823028	-0.724095
H355	H	0.521778	0.703411	-0.708137
C356	C	0.599178	0.745078	-0.212521
C357	C	0.633559	0.773125	-0.203365
C358	C	0.667937	0.745054	-0.112623
C359	C	0.667934	0.688935	-0.031038
C360	C	0.633551	0.660884	-0.040192
C361	C	0.599173	0.688956	-0.130934
H362	H	0.633563	0.814670	-0.263761
H363	H	0.693389	0.765819	-0.105847
H364	H	0.693382	0.668155	0.036135
H365	H	0.633548	0.619339	0.020205
H366	H	0.573721	0.668191	-0.137710
H367	H	0.533600	0.891224	-0.520305
C368	C	0.467950	0.664586	-0.787708
C369	C	0.467962	0.664588	-0.869281
C370	C	0.433618	0.733326	-0.960031
C371	C	0.399261	0.802061	-0.969209
C372	C	0.399247	0.802061	-0.887633
C373	C	0.433592	0.733324	-0.796883
H374	H	0.493396	0.613704	-0.862489
H375	H	0.433628	0.733326	-1.020419
H376	H	0.373837	0.852945	-1.036388
H377	H	0.373813	0.852946	-0.894425
H378	H	0.433581	0.733324	-0.736495
H379	H	0.533497	0.175497	0.520164
C380	C	0.599141	0.402131	-0.596941
C381	C	0.633509	0.333395	-0.506197
C382	C	0.667877	0.264658	-0.497023
C383	C	0.667876	0.264658	-0.578594
C384	C	0.633507	0.333397	-0.669345
C385	C	0.599139	0.402134	-0.678519
H386	H	0.633511	0.333393	-0.445807
H387	H	0.693319	0.213773	-0.429842
H388	H	0.693317	0.213775	-0.571803
H389	H	0.633505	0.333400	-0.729734
H390	H	0.573696	0.453019	-0.745699
H391	H	0.657875	-0.044726	0.180658
C392	C	0.626301	0.121684	0.134802
C393	C	0.692510	0.092266	0.144525
C394	C	0.741120	0.015602	0.215175
C395	C	0.723521	-0.031644	0.276103
C396	C	0.657310	-0.002227	0.266383
C397	C	0.608700	0.074437	0.195732
H398	H	0.705540	0.127241	0.099421
H399	H	0.790134	-0.006174	0.222371
H400	H	0.759505	-0.088395	0.328403
H401	H	0.644280	-0.037202	0.311487
H402	H	0.559686	0.096213	0.188537
C403	C	0.786814	0.214431	0.558820
C404	C	0.813310	0.221426	0.622300
C405	C	0.807026	0.193333	0.713062
C406	C	0.774246	0.158244	0.740344
C407	C	0.747747	0.151247	0.676862
C408	C	0.754031	0.179341	0.586100
H409	H	0.837579	0.247402	0.602106
H410	H	0.826643	0.198512	0.760055
H411	H	0.769594	0.137447	0.807531
H412	H	0.723479	0.125271	0.697056
H413	H	0.734415	0.174161	0.539107
H414	H	0.613720	-0.327782	0.116411
H415	H	0.695878	0.314296	0.400712
H416	H	0.278687	0.844957	0.082273
H417	H	0.453334	0.394493	-0.116587
C418	C	0.626287	0.228830	0.134808
C419	C	0.668190	0.251771	0.109200
C420	C	0.716788	0.231235	0.179844
C421	C	0.723482	0.187759	0.276094
C422	C	0.681578	0.164816	0.301706
C423	C	0.632980	0.185352	0.231063
H424	H	0.663236	0.283957	0.037946
H425	H	0.747808	0.248220	0.160883
H426	H	0.759457	0.172558	0.328389
H427	H	0.686532	0.132630	0.372961
H428	H	0.601960	0.168367	0.250023
C429	C	0.440727	0.307278	-0.134959
C430	C	0.434033	0.350766	-0.231207
C431	C	0.385429	0.371323	-0.301863
C432	C	0.343518	0.348392	-0.276271
C433	C	0.350211	0.304901	-0.180019
C434	C	0.398815	0.284344	-0.109363
H435	H	0.465059	0.367744	-0.250156
H436	H	0.380474	0.403518	-0.373115
H437	H	0.307538	0.363609	-0.328575
H438	H	0.319185	0.287923	-0.161070
H439	H	0.403769	0.252150	-0.038110
H440	H	0.409202	0.203977	-0.180871
C441	C	0.599126	0.402141	-0.212480
C442	C	0.633487	0.333404	-0.203298
C443	C	0.667850	0.264668	-0.112546
C444	C	0.667852	0.264668	-0.030976
C445	C	0.633490	0.333407	-0.040154
C446	C	0.599127	0.402144	-0.130906
H447	H	0.633487	0.333402	-0.263684
H448	H	0.693287	0.213783	-0.105752
H449	H	0.693290	0.213785	0.036204
H450	H	0.633491	0.333410	0.020232
H451	H	0.573690	0.453029	-0.137700
H452	H	0.476816	0.314321	0.235934
H453	H	-0.012719	0.533350	-0.180839
C454	C	0.918005	0.214432	0.095271
C455	C	0.961678	0.221431	0.046582
C456	C	1.024116	0.193336	0.096545
C457	C	1.042881	0.158242	0.195196
C458	C	0.999206	0.151242	0.243889
C459	C	0.936768	0.179337	0.193927
H460	H	0.947789	0.247411	-0.026450
H461	H	1.056447	0.198519	0.060498
H462	H	1.089101	0.137445	0.232181
H463	H	1.013096	0.125262	0.316922
H464	H	0.904437	0.174154	0.229974
H465	H	-0.154862	0.533349	-0.116632
H466	H	0.165276	0.845008	-0.082506
H467	H	0.476898	0.844969	-0.535448
H468	H	0.453406	-0.167455	-0.116642
C469	C	0.321788	0.533386	-0.134961
C470	C	0.344529	0.473866	-0.144685
C471	C	0.372590	0.473869	-0.215334
C472	C	0.377910	0.533393	-0.276259
C473	C	0.355169	0.592917	-0.266537
C474	C	0.327108	0.592914	-0.195888
H475	H	0.340591	0.429799	-0.099583
H476	H	0.389425	0.429805	-0.222531
H477	H	0.398683	0.533395	-0.328558
H478	H	0.359107	0.636984	-0.311639
H479	H	0.310273	0.636978	-0.188691
H480	H	0.409217	0.111422	-0.180875
H481	H	0.221954	0.533367	-0.116613
H482	H	0.079823	0.533362	-0.180839
H483	H	-0.247422	0.533342	-0.116628
H484	H	-0.154879	0.533338	0.116423
H485	H	0.695845	0.314336	-0.082482
C486	C	-0.020018	0.533316	0.199023
C487	C	0.016765	0.473782	0.295267
C488	C	-0.011285	0.473765	0.365930
C489	C	-0.076117	0.533282	0.340349
C490	C	-0.112903	0.592821	0.244101
C491	C	-0.084854	0.592838	0.173438
H492	H	0.064761	0.429720	0.314207
H493	H	0.015948	0.429690	0.437179
H494	H	-0.096880	0.533270	0.392659
H495	H	-0.160899	0.636883	0.225161
H496	H	-0.112086	0.636913	0.102188
H497	H	0.079821	0.533323	0.180671
H498	H	0.221921	0.533375	0.116430
C499	C	0.321771	0.533372	0.134789
C500	C	0.344517	0.473840	0.231036
C501	C	0.372582	0.473830	0.301687
C502	C	0.377900	0.533352	0.276092
C503	C	0.355153	0.592889	0.179840
C504	C	0.327088	0.592899	0.109188
H505	H	0.340581	0.429774	0.249987
H506	H	0.389421	0.429757	0.372939
H507	H	0.398674	0.533345	0.328392
H508	H	0.359089	0.636955	0.160888
H509	H	0.310250	0.636972	0.037936
H510	H	0.476846	0.646737	-0.400880
H511	H	0.476860	0.646731	-0.535406
H512	H	0.809246	0.314293	0.082311
H513	H	0.891353	0.175474	-0.000114
H514	H	0.590194	0.314329	0.400686
