data_functionalizedCrystal
_audit_creation_method	'MofGen! by Chris Wilmer'
_symmetry_space_group_name_H-M	'P1'
_symmetry_Int_Tables_number	1
_symmetry_cell_setting	triclinic
loop_
_symmetry_equiv_pos_as_xyz
  x,y,z
_cell_length_a	18.215407
_cell_length_b	18.101395
_cell_length_c	18.215399
_cell_angle_alpha	89.971163
_cell_angle_beta	89.983176
_cell_angle_gamma	90.031552
loop_
_atom_site_label
_atom_site_type_symbol
_atom_site_fract_x
_atom_site_fract_y
_atom_site_fract_z
Zn1	Zn	1.125018	-0.294811	-0.416124
Zn2	Zn	1.124920	-0.418662	-0.293061
Zn3	Zn	1.001957	-0.294840	-0.293071
Zn4	Zn	1.001903	-0.418616	-0.416086
O5	O	1.063450	-0.356732	-0.354585
O6	O	1.227989	-0.311247	-0.399811
O7	O	1.108590	-0.402269	-0.190078
O8	O	1.018345	-0.191203	-0.309415
O9	O	1.227917	-0.402240	-0.309397
O10	O	1.108758	-0.191182	-0.399821
O11	O	1.018250	-0.311297	-0.190085
O12	O	0.898966	-0.311252	-0.309378
O13	O	1.018254	-0.402161	-0.519075
O14	O	0.898926	-0.402190	-0.399756
O15	O	1.108706	-0.311202	-0.519103
O16	O	1.108538	-0.522289	-0.309360
O17	O	1.018158	-0.522255	-0.399746
C18	C	0.872243	-0.356720	-0.354564
C19	C	0.790445	-0.356732	-0.354573
C20	C	0.602249	-0.404158	-0.401573
C21	C	0.525391	-0.404160	-0.401583
C22	C	0.525402	-0.309320	-0.307613
C23	C	0.602260	-0.309315	-0.307608
C24	C	0.640681	-0.356738	-0.354587
C25	C	0.486965	-0.356746	-0.354601
C26	C	0.403631	-0.356748	-0.354611
C27	C	0.724020	-0.356735	-0.354579
C28	C	1.063351	-0.549143	-0.354564
C29	C	1.063376	-0.631457	-0.354579
C30	C	1.063538	-0.930548	-0.354619
C31	C	1.006805	-0.899232	-0.411628
C32	C	1.006536	-0.813614	-0.411450
C33	C	1.063458	-0.782165	-0.354600
C34	C	1.042464	-0.813319	-0.277038
C35	C	1.042098	-0.898964	-0.277380
C36	C	1.141388	-0.898890	-0.374487
C37	C	1.140931	-0.813239	-0.376188
C38	C	1.063414	-0.698306	-0.354584
C39	C	1.063580	-1.014407	-0.354629
C40	C	1.255403	-0.356746	-0.354607
C41	C	1.337201	-0.356751	-0.354616
C42	C	1.063484	-0.356673	-0.546538
C43	C	1.063499	-0.356648	-0.628337
C44	C	1.063569	-0.163570	-0.354623
C45	C	1.063619	-0.081256	-0.354639
C46	C	1.016499	-0.309247	-0.816536
C47	C	1.016512	-0.309232	-0.893395
C48	C	1.110588	-0.403961	-0.893376
C49	C	1.110571	-0.403979	-0.816519
C50	C	1.063527	-0.356618	-0.778101
C51	C	1.063557	-0.356585	-0.931817
C52	C	1.063571	-0.356569	-1.015151
C53	C	1.063512	-0.356634	-0.694762
C54	C	1.063457	-0.356738	-0.163379
C55	C	1.063585	-0.356554	-0.081580
H56	H	0.494110	-0.270712	-0.269363
H57	H	0.633530	-0.442771	-0.439829
H58	H	0.494103	-0.442773	-0.439845
H59	H	0.633552	-0.270695	-0.269346
H60	H	1.019670	-0.792548	-0.468960
H61	H	0.948831	-0.793192	-0.398289
H62	H	1.082486	-0.792950	-0.233404
N63	N	1.158625	-0.452368	-0.777268
N64	N	1.226537	-0.447455	-0.785860
H65	H	1.260474	-0.481631	-0.758141
N66	N	1.023161	-0.924958	-0.484016
N67	N	1.076817	-0.966679	-0.494438
H68	H	1.088384	-0.984834	-0.545567
N69	N	0.968441	-0.260887	-0.777281
N70	N	0.968429	-0.260909	-0.708659
H71	H	0.934485	-0.226756	-0.680935
H72	H	0.978216	-0.270659	-0.924685
H73	H	0.949451	-0.920819	-0.398633
H74	H	0.985190	-0.919008	-0.260549
N75	N	1.091671	-0.924949	-0.222260
N76	N	1.126424	-0.879829	-0.183660
H77	H	1.161426	-0.898177	-0.144725
H78	H	1.148889	-0.442520	-0.924666
H79	H	1.160529	-0.920437	-0.430081
N80	N	0.971830	-0.786489	-0.255550
N81	N	0.936831	-0.744433	-0.297224
H82	H	0.886944	-0.725483	-0.282052
H83	H	1.185435	-0.791828	-0.337692
N84	N	1.160785	-0.787689	-0.447796
N85	N	1.118078	-0.746745	-0.482840
H86	H	1.132097	-0.728697	-0.533415
N87	N	1.194406	-0.924293	-0.322392
N88	N	1.175040	-0.965532	-0.270835
H89	H	1.212478	-0.983475	-0.234039
