data_functionalizedCrystal
_audit_creation_method	'MofGen! by Chris Wilmer'
_symmetry_space_group_name_H-M	'P1'
_symmetry_Int_Tables_number	1
_symmetry_cell_setting	triclinic
loop_
_symmetry_equiv_pos_as_xyz
  x,y,z
_cell_length_a	19.288840
_cell_length_b	16.109301
_cell_length_c	18.366186
_cell_angle_alpha	89.992337
_cell_angle_beta	89.983729
_cell_angle_gamma	83.293748
loop_
_atom_site_label
_atom_site_type_symbol
_atom_site_fract_x
_atom_site_fract_y
_atom_site_fract_z
O1	O	0.921611	0.103617	-0.060674
O2	O	1.171611	0.353617	0.189326
O3	O	1.421611	0.603617	0.439326
O4	O	1.671611	0.853617	0.689326
O5	O	0.719382	0.117629	-0.060649
O6	O	0.969382	0.367629	0.189351
O7	O	1.219382	0.617629	0.439351
O8	O	1.469382	0.867629	0.689351
O9	O	0.826052	-0.010428	-0.060654
O10	O	1.076052	0.239572	0.189346
O11	O	1.326052	0.489572	0.439346
O12	O	1.576052	0.739572	0.689346
O13	O	0.814941	0.231674	-0.060668
O14	O	1.064941	0.481674	0.189332
O15	O	1.314941	0.731674	0.439332
O16	O	1.564941	0.981674	0.689332
O17	O	0.826034	-0.010434	0.060445
O18	O	1.076034	0.239566	0.310445
O19	O	1.326034	0.489566	0.560445
O20	O	1.576034	0.739566	0.810445
O21	O	0.719363	0.117623	0.060451
O22	O	0.969363	0.367623	0.310451
O23	O	1.219363	0.617623	0.560451
O24	O	1.469363	0.867623	0.810451
O25	O	0.921593	0.103610	0.060426
O26	O	1.171593	0.353610	0.310426
O27	O	1.421593	0.603610	0.560426
O28	O	1.671593	0.853610	0.810426
Zn29	Zn	0.820475	0.110616	0.079665
Zn30	Zn	1.070475	0.360616	0.329665
Zn31	Zn	1.320475	0.610616	0.579665
Zn32	Zn	1.570475	0.860616	0.829665
Zn33	Zn	0.820499	0.110624	-0.079888
Zn34	Zn	1.070499	0.360624	0.170112
Zn35	Zn	1.320499	0.610624	0.420112
Zn36	Zn	1.570499	0.860624	0.670112
O37	O	0.814923	0.231667	0.060432
O38	O	1.064923	0.481667	0.310432
O39	O	1.314923	0.731667	0.560432
O40	O	1.564923	0.981667	0.810432
C41	C	0.693495	0.117179	-0.000096
C42	C	0.943495	0.367179	0.249904
C43	C	1.193495	0.617179	0.499904
C44	C	1.443495	0.867179	0.749904
C45	C	0.616387	0.115836	-0.000086
C46	C	0.866387	0.365836	0.249914
C47	C	1.116387	0.615836	0.499914
C48	C	1.366387	0.865836	0.749914
C49	C	0.580192	0.115194	-0.066099
C50	C	0.830192	0.365194	0.183901
C51	C	1.080192	0.615194	0.433901
C52	C	1.330192	0.865194	0.683901
C53	C	0.507742	0.113923	-0.066108
C54	C	0.757742	0.363923	0.183892
C55	C	1.007742	0.613923	0.433892
C56	C	1.257742	0.863923	0.683892
C57	C	0.471492	0.113277	-0.000100
C58	C	0.721492	0.363277	0.249900
C59	C	0.971492	0.613277	0.499900
C60	C	1.221492	0.863277	0.749900
C61	C	0.507695	0.113923	0.065922
C62	C	0.757695	0.363923	0.315922
C63	C	1.007695	0.613923	0.565922
C64	C	1.257695	0.863923	0.815922
C65	C	0.580143	0.115203	0.065929
C66	C	0.830143	0.365203	0.315929
C67	C	1.080143	0.615203	0.565929
C68	C	1.330143	0.865203	0.815929
C69	C	0.362035	0.062549	0.050464
C70	C	0.612035	0.312549	0.300464
C71	C	0.862035	0.562549	0.550464
C72	C	1.112035	0.812549	0.800464
C73	C	0.289590	0.061264	0.050455
C74	C	0.539590	0.311264	0.300455
C75	C	0.789590	0.561264	0.550455
C76	C	1.039590	0.811264	0.800455
C77	C	0.248039	0.109334	-0.000119
C78	C	0.498039	0.359334	0.249881
C79	C	0.748039	0.609334	0.499881
C80	C	0.998039	0.859334	0.749881
C81	C	0.278944	0.158677	-0.050694
C82	C	0.528944	0.408677	0.199306
C83	C	0.778944	0.658677	0.449306
C84	C	1.028944	0.908677	0.699306
C85	C	0.351391	0.159957	-0.050687
C86	C	0.601391	0.409957	0.199313
C87	C	0.851391	0.659957	0.449313
C88	C	1.101391	0.909957	0.699313
C89	C	0.392934	0.111890	-0.000100
C90	C	0.642934	0.361890	0.249900
C91	C	0.892934	0.611890	0.499900
C92	C	1.142934	0.861890	0.749900
C93	C	0.133285	0.107315	-0.066146
C94	C	0.383285	0.357315	0.183854
C95	C	0.633285	0.607315	0.433854
C96	C	0.883285	0.857315	0.683854
C97	C	0.060833	0.106049	-0.066152
C98	C	0.310833	0.356049	0.183848
C99	C	0.560833	0.606049	0.433848
C100	C	0.810833	0.856049	0.683848
C101	C	0.060789	0.106041	0.065880
C102	C	0.310789	0.356041	0.315880
C103	C	0.560789	0.606041	0.565880
C104	C	0.810789	0.856041	0.815880
C105	C	0.133238	0.107315	0.065884
C106	C	0.383238	0.357315	0.315884
C107	C	0.633238	0.607315	0.565884
C108	C	0.883238	0.857315	0.815884
C109	C	0.169482	0.107948	-0.000131
C110	C	0.419482	0.357948	0.249869
C111	C	0.669482	0.607948	0.499869
C112	C	0.919482	0.857948	0.749869
C113	C	0.825593	-0.041404	-0.000104
C114	C	1.075593	0.208596	0.249896
C115	C	1.325593	0.458596	0.499896
C116	C	1.575593	0.708596	0.749896
C117	C	0.824243	-0.133694	-0.000103
C118	C	1.074243	0.116306	0.249897
C119	C	1.324243	0.366306	0.499897
C120	C	1.574243	0.616306	0.749897
C121	C	0.884402	-0.356179	-0.000122
C122	C	1.134402	-0.106179	0.249878
C123	C	1.384402	0.143821	0.499878
C124	C	1.634402	0.393821	0.749878
C125	C	0.883129	-0.442895	-0.000128
C126	C	1.133129	-0.192895	0.249872
C127	C	1.383129	0.057105	0.499872
C128	C	1.633129	0.307105	0.749872
C129	C	0.756568	-0.422574	-0.000109
C130	C	1.006568	-0.172574	0.249891
C131	C	1.256568	0.077426	0.499891
C132	C	1.506568	0.327426	0.749891
C133	C	0.757842	-0.335860	-0.000109
C134	C	1.007842	-0.085860	0.249891
C135	C	1.257842	0.164140	0.499891
C136	C	1.507842	0.414140	0.749891
C137	C	0.821761	-0.302665	-0.000111
C138	C	1.071761	-0.052665	0.249889
C139	C	1.321761	0.197335	0.499889
C140	C	1.571761	0.447335	0.749889
C141	C	0.819214	-0.476095	-0.000118
C142	C	1.069214	-0.226095	0.249882
C143	C	1.319214	0.023905	0.499882
C144	C	1.569214	0.273905	0.749882
C145	C	0.817833	-0.570116	-0.000124
C146	C	1.067833	-0.320116	0.249876
C147	C	1.317833	-0.070116	0.499876
C148	C	1.567833	0.179884	0.749876
C149	C	0.823142	-0.208638	-0.000106
C150	C	1.073142	0.041362	0.249894
C151	C	1.323142	0.291362	0.499894
C152	C	1.573142	0.541362	0.749894
C153	C	0.947480	0.104061	-0.000129
C154	C	1.197480	0.354061	0.249871
C155	C	1.447480	0.604061	0.499871
C156	C	1.697480	0.854061	0.749871
C157	C	1.024588	0.105404	-0.000143
C158	C	1.274588	0.355404	0.249857
C159	C	1.524588	0.605404	0.499857
C160	C	1.774588	0.855404	0.749857
N161	N	0.820464	0.110610	0.188557
N162	N	1.070464	0.360610	0.438557
N163	N	1.320464	0.610610	0.688557
N164	N	1.570464	0.860610	0.938557
C165	C	0.815382	0.262644	-0.000120
C166	C	1.065382	0.512644	0.249880
C167	C	1.315382	0.762644	0.499880
C168	C	1.565382	1.012644	0.749880
C169	C	0.816731	0.354934	-0.000126
C170	C	1.066731	0.604934	0.249874
C171	C	1.316731	0.854934	0.499874
C172	C	1.566731	1.104934	0.749874
N173	N	0.820516	0.110624	-0.188779
N174	N	1.070516	0.360624	0.061221
N175	N	1.320516	0.610624	0.311221
N176	N	1.570516	0.860624	0.561221
C177	C	0.867713	0.053934	0.226654
C178	C	1.117713	0.303934	0.476654
C179	C	1.367713	0.553934	0.726654
C180	C	1.617713	0.803934	0.976654
C181	C	0.867718	0.053930	0.302882
C182	C	1.117718	0.303930	0.552882
C183	C	1.367718	0.553930	0.802882
C184	C	1.617718	0.803930	1.052882
C185	C	0.820480	0.110617	0.341009
C186	C	1.070480	0.360617	0.591009
C187	C	1.320480	0.610617	0.841009
C188	C	1.570480	0.860617	1.091009
C189	C	0.773222	0.167297	0.302902
C190	C	1.023222	0.417297	0.552902
C191	C	1.273222	0.667297	0.802902
C192	C	1.523222	0.917297	1.052902
C193	C	0.773214	0.167293	0.226676
C194	C	1.023214	0.417293	0.476676
C195	C	1.273214	0.667293	0.726676
C196	C	1.523214	0.917293	0.976676
C197	C	0.811362	0.186371	0.461766
C198	C	1.061362	0.436371	0.711766
C199	C	1.311362	0.686371	0.961766
C200	C	1.561362	0.936371	1.211766
C201	C	0.811375	0.186376	0.537991
C202	C	1.061375	0.436376	0.787991
C203	C	1.311375	0.686376	1.037991
C204	C	1.561375	0.936376	1.287991
C205	C	0.820499	0.110627	0.576117
C206	C	1.070499	0.360627	0.826117
C207	C	1.320499	0.610627	1.076117
C208	C	1.570499	0.860627	1.326117
C209	C	0.829626	0.034870	0.538008
C210	C	1.079626	0.284870	0.788008
C211	C	1.329626	0.534870	1.038008
C212	C	1.579626	0.784870	1.288008
C213	C	0.829618	0.034867	0.461782
C214	C	1.079618	0.284867	0.711782
C215	C	1.329618	0.534867	0.961782
C216	C	1.579618	0.784867	1.211782
C217	C	0.820482	0.110626	0.423664
C218	C	1.070482	0.360626	0.673664
C219	C	1.320482	0.610626	0.923664
C220	C	1.570482	0.860626	1.173664
C221	C	0.867756	0.053942	0.696870
C222	C	1.117756	0.303942	0.946870
C223	C	1.367756	0.553942	1.196870
C224	C	1.617756	0.803942	1.446870
C225	C	0.867755	0.053938	0.773099
C226	C	1.117755	0.303938	1.023099
C227	C	1.367755	0.553938	1.273099
C228	C	1.617755	0.803938	1.523099
C229	C	0.773263	0.167311	0.773117
C230	C	1.023263	0.417311	1.023117
C231	C	1.273263	0.667311	1.273117
C232	C	1.523263	0.917311	1.523117
C233	C	0.773260	0.167309	0.696890
C234	C	1.023260	0.417309	0.946890
C235	C	1.273260	0.667309	1.196890
C236	C	1.523260	0.917309	1.446890
C237	C	0.820510	0.110625	0.658770
C238	C	1.070510	0.360625	0.908770
C239	C	1.320510	0.610625	1.158770
C240	C	1.570510	0.860625	1.408770
H241	H	0.031364	0.105531	-0.119910
H242	H	0.281364	0.355531	0.130090
H243	H	0.531364	0.605531	0.380090
H244	H	0.781364	0.855531	0.630090
H245	H	0.803948	0.248061	0.569013
H246	H	1.053948	0.498061	0.819013
H247	H	1.303948	0.748061	1.069013
H248	H	1.553948	0.998061	1.319013
Cl249	Cl	0.676217	-0.464311	-0.000106
Cl250	Cl	0.926217	-0.214311	0.249894
Cl251	Cl	1.176217	0.035689	0.499894
Cl252	Cl	1.426217	0.285689	0.749894
H253	H	0.706829	-0.292286	-0.000102
H254	H	0.956829	-0.042286	0.249898
H255	H	1.206829	0.207714	0.499898
H256	H	1.456829	0.457714	0.749898
H257	H	0.934137	-0.486463	-0.000138
H258	H	1.184137	-0.236463	0.249862
H259	H	1.434137	0.013537	0.499862
H260	H	1.684137	0.263537	0.749862
Cl261	Cl	0.799955	0.281610	0.413845
Cl262	Cl	1.049955	0.531610	0.663845
Cl263	Cl	1.299955	0.781610	0.913845
Cl264	Cl	1.549955	1.031610	1.163845
H265	H	0.478175	0.113399	0.119666
H266	H	0.728175	0.363399	0.369666
H267	H	0.978175	0.613399	0.619666
H268	H	1.228175	0.863399	0.869666
Cl269	Cl	0.015223	0.105237	0.148862
Cl270	Cl	0.265223	0.355237	0.398862
Cl271	Cl	0.515223	0.605237	0.648862
Cl272	Cl	0.765223	0.855237	0.898862
H273	H	0.936449	-0.329155	-0.000126
H274	H	1.186449	-0.079155	0.249874
H275	H	1.436449	0.170845	0.499874
H276	H	1.686449	0.420845	0.749874
H277	H	0.906185	0.007777	0.195620
H278	H	1.156185	0.257777	0.445620
H279	H	1.406185	0.507777	0.695620
H280	H	1.656185	0.757777	0.945620
Cl281	Cl	0.927123	-0.017325	0.350785
Cl282	Cl	1.177123	0.232675	0.600785
Cl283	Cl	1.427123	0.482675	0.850785
Cl284	Cl	1.677123	0.732675	1.100785
H285	H	0.837048	-0.026817	0.430757
H286	H	1.087048	0.223183	0.680757
H287	H	1.337048	0.473183	0.930757
H288	H	1.587048	0.723183	1.180757
Cl289	Cl	0.462230	0.113115	-0.149102
Cl290	Cl	0.712230	0.363115	0.100898
Cl291	Cl	0.962230	0.613115	0.350898
Cl292	Cl	1.212230	0.863115	0.600898
Cl293	Cl	0.178744	0.108117	0.148877
Cl294	Cl	0.428744	0.358117	0.398877
Cl295	Cl	0.678744	0.608117	0.648877
Cl296	Cl	0.928744	0.858117	0.898877
H297	H	0.837056	-0.026812	0.569049
H298	H	1.087056	0.223188	0.819049
H299	H	1.337056	0.473188	1.069049
H300	H	1.587056	0.723188	1.319049
Cl301	Cl	0.713811	0.238550	0.178778
Cl302	Cl	0.963811	0.488550	0.428778
Cl303	Cl	1.213811	0.738550	0.678778
Cl304	Cl	1.463811	0.988550	0.928778
H305	H	0.906228	0.007784	0.665832
H306	H	1.156228	0.257784	0.915832
H307	H	1.406228	0.507784	1.165832
H308	H	1.656228	0.757784	1.415832
H309	H	0.609612	0.115726	0.119686
H310	H	0.859612	0.365726	0.369686
H311	H	1.109612	0.615726	0.619686
H312	H	1.359612	0.865726	0.869686
H313	H	0.734759	0.213450	0.333949
H314	H	0.984759	0.463450	0.583949
H315	H	1.234759	0.713450	0.833949
H316	H	1.484759	0.963450	1.083949
H317	H	0.395861	0.023403	0.091650
H318	H	0.645861	0.273403	0.341650
H319	H	0.895861	0.523403	0.591650
H320	H	1.145861	0.773403	0.841650
H321	H	0.906229	0.007781	0.804119
H322	H	1.156229	0.257781	1.054119
H323	H	1.406229	0.507781	1.304119
H324	H	1.656229	0.757781	1.554119
H325	H	0.245113	0.197823	-0.091873
H326	H	0.495113	0.447823	0.158127
H327	H	0.745113	0.697823	0.408127
H328	H	0.995113	0.947823	0.658127
H329	H	0.734798	0.213463	0.804160
H330	H	0.984798	0.463463	1.054160
H331	H	1.234798	0.713463	1.304160
H332	H	1.484798	0.963463	1.554160
H333	H	0.734788	0.213463	0.665868
H334	H	0.984788	0.463463	0.915868
H335	H	1.234788	0.713463	1.165868
H336	H	1.484788	0.963463	1.415868
H337	H	0.609697	0.115710	-0.119854
H338	H	0.859697	0.365710	0.130146
H339	H	1.109697	0.615710	0.380146
H340	H	1.359697	0.865710	0.630146
Cl341	Cl	0.250743	-0.000746	0.114049
Cl342	Cl	0.500743	0.249254	0.364049
Cl343	Cl	0.750743	0.499254	0.614049
Cl344	Cl	1.000743	0.749254	0.864049
H345	H	0.162795	0.107839	-0.119899
H346	H	0.412795	0.357839	0.130101
H347	H	0.662795	0.607839	0.380101
H348	H	0.912795	0.857839	0.630101
Cl349	Cl	0.390241	0.221989	-0.114262
Cl350	Cl	0.640241	0.471989	0.135738
Cl351	Cl	0.890241	0.721989	0.385738
Cl352	Cl	1.140241	0.971989	0.635738
