data_functionalizedCrystal
_audit_creation_method	'MofGen! by Chris Wilmer'
_symmetry_space_group_name_H-M	'P1'
_symmetry_Int_Tables_number	1
_symmetry_cell_setting	triclinic
loop_
_symmetry_equiv_pos_as_xyz
  x,y,z
_cell_length_a	17.038272
_cell_length_b	16.098538
_cell_length_c	14.519709
_cell_angle_alpha	92.726950
_cell_angle_beta	92.604149
_cell_angle_gamma	92.930266
loop_
_atom_site_label
_atom_site_type_symbol
_atom_site_fract_x
_atom_site_fract_y
_atom_site_fract_z
O1	O	1.041182	0.069155	-0.196445
O2	O	1.541182	0.569155	0.303555
O3	O	0.813547	0.069179	-0.193264
O4	O	1.313547	0.569179	0.306736
O5	O	0.933399	0.069159	-0.061078
O6	O	1.433399	0.569159	0.438922
O7	O	0.921329	0.069175	-0.328631
O8	O	1.421329	0.569175	0.171369
O9	O	0.926398	-0.069353	-0.068768
O10	O	1.426398	0.430647	0.431232
O11	O	0.806546	-0.069332	-0.200953
O12	O	1.306546	0.430668	0.299047
O13	O	1.034180	-0.069357	-0.204135
O14	O	1.534180	0.430643	0.295865
Zn15	Zn	0.919252	-0.091336	-0.203765
Zn16	Zn	1.419252	0.408664	0.296235
Zn17	Zn	0.928476	0.091159	-0.193634
Zn18	Zn	1.428476	0.591159	0.306366
O19	O	0.914328	-0.069336	-0.336320
O20	O	1.414328	0.430664	0.163680
C21	C	0.780914	-0.000073	-0.194216
C22	C	1.280914	0.499927	0.305784
C23	C	0.694107	-0.000064	-0.185585
C24	C	1.194107	0.499936	0.314415
N25	N	0.912962	-0.215884	-0.210678
N26	N	1.412962	0.284116	0.289322
C27	C	0.644122	-0.000060	-0.264818
C28	C	1.144122	0.499940	0.235182
C29	C	0.562557	-0.000072	-0.256704
C30	C	1.062557	0.499928	0.243296
C31	C	0.530981	-0.000082	-0.169357
C32	C	1.030981	0.499918	0.330643
C33	C	0.580972	-0.000089	-0.090119
C34	C	1.080972	0.499911	0.409881
C35	C	0.662535	-0.000083	-0.098233
C36	C	1.162535	0.499917	0.401767
C37	C	0.285175	-0.000106	-0.140689
C38	C	0.785175	0.499894	0.359311
C39	C	0.203606	-0.000110	-0.132580
C40	C	0.703606	0.499890	0.367420
C41	C	0.185197	-0.000095	-0.299167
C42	C	0.685197	0.499905	0.200833
C43	C	0.266762	-0.000084	-0.307273
C44	C	0.766762	0.499916	0.192727
C45	C	0.316746	-0.000095	-0.228035
C46	C	0.816746	0.499905	0.271965
C47	C	0.447609	-0.000092	-0.161061
C48	C	0.947609	0.499908	0.338939
C49	C	0.400116	-0.000091	-0.236332
C50	C	0.900116	0.499909	0.263668
C51	C	0.963851	-0.259478	-0.154596
C52	C	1.463851	0.240522	0.345404
C53	C	0.959458	-0.346666	-0.159442
C54	C	1.459458	0.153334	0.340558
C55	C	0.904180	-0.390259	-0.220376
C56	C	1.404180	0.109741	0.279624
C57	C	0.853285	-0.346660	-0.276460
C58	C	1.353285	0.153340	0.223540
C59	C	0.857675	-0.259473	-0.271609
C60	C	1.357675	0.240527	0.228391
C61	C	0.888267	-0.653507	-0.237946
C62	C	1.388267	-0.153507	0.262054
C63	C	0.883883	-0.740699	-0.242795
C64	C	1.383883	-0.240699	0.257205
C65	C	0.990055	-0.740700	-0.125776
C66	C	1.490055	-0.240700	0.374224
C67	C	0.994443	-0.653512	-0.120934
C68	C	1.494443	-0.153512	0.379066
C69	C	0.943546	-0.609920	-0.177015
C70	C	1.443546	-0.109920	0.322985
C71	C	0.899690	-0.479380	-0.225332
C72	C	1.399690	0.020620	0.274668
C73	C	0.948032	-0.520801	-0.172052
C74	C	1.448032	-0.020801	0.327948
C75	C	1.066814	-0.000102	-0.203183
C76	C	1.566814	0.499898	0.296817
C77	C	1.153621	-0.000106	-0.211813
C78	C	1.653621	0.499894	0.288187
C79	C	0.929336	-0.000097	-0.030520
C80	C	1.429336	0.499903	0.469480
C81	C	0.927650	-0.000097	0.071990
C82	C	1.427650	0.499903	0.571990
N83	N	0.934772	0.215707	-0.186713
N84	N	1.434772	0.715707	0.313287
C85	C	0.918391	-0.000079	-0.366878
C86	C	1.418391	0.499921	0.133122
C87	C	0.920077	-0.000073	-0.469388
C88	C	1.420077	0.499927	0.030612
C89	C	0.921446	-0.000075	0.447362
C90	C	1.421446	0.499925	0.947362
C91	C	0.923169	-0.000081	0.342922
C92	C	1.423169	0.499919	0.842922
C93	C	0.924548	-0.000087	0.259679
C94	C	1.424548	0.499913	0.759679
C95	C	0.926271	-0.000092	0.155233
C96	C	1.426271	0.499908	0.655233
H97	H	0.669825	-0.000051	-0.335945
H98	H	1.169825	0.499949	0.164055
H99	H	0.993037	-0.485305	-0.122437
H100	H	1.493037	0.014695	0.377563
H101	H	0.292466	-0.000066	-0.378400
H102	H	0.792466	0.499934	0.121600
Cl103	Cl	0.830200	-0.534186	-0.301936
Cl104	Cl	1.330200	-0.034186	0.198064
H105	H	0.425829	-0.000087	-0.307450
H106	H	0.925829	0.499913	0.192550
H107	H	1.031492	-0.776201	-0.080116
H108	H	1.531492	-0.276201	0.419884
H109	H	0.846826	-0.618021	-0.283611
H110	H	1.346826	-0.118021	0.216389
H111	H	0.703233	-0.000086	-0.033714
H112	H	1.203233	0.499914	0.466286
Cl113	Cl	0.499721	-0.000062	-0.356316
Cl114	Cl	0.999721	0.499938	0.143684
Cl115	Cl	0.407905	-0.000101	-0.051256
Cl116	Cl	0.907905	0.499899	0.448744
H117	H	0.808273	-0.382158	-0.326070
H118	H	1.308273	0.117842	0.173930
Cl119	Cl	0.163910	-0.000142	-0.022765
Cl120	Cl	0.663910	0.499858	0.477235
Cl121	Cl	0.541275	-0.000107	0.019690
Cl122	Cl	1.041275	0.499893	0.519690
Cl123	Cl	1.033351	-0.204685	-0.077995
Cl124	Cl	1.533351	0.295315	0.422005
H125	H	0.838867	-0.776189	-0.292418
H126	H	1.338867	-0.276189	0.207582
Cl127	Cl	0.122355	-0.000084	-0.398774
Cl128	Cl	0.622355	0.499916	0.101226
Cl129	Cl	0.348002	-0.000120	-0.041074
Cl130	Cl	0.848002	0.499880	0.458926
H131	H	1.000895	-0.382160	-0.113775
H132	H	1.500895	0.117840	0.386225
H133	H	0.816235	-0.223980	-0.317275
H134	H	1.316235	0.276020	0.182725
H135	H	1.039455	-0.618020	-0.071317
H136	H	1.539455	-0.118020	0.428683
