data_functionalizedCrystal
_audit_creation_method	'MofGen! by Chris Wilmer'
_symmetry_space_group_name_H-M	'P1'
_symmetry_Int_Tables_number	1
_symmetry_cell_setting	triclinic
loop_
_symmetry_equiv_pos_as_xyz
  x,y,z
_cell_length_a	19.376995
_cell_length_b	14.809374
_cell_length_c	14.809374
_cell_angle_alpha	60.797835
_cell_angle_beta	104.315076
_cell_angle_gamma	77.261490
loop_
_atom_site_label
_atom_site_type_symbol
_atom_site_fract_x
_atom_site_fract_y
_atom_site_fract_z
Zr1	Zr	0.772150	1.005373	0.021650
O2	O	0.686518	1.157730	-0.150498
O3	O	0.786278	0.828524	0.083849
O4	O	0.814873	0.979530	-0.094346
O5	O	0.649157	1.035650	0.157538
O6	O	0.929912	0.987005	-0.060776
O7	O	0.657923	1.006724	0.027697
O8	O	0.878761	0.716883	0.257983
O9	O	0.700308	1.305772	-0.161222
O10	O	0.892803	0.915914	0.124040
O11	O	0.800409	0.931923	0.195885
O12	O	0.834076	1.109713	-0.013917
O13	O	0.741681	1.125721	0.057928
Zr14	Zr	0.941645	1.063428	0.282270
Zr15	Zr	0.955625	1.017295	0.075190
Zr16	Zr	0.758170	1.051507	0.228730
Zr17	Zr	0.794145	1.241483	0.004547
Zr18	Zr	0.919650	0.827319	0.299373
O19	O	0.927517	1.240277	0.220070
O20	O	0.947395	1.174681	-0.074371
O21	O	0.666640	1.223326	0.143943
O22	O	1.027277	0.911072	0.454418
O23	O	1.047155	0.845475	0.159976
O24	O	0.766400	0.894121	0.378290
O25	O	1.064638	1.033151	0.146382
O26	O	0.898922	1.089271	0.398266
O27	O	0.783883	1.081797	0.364696
O28	O	1.055872	1.062077	0.276222
O29	O	0.846146	1.315248	-0.118664
O30	O	0.867649	0.753554	0.422584
O31	O	1.013487	0.763030	0.465141
O32	O	1.024599	0.726359	0.300540
O33	O	0.689196	1.342442	0.003379
O34	O	0.835034	1.351918	0.045937
O35	O	0.879720	0.959089	0.317836
O36	O	0.972114	0.943080	0.245991
O37	O	0.913387	1.136878	0.108034
O38	O	0.820992	1.152887	0.179880
C39	C	0.829386	0.739063	0.173353
C40	C	0.820048	0.638828	0.180613
C41	C	0.861719	0.586199	0.148210
C42	C	0.852070	0.482601	0.155714
C43	C	0.627399	1.019489	0.084989
C44	C	0.549509	1.014428	0.062260
C45	C	0.444555	0.991358	-0.041301
C46	C	0.517743	0.996116	-0.019935
C47	C	0.508094	1.027982	0.123127
C48	C	0.434905	1.023222	0.101777
C49	C	0.403141	1.004911	0.019561
C50	C	0.393490	1.036774	0.162639
C51	C	0.320306	1.032019	0.141287
C52	C	0.288535	1.013713	0.059072
C53	C	0.329956	1.000156	-0.001791
C54	C	0.425253	1.055093	0.244849
C55	C	0.383839	1.068645	0.305711
C56	C	0.310656	1.063883	0.284364
C57	C	0.278885	1.045576	0.202150
C58	C	0.269235	1.077440	0.345228
C59	C	0.196050	1.072685	0.323876
C60	C	0.205700	1.040821	0.180798
C61	C	1.086397	1.049313	0.218930
C62	C	1.164286	1.054374	0.241660
C63	C	0.874385	0.976694	-0.107066
C64	C	0.880319	0.957109	-0.194977
C65	C	0.884409	1.329738	0.130567
C66	C	0.893747	1.429973	0.123306
C67	C	0.853833	1.044515	-0.302606
C68	C	0.859966	1.024275	-0.393468
C69	C	0.839411	1.092107	0.410985
C70	C	0.833476	1.111692	0.498896
C71	C	1.058885	0.753975	0.240323
C72	C	1.127437	0.658801	0.270313
C73	C	0.811899	0.796770	0.432378
C74	C	0.796627	0.716120	0.527550
C75	C	1.041398	0.811682	0.499349
C76	C	1.104015	0.736093	0.617250
C77	C	0.672397	1.257120	-0.195430
C78	C	0.609780	1.332708	-0.313330
C79	C	0.654910	1.314826	0.063596
C80	C	0.586358	1.410000	0.033606
C81	C	0.901896	1.272032	-0.128459
C82	C	0.917169	1.352681	-0.223630
C83	C	1.118231	0.599925	0.220731
C84	C	1.182639	0.510507	0.248887
C85	C	1.256251	0.479963	0.326632
C86	C	1.265456	0.538849	0.376215
C87	C	1.201050	0.628270	0.348052
C88	C	0.830854	0.692428	0.635909
C89	C	0.816501	0.616664	0.725339
C90	C	0.767926	0.564586	0.706409
C91	C	0.733695	0.588285	0.598038
C92	C	0.748043	0.664054	0.508608
C93	C	1.181658	0.692240	0.635117
C94	C	1.240503	0.621228	0.745890
C95	C	1.221703	0.594064	0.838795
C96	C	1.144052	0.637926	0.820923
C97	C	1.085210	0.708943	0.710151
C98	C	0.532138	1.376573	-0.331198
C99	C	0.473296	1.447614	-0.441974
C100	C	0.492097	1.474783	-0.534879
C101	C	0.569746	1.430915	-0.517007
C102	C	0.628587	1.359882	-0.406233
C103	C	0.595565	1.468885	0.083179
C104	C	0.531161	1.558323	0.054998
C105	C	0.457550	1.588870	-0.022750
C106	C	0.448344	1.529980	-0.072328
C107	C	0.512748	1.440549	-0.044153
C108	C	0.965748	1.404736	-0.204665
C109	C	0.980112	1.480506	-0.294075
C110	C	0.945893	1.504225	-0.402452
C111	C	0.897312	1.452161	-0.421415
C112	C	0.882952	1.376387	-0.332004
H113	H	0.179841	1.025899	0.113857
C114	C	1.003398	1.378656	-0.085460
H115	H	1.034392	1.420508	-0.086983
H116	H	0.963842	1.399229	-0.063535
H117	H	1.035207	1.300136	-0.032321
H118	H	1.058300	0.624789	0.157414
C119	C	0.884276	0.749716	0.656749
H120	H	0.902590	0.724758	0.734093
H121	H	0.927286	0.730333	0.640132
H122	H	0.855896	0.829412	0.608892
H123	H	0.809249	0.450964	0.189016
C124	C	0.367368	1.563584	-0.157839
H125	H	0.330335	1.625271	-0.167500
H126	H	0.368847	1.585087	-0.228927
H127	H	0.352958	1.501121	-0.129824
H128	H	0.551459	0.985080	-0.069504
H129	H	0.887187	0.934453	-0.368582
C130	C	1.123378	0.608041	0.923121
H131	H	1.068710	0.644333	0.896626
H132	H	1.139475	0.528504	0.971674
H133	H	1.149190	0.632870	0.964107
C134	C	0.917083	0.835771	-0.161354
H135	H	0.932909	0.783559	-0.082045
H136	H	0.879969	0.821816	-0.202464
H137	H	0.961066	0.827075	-0.178792
H138	H	0.444177	1.532624	-0.625072
H139	H	0.228942	1.009847	0.041685
H140	H	0.844382	0.597379	0.813573
H141	H	0.418695	0.976436	-0.108241
C142	C	0.752154	0.481236	0.804791
H143	H	0.779505	0.474582	0.872037
H144	H	0.697935	0.508387	0.785913
H145	H	0.769312	0.409304	0.817133
C146	C	0.295013	0.980007	-0.092223
H147	H	0.330157	0.972618	-0.125417
H148	H	0.286273	0.912775	-0.057455
H149	H	0.247051	1.042217	-0.149599
C150	C	0.796705	1.233035	-0.534733
H151	H	0.797401	1.230723	-0.469255
H152	H	0.825556	1.274255	-0.566011
H153	H	0.744463	1.268981	-0.589669
H154	H	1.303724	0.585521	0.760423
H155	H	0.843392	1.334011	-0.347463
H156	H	0.538671	1.606259	0.095381
C157	C	0.762200	0.596098	0.225593
H158	H	0.763299	0.532078	0.224727
H159	H	0.776397	0.575579	0.301268
H160	H	0.711207	0.654277	0.178513
C161	C	0.543040	1.048116	0.213562
H162	H	0.592561	1.049000	0.217569
H163	H	0.509454	1.118597	0.193399
H164	H	0.548680	0.989151	0.285526
C165	C	1.202353	0.722110	0.532938
H166	H	1.257025	0.685825	0.559459
H167	H	1.176552	0.697290	0.491942
H168	H	1.186264	0.801652	0.484386
H169	H	0.869454	1.471485	-0.509667
H170	H	0.694144	0.545873	0.582640
C171	C	1.327092	0.381593	0.357614
H172	H	1.372256	0.371831	0.411014
H173	H	1.318413	0.314153	0.390009
H174	H	1.334318	0.398119	0.290926
H175	H	0.505240	1.392606	-0.084523
C176	C	1.172498	0.445737	0.194351
H177	H	1.119430	0.476727	0.144034
H178	H	1.203841	0.452244	0.153139
H179	H	1.187954	0.368277	0.252244
C180	C	0.951599	0.472694	0.078322
H181	H	0.976495	0.426234	0.058974
H182	H	0.924407	0.548443	0.012753
H183	H	0.989599	0.469738	0.135506
H184	H	1.325400	0.513966	0.439517
C185	C	1.286434	0.515936	0.960638
H186	H	1.335365	0.493704	0.957964
H187	H	1.286802	0.555119	0.995784
H188	H	1.277077	0.450767	1.003330
C189	C	0.590416	1.460798	-0.619208
H190	H	0.544246	1.509373	-0.687733
H191	H	0.624737	1.497900	-0.620261
H192	H	0.615003	1.393544	-0.612692
C193	C	0.418786	1.088779	0.396147
H194	H	0.468306	1.089663	0.400153
H195	H	0.385199	1.159260	0.375983
H196	H	0.424425	1.029814	0.468110
H197	H	1.208556	0.676199	0.388438
H198	H	0.957592	1.565927	-0.475246
C199	C	0.304180	1.097585	0.435655
H200	H	0.353698	1.098472	0.439657
H201	H	0.270590	1.168066	0.415485
H202	H	0.309822	1.038624	0.507623
C203	C	1.033544	1.537775	-0.273204
H204	H	1.037207	1.586293	-0.341967
H205	H	1.012510	1.580724	-0.248009
H206	H	1.083887	1.481629	-0.216768
C207	C	0.710395	0.690098	0.389420
H208	H	0.679418	0.648219	0.390968
H209	H	0.678584	0.768609	0.336264
H210	H	0.749960	0.669509	0.367509
C211	C	0.676530	1.435299	0.168704
H212	H	0.672780	1.483194	0.194175
H213	H	0.695428	1.359025	0.231888
H214	H	0.711329	1.442987	0.132797
H215	H	0.826620	1.134330	-0.327483
C216	C	0.150491	1.087596	0.390818
H217	H	0.179893	1.099173	0.442847
H218	H	0.102131	1.151122	0.339390
H219	H	0.141353	1.021680	0.431533
H220	H	1.021990	0.744639	0.695618
C221	C	0.511444	1.346714	-0.229020
H222	H	0.456775	1.383033	-0.255544
H223	H	0.527522	1.267182	-0.180460
H224	H	0.537258	1.371540	-0.188033
H225	H	0.410075	1.483320	-0.456504
C226	C	0.713989	1.311622	-0.386591
H227	H	0.716750	1.337972	-0.457791
H228	H	0.743822	1.335727	-0.348712
H229	H	0.734076	1.231387	-0.341171
H230	H	0.405114	1.661693	-0.045682
H231	H	0.904543	0.617832	0.114919
H232	H	0.484844	1.058969	0.262226
