data_functionalizedCrystal
_audit_creation_method	'MofGen! by Chris Wilmer'
_symmetry_space_group_name_H-M	'P1'
_symmetry_Int_Tables_number	1
_symmetry_cell_setting	triclinic
loop_
_symmetry_equiv_pos_as_xyz
  x,y,z
_cell_length_a	31.640172
_cell_length_b	19.902436
_cell_length_c	31.640172
_cell_angle_alpha	60.001569
_cell_angle_beta	90.008445
_cell_angle_gamma	60.000798
loop_
_atom_site_label
_atom_site_type_symbol
_atom_site_fract_x
_atom_site_fract_y
_atom_site_fract_z
Zr1	Zr	0.407191	0.735393	-0.055451
Zr2	Zr	0.907191	1.235393	0.444549
O3	O	0.339702	0.875573	-0.122950
O4	O	0.839702	1.375573	0.377050
O5	O	0.427879	0.595213	-0.034753
O6	O	0.927879	1.095213	0.465247
O7	O	0.427879	0.735375	-0.122930
O8	O	0.927879	1.235375	0.377070
O9	O	0.339702	0.735424	0.034775
O10	O	0.839702	1.235424	0.534775
O11	O	0.497436	0.735361	-0.122920
O12	O	0.997436	1.235361	0.377080
O13	O	0.339702	0.735410	-0.034774
O14	O	0.839702	1.235410	0.465226
O15	O	0.497435	0.484636	0.034811
O16	O	0.997435	0.984636	0.534811
O17	O	0.339704	0.986149	-0.122957
O18	O	0.839704	1.486149	0.377043
O19	O	0.488613	0.652860	-0.025926
O20	O	0.988613	1.152860	0.474074
O21	O	0.436704	0.652881	0.025970
O22	O	0.936704	1.152881	0.525970
O23	O	0.436705	0.817904	-0.077846
O24	O	0.936705	1.317904	0.422154
O25	O	0.384796	0.817925	-0.025950
O26	O	0.884796	1.317925	0.474050
Zr27	Zr	0.518128	0.735393	0.055485
Zr28	Zr	1.018128	1.235393	0.555485
Zr29	Zr	0.518126	0.735370	-0.055436
Zr30	Zr	1.018126	1.235370	0.444564
Zr31	Zr	0.407192	0.735415	0.055470
Zr32	Zr	0.907192	1.235415	0.555470
Zr33	Zr	0.407193	0.911749	-0.055462
Zr34	Zr	0.907193	1.411749	0.444538
Zr35	Zr	0.518126	0.559036	0.055496
Zr36	Zr	1.018126	1.059036	0.555496
O37	O	0.497440	0.875573	0.034787
O38	O	0.997440	1.375573	0.534787
O39	O	0.497438	0.875541	-0.122929
O40	O	0.997438	1.375541	0.377071
O41	O	0.339704	0.875604	0.034766
O42	O	0.839704	1.375604	0.534766
O43	O	0.585617	0.595213	0.122984
O44	O	1.085617	1.095213	0.622984
O45	O	0.585614	0.595181	-0.034732
O46	O	1.085614	1.095181	0.465268
O47	O	0.427881	0.595244	0.122963
O48	O	0.927881	1.095244	0.622963
O49	O	0.585616	0.735361	-0.034741
O50	O	1.085616	1.235361	0.465259
O51	O	0.497440	0.735410	0.122963
O52	O	0.997440	1.235410	0.622963
O53	O	0.427883	0.735424	0.122954
O54	O	0.927883	1.235424	0.622954
O55	O	0.585617	0.735375	0.034807
O56	O	1.085617	1.235375	0.534807
O57	O	0.427882	0.986131	-0.122945
O58	O	0.927882	1.486131	0.377055
O59	O	0.497436	0.484654	0.122979
O60	O	0.997436	0.984654	0.622979
O61	O	0.585615	0.484636	0.122990
O62	O	1.085615	0.984636	0.622990
O63	O	0.585614	0.484618	0.034823
O64	O	1.085614	0.984618	0.534823
O65	O	0.339705	0.986167	-0.034789
O66	O	0.839705	1.486167	0.465211
O67	O	0.427884	0.986149	-0.034777
O68	O	0.927884	1.486149	0.465223
O69	O	0.488614	0.652881	0.077880
O70	O	0.988614	1.152881	0.577880
O71	O	0.540523	0.652860	0.025984
O72	O	1.040523	1.152860	0.525984
O73	O	0.488615	0.817904	-0.025936
O74	O	0.988615	1.317904	0.474064
O75	O	0.436706	0.817925	0.025960
O76	O	0.936706	1.317925	0.525960
C77	C	0.462656	0.514797	0.000030
C78	C	0.962656	1.014797	0.500030
C79	C	0.462655	0.439929	0.000035
C80	C	0.962655	0.939929	0.500035
C81	C	0.323896	0.735420	-0.000002
C82	C	0.823896	1.235420	0.499998
C83	C	0.276801	0.735430	-0.000008
C84	C	0.776801	1.235430	0.499992
C85	C	0.462661	0.167919	0.000011
C86	C	0.962661	0.667919	0.500011
C87	C	0.430074	0.196171	0.032906
C88	C	0.930074	0.696171	0.532906
C89	C	0.429897	0.274289	0.032771
C90	C	0.929897	0.774289	0.532771
C91	C	0.462658	0.302866	0.000023
C92	C	0.962658	0.802866	0.500023
C93	C	0.438776	0.338423	-0.056383
C94	C	0.938776	0.838423	0.443617
C95	C	0.438531	0.260586	-0.056210
C96	C	0.938531	0.760586	0.443790
C97	C	0.519146	0.133397	0.023069
C98	C	1.019146	0.633397	0.523069
C99	C	0.519063	0.210450	0.024217
C100	C	1.019063	0.710450	0.524217
C101	C	0.462657	0.379135	0.000027
C102	C	0.962657	0.879135	0.500027
C103	C	0.462660	0.091655	0.000003
C104	C	0.962660	0.591655	0.500003
C105	C	0.011891	0.649232	0.027129
C106	C	0.511891	1.149232	0.527129
C107	C	-0.165094	0.649216	0.027139
C108	C	0.334906	1.149216	0.527139
O109	O	-0.164937	0.575947	0.050207
O110	O	0.335063	1.075947	0.550207
N111	N	-0.214320	0.735367	0.000037
N112	N	0.285680	1.235367	0.500037
C113	C	-0.219298	0.821527	-0.027067
C114	C	0.280702	1.321527	0.472933
O115	O	-0.265228	0.894803	-0.050115
O116	O	0.234772	1.394803	0.449885
C117	C	-0.042313	0.821543	-0.027074
C118	C	0.457687	1.321543	0.472926
C119	C	0.006911	0.735387	0.000026
C120	C	0.506911	1.235387	0.500026
C121	C	0.061113	0.563083	0.054227
C122	C	0.561113	1.063083	0.554227
C123	C	0.105356	0.563088	0.054222
C124	C	0.605356	1.063088	0.554222
C125	C	0.100377	0.649242	0.027119
C126	C	0.600377	1.149242	0.527119
C127	C	0.051155	0.735392	0.000021
C128	C	0.551155	1.235392	0.500021
C129	C	-0.047292	0.907703	-0.054175
C130	C	0.452708	1.407703	0.445825
C131	C	-0.003041	0.907699	-0.054173
C132	C	0.496959	1.407699	0.445827
C133	C	0.046184	0.821543	-0.027073
C134	C	0.546184	1.321543	0.472927
C135	C	0.090419	0.821551	-0.027088
C136	C	0.590419	1.321551	0.472912
N137	N	0.139644	0.735400	0.000015
N138	N	0.639644	1.235400	0.500015
C139	C	0.144623	0.649246	0.027118
C140	C	0.644623	1.149246	0.527118
C141	C	-0.312215	0.821513	-0.027063
C142	C	0.187785	1.321513	0.472937
C143	C	-0.356462	0.821510	-0.027062
C144	C	0.143538	1.321510	0.472938
C145	C	-0.302255	0.649198	0.027146
C146	C	0.197745	1.149198	0.527146
C147	C	-0.258008	0.649202	0.027142
C148	C	0.241992	1.149202	0.527142
C149	C	-0.262990	0.735363	0.000040
C150	C	0.237010	1.235363	0.500040
C151	C	0.237535	0.649263	0.027105
C152	C	0.737535	1.149263	0.527105
C153	C	0.281780	0.649276	0.027095
C154	C	0.781780	1.149276	0.527095
C155	C	0.227570	0.821587	-0.027110
C156	C	0.727570	1.321587	0.472890
C157	C	0.183329	0.821575	-0.027103
C158	C	0.683329	1.321575	0.472897
C159	C	0.188315	0.735405	0.000008
C160	C	0.688315	1.235405	0.500008
O161	O	0.090300	0.894781	-0.050139
O162	O	0.590300	1.394781	0.449861
O163	O	0.190558	0.575981	0.050172
O164	O	0.690558	1.075981	0.550172
C165	C	-0.032353	0.649227	0.027134
C166	C	0.467647	1.149227	0.527134
C167	C	-0.081575	0.735377	0.000036
C168	C	0.418425	1.235377	0.500036
C169	C	-0.086555	0.821531	-0.027067
C170	C	0.413445	1.321531	0.472933
C171	C	-0.125821	0.735373	0.000037
C172	C	0.374179	1.235373	0.500037
C173	C	-0.120842	0.649219	0.027140
C174	C	0.379158	1.149219	0.527140
C175	C	-0.071617	0.563068	0.054243
C176	C	0.428383	1.063068	0.554243
C177	C	-0.027374	0.563073	0.054237
C178	C	0.472626	1.063073	0.554237
C179	C	-0.135780	0.907681	-0.054170
C180	C	0.364220	1.407681	0.445830
C181	C	-0.180021	0.907669	-0.054163
C182	C	0.319979	1.407669	0.445837
C183	C	-0.175042	0.821515	-0.027060
C184	C	0.324958	1.321515	0.472940
C185	C	0.601423	0.735365	0.000035
C186	C	1.101423	1.235365	0.500035
C187	C	0.648518	0.735355	0.000042
C188	C	1.148518	1.235355	0.500042
C189	C	0.462657	0.735365	-0.138729
C190	C	0.962657	1.235365	0.361271
C191	C	0.462657	0.735355	-0.185818
C192	C	0.962657	1.235355	0.314182
C193	C	0.462662	0.955988	0.000003
C194	C	0.962662	1.455988	0.500003
C195	C	0.462663	1.030856	-0.000001
C196	C	0.962663	1.530856	0.499999
C197	C	0.435569	0.821553	-0.504955
C198	C	0.935569	1.321553	-0.004955
C199	C	0.435569	0.821569	-0.681950
C200	C	0.935569	1.321569	-0.181950
O201	O	0.412544	0.894838	-0.727886
O202	O	0.912544	1.394838	-0.227886
N203	N	0.462664	0.735419	-0.676979
N204	N	0.962664	1.235419	-0.176979
C205	C	0.489763	0.649258	-0.627754
C206	C	0.989763	1.149258	-0.127754
O207	O	0.512813	0.575982	-0.627586
O208	O	1.012813	1.075982	-0.127586
C209	C	0.489765	0.649242	-0.450759
C210	C	0.989765	1.149242	0.049241
C211	C	0.462664	0.735399	-0.455735
C212	C	0.962664	1.235399	0.044265
C213	C	0.408471	0.907702	-0.509928
C214	C	0.908471	1.407702	-0.009928
C215	C	0.408469	0.907697	-0.465682
C216	C	0.908469	1.407697	0.034318
C217	C	0.435564	0.821543	-0.416462
C218	C	0.935564	1.321543	0.083538
C219	C	0.462662	0.735394	-0.411488
C220	C	0.962662	1.235394	0.088512
C221	C	0.516867	0.563082	-0.401535
C222	C	1.016867	1.063082	0.098465
C223	C	0.516866	0.563086	-0.357286
C224	C	1.016866	1.063086	0.142714
C225	C	0.489765	0.649242	-0.362262
C226	C	0.989765	1.149242	0.137738
C227	C	0.489756	0.649234	-0.318022
C228	C	0.989756	1.149234	0.181978
N229	N	0.462661	0.735385	-0.322994
N230	N	0.962661	1.235385	0.177006
C231	C	0.435565	0.821539	-0.372214
C232	C	0.935565	1.321539	0.127786
C233	C	0.489759	0.649272	-0.720680
C234	C	0.989759	1.149272	-0.220680
C235	C	0.489758	0.649276	-0.764928
C236	C	0.989758	1.149276	-0.264928
C237	C	0.435565	0.821587	-0.819122
C238	C	0.935565	1.321587	-0.319122
C239	C	0.435563	0.821583	-0.774873
C240	C	0.935563	1.321583	-0.274873
C241	C	0.462664	0.735423	-0.725652
C242	C	0.962664	1.235423	-0.225652
C243	C	0.435563	0.821522	-0.279291
C244	C	0.935563	1.321522	0.220709
C245	C	0.435561	0.821510	-0.235038
C246	C	0.935561	1.321510	0.264962
C247	C	0.489756	0.649198	-0.180848
C248	C	0.989756	1.149198	0.319152
C249	C	0.489756	0.649210	-0.225097
C250	C	0.989756	1.149210	0.274903
C251	C	0.462658	0.735380	-0.274320
C252	C	0.962658	1.235380	0.225680
O253	O	0.512774	0.576004	-0.272072
O254	O	1.012774	1.076004	0.227928
O255	O	0.412528	0.894804	-0.372370
O256	O	0.912528	1.394804	0.127630
C257	C	0.435571	0.821558	-0.549201
C258	C	0.935571	1.321558	-0.049201
C259	C	0.462669	0.735409	-0.544228
C260	C	0.962669	1.235409	-0.044228
C261	C	0.489764	0.649254	-0.495008
C262	C	0.989764	1.149254	0.004992
C263	C	0.462667	0.735412	-0.588476
C264	C	0.962667	1.235412	-0.088476
C265	C	0.435572	0.821566	-0.637696
C266	C	0.935572	1.321566	-0.137696
C267	C	0.408477	0.907717	-0.642668
C268	C	0.908477	1.407717	-0.142668
C269	C	0.408475	0.907712	-0.598421
C270	C	0.908475	1.407712	-0.098421
C271	C	0.516859	0.563104	-0.490036
C272	C	1.016859	1.063104	0.009964
C273	C	0.516858	0.563116	-0.534285
C274	C	1.016858	1.063116	-0.034285
C275	C	0.489763	0.649270	-0.583505
C276	C	0.989763	1.149270	-0.083505
C277	C	0.462661	0.735420	0.138763
C278	C	0.962661	1.235420	0.638763
C279	C	0.462662	0.735430	0.185852
C280	C	0.962662	1.235430	0.685852
C281	C	0.601420	0.514769	0.000049
C282	C	1.101420	1.014769	0.500049
C283	C	0.648514	0.439892	0.000060
C284	C	1.148514	0.939892	0.500060
C285	C	0.462658	0.514825	0.138776
C286	C	0.962658	1.014825	0.638776
C287	C	0.462658	0.439966	0.185870
C288	C	0.962658	0.939966	0.685870
C289	C	0.601422	0.514797	0.138795
C290	C	1.101422	1.014797	0.638795
C291	C	0.648516	0.439929	0.185895
C292	C	1.148516	0.939929	0.685895
C293	C	0.323897	0.955988	-0.138761
C294	C	0.823897	1.455988	0.361239
C295	C	0.276802	1.030856	-0.185861
C296	C	0.776802	1.530856	0.314139
C297	C	0.323899	0.956016	-0.000015
C298	C	0.823899	1.456016	0.499985
C299	C	0.276805	1.030893	-0.000026
C300	C	0.776805	1.530893	0.499974
C301	C	0.462660	0.955960	-0.138742
C302	C	0.962660	1.455960	0.361258
C303	C	0.462661	1.030819	-0.185836
C304	C	0.962661	1.530819	0.314164
C305	C	0.643533	0.404729	-0.027036
C306	C	1.143533	0.904729	0.472964
C307	C	0.687779	0.334383	-0.027037
C308	C	1.187779	0.834383	0.472963
C309	C	0.737004	0.299197	0.000063
C310	C	1.237004	0.799197	0.500063
C311	C	0.741984	0.334367	0.027159
C312	C	1.241984	0.834367	0.527159
C313	C	0.697739	0.404717	0.027156
C314	C	1.197739	0.904717	0.527156
C315	C	0.489755	0.404812	0.235087
C316	C	0.989755	0.904812	0.735087
C317	C	0.489752	0.334484	0.279340
C318	C	0.989752	0.834484	0.779340
C319	C	0.462656	0.299307	0.274376
C320	C	0.962656	0.799307	0.774376
C321	C	0.435556	0.334469	0.225154
C322	C	0.935556	0.834469	0.725154
C323	C	0.435556	0.404800	0.180901
C324	C	0.935556	0.904800	0.680901
C325	C	0.697733	0.404759	0.180924
C326	C	1.197733	0.904759	0.680924
C327	C	0.741988	0.334423	0.225175
C328	C	1.241988	0.834423	0.725175
C329	C	0.737025	0.299252	0.274396
C330	C	1.237025	0.799252	0.774396
C331	C	0.687803	0.334429	0.279366
C332	C	1.187803	0.834429	0.779366
C333	C	0.643549	0.404769	0.235115
C334	C	1.143549	0.904769	0.735115
C335	C	0.227586	1.066034	-0.180890
C336	C	0.727586	1.566034	0.319110
C337	C	0.183331	1.136393	-0.225141
C338	C	0.683331	1.636393	0.274859
C339	C	0.188294	1.171567	-0.274363
C340	C	0.688294	1.671567	0.225637
C341	C	0.237516	1.136386	-0.279332
C342	C	0.737516	1.636386	0.220668
C343	C	0.281770	1.066033	-0.235082
C344	C	0.781770	1.566033	0.264918
C345	C	0.281786	1.066064	0.027066
C346	C	0.781786	1.566064	0.527066
C347	C	0.237540	1.136429	0.027053
C348	C	0.737540	1.636429	0.527053
C349	C	0.188314	1.171617	-0.000047
C350	C	0.688314	1.671617	0.499953
C351	C	0.183334	1.136444	-0.027142
C352	C	0.683334	1.636444	0.472858
C353	C	0.227580	1.066085	-0.027133
C354	C	0.727580	1.566085	0.472867
C355	C	0.489762	1.065973	-0.180855
C356	C	0.989762	1.565973	0.319145
C357	C	0.489772	1.136302	-0.225100
C358	C	0.989772	1.636302	0.274900
C359	C	0.462678	1.171479	-0.274326
C360	C	0.962678	1.671479	0.225674
C361	C	0.435576	1.136317	-0.279306
C362	C	0.935576	1.636317	0.220694
C363	C	0.435569	1.065985	-0.235061
C364	C	0.935569	1.565985	0.264939
H365	H	0.445917	0.247649	0.074306
H366	H	0.945917	0.747649	0.574306
Br367	Br	-0.191207	0.532272	0.063921
Br368	Br	0.308793	1.032272	0.563921
Br369	Br	0.562943	0.236440	-0.011563
Br370	Br	1.062943	0.736440	0.488437
H371	H	0.683714	0.305756	-0.049102
H372	H	1.183714	0.805756	0.450898
Br373	Br	0.116537	1.184122	-0.218385
Br374	Br	0.616537	1.684122	0.281615
Br375	Br	0.371701	1.024640	-0.709475
Br376	Br	0.871701	1.524640	-0.209475
H377	H	0.413498	1.037370	-0.239124
H378	H	0.913498	1.537370	0.260876
H379	H	0.241605	1.165055	0.049119
H380	H	0.741605	1.665055	0.549119
Br381	Br	0.576757	0.452487	0.241871
Br382	Br	1.076757	0.952487	0.741871
Br383	Br	0.704508	0.452425	0.063936
Br384	Br	1.204508	0.952425	0.563936
H385	H	0.782062	0.305789	0.221119
H386	H	1.282062	0.805789	0.721119
Br387	Br	0.361049	0.239372	0.006514
Br388	Br	0.861049	0.739372	0.506514
H389	H	0.511820	0.433445	0.239138
H390	H	1.011820	0.933445	0.739138
Br391	Br	0.526534	0.286779	0.346135
Br392	Br	1.026534	0.786779	0.846135
H393	H	0.701784	0.433385	0.140849
H394	H	1.201784	0.933385	0.640849
H395	H	0.388233	0.338753	0.016783
H396	H	0.888233	0.838753	0.516783
H397	H	-0.316280	0.891679	-0.049136
H398	H	0.183720	1.391679	0.450864
H399	H	0.413517	1.164969	-0.319391
H400	H	0.913517	1.664969	0.180609
Br401	Br	0.526554	1.184010	-0.218330
Br402	Br	1.026554	1.684010	0.281670
H403	H	0.413492	0.433413	0.140829
H404	H	0.913492	0.933413	0.640829
Br405	Br	0.348587	1.018327	0.063848
Br406	Br	0.848587	1.518327	0.563848
Br407	Br	0.116524	1.184207	-0.063918
Br408	Br	0.616524	1.684207	0.436082
Br409	Br	0.553637	0.446178	-0.527523
Br410	Br	1.053637	0.946178	-0.027523
H411	H	0.773027	0.241914	0.000061
H412	H	1.273027	0.741914	0.500061
Br413	Br	0.398773	0.938444	-0.241796
Br414	Br	0.898773	1.438444	0.258204
Br415	Br	0.128230	1.267047	-0.334413
Br416	Br	0.628230	1.767047	0.165587
Br417	Br	0.456642	0.088673	0.102317
Br418	Br	0.956642	0.588673	0.602317
H419	H	-0.139842	0.977840	-0.076242
H420	H	0.360158	1.477840	0.423758
Br421	Br	0.220810	1.018357	-0.063901
Br422	Br	0.720810	1.518357	0.436099
Br423	Br	0.808795	0.286602	0.063936
Br424	Br	1.308795	0.786602	0.563936
H425	H	0.396965	0.290132	-0.074669
H426	H	0.896965	0.790132	0.425331
H427	H	0.773063	0.241977	0.310424
H428	H	1.273063	0.741977	0.810424
Br429	Br	0.559803	0.101957	-0.016676
Br430	Br	1.059803	0.601957	0.483324
Br431	Br	0.526537	1.018249	-0.114055
Br432	Br	1.026537	1.518249	0.385945
H433	H	0.321843	1.037392	-0.239135
H434	H	0.821843	1.537392	0.260865
Br435	Br	0.475542	0.233972	-0.099273
Br436	Br	0.975542	0.733972	0.400727
Br437	Br	0.576732	0.452468	-0.063820
Br438	Br	1.076732	0.952468	0.436180
H439	H	0.683769	0.305783	0.319448
H440	H	1.183769	0.805783	0.819448
Br441	Br	0.244243	1.184131	-0.346137
Br442	Br	0.744243	1.684131	0.153863
Br443	Br	0.220836	1.018311	-0.114095
Br444	Br	0.720836	1.518311	0.385905
Br445	Br	0.462662	0.203857	0.334439
Br446	Br	0.962662	0.703857	0.834439
H447	H	0.413496	0.305817	0.221120
H448	H	0.913496	0.805817	0.721120
Br449	Br	0.128272	1.267106	-0.000055
Br450	Br	0.628272	1.767106	0.499945
H451	H	0.462688	1.228748	-0.310349
H452	H	0.962688	1.728748	0.189651
H453	H	0.461371	0.359306	-0.081955
H454	H	0.961371	0.859306	0.418045
Br455	Br	0.370160	0.450109	-0.087364
Br456	Br	0.870160	0.950109	0.412636
H457	H	0.539099	0.065354	0.063967
H458	H	1.039099	0.565354	0.563967
H459	H	0.321861	0.579114	0.049165
H460	H	0.821861	1.079114	0.549165
Br461	Br	0.548803	0.162542	0.093480
Br462	Br	1.048803	0.662542	0.593480
Br463	Br	0.244310	0.532318	0.063898
Br464	Br	0.744310	1.032318	0.563898
H465	H	0.065176	0.492922	0.076301
H466	H	0.565176	0.992922	0.576301
Br467	Br	0.172157	0.446155	0.091006
Br468	Br	0.672157	0.946155	0.591006
H469	H	-0.396539	0.891667	-0.049136
H470	H	0.103461	1.391667	0.450864
Br471	Br	-0.295506	0.532274	0.063928
Br472	Br	0.204494	1.032274	0.563928
H473	H	-0.007103	0.977863	-0.076236
H474	H	0.492897	1.477863	0.423764
Br475	Br	-0.114088	1.024637	-0.090952
Br476	Br	0.385912	1.524637	0.409048
H477	H	0.386403	0.977854	-0.469740
H478	H	0.886403	1.477854	0.030260
Br479	Br	0.116523	0.938502	-0.063894
Br480	Br	0.616523	1.438502	0.436106
Br481	Br	0.039427	0.446140	0.091018
Br482	Br	0.539427	0.946140	0.591018
Br483	Br	0.220823	0.938505	-0.063883
Br484	Br	0.720823	1.438505	0.436117
H485	H	-0.067570	0.492918	0.076308
H486	H	0.432430	0.992918	0.576308
Br487	Br	-0.246824	1.024607	-0.090947
Br488	Br	0.253176	1.524607	0.409053
Br489	Br	0.526525	0.532280	-0.114043
Br490	Br	1.026525	1.032280	0.385957
H491	H	0.386406	0.977863	-0.550003
H492	H	0.886406	1.477863	-0.050003
Br493	Br	0.398787	0.938467	-0.346086
Br494	Br	0.898787	1.438467	0.153914
H495	H	0.413500	0.891738	-0.859206
H496	H	0.913500	1.391738	-0.359206
Br497	Br	0.398784	0.938513	-0.781631
Br498	Br	0.898784	1.438513	-0.281631
H499	H	0.511819	0.579119	-0.760871
H500	H	1.011819	1.079119	-0.260871
H501	H	0.511829	0.579106	-0.680604
H502	H	1.011829	1.079106	-0.180604
H503	H	0.538936	0.492922	-0.317209
H504	H	1.038936	0.992922	0.182791
Br505	Br	0.526528	0.532284	-0.218345
Br506	Br	1.026528	1.032284	0.281655
Br507	Br	0.553647	0.446148	-0.394769
Br508	Br	1.053647	0.946148	0.105231
H509	H	0.386407	0.977869	-0.602479
H510	H	0.886407	1.477869	-0.102479
H511	H	0.538925	0.492945	-0.449962
H512	H	1.038925	0.992945	0.050038
