data_functionalizedCrystal
_audit_creation_method	'MofGen! by Chris Wilmer'
_symmetry_space_group_name_H-M	'P1'
_symmetry_Int_Tables_number	1
_symmetry_cell_setting	triclinic
loop_
_symmetry_equiv_pos_as_xyz
  x,y,z
_cell_length_a	17.077402
_cell_length_b	12.759401
_cell_length_c	12.759393
_cell_angle_alpha	89.980198
_cell_angle_beta	89.965312
_cell_angle_gamma	90.021969
loop_
_atom_site_label
_atom_site_type_symbol
_atom_site_fract_x
_atom_site_fract_y
_atom_site_fract_z
Zn1	Zn	-0.312489	1.606207	-0.593958
Zn2	Zn	0.020844	1.939540	-0.260624
Zn3	Zn	0.354177	2.272873	0.072709
Zn4	Zn	-0.443775	1.606073	-0.418265
Zn5	Zn	-0.110442	1.939406	-0.084932
Zn6	Zn	0.222891	2.272739	0.248402
Zn7	Zn	-0.312526	1.430505	-0.418296
Zn8	Zn	0.020808	1.763839	-0.084963
Zn9	Zn	0.354141	2.097172	0.248370
Zn10	Zn	-0.443715	1.430472	-0.593906
Zn11	Zn	-0.110382	1.763805	-0.260572
Zn12	Zn	0.222952	2.097139	0.072761
O13	O	-0.378126	1.518314	-0.506106
O14	O	-0.044793	1.851647	-0.172773
O15	O	0.288540	2.184981	0.160561
O16	O	-0.329915	1.753210	-0.570660
O17	O	0.003418	2.086543	-0.237327
O18	O	0.336752	2.419876	0.096006
O19	O	-0.426405	1.582741	-0.271248
O20	O	-0.093072	1.916074	0.062085
O21	O	0.240261	2.249408	0.395419
O22	O	-0.202674	1.453882	-0.441633
O23	O	0.130660	1.787216	-0.108300
O24	O	0.463993	2.120549	0.225034
O25	O	-0.426370	1.753111	-0.441580
O26	O	-0.093037	2.086445	-0.108246
O27	O	0.240296	2.419778	0.225087
O28	O	-0.202647	1.582969	-0.570691
O29	O	0.130686	1.916303	-0.237357
O30	O	0.464019	2.249636	0.095976
O31	O	-0.329977	1.453753	-0.271271
O32	O	0.003357	1.787086	0.062062
O33	O	0.336690	2.120419	0.395396
O34	O	-0.329918	1.283480	-0.441583
O35	O	0.003415	1.616813	-0.108249
O36	O	0.336749	1.950147	0.225084
O37	O	-0.426267	1.453826	-0.740934
O38	O	-0.092934	1.787159	-0.407600
O39	O	0.240399	2.120493	-0.074267
O40	O	-0.426302	1.283456	-0.570602
O41	O	-0.092969	1.616789	-0.237269
O42	O	0.240364	1.950122	0.096065
O43	O	-0.329856	1.582937	-0.740972
O44	O	0.003477	1.916271	-0.407639
O45	O	0.336810	2.249604	-0.074305
O46	O	-0.553614	1.582709	-0.441529
O47	O	-0.220281	1.916042	-0.108196
O48	O	0.113052	2.249376	0.225138
O49	O	-0.553570	1.453696	-0.570572
O50	O	-0.220237	1.787029	-0.237238
O51	O	0.113097	2.120363	0.096095
C52	C	-0.378108	1.245347	-0.506091
C53	C	-0.044775	1.578680	-0.172757
C54	C	0.288559	1.912013	0.160576
C55	C	-0.378119	1.128570	-0.506109
C56	C	-0.044786	1.461903	-0.172776
C57	C	0.288548	1.795237	0.160558
C58	C	-0.328004	0.964023	-0.573432
C59	C	0.005330	1.297356	-0.240099
C60	C	0.338663	1.630690	0.093234
C61	C	-0.327988	1.073747	-0.573425
C62	C	0.005345	1.407080	-0.240092
C63	C	0.338678	1.740414	0.093241
C64	C	-0.428274	1.073664	-0.438803
C65	C	-0.094941	1.406997	-0.105469
C66	C	0.238392	1.740330	0.227864
C67	C	-0.428293	0.963942	-0.438816
C68	C	-0.094960	1.297275	-0.105483
C69	C	0.238374	1.630608	0.227851
C70	C	-0.582074	1.518213	-0.506064
C71	C	-0.248741	1.851546	-0.172731
C72	C	0.084592	2.184879	0.160603
C73	C	-0.669324	1.518265	-0.506081
C74	C	-0.335991	1.851599	-0.172748
C75	C	-0.002657	2.184932	0.160585
C76	C	-0.710311	1.585511	-0.438961
C77	C	-0.376978	1.918844	-0.105628
C78	C	-0.043645	2.252178	0.227706
C79	C	-0.792292	1.585563	-0.438988
C80	C	-0.458958	1.918896	-0.105655
C81	C	-0.125625	2.252229	0.227679
C82	C	-0.833283	1.518362	-0.506130
C83	C	-0.499950	1.851695	-0.172797
C84	C	-0.166617	2.185029	0.160536
C85	C	-0.792290	1.451114	-0.573258
C86	C	-0.458957	1.784447	-0.239925
C87	C	-0.125624	2.117780	0.093409
C88	C	-0.710311	1.451068	-0.573236
C89	C	-0.376978	1.784402	-0.239902
C90	C	-0.043645	2.117735	0.093431
C91	C	-0.963160	1.451211	-0.573298
C92	C	-0.629827	1.784544	-0.239965
C93	C	-0.296494	2.117878	0.093369
C94	C	-1.045145	1.451255	-0.573319
C95	C	-0.711812	1.784588	-0.239986
C96	C	-0.378478	2.117921	0.093347
C97	C	-1.045141	1.585705	-0.439050
C98	C	-0.711807	1.919038	-0.105717
C99	C	-0.378474	2.252372	0.227617
C100	C	-0.963162	1.585660	-0.439028
C101	C	-0.629828	1.918993	-0.105694
C102	C	-0.296495	2.252327	0.227639
C103	C	-0.922174	1.518410	-0.506154
C104	C	-0.588841	1.851743	-0.172821
C105	C	-0.255508	2.185076	0.160512
C106	C	-0.173382	1.518445	-0.506171
C107	C	0.159951	1.851778	-0.172838
C108	C	0.493285	2.185111	0.160495
C109	C	-0.086132	1.518500	-0.506199
C110	C	0.247201	1.851833	-0.172866
C111	C	0.580534	2.185167	0.160468
C112	C	-0.378051	1.518393	-0.780140
C113	C	-0.044718	1.851726	-0.446806
C114	C	0.288616	2.185059	-0.113473
C115	C	-0.378019	1.518426	-0.896916
C116	C	-0.044686	1.851760	-0.563583
C117	C	0.288648	2.185093	-0.230250
C118	C	-0.378145	1.792347	-0.506122
C119	C	-0.044812	2.125681	-0.172789
C120	C	0.288521	2.459014	0.160544
C121	C	-0.378153	1.909124	-0.506129
C122	C	-0.044820	2.242457	-0.172796
C123	C	0.288513	2.575791	0.160538
C124	C	-0.327810	1.585660	-0.951800
C125	C	0.005524	1.918993	-0.618467
C126	C	0.338857	2.252326	-0.285133
C127	C	-0.327776	1.585677	-1.061524
C128	C	0.005558	1.919011	-0.728191
C129	C	0.338891	2.252344	-0.394857
C130	C	-0.428167	1.451226	-1.061471
C131	C	-0.094834	1.784559	-0.728138
C132	C	0.238500	2.117892	-0.394805
C133	C	-0.428196	1.451203	-0.951749
C134	C	-0.094863	1.784537	-0.618416
C135	C	0.238470	2.117870	-0.285083
C136	C	-0.378145	1.518296	-0.233139
C137	C	-0.044811	1.851630	0.100195
C138	C	0.288522	2.184963	0.433528
C139	C	-0.377956	1.518466	-0.116363
C140	C	-0.044622	1.851800	0.216971
C141	C	0.288711	2.185133	0.550304
H142	H	-0.469135	0.919242	-0.384009
H143	H	-0.135802	1.252575	-0.050675
H144	H	0.197531	1.585908	0.282658
H145	H	-0.676941	1.640229	-0.384281
H146	H	-0.343608	1.973562	-0.050948
H147	H	-0.010274	2.306895	0.282385
H148	H	-1.078516	1.640466	-0.384397
H149	H	-0.745183	1.973800	-0.051063
H150	H	-0.411850	2.307133	0.282270
Cl151	Cl	-0.843815	1.670107	-0.354607
Cl152	Cl	-0.510482	2.003441	-0.021274
Cl153	Cl	-0.177148	2.336774	0.312059
Cl154	Cl	-0.491317	1.366668	-0.882747
Cl155	Cl	-0.157984	1.700002	-0.549414
Cl156	Cl	0.175349	2.033335	-0.216081
H157	H	-1.078518	1.396554	-0.628012
H158	H	-0.745185	1.729887	-0.294679
H159	H	-0.411852	2.063220	0.038654
Cl160	Cl	-0.911635	1.366668	-0.657689
Cl161	Cl	-0.578301	1.700001	-0.324356
Cl162	Cl	-0.244968	2.033335	0.008978
H163	H	-0.287177	0.919394	-0.628243
H164	H	0.046157	1.252727	-0.294909
H165	H	0.379490	1.586060	0.038424
H166	H	-0.287152	1.118441	-0.628231
H167	H	0.046181	1.451774	-0.294898
H168	H	0.379514	1.785108	0.038435
H169	H	-0.929786	1.640374	-0.384350
H170	H	-0.596453	1.973707	-0.051017
H171	H	-0.263120	2.307041	0.282316
H172	H	-0.825672	1.396402	-0.627931
H173	H	-0.492339	1.729736	-0.294598
H174	H	-0.159006	2.063069	0.038735
Cl175	Cl	-0.264726	1.670164	-0.882871
Cl176	Cl	0.068607	2.003497	-0.549537
Cl177	Cl	0.401940	2.336831	-0.216204
H178	H	-0.676940	1.396311	-0.627893
H179	H	-0.343607	1.729645	-0.294560
H180	H	-0.010274	2.062978	0.038773
H181	H	-0.286889	1.640424	-1.106205
H182	H	0.046444	1.973757	-0.772872
H183	H	0.379777	2.307090	-0.439539
Cl184	Cl	-0.491248	1.366727	-1.130412
Cl185	Cl	-0.157915	1.700061	-0.797078
Cl186	Cl	0.175419	2.033394	-0.463745
H187	H	-0.469095	1.118309	-0.383997
H188	H	-0.135761	1.451643	-0.050663
H189	H	0.197572	1.784976	0.282670
