data_functionalizedCrystal
_audit_creation_method	'MofGen! by Chris Wilmer'
_symmetry_space_group_name_H-M	'P1'
_symmetry_Int_Tables_number	1
_symmetry_cell_setting	triclinic
loop_
_symmetry_equiv_pos_as_xyz
  x,y,z
_cell_length_a	19.188925
_cell_length_b	19.188930
_cell_length_c	17.666332
_cell_angle_alpha	90.011603
_cell_angle_beta	90.010303
_cell_angle_gamma	83.143665
loop_
_atom_site_label
_atom_site_type_symbol
_atom_site_fract_x
_atom_site_fract_y
_atom_site_fract_z
O1	O	0.926152	0.087151	0.062973
O2	O	1.426152	0.587151	0.562973
O3	O	0.722840	0.098889	0.062972
O4	O	1.222840	0.598889	0.562972
O5	O	0.830363	-0.008636	0.062958
O6	O	1.330363	0.491364	0.562958
O7	O	0.818629	0.194676	0.062987
O8	O	1.318629	0.694676	0.562987
O9	O	0.830344	-0.008642	-0.062939
O10	O	1.330344	0.491358	0.437061
O11	O	0.722821	0.098883	-0.062925
O12	O	1.222821	0.598883	0.437075
O13	O	0.926133	0.087145	-0.062924
O14	O	1.426133	0.587145	0.437076
Cu15	Cu	0.824476	0.093014	-0.074419
Cu16	Cu	1.324476	0.593014	0.425581
Cu17	Cu	0.824498	0.093020	0.074468
Cu18	Cu	1.324498	0.593020	0.574468
O19	O	0.818610	0.194670	-0.062909
O20	O	1.318610	0.694670	0.437091
C21	C	0.696820	0.098507	0.000023
C22	C	1.196820	0.598507	0.500023
C23	C	0.619315	0.097367	0.000022
C24	C	1.119315	0.597367	0.500022
C25	C	0.057545	0.152831	0.000032
C26	C	0.557545	0.652831	0.500032
C27	C	0.130368	0.153908	0.000037
C28	C	0.630368	0.653908	0.500037
C29	C	0.175302	0.090816	0.000026
C30	C	0.675302	0.590816	0.500026
C31	C	0.147408	0.026642	0.000031
C32	C	0.647408	0.526642	0.500031
C33	C	0.074586	0.025568	0.000034
C34	C	0.574586	0.525568	0.500034
N35	N	0.295973	0.045138	-0.042837
N36	N	0.795973	0.545138	0.457163
N37	N	0.365150	0.046163	-0.042842
N38	N	0.865150	0.546163	0.457158
C39	C	0.394712	0.094050	0.000018
C40	C	0.894712	0.594050	0.500018
N41	N	0.352481	0.140883	0.042872
N42	N	0.852481	0.640883	0.542872
N43	N	0.283297	0.139860	0.042874
N44	N	0.783297	0.639860	0.542874
C45	C	0.254267	0.091974	0.000023
C46	C	0.754267	0.591974	0.500023
C47	C	0.501561	0.159386	0.000023
C48	C	1.001561	0.659386	0.500023
C49	C	0.574385	0.160460	0.000032
C50	C	1.074385	0.660460	0.500032
C51	C	0.591425	0.033193	0.000018
C52	C	1.091425	0.533193	0.500018
C53	C	0.518601	0.032121	0.000017
C54	C	1.018601	0.532121	0.500017
C55	C	0.473673	0.095220	0.000016
C56	C	0.973673	0.595220	0.500016
C57	C	0.829974	-0.034650	0.000007
C58	C	1.329974	0.465350	0.500007
C59	C	0.828833	-0.112154	0.000001
C60	C	1.328833	0.387846	0.500001
C61	C	0.891924	-0.157079	-0.000003
C62	C	1.391924	0.342921	0.499997
C63	C	0.890852	-0.229903	0.000010
C64	C	1.390852	0.270097	0.500010
C65	C	0.826686	-0.257799	0.000010
C66	C	1.326686	0.242201	0.500010
C67	C	0.763587	-0.212864	0.000017
C68	C	1.263587	0.287136	0.500017
C69	C	0.764660	-0.140041	0.000013
C70	C	1.264660	0.359959	0.500013
N71	N	0.777632	-0.365805	-0.042835
N72	N	1.277632	0.134195	0.457165
N73	N	0.776617	-0.434983	-0.042833
N74	N	1.276617	0.065017	0.457167
C75	C	0.823448	-0.477207	0.000025
C76	C	1.323448	0.022793	0.500025
N77	N	0.871344	-0.447641	0.042871
N78	N	1.371344	0.052359	0.542871
N79	N	0.872361	-0.378456	0.042865
N80	N	1.372361	0.121544	0.542865
C81	C	0.825515	-0.336761	0.000015
C82	C	1.325515	0.163239	0.500015
C83	C	0.885381	-0.601097	0.000036
C84	C	1.385381	-0.101097	0.500036
C85	C	0.884307	-0.673922	0.000053
C86	C	1.384307	-0.173922	0.500053
C87	C	0.757040	-0.656880	0.000053
C88	C	1.257040	-0.156880	0.500053
C89	C	0.758116	-0.584057	0.000044
C90	C	1.258116	-0.084057	0.500044
C91	C	0.822289	-0.556170	0.000032
C92	C	1.322289	-0.056170	0.500032
C93	C	0.952154	0.087527	0.000027
C94	C	1.452154	0.587527	0.500027
C95	C	1.029658	0.088666	0.000033
C96	C	1.529658	0.588666	0.500033
C97	C	0.819000	0.220684	0.000043
C98	C	1.319000	0.720684	0.500043
C99	C	0.820140	0.298188	0.000054
C100	C	1.320140	0.798188	0.500054
N101	N	0.824465	0.093008	-0.179139
N102	N	1.324465	0.593008	0.320861
C103	C	0.872092	0.045420	-0.218755
C104	C	1.372092	0.545420	0.281245
C105	C	0.872096	0.045416	-0.298003
C106	C	1.372096	0.545416	0.201997
C107	C	0.824480	0.093014	-0.337631
C108	C	1.324480	0.593014	0.162369
C109	C	0.776844	0.140606	-0.298005
C110	C	1.276844	0.640606	0.201995
C111	C	0.776837	0.140604	-0.218759
C112	C	1.276837	0.640604	0.281241
N113	N	0.815404	0.154821	-0.462041
N114	N	1.315404	0.654821	0.037959
N115	N	0.815415	0.154821	-0.537321
N116	N	1.315415	0.654821	-0.037321
C117	C	0.824498	0.093023	-0.576395
C118	C	1.324498	0.593023	-0.076395
N119	N	0.833584	0.031223	-0.537345
N120	N	1.333584	0.531223	-0.037345
N121	N	0.833576	0.031223	-0.462057
N122	N	1.333576	0.531223	0.037943
C123	C	0.824482	0.093022	-0.423560
C124	C	1.324482	0.593022	0.076440
C125	C	0.872132	0.045427	-0.701940
C126	C	1.372132	0.545427	-0.201940
C127	C	0.872131	0.045423	-0.781190
C128	C	1.372131	0.545423	-0.281190
C129	C	0.776883	0.140619	-0.781191
C130	C	1.276883	0.640619	-0.281191
C131	C	0.776880	0.140617	-0.701943
C132	C	1.276880	0.640617	-0.201943
C133	C	0.824509	0.093022	-0.662323
C134	C	1.324509	0.593022	-0.162323
N135	N	0.824514	0.093020	0.179187
N136	N	1.324514	0.593020	0.679187
H137	H	0.464978	0.210765	0.000023
H138	H	0.964978	0.710765	0.500023
C139	C	0.640086	-0.035384	0.000046
C140	C	1.140086	0.464616	0.500046
C141	C	0.600073	-0.091810	0.000061
C142	C	1.100073	0.408190	0.500061
C143	C	0.644879	-0.154995	0.000099
C144	C	1.144879	0.345005	0.500099
H145	H	0.668857	-0.037715	-0.043846
H146	H	1.168857	0.462285	0.456154
H147	H	0.668845	-0.037645	0.043966
H148	H	1.168845	0.462355	0.543966
H149	H	0.571326	-0.089550	-0.043855
H150	H	1.071326	0.410450	0.456145
H151	H	0.571303	-0.089503	0.043949
H152	H	1.071303	0.410497	0.543949
H153	H	0.673638	-0.157256	0.044020
H154	H	1.173638	0.342744	0.544020
H155	H	0.673648	-0.157318	-0.043793
H156	H	1.173648	0.342682	0.456207
H157	H	0.617737	-0.193287	0.000117
H158	H	1.117737	0.306713	0.500117
H159	H	0.937635	-0.578390	0.000030
H160	H	1.437635	-0.078390	0.500030
C161	C	0.160520	0.223648	-0.000007
C162	C	0.660520	0.723648	0.499993
C163	C	0.105587	0.278676	-0.000025
C164	C	0.605587	0.778676	0.499975
C165	C	0.133334	0.342929	-0.000076
C166	C	0.633334	0.842929	0.499924
H167	H	0.188573	0.226820	0.043881
H168	H	0.688573	0.726820	0.543881
H169	H	0.188544	0.226739	-0.043931
H170	H	0.688544	0.726739	0.456069
H171	H	0.077575	0.275586	0.043894
H172	H	0.577575	0.775586	0.543894
H173	H	0.077530	0.275527	-0.043910
H174	H	0.577530	0.775527	0.456090
H175	H	0.161358	0.346020	-0.044000
H176	H	0.661358	0.846020	0.456000
H177	H	0.161387	0.346093	0.043812
H178	H	0.661387	0.846093	0.543812
H179	H	0.096067	0.380273	-0.000096
H180	H	0.596067	0.880273	0.499904
C181	C	0.689690	-0.535160	0.000078
C182	C	1.189690	-0.035160	0.500078
C183	C	0.704363	-0.465416	0.000093
C184	C	1.204363	0.034584	0.500093
C185	C	0.641344	-0.420353	0.000139
C186	C	1.141344	0.079647	0.500139
H187	H	0.663310	-0.543512	-0.043811
H188	H	1.163310	-0.043512	0.456189
H189	H	0.663372	-0.543544	0.044000
H190	H	1.163372	-0.043544	0.544000
H191	H	0.730670	-0.457035	-0.043824
H192	H	1.230670	0.042965	0.456176
H193	H	0.730733	-0.457042	0.043980
H194	H	1.230733	0.042958	0.543980
H195	H	0.615026	-0.428736	0.044061
H196	H	1.115026	0.071264	0.544061
H197	H	0.614969	-0.428711	-0.043751
H198	H	1.114969	0.071289	0.456249
H199	H	0.651291	-0.373026	0.000156
H200	H	1.151291	0.126974	0.500156
H201	H	0.597088	0.212713	0.000038
H202	H	1.097088	0.712713	0.500038
H203	H	0.738111	0.179371	-0.813456
H204	H	1.238111	0.679371	-0.313456
C205	C	0.488282	-0.037526	0.000165
C206	C	0.988282	0.462474	0.500165
C207	C	0.447000	-0.041864	0.064948
C208	C	0.947000	0.458136	0.564948
C209	C	0.419068	-0.106019	0.065119
C210	C	0.919068	0.393981	0.565119
H211	H	0.460172	-0.040665	-0.043685
H212	H	0.960172	0.459335	0.456315
H213	H	0.525453	-0.074968	0.000201
H214	H	1.025453	0.425032	0.500201
H215	H	0.409834	-0.004432	0.064906
H216	H	0.909834	0.495568	0.564906
H217	H	0.475095	-0.038737	0.108809
H218	H	0.975095	0.461263	0.608809
H219	H	0.456239	-0.143461	0.065154
H220	H	0.956239	0.356539	0.565154
H221	H	0.390961	-0.109152	0.021266
H222	H	0.890961	0.390848	0.521266
H223	H	0.391061	-0.108973	0.109076
H224	H	0.891061	0.391027	0.609076
H225	H	0.942230	-0.266488	0.000010
H226	H	1.442230	0.233512	0.500010
C227	C	0.961667	-0.126938	0.000028
C228	C	1.461667	0.373062	0.500028
C229	C	1.016691	-0.181875	0.000047
C230	C	1.516691	0.318125	0.500047
C231	C	1.080947	-0.154134	0.000086
C232	C	1.580947	0.345866	0.500086
H233	H	0.964823	-0.098904	-0.043864
H234	H	1.464823	0.401096	0.456136
H235	H	0.964779	-0.098896	0.043948
H236	H	1.464779	0.401104	0.543948
H237	H	1.013581	-0.209906	-0.043868
H238	H	1.513581	0.290094	0.456132
H239	H	1.013558	-0.209914	0.043936
H240	H	1.513558	0.290086	0.543936
H241	H	1.084059	-0.126092	0.044006
H242	H	1.584059	0.373908	0.544006
H243	H	1.084096	-0.126101	-0.043807
H244	H	1.584096	0.373899	0.456193
H245	H	1.118288	-0.191404	0.000106
H246	H	1.618288	0.308596	0.500106
H247	H	0.713282	-0.103462	0.000015
H248	H	1.213282	0.396538	0.500015
H249	H	0.738101	0.179371	-0.669686
H250	H	1.238101	0.679371	-0.169686
H251	H	0.935686	-0.710500	0.000054
H252	H	1.435686	-0.210500	0.500054
C253	C	0.687300	-0.687022	0.000092
C254	C	1.187300	-0.187022	0.500092
C255	C	0.632275	-0.632086	0.000108
C256	C	1.132275	-0.132086	0.500108
C257	C	0.568020	-0.659828	0.000158
C258	C	1.068020	-0.159828	0.500158
H259	H	0.684129	-0.715076	-0.043796
H260	H	1.184129	-0.215076	0.456204
H261	H	0.684205	-0.715044	0.044016
H262	H	1.184205	-0.215044	0.544016
H263	H	0.635369	-0.604075	-0.043811
H264	H	1.135369	-0.104075	0.456189
H265	H	0.635423	-0.604027	0.043993
H266	H	1.135423	-0.104027	0.543993
H267	H	0.564925	-0.687851	0.044082
H268	H	1.064925	-0.187851	0.544082
H269	H	0.564856	-0.687882	-0.043731
H270	H	1.064856	-0.187882	0.456269
H271	H	0.530678	-0.622559	0.000176
H272	H	1.030678	-0.122559	0.500176
H273	H	0.711342	-0.235581	0.000019
H274	H	1.211342	0.264419	0.500019
C275	C	0.923826	-0.006338	-0.175876
C276	C	1.423826	0.493662	0.324124
C277	C	0.965524	-0.048028	-0.227539
C278	C	1.465524	0.451972	0.272461
C279	C	1.013182	-0.095722	-0.188066
C280	C	1.513182	0.404278	0.311934
H281	H	0.952875	0.018622	-0.144942
H282	H	1.452875	0.518622	0.355058
H283	H	0.898816	-0.035382	-0.144997
H284	H	1.398816	0.464618	0.355003
H285	H	0.990533	-0.018988	-0.258406
H286	H	1.490533	0.481012	0.241594
H287	H	0.936495	-0.073003	-0.258475
H288	H	1.436495	0.426997	0.241525
H289	H	0.988172	-0.124766	-0.157186
H290	H	1.488172	0.375234	0.342814
H291	H	1.042225	-0.070756	-0.157132
H292	H	1.542225	0.429244	0.342868
H293	H	1.041475	-0.124019	-0.223112
H294	H	1.541475	0.375981	0.276888
C295	C	0.923696	-0.006331	-0.341071
C296	C	1.423696	0.493669	0.158929
C297	C	0.886643	-0.048989	-0.386577
C298	C	1.386643	0.451011	0.113423
C299	C	0.934152	-0.096671	-0.426253
C300	C	1.434152	0.403329	0.073747
H301	H	0.952696	0.018639	-0.372031
H302	H	1.452696	0.518639	0.127969
H303	H	0.952051	-0.034720	-0.306152
H304	H	1.452051	0.465280	0.193848
H305	H	0.858300	-0.020604	-0.421492
H306	H	1.358300	0.479396	0.078508
H307	H	0.857646	-0.073975	-0.355636
H308	H	1.357646	0.426025	0.144364
H309	H	0.962507	-0.125060	-0.391334
H310	H	1.462507	0.374940	0.108666
H311	H	0.963150	-0.071695	-0.457209
H312	H	1.463150	0.428305	0.042791
H313	H	0.909019	-0.125625	-0.457128
H314	H	1.409019	0.374375	0.042872
C315	C	0.725225	0.192254	-0.341164
C316	C	1.225225	0.692254	0.158836
C317	C	0.735438	0.182085	-0.419044
C318	C	1.235438	0.682085	0.080956
C319	C	0.687902	0.229655	-0.458824
C320	C	1.187902	0.729655	0.041176
H321	H	0.678621	0.184832	-0.328286
H322	H	1.178621	0.684832	0.171714
H323	H	0.732666	0.238848	-0.328203
H324	H	1.232666	0.738848	0.171797
H325	H	0.727992	0.135501	-0.431999
H326	H	1.227992	0.635501	0.068001
H327	H	0.782033	0.189512	-0.431944
H328	H	1.282033	0.689512	0.068056
H329	H	0.695343	0.276249	-0.445864
H330	H	1.195343	0.776249	0.054136
H331	H	0.641301	0.222229	-0.445940
H332	H	1.141301	0.722229	0.054060
H333	H	0.694830	0.222766	-0.511670
H334	H	1.194830	0.722766	-0.011670
C335	C	0.725097	0.192356	-0.175880
C336	C	1.225097	0.692356	0.324120
C337	C	0.683406	0.234052	-0.227542
C338	C	1.183406	0.734052	0.272458
C339	C	0.635743	0.281742	-0.188067
C340	C	1.135743	0.781742	0.311933
H341	H	0.696045	0.167394	-0.144975
H342	H	1.196045	0.667394	0.355025
H343	H	0.750104	0.221397	-0.144970
H344	H	1.250104	0.721397	0.355030
H345	H	0.658401	0.205014	-0.258439
H346	H	1.158401	0.705014	0.241561
H347	H	0.712439	0.259030	-0.258448
H348	H	1.212439	0.759030	0.241552
H349	H	0.660749	0.310783	-0.157157
H350	H	1.160749	0.810783	0.342843
H351	H	0.606696	0.256773	-0.157164
H352	H	1.106696	0.756773	0.342836
H353	H	0.607454	0.310042	-0.223114
H354	H	1.107454	0.810042	0.276886
H355	H	0.910911	0.006670	-0.669680
H356	H	1.410911	0.506670	-0.169680
H357	H	0.051883	-0.026685	0.000035
H358	H	0.551883	0.473315	0.500035
H359	H	0.910912	0.006666	-0.813446
H360	H	1.410912	0.506666	-0.313446
H361	H	0.020968	0.204211	0.000035
H362	H	0.520968	0.704211	0.500035
H363	H	0.183999	-0.024728	0.000024
H364	H	0.683999	0.475272	0.500024
