data_functionalizedCrystal
_audit_creation_method	'MofGen! by Chris Wilmer'
_symmetry_space_group_name_H-M	'P1'
_symmetry_Int_Tables_number	1
_symmetry_cell_setting	triclinic
loop_
_symmetry_equiv_pos_as_xyz
  x,y,z
_cell_length_a	21.295419
_cell_length_b	21.295416
_cell_length_c	16.959447
_cell_angle_alpha	90.029154
_cell_angle_beta	89.981387
_cell_angle_gamma	89.954868
loop_
_atom_site_label
_atom_site_type_symbol
_atom_site_fract_x
_atom_site_fract_y
_atom_site_fract_z
Zn1	Zn	0.962320	0.250370	-0.446919
Zn2	Zn	1.212320	0.500370	-0.196919
Zn3	Zn	1.462320	0.750370	0.053081
Zn4	Zn	1.712320	1.000370	0.303081
Zn5	Zn	0.962233	0.355641	-0.314735
Zn6	Zn	1.212233	0.605641	-0.064735
Zn7	Zn	1.462233	0.855641	0.185265
Zn8	Zn	1.712233	1.105641	0.435265
Zn9	Zn	0.857054	0.250416	-0.314754
Zn10	Zn	1.107054	0.500416	-0.064754
Zn11	Zn	1.357054	0.750416	0.185246
Zn12	Zn	1.607054	1.000416	0.435246
Zn13	Zn	0.857012	0.355633	-0.446871
Zn14	Zn	1.107012	0.605633	-0.196871
Zn15	Zn	1.357012	0.855633	0.053129
Zn16	Zn	1.607012	1.105633	0.303129
O17	O	0.909655	0.303015	-0.380820
O18	O	1.159655	0.553015	-0.130820
O19	O	1.409655	0.803015	0.119180
O20	O	1.659655	1.053015	0.369180
O21	O	1.050397	0.264319	-0.429397
O22	O	1.300397	0.514319	-0.179397
O23	O	1.550397	0.764319	0.070603
O24	O	1.800397	1.014319	0.320603
O25	O	0.948262	0.341705	-0.204127
O26	O	1.198262	0.591705	0.045873
O27	O	1.448262	0.841705	0.295873
O28	O	1.698262	1.091705	0.545873
O29	O	0.871071	0.162321	-0.332314
O30	O	1.121071	0.412321	-0.082314
O31	O	1.371071	0.662321	0.167686
O32	O	1.621071	0.912321	0.417686
O33	O	1.050334	0.341660	-0.332282
O34	O	1.300334	0.591660	-0.082282
O35	O	1.550334	0.841660	0.167718
O36	O	1.800334	1.091660	0.417718
O37	O	0.948409	0.162287	-0.429415
O38	O	1.198409	0.412287	-0.179415
O39	O	1.448409	0.662287	0.070585
O40	O	1.698409	0.912287	0.320585
O41	O	0.870987	0.264397	-0.204141
O42	O	1.120987	0.514397	0.045859
O43	O	1.370987	0.764397	0.295859
O44	O	1.620987	1.014397	0.545859
O45	O	0.768959	0.264390	-0.332268
O46	O	1.018959	0.514390	-0.082268
O47	O	1.268959	0.764390	0.167732
O48	O	1.518959	1.014390	0.417732
O49	O	0.871001	0.341647	-0.557489
O50	O	1.121001	0.591647	-0.307489
O51	O	1.371001	0.841647	-0.057489
O52	O	1.621001	1.091647	0.192511
O53	O	0.768929	0.341692	-0.429333
O54	O	1.018929	0.591692	-0.179333
O55	O	1.268929	0.841692	0.070667
O56	O	1.518929	1.091692	0.320667
O57	O	0.948369	0.264311	-0.557524
O58	O	1.198369	0.514311	-0.307524
O59	O	1.448369	0.764311	-0.057524
O60	O	1.698369	1.014311	0.192476
O61	O	0.948222	0.443729	-0.332235
O62	O	1.198222	0.693729	-0.082235
O63	O	1.448222	0.943729	0.167765
O64	O	1.698222	1.193729	0.417765
O65	O	0.870917	0.443723	-0.429315
O66	O	1.120917	0.693723	-0.179315
O67	O	1.370917	0.943723	0.070685
O68	O	1.620917	1.193723	0.320685
C69	C	0.746103	0.303045	-0.380798
C70	C	0.996103	0.553045	-0.130798
C71	C	1.246103	0.803045	0.119202
C72	C	1.496103	1.053045	0.369202
C73	C	0.676135	0.303073	-0.380807
C74	C	0.926135	0.553073	-0.130807
C75	C	1.176135	0.803073	0.119193
C76	C	1.426135	1.053073	0.369193
C77	C	0.643324	0.262867	-0.431453
C78	C	0.893324	0.512867	-0.181453
C79	C	1.143324	0.762867	0.068547
C80	C	1.393324	1.012867	0.318547
C81	C	0.577581	0.262850	-0.431456
C82	C	0.827581	0.512850	-0.181456
C83	C	1.077581	0.762850	0.068544
C84	C	1.327581	1.012850	0.318544
C85	C	0.544652	0.303051	-0.380821
C86	C	0.794652	0.553051	-0.130821
C87	C	1.044652	0.803051	0.119179
C88	C	1.294652	1.053051	0.369179
C89	C	0.577472	0.343259	-0.330166
C90	C	0.827472	0.593259	-0.080166
C91	C	1.077472	0.843259	0.169834
C92	C	1.327472	1.093259	0.419834
C93	C	0.643213	0.343271	-0.330158
C94	C	0.893213	0.593271	-0.080158
C95	C	1.143213	0.843271	0.169842
C96	C	1.393213	1.093271	0.419842
N97	N	0.441378	0.358129	-0.374647
N98	N	0.691378	0.608129	-0.124647
N99	N	0.941378	0.858129	0.125353
N100	N	1.191378	1.108129	0.375353
N101	N	0.378926	0.358116	-0.374658
N102	N	0.628926	0.608116	-0.124658
N103	N	0.878926	0.858116	0.125342
N104	N	1.128926	1.108116	0.375342
C105	C	0.346578	0.303018	-0.380839
C106	C	0.596578	0.553018	-0.130839
C107	C	0.846578	0.803018	0.119161
C108	C	1.096578	1.053018	0.369161
N109	N	0.379040	0.247932	-0.387023
N110	N	0.629040	0.497932	-0.137023
N111	N	0.879040	0.747932	0.112977
N112	N	1.129040	0.997932	0.362977
N113	N	0.441497	0.247945	-0.387016
N114	N	0.691497	0.497945	-0.137016
N115	N	0.941497	0.747945	0.112984
N116	N	1.191497	0.997945	0.362984
C117	C	0.473367	0.303043	-0.380823
C118	C	0.723367	0.553043	-0.130823
C119	C	0.973367	0.803043	0.119177
C120	C	1.223367	1.053043	0.369177
C121	C	0.242481	0.262790	-0.431491
C122	C	0.492481	0.512790	-0.181491
C123	C	0.742481	0.762790	0.068509
C124	C	0.992481	1.012790	0.318509
C125	C	0.176737	0.262772	-0.431488
C126	C	0.426737	0.512772	-0.181488
C127	C	0.676737	0.762772	0.068512
C128	C	0.926737	1.012772	0.318512
C129	C	0.176629	0.343187	-0.330202
C130	C	0.426629	0.593187	-0.080202
C131	C	0.676629	0.843187	0.169798
C132	C	0.926629	1.093187	0.419798
C133	C	0.242371	0.343199	-0.330200
C134	C	0.492371	0.593199	-0.080200
C135	C	0.742371	0.843199	0.169800
C136	C	0.992371	1.093199	0.419800
C137	C	0.275293	0.303002	-0.380849
C138	C	0.525293	0.553002	-0.130849
C139	C	0.775293	0.803002	0.119151
C140	C	1.025293	1.053002	0.369151
C141	C	0.909573	0.466567	-0.380785
C142	C	1.159573	0.716567	-0.130785
C143	C	1.409573	0.966567	0.119215
C144	C	1.659573	1.216567	0.369215
C145	C	0.909595	0.536535	-0.380797
C146	C	1.159595	0.786535	-0.130797
C147	C	1.409595	1.036535	0.119203
C148	C	1.659595	1.286535	0.369203
C149	C	0.949884	0.569383	-0.330301
C150	C	1.199884	0.819383	-0.080301
C151	C	1.449884	1.069383	0.169699
C152	C	1.699884	1.319383	0.419699
C153	C	0.949914	0.635126	-0.330322
C154	C	1.199914	0.885126	-0.080322
C155	C	1.449914	1.135126	0.169678
C156	C	1.699914	1.385126	0.419678
C157	C	0.909643	0.668017	-0.380831
C158	C	1.159643	0.918017	-0.130831
C159	C	1.409643	1.168017	0.119169
C160	C	1.659643	1.418017	0.369169
C161	C	0.869352	0.635161	-0.431337
C162	C	1.119352	0.885161	-0.181337
C163	C	1.369352	1.135161	0.068663
C164	C	1.619352	1.385161	0.318663
C165	C	0.869328	0.569419	-0.431319
C166	C	1.119328	0.819419	-0.181319
C167	C	1.369328	1.069419	0.068681
C168	C	1.619328	1.319419	0.318681
N169	N	0.854576	0.771297	-0.386855
N170	N	1.104576	1.021297	-0.136855
N171	N	1.354576	1.271297	0.113145
N172	N	1.604576	1.521297	0.363145
N173	N	0.854601	0.833749	-0.386867
N174	N	1.104601	1.083749	-0.136867
N175	N	1.354601	1.333749	0.113133
N176	N	1.604601	1.583749	0.363133
C177	C	0.909714	0.866092	-0.380887
C178	C	1.159714	1.116092	-0.130887
C179	C	1.409714	1.366092	0.119113
C180	C	1.659714	1.616092	0.369113
N181	N	0.964804	0.833624	-0.374880
N182	N	1.214804	1.083624	-0.124880
N183	N	1.464804	1.333624	0.125120
N184	N	1.714804	1.583624	0.375120
N185	N	0.964778	0.771167	-0.374864
N186	N	1.214778	1.021167	-0.124864
N187	N	1.464778	1.271167	0.125136
N188	N	1.714778	1.521167	0.375136
C189	C	0.909665	0.739303	-0.380856
C190	C	1.159665	0.989303	-0.130856
C191	C	1.409665	1.239303	0.119144
C192	C	1.659665	1.489303	0.369144
C193	C	0.950039	0.970226	-0.330412
C194	C	1.200039	1.220226	-0.080412
C195	C	1.450039	1.470226	0.169588
C196	C	1.700039	1.720226	0.419588
C197	C	0.950069	1.035970	-0.330439
C198	C	1.200069	1.285970	-0.080439
C199	C	1.450069	1.535970	0.169561
C200	C	1.700069	1.785970	0.419561
C201	C	0.869502	1.036003	-0.431449
C202	C	1.119502	1.286003	-0.181449
C203	C	1.369502	1.536003	0.068551
C204	C	1.619502	1.786003	0.318551
C205	C	0.869477	0.970261	-0.431426
C206	C	1.119477	1.220261	-0.181426
C207	C	1.369477	1.470261	0.068574
C208	C	1.619477	1.720261	0.318574
C209	C	0.909744	0.937376	-0.380903
C210	C	1.159744	1.187376	-0.130903
C211	C	1.409744	1.437376	0.119097
C212	C	1.659744	1.687376	0.369097
C213	C	1.073845	0.302985	-0.380843
C214	C	1.323845	0.552985	-0.130843
C215	C	1.573845	0.802985	0.119157
C216	C	1.823845	1.052985	0.369157
C217	C	1.143813	0.302972	-0.380852
C218	C	1.393813	0.552972	-0.130852
C219	C	1.643813	0.802972	0.119148
C220	C	1.893813	1.052972	0.369148
C221	C	0.909690	0.302973	-0.586988
C222	C	1.159690	0.552973	-0.336988
C223	C	1.409690	0.802973	-0.086988
C224	C	1.659690	1.052973	0.163012
C225	C	0.909705	0.302955	-0.674845
C226	C	1.159705	0.552955	-0.424845
C227	C	1.409705	0.802955	-0.174845
C228	C	1.659705	1.052955	0.075155
C229	C	0.909755	1.138825	-0.380886
C230	C	1.159755	1.388825	-0.130886
C231	C	1.409755	1.638825	0.119114
C232	C	1.659755	1.888825	0.369114
C233	C	0.909800	1.068857	-0.380949
C234	C	1.159800	1.318857	-0.130949
C235	C	1.409800	1.568857	0.119051
C236	C	1.659800	1.818857	0.369051
C237	C	0.869431	0.343213	-0.716102
C238	C	1.119431	0.593213	-0.466102
C239	C	1.369431	0.843213	-0.216102
C240	C	1.619431	1.093213	0.033898
C241	C	0.949990	0.262677	-0.716141
C242	C	1.199990	0.512677	-0.466141
C243	C	1.449990	0.762677	-0.216141
C244	C	1.699990	1.012677	0.033859
C245	C	0.950003	0.262656	-0.798687
C246	C	1.200003	0.512656	-0.548687
C247	C	1.450003	0.762656	-0.298687
C248	C	1.700003	1.012656	-0.048687
C249	C	0.909729	0.302914	-0.839944
C250	C	1.159729	0.552914	-0.589944
C251	C	1.409729	0.802914	-0.339944
C252	C	1.659729	1.052914	-0.089944
C253	C	0.869441	0.343192	-0.798656
C254	C	1.119441	0.593192	-0.548656
C255	C	1.369441	0.843192	-0.298656
C256	C	1.619441	1.093192	-0.048656
C257	C	0.990285	0.222374	-0.839982
C258	C	1.240285	0.472374	-0.589982
C259	C	1.490285	0.722374	-0.339982
C260	C	1.740285	0.972374	-0.089982
C261	C	0.990300	0.222352	-0.922533
C262	C	1.240300	0.472352	-0.672533
C263	C	1.490300	0.722352	-0.422533
C264	C	1.740300	0.972352	-0.172533
C265	C	0.950028	0.262613	-0.963792
C266	C	1.200028	0.512613	-0.713792
C267	C	1.450028	0.762613	-0.463792
C268	C	1.700028	1.012613	-0.213792
C269	C	0.909739	0.302893	-0.922498
C270	C	1.159739	0.552893	-0.672498
C271	C	1.409739	0.802893	-0.422498
C272	C	1.659739	1.052893	-0.172498
C273	C	0.869465	0.343151	-0.963755
C274	C	1.119465	0.593151	-0.713755
C275	C	1.369465	0.843151	-0.463755
C276	C	1.619465	1.093151	-0.213755
C277	C	0.829179	0.383435	-0.922463
C278	C	1.079179	0.633435	-0.672463
C279	C	1.329179	0.883435	-0.422463
C280	C	1.579179	1.133435	-0.172463
C281	C	0.829169	0.383453	-0.839914
C282	C	1.079169	0.633453	-0.589914
C283	C	1.329169	0.883453	-0.339914
C284	C	1.579169	1.133453	-0.089914
C285	C	0.950037	0.262594	-1.046340
C286	C	1.200037	0.512594	-0.796340
C287	C	1.450037	0.762594	-0.546340
C288	C	1.700037	1.012594	-0.296340
C289	C	0.869475	0.343130	-1.046309
C290	C	1.119475	0.593130	-0.796309
C291	C	1.369475	0.843130	-0.546309
C292	C	1.619475	1.093130	-0.296309
C293	C	0.909656	0.303011	-0.175454
C294	C	1.159656	0.553011	0.074546
C295	C	1.409656	0.803011	0.324546
C296	C	1.659656	1.053011	0.574546
C297	C	0.909763	0.302852	-0.087598
C298	C	1.159763	0.552852	0.162402
C299	C	1.409763	0.802852	0.412402
C300	C	1.659763	1.052852	0.662402
H301	H	0.269288	0.230055	-0.472727
H302	H	0.519288	0.480055	-0.222727
H303	H	0.769288	0.730055	0.027273
H304	H	1.019288	0.980055	0.277273
O305	O	0.993531	1.071397	-0.275972
O306	O	1.243531	1.321397	-0.025972
O307	O	1.493531	1.571397	0.224028
O308	O	1.743531	1.821397	0.474028
H309	H	1.025560	1.101283	-0.311394
H310	H	1.275560	1.351283	-0.061394
H311	H	1.525560	1.601283	0.188606
H312	H	1.775560	1.851283	0.438606
H313	H	0.982673	0.542611	-0.289164
H314	H	1.232673	0.792611	-0.039164
H315	H	1.482673	1.042611	0.210836
H316	H	1.732673	1.292611	0.460836
O317	O	0.993484	0.219153	-1.090880
O318	O	1.243484	0.469153	-0.840880
O319	O	1.493484	0.719153	-0.590880
O320	O	1.743484	0.969153	-0.340880
H321	H	1.021488	0.191165	-1.048323
H322	H	1.271488	0.441165	-0.798323
H323	H	1.521488	0.691165	-0.548323
H324	H	1.771488	0.941165	-0.298323
O325	O	1.033749	0.178909	-0.967073
O326	O	1.283749	0.428909	-0.717073
O327	O	1.533749	0.678909	-0.467073
O328	O	1.783749	0.928909	-0.217073
H329	H	1.083146	0.189701	-0.951241
H330	H	1.333146	0.439701	-0.701241
H331	H	1.583146	0.689701	-0.451241
H332	H	1.833146	0.939701	-0.201241
O333	O	0.678834	0.219502	-0.486064
O334	O	0.928834	0.469502	-0.236064
O335	O	1.178834	0.719502	0.013936
O336	O	1.428834	0.969502	0.263936
H337	H	0.644969	0.191535	-0.521274
H338	H	0.894969	0.441535	-0.271274
H339	H	1.144969	0.691535	-0.021274
H340	H	1.394969	0.941535	0.228726
H341	H	0.550657	0.375990	-0.288938
H342	H	0.800657	0.625990	-0.038938
H343	H	1.050657	0.875990	0.211062
H344	H	1.300657	1.125990	0.461062
H345	H	0.150024	0.230028	-0.472729
H346	H	0.400024	0.480028	-0.222729
H347	H	0.650024	0.730028	0.027271
H348	H	0.900024	0.980028	0.277271
H349	H	0.669927	0.376012	-0.288915
H350	H	0.919927	0.626012	-0.038915
H351	H	1.169927	0.876012	0.211085
H352	H	1.419927	1.126012	0.461085
H353	H	0.149819	0.375919	-0.288974
H354	H	0.399819	0.625919	-0.038974
H355	H	0.649819	0.875919	0.211026
H356	H	0.899819	1.125919	0.461026
H357	H	0.836668	0.943514	-0.472541
H358	H	1.086668	1.193514	-0.222541
H359	H	1.336668	1.443514	0.027459
H360	H	1.586668	1.693514	0.277459
H361	H	0.269086	0.375942	-0.288962
H362	H	0.519086	0.625942	-0.038962
H363	H	0.769086	0.875942	0.211038
H364	H	1.019086	1.125942	0.461038
H365	H	0.982777	0.229898	-0.682545
H366	H	1.232777	0.479898	-0.432545
H367	H	1.482777	0.729898	-0.182545
H368	H	1.732777	0.979898	0.067455
H369	H	0.982724	0.661877	-0.289202
H370	H	1.232724	0.911877	-0.039202
H371	H	1.482724	1.161877	0.210798
H372	H	1.732724	1.411877	0.460798
O373	O	0.826063	1.071468	-0.485926
O374	O	1.076063	1.321468	-0.235926
O375	O	1.326063	1.571468	0.014074
O376	O	1.576063	1.821468	0.264074
H377	H	0.832844	1.122701	-0.477451
H378	H	1.082844	1.372701	-0.227451
H379	H	1.332844	1.622701	0.022549
H380	H	1.582844	1.872701	0.272549
O381	O	0.993485	0.934748	-0.275948
O382	O	1.243485	1.184748	-0.025948
O383	O	1.493485	1.434748	0.224052
O384	O	1.743485	1.684748	0.474052
H385	H	0.965328	0.904850	-0.235683
H386	H	1.215328	1.154850	0.014317
H387	H	1.465328	1.404850	0.264317
H388	H	1.715328	1.654850	0.514317
H389	H	0.836565	0.661945	-0.472463
H390	H	1.086565	0.911945	-0.222463
H391	H	1.336565	1.161945	0.027537
H392	H	1.586565	1.411945	0.277537
O393	O	0.826033	0.386548	-1.090808
O394	O	1.076033	0.636548	-0.840808
O395	O	1.326033	0.886548	-0.590808
O396	O	1.576033	1.136548	-0.340808
H397	H	0.798016	0.414556	-1.048225
H398	H	1.048016	0.664556	-0.798225
H399	H	1.298016	0.914556	-0.548225
H400	H	1.548016	1.164556	-0.298225
H401	H	0.796384	0.416209	-0.956065
H402	H	1.046384	0.666209	-0.706065
H403	H	1.296384	0.916209	-0.456065
H404	H	1.546384	1.166209	-0.206065
O405	O	0.825858	0.533990	-0.485774
O406	O	1.075858	0.783990	-0.235774
O407	O	1.325858	1.033990	0.014226
O408	O	1.575858	1.283990	0.264226
H409	H	0.836621	0.546559	-0.547829
H410	H	1.086621	0.796559	-0.297829
H411	H	1.336621	1.046559	-0.047829
H412	H	1.586621	1.296559	0.202171
O413	O	0.542179	0.219489	-0.486089
O414	O	0.792179	0.469489	-0.236089
O415	O	1.042179	0.719489	0.013911
O416	O	1.292179	0.969489	0.263911
H417	H	0.576117	0.191543	-0.521310
H418	H	0.826117	0.441543	-0.271310
H419	H	1.076117	0.691543	-0.021310
H420	H	1.326117	0.941543	0.228690
H421	H	0.796370	0.416250	-0.806287
H422	H	1.046370	0.666250	-0.556287
H423	H	1.296370	0.916250	-0.306287
H424	H	1.546370	1.166250	-0.056287
O425	O	0.825976	0.386658	-0.671574
O426	O	1.075976	0.636658	-0.421574
O427	O	1.325976	0.886658	-0.171574
O428	O	1.575976	1.136658	0.078426
H429	H	0.832730	0.379909	-0.607241
H430	H	1.082730	0.629909	-0.357241
H431	H	1.332730	0.879909	-0.107241
H432	H	1.582730	1.129909	0.142759
H433	H	1.023072	0.189597	-0.806385
H434	H	1.273072	0.439597	-0.556385
H435	H	1.523072	0.689597	-0.306385
H436	H	1.773072	0.939597	-0.056385
