data_functionalizedCrystal
_audit_creation_method	'MofGen! by Chris Wilmer'
_symmetry_space_group_name_H-M	'P1'
_symmetry_Int_Tables_number	1
_symmetry_cell_setting	triclinic
loop_
_symmetry_equiv_pos_as_xyz
  x,y,z
_cell_length_a	12.759395
_cell_length_b	12.759394
_cell_length_c	12.759387
_cell_angle_alpha	90.031660
_cell_angle_beta	90.021028
_cell_angle_gamma	90.015598
loop_
_atom_site_label
_atom_site_type_symbol
_atom_site_fract_x
_atom_site_fract_y
_atom_site_fract_z
Zn1	Zn	1.606268	-0.418190	0.594013
Zn2	Zn	1.606158	-0.593907	0.418331
Zn3	Zn	1.430566	-0.418245	0.418349
Zn4	Zn	1.430558	-0.593830	0.593969
O5	O	1.518387	-0.506043	0.506165
O6	O	1.753274	-0.441508	0.570720
O7	O	1.582823	-0.570660	0.271312
O8	O	1.453922	-0.271216	0.441677
O9	O	1.753194	-0.570607	0.441647
O10	O	1.583010	-0.271176	0.570737
O11	O	1.453816	-0.441602	0.271325
O12	O	1.283544	-0.441527	0.441634
O13	O	1.453909	-0.570475	0.740996
O14	O	1.283538	-0.570529	0.570661
O15	O	1.583002	-0.441434	0.741029
O16	O	1.582815	-0.740918	0.441604
O17	O	1.453802	-0.740861	0.570644
C18	C	1.245420	-0.506026	0.506145
C19	C	1.128643	-0.506044	0.506161
C20	C	0.909292	-0.371854	0.640817
C21	C	0.964201	-0.304737	0.708115
C22	C	1.073922	-0.304719	0.708096
C23	C	1.128738	-0.371828	0.640775
C24	C	1.073830	-0.438945	0.573477
C25	C	0.964106	-0.438954	0.573501
C26	C	1.073735	-0.573162	0.438863
C27	C	0.964013	-0.573176	0.438874
C28	C	1.128551	-0.640271	0.371542
C29	C	1.073643	-0.707384	0.304237
C30	C	0.963914	-0.707399	0.304257
C31	C	0.909105	-0.640294	0.371577
C32	C	1.518324	-0.779010	0.506140
C33	C	1.518393	-0.895787	0.506164
C34	C	1.652835	-0.895793	0.371895
C35	C	1.720083	-0.950656	0.304773
C36	C	1.720145	-1.060378	0.304802
C37	C	1.652953	-1.115238	0.371962
C38	C	1.585705	-1.060375	0.439084
C39	C	1.585648	-0.950650	0.439046
C40	C	1.451270	-1.060369	0.573357
C41	C	1.451202	-0.950647	0.573324
C42	C	1.384079	-1.115229	0.640517
C43	C	1.316823	-1.060366	0.707635
C44	C	1.316764	-0.950638	0.707603
C45	C	1.383954	-0.895784	0.640446
C46	C	1.792421	-0.506060	0.506187
C47	C	1.909197	-0.506067	0.506196
C48	C	1.518467	-0.505940	0.780199
C49	C	1.518500	-0.505896	0.896976
C50	C	1.518479	-0.232009	0.506214
C51	C	1.518518	-0.115233	0.506235
C52	C	1.518369	-0.506069	0.233198
C53	C	1.518538	-0.505817	0.116422
C54	C	1.652934	-0.371533	0.897030
C55	C	1.720166	-0.304336	0.951918
C56	C	1.720192	-0.304298	1.061639
C57	C	1.652976	-0.371462	1.116476
C58	C	1.585744	-0.438659	1.061588
C59	C	1.585728	-0.438692	0.951864
C60	C	1.451307	-0.573014	1.061534
C61	C	1.451285	-0.573060	0.951812
C62	C	1.384091	-0.640178	1.116370
C63	C	1.316863	-0.707382	1.061483
C64	C	1.316841	-0.707418	0.951754
C65	C	1.384053	-0.640257	0.896924
H66	H	1.118628	-0.250068	0.762898
N67	N	1.247080	-0.371864	0.640806
H68	H	1.273546	-0.319181	0.693671
H69	H	1.273442	-0.352507	0.568743
H70	H	0.819951	-0.371839	0.640815
N71	N	0.905085	-0.232355	0.780724
H72	H	0.859581	-0.275113	0.829346
H73	H	0.859607	-0.183634	0.738048
H74	H	1.774890	-0.249651	0.907258
H75	H	1.217892	-0.640258	0.371538
N76	N	0.904689	-0.779782	0.231666
H77	H	0.859179	-0.828527	0.274282
H78	H	0.956130	-0.822218	0.189032
N79	N	1.132762	-0.779762	0.231637
H80	H	1.210601	-0.769571	0.241842
H81	H	1.113551	-0.763317	0.156634
N82	N	0.790763	-0.640297	0.371599
H83	H	0.764373	-0.659695	0.443644
H84	H	0.764374	-0.692987	0.318707
H85	H	1.652778	-0.806451	0.371852
H86	H	1.652930	-0.371568	0.807689
N87	N	1.792670	-1.119569	0.232413
H88	H	1.867722	-1.100407	0.248781
H89	H	1.776287	-1.100533	0.157355
N90	N	1.792558	-0.891487	0.232345
H91	H	1.782318	-0.813654	0.242508
H92	H	1.776250	-0.910743	0.157303
N93	N	1.244310	-0.779890	0.892568
H94	H	1.260590	-0.854954	0.911653
H95	H	1.254516	-0.769642	0.814756
N96	N	1.244379	-0.779806	1.120641
H97	H	1.260656	-0.854886	1.101547
H98	H	1.169343	-0.763397	1.101516
N99	N	1.653007	-0.371400	1.234818
H100	H	1.672295	-0.443461	1.261248
H101	H	1.580933	-0.352020	1.261153
N102	N	1.244358	-1.119528	0.780067
H103	H	1.287060	-1.164971	0.828804
H104	H	1.195732	-1.165072	0.737271
N105	N	1.792694	-0.231815	1.120848
H106	H	1.835268	-0.189270	1.069465
H107	H	1.841304	-0.274573	1.166372
H108	H	1.653018	-1.204579	0.371988
N109	N	1.384145	-1.233571	0.640556
H110	H	1.436938	-1.260005	0.587843
H111	H	1.312057	-1.259988	0.621230
H112	H	1.262006	-0.905973	0.762266
N113	N	1.383888	-0.777442	0.640402
H114	H	1.455939	-0.750939	0.659760
H115	H	1.331046	-0.751091	0.693103
H116	H	1.384113	-0.640138	1.205712
H117	H	1.384046	-0.640284	0.807583
