data_functionalizedCrystal
_audit_creation_method	'MofGen! by Chris Wilmer'
_symmetry_space_group_name_H-M	'P1'
_symmetry_Int_Tables_number	1
_symmetry_cell_setting	triclinic
loop_
_symmetry_equiv_pos_as_xyz
  x,y,z
_cell_length_a	8.497374
_cell_length_b	12.759399
_cell_length_c	12.759401
_cell_angle_alpha	90.016641
_cell_angle_beta	89.998247
_cell_angle_gamma	89.991562
loop_
_atom_site_label
_atom_site_type_symbol
_atom_site_fract_x
_atom_site_fract_y
_atom_site_fract_z
Zn1	Zn	0.891958	0.418406	-1.606064
Zn2	Zn	0.628160	0.594052	-1.606013
Zn3	Zn	0.628185	0.418393	-1.430422
Zn4	Zn	0.891892	0.594048	-1.430354
O5	O	0.760048	0.506225	-1.518213
O6	O	0.856982	0.441713	-1.753079
O7	O	0.407401	0.570747	-1.582728
O8	O	0.663213	0.271373	-1.453771
O9	O	0.663171	0.570760	-1.753041
O10	O	0.857005	0.271383	-1.582815
O11	O	0.407419	0.441691	-1.453722
O12	O	0.663149	0.441686	-1.283392
O13	O	1.112663	0.570752	-1.453655
O14	O	0.856893	0.570739	-1.283342
O15	O	1.112711	0.441709	-1.582749
O16	O	0.663107	0.741073	-1.582661
O17	O	0.856869	0.741069	-1.453605
C18	C	0.760013	0.779192	-1.518149
C19	C	0.760050	0.895969	-1.518217
C20	C	0.760017	0.506212	-1.245246
C21	C	0.760041	0.506232	-1.128469
C22	C	0.760081	0.506238	-1.792246
C23	C	0.760095	0.506244	-1.909023
C24	C	1.171529	0.506226	-1.518205
C25	C	1.350173	0.506237	-1.518208
C26	C	0.760119	0.232191	-1.518307
C27	C	0.760149	0.115415	-1.518346
C28	C	0.659273	0.950797	-1.585494
C29	C	0.659326	1.060521	-1.585561
C30	C	0.860938	1.060578	-1.451067
C31	C	0.860891	0.950856	-1.451006
C32	C	0.603186	1.210382	-1.709582
C33	C	0.502384	1.265215	-1.776849
C34	C	0.348458	1.229634	-1.793046
C35	C	0.295302	1.139222	-1.741961
C36	C	0.396096	1.084396	-1.674686
C37	C	0.550044	1.119975	-1.658509
C38	C	0.917015	0.800993	-1.326983
C39	C	1.017802	0.746165	-1.259702
C40	C	1.171731	0.781743	-1.243495
C41	C	1.224880	0.872158	-1.294561
C42	C	1.124094	0.926987	-1.361842
C43	C	0.970167	0.891401	-1.378052
C44	C	0.860765	0.573532	-1.073609
C45	C	0.860796	0.573536	-0.963885
C46	C	0.659366	0.438937	-0.963891
C47	C	0.659344	0.438928	-1.073613
C48	C	1.046781	0.611283	-0.813947
C49	C	1.147491	0.678599	-0.759083
C50	C	1.171437	0.781136	-0.794674
C51	C	1.094649	0.816378	-0.885128
C52	C	0.993928	0.749067	-0.939987
C53	C	0.970012	0.646515	-0.904397
C54	C	0.473357	0.401192	-1.223553
C55	C	0.372627	0.333885	-1.278414
C56	C	0.348665	0.231346	-1.242824
C57	C	0.425424	0.196109	-1.152367
C58	C	0.526155	0.263415	-1.097506
C59	C	0.550119	0.365953	-1.133103
H60	H	0.352819	1.010783	-1.633096
H61	H	0.931408	0.777760	-1.013632
O62	O	0.496594	0.500869	-1.257948
C63	C	0.448946	0.572199	-1.179719
H64	H	0.452201	0.531897	-1.100022
H65	H	0.532056	0.642327	-1.179123
H66	H	0.324059	0.600055	-1.196753
H67	H	1.350223	0.901127	-1.281365
H68	H	0.728530	1.239354	-1.696411
H69	H	0.169953	1.110266	-1.755146
H70	H	0.545678	1.338828	-1.818443
H71	H	0.942763	0.628332	-1.118269
O72	O	1.269640	0.728618	-1.178027
C73	C	1.317493	0.795181	-1.095767
H74	H	1.227741	0.860833	-1.085708
H75	H	1.326042	0.748239	-1.019972
H76	H	1.437388	0.830295	-1.115100
O77	O	0.561162	0.897431	-1.650636
C78	C	0.459186	0.834024	-1.590846
H79	H	0.449343	0.867163	-1.508123
H80	H	0.337830	0.832782	-1.628914
H81	H	0.507922	0.750857	-1.587152
O82	O	0.965936	0.658426	-1.210041
C83	C	0.835645	0.683820	-1.146490
H84	H	0.777660	0.758315	-1.177171
H85	H	0.747092	0.616738	-1.148444
H86	H	0.876823	0.696940	-1.062470
H87	H	1.027310	0.527785	-0.784967
O88	O	0.251005	0.165826	-1.296104
C89	C	0.336143	0.077287	-1.330164
H90	H	0.444387	0.066421	-1.278516
H91	H	0.258281	0.004751	-1.324573
H92	H	0.374603	0.089091	-1.414942
O93	O	0.561328	0.373620	-0.910715
C94	C	0.404028	0.396427	-0.937484
H95	H	0.400634	0.436801	-1.017142
H96	H	0.333487	0.320527	-0.941242
H97	H	0.350765	0.450393	-0.875715
O98	O	1.118129	0.916007	-0.919578
C99	C	1.223462	0.967868	-0.851748
H100	H	1.298049	0.907521	-0.808475
H101	H	1.303337	1.021599	-0.899329
H102	H	1.154177	1.016421	-0.792593
O103	O	0.401993	0.096568	-1.117643
C104	C	0.338400	0.099387	-1.015616
H105	H	0.277743	0.177963	-1.002275
H106	H	0.249123	0.033370	-1.006234
H107	H	0.436908	0.089106	-0.955838
O108	O	1.269499	0.846429	-0.741451
C109	C	1.421930	0.802843	-0.738807
H110	H	1.436322	0.745510	-0.806674
H111	H	1.512943	0.868065	-0.746131
H112	H	1.439786	0.759712	-0.661478
H113	H	0.266384	1.274286	-1.847818
O114	O	0.297922	0.368268	-1.366173
C115	C	0.202139	0.454876	-1.340799
H116	H	0.248065	0.493597	-1.266309
H117	H	0.204808	0.513834	-1.407891
H118	H	0.076095	0.427232	-1.327682
O119	O	0.958730	1.114061	-1.385808
C120	C	0.937188	1.222662	-1.400302
H121	H	0.815493	1.237652	-1.434789
H122	H	0.947798	1.264424	-1.321622
H123	H	1.030850	1.253728	-1.456213
O124	O	0.767382	0.766612	-1.342708
C125	C	0.660200	0.844880	-1.311198
H126	H	0.720774	0.924565	-1.313288
H127	H	0.555113	0.845458	-1.366734
H128	H	0.618042	0.827907	-1.228095
O129	O	0.600910	0.229081	-1.009746
C130	C	0.696630	0.142429	-1.035077
H131	H	0.726386	0.144465	-1.122172
H132	H	0.809860	0.145955	-0.987288
H133	H	0.631048	0.066801	-1.016252
O134	O	1.175880	1.014701	-1.411583
C135	C	1.306210	0.989299	-1.475095
H136	H	1.303178	0.902188	-1.494869
H137	H	1.301217	1.037027	-1.550539
H138	H	1.419622	1.008142	-1.431238
O139	O	1.222020	0.644184	-0.671268
C140	C	1.179283	0.539246	-0.651608
H141	H	1.137871	0.501125	-0.727568
H142	H	1.285340	0.494674	-0.619870
H143	H	1.080082	0.537082	-0.591490
