data_functionalizedCrystal
_audit_creation_method	'MofGen! by Chris Wilmer'
_symmetry_space_group_name_H-M	'P1'
_symmetry_Int_Tables_number	1
_symmetry_cell_setting	triclinic
loop_
_symmetry_equiv_pos_as_xyz
  x,y,z
_cell_length_a	31.640172
_cell_length_b	14.628931
_cell_length_c	31.640172
_cell_angle_alpha	119.999318
_cell_angle_beta	89.994524
_cell_angle_gamma	59.993640
loop_
_atom_site_label
_atom_site_type_symbol
_atom_site_fract_x
_atom_site_fract_y
_atom_site_fract_z
Zr1	Zr	0.407163	1.000506	0.055484
Zr2	Zr	0.907163	1.500506	0.555484
O3	O	0.339656	1.191251	0.122973
O4	O	0.839656	1.691251	0.622973
O5	O	0.427858	0.809789	0.034796
O6	O	0.927858	1.309789	0.534796
O7	O	0.427834	1.000526	0.122976
O8	O	0.927834	1.500526	0.622976
O9	O	0.339699	1.000488	-0.034767
O10	O	0.839699	1.500488	0.465233
O11	O	0.497390	1.000511	0.122979
O12	O	0.997390	1.500511	0.622979
O13	O	0.339680	1.000514	0.034792
O14	O	0.839680	1.500514	0.534792
O15	O	0.497432	0.659316	-0.034760
O16	O	0.997432	1.159316	0.465240
O17	O	0.339656	1.341683	0.122972
O18	O	0.839656	1.841683	0.622972
O19	O	0.488593	0.888212	0.025974
O20	O	0.988593	1.388212	0.525974
O21	O	0.436698	0.888204	-0.025939
O22	O	0.936698	1.388204	0.474061
O23	O	0.436670	1.112773	0.077883
O24	O	0.936670	1.612773	0.577883
O25	O	0.384775	1.112766	0.025970
O26	O	0.884775	1.612766	0.525970
Zr27	Zr	0.518127	1.000441	-0.055449
Zr28	Zr	1.018127	1.500441	0.444551
Zr29	Zr	0.518097	1.000482	0.055489
Zr30	Zr	1.018097	1.500482	0.555489
Zr31	Zr	0.407193	1.000466	-0.055453
Zr32	Zr	0.907193	1.500466	0.444547
Zr33	Zr	0.407163	1.240427	0.055484
Zr34	Zr	0.907163	1.740427	0.555484
Zr35	Zr	0.518127	0.760520	-0.055449
Zr36	Zr	1.018127	1.260520	0.444551
O37	O	0.497433	1.191158	-0.034760
O38	O	0.997433	1.691158	0.465240
O39	O	0.497390	1.191216	0.122979
O40	O	0.997390	1.691216	0.622979
O41	O	0.339699	1.191193	-0.034767
O42	O	0.839699	1.691193	0.465233
O43	O	0.585634	0.809696	-0.122937
O44	O	1.085634	1.309696	0.377063
O45	O	0.585592	0.809754	0.034802
O46	O	1.085592	1.309754	0.534802
O47	O	0.427900	0.809731	-0.122944
O48	O	0.927900	1.309731	0.377056
O49	O	0.585592	1.000459	0.034802
O50	O	1.085592	1.500459	0.534802
O51	O	0.497457	1.000421	-0.122941
O52	O	0.997457	1.500421	0.377059
O53	O	0.427901	1.000436	-0.122944
O54	O	0.927901	1.500436	0.377056
O55	O	0.585611	1.000434	-0.034757
O56	O	1.085611	1.500434	0.465243
O57	O	0.427834	1.341663	0.122976
O58	O	0.927834	1.841663	0.622976
O59	O	0.497456	0.659284	-0.122941
O60	O	0.997456	1.159284	0.377059
O61	O	0.585634	0.659265	-0.122937
O62	O	1.085634	1.159265	0.377063
O63	O	0.585610	0.659297	-0.034756
O64	O	1.085610	1.159297	0.465244
O65	O	0.339680	1.341650	0.034792
O66	O	0.839680	1.841650	0.534792
O67	O	0.427858	1.341631	0.034795
O68	O	0.927858	1.841631	0.534795
O69	O	0.488621	0.888174	-0.077847
O70	O	0.988621	1.388174	0.422153
O71	O	0.540516	0.888181	-0.025934
O72	O	1.040516	1.388181	0.474066
O73	O	0.488593	1.112743	0.025974
O74	O	0.988593	1.612743	0.525974
O75	O	0.436698	1.112735	-0.025939
O76	O	0.936698	1.612735	0.474061
C77	C	0.462645	0.700369	0.000018
C78	C	0.962645	1.200369	0.500018
C79	C	0.462645	0.598516	0.000018
C80	C	0.962645	1.098516	0.500018
C81	C	0.499071	0.474326	-0.036398
C82	C	0.999071	0.974326	0.463602
C83	C	0.499072	0.369054	-0.036399
C84	C	0.999072	0.869054	0.463601
C85	C	0.323884	1.000504	0.000012
C86	C	0.823884	1.500504	0.500012
C87	C	0.276789	1.000515	0.000010
C88	C	0.776789	1.500515	0.500010
C89	C	-0.015227	1.000464	0.038337
C90	C	0.484773	1.500464	0.538337
C91	C	-0.192213	1.000448	0.038341
C92	C	0.307787	1.500448	0.538341
O93	O	-0.215095	1.000403	0.070918
O94	O	0.284905	1.500403	0.570918
N95	N	-0.214334	1.000437	0.000021
N96	N	0.285666	1.500437	0.500021
C97	C	-0.192203	1.000421	-0.038305
C98	C	0.307797	1.500421	0.461695
O99	O	-0.215075	1.000398	-0.070901
O100	O	0.284925	1.500398	0.429099
C101	C	-0.015215	1.000428	-0.038310
C102	C	0.484785	1.500428	0.461690
C103	C	0.006900	1.000452	0.000015
C104	C	0.506900	1.500452	0.500015
C105	C	0.006889	1.000487	0.076659
C106	C	0.506889	1.500487	0.576659
C107	C	0.051131	1.000498	0.076659
C108	C	0.551131	1.500498	0.576659
C109	C	0.073258	1.000486	0.038338
C110	C	0.573258	1.500486	0.538338
C111	C	0.051143	1.000463	0.000016
C112	C	0.551143	1.500463	0.500016
C113	C	0.006918	1.000403	-0.076637
C114	C	0.506918	1.500403	0.423363
C115	C	0.051168	1.000401	-0.076636
C116	C	0.551168	1.500401	0.423364
C117	C	0.073283	1.000426	-0.038311
C118	C	0.573283	1.500426	0.461689
C119	C	0.117512	1.000463	-0.038306
C120	C	0.617512	1.500463	0.461694
N121	N	0.139632	1.000474	0.000014
N122	N	0.639632	1.500474	0.500014
C123	C	0.117505	1.000486	0.038336
C124	C	0.617505	1.500486	0.538336
C125	C	-0.285124	1.000420	-0.038298
C126	C	0.214876	1.500420	0.461702
C127	C	-0.329372	1.000420	-0.038297
C128	C	0.170628	1.500420	0.461703
C129	C	-0.329379	1.000445	0.038348
C130	C	0.170621	1.500445	0.538348
C131	C	-0.285133	1.000454	0.038348
C132	C	0.214867	1.500454	0.538348
C133	C	-0.263004	1.000431	0.000022
C134	C	0.236996	1.500431	0.500022
C135	C	0.210417	1.000510	0.038334
C136	C	0.710417	1.500510	0.538334
C137	C	0.254662	1.000527	0.038332
C138	C	0.754662	1.500527	0.538332
C139	C	0.254667	1.000495	-0.038314
C140	C	0.754667	1.500495	0.461686
C141	C	0.210424	1.000486	-0.038311
C142	C	0.710424	1.500486	0.461689
C143	C	0.188301	1.000489	0.000015
C144	C	0.688301	1.500489	0.500015
O145	O	0.140424	1.000494	-0.070869
O146	O	0.640424	1.500494	0.429131
O147	O	0.140392	1.000481	0.070921
O148	O	0.640392	1.500481	0.570921
C149	C	-0.059469	1.000453	0.038337
C150	C	0.440531	1.500453	0.538337
C151	C	-0.081584	1.000430	0.000015
C152	C	0.418416	1.500430	0.500015
C153	C	-0.059457	1.000418	-0.038307
C154	C	0.440543	1.500418	0.461693
C155	C	-0.125832	1.000431	0.000017
C156	C	0.374168	1.500431	0.500017
C157	C	-0.147959	1.000443	0.038338
C158	C	0.352041	1.500443	0.538338
C159	C	-0.125838	1.000454	0.076658
C160	C	0.374162	1.500454	0.576658
C161	C	-0.081596	1.000465	0.076658
C162	C	0.418404	1.500465	0.576658
C163	C	-0.081578	1.000407	-0.076627
C164	C	0.418422	1.500407	0.423373
C165	C	-0.125820	1.000397	-0.076624
C166	C	0.374180	1.500397	0.423376
C167	C	-0.147947	1.000409	-0.038302
C168	C	0.352053	1.500409	0.461698
C169	C	0.601407	1.000443	0.000023
C170	C	1.101407	1.500443	0.500023
C171	C	0.648501	1.000432	0.000025
C172	C	1.148501	1.500432	0.500025
C173	C	0.462608	1.000524	0.138784
C174	C	0.962608	1.500524	0.638784
C175	C	0.462595	1.000541	0.185880
C176	C	0.962595	1.500541	0.685880
C177	C	0.462646	1.300578	0.000017
C178	C	0.962646	1.800578	0.500017
C179	C	0.462646	1.402431	0.000017
C180	C	0.962646	1.902431	0.500017
C181	C	0.424318	1.000484	0.522155
C182	C	0.924318	1.500484	1.022155
C183	C	0.424296	1.000514	0.345172
C184	C	0.924296	1.500514	0.845172
O185	O	0.391716	1.000474	0.322278
O186	O	0.891716	1.500474	0.822278
N187	N	0.462613	1.000510	0.323039
N188	N	0.962613	1.500510	0.823039
C189	C	0.500941	1.000489	0.345152
C190	C	1.000941	1.500489	0.845152
O191	O	0.533534	1.000473	0.322263
O192	O	1.033534	1.500473	0.822263
C193	C	0.500964	1.000450	0.522133
C194	C	1.000964	1.500450	1.022133
C195	C	0.462641	1.000468	0.544266
C196	C	0.962641	1.500468	1.044266
C197	C	0.385998	1.000500	0.544288
C198	C	0.885998	1.500500	1.044288
C199	C	0.386003	1.000500	0.588533
C200	C	0.886003	1.500500	1.088533
C201	C	0.424326	1.000483	0.610644
C202	C	0.924326	1.500483	1.110644
C203	C	0.462646	1.000467	0.588511
C204	C	0.962646	1.500467	1.088511
C205	C	0.539293	1.000420	0.544244
C206	C	1.039293	1.500420	1.044244
C207	C	0.539297	1.000407	0.588491
C208	C	1.039297	1.500407	1.088491
C209	C	0.500974	1.000425	0.610624
C210	C	1.000974	1.500425	1.110624
C211	C	0.500973	1.000450	0.654867
C212	C	1.000973	1.500450	1.154867
N213	N	0.462656	1.000455	0.677000
N214	N	0.962656	1.500455	1.177000
C215	C	0.424333	1.000471	0.654889
C216	C	0.924333	1.500471	1.154889
C217	C	0.500925	1.000513	0.252236
C218	C	1.000925	1.500513	0.752236
C219	C	0.500918	1.000525	0.207991
C220	C	1.000918	1.500525	0.707991
C221	C	0.424274	1.000547	0.208013
C222	C	0.924274	1.500547	0.708013
C223	C	0.424279	1.000544	0.252260
C224	C	0.924279	1.500544	0.752260
C225	C	0.462607	1.000517	0.274369
C226	C	0.962607	1.500517	0.774369
C227	C	0.424344	1.000471	0.747806
C228	C	0.924344	1.500471	1.247806
C229	C	0.424351	1.000476	0.792056
C230	C	0.924351	1.500476	1.292056
C231	C	0.500996	1.000447	0.792029
C232	C	1.000996	1.500447	1.292029
C233	C	0.500989	1.000449	0.747785
C234	C	1.000989	1.500449	1.247785
C235	C	0.462660	1.000457	0.725673
C236	C	0.962660	1.500457	1.225673
O237	O	0.533539	1.000476	0.677785
O238	O	1.033539	1.500476	1.177785
O239	O	0.391750	1.000459	0.677779
O240	O	0.891750	1.500459	1.177779
C241	C	0.424313	1.000485	0.477910
C242	C	0.924313	1.500485	0.977910
C243	C	0.462633	1.000469	0.455777
C244	C	0.962633	1.500469	0.955777
C245	C	0.500956	1.000452	0.477888
C246	C	1.000956	1.500452	0.977888
C247	C	0.462626	1.000481	0.411532
C248	C	0.962626	1.500481	0.911532
C249	C	0.424303	1.000497	0.389421
C250	C	0.924303	1.500497	0.889421
C251	C	0.385986	1.000502	0.411554
C252	C	0.885986	1.500502	0.911554
C253	C	0.385990	1.000501	0.455799
C254	C	0.885990	1.500501	0.955799
C255	C	0.539274	1.000448	0.455755
C256	C	1.039274	1.500448	0.955755
C257	C	0.539266	1.000450	0.411511
C258	C	1.039266	1.500450	0.911511
C259	C	0.500942	1.000466	0.389399
C260	C	1.000942	1.500466	0.889399
C261	C	0.462678	1.000437	0.861254
C262	C	0.962678	1.500437	1.361254
C263	C	0.462674	1.000460	0.814168
C264	C	0.962674	1.500460	1.314168
C265	C	0.601407	0.700338	0.000024
C266	C	1.101407	1.200338	0.500024
C267	C	0.648501	0.598475	0.000025
C268	C	1.148501	1.098475	0.500025
C269	C	0.462683	0.700318	-0.138748
C270	C	0.962683	1.200318	0.361252
C271	C	0.462695	0.598448	-0.185844
C272	C	0.962695	1.098448	0.314156
C273	C	0.601444	0.700288	-0.138743
C274	C	1.101444	1.200288	0.361257
C275	C	0.648551	0.598407	-0.185837
C276	C	1.148551	1.098407	0.314163
C277	C	0.323846	1.300660	0.138778
C278	C	0.823846	1.800660	0.638778
C279	C	0.276739	1.402540	0.185872
C280	C	0.776739	1.902540	0.685872
C281	C	0.323884	1.300609	0.000012
C282	C	0.823884	1.800609	0.500012
C283	C	0.276789	1.402472	0.000010
C284	C	0.776789	1.902472	0.500010
C285	C	0.462608	1.300629	0.138784
C286	C	0.962608	1.800629	0.638784
C287	C	0.462595	1.402499	0.185880
C288	C	0.962595	1.902499	0.685880
C289	C	0.643514	0.550655	0.027127
C290	C	1.143514	1.050655	0.527127
C291	C	0.687760	0.454957	0.027139
C292	C	1.187760	0.954957	0.527139
C293	C	0.736992	0.407074	0.000047
C294	C	1.236992	0.907074	0.500047
C295	C	0.741979	0.454904	-0.027056
C296	C	1.241979	0.954904	0.472944
C297	C	0.697733	0.550606	-0.027064
C298	C	1.197733	1.050606	0.472936
C299	C	0.489805	0.550593	-0.235061
C300	C	0.989805	1.050593	0.264939
C301	C	0.489815	0.454889	-0.279317
C302	C	0.989815	0.954889	0.220683
C303	C	0.462718	0.407035	-0.274355
C304	C	0.962718	0.907035	0.225645
C305	C	0.435605	0.454900	-0.225132
C306	C	0.935605	0.954900	0.274868
C307	C	0.435593	0.550609	-0.180878
C308	C	0.935593	1.050609	0.319122
C309	C	0.697767	0.550567	-0.180855
C310	C	1.197767	1.050567	0.319145
C311	C	0.742033	0.454853	-0.225100
C312	C	1.242033	0.954853	0.274900
C313	C	0.737083	0.406974	-0.274327
C314	C	1.237083	0.906974	0.225673
C315	C	0.687863	0.454824	-0.279309
C316	C	1.187863	0.954824	0.220691
C317	C	0.643597	0.550543	-0.235063
C318	C	1.143597	1.050543	0.264937
C319	C	0.227524	1.450392	0.180890
C320	C	0.727524	1.950392	0.680890
C321	C	0.183257	1.546136	0.225136
C322	C	0.683257	2.046136	0.725136
C323	C	0.188207	1.594020	0.274363
C324	C	0.688207	2.094020	0.774363
C325	C	0.237428	1.546164	0.279344
C326	C	0.737428	2.046164	0.779344
C327	C	0.281693	1.450428	0.235099
C328	C	0.781693	1.950428	0.735099
C329	C	0.281777	1.450302	-0.027087
C330	C	0.781777	1.950302	0.472913
C331	C	0.237531	1.546027	-0.027087
C332	C	0.737531	2.046027	0.472913
C333	C	0.188298	1.593913	0.000007
C334	C	0.688298	2.093913	0.500007
C335	C	0.183312	1.546079	0.027107
C336	C	0.683312	2.046079	0.527107
C337	C	0.227557	1.450363	0.027110
C338	C	0.727557	1.950363	0.527110
C339	C	0.489697	1.450322	0.180900
C340	C	0.989697	1.950322	0.680900
C341	C	0.489695	1.546027	0.225148
C342	C	0.989695	2.046027	0.725148
C343	C	0.462588	1.593913	0.274374
C344	C	0.962588	2.093913	0.774374
C345	C	0.435486	1.546080	0.279352
C346	C	0.935486	2.046080	0.779352
C347	C	0.435491	1.450371	0.235105
C348	C	0.935491	1.950371	0.735105
H349	H	0.272666	1.000550	0.069543
H350	H	0.772666	1.500550	0.569543
F351	F	0.518674	0.403962	-0.331698
F352	F	1.018674	0.903962	0.168302
F353	F	0.794412	0.403941	-0.219788
F354	F	1.294412	0.903941	0.280212
F355	F	0.222244	1.399445	0.128503
F356	F	0.722244	1.899445	0.628503
H357	H	0.143184	1.585084	0.221070
H358	H	0.643184	2.085084	0.721070
F359	F	0.406634	1.597066	0.331746
F360	F	0.906634	2.097066	0.831746
H361	H	0.530259	0.262557	-0.067575
H362	H	1.030259	0.762557	0.432425
F363	F	0.591121	0.601601	0.055966
F364	F	1.091121	1.101601	0.555966
F365	F	0.784199	0.305099	-0.321413
F366	F	1.284199	0.805099	0.178587
H367	H	-0.347379	1.000421	-0.069500
H368	H	0.152621	1.500421	0.430500
H369	H	0.413519	0.589560	-0.140805
H370	H	0.913519	1.089560	0.359195
F371	F	0.421882	0.541629	0.040774
F372	F	0.921882	1.041629	0.540774
H373	H	0.511765	1.584963	0.221085
H374	H	1.011765	2.084963	0.721085
F375	F	0.421880	0.635629	0.040768
F376	F	0.921880	1.135629	0.540768
F377	F	0.462586	1.695780	0.321461
F378	F	0.962586	2.195780	0.821461
F379	F	0.130910	1.597053	0.055939
F380	F	0.630910	2.097053	0.555939
F381	F	0.141212	1.695783	-0.000001
F382	F	0.641212	2.195783	0.499999
F383	F	-0.352936	1.000458	0.079133
F384	F	0.147064	1.500458	0.579133
F385	F	0.682603	0.403854	-0.331704
F386	F	1.182603	0.903854	0.168296
F387	F	0.682442	0.404066	0.055984
F388	F	1.182442	0.904066	0.555984
H389	H	0.413419	1.411443	0.239166
H390	H	0.913419	1.911443	0.739166
F391	F	0.242688	1.597136	0.331739
F392	F	0.742688	2.097136	0.831739
F393	F	0.518550	1.399375	0.128515
F394	F	1.018550	1.899375	0.628515
H395	H	0.321765	1.411468	0.239161
H396	H	0.821765	1.911468	0.739161
H397	H	-0.267129	1.000473	0.069556
H398	H	0.232871	1.500473	0.569556
H399	H	0.773016	0.329145	0.000058
H400	H	1.273016	0.829145	0.500058
H401	H	0.701807	0.589536	-0.140775
H402	H	1.201807	1.089536	0.359225
F403	F	0.222241	1.399461	0.055949
F404	F	0.722241	1.899461	0.555949
H405	H	0.192414	1.000484	-0.069515
H406	H	0.692414	1.500484	0.430485
H407	H	0.192410	1.000511	0.069542
H408	H	0.692410	1.500511	0.569542
F409	F	0.541701	1.000530	0.184445
F410	F	1.041701	1.500530	0.684445
H411	H	0.413544	0.415923	-0.221100
H412	H	0.913544	0.915923	0.278900
F413	F	0.462736	0.305171	-0.321460
F414	F	0.962736	0.805171	0.178540
H415	H	0.603526	0.589482	-0.239127
H416	H	1.103526	1.089482	0.260873
H417	H	0.532190	1.000453	0.729768
H418	H	1.032190	1.500453	1.229768
H419	H	0.241601	1.584957	-0.049157
H420	H	0.741601	2.084957	0.450843
F421	F	0.539831	0.437214	-0.077153
F422	F	1.039831	0.937214	0.422847
F423	F	0.074665	1.000515	0.117448
F424	F	0.574665	1.500515	0.617448
H425	H	0.152159	1.671973	0.310386
H426	H	0.652159	2.171973	0.810386
H427	H	-0.011122	1.000493	0.107865
H428	H	0.488878	1.500493	0.607865
F429	F	-0.261578	1.000399	-0.079092
F430	F	0.238422	1.500399	0.420908
H431	H	0.321861	1.411321	-0.049154
H432	H	0.821861	1.911321	0.450846
F433	F	-0.016610	1.000374	-0.117429
F434	F	0.483390	1.500374	0.382571
F435	F	0.278222	1.000486	-0.079097
F436	F	0.778222	1.500486	0.420903
F437	F	0.074717	1.000373	-0.117431
F438	F	0.574717	1.500373	0.382569
H439	H	-0.063593	1.000485	0.107866
H440	H	0.436407	1.500485	0.607866
F441	F	0.703049	0.601483	-0.055914
F442	F	1.203049	1.101483	0.444086
F443	F	-0.149397	1.000473	0.117444
F444	F	0.350603	1.500473	0.617444
H445	H	-0.143826	1.000388	-0.107832
H446	H	0.356174	1.500388	0.392168
F447	F	-0.058033	1.000394	-0.117416
F448	F	0.441967	1.500394	0.382584
H449	H	0.511870	0.589545	-0.239112
H450	H	1.011870	1.089545	0.260888
H451	H	0.782070	0.415904	-0.049113
H452	H	1.282070	0.915904	0.450887
H453	H	0.393134	1.000475	0.729808
H454	H	0.893134	1.500475	1.229808
F455	F	0.383560	1.000499	0.815611
F456	F	0.883560	1.500499	1.315611
H457	H	0.354798	1.000509	0.606550
H458	H	0.854798	1.500509	1.106550
F459	F	0.345206	1.000516	0.520761
F460	F	0.845206	1.500516	1.020761
H461	H	0.532198	1.000439	0.810041
H462	H	1.032198	1.500439	1.310041
F463	F	0.383491	1.000561	0.275812
F464	F	0.883491	1.500561	0.775812
H465	H	0.532138	1.000491	0.270234
H466	H	1.032138	1.500491	0.770234
F467	F	0.580082	1.000399	0.520695
F468	F	1.080082	1.500399	1.020695
F469	F	0.383487	1.000565	0.184472
F470	F	0.883487	1.500565	0.684472
F471	F	0.345202	1.000519	0.479349
F472	F	0.845202	1.500519	0.979349
F473	F	0.580094	1.000374	0.612016
F474	F	1.080094	1.500374	1.112016
H475	H	0.570473	1.000446	0.393495
H476	H	1.070473	1.500446	0.893495
F477	F	0.345197	1.000526	0.388015
F478	F	0.845197	1.500526	0.888015
H479	H	0.570482	1.000432	0.473755
H480	H	1.070482	1.500432	0.973755
