data_functionalizedCrystal
_audit_creation_method	'MofGen! by Chris Wilmer'
_symmetry_space_group_name_H-M	'P1'
_symmetry_Int_Tables_number	1
_symmetry_cell_setting	triclinic
loop_
_symmetry_equiv_pos_as_xyz
  x,y,z
_cell_length_a	12.827893
_cell_length_b	16.120444
_cell_length_c	16.120339
_cell_angle_alpha	89.786690
_cell_angle_beta	92.866391
_cell_angle_gamma	92.926656
loop_
_atom_site_label
_atom_site_type_symbol
_atom_site_fract_x
_atom_site_fract_y
_atom_site_fract_z
Zn1	Zn	1.547293	-0.306902	-0.486924
Zn2	Zn	1.880626	0.026431	-0.153591
Zn3	Zn	2.213959	0.359764	0.179742
Zn4	Zn	1.546208	-0.453105	-0.354913
Zn5	Zn	1.879542	-0.119772	-0.021579
Zn6	Zn	2.212875	0.213561	0.311754
Zn7	Zn	1.380870	-0.314071	-0.347887
Zn8	Zn	1.714204	0.019263	-0.014553
Zn9	Zn	2.047537	0.352596	0.318780
Zn10	Zn	1.363207	-0.445917	-0.493928
Zn11	Zn	1.696541	-0.112584	-0.160595
Zn12	Zn	2.029874	0.220749	0.172738
O13	O	1.459395	-0.379999	-0.420913
O14	O	1.792728	-0.046666	-0.087580
O15	O	2.126061	0.286668	0.245754
O16	O	1.693384	-0.326305	-0.469422
O17	O	2.026717	0.007029	-0.136089
O18	O	2.360051	0.340362	0.197245
O19	O	1.531214	-0.440670	-0.237614
O20	O	1.864547	-0.107337	0.095719
O21	O	2.197881	0.225996	0.429052
O22	O	1.410793	-0.196755	-0.360459
O23	O	1.744126	0.136578	-0.027125
O24	O	2.077459	0.469912	0.306208
O25	O	1.692587	-0.433719	-0.372433
O26	O	2.025920	-0.100386	-0.039100
O27	O	2.359254	0.232947	0.294233
O28	O	1.533063	-0.191488	-0.462609
O29	O	1.866396	0.141845	-0.129276
O30	O	2.199729	0.475178	0.204057
O31	O	1.409741	-0.338522	-0.232452
O32	O	1.743074	-0.005189	0.100881
O33	O	2.076408	0.328144	0.434214
O34	O	1.232292	-0.331552	-0.367250
O35	O	1.565626	0.001781	-0.033917
O36	O	1.898959	0.335114	0.299417
O37	O	1.380688	-0.421469	-0.609366
O38	O	1.714022	-0.088135	-0.276032
O39	O	2.047355	0.245198	0.057301
O40	O	1.219315	-0.428420	-0.474546
O41	O	1.552649	-0.095086	-0.141213
O42	O	1.885982	0.238247	0.192120
O43	O	1.515935	-0.319335	-0.604220
O44	O	1.849269	0.013999	-0.270886
O45	O	2.182602	0.347332	0.062447
O46	O	1.514087	-0.568517	-0.379225
O47	O	1.847420	-0.235183	-0.045891
O48	O	2.180753	0.098150	0.287442
O49	O	1.379637	-0.563236	-0.481359
O50	O	1.712970	-0.229902	-0.148026
O51	O	2.046303	0.103431	0.185308
C52	C	1.187887	-0.379985	-0.420896
C53	C	1.521220	-0.046651	-0.087563
C54	C	1.854553	0.286682	0.245770
C55	C	1.071732	-0.379997	-0.420910
C56	C	1.405065	-0.046664	-0.087577
C57	C	1.738399	0.286669	0.245757
C58	C	1.020331	-0.326931	-0.468986
C59	C	1.353664	0.006403	-0.135653
C60	C	1.686997	0.339736	0.197680
C61	C	0.900279	-0.326943	-0.469002
C62	C	1.233612	0.006391	-0.135668
C63	C	1.566945	0.339724	0.197665
C64	C	1.444855	-0.596047	-0.431832
C65	C	1.778188	-0.262714	-0.098499
C66	C	2.111521	0.070619	0.234834
C67	C	1.438728	-0.688472	-0.436532
C68	C	1.772062	-0.355139	-0.103198
C69	C	2.105395	-0.021806	0.230135
C70	C	1.491421	-0.901458	-0.396715
C71	C	1.824754	-0.568125	-0.063381
C72	C	2.158087	-0.234791	0.269952
C73	C	1.427562	-0.857688	-0.445120
C74	C	1.760895	-0.524355	-0.111787
C75	C	2.094228	-0.191022	0.221547
C76	C	1.433777	-0.763528	-0.440340
C77	C	1.767110	-0.430195	-0.107007
C78	C	2.100443	-0.096861	0.226327
C79	C	1.485207	-0.995627	-0.401493
C80	C	1.818540	-0.662294	-0.068160
C81	C	2.151874	-0.328960	0.265173
C82	C	1.731963	-0.380014	-0.420930
C83	C	2.065296	-0.046681	-0.087597
C84	C	2.398629	0.286653	0.245737
C85	C	1.848115	-0.380021	-0.420937
C86	C	2.181448	-0.046687	-0.087604
C87	C	2.514782	0.286646	0.245729
C88	C	1.446462	-0.368800	-0.637809
C89	C	1.779796	-0.035467	-0.304475
C90	C	2.113129	0.297866	0.028858
C91	C	1.440951	-0.364028	-0.730237
C92	C	1.774285	-0.030695	-0.396904
C93	C	2.107618	0.302639	-0.063570
C94	C	1.474019	-0.163106	-0.409969
C95	C	1.807352	0.170227	-0.076636
C96	C	2.140686	0.503561	0.256698
C97	C	1.480251	-0.070679	-0.405305
C98	C	1.813584	0.262654	-0.071972
C99	C	2.146918	0.595988	0.261361
C100	C	1.472341	-0.391094	-0.204858
C101	C	1.805674	-0.057761	0.128475
C102	C	2.139007	0.275572	0.461809
C103	C	1.478070	-0.395632	-0.112418
C104	C	1.811403	-0.062299	0.220915
C105	C	2.144736	0.271034	0.554248
C106	C	1.430487	-0.355748	0.100515
C107	C	1.763820	-0.022415	0.433848
C108	C	2.097153	0.310919	0.767181
C109	C	1.488531	-0.403910	0.056825
C110	C	1.821865	-0.070576	0.390158
C111	C	2.155198	0.262757	0.723492
C112	C	1.482709	-0.399303	-0.037351
C113	C	1.816042	-0.065969	0.295983
C114	C	2.149376	0.267364	0.629316
C115	C	1.436308	-0.360354	0.194699
C116	C	1.769641	-0.027021	0.528032
C117	C	2.102975	0.306313	0.861366
H118	H	0.856073	-0.281513	-0.510164
H119	H	1.189406	0.051820	-0.176831
H120	H	1.522739	0.385154	0.156502
H121	H	1.550755	-0.868217	-0.351686
H122	H	1.884088	-0.534884	-0.018353
H123	H	2.217421	-0.201550	0.314981
H124	H	0.892313	-0.425460	-0.379780
H125	H	1.225646	-0.092126	-0.046447
H126	H	1.558980	0.241207	0.286886
H127	H	1.542598	-0.448602	0.090149
H128	H	1.875931	-0.115269	0.423482
H129	H	2.209264	0.218064	0.756816
H130	H	1.376424	-0.311060	0.067192
H131	H	1.709757	0.022273	0.400526
H132	H	2.043090	0.355607	0.733859
H133	H	1.368223	-0.890933	-0.490151
H134	H	1.701556	-0.557600	-0.156818
H135	H	2.034889	-0.224266	0.176516
H136	H	1.026861	-0.425437	-0.379760
H137	H	1.360194	-0.092103	-0.046426
H138	H	1.693527	0.241230	0.286907
H139	H	1.065202	-0.281487	-0.510132
H140	H	1.398536	0.051847	-0.176798
H141	H	1.731869	0.385180	0.156535
