data_functionalizedCrystal
_audit_creation_method	'MofGen! by Chris Wilmer'
_symmetry_space_group_name_H-M	'P1'
_symmetry_Int_Tables_number	1
_symmetry_cell_setting	triclinic
loop_
_symmetry_equiv_pos_as_xyz
  x,y,z
_cell_length_a	11.792241
_cell_length_b	16.176319
_cell_length_c	11.792254
_cell_angle_alpha	90.006957
_cell_angle_beta	95.803993
_cell_angle_gamma	89.996803
loop_
_atom_site_label
_atom_site_type_symbol
_atom_site_fract_x
_atom_site_fract_y
_atom_site_fract_z
O1	O	1.506920	-0.068667	-0.155570
O2	O	1.176580	-0.068686	-0.171603
O3	O	1.349759	-0.068670	0.001583
O4	O	1.333741	-0.068683	-0.328756
O5	O	1.349735	0.068823	0.001595
O6	O	1.176556	0.068807	-0.171591
O7	O	1.506896	0.068827	-0.155559
Cu8	Cu	1.341724	0.081371	-0.163574
Cu9	Cu	1.341752	-0.081231	-0.163587
O10	O	1.333717	0.068811	-0.328745
C11	C	1.134277	0.000058	-0.170590
C12	C	1.008263	0.000051	-0.167576
N13	N	1.341712	0.195736	-0.163564
N14	N	1.341773	-0.195596	-0.163588
C15	C	0.777551	0.000075	-0.162033
C16	C	0.905936	0.000062	-0.165112
C17	C	1.549199	0.000081	-0.156571
C18	C	1.675213	0.000082	-0.159586
C19	C	1.348738	0.000076	0.043880
C20	C	1.345718	0.000075	0.169893
C21	C	1.418419	0.239008	-0.086909
C22	C	1.418425	0.325555	-0.086908
C23	C	1.341728	0.368829	-0.163568
C24	C	1.265013	0.325552	-0.240227
C25	C	1.265003	0.239006	-0.240221
C26	C	1.265052	0.674580	-0.240248
C27	C	1.265070	0.761131	-0.240250
C28	C	1.418474	0.761128	-0.086934
C29	C	1.418464	0.674583	-0.086929
C30	C	1.341745	0.631313	-0.163583
C31	C	1.341738	0.537469	-0.163582
C32	C	1.341740	0.462671	-0.163575
C33	C	1.334738	0.000062	-0.371041
C34	C	1.337758	0.000058	-0.497054
C35	C	1.343264	0.000072	0.272229
C36	C	1.340196	0.000064	0.400616
H37	H	1.480879	0.203779	-0.024488
H38	H	1.202538	0.203775	-0.302640
H39	H	1.480921	0.639352	-0.024509
H40	H	1.480885	0.360786	-0.024489
H41	H	1.202610	0.796364	-0.302678
H42	H	1.480940	0.796368	-0.024515
H43	H	1.202587	0.639356	-0.302665
H44	H	1.202559	0.360790	-0.302641
