data_functionalizedCrystal
_audit_creation_method	'MofGen! by Chris Wilmer'
_symmetry_space_group_name_H-M	'P1'
_symmetry_Int_Tables_number	1
_symmetry_cell_setting	triclinic
loop_
_symmetry_equiv_pos_as_xyz
  x,y,z
_cell_length_a	13.032127
_cell_length_b	13.033808
_cell_length_c	19.805399
_cell_angle_alpha	82.841491
_cell_angle_beta	97.211097
_cell_angle_gamma	105.193324
loop_
_atom_site_label
_atom_site_type_symbol
_atom_site_fract_x
_atom_site_fract_y
_atom_site_fract_z
Zn1	Zn	-0.216377	1.570085	0.235919
Zn2	Zn	-0.394046	1.547445	0.109970
Zn3	Zn	-0.239004	1.392478	0.135473
Zn4	Zn	-0.416572	1.369909	0.235849
O5	O	-0.316500	1.469979	0.179303
O6	O	-0.221048	1.715710	0.208568
O7	O	-0.373522	1.526858	0.018635
O8	O	-0.087334	1.434957	0.159501
O9	O	-0.351582	1.699076	0.116034
O10	O	-0.070710	1.565444	0.233298
O11	O	-0.259613	1.413004	0.037373
O12	O	-0.281455	1.240856	0.159432
O13	O	-0.389973	1.396493	0.330576
O14	O	-0.411913	1.224275	0.233178
O15	O	-0.242890	1.543561	0.330628
O16	O	-0.545703	1.504974	0.115965
O17	O	-0.562252	1.374540	0.208448
C18	C	-0.351585	1.194028	0.199065
C19	C	-0.366620	1.075971	0.207534
C20	C	-0.324210	0.909509	0.183647
C21	C	-0.308671	1.031527	0.174892
C22	C	-0.592521	1.434880	0.159444
C23	C	-0.710592	1.419962	0.150964
C24	C	-0.876967	1.462407	0.174978
C25	C	-0.754933	1.477834	0.183744
C26	C	-0.039396	1.505244	0.199252
C27	C	0.078689	1.520271	0.207753
C28	C	-0.316420	1.470035	0.355848
C29	C	-0.316386	1.470059	0.431080
C30	C	-0.281278	1.747008	0.159464
C31	C	-0.266269	1.865061	0.151009
C32	C	-0.316495	1.469994	0.003446
C33	C	-0.316203	1.470214	-0.071780
C34	C	-0.257065	1.410795	0.476180
C35	C	-0.257042	1.410813	0.546869
C36	C	-0.316336	1.470100	0.572457
C37	C	-0.375664	1.529366	0.527352
C38	C	-0.375692	1.529342	0.456664
C39	C	-0.375554	1.529462	0.812427
C40	C	-0.375519	1.529484	0.883120
C41	C	-0.256904	1.410933	0.902631
C42	C	-0.256932	1.410909	0.831943
C43	C	-0.316265	1.470170	0.786845
C44	C	-0.316290	1.470149	0.710196
C45	C	-0.316305	1.470128	0.649104
H46	H	-0.205164	0.917340	0.116583
F47	F	-0.945427	1.382715	0.129826
H48	H	-0.208774	1.362523	0.455352
H49	H	-0.423807	1.577765	0.903950
H50	H	-0.423948	1.577632	0.548191
F51	F	-0.446498	1.007649	0.252534
F52	F	-0.852853	1.599948	0.252916
F53	F	-0.193761	1.347858	0.950634
F54	F	-0.193820	1.347812	0.804715
F55	F	-0.193948	1.347692	0.594864
F56	F	-0.779046	1.340274	0.105803
F57	F	-0.438694	1.592539	0.764438
F58	F	-0.438834	1.592414	0.408666
F59	F	-0.404100	0.841180	0.228633
F60	F	-0.686478	1.557516	0.228909
F61	F	-0.228796	1.099850	0.129890
