data_functionalizedCrystal
_audit_creation_method	'MofGen! by Chris Wilmer'
_symmetry_space_group_name_H-M	'P1'
_symmetry_Int_Tables_number	1
_symmetry_cell_setting	triclinic
loop_
_symmetry_equiv_pos_as_xyz
  x,y,z
_cell_length_a	15.944493
_cell_length_b	15.944493
_cell_length_c	9.730223
_cell_angle_alpha	90.004543
_cell_angle_beta	90.000362
_cell_angle_gamma	83.475044
loop_
_atom_site_label
_atom_site_type_symbol
_atom_site_fract_x
_atom_site_fract_y
_atom_site_fract_z
O1	O	1.114527	0.108099	-0.114253
O2	O	0.869968	0.121507	-0.114258
O3	O	0.998951	-0.007476	-0.114267
O4	O	0.985544	0.237083	-0.114244
O5	O	0.998950	-0.007473	0.114313
O6	O	0.869967	0.121510	0.114322
O7	O	1.114526	0.108103	0.114326
Zn8	Zn	0.992246	0.114807	0.150616
Zn9	Zn	0.992248	0.114803	-0.150548
O10	O	0.985542	0.237086	0.114335
C11	C	0.838673	0.120961	0.000031
C12	C	0.745424	0.119318	0.000028
C13	C	0.509649	0.195240	0.000034
C14	C	0.459098	0.154300	0.112738
C15	C	0.574704	0.116273	0.000031
C16	C	0.459104	0.154278	-0.112623
C17	C	0.409795	0.113339	0.000027
C18	C	0.525382	0.075354	0.112828
C19	C	0.525391	0.075344	-0.112635
C20	C	0.474873	0.034346	0.000096
C21	C	0.669704	0.117966	0.000034
C22	C	0.314798	0.111640	0.000034
C23	C	0.998403	-0.038769	0.000017
C24	C	0.996760	-0.132018	-0.000000
C25	C	1.072682	-0.367793	0.000027
C26	C	1.031741	-0.418354	-0.112675
C27	C	0.993716	-0.302738	0.000016
C28	C	1.031721	-0.418327	0.112687
C29	C	0.990781	-0.467647	0.000039
C30	C	0.952795	-0.352071	-0.112779
C31	C	0.952787	-0.352040	0.112685
C32	C	0.911788	-0.402569	-0.000045
C33	C	0.995408	-0.207739	0.000002
C34	C	0.989082	-0.562644	0.000043
C35	C	1.145821	0.108649	0.000034
C36	C	1.239069	0.110292	0.000028
C37	C	0.986091	0.268379	0.000048
C38	C	0.987734	0.361627	0.000057
N39	N	0.992251	0.114809	0.356153
N40	N	0.992250	0.114794	-0.356084
C41	C	1.049379	0.057715	0.428075
C42	C	1.049377	0.057705	0.571958
C43	C	0.935115	0.171891	0.571984
C44	C	0.935114	0.171896	0.428103
C45	C	1.106516	0.000628	0.356124
C46	C	1.163649	-0.056471	0.428046
C47	C	1.163647	-0.056481	0.571929
C48	C	1.106511	0.000607	0.643890
H49	H	0.554216	0.042027	0.208205
O50	O	0.913030	-0.317333	0.226248
C51	C	0.869503	-0.189899	0.352842
C52	C	0.914524	-0.229094	0.224143
H53	H	0.870711	-0.118555	0.351198
H54	H	0.801261	-0.204843	0.353833
H55	H	0.903261	-0.217301	0.448836
H56	H	0.880835	-0.201715	0.128081
H57	H	0.982767	-0.214156	0.223274
H58	H	0.430159	0.187641	-0.207893
O59	O	0.830630	-0.421158	-0.000053
C60	C	0.737914	-0.530432	0.000902
C61	C	0.829861	-0.509496	0.000954
H62	H	0.737262	-0.601853	0.001687
H63	H	0.703994	-0.502037	0.096093
H64	H	0.704413	-0.502896	-0.095222
H65	H	0.863434	-0.537028	0.097014
H66	H	0.863719	-0.537876	-0.094300
O67	O	0.528327	0.276369	-0.000077
C68	C	0.596257	0.382790	-0.118876
C69	C	0.575142	0.290903	-0.118948
H70	H	0.634124	0.394564	-0.214959
H71	H	0.535264	0.427667	-0.117898
H72	H	0.635064	0.394147	-0.023649
H73	H	0.536358	0.279464	-0.214159
H74	H	0.636166	0.246073	-0.119854
H75	H	1.065086	-0.447264	0.207962
H76	H	0.919466	-0.323246	-0.208161
O77	O	0.424449	0.194162	0.226266
C78	C	0.326494	0.307584	0.314606
C79	C	0.365649	0.262498	0.185933
H80	H	0.278960	0.362853	0.282043
H81	H	0.293165	0.261324	0.378299
H82	H	0.378425	0.331987	0.378745
H83	H	0.313770	0.238093	0.121688
H84	H	0.398999	0.308789	0.122343
O85	O	1.219059	-0.111914	0.642009
C86	C	1.269735	-0.162501	0.863649
C87	C	1.206917	-0.099693	0.784460
H88	H	1.259952	-0.152629	0.978834
H89	H	1.258809	-0.229804	0.835441
H90	H	1.336998	-0.151527	0.835282
H91	H	1.139631	-0.110589	0.812784
H92	H	1.217917	-0.032411	0.812675
O93	O	1.219016	-0.111989	0.358025
C94	C	1.236873	-0.226773	0.195696
C95	C	1.174088	-0.163913	0.274862
H96	H	1.200574	-0.268781	0.128462
H97	H	1.278839	-0.190571	0.128230
H98	H	1.277697	-0.267544	0.271878
H99	H	1.133208	-0.123126	0.198780
H100	H	1.132181	-0.200166	0.342348
O101	O	0.879506	0.227262	0.641823
C102	C	0.733447	0.276448	0.685807
C103	C	0.796330	0.213678	0.606655
H104	H	0.666186	0.265498	0.657382
H105	H	0.743190	0.266637	0.801012
H106	H	0.744419	0.343727	0.657552
H107	H	0.785396	0.146374	0.634796
H108	H	0.786572	0.223563	0.491469
O109	O	1.071584	-0.452769	-0.226384
C110	C	1.146811	-0.427589	-0.434407
C111	C	1.101723	-0.388511	-0.305683
H112	H	1.171176	-0.375652	-0.498570
H113	H	1.202086	-0.475156	-0.401970
H114	H	1.100493	-0.460891	-0.498028
H115	H	1.147976	-0.355165	-0.242004
H116	H	1.046436	-0.340988	-0.338214
O117	O	0.560091	0.035587	-0.226206
C118	C	0.687517	-0.007936	-0.352809
C119	C	0.648330	0.037084	-0.224103
H120	H	0.758861	-0.006726	-0.351166
H121	H	0.672575	-0.076178	-0.353807
H122	H	0.660108	0.025821	-0.448797
H123	H	0.675716	0.003396	-0.128046
H124	H	0.663265	0.105328	-0.223227
H125	H	0.459422	-0.033727	0.000155
O126	O	0.879707	0.227475	0.358289
C127	C	0.830421	0.373512	0.314341
C128	C	0.893233	0.310665	0.393469
H129	H	0.841323	0.440785	0.342777
H130	H	0.840235	0.363778	0.199132
H131	H	0.763156	0.362490	0.342608
H132	H	0.960523	0.321648	0.365318
H133	H	0.883346	0.320414	0.508659
H134	H	1.140702	-0.352179	-0.000085
H135	H	1.106524	0.000632	0.238967
H136	H	1.106509	0.000588	0.761049
