data_functionalizedCrystal
_audit_creation_method	'MofGen! by Chris Wilmer'
_symmetry_space_group_name_H-M	'P1'
_symmetry_Int_Tables_number	1
_symmetry_cell_setting	triclinic
loop_
_symmetry_equiv_pos_as_xyz
  x,y,z
_cell_length_a	13.339070
_cell_length_b	15.944551
_cell_length_c	11.804365
_cell_angle_alpha	101.830656
_cell_angle_beta	74.875130
_cell_angle_gamma	99.564016
loop_
_atom_site_label
_atom_site_type_symbol
_atom_site_fract_x
_atom_site_fract_y
_atom_site_fract_z
O1	O	1.362759	0.408901	-0.099080
O2	O	1.068226	0.353629	-0.099072
O3	O	1.223533	0.260866	-0.099066
O4	O	1.207452	0.501664	-0.099087
O5	O	1.182647	0.285253	0.098989
O6	O	1.027340	0.378016	0.098982
O7	O	1.321872	0.433288	0.098974
Cu8	Cu	1.170873	0.407879	0.117062
Cu9	Cu	1.219226	0.379038	-0.117160
O10	O	1.166565	0.526051	0.098968
C11	C	1.010093	0.356486	-0.000044
C12	C	0.897788	0.328657	-0.000040
C13	C	1.202422	0.241610	-0.000038
C14	C	1.200420	0.147897	-0.000038
C15	C	0.533018	0.545045	-0.000078
C16	C	0.638534	0.571194	-0.000085
C17	C	0.703352	0.510562	-0.000073
C18	C	0.662645	0.423776	-0.000055
C19	C	0.557121	0.397622	-0.000058
C20	C	0.727455	0.363140	-0.000053
C21	C	0.686748	0.276354	-0.000035
C22	C	0.581234	0.250205	-0.000037
C23	C	0.516415	0.310837	-0.000048
C24	C	0.832980	0.389293	-0.000051
C25	C	0.857083	0.241871	-0.000031
C26	C	0.751567	0.215721	-0.000024
C27	C	1.099370	-0.090508	-0.000051
C28	C	1.126136	-0.128567	0.097600
C29	C	1.196800	-0.023674	-0.000047
C30	C	1.166470	-0.152588	-0.097666
C31	C	1.193297	-0.189405	-0.000060
C32	C	1.223576	-0.060489	0.097685
C33	C	1.263915	-0.084518	-0.097668
C34	C	1.290747	-0.122540	0.000007
C35	C	1.198815	0.071799	-0.000038
C36	C	1.191288	-0.284874	-0.000061
C37	C	1.380006	0.430430	-0.000057
C38	C	1.492312	0.458259	-0.000068
C39	C	1.187677	0.545307	-0.000062
C40	C	1.189681	0.639019	-0.000071
N41	N	1.136871	0.428165	0.281801
N42	N	1.253235	0.358748	-0.281899
C43	C	1.334885	0.310017	0.655758
C44	C	1.360606	0.294667	0.531097
C45	C	1.304674	0.328040	0.468767
C46	C	1.223018	0.376766	0.531110
C47	C	1.197300	0.392123	0.655783
C48	C	1.167089	0.410146	0.468792
C49	C	1.085432	0.458872	0.531135
C50	C	1.059718	0.474226	0.655795
C51	C	1.115650	0.440854	0.718126
C52	C	1.192807	0.394789	0.344119
C53	C	1.055221	0.476895	0.344144
C54	C	1.029500	0.492245	0.468805
H55	H	0.789268	0.531858	-0.000082
O56	O	0.682436	0.664795	-0.000077
H57	H	0.619636	0.702566	-0.000067
O58	O	1.448664	0.242107	0.463864
H59	H	1.522588	0.274169	0.487781
O60	O	1.048986	-0.154454	0.206967
H61	H	0.969606	-0.141995	0.206772
O62	O	1.341042	-0.058656	-0.207056
H63	H	1.420159	-0.072301	-0.207784
O64	O	0.941443	0.544814	0.536045
H65	H	0.880558	0.504978	0.592871
H66	H	0.430494	0.289550	-0.000042
O67	O	0.537320	0.156602	-0.000014
H68	H	0.600113	0.118835	0.000010
O69	O	0.926977	0.176465	-0.000007
H70	H	1.007185	0.209232	0.000008
H71	H	0.993236	0.513910	0.706555
O72	O	1.397993	-0.141410	0.000014
H73	H	1.426984	-0.188157	-0.081109
H74	H	1.009678	0.504072	0.293396
H75	H	0.718410	0.145057	-0.000019
O76	O	1.134450	-0.205385	-0.207024
H77	H	1.054992	-0.192860	-0.206807
H78	H	1.380423	0.282855	0.706515
H79	H	1.259292	0.355116	0.293371
H80	H	1.018477	-0.076032	0.000049
H81	H	1.325620	0.315540	0.367263
H82	H	1.094705	0.453348	0.819635
H83	H	0.866112	0.459956	-0.000061
H84	H	1.247689	-0.020727	0.180333
H85	H	0.480236	0.594401	-0.000097
