data_functionalizedCrystal
_audit_creation_method	'MofGen! by Chris Wilmer'
_symmetry_space_group_name_H-M	'P1'
_symmetry_Int_Tables_number	1
_symmetry_cell_setting	triclinic
loop_
_symmetry_equiv_pos_as_xyz
  x,y,z
_cell_length_a	12.970454
_cell_length_b	17.052862
_cell_length_c	12.970454
_cell_angle_alpha	89.999706
_cell_angle_beta	59.999776
_cell_angle_gamma	50.259530
loop_
_atom_site_label
_atom_site_type_symbol
_atom_site_fract_x
_atom_site_fract_y
_atom_site_fract_z
Zr1	Zr	0.765897	0.914391	0.046006
O2	O	1.041091	0.762834	-0.148671
O3	O	0.532382	0.960852	0.105685
O4	O	0.747471	0.960853	-0.109405
O5	O	0.826003	0.762831	0.236086
O6	O	0.685526	1.117054	-0.078433
O7	O	0.826002	0.762833	0.066420
O8	O	0.300770	1.117052	0.306325
O9	O	1.210758	0.762834	-0.148672
O10	O	0.566765	1.097238	0.154251
O11	O	0.612995	0.980666	0.257757
O12	O	0.866234	0.980668	0.004516
O13	O	0.912464	0.864096	0.108021
Zr14	Zr	0.667104	1.163512	0.366002
Zr15	Zr	0.667102	1.163514	0.095403
Zr16	Zr	0.765899	0.914390	0.316604
Zr17	Zr	1.036497	0.914391	0.046004
Zr18	Zr	0.396504	1.163512	0.366003
O19	O	0.900620	1.117052	0.306322
O20	O	0.900616	1.117054	-0.078434
O21	O	1.041094	0.762831	0.236085
O22	O	0.391910	1.315070	0.560678
O23	O	0.391907	1.315072	0.175922
O24	O	0.532385	0.960849	0.490441
O25	O	0.606998	1.315072	0.175921
O26	O	0.685530	1.117051	0.521413
O27	O	0.747476	0.960849	0.490440
O28	O	0.607000	1.315071	0.345587
O29	O	1.132229	0.960853	-0.109407
O30	O	0.300772	1.117050	0.521414
O31	O	0.222243	1.315070	0.560679
O32	O	0.222241	1.315071	0.345589
O33	O	1.210760	0.762833	0.066418
O34	O	1.132231	0.960852	0.105682
O35	O	0.566767	1.097236	0.407492
O36	O	0.520537	1.213808	0.303986
O37	O	0.820006	1.097238	0.154250
O38	O	0.866236	0.980666	0.257756
C39	C	0.378021	1.038952	0.206005
C40	C	0.263145	1.038952	0.206006
C41	C	0.840079	0.727337	0.144215
C42	C	0.882020	0.621578	0.123244
C43	C	0.374949	0.566860	0.376776
C44	C	0.335538	0.666229	0.396474
C45	C	0.472155	0.655072	0.328169
C46	C	0.648190	0.544535	0.240161
C47	C	0.687606	0.445157	0.220453
C48	C	0.784811	0.533369	0.171846
C49	C	0.960847	0.422832	0.083839
C50	C	1.000254	0.323466	0.064135
C51	C	0.863638	0.334623	0.132440
C52	C	0.745395	0.632746	0.191554
C53	C	1.058052	0.511043	0.035231
C54	C	1.097463	0.411675	0.015534
C55	C	1.054980	1.038952	0.206002
C56	C	1.169857	1.038952	0.206001
C57	C	0.716498	1.038954	-0.132473
C58	C	0.716497	1.038955	-0.247349
C59	C	0.592923	1.350566	0.267792
C60	C	0.550981	1.456326	0.288763
C61	C	0.716503	1.038950	0.544481
C62	C	0.716504	1.038949	0.659357
C63	C	0.254443	1.350566	0.267794
C64	C	0.097625	1.456326	0.288765
C65	C	0.378024	1.038950	0.544482
C66	C	0.263148	1.038949	0.659359
C67	C	0.254446	1.350564	0.606271
C68	C	0.097629	1.456323	0.742118
C69	C	1.178555	0.727340	-0.194264
C70	C	1.335372	0.621581	-0.330111
C71	C	1.178558	0.727337	0.144213
C72	C	1.335376	0.621578	0.123242
C73	C	1.054977	1.038954	-0.132475
C74	C	1.169853	1.038955	-0.247352
C75	C	0.048113	1.445143	0.220442
C76	C	-0.099216	1.544505	0.240120
C77	C	-0.197036	1.655049	0.328128
C78	C	-0.147512	1.666230	0.396452
C79	C	-0.000179	1.566869	0.376767
C80	C	-0.000150	1.566848	0.751887
C81	C	-0.147485	1.666228	0.879521
C82	C	-0.197045	1.655082	0.997385
C83	C	-0.099252	1.544545	0.987612
C84	C	0.048088	1.445167	0.859979
C85	C	1.433164	0.511056	-0.339879
C86	C	1.580533	0.411675	-0.467514
C87	C	1.630099	0.422822	-0.585378
C88	C	1.532298	0.533359	-0.575605
C89	C	1.384940	0.632737	-0.447972
C90	C	1.384900	0.632761	0.191554
C91	C	1.532258	0.533399	0.171847
C92	C	1.630082	0.422855	0.083834
C93	C	1.580553	0.411674	0.015515
C94	C	1.433204	0.511035	0.035215
H95	H	0.602065	0.722738	0.263220
H96	H	1.572558	0.542525	0.227489
H97	H	-0.227178	1.756248	0.468109
H98	H	1.305318	0.722729	-0.440034
H99	H	0.040114	1.575990	0.432414
H100	H	1.392891	0.501914	-0.020412
C101	C	1.103050	0.815118	0.392564
C102	C	1.277390	0.754265	0.288299
H103	H	1.036693	0.890125	0.452292
H104	H	1.052460	0.822692	0.354708
H105	H	1.101763	0.773813	0.441419
H106	H	1.278677	0.795566	0.239438
H107	H	1.327993	0.746696	0.326157
H108	H	-0.227096	1.756223	0.887455
C109	C	1.312426	0.437891	-0.003801
C110	C	1.208243	0.498759	-0.039858
H111	H	1.405146	0.430308	-0.050164
H112	H	1.241734	0.479182	0.091331
H113	H	1.361078	0.362893	-0.028140
H114	H	1.159580	0.573760	-0.015510
H115	H	1.278946	0.457469	-0.135011
H116	H	1.750059	0.341958	0.067805
C117	C	1.199496	0.117097	-0.035493
C118	C	1.193752	0.201962	-0.032615
H119	H	1.318954	0.042088	-0.095230
H120	H	1.141734	0.125813	0.053182
H121	H	1.141717	0.125826	-0.066406
H122	H	1.251520	0.193238	-0.001692
H123	H	1.251538	0.193242	-0.121308
C124	C	0.500818	0.764292	0.225695
C125	C	0.428836	0.764298	0.349829
H126	H	0.474058	0.831732	0.239079
H127	H	0.625193	0.696874	0.163520
H128	H	0.451993	0.764285	0.190311
H129	H	0.477671	0.764296	0.385208
H130	H	0.304436	0.831734	0.412025
H131	H	0.040178	1.575946	0.655930
H132	H	1.660223	0.321656	-0.056145
H133	H	0.192209	0.756222	0.468115
C134	C	1.613344	0.301399	-0.347823
C135	C	1.688002	0.290183	-0.478234
H136	H	1.679683	0.226396	-0.354442
H137	H	1.614657	0.342690	-0.300283
H138	H	1.495065	0.342701	-0.300308
H139	H	1.806278	0.248888	-0.525745
H140	H	1.686707	0.248874	-0.525794
C141	C	1.916214	0.313566	-0.797643
C142	C	1.792070	0.313577	-0.725669
H143	H	2.016207	0.246116	-0.884246
H144	H	1.865077	0.380974	-0.808703
H145	H	1.951570	0.313582	-0.748797
H146	H	1.756704	0.313570	-0.774511
H147	H	1.843216	0.246150	-0.714614
C148	C	0.296573	0.468551	0.415957
C149	C	0.224797	0.579117	0.451846
H150	H	0.203864	0.476124	0.462313
H151	H	0.367255	0.427277	0.320824
H152	H	0.367256	0.427275	0.440419
H153	H	0.154124	0.620390	0.427375
H154	H	0.154085	0.620409	0.547000
H155	H	1.572675	0.542421	-0.671585
H156	H	1.240793	0.321664	-0.056124
C157	C	0.153659	1.262783	0.195732
C158	C	0.155624	1.323639	0.123693
H159	H	0.220022	1.187778	0.135997
H160	H	0.204250	1.255207	0.233589
H161	H	0.035369	1.304087	0.266456
H162	H	0.273914	1.282339	0.052976
H163	H	0.105039	1.331210	0.085816
C164	C	0.329898	1.262803	0.779177
C165	C	0.155546	1.323679	0.849259
H166	H	0.396228	1.187806	0.772576
H167	H	0.380504	1.255205	0.690720
H168	H	0.331205	1.304106	0.826723
H169	H	0.154239	1.282380	0.801707
H170	H	0.104927	1.331271	0.937731
C171	C	-0.434420	1.863662	0.441448
C172	C	-0.358998	1.764264	0.349770
H173	H	-0.534403	1.931081	0.454801
H174	H	-0.469802	1.863660	0.525649
H175	H	-0.350208	1.863663	0.406056
H176	H	-0.443207	1.764258	0.385168
H177	H	-0.323621	1.764266	0.265554
H178	H	-0.139516	1.535379	0.184478
H179	H	0.895717	0.253714	0.116413
H180	H	1.392822	0.501958	-0.243923
H181	H	-0.317023	1.736011	1.101304
H182	H	-0.139627	1.535486	1.083595
