data_functionalizedCrystal
_audit_creation_method	'MofGen! by Chris Wilmer'
_symmetry_space_group_name_H-M	'P1'
_symmetry_Int_Tables_number	1
_symmetry_cell_setting	triclinic
loop_
_symmetry_equiv_pos_as_xyz
  x,y,z
_cell_length_a	8.597213
_cell_length_b	8.559649
_cell_length_c	16.053802
_cell_angle_alpha	87.795970
_cell_angle_beta	100.317024
_cell_angle_gamma	77.624681
loop_
_atom_site_label
_atom_site_type_symbol
_atom_site_fract_x
_atom_site_fract_y
_atom_site_fract_z
O1	O	2.077162	0.217205	0.218840
O2	O	1.614463	0.238635	0.185559
O3	O	1.886576	-0.004329	0.205131
O4	O	1.805048	0.460169	0.199268
O5	O	1.871605	0.008989	0.065195
O6	O	1.599492	0.251953	0.045623
O7	O	2.062190	0.230523	0.078905
Zn8	Zn	1.828464	0.243352	0.040046
Zn9	Zn	1.848189	0.225806	0.224417
O10	O	1.790077	0.473487	0.059332
C11	C	1.548291	0.243735	0.111369
C12	C	1.373424	0.239069	0.098791
C13	C	1.885270	-0.057147	0.135609
C14	C	1.903661	-0.234368	0.136936
C15	C	2.128363	0.225423	0.153096
C16	C	2.303231	0.230088	0.165679
C17	C	1.791384	0.526304	0.128856
C18	C	1.772994	0.703525	0.127534
N19	N	1.815014	0.255327	-0.085782
C20	C	1.930832	0.151983	-0.121145
C21	C	1.921436	0.160374	-0.209228
C22	C	1.796228	0.272119	-0.261945
C23	C	1.680399	0.375467	-0.226576
C24	C	1.689789	0.367067	-0.138496
C25	C	1.755215	0.308767	-0.526305
C26	C	1.745836	0.317163	-0.614390
C27	C	1.986873	0.102067	-0.597036
C28	C	1.996257	0.093683	-0.508954
C29	C	1.880424	0.197026	-0.473594
N30	N	1.786624	0.280702	-0.351980
N31	N	1.890022	0.188433	-0.383561
N32	N	1.861654	0.213819	0.350246
H33	H	1.376910	0.225982	0.232564
H34	H	1.299731	0.243194	0.031902
O35	O	2.070495	-0.343528	0.148931
H36	H	2.131183	-0.314754	0.096697
O37	O	1.606162	-0.187334	0.115538
H38	H	1.617411	-0.060598	0.116358
H39	H	2.015743	0.076222	-0.238020
O40	O	2.065873	0.031451	-0.064287
H41	H	2.144817	-0.039012	-0.103680
H42	H	1.643871	0.408165	-0.657310
H43	H	2.098212	0.002692	-0.466033
O44	O	2.111793	-0.009407	-0.635174
H45	H	2.084227	0.015192	-0.705279
O46	O	1.630299	0.420238	-0.488168
H47	H	1.541674	0.499363	-0.539625
H48	H	1.578444	0.466447	-0.269504
H49	H	1.595477	0.451219	-0.109704
