data_functionalizedCrystal
_audit_creation_method	'MofGen! by Chris Wilmer'
_symmetry_space_group_name_H-M	'P1'
_symmetry_Int_Tables_number	1
_symmetry_cell_setting	triclinic
loop_
_symmetry_equiv_pos_as_xyz
  x,y,z
_cell_length_a	12.759395
_cell_length_b	25.639239
_cell_length_c	25.639234
_cell_angle_alpha	89.978894
_cell_angle_beta	89.991390
_cell_angle_gamma	90.040223
loop_
_atom_site_label
_atom_site_type_symbol
_atom_site_fract_x
_atom_site_fract_y
_atom_site_fract_z
Zn1	Zn	1.605970	-0.208181	-0.295587
Zn2	Zn	1.605824	-0.295603	-0.208151
Zn3	Zn	1.430305	-0.208186	-0.208168
Zn4	Zn	1.430187	-0.295589	-0.295558
O5	O	1.518071	-0.251890	-0.251866
O6	O	1.752972	-0.219781	-0.283993
O7	O	1.582529	-0.284015	-0.134988
O8	O	1.453718	-0.135020	-0.219783
O9	O	1.752864	-0.284010	-0.219755
O10	O	1.582778	-0.135016	-0.284009
O11	O	1.453576	-0.219790	-0.135000
O12	O	1.283268	-0.219777	-0.219755
O13	O	1.453517	-0.283987	-0.368727
O14	O	1.283182	-0.283992	-0.283960
O15	O	1.582664	-0.219768	-0.368748
O16	O	1.582415	-0.368767	-0.219727
O17	O	1.453375	-0.368756	-0.283944
C18	C	1.245104	-0.251883	-0.251857
C19	C	1.128327	-0.251893	-0.251865
C20	C	1.128276	-0.318868	-0.318614
C21	C	1.073389	-0.352360	-0.351990
C22	C	0.963668	-0.352367	-0.351996
C23	C	0.908830	-0.318876	-0.318624
C24	C	0.963717	-0.285385	-0.285249
C25	C	1.073441	-0.285383	-0.285245
C26	C	0.963768	-0.218408	-0.218503
C27	C	1.073490	-0.218403	-0.218493
C28	C	0.908930	-0.184918	-0.185131
C29	C	0.963817	-0.151428	-0.151752
C30	C	1.073545	-0.151423	-0.151747
C31	C	1.128376	-0.184912	-0.185118
C32	C	1.517895	-0.387732	-0.251842
C33	C	1.517915	-0.445846	-0.251849
C34	C	1.585438	-0.806202	-0.218485
C35	C	1.585478	-0.860807	-0.218492
O36	O	1.642705	-0.889037	-0.190098
N37	N	1.518256	-0.888129	-0.251900
C38	C	1.450996	-0.860844	-0.285308
O39	O	1.393823	-0.889098	-0.313726
C40	C	1.450962	-0.806241	-0.285303
C41	C	1.518181	-0.778921	-0.251889
C42	C	1.652652	-0.778883	-0.185073
C43	C	1.652610	-0.724282	-0.185066
C44	C	1.585353	-0.697001	-0.218470
C45	C	1.518138	-0.724321	-0.251881
C46	C	1.383708	-0.778957	-0.318713
C47	C	1.383680	-0.724350	-0.318706
C48	C	1.450899	-0.697030	-0.285291
C49	C	1.450839	-0.642439	-0.285278
N50	N	1.518061	-0.615117	-0.251869
C51	C	1.585318	-0.642398	-0.218465
C52	C	1.451076	-0.975515	-0.285316
C53	C	1.451104	-1.030117	-0.285319
C54	C	1.585588	-1.030076	-0.218503
C55	C	1.585553	-0.975472	-0.218498
C56	C	1.518298	-0.948192	-0.251907
C57	C	1.585224	-0.527733	-0.218451
C58	C	1.585172	-0.473127	-0.218445
C59	C	1.450693	-0.473174	-0.285263
C60	C	1.450740	-0.527774	-0.285267
C61	C	1.518014	-0.555052	-0.251860
O62	O	1.393645	-0.614174	-0.313659
O63	O	1.642492	-0.614137	-0.190057
C64	C	1.792105	-0.251897	-0.251875
C65	C	1.908882	-0.251900	-0.251879
C66	C	1.518094	-0.251875	-0.388239
C67	C	1.518103	-0.251869	-0.446353
C68	C	1.518277	-0.115517	-0.251901
C69	C	1.518365	-0.057403	-0.251916
C70	C	1.450927	-0.285242	-0.697530
C71	C	1.450908	-0.285253	-0.642925
O72	O	1.393692	-0.313681	-0.614675
N73	N	1.518143	-0.251827	-0.615627
C74	C	1.585394	-0.218382	-0.642936
O75	O	1.642580	-0.189950	-0.614702
C76	C	1.585406	-0.218368	-0.697539
C77	C	1.518174	-0.251801	-0.724835
C78	C	1.383699	-0.318671	-0.724826
C79	C	1.383719	-0.318660	-0.779426
C80	C	1.450967	-0.285219	-0.806731
C81	C	1.518194	-0.251790	-0.779435
C82	C	1.652651	-0.184921	-0.724847
C83	C	1.652657	-0.184910	-0.779454
C84	C	1.585425	-0.218342	-0.806749
C85	C	1.585462	-0.218337	-0.861341
N86	N	1.518227	-0.251764	-0.888639
C87	C	1.450979	-0.285205	-0.861334
C88	C	1.585362	-0.218413	-0.528265
C89	C	1.585355	-0.218430	-0.473663
C90	C	1.450868	-0.285301	-0.473656
C91	C	1.450880	-0.285287	-0.528260
C92	C	1.518126	-0.251840	-0.555563
C93	C	1.451027	-0.285179	-0.975999
C94	C	1.451056	-0.285167	-1.030605
C95	C	1.585539	-0.218294	-1.030606
C96	C	1.585514	-0.218308	-0.976006
C97	C	1.518250	-0.251753	-0.948704
O98	O	1.642646	-0.189923	-0.889626
O99	O	1.393793	-0.313627	-0.889574
C100	C	1.518110	-0.251867	-0.116023
C101	C	1.518304	-0.251726	-0.057910
H102	H	1.217617	-0.318871	-0.318608
C103	C	1.659319	-0.181657	-0.443640
C104	C	1.741763	-0.204319	-0.406099
C105	C	1.815724	-0.167542	-0.376079
C106	C	1.807241	-0.108103	-0.383600
C107	C	1.724793	-0.085438	-0.421143
C108	C	1.650832	-0.122215	-0.451163
H109	H	1.748046	-0.248322	-0.400530
H110	H	1.876757	-0.184321	-0.348287
H111	H	1.861991	-0.080879	-0.361378
H112	H	1.718510	-0.041435	-0.426712
H113	H	1.589799	-0.105436	-0.478955
C114	C	1.726565	-0.694237	-0.148313
C115	C	1.718093	-0.701786	-0.088873
C116	C	1.792057	-0.671747	-0.052119
C117	C	1.874492	-0.634159	-0.074805
C118	C	1.882966	-0.626608	-0.134248
C119	C	1.809003	-0.656648	-0.171002
H120	H	1.657067	-0.729612	-0.072077
H121	H	1.785783	-0.677336	-0.008116
H122	H	1.929244	-0.611922	-0.047598
H123	H	1.943993	-0.598782	-0.151044
H124	H	1.815277	-0.651058	-0.215005
H125	H	1.118227	-0.124147	-0.124572
C126	C	1.309764	-0.808996	-0.355473
C127	C	1.227319	-0.846585	-0.332796
C128	C	1.153369	-0.876622	-0.369558
C129	C	1.161863	-0.869071	-0.428997
C130	C	1.244311	-0.831481	-0.451676
C131	C	1.318262	-0.801444	-0.414914
H132	H	1.221028	-0.852176	-0.288793
H133	H	1.092335	-0.904449	-0.352769
H134	H	1.107121	-0.891306	-0.456210
H135	H	1.250602	-0.825890	-0.495679
H136	H	1.379295	-0.773617	-0.431703
C137	C	0.903287	-0.389207	-0.388710
C138	C	0.827902	-0.366616	-0.429803
C139	C	0.767522	-0.403455	-0.466516
C140	C	0.782526	-0.462886	-0.462136
C141	C	0.857914	-0.485480	-0.421041
C142	C	0.918294	-0.448640	-0.384328
H143	H	0.816792	-0.322619	-0.433047
H144	H	0.711714	-0.386729	-0.496938
H145	H	0.737829	-0.490157	-0.489314
H146	H	0.869024	-0.529477	-0.417797
H147	H	0.974102	-0.465366	-0.353907
H148	H	1.640356	-1.052298	-0.191305
H149	H	0.819489	-0.318880	-0.318637
C150	C	0.903497	-0.114590	-0.115049
C151	C	0.963862	-0.077749	-0.078335
C152	C	0.903537	-0.040910	-0.041632
C153	C	0.782847	-0.040911	-0.041644
C154	C	0.722475	-0.077752	-0.078360
C155	C	0.782800	-0.114592	-0.115063
H156	H	1.053210	-0.077748	-0.078325
H157	H	0.948229	-0.013637	-0.014453
H158	H	0.738191	-0.013640	-0.014474
H159	H	0.633127	-0.077754	-0.078370
H160	H	0.738108	-0.141864	-0.142242
H161	H	1.118050	-0.379626	-0.379161
H162	H	0.819589	-0.184923	-0.185141
C163	C	1.659121	-0.443077	-0.181688
C164	C	1.650644	-0.450624	-0.122248
C165	C	1.724592	-0.420576	-0.085494
C166	C	1.807016	-0.382982	-0.108179
C167	C	1.815497	-0.375434	-0.167621
C168	C	1.741549	-0.405481	-0.204376
H169	H	1.589625	-0.478455	-0.105453
H170	H	1.718314	-0.426164	-0.041490
H171	H	1.861757	-0.360739	-0.080970
H172	H	1.876515	-0.347603	-0.184417
H173	H	1.747827	-0.399893	-0.248380
H174	H	1.707399	-0.157697	-0.702632
C175	C	1.376714	-0.443156	-0.322005
C176	C	1.257287	-0.450720	-0.317691
C177	C	1.183313	-0.420701	-0.354436
C178	C	1.228767	-0.383117	-0.395495
C179	C	1.348200	-0.375551	-0.399810
C180	C	1.422174	-0.405571	-0.363065
H181	H	1.223634	-0.478543	-0.287296
H182	H	1.094900	-0.426301	-0.351241
H183	H	1.174007	-0.360895	-0.422695
H184	H	1.381853	-0.347728	-0.430206
H185	H	1.510586	-0.399970	-0.366260
H186	H	1.396307	-0.312394	-1.052827
H187	H	1.396133	-0.312510	-0.550480
H188	H	1.328969	-0.345883	-0.801645
C189	C	1.377045	-0.321971	-0.945971
C190	C	1.257618	-0.317706	-0.953485
C191	C	1.183644	-0.354500	-0.923456
C192	C	1.229096	-0.395559	-0.885914
C193	C	1.348529	-0.399826	-0.878398
C194	C	1.422504	-0.363032	-0.908427
H195	H	1.223966	-0.287309	-0.981278
H196	H	1.095231	-0.351341	-0.929020
H197	H	1.174336	-0.422796	-0.863684
H198	H	1.382182	-0.430222	-0.850605
H199	H	1.510916	-0.366191	-0.902863
H200	H	1.328932	-0.345903	-0.702600
H201	H	1.707413	-0.157671	-0.801682
H202	H	1.328913	-0.702141	-0.345914
H203	H	1.217717	-0.184913	-0.185115
H204	H	1.640130	-0.191178	-0.550492
H205	H	1.640007	-0.549936	-0.191249
C206	C	1.377151	-1.060165	-0.322070
C207	C	1.377179	-1.120226	-0.322084
C208	C	1.303228	-1.150272	-0.358839
C209	C	1.229249	-1.120256	-0.395580
C210	C	1.229218	-1.060191	-0.395567
C211	C	1.303169	-1.030146	-0.358812
H212	H	1.431945	-1.142449	-0.294885
H213	H	1.303251	-1.194736	-0.358848
H214	H	1.174506	-1.142498	-0.422788
H215	H	1.174452	-1.037969	-0.422766
H216	H	1.303146	-0.985682	-0.358803
H217	H	1.707426	-0.801089	-0.157872
H218	H	1.640289	-0.953232	-0.191289
C219	C	1.376797	-0.557832	-0.322019
C220	C	1.257360	-0.550396	-0.317701
C221	C	1.183425	-0.580450	-0.354458
C222	C	1.228928	-0.617940	-0.395532
C223	C	1.348371	-0.625377	-0.399851
C224	C	1.422306	-0.595323	-0.363095
H225	H	1.223670	-0.522642	-0.287294
H226	H	1.095005	-0.574943	-0.351260
H227	H	1.174197	-0.640187	-0.422741
H228	H	1.382060	-0.653131	-0.430258
H229	H	1.510726	-0.600829	-0.366292
C230	C	1.659473	-0.181537	-0.945975
C231	C	1.650990	-0.122098	-0.953495
C232	C	1.724941	-0.085322	-0.923468
C233	C	1.807374	-0.107984	-0.885921
C234	C	1.815860	-0.167426	-0.878400
C235	C	1.741909	-0.204202	-0.908427
H236	H	1.589966	-0.105319	-0.981291
H237	H	1.718659	-0.041319	-0.929036
H238	H	1.862116	-0.080760	-0.863693
H239	H	1.876884	-0.184205	-0.850604
H240	H	1.748191	-0.248205	-0.902858
H241	H	1.396299	-0.953306	-0.312521
H242	H	1.396110	-0.312529	-0.451415
H243	H	1.640294	-0.191069	-1.052848
