data_functionalizedCrystal
_audit_creation_method	'MofGen! by Chris Wilmer'
_symmetry_space_group_name_H-M	'P1'
_symmetry_Int_Tables_number	1
_symmetry_cell_setting	triclinic
loop_
_symmetry_equiv_pos_as_xyz
  x,y,z
_cell_length_a	19.288864
_cell_length_b	22.610064
_cell_length_c	19.288865
_cell_angle_alpha	90.009265
_cell_angle_beta	96.863755
_cell_angle_gamma	89.970430
loop_
_atom_site_label
_atom_site_type_symbol
_atom_site_fract_x
_atom_site_fract_y
_atom_site_fract_z
O1	O	0.921360	-0.049381	-0.086646
O2	O	0.719099	-0.049341	-0.098334
O3	O	0.826074	-0.049351	0.008640
O4	O	0.814385	-0.049372	-0.193620
O5	O	0.826042	0.049019	0.008639
O6	O	0.719067	0.049028	-0.098335
O7	O	0.921328	0.048988	-0.086646
Zn8	Zn	0.820192	0.064626	-0.092491
Zn9	Zn	0.820235	-0.064979	-0.092490
O10	O	0.814353	0.048997	-0.193621
C11	C	0.693207	-0.000152	-0.097959
C12	C	0.616103	-0.000136	-0.096830
N13	N	0.820168	0.153079	-0.092491
C14	C	0.571407	-0.000152	-0.159598
C15	C	0.498960	-0.000158	-0.158537
C16	C	0.471212	-0.000161	-0.094705
C17	C	0.515918	-0.000142	-0.031929
C18	C	0.588364	-0.000129	-0.032991
C19	C	0.362961	-0.034638	-0.044525
C20	C	0.290517	-0.034654	-0.043465
C21	C	0.247767	-0.000196	-0.091425
C22	C	0.277468	0.034270	-0.140456
C23	C	0.349913	0.034283	-0.141519
C24	C	0.392658	-0.000174	-0.093546
C25	C	0.124514	-0.000218	-0.153047
C26	C	0.052066	-0.000221	-0.151984
C27	C	0.069026	-0.000210	-0.025374
C28	C	0.141473	-0.000201	-0.026439
C29	C	0.169212	-0.000208	-0.090278
C30	C	0.862222	0.561707	-0.134509
C31	C	0.862230	0.623627	-0.134508
O32	O	0.897961	0.655634	-0.170225
N33	N	0.820241	0.654616	-0.092489
C34	C	0.778246	0.623682	-0.050463
O35	O	0.742532	0.655726	-0.014723
C36	C	0.778242	0.561763	-0.050461
C37	C	0.820229	0.530777	-0.092488
C38	C	0.904206	0.530721	-0.176532
C39	C	0.904197	0.468805	-0.176534
C40	C	0.862203	0.437876	-0.134513
C41	C	0.820219	0.468861	-0.092490
C42	C	0.736251	0.530830	-0.008432
C43	C	0.736251	0.468907	-0.008433
C44	C	0.778238	0.437921	-0.050460
C45	C	0.778217	0.376016	-0.050471
N46	N	0.820206	0.345027	-0.092490
C47	C	0.862200	0.375957	-0.134511
C48	C	0.778258	0.753715	-0.050470
C49	C	0.778258	0.815633	-0.050476
C50	C	0.862243	0.815574	-0.134519
C51	C	0.862239	0.753655	-0.134517
C52	C	0.820247	0.722726	-0.092489
C53	C	0.862177	0.245929	-0.134512
C54	C	0.862161	0.184008	-0.134512
C55	C	0.778179	0.184073	-0.050466
C56	C	0.778191	0.245989	-0.050468
C57	C	0.820195	0.276915	-0.092493
O58	O	0.742506	0.343969	-0.014770
O59	O	0.897914	0.343905	-0.170239
C60	C	0.947220	-0.000203	-0.087022
C61	C	1.024324	-0.000222	-0.088151
C62	C	0.825682	-0.000164	0.034516
C63	C	0.824553	-0.000159	0.111620
N64	N	0.820254	0.846568	-0.092494
C65	C	0.814745	-0.000190	-0.219497
C66	C	0.815874	-0.000200	-0.296601
C67	C	0.887321	-0.000168	0.156316
C68	C	0.886260	-0.000177	0.228763
C69	C	0.822428	-0.000165	0.256511
C70	C	0.759652	-0.000159	0.211805
C71	C	0.760714	-0.000156	0.139359
C72	C	0.772237	0.034301	0.364798
C73	C	0.771177	0.034302	0.437242
C74	C	0.819148	-0.000178	0.479956
C75	C	0.868191	-0.034650	0.450219
C76	C	0.869253	-0.034647	0.377773
C77	C	0.821269	-0.000169	0.335065
C78	C	0.880770	-0.000198	0.603209
C79	C	0.879707	-0.000211	0.675657
C80	C	0.753097	-0.000187	0.658697
C81	C	0.754162	-0.000180	0.586250
C82	C	0.818001	-0.000183	0.558511
H83	H	0.593987	-0.000159	-0.211580
H84	H	0.744056	0.728537	-0.016248
C85	C	0.908355	0.149927	-0.180744
N86	N	0.943149	0.124260	-0.215563
H87	H	0.930822	-0.000222	0.712049
H88	H	0.015674	-0.000230	-0.203099
H89	H	0.896381	0.271103	-0.168732
C90	C	0.719464	0.072237	0.317819
N91	N	0.679718	0.100810	0.282436
C92	C	0.950395	0.434729	-0.222758
N93	N	0.985197	0.409066	-0.257573
C94	C	0.230448	0.072180	-0.193215
N95	N	0.195029	0.100732	-0.232951
C96	C	0.689436	-0.000142	0.242328
N97	N	0.636547	-0.000129	0.265319
H98	H	0.709599	-0.000148	0.102967
H99	H	0.701123	-0.000180	0.681288
H100	H	0.147101	-0.000215	-0.205028
C101	C	0.038509	-0.000212	0.044843
N102	N	0.015519	-0.000212	0.097732
C103	C	0.690061	0.564901	0.037801
N104	N	0.655269	0.590562	0.072628
C105	C	0.257853	-0.072564	0.010474
N106	N	0.233253	-0.101116	0.051104
C107	C	0.685111	-0.000166	0.537082
N108	N	0.633099	-0.000158	0.500048
H109	H	0.702056	0.443728	0.025792
H110	H	0.624756	-0.000117	0.018124
H111	H	0.397764	-0.062702	-0.005469
C112	C	0.732002	0.280074	-0.004239
N113	N	0.697218	0.305743	0.030589
H114	H	0.374093	0.062349	-0.181440
C115	C	0.485395	-0.000145	0.038287
N116	N	0.462404	-0.000146	0.091176
H117	H	0.177866	-0.000192	0.024674
H118	H	0.938405	0.555897	-0.210750
H119	H	0.731241	0.062368	0.461449
C120	C	0.908433	0.719576	-0.180744
N121	N	0.943230	0.693911	-0.215562
C122	C	0.732061	0.849711	-0.004251
N123	N	0.697266	0.875376	0.030570
C124	C	0.449785	-0.000183	-0.227589
N125	N	0.412748	-0.000204	-0.279600
H126	H	0.743987	0.158879	-0.016256
C127	C	0.955312	-0.000184	0.277938
N128	N	1.007323	-0.000187	0.314975
H129	H	0.896435	0.840768	-0.168736
H130	H	0.939303	-0.000172	0.133736
C131	C	0.923194	-0.072570	0.345064
N132	N	0.963821	-0.101137	0.320427
H133	H	0.907253	-0.062727	0.484995
H134	H	0.932751	-0.000203	0.580622
