data_functionalizedCrystal
_audit_creation_method	'MofGen! by Chris Wilmer'
_symmetry_space_group_name_H-M	'P1'
_symmetry_Int_Tables_number	1
_symmetry_cell_setting	triclinic
loop_
_symmetry_equiv_pos_as_xyz
  x,y,z
_cell_length_a	6.394984
_cell_length_b	17.699083
_cell_length_c	16.176319
_cell_angle_alpha	90.001389
_cell_angle_beta	89.994826
_cell_angle_gamma	95.110816
loop_
_atom_site_label
_atom_site_type_symbol
_atom_site_fract_x
_atom_site_fract_y
_atom_site_fract_z
O1	O	0.264132	-1.006772	-0.068628
O2	O	0.764132	-0.506772	0.431372
O3	O	0.298496	-0.786744	-0.068654
O4	O	0.798496	-0.286744	0.431346
O5	O	-0.022767	-0.899884	-0.068638
O6	O	0.477233	-0.399884	0.431362
O7	O	0.585395	-0.893633	-0.068644
O8	O	1.085395	-0.393633	0.431356
O9	O	-0.022787	-0.899867	0.068855
O10	O	0.477213	-0.399867	0.568855
O11	O	0.298476	-0.786728	0.068839
O12	O	0.798476	-0.286728	0.568839
O13	O	0.264112	-1.006756	0.068865
O14	O	0.764112	-0.506756	0.568865
Cu15	Cu	0.281292	-0.896741	0.081406
Cu16	Cu	0.781292	-0.396741	0.581406
Cu17	Cu	0.281316	-0.896760	-0.081195
Cu18	Cu	0.781316	-0.396760	0.418805
O19	O	0.585375	-0.893617	0.068849
O20	O	1.085375	-0.393617	0.568849
C21	C	0.297255	-0.758527	0.000089
C22	C	0.797255	-0.258527	0.500089
C23	C	0.293561	-0.674471	0.000078
C24	C	0.793561	-0.174471	0.500078
C25	C	0.899411	-0.898632	0.000111
C26	C	1.399411	-0.398632	0.500111
C27	C	0.663193	-0.894866	0.000109
C28	C	1.163193	-0.394866	0.500109
C29	C	0.265353	-1.034974	0.000120
C30	C	0.765353	-0.534974	0.500120
C31	C	0.269047	-1.119029	0.000125
C32	C	0.769047	-0.619029	0.500125
N33	N	0.281274	-0.896733	0.195772
N34	N	0.781274	-0.396733	0.695772
N35	N	0.281318	-0.896774	-0.195561
N36	N	0.781318	-0.396774	0.304439
C37	C	0.482136	-0.627773	0.000077
C38	C	0.982136	-0.127773	0.500077
C39	C	0.478652	-0.548794	0.000088
C40	C	0.978652	-0.048794	0.500088
C41	C	0.286592	-0.516515	0.000094
C42	C	0.786592	-0.016515	0.500094
C43	C	0.098003	-0.563219	0.000098
C44	C	0.598003	-0.063219	0.500098
C45	C	0.101488	-0.642196	0.000093
C46	C	0.601488	-0.142196	0.500093
C47	C	0.083942	-0.244712	0.000119
C48	C	0.583942	0.255288	0.500119
C49	C	0.080471	-0.165729	0.000121
C50	C	0.580471	0.334271	0.500121
C51	C	0.461106	-0.151310	0.000113
C52	C	0.961106	0.348690	0.500113
C53	C	0.464591	-0.230288	0.000108
C54	C	0.964591	0.269712	0.500108
C55	C	0.276003	-0.276985	0.000117
C56	C	0.776003	0.223015	0.500117
C57	C	0.279783	-0.362622	0.000107
C58	C	0.779783	0.137378	0.500107
C59	C	0.282810	-0.430879	0.000098
C60	C	0.782810	0.069121	0.500098
C61	C	0.139077	-0.946847	0.239043
C62	C	0.639077	-0.446847	0.739043
C63	C	0.139074	-0.946851	0.325590
C64	C	0.639074	-0.446851	0.825590
C65	C	0.281281	-0.896743	0.368864
C66	C	0.781281	-0.396743	0.868864
C67	C	0.423485	-0.846624	0.325587
C68	C	0.923485	-0.346624	0.825587
C69	C	0.423476	-0.846617	0.239041
C70	C	0.923476	-0.346617	0.739041
C71	C	0.423524	-0.846650	0.674615
C72	C	0.923524	-0.346650	1.174615
C73	C	0.423527	-0.846663	0.761167
C74	C	0.923527	-0.346663	1.261167
C75	C	0.139123	-0.946884	0.761164
C76	C	0.639123	-0.446884	1.261164
C77	C	0.139114	-0.946877	0.674618
C78	C	0.639114	-0.446877	1.174618
C79	C	0.281309	-0.896755	0.631348
C80	C	0.781309	-0.396755	1.131348
C81	C	0.281307	-0.896750	0.537504
C82	C	0.781307	-0.396750	1.037504
C83	C	0.281295	-0.896751	0.462707
C84	C	0.781295	-0.396751	0.962707
H85	H	0.638533	-0.654048	0.000071
H86	H	1.138533	-0.154048	0.500071
H87	H	0.023323	-0.987681	0.639387
H88	H	0.523323	-0.487681	1.139387
F89	F	-0.012273	-1.000183	0.192995
F90	F	0.487727	-0.500183	0.692995
H91	H	0.632209	-0.510775	0.000086
H92	H	1.132209	-0.010775	0.500086
F93	F	-0.012223	-1.000227	0.807221
F94	F	0.487777	-0.500227	1.307221
F95	F	0.574888	-0.793328	0.807221
F96	F	1.074888	-0.293328	1.307221
F97	F	-0.012270	-1.000187	0.371643
F98	F	0.487730	-0.500187	0.871643
H99	H	0.539308	-0.805841	0.639391
H100	H	1.039308	-0.305841	1.139391
F101	F	0.574816	-0.793276	0.192990
F102	F	1.074816	-0.293276	0.692990
F103	F	0.669007	-0.264637	0.000097
F104	F	1.169007	0.235363	0.500097
F105	F	0.661820	-0.101605	0.000108
F106	F	1.161820	0.398395	0.500108
F107	F	-0.123956	-0.131377	0.000128
F108	F	0.376044	0.368623	0.500128
F109	F	0.574825	-0.793291	0.371643
F110	F	1.074825	-0.293291	0.871643
H111	H	-0.069619	-0.282724	0.000126
H112	H	0.430381	0.217276	0.500126
F113	F	-0.106403	-0.528863	0.000110
F114	F	0.393597	-0.028863	0.500110
H115	H	-0.052069	-0.680217	0.000094
H116	H	0.447931	-0.180217	0.500094
