data_functionalizedCrystal
_audit_creation_method	'MofGen! by Chris Wilmer'
_symmetry_space_group_name_H-M	'P1'
_symmetry_Int_Tables_number	1
_symmetry_cell_setting	triclinic
loop_
_symmetry_equiv_pos_as_xyz
  x,y,z
_cell_length_a	8.634740
_cell_length_b	10.654550
_cell_length_c	9.730223
_cell_angle_alpha	90.000193
_cell_angle_beta	89.999743
_cell_angle_gamma	87.472395
loop_
_atom_site_label
_atom_site_type_symbol
_atom_site_fract_x
_atom_site_fract_y
_atom_site_fract_z
O1	O	2.050436	-0.409969	-0.114289
O2	O	1.601117	-0.375591	-0.114291
O3	O	1.836107	-0.211217	-0.114284
O4	O	1.815446	-0.574342	-0.114295
O5	O	1.836105	-0.211222	0.114295
O6	O	1.601114	-0.375595	0.114289
O7	O	2.050434	-0.409973	0.114291
Zn8	Zn	1.825773	-0.392785	0.150582
Zn9	Zn	1.825777	-0.392779	-0.150582
O10	O	1.815443	-0.574347	0.114285
C11	C	1.543582	-0.367805	-0.000001
C12	C	1.372150	-0.344585	-0.000002
C13	C	1.834589	-0.164249	0.000004
C14	C	1.830050	-0.024289	-0.000001
C15	C	2.107969	-0.417759	-0.000002
C16	C	2.279400	-0.440980	-0.000010
C17	C	1.816962	-0.621315	-0.000006
C18	C	1.821500	-0.761276	-0.000010
N19	N	1.825782	-0.392790	0.356119
C20	C	1.968409	0.039436	0.000004
C21	C	1.964135	0.170944	-0.000006
C22	C	1.683131	0.174991	-0.000019
C23	C	1.687407	0.043485	-0.000019
C24	C	2.130644	0.037101	0.000017
C25	C	2.126370	0.168608	0.000008
N26	N	1.825780	-0.392766	-0.356118
C27	C	1.929863	-0.320037	0.428047
C28	C	1.929859	-0.320021	0.571930
C29	C	1.721688	-0.465521	0.571943
C30	C	1.721686	-0.465529	0.428063
C31	C	2.050053	-0.236038	0.428041
C32	C	2.050049	-0.236022	0.571924
H33	H	1.574742	-0.008394	-0.000042
H34	H	1.636922	-0.524757	0.369500
H35	H	1.331143	-0.541272	-0.000000
Cl36	Cl	1.292264	-0.189728	0.000006
Cl37	Cl	2.233234	-0.290101	0.632226
Cl38	Cl	2.228613	-0.019394	-0.147660
Cl39	Cl	1.503818	0.260201	-0.000045
Cl40	Cl	2.210377	-0.027004	0.152404
H41	H	2.012537	-0.140526	0.616542
Cl42	Cl	2.202068	0.230469	-0.152362
H43	H	2.187497	0.203403	0.095666
Cl44	Cl	1.590831	-0.556960	0.662396
Cl45	Cl	2.009352	-0.082369	0.367738
H46	H	2.162155	-0.279397	0.383414
