data_functionalizedCrystal
_audit_creation_method	'MofGen! by Chris Wilmer'
_symmetry_space_group_name_H-M	'P1'
_symmetry_Int_Tables_number	1
_symmetry_cell_setting	triclinic
loop_
_symmetry_equiv_pos_as_xyz
  x,y,z
_cell_length_a	19.188905
_cell_length_b	27.731996
_cell_length_c	17.666332
_cell_angle_alpha	89.987533
_cell_angle_beta	89.983521
_cell_angle_gamma	82.877971
loop_
_atom_site_label
_atom_site_type_symbol
_atom_site_fract_x
_atom_site_fract_y
_atom_site_fract_z
O1	O	0.925760	0.060292	-0.063083
O2	O	0.722392	0.068429	-0.063058
O3	O	0.830411	-0.006019	-0.063055
O4	O	0.817741	0.134740	-0.063086
O5	O	0.830392	-0.006023	0.062842
O6	O	0.722373	0.068425	0.062838
O7	O	0.925741	0.060288	0.062814
Cu8	Cu	0.824055	0.064356	0.074322
Cu9	Cu	0.824078	0.064361	-0.074566
O10	O	0.817722	0.134736	0.062811
C11	C	0.696373	0.068165	-0.000106
C12	C	0.618873	0.067380	-0.000096
C13	C	0.582494	0.067005	-0.068725
C14	C	0.509675	0.066262	-0.068734
C15	C	0.473240	0.065885	-0.000111
C16	C	0.509627	0.066262	0.068526
C17	C	0.582444	0.067010	0.068534
N18	N	0.364403	0.037201	0.050965
N19	N	0.295231	0.036490	0.050953
C20	C	0.253848	0.063633	-0.000129
N21	N	0.284253	0.091508	-0.051210
N22	N	0.353432	0.092218	-0.051201
C23	C	0.394283	0.065074	-0.000111
C24	C	0.138511	0.062453	-0.068772
C25	C	0.065690	0.061713	-0.068778
C26	C	0.065645	0.061708	0.068484
C27	C	0.138463	0.062453	0.068488
C28	C	0.174892	0.062823	-0.000142
C29	C	0.830141	-0.024029	-0.000104
C30	C	0.829357	-0.077688	-0.000096
C31	C	0.824435	-0.410417	-0.068759
C32	C	0.821458	-0.612084	-0.068772
O33	O	0.821052	-0.638154	-0.127136
N34	N	0.821078	-0.637305	-0.000146
C35	C	0.821438	-0.612105	0.068488
O36	O	0.821039	-0.638183	0.126858
C37	C	0.824410	-0.410438	0.068500
C38	C	0.824797	-0.385221	-0.000130
C39	C	0.824822	-0.385200	-0.137383
C40	C	0.825570	-0.334786	-0.137380
C41	C	0.825931	-0.309590	-0.068751
C42	C	0.825545	-0.334807	-0.000126
C43	C	0.824765	-0.385238	0.137133
C44	C	0.825506	-0.334818	0.137130
C45	C	0.825893	-0.309601	0.068500
C46	C	0.826655	-0.259198	0.068506
N47	N	0.827035	-0.233977	-0.000120
C48	C	0.826673	-0.259174	-0.068748
C49	C	0.819879	-0.717983	0.068477
C50	C	0.819137	-0.768399	0.068474
C51	C	0.819156	-0.768375	-0.068786
C52	C	0.819903	-0.717958	-0.068783
C53	C	0.820259	-0.692762	-0.000149
C54	C	0.828245	-0.153302	-0.068735
C55	C	0.828996	-0.102884	-0.068725
C56	C	0.828973	-0.102912	0.068535
C57	C	0.828226	-0.153326	0.068525
C58	C	0.827859	-0.178519	-0.000116
O59	O	0.827054	-0.233096	0.126840
O60	O	0.827056	-0.233085	-0.127109
C61	C	0.823687	-0.460830	-0.068763
C62	C	0.823301	-0.486048	-0.000138
C63	C	0.823663	-0.460851	0.068490
C64	C	0.822559	-0.536464	-0.000141
C65	C	0.822198	-0.561660	-0.068770
C66	C	0.822578	-0.536440	-0.137395
C67	C	0.823326	-0.486027	-0.137391
C68	C	0.823283	-0.486072	0.137116
C69	C	0.822536	-0.536485	0.137107
C70	C	0.822174	-0.561682	0.068478
C71	C	0.951760	0.060551	-0.000139
C72	C	1.029260	0.061336	-0.000155
C73	C	0.817992	0.152746	-0.000142
C74	C	0.818776	0.206405	-0.000155
N75	N	0.824045	0.064352	0.179041
N76	N	0.824094	0.064360	-0.179285
C77	C	0.871891	0.031403	0.218652
C78	C	0.871895	0.031401	0.297900
C79	C	0.824060	0.064356	0.337533
C80	C	0.776205	0.097308	0.297912
C81	C	0.776197	0.097306	0.218666
N82	N	0.814699	0.107148	0.461943
N83	N	0.814710	0.107148	0.537223
C84	C	0.824078	0.064363	0.576297
N85	N	0.833448	0.021576	0.537247
N86	N	0.833440	0.021576	0.461959
C87	C	0.824062	0.064361	0.423462
C88	C	0.871931	0.031408	0.701838
C89	C	0.871930	0.031405	0.781087
C90	C	0.776243	0.097317	0.781098
C91	C	0.776241	0.097315	0.701850
C92	C	0.824088	0.064362	0.662225
H93	H	0.829312	-0.082355	-0.124614
C94	C	0.818718	-0.796133	0.143967
H95	H	0.819032	-0.773901	0.184836
H96	H	0.859158	-0.819579	0.146821
H97	H	0.777689	-0.812022	0.146823
C98	C	0.924560	-0.004842	0.824663
H99	H	0.917706	-0.000127	0.877535
H100	H	0.971096	0.000326	0.811658
H101	H	0.917333	-0.037092	0.811688
H102	H	0.910858	0.004568	0.330157
H103	H	0.824451	-0.405762	0.193019
H104	H	0.827943	-0.173808	-0.124629
H105	H	0.036071	0.061411	-0.124666
C106	C	0.178487	0.062859	0.143978
H107	H	0.227071	0.063362	0.134155
H108	H	0.172187	0.034554	0.172182
H109	H	0.160900	0.090922	0.172168
C110	C	0.469556	0.065847	0.144011
H111	H	0.501653	0.066181	0.184887
H112	H	0.446793	0.037373	0.146870
H113	H	0.435505	0.093741	0.146853
H114	H	0.825785	-0.314306	0.193021
C115	C	0.469647	0.065847	-0.144226
H116	H	0.421062	0.065351	-0.134399
H117	H	0.487234	0.037787	-0.172414
H118	H	0.475943	0.094155	-0.172433
H119	H	0.737292	0.124148	0.813367
C120	C	0.622464	0.067415	0.144028
H121	H	0.590339	0.067080	0.184898
H122	H	0.645231	0.095886	0.146882
H123	H	0.656508	0.039517	0.146884
H124	H	0.824524	-0.405709	-0.193272
H125	H	0.737283	0.124148	0.669597
H126	H	0.612150	0.067307	-0.124609
H127	H	0.168172	0.062760	-0.124654
H128	H	0.737255	0.124140	0.330186
C129	C	0.822189	-0.564161	-0.212887
H130	H	0.822532	-0.541926	-0.253763
H131	H	0.781171	-0.580053	-0.215738
H132	H	0.862639	-0.587604	-0.215734
C133	C	0.823744	-0.458293	-0.212885
H134	H	0.823415	-0.480525	-0.253752
H135	H	0.864765	-0.442402	-0.215750
H136	H	0.783296	-0.434850	-0.215735
C137	C	0.025544	0.061453	0.143968
H138	H	-0.023043	0.061000	0.134135
H139	H	0.031901	0.089805	0.172002
H140	H	0.043016	0.033436	0.172331
C141	C	0.822108	-0.564219	0.212605
H142	H	0.822423	-0.541987	0.253474
H143	H	0.862544	-0.587667	0.215463
H144	H	0.781076	-0.580103	0.215458
H145	H	0.825882	-0.314259	-0.193265
C146	C	0.820322	-0.690223	-0.144275
H147	H	0.819997	-0.712454	-0.185144
H148	H	0.861342	-0.674330	-0.147136
H149	H	0.779873	-0.666781	-0.147125
C150	C	0.818752	-0.796096	-0.144276
H151	H	0.818249	-0.829733	-0.134442
H152	H	0.859605	-0.791610	-0.172489
H153	H	0.778136	-0.784053	-0.172461
C154	C	0.924537	-0.004832	0.175065
H155	H	0.917691	-0.000108	0.122195
H156	H	0.917341	-0.037086	0.188057
H157	H	0.971068	0.000356	0.188044
C158	C	0.820280	-0.690274	0.143978
H159	H	0.819955	-0.712520	0.184843
H160	H	0.779840	-0.666829	0.146848
H161	H	0.861308	-0.674387	0.146828
C162	C	0.823688	-0.458363	0.212612
H163	H	0.823360	-0.480609	0.253477
H164	H	0.783251	-0.434916	0.215482
H165	H	0.864719	-0.442479	0.215460
C166	C	0.827802	-0.181066	0.144016
H167	H	0.828121	-0.158837	0.184888
H168	H	0.868237	-0.204516	0.146868
H169	H	0.786769	-0.196949	0.146868
C170	C	0.723569	0.133556	0.175092
H171	H	0.695082	0.153185	0.210043
H172	H	0.694699	0.116219	0.144193
H173	H	0.748465	0.153635	0.144164
H174	H	0.910890	0.004574	0.669574
C175	C	0.829367	-0.075190	0.144020
H176	H	0.829859	-0.041552	0.134187
H177	H	0.869968	-0.087230	0.172222
H178	H	0.788500	-0.079677	0.172216
