data_functionalizedCrystal
_audit_creation_method	'MofGen! by Chris Wilmer'
_symmetry_space_group_name_H-M	'P1'
_symmetry_Int_Tables_number	1
_symmetry_cell_setting	triclinic
loop_
_symmetry_equiv_pos_as_xyz
  x,y,z
_cell_length_a	18.050589
_cell_length_b	12.759401
_cell_length_c	12.759393
_cell_angle_alpha	89.981433
_cell_angle_beta	89.969379
_cell_angle_gamma	90.027265
loop_
_atom_site_label
_atom_site_type_symbol
_atom_site_fract_x
_atom_site_fract_y
_atom_site_fract_z
Zn1	Zn	-0.295635	1.606157	-0.593990
Zn2	Zn	-0.419845	1.606010	-0.418313
Zn3	Zn	-0.295671	1.430459	-0.418329
Zn4	Zn	-0.419785	1.430406	-0.593954
O5	O	-0.357734	1.518258	-0.506147
O6	O	-0.312121	1.753158	-0.570694
O7	O	-0.403413	1.582683	-0.271294
O8	O	-0.191742	1.453849	-0.441653
O9	O	-0.403378	1.753050	-0.441625
O10	O	-0.191715	1.582934	-0.570710
O11	O	-0.312183	1.453706	-0.271306
O12	O	-0.312125	1.283431	-0.441618
O13	O	-0.403276	1.453759	-0.740980
O14	O	-0.403312	1.283392	-0.570649
O15	O	-0.312063	1.582882	-0.741007
O16	O	-0.523762	1.582632	-0.441591
O17	O	-0.523718	1.453616	-0.570634
C18	C	-0.357716	1.245290	-0.506132
C19	C	-0.357727	1.128514	-0.506151
C20	C	-0.310299	1.073701	-0.573461
C21	C	-0.310313	0.963977	-0.573468
C22	C	-0.405189	0.963888	-0.438851
C23	C	-0.405171	1.073610	-0.438840
C24	C	-0.262855	1.128605	-0.640773
C25	C	-0.215424	1.073792	-0.708089
C26	C	-0.215438	0.964068	-0.708096
C27	C	-0.262884	0.909157	-0.640786
C28	C	-0.550686	1.518131	-0.506129
C29	C	-0.633232	1.518173	-0.506157
C30	C	-0.832686	1.448083	-0.576306
C31	C	-0.882134	1.422469	-0.480438
C32	C	-0.784362	1.518276	-0.506171
C33	C	-0.881996	1.543942	-0.602050
C34	C	-0.930347	1.518374	-0.506192
C35	C	-0.832723	1.492611	-0.410252
C36	C	-0.832580	1.614129	-0.531929
C37	C	-0.882007	1.588551	-0.435994
C38	C	-0.700264	1.518217	-0.506160
C39	C	-1.014444	1.518433	-0.506193
C40	C	-0.164028	1.518414	-0.506187
C41	C	-0.081482	1.518480	-0.506205
C42	C	-0.357659	1.518331	-0.780180
C43	C	-0.357627	1.518363	-0.896957
C44	C	-0.357752	1.792291	-0.506162
C45	C	-0.357760	1.909068	-0.506169
C46	C	-0.310128	1.585606	-0.951834
C47	C	-0.310101	1.585631	-1.061559
C48	C	-0.405079	1.451166	-1.061518
C49	C	-0.405101	1.451136	-0.951796
C50	C	-0.262654	1.652833	-0.896995
C51	C	-0.215151	1.720083	-0.951873
C52	C	-0.215124	1.720108	-1.061597
C53	C	-0.262600	1.652883	-1.116444
C54	C	-0.357755	1.518245	-0.233179
C55	C	-0.357578	1.518417	-0.116403
H56	H	-0.811029	1.388636	-0.635533
O57	O	-0.168877	1.785375	-1.114788
C58	C	-0.094863	1.762455	-1.088011
H59	H	-0.093341	1.722047	-1.008345
H60	H	-0.069827	1.708480	-1.149768
C61	C	-0.051760	1.914548	-1.180804
C62	C	-0.049890	1.864925	-1.082951
H63	H	-0.024017	1.977754	-1.177687
H64	H	-0.101624	1.929988	-1.198847
H65	H	-0.030898	1.869558	-1.232257
H66	H	-0.070760	1.909909	-1.031503
H67	H	-0.000028	1.849495	-1.064899
O68	O	-0.908069	1.325754	-0.454620
C69	C	-0.882930	1.251928	-0.528731
H70	H	-0.869008	1.293658	-0.605267
H71	H	-0.831298	1.211128	-0.497442
C72	C	-0.961120	1.118777	-0.454562
C73	C	-0.944027	1.170029	-0.548568
H74	H	-0.998805	1.068254	-0.466796
H75	H	-0.978055	1.168513	-0.404629
H76	H	-0.918088	1.084786	-0.428498
H77	H	-0.987056	1.204029	-0.574623
H78	H	-0.927101	1.120296	-0.598505
O79	O	-0.806892	1.466615	-0.313575
C80	C	-0.728785	1.466859	-0.314736
H81	H	-0.708311	1.455116	-0.398445
H82	H	-0.707601	1.545058	-0.283596
C83	C	-0.724888	1.391778	-0.142178
C84	C	-0.699740	1.377346	-0.244991
H85	H	-0.706970	1.336565	-0.099153
H86	H	-0.777509	1.391617	-0.141394
H87	H	-0.707232	1.456946	-0.116243
H88	H	-0.717404	1.312184	-0.270929
H89	H	-0.647121	1.377494	-0.245778
H90	H	-0.176494	1.774808	-0.907210
H91	H	-0.903526	1.647952	-0.376624
O92	O	-0.262505	1.653072	-1.223030
C93	C	-0.210385	1.726818	-1.259710
H94	H	-0.200001	1.788191	-1.196486
H95	H	-0.156226	1.685208	-1.279197
C96	C	-0.253392	1.705295	-1.436512
C97	C	-0.240643	1.780681	-1.358862
H98	H	-0.272054	1.738518	-1.497677
H99	H	-0.288505	1.655609	-1.411802
H100	H	-0.208256	1.670627	-1.452739
H101	H	-0.285779	1.815338	-1.342628
H102	H	-0.205538	1.830375	-1.383572
O103	O	-0.169287	0.910773	-0.773331
C104	C	-0.121289	0.847279	-0.713645
H105	H	-0.116622	0.880312	-0.630908
H106	H	-0.144260	0.764112	-0.709976
C107	C	-0.049864	0.805072	-0.866791
C108	C	-0.044127	0.845649	-0.765174
H109	H	-0.002267	0.804061	-0.898578
H110	H	-0.082202	0.847846	-0.907004
H111	H	-0.069009	0.735770	-0.863719
H112	H	-0.024991	0.914953	-0.768248
H113	H	-0.011783	0.802886	-0.724963
O114	O	-0.451359	0.910503	-0.373628
C115	C	-0.499372	0.847028	-0.433337
H116	H	-0.504021	0.880131	-0.516068
H117	H	-0.476427	0.763881	-0.437023
C118	C	-0.570824	0.804634	-0.280215
C119	C	-0.576539	0.845297	-0.381824
H120	H	-0.618424	0.803561	-0.248438
H121	H	-0.538476	0.847395	-0.239986
H122	H	-0.551700	0.735348	-0.283301
H123	H	-0.595653	0.914585	-0.378736
H124	H	-0.608893	0.802547	-0.422052
O125	O	-0.806624	1.710722	-0.558130
C126	C	-0.831698	1.737440	-0.659301
H127	H	-0.845600	1.662975	-0.704566
H128	H	-0.883328	1.788449	-0.652722
C129	C	-0.753489	1.889772	-0.661963
C130	C	-0.770558	1.798311	-0.717561
H131	H	-0.715778	1.927324	-0.697900
H132	H	-0.736598	1.871774	-0.593801
H133	H	-0.796519	1.932266	-0.656485
H134	H	-0.727531	1.755813	-0.723027
H135	H	-0.787440	1.816303	-0.785726
H136	H	-0.903639	1.565611	-0.683126
H137	H	-0.443791	1.118240	-0.384030
H138	H	-0.262672	1.652822	-0.807652
H139	H	-0.443731	1.396434	-1.106183
O140	O	-0.451327	1.385806	-0.898644
C141	C	-0.493223	1.326475	-0.970571
H142	H	-0.495767	1.369514	-1.048795
H143	H	-0.466037	1.246693	-0.982228
C144	C	-0.569153	1.258439	-0.831653
C145	C	-0.572283	1.311305	-0.927726
H146	H	-0.617920	1.249076	-0.805223
H147	H	-0.540926	1.298408	-0.783193
H148	H	-0.546495	1.191960	-0.841380
H149	H	-0.594933	1.377787	-0.917996
H150	H	-0.600517	1.271347	-0.976184
H151	H	-0.176792	1.118508	-0.762884
O152	O	-0.262842	1.235189	-0.640961
C153	C	-0.282018	1.271875	-0.741596
H154	H	-0.269392	1.208671	-0.802147
H155	H	-0.343638	1.291318	-0.743665
C156	C	-0.252288	1.448689	-0.692567
C157	C	-0.236775	1.371064	-0.766937
H158	H	-0.224383	1.509876	-0.708198
H159	H	-0.239372	1.423974	-0.624766
H160	H	-0.303639	1.464878	-0.694299
H161	H	-0.185427	1.354866	-0.765196
H162	H	-0.249682	1.395778	-0.834739
H163	H	-0.262876	0.819812	-0.640774
