data_functionalizedCrystal
_audit_creation_method	'MofGen! by Chris Wilmer'
_symmetry_space_group_name_H-M	'P1'
_symmetry_Int_Tables_number	1
_symmetry_cell_setting	triclinic
loop_
_symmetry_equiv_pos_as_xyz
  x,y,z
_cell_length_a	11.026607
_cell_length_b	23.532407
_cell_length_c	9.482900
_cell_angle_alpha	99.270833
_cell_angle_beta	78.636152
_cell_angle_gamma	95.717347
loop_
_atom_site_label
_atom_site_type_symbol
_atom_site_fract_x
_atom_site_fract_y
_atom_site_fract_z
O1	O	1.626299	0.231212	-0.120952
O2	O	1.273319	0.204090	-0.120948
O3	O	1.460449	0.135841	-0.120924
O4	O	1.439169	0.299462	-0.120976
O5	O	1.422438	0.149775	0.120864
O6	O	1.235308	0.218025	0.120840
O7	O	1.588288	0.245146	0.120835
Cu8	Cu	1.408327	0.232858	0.142915
Cu9	Cu	1.453280	0.216379	-0.143027
O10	O	1.401158	0.313396	0.120811
C11	C	1.209163	0.206054	-0.000053
C12	C	1.074628	0.191139	-0.000050
C13	C	1.000328	0.232323	-0.000064
C14	C	0.861279	0.216908	-0.000061
C15	C	1.440901	0.121535	-0.000026
C16	C	1.439269	0.058147	-0.000015
C17	C	1.539801	-0.330388	-0.000096
C18	C	1.538288	-0.389948	-0.000107
O19	O	1.631479	-0.416896	-0.000162
N20	N	1.427037	-0.424275	-0.000104
C21	C	1.317293	-0.399040	-0.000106
O22	O	1.222527	-0.433707	-0.000106
C23	C	1.318809	-0.339482	-0.000105
C24	C	1.430065	-0.305157	-0.000093
C25	C	1.651048	-0.296064	-0.000085
C26	C	1.652560	-0.236507	-0.000072
C27	C	1.542824	-0.211276	-0.000068
C28	C	1.431576	-0.245601	-0.000079
C29	C	1.209068	-0.314249	-0.000117
C30	C	1.210593	-0.254686	-0.000117
C31	C	1.321849	-0.220361	-0.000105
C32	C	1.323351	-0.160813	-0.000062
N33	N	1.434603	-0.126486	-0.000065
C34	C	1.544339	-0.151718	-0.000068
C35	C	1.314120	-0.524117	-0.000109
C36	C	1.312602	-0.583674	-0.000100
C37	C	1.533598	-0.574578	-0.000104
C38	C	1.535113	-0.515019	-0.000103
C39	C	1.425371	-0.489790	-0.000112
C40	C	1.547504	-0.026646	-0.000038
C41	C	1.549005	0.032916	-0.000018
C42	C	1.328011	0.023814	-0.000022
C43	C	1.326508	-0.035742	-0.000034
C44	C	1.436266	-0.060970	-0.000047
O45	O	1.230210	-0.133827	-0.000013
O46	O	1.639093	-0.117045	-0.000087
C47	C	1.652445	0.243183	-0.000063
C48	C	1.786981	0.258098	-0.000075
C49	C	1.420707	0.327702	-0.000090
C50	C	1.422340	0.391089	-0.000110
N51	N	1.376719	0.244449	0.344031
N52	N	1.484898	0.204785	-0.344143
C53	C	1.443948	0.219794	0.416239
C54	C	1.417658	0.229443	0.583653
H55	H	1.639606	0.060862	-0.000004
C56	C	1.204131	-0.073501	-0.000050
H57	H	1.138996	-0.049942	-0.000056
H58	H	1.185681	-0.092079	0.084249
H59	H	1.212216	-0.101770	-0.084394
C60	C	1.668232	-0.054388	-0.000040
H61	H	1.734693	-0.025408	-0.000018
H62	H	1.685508	-0.082286	-0.084357
H63	H	1.658979	-0.072577	0.084287
C64	C	0.840086	0.321152	-0.000091
H65	H	0.775436	0.344991	-0.000088
H66	H	0.902044	0.323826	-0.084405
H67	H	0.875523	0.333542	0.084239
C68	C	1.588982	0.166633	0.571959
H69	H	1.593018	0.165162	0.470444
H70	H	1.572198	0.128748	0.596831
H71	H	1.665961	0.182467	0.596827
C72	C	1.086686	-0.351994	-0.000142
H73	H	1.021563	-0.328430	-0.000160
H74	H	1.068224	-0.370567	0.084166
H75	H	1.094762	-0.380268	-0.084477
C76	C	1.021513	0.128088	-0.000029
H77	H	1.086158	0.104249	-0.000011
H78	H	0.986065	0.115697	-0.084341
H79	H	0.959560	0.125418	0.084303
C80	C	1.053449	0.295372	-0.000086
H81	H	1.139939	0.297461	-0.000096
H82	H	1.013340	0.318637	0.084221
H83	H	1.039855	0.308914	-0.084423
C84	C	0.808166	0.153854	-0.000049
H85	H	0.721679	0.151765	-0.000061
H86	H	0.821764	0.140306	0.084270
H87	H	0.848276	0.130594	-0.084374
H88	H	1.299693	0.272698	0.406151
H89	H	1.340628	0.257694	0.645767
C90	C	1.089872	-0.226937	-0.000121
H91	H	1.023402	-0.255912	-0.000118
H92	H	1.099122	-0.208743	-0.084432
H93	H	1.072606	-0.199040	0.084212
H94	H	1.743157	-0.208565	-0.000068
H95	H	1.520965	0.191540	0.354121
C96	C	1.207312	0.051576	-0.000027
H97	H	1.224159	0.091962	-0.000035
H98	H	1.148395	0.044804	0.084281
H99	H	1.174932	0.035095	-0.084363
H100	H	1.625708	-0.487075	-0.000094
C101	C	1.771767	-0.323808	-0.000077
H102	H	1.838226	-0.294827	-0.000059
H103	H	1.789046	-0.351709	-0.084388
H104	H	1.762512	-0.341993	0.084256
H105	H	1.622952	-0.595132	-0.000112
H106	H	1.222002	-0.611615	-0.000084
H107	H	1.224747	-0.503579	-0.000104
