data_functionalizedCrystal
_audit_creation_method	'MofGen! by Chris Wilmer'
_symmetry_space_group_name_H-M	'P1'
_symmetry_Int_Tables_number	1
_symmetry_cell_setting	triclinic
loop_
_symmetry_equiv_pos_as_xyz
  x,y,z
_cell_length_a	13.897449
_cell_length_b	18.101395
_cell_length_c	13.897441
_cell_angle_alpha	89.969302
_cell_angle_beta	89.976606
_cell_angle_gamma	90.031931
loop_
_atom_site_label
_atom_site_type_symbol
_atom_site_fract_x
_atom_site_fract_y
_atom_site_fract_z
Zn1	Zn	1.474613	-0.294790	-0.545449
Zn2	Zn	1.807946	0.038544	-0.212116
Zn3	Zn	2.141279	0.371877	0.121218
Zn4	Zn	1.474469	-0.418645	-0.384150
Zn5	Zn	1.807802	-0.085312	-0.050817
Zn6	Zn	2.141136	0.248021	0.282517
Zn7	Zn	1.313302	-0.294824	-0.384160
Zn8	Zn	1.646635	0.038509	-0.050827
Zn9	Zn	1.979969	0.371843	0.282507
Zn10	Zn	1.313246	-0.418596	-0.545395
Zn11	Zn	1.646579	-0.085262	-0.212062
Zn12	Zn	1.979913	0.248071	0.121271
O13	O	1.393907	-0.356714	-0.464789
O14	O	1.727241	-0.023380	-0.131455
O15	O	2.060574	0.309953	0.201878
O16	O	1.609575	-0.311226	-0.524071
O17	O	1.942909	0.022108	-0.190737
O18	O	2.276242	0.355441	0.142596
O19	O	1.453053	-0.402255	-0.249170
O20	O	1.786386	-0.068922	0.084164
O21	O	2.119720	0.264411	0.417497
O22	O	1.334784	-0.191186	-0.405582
O23	O	1.668117	0.142147	-0.072248
O24	O	2.001450	0.475480	0.261085
O25	O	1.609470	-0.402222	-0.405565
O26	O	1.942803	-0.068889	-0.072232
O27	O	2.276136	0.264445	0.261102
O28	O	1.453298	-0.191161	-0.524080
O29	O	1.786631	0.142172	-0.190747
O30	O	2.119965	0.475505	0.142586
O31	O	1.334644	-0.311284	-0.249177
O32	O	1.667978	0.022049	0.084156
O33	O	2.001311	0.355382	0.417490
O34	O	1.178313	-0.311236	-0.405530
O35	O	1.511646	0.022097	-0.072196
O36	O	1.844980	0.355431	0.261137
O37	O	1.334688	-0.402137	-0.680384
O38	O	1.668022	-0.068804	-0.347051
O39	O	2.001355	0.264529	-0.013717
O40	O	1.178272	-0.402171	-0.523989
O41	O	1.511605	-0.068837	-0.190655
O42	O	1.844938	0.264496	0.142678
O43	O	1.453244	-0.311178	-0.680424
O44	O	1.786577	0.022156	-0.347090
O45	O	2.119910	0.355489	-0.013757
O46	O	1.452999	-0.522272	-0.405513
O47	O	1.786332	-0.188938	-0.072180
O48	O	2.119665	0.144395	0.261154
O49	O	1.334549	-0.522235	-0.523979
O50	O	1.667882	-0.188902	-0.190646
O51	O	2.001216	0.144432	0.142688
C52	C	1.143293	-0.356702	-0.464755
C53	C	1.476626	-0.023369	-0.131422
C54	C	1.809960	0.309964	0.201912
C55	C	1.036079	-0.356715	-0.464763
C56	C	1.369412	-0.023382	-0.131430
C57	C	1.702746	0.309951	0.201903
C58	C	0.949009	-0.356718	-0.464779
C59	C	1.282343	-0.023384	-0.131446
C60	C	1.615676	0.309949	0.201887
C61	C	0.839777	-0.356723	-0.464809
C62	C	1.173110	-0.023390	-0.131475
C63	C	1.506444	0.309944	0.201858
C64	C	1.393778	-0.549124	-0.464760
C65	C	1.727112	-0.215791	-0.131427
C66	C	2.060445	0.117542	0.201907
C67	C	1.393811	-0.631438	-0.464780
C68	C	1.727145	-0.298105	-0.131447
C69	C	2.060478	0.035228	0.201886
C70	C	1.394023	-0.930529	-0.464832
C71	C	1.727356	-0.597196	-0.131499
C72	C	2.060690	-0.263863	0.201834
C73	C	1.319670	-0.899212	-0.539553
C74	C	1.653004	-0.565879	-0.206220
C75	C	1.986337	-0.232545	0.127114
C76	C	1.319317	-0.813594	-0.539319
C77	C	1.652650	-0.480261	-0.205986
C78	C	1.985984	-0.146927	0.127347
C79	C	1.393918	-0.782147	-0.464807
C80	C	1.727251	-0.448813	-0.131474
C81	C	2.060585	-0.115480	0.201859
C82	C	1.366392	-0.813303	-0.363147
C83	C	1.699725	-0.479970	-0.029814
C84	C	2.033059	-0.146636	0.303519
C85	C	1.365913	-0.898948	-0.363594
C86	C	1.699246	-0.565615	-0.030261
C87	C	2.032580	-0.232281	0.303072
C88	C	1.496064	-0.898871	-0.490877
C89	C	1.829398	-0.565537	-0.157543
C90	C	2.162731	-0.232204	0.175790
C91	C	1.495464	-0.813219	-0.493106
C92	C	1.828798	-0.479886	-0.159773
C93	C	2.162131	-0.146553	0.173560
C94	C	1.393860	-0.698287	-0.464787
C95	C	1.727194	-0.364954	-0.131454
C96	C	2.060527	-0.031621	0.201880
C97	C	1.394078	-1.014389	-0.464846
C98	C	1.727412	-0.681055	-0.131512
C99	C	2.060745	-0.347722	0.201821
C100	C	1.645500	-0.356726	-0.464823
C101	C	1.978834	-0.023392	-0.131490
C102	C	2.312167	0.309941	0.201844
C103	C	1.752714	-0.356731	-0.464837
C104	C	2.086048	-0.023397	-0.131504
C105	C	2.419381	0.309936	0.201829
C106	C	1.393976	-0.356648	-0.716382
C107	C	1.727309	-0.023315	-0.383048
C108	C	2.060642	0.310018	-0.049715
C109	C	1.394005	-0.356620	-0.823596
C110	C	1.727338	-0.023287	-0.490262
C111	C	2.060672	0.310046	-0.156929
C112	C	1.394063	-0.163552	-0.464838
C113	C	1.727397	0.169782	-0.131505
C114	C	2.060730	0.503115	0.201829
C115	C	1.394130	-0.081238	-0.464859
C116	C	1.727463	0.252096	-0.131526
C117	C	2.060796	0.585429	0.201807
C118	C	1.394031	-0.356570	-1.019891
C119	C	1.727365	-0.023237	-0.686558
C120	C	2.060698	0.310096	-0.353224
C121	C	1.394014	-0.356600	-0.910658
C122	C	1.727347	-0.023267	-0.577325
C123	C	2.060680	0.310067	-0.243992
C124	C	1.393895	-0.356725	-0.214174
C125	C	1.727228	-0.023392	0.119159
C126	C	2.060561	0.309941	0.452492
C127	C	1.394052	-0.356545	-0.106961
C128	C	1.727386	-0.023211	0.226373
C129	C	2.060719	0.310122	0.559706
H130	H	1.336539	-0.792526	-0.614699
H131	H	1.669872	-0.459193	-0.281366
H132	H	2.003206	-0.125860	0.051968
H133	H	1.243682	-0.793172	-0.522067
H134	H	1.577015	-0.459839	-0.188734
H135	H	1.910348	-0.126506	0.144600
H136	H	1.336722	-0.919756	-0.615177
H137	H	1.670055	-0.586423	-0.281843
H138	H	2.003388	-0.253089	0.051490
N139	N	1.267113	-0.925508	-0.334368
N140	N	1.600446	-0.592174	-0.001035
N141	N	1.933780	-0.258841	0.332299
H142	H	1.224280	-0.881580	-0.321317
H143	H	1.557614	-0.548247	0.012016
H144	H	1.890947	-0.214913	0.345349
H145	H	1.238612	-0.956132	-0.387992
H146	H	1.571945	-0.622799	-0.054659
H147	H	1.905278	-0.289466	0.278674
N148	N	1.268634	-0.784980	-0.333400
N149	N	1.601967	-0.451647	-0.000067
N150	N	1.935301	-0.118314	0.333267
H151	H	1.218863	-0.801397	-0.381830
H152	H	1.552196	-0.468063	-0.048496
H153	H	1.885530	-0.134730	0.284837
H154	H	1.251646	-0.805341	-0.267882
H155	H	1.584980	-0.472008	0.065452
H156	H	1.918313	-0.138674	0.398785
N157	N	1.220088	-0.927802	-0.516997
N158	N	1.553421	-0.594468	-0.183663
N159	N	1.886755	-0.261135	0.149670
H160	H	1.222929	-0.960952	-0.458587
H161	H	1.556262	-0.627618	-0.125254
H162	H	1.889596	-0.294285	0.208080
H163	H	1.175805	-0.884796	-0.503597
H164	H	1.509138	-0.551463	-0.170264
H165	H	1.842471	-0.218130	0.163070
N166	N	1.434498	-0.926398	-0.287308
N167	N	1.767832	-0.593065	0.046026
N168	N	2.101165	-0.259732	0.379359
H169	H	1.434714	-0.982194	-0.286997
H170	H	1.768047	-0.648861	0.046337
H171	H	2.101381	-0.315527	0.379670
H172	H	1.501447	-0.907639	-0.301627
H173	H	1.834780	-0.574305	0.031706
H174	H	2.168114	-0.240972	0.365039
N175	N	1.435863	-0.786329	-0.287384
N176	N	1.769197	-0.452995	0.045950
N177	N	2.102530	-0.119662	0.379283
H178	H	1.485967	-0.753573	-0.318305
H179	H	1.819300	-0.420240	0.015028
H180	H	2.152633	-0.086906	0.348361
H181	H	1.399609	-0.757347	-0.236987
H182	H	1.732943	-0.424014	0.096347
H183	H	2.066276	-0.090680	0.429680
H184	H	1.521159	-0.920415	-0.563744
H185	H	1.854492	-0.587082	-0.230411
H186	H	2.187826	-0.253748	0.102923
N187	N	1.522970	-0.786244	-0.592207
N188	N	1.856304	-0.452911	-0.258873
N189	N	2.189637	-0.119578	0.074460
H190	H	1.469883	-0.754028	-0.618668
H191	H	1.803216	-0.420695	-0.285334
H192	H	2.136550	-0.087361	0.047999
H193	H	1.584496	-0.756698	-0.588066
H194	H	1.917829	-0.423365	-0.254732
H195	H	2.251162	-0.090032	0.078601
H196	H	1.553792	-0.791809	-0.442650
H197	H	1.887125	-0.458475	-0.109317
H198	H	2.220458	-0.125142	0.224016
H199	H	1.551460	-0.919122	-0.436455
H200	H	1.884793	-0.585789	-0.103122
H201	H	2.218126	-0.252456	0.230212
