data_functionalizedCrystal
_audit_creation_method	'MofGen! by Chris Wilmer'
_symmetry_space_group_name_H-M	'P1'
_symmetry_Int_Tables_number	1
_symmetry_cell_setting	triclinic
loop_
_symmetry_equiv_pos_as_xyz
  x,y,z
_cell_length_a	6.817900
_cell_length_b	12.200722
_cell_length_c	10.943624
_cell_angle_alpha	92.415492
_cell_angle_beta	108.838799
_cell_angle_gamma	107.140920
loop_
_atom_site_label
_atom_site_type_symbol
_atom_site_fract_x
_atom_site_fract_y
_atom_site_fract_z
V1	V	-4.106705	-0.158683	-0.402688
O2	O	-4.073628	0.007656	-0.394882
O3	O	-4.076014	-0.314671	-0.400070
O4	O	-4.084804	-0.156228	-0.578253
O5	O	-4.064778	-0.151883	-0.215465
V6	V	-4.584605	-0.138788	-0.380278
O7	O	-4.380299	-0.202323	-0.451846
O8	O	-4.761208	-0.095148	-0.331121
O9	O	-4.392089	0.017200	-0.382897
O10	O	-4.735078	-0.305128	-0.388085
O11	O	-4.743928	-0.145588	-0.567501
O12	O	-4.383300	-0.141243	-0.204714
C13	C	-3.924466	-0.352698	-0.393752
C14	C	-3.980836	-0.480221	-0.392782
C15	C	-4.026607	-0.583781	-0.391981
C16	C	-4.084049	-0.713704	-0.390984
C17	C	-3.935676	-0.150587	-0.621040
C18	C	-3.999170	-0.149613	-0.764566
C19	C	-3.844363	-0.143049	-0.841708
C20	C	-4.028325	-0.240468	-0.947782
C21	C	-3.928369	-0.050468	-0.914231
C22	C	-4.182337	-0.247123	-0.868764
C23	C	-4.082305	-0.057037	-0.835189
C24	C	-4.266402	-0.154483	-0.941234
C25	C	-4.206979	0.055221	-0.389211
C26	C	-4.129848	0.182742	-0.390190
C27	C	-4.195769	-0.146888	-0.161919
C28	C	-4.111512	-0.147857	-0.018393
H29	H	-3.665423	-0.138345	-0.798255
H30	H	-4.104379	0.020515	-0.786138
Cl31	Cl	-4.542830	-0.161977	-1.008011
H32	H	-4.006168	-0.318016	-0.996798
Cl33	Cl	-3.763554	0.077854	-0.946107
H34	H	-4.289111	-0.330326	-0.848291
