data_functionalizedCrystal
_audit_creation_method	'MofGen! by Chris Wilmer'
_symmetry_space_group_name_H-M	'P1'
_symmetry_Int_Tables_number	1
_symmetry_cell_setting	triclinic
loop_
_symmetry_equiv_pos_as_xyz
  x,y,z
_cell_length_a	12.759401
_cell_length_b	29.839131
_cell_length_c	12.759393
_cell_angle_alpha	89.963184
_cell_angle_beta	89.979062
_cell_angle_gamma	90.042945
loop_
_atom_site_label
_atom_site_type_symbol
_atom_site_fract_x
_atom_site_fract_y
_atom_site_fract_z
Zn1	Zn	1.606071	-0.178813	-0.593974
Zn2	Zn	1.605880	-0.253950	-0.418275
Zn3	Zn	1.430370	-0.178837	-0.418309
Zn4	Zn	1.430280	-0.253919	-0.593912
O5	O	1.518150	-0.216380	-0.506117
O6	O	1.753067	-0.188784	-0.570679
O7	O	1.582556	-0.244010	-0.271258
O8	O	1.453795	-0.115967	-0.441652
O9	O	1.752927	-0.243986	-0.441593
O10	O	1.582882	-0.115949	-0.570712
O11	O	1.453610	-0.188824	-0.271283
O12	O	1.283337	-0.188794	-0.441592
O13	O	1.453641	-0.243933	-0.740941
O14	O	1.283271	-0.243956	-0.570606
O15	O	1.582794	-0.188753	-0.740987
O16	O	1.582469	-0.316813	-0.441533
O17	O	1.453456	-0.316790	-0.570573
C18	C	1.245183	-0.216375	-0.506097
C19	C	1.128406	-0.216383	-0.506113
C20	C	1.073538	-0.245150	-0.573185
C21	C	0.963813	-0.245151	-0.573206
C22	C	0.963837	-0.187618	-0.439073
C23	C	1.073559	-0.187615	-0.439058
C24	C	0.813900	-0.261272	-0.697062
C25	C	0.759027	-0.290045	-0.764125
C26	C	0.794577	-0.333888	-0.780061
C27	C	0.884998	-0.348966	-0.728920
C28	C	0.939865	-0.320195	-0.661849
C29	C	0.904317	-0.276346	-0.645932
C30	C	1.223475	-0.171499	-0.315200
C31	C	1.278344	-0.142730	-0.248124
C32	C	1.242796	-0.098886	-0.232176
C33	C	1.152371	-0.083810	-0.283300
C34	C	1.097502	-0.112579	-0.350376
C35	C	1.133058	-0.156422	-0.366325
C36	C	1.517961	-0.333103	-0.506065
C37	C	1.517976	-0.383037	-0.506078
C38	C	1.585450	-0.692680	-0.439024
C39	C	1.585579	-0.880353	-0.439065
O40	O	1.642798	-0.904617	-0.382014
N41	N	1.518368	-0.903822	-0.506197
C42	C	1.451125	-0.880370	-0.573327
O43	O	1.393969	-0.904638	-0.630435
C44	C	1.451001	-0.692698	-0.573291
C45	C	1.518209	-0.669231	-0.506148
C46	C	1.652653	-0.669213	-0.371888
C47	C	1.652616	-0.622297	-0.371874
C48	C	1.585375	-0.598849	-0.438997
C49	C	1.518172	-0.622316	-0.506134
C50	C	1.383764	-0.669247	-0.640427
C51	C	1.383741	-0.622326	-0.640413
C52	C	1.450949	-0.598859	-0.573270
C53	C	1.450895	-0.551952	-0.573244
N54	N	1.518106	-0.528482	-0.506113
C55	C	1.585346	-0.551931	-0.438989
C56	C	1.451193	-0.978901	-0.573340
C57	C	1.451223	-1.025819	-0.573348
C58	C	1.585679	-1.025798	-0.439087
C59	C	1.585643	-0.978879	-0.439075
C60	C	1.518404	-0.955431	-0.506209
C61	C	1.585262	-0.453405	-0.438965
C62	C	1.585216	-0.406486	-0.438955
C63	C	1.450764	-0.406510	-0.573219
C64	C	1.450806	-0.453426	-0.573226
C65	C	1.518064	-0.476872	-0.506096
O66	O	1.393715	-0.527659	-0.630274
O67	O	1.642510	-0.527655	-0.381907
C68	C	1.585487	-0.739595	-0.439038
C69	C	1.518284	-0.763062	-0.506175
C70	C	1.451043	-0.739613	-0.573298
C71	C	1.518313	-0.809980	-0.506183
C72	C	1.585553	-0.833428	-0.439060
C73	C	1.652764	-0.809959	-0.371928
C74	C	1.652727	-0.763044	-0.371915
C75	C	1.383832	-0.763083	-0.640430
C76	C	1.383874	-0.809998	-0.640437
C77	C	1.451114	-0.833447	-0.573314
C78	C	1.792184	-0.216386	-0.506139
C79	C	1.908960	-0.216388	-0.506148
C80	C	1.518229	-0.216337	-0.780151
C81	C	1.518263	-0.216318	-0.896928
C82	C	1.518370	-0.099202	-0.506193
C83	C	1.518463	-0.049267	-0.506225
C84	C	1.585518	-0.187582	-0.951815
C85	C	1.585535	-0.187562	-1.061539
C86	C	1.451040	-0.245020	-1.061479
C87	C	1.451018	-0.245037	-0.951757
C88	C	1.623205	-0.134558	-1.211531
C89	C	1.690477	-0.105825	-1.266422
C90	C	1.792997	-0.098936	-1.230832
C91	C	1.828267	-0.120786	-1.140353
C92	C	1.761001	-0.149522	-1.085468
C93	C	1.658466	-0.156403	-1.121056
C94	C	1.413359	-0.298042	-0.801763
C95	C	1.346098	-0.326781	-0.746875
C96	C	1.243576	-0.333675	-0.782463
C97	C	1.208310	-0.311832	-0.872945
C98	C	1.275571	-0.283093	-0.927833
C99	C	1.378092	-0.276199	-0.892238
C100	C	1.518133	-0.216391	-0.233150
C101	C	1.518303	-0.216282	-0.116374
H102	H	0.749892	-0.357316	-0.834667
C103	C	1.726624	-0.694999	-0.298034
N104	N	1.782336	-0.714418	-0.242395
C105	C	1.376871	-0.479240	-0.647083
N106	N	1.321189	-0.498680	-0.702722
H107	H	1.639945	-0.387380	-0.384275
H108	H	1.396294	-0.268403	-1.106134
C109	C	0.774793	-0.213040	-0.679547
N110	N	0.745332	-0.176712	-0.666354
C111	C	1.169591	-0.365291	-0.722083
N112	N	1.113864	-0.389102	-0.676607
C113	C	1.236772	-0.259064	-1.027363
N114	N	1.207548	-0.240964	-1.102328
C115	C	1.866991	-0.067326	-1.291212
N116	N	1.922716	-0.043515	-1.336691
H117	H	1.789719	-0.167314	-1.011805
H118	H	1.396485	-1.044921	-0.628013
H119	H	1.640370	-0.959775	-0.384402
H120	H	1.374824	-0.344570	-0.673207
H121	H	1.640429	-1.044898	-0.384433
C122	C	1.941051	-0.113208	-1.101214
N123	N	2.026000	-0.107498	-1.071730
C124	C	1.510422	-0.142128	-1.250680
N125	N	1.425473	-0.147831	-1.280173
H126	H	1.013483	-0.332471	-0.620210
C127	C	1.095529	-0.319414	-0.912094
N128	N	1.010581	-0.325127	-0.941579
H129	H	0.913929	-0.384669	-0.741892
H130	H	1.023879	-0.100299	-0.392011
C131	C	1.309771	-0.596536	-0.714269
N132	N	1.254056	-0.577113	-0.769895
C133	C	1.526142	-0.290462	-0.762610
N134	N	1.611090	-0.284755	-0.733120
H135	H	1.396437	-0.959813	-0.628010
C136	C	1.309832	-0.695050	-0.714294
N137	N	1.254143	-0.714484	-0.769937
C138	C	1.133866	-0.276792	-0.646954
N139	N	1.179302	-0.300625	-0.702523
H140	H	1.329078	-0.743995	-0.695091
C141	C	0.659572	-0.273457	-0.820386
N142	N	0.584662	-0.260964	-0.862760
C143	C	1.726728	-0.835762	-0.298091
N144	N	1.782438	-0.855198	-0.242484
H145	H	1.707454	-0.743940	-0.317241
C146	C	1.659479	-0.155987	-0.891507
N147	N	1.715186	-0.132186	-0.846086
C148	C	0.903494	-0.155978	-0.365312
N149	N	0.858046	-0.132146	-0.309751
C150	C	1.309933	-0.835806	-0.714304
N151	N	1.254248	-0.855244	-0.769945
H152	H	1.640032	-0.472490	-0.384304
H153	H	1.123415	-0.048112	-0.270299
H154	H	1.396015	-0.387411	-0.627867
H155	H	1.287475	-0.075464	-0.177548
H156	H	1.252433	-0.207199	-0.328189
C157	C	1.377823	-0.159314	-0.191900
N158	N	1.452756	-0.171803	-0.149560
C159	C	1.726542	-0.596490	-0.298002
N160	N	1.782224	-0.577055	-0.242355
H161	H	1.661750	-0.088034	-1.340090
