data_functionalizedCrystal
_audit_creation_method	'MofGen! by Chris Wilmer'
_symmetry_space_group_name_H-M	'P1'
_symmetry_Int_Tables_number	1
_symmetry_cell_setting	triclinic
loop_
_symmetry_equiv_pos_as_xyz
  x,y,z
_cell_length_a	16.625546
_cell_length_b	21.395362
_cell_length_c	21.395355
_cell_angle_alpha	89.997168
_cell_angle_beta	89.981524
_cell_angle_gamma	90.043196
loop_
_atom_site_label
_atom_site_type_symbol
_atom_site_fract_x
_atom_site_fract_y
_atom_site_fract_z
Zn1	Zn	-0.320649	0.957895	-0.353899
Zn2	Zn	-0.070649	1.207895	-0.103899
Zn3	Zn	0.179351	1.457895	0.146101
Zn4	Zn	0.429351	1.707895	0.396101
Zn5	Zn	-0.455464	0.957813	-0.249121
Zn6	Zn	-0.205464	1.207813	0.000879
Zn7	Zn	0.044536	1.457813	0.250879
Zn8	Zn	0.294536	1.707813	0.500879
Zn9	Zn	-0.320698	0.853110	-0.249175
Zn10	Zn	-0.070698	1.103110	0.000825
Zn11	Zn	0.179302	1.353110	0.250825
Zn12	Zn	0.429302	1.603110	0.500825
Zn13	Zn	-0.455492	0.853094	-0.353901
Zn14	Zn	-0.205492	1.103094	-0.103901
Zn15	Zn	0.044508	1.353094	0.146099
Zn16	Zn	0.294508	1.603094	0.396099
O17	O	-0.388076	0.905478	-0.301524
O18	O	-0.138076	1.155478	-0.051524
O19	O	0.111924	1.405478	0.198476
O20	O	0.361924	1.655478	0.448476
O21	O	-0.338501	1.045562	-0.339976
O22	O	-0.088501	1.295562	-0.089976
O23	O	0.161499	1.545562	0.160024
O24	O	0.411499	1.795562	0.410024
O25	O	-0.437596	0.943896	-0.161450
O26	O	-0.187596	1.193896	0.088550
O27	O	0.062404	1.443896	0.338550
O28	O	0.312404	1.693896	0.588550
O29	O	-0.207859	0.867051	-0.263088
O30	O	0.042141	1.117051	-0.013088
O31	O	0.292141	1.367051	0.236912
O32	O	0.542141	1.617051	0.486912
O33	O	-0.437549	1.045501	-0.262997
O34	O	-0.187549	1.295501	-0.012997
O35	O	0.062451	1.545501	0.237003
O36	O	0.312451	1.795501	0.487003
O37	O	-0.207823	0.944036	-0.340028
O38	O	0.042177	1.194036	-0.090028
O39	O	0.292177	1.444036	0.159972
O40	O	0.542177	1.694036	0.409972
O41	O	-0.338584	0.866971	-0.161490
O42	O	-0.088584	1.116971	0.088510
O43	O	0.161416	1.366971	0.338510
O44	O	0.411416	1.616971	0.588510
O45	O	-0.338611	0.765430	-0.263091
O46	O	-0.088611	1.015430	-0.013091
O47	O	0.161389	1.265430	0.236909
O48	O	0.411389	1.515430	0.486909
O49	O	-0.437596	0.867024	-0.441579
O50	O	-0.187596	1.117024	-0.191579
O51	O	0.062404	1.367024	0.058421
O52	O	0.312404	1.617024	0.308421
O53	O	-0.437644	0.765419	-0.340032
O54	O	-0.187644	1.015419	-0.090032
O55	O	0.062356	1.265419	0.159968
O56	O	0.312356	1.515419	0.409968
O57	O	-0.338528	0.944021	-0.441577
O58	O	-0.088528	1.194021	-0.191577
O59	O	0.161472	1.444021	0.058423
O60	O	0.411472	1.694021	0.308423
O61	O	-0.568300	0.943880	-0.262999
O62	O	-0.318300	1.193880	-0.012999
O63	O	-0.068300	1.443880	0.237001
O64	O	0.181700	1.693880	0.487001
O65	O	-0.568321	0.866944	-0.339980
O66	O	-0.318321	1.116944	-0.089980
O67	O	-0.068321	1.366944	0.160020
O68	O	0.181679	1.616944	0.410020
C69	C	-0.597567	0.905419	-0.301498
C70	C	-0.347567	1.155419	-0.051498
C71	C	-0.097567	1.405419	0.198502
C72	C	0.152433	1.655419	0.448502
C73	C	-0.687188	0.905451	-0.301507
C74	C	-0.437188	1.155451	-0.051507
C75	C	-0.187188	1.405451	0.198493
C76	C	0.062812	1.655451	0.448493
C77	C	-0.388060	0.905530	-0.464947
C78	C	-0.138060	1.155530	-0.214947
C79	C	0.111940	1.405530	0.035053
C80	C	0.361940	1.655530	0.285053
C81	C	-0.388053	0.905552	-0.534589
C82	C	-0.138053	1.155552	-0.284589
C83	C	0.111947	1.405552	-0.034589
C84	C	0.361947	1.655552	0.215411
C85	C	-0.388016	1.068901	-0.301480
C86	C	-0.138016	1.318901	-0.051480
C87	C	0.111984	1.568901	0.198520
C88	C	0.361984	1.818901	0.448520
C89	C	-0.387990	1.138543	-0.301461
C90	C	-0.137990	1.388543	-0.051461
C91	C	0.112010	1.638543	0.198539
C92	C	0.362010	1.888543	0.448539
C93	C	-1.015363	0.905560	-0.301573
C94	C	-0.765363	1.155560	-0.051573
C95	C	-0.515363	1.405560	0.198427
C96	C	-0.265363	1.655560	0.448427
C97	C	-0.924055	0.905528	-0.301556
C98	C	-0.674055	1.155528	-0.051556
C99	C	-0.424055	1.405528	0.198444
C100	C	-0.174055	1.655528	0.448444
C101	C	-0.851279	0.905505	-0.301540
C102	C	-0.601279	1.155505	-0.051540
C103	C	-0.351279	1.405505	0.198460
C104	C	-0.101279	1.655505	0.448460
C105	C	-0.759964	0.905473	-0.301524
C106	C	-0.509964	1.155473	-0.051524
C107	C	-0.259964	1.405473	0.198476
C108	C	-0.009964	1.655473	0.448476
C109	C	-0.177767	0.905555	-0.301564
C110	C	0.072233	1.155555	-0.051564
C111	C	0.322233	1.405555	0.198436
C112	C	0.572233	1.655555	0.448436
C113	C	-0.088146	0.905587	-0.301581
C114	C	0.161854	1.155587	-0.051581
C115	C	0.411854	1.405587	0.198419
C116	C	0.661854	1.655587	0.448419
C117	C	-0.388136	0.742690	-0.301568
C118	C	-0.138136	0.992690	-0.051568
C119	C	0.111864	1.242690	0.198432
C120	C	0.361864	1.492690	0.448432
C121	C	-0.388182	0.673049	-0.301602
C122	C	-0.138182	0.923049	-0.051602
C123	C	0.111818	1.173049	0.198398
C124	C	0.361818	1.423049	0.448398
C125	C	-0.336431	1.171288	-0.341543
C126	C	-0.086431	1.421288	-0.091543
C127	C	0.163569	1.671288	0.158457
C128	C	0.413569	1.921288	0.408457
C129	C	-0.336457	1.236724	-0.341565
C130	C	-0.086457	1.486724	-0.091565
C131	C	0.163543	1.736724	0.158435
C132	C	0.413543	1.986724	0.408435
C133	C	-0.388034	1.269411	-0.301493
C134	C	-0.138034	1.519411	-0.051493
C135	C	0.111966	1.769411	0.198507
C136	C	0.361966	2.019411	0.448507
C137	C	-0.439604	1.236657	-0.261408
C138	C	-0.189604	1.486657	-0.011408
C139	C	0.060396	1.736657	0.238592
C140	C	0.310396	1.986657	0.488592
C141	C	-0.439582	1.171223	-0.261392
C142	C	-0.189582	1.421223	-0.011392
C143	C	0.060418	1.671223	0.238608
C144	C	0.310418	1.921223	0.488608
C145	C	-0.394438	1.373084	-0.245067
C146	C	-0.144438	1.623084	0.004933
C147	C	0.105562	1.873084	0.254933
C148	C	0.355562	2.123084	0.504933
C149	C	-0.394454	1.438517	-0.245082
C150	C	-0.144454	1.688517	0.004918
C151	C	0.105546	1.938517	0.254918
C152	C	0.355546	2.188517	0.504918
C153	C	-0.388106	1.471232	-0.301542
C154	C	-0.138106	1.721232	-0.051542
C155	C	0.111894	1.971232	0.198458
C156	C	0.361894	2.221232	0.448458
C157	C	-0.381724	1.438505	-0.357989
C158	C	-0.131724	1.688505	-0.107989
C159	C	0.118276	1.938505	0.142011
C160	C	0.368276	2.188505	0.392011
C161	C	-0.381702	1.373071	-0.357973
C162	C	-0.131702	1.623071	-0.107973
C163	C	0.118298	1.873071	0.142027
C164	C	0.368298	2.123071	0.392027
C165	C	-0.388064	1.340363	-0.301506
C166	C	-0.138064	1.590363	-0.051506
C167	C	0.111936	1.840363	0.198494
C168	C	0.361936	2.090363	0.448494
C169	C	-0.336571	1.574930	-0.341651
C170	C	-0.086571	1.824930	-0.091651
C171	C	0.163429	2.074930	0.158349
C172	C	0.413429	2.324930	0.408349
C173	C	-0.336603	1.640366	-0.341673
C174	C	-0.086603	1.890366	-0.091673
C175	C	0.163397	2.140366	0.158327
C176	C	0.413397	2.390366	0.408327
C177	C	-0.439746	1.640299	-0.261511
C178	C	-0.189746	1.890299	-0.011511
C179	C	0.060254	2.140299	0.238489
C180	C	0.310254	2.390299	0.488489
C181	C	-0.439718	1.574864	-0.261494
C182	C	-0.189718	1.824864	-0.011494
C183	C	0.060282	2.074864	0.238506
C184	C	0.310282	2.324864	0.488506
C185	C	-0.388127	1.542183	-0.301563
C186	C	-0.138127	1.792183	-0.051563
C187	C	0.111873	2.042183	0.198437
C188	C	0.361873	2.292183	0.448437
C189	C	-0.336465	0.945643	-0.567302
C190	C	-0.086465	1.195643	-0.317302
C191	C	0.163535	1.445643	-0.067302
C192	C	0.413535	1.695643	0.182698
C193	C	-0.336431	0.945642	-0.632737
C194	C	-0.086431	1.195642	-0.382737
C195	C	0.163569	1.445642	-0.132737
C196	C	0.413569	1.695642	0.117263
C197	C	-0.387998	0.905557	-0.665457
C198	C	-0.137998	1.155557	-0.415457
C199	C	0.112002	1.405557	-0.165457
C200	C	0.362002	1.655557	0.084543
C201	C	-0.439589	0.865459	-0.632736
C202	C	-0.189589	1.115459	-0.382736
C203	C	0.060411	1.365459	-0.132736
C204	C	0.310411	1.615459	0.117264
C205	C	-0.439616	0.865456	-0.567302
C206	C	-0.189616	1.115456	-0.317302
C207	C	0.060384	1.365456	-0.067302
C208	C	0.310384	1.615456	0.182698
C209	C	-0.460601	0.900589	-0.769124
C210	C	-0.210601	1.150589	-0.519124
C211	C	0.039399	1.400589	-0.269124
C212	C	0.289399	1.650589	-0.019124
C213	C	-0.460575	0.900596	-0.834557
C214	C	-0.210575	1.150596	-0.584557
C215	C	0.039425	1.400596	-0.334557
C216	C	0.289425	1.650596	-0.084557
C217	C	-0.387913	0.905561	-0.867278
C218	C	-0.137913	1.155561	-0.617278
C219	C	0.112087	1.405561	-0.367278
C220	C	0.362087	1.655561	-0.117278
C221	C	-0.315274	0.910532	-0.834557
C222	C	-0.065274	1.160532	-0.584557
C223	C	0.184726	1.410532	-0.334557
C224	C	0.434726	1.660532	-0.084557
C225	C	-0.315302	0.910530	-0.769123
C226	C	-0.065302	1.160530	-0.519123
C227	C	0.184698	1.410530	-0.269123
C228	C	0.434698	1.660530	-0.019123
C229	C	-0.387973	0.905555	-0.736409
C230	C	-0.137973	1.155555	-0.486409
C231	C	0.112027	1.405555	-0.236409
C232	C	0.362027	1.655555	0.013591
C233	C	-0.336283	0.945653	-0.970944
C234	C	-0.086283	1.195653	-0.720944
C235	C	0.163717	1.445653	-0.470944
C236	C	0.413717	1.695653	-0.220944
C237	C	-0.336247	0.945647	-1.036380
C238	C	-0.086247	1.195647	-0.786380
C239	C	0.163753	1.445647	-0.536380
C240	C	0.413753	1.695647	-0.286380
C241	C	-0.439412	0.865468	-1.036378
C242	C	-0.189412	1.115468	-0.786378
C243	C	0.060588	1.365468	-0.536378
C244	C	0.310588	1.615468	-0.286378
C245	C	-0.439441	0.865470	-0.970942
C246	C	-0.189441	1.115470	-0.720942
C247	C	0.060559	1.365470	-0.470942
C248	C	0.310559	1.615470	-0.220942
C249	C	-0.387878	0.905565	-0.938229
C250	C	-0.137878	1.155565	-0.688229
C251	C	0.112122	1.405565	-0.438229
C252	C	0.362122	1.655565	-0.188229
C253	C	-0.388034	0.905462	-0.138736
C254	C	-0.138034	1.155462	0.111264
C255	C	0.111966	1.405462	0.361264
C256	C	0.361966	1.655462	0.611264
C257	C	-0.387814	0.905562	-0.069095
C258	C	-0.137814	1.155562	0.180905
C259	C	0.112186	1.405562	0.430905
C260	C	0.362186	1.655562	0.680905
H261	H	-0.294424	1.144684	-0.374174
H262	H	-0.044424	1.394684	-0.124174
H263	H	0.205576	1.644684	0.125826
H264	H	0.455576	1.894684	0.375826
H265	H	-0.256106	0.914576	-0.861197
H266	H	-0.006106	1.164576	-0.611197
H267	H	0.243894	1.414576	-0.361197
H268	H	0.493894	1.664576	-0.111197
F269	F	-0.494288	0.822801	-1.071196
F270	F	-0.244288	1.072801	-0.821196
F271	F	0.005712	1.322801	-0.571196
F272	F	0.255712	1.572801	-0.321196
H273	H	-0.376550	1.465140	-0.403964
H274	H	-0.126550	1.715140	-0.153964
H275	H	0.123450	1.965140	0.096036
H276	H	0.373450	2.215140	0.346036
F277	F	-0.494467	0.822796	-0.667559
F278	F	-0.244467	1.072796	-0.417559
F279	F	0.005533	1.322796	-0.167559
F280	F	0.255533	1.572796	0.082441
F281	F	-0.281576	1.271581	-0.384227
F282	F	-0.031576	1.521581	-0.134227
F283	F	0.218424	1.771581	0.115773
F284	F	0.468424	2.021581	0.365773
F285	F	-0.401233	1.473341	-0.185006
F286	F	-0.151233	1.723341	0.064994
F287	F	0.098767	1.973341	0.314994
F288	F	0.348767	2.223341	0.564994
F289	F	-0.237997	0.915817	-0.734302
F290	F	0.012003	1.165817	-0.484302
F291	F	0.262003	1.415817	-0.234302
F292	F	0.512003	1.665817	0.015698
H293	H	-0.294478	0.978291	-0.540671
H294	H	-0.044478	1.228291	-0.290671
H295	H	0.205522	1.478291	-0.040671
H296	H	0.455522	1.728291	0.209329
H297	H	-0.481623	0.832807	-0.540667
H298	H	-0.231623	1.082807	-0.290667
H299	H	0.018377	1.332807	-0.040667
H300	H	0.268377	1.582807	0.209333
F301	F	-0.374916	1.338244	-0.418047
F302	F	-0.124916	1.588244	-0.168047
F303	F	0.125084	1.838244	0.081953
F304	F	0.375084	2.088244	0.331953
H305	H	-0.481700	1.548202	-0.228852
H306	H	-0.231700	1.798202	0.021148
H307	H	0.018300	2.048202	0.271148
H308	H	0.268300	2.298202	0.521148
F309	F	-0.281666	1.540146	-0.384297
F310	F	-0.031666	1.790146	-0.134297
F311	F	0.218334	2.040146	0.115703
F312	F	0.468334	2.290146	0.365703
F313	F	-0.281509	0.988303	-0.667560
F314	F	-0.031509	1.238303	-0.417560
F315	F	0.218491	1.488303	-0.167560
F316	F	0.468491	1.738303	0.082440
F317	F	-0.281403	0.988323	-0.936126
F318	F	-0.031403	1.238323	-0.686126
F319	F	0.218597	1.488323	-0.436126
F320	F	0.468597	1.738323	-0.186126
F321	F	-0.401206	1.338273	-0.184971
F322	F	-0.151206	1.588273	0.065029
F323	F	0.098794	1.838273	0.315029
F324	F	0.348794	2.088273	0.565029
H325	H	-0.481454	0.832827	-0.944307
H326	H	-0.231454	1.082827	-0.694307
H327	H	0.018546	1.332827	-0.444307
H328	H	0.268546	1.582827	-0.194307
F329	F	-0.281347	0.988327	-1.071196
F330	F	-0.031347	1.238327	-0.821196
F331	F	0.218653	1.488327	-0.571196
F332	F	0.468653	1.738327	-0.321196
H333	H	-0.294619	1.667027	-0.374318
H334	H	-0.044619	1.917027	-0.124318
H335	H	0.205381	2.167027	0.125682
H336	H	0.455381	2.417027	0.375682
H337	H	-0.481747	1.666912	-0.228889
H338	H	-0.231747	1.916912	0.021111
H339	H	0.018253	2.166912	0.271111
H340	H	0.268253	2.416912	0.521111
H341	H	-0.481600	1.263275	-0.228783
H342	H	-0.231600	1.513275	0.021217
H343	H	0.018400	1.763275	0.271217
H344	H	0.268400	2.013275	0.521217
H345	H	-0.519721	0.896552	-0.861194
H346	H	-0.269721	1.146552	-0.611194
H347	H	-0.019721	1.396552	-0.361194
H348	H	0.230279	1.646552	-0.111194
H349	H	-0.481570	1.144562	-0.228752
H350	H	-0.231570	1.394562	0.021248
H351	H	0.018430	1.644562	0.271248
H352	H	0.268430	1.894562	0.521248
H353	H	-0.519756	0.896379	-0.742489
H354	H	-0.269756	1.146379	-0.492489
H355	H	-0.019756	1.396379	-0.242489
H356	H	0.230244	1.646379	0.007511
