data_functionalizedCrystal
_audit_creation_method	'MofGen! by Chris Wilmer'
_symmetry_space_group_name_H-M	'P1'
_symmetry_Int_Tables_number	1
_symmetry_cell_setting	triclinic
loop_
_symmetry_equiv_pos_as_xyz
  x,y,z
_cell_length_a	10.654541
_cell_length_b	14.519709
_cell_length_c	9.730217
_cell_angle_alpha	89.995799
_cell_angle_beta	89.999932
_cell_angle_gamma	84.082037
loop_
_atom_site_label
_atom_site_type_symbol
_atom_site_fract_x
_atom_site_fract_y
_atom_site_fract_z
O1	O	1.666593	0.129520	-0.114251
O2	O	1.300995	0.141863	-0.114263
O3	O	1.493488	0.001504	-0.114245
O4	O	1.474101	0.269880	-0.114270
O5	O	1.493482	0.001502	0.114335
O6	O	1.300990	0.141862	0.114317
O7	O	1.666587	0.129519	0.114329
Zn8	Zn	1.483787	0.135690	0.150615
Zn9	Zn	1.483795	0.135692	-0.150549
O10	O	1.474095	0.269879	0.114310
C11	C	1.254203	0.140957	0.000025
C12	C	1.114786	0.138247	0.000021
C13	C	1.492581	-0.032862	0.000046
C14	C	1.489874	-0.135257	0.000046
C15	C	1.085201	0.306085	-0.000012
C16	C	1.004912	0.388727	-0.000034
C17	C	0.873919	0.386175	-0.000035
C18	C	0.823213	0.300972	-0.000010
C19	C	0.903502	0.218330	0.000012
C20	C	1.034496	0.220891	0.000009
C21	C	0.933086	0.050493	0.000055
C22	C	1.064080	0.053043	0.000046
C23	C	0.882380	-0.034710	0.000080
C24	C	0.962669	-0.117354	0.000092
C25	C	1.093670	-0.114798	0.000091
C26	C	1.144369	-0.029599	0.000068
C27	C	1.479906	-0.510204	0.000010
C28	C	1.482674	-0.405882	0.000021
C29	C	1.484890	-0.322734	0.000030
C30	C	1.487658	-0.218405	0.000037
C31	C	1.713380	0.130425	0.000037
C32	C	1.852797	0.133135	0.000033
C33	C	1.475002	0.304244	0.000017
C34	C	1.477709	0.406639	0.000007
N35	N	1.483791	0.135689	0.356151
N36	N	1.483801	0.135686	-0.356086
C37	C	1.654312	0.011436	0.356159
C38	C	1.739581	-0.050687	0.428102
C39	C	1.739594	-0.050688	0.571982
C40	C	1.654326	0.011440	0.643921
C41	C	1.569057	0.073564	0.571978
C42	C	1.569056	0.073559	0.428095
C43	C	1.398532	0.197810	0.571971
C44	C	1.398523	0.197816	0.428091
C45	C	1.313264	0.259938	0.643910
C46	C	1.227999	0.322067	0.571967
C47	C	1.227991	0.322066	0.428078
C48	C	1.313254	0.259940	0.356147
H49	H	1.046212	0.458098	-0.000051
H50	H	1.313260	0.259936	0.238993
H51	H	1.158550	0.372650	0.369509
O52	O	0.913206	-0.200033	0.000057
C53	C	0.780372	-0.184563	0.000102
H54	H	0.749771	-0.112792	-0.043186
H55	H	0.743908	-0.189260	0.109769
C56	C	0.763449	-0.346425	-0.036349
C57	C	0.725865	-0.258277	-0.089527
H58	H	0.729825	-0.391897	-0.091630
H59	H	0.852942	-0.356848	-0.036374
H60	H	0.733060	-0.350325	0.055039
H61	H	0.756267	-0.254374	-0.180906
H62	H	0.636376	-0.247854	-0.089519
H63	H	0.808546	0.453470	-0.000043
H64	H	1.809004	-0.101273	0.369517
O65	O	1.313263	0.260109	0.783674
C66	C	1.338993	0.347826	0.831724
H67	H	1.313362	0.401982	0.748799
H68	H	1.443637	0.346121	0.857247
C69	C	1.291842	0.306274	1.063601
C70	C	1.260352	0.372791	0.961755
H71	H	1.243338	0.321674	1.143814
H72	H	1.274512	0.247177	1.031231
H73	H	1.379047	0.304861	1.084854
H74	H	1.173152	0.374196	0.940492
H75	H	1.277665	0.431890	0.994125
H76	H	0.716550	0.298901	0.000005
H77	H	1.809023	-0.101277	0.630559
O78	O	1.145003	0.382315	0.641787
C79	C	1.020662	0.366482	0.606607
H80	H	1.019898	0.292642	0.567047
H81	H	0.983877	0.417354	0.523096
C82	C	0.936501	0.470905	0.783012
C83	C	0.935560	0.380211	0.734436
H84	H	0.884003	0.479377	0.861860
H85	H	1.020271	0.481575	0.806711
H86	H	0.905849	0.513288	0.713408
H87	H	0.966226	0.337830	0.804033
H88	H	0.851793	0.369534	0.710751
H89	H	1.251028	-0.027510	0.000051
O90	O	1.171480	-0.195166	0.000050
C91	C	1.098629	-0.270907	0.000109
H92	H	1.000915	-0.248126	-0.043167
H93	H	1.089247	-0.296973	0.109778
C94	C	1.283732	-0.377184	-0.036362
C95	C	1.163722	-0.349206	-0.089525
H96	H	1.323885	-0.425485	-0.091646
H97	H	1.332814	-0.326157	-0.036396
H98	H	1.275897	-0.398900	0.055029
H99	H	1.171559	-0.327480	-0.180906
H100	H	1.114642	-0.400232	-0.089507
H101	H	1.191861	0.308172	-0.000042
H102	H	1.654321	0.011438	0.239004
H103	H	0.775717	-0.036782	0.000086
H104	H	1.654332	0.011428	0.761076
