data_functionalizedCrystal
_audit_creation_method	'MofGen! by Chris Wilmer'
_symmetry_space_group_name_H-M	'P1'
_symmetry_Int_Tables_number	1
_symmetry_cell_setting	triclinic
loop_
_symmetry_equiv_pos_as_xyz
  x,y,z
_cell_length_a	23.204099
_cell_length_b	23.204065
_cell_length_c	23.204116
_cell_angle_alpha	120.002578
_cell_angle_beta	89.999297
_cell_angle_gamma	119.999904
loop_
_atom_site_label
_atom_site_type_symbol
_atom_site_fract_x
_atom_site_fract_y
_atom_site_fract_z
O1	O	-0.491198	0.412481	0.017134
O2	O	-0.407393	0.294470	-0.017072
O3	O	-0.407389	0.412481	0.100940
O4	O	-0.491201	0.294470	-0.100878
O5	O	-0.311538	0.508333	0.100942
O6	O	-0.311542	0.390322	-0.017070
O7	O	-0.395346	0.508333	0.017136
Cu8	Cu	-0.344692	0.458080	0.000033
Cu9	Cu	-0.458047	0.344723	0.000031
O10	O	-0.395350	0.390322	-0.100876
C11	C	-0.554179	0.694403	0.035861
C12	C	-0.518616	0.765529	0.030970
C13	C	-0.519337	0.659886	0.036346
C14	C	-0.658539	0.590043	0.035859
C15	C	-0.734558	0.549587	0.030965
C16	C	-0.623539	0.555685	0.036344
C17	C	-0.554182	0.590040	0.035856
C18	C	-0.518620	0.549581	0.030959
C19	C	-0.623537	0.659889	0.036349
C20	C	-0.489891	0.516893	0.027001
C21	C	-0.489885	0.822991	0.027016
C22	C	-0.795974	0.516901	0.027010
C23	C	-0.453849	0.475886	0.022037
C24	C	-0.453840	0.895080	0.022057
C25	C	-0.873023	0.475897	0.022049
O26	O	-1.017085	0.294483	-0.100861
O27	O	-0.982883	0.412494	0.100958
O28	O	-1.100890	0.294484	-0.017050
O29	O	-0.899077	0.412493	0.017147
O30	O	-1.100891	0.390337	-0.017046
O31	O	-0.982883	0.508348	0.100963
O32	O	-1.017085	0.390336	-0.100857
Cu33	Cu	-0.999984	0.458094	0.000053
Cu34	Cu	-0.999984	0.344736	0.000048
O35	O	-0.899078	0.508346	0.017151
C36	C	-0.554189	0.212771	-0.445779
C37	C	-0.518626	0.253229	-0.481339
C38	C	-0.623547	0.142924	-0.480625
C39	C	-0.554190	0.212770	-0.341420
C40	C	-0.518627	0.253227	-0.265400
C41	C	-0.623548	0.142923	-0.376425
C42	C	-0.658550	0.108409	-0.445784
C43	C	-0.734570	0.037282	-0.481349
C44	C	-0.519346	0.247127	-0.376420
C45	C	-0.795986	-0.020180	-0.510082
C46	C	-0.489894	0.285916	-0.510068
C47	C	-0.489897	0.285913	-0.203982
C48	C	-0.873036	-0.092269	-0.546129
C49	C	-0.453850	0.326922	-0.546109
C50	C	-0.453853	0.326918	-0.126932
C51	C	-0.310653	0.181453	-0.024840
C52	C	-0.346215	0.110330	-0.019945
C53	C	-0.241295	0.215970	-0.025324
C54	C	-0.310655	0.285808	-0.024846
C55	C	-0.346220	0.326261	-0.019958
C56	C	-0.241297	0.320167	-0.025330
C57	C	-0.206293	0.285814	-0.024837
C58	C	-0.130273	0.326274	-0.019939
C59	C	-0.345498	0.215964	-0.025333
O60	O	-0.311537	1.083835	-0.017057
O61	O	-0.395338	0.916234	0.017156
O62	O	-0.395349	0.916214	-0.100859
O63	O	-0.311526	1.083855	0.100958
O64	O	-0.491199	0.916217	-0.100855
O65	O	-0.491187	0.916237	0.017160
O66	O	-0.407387	1.083838	-0.017053
Cu67	Cu	-0.458039	1.000038	0.000054
Cu68	Cu	-0.344686	1.000034	0.000049
O69	O	-0.407375	1.083858	0.100961
O70	O	-1.100907	-0.281044	-0.592599
O71	O	-0.899092	-0.113425	-0.508782
O72	O	-1.017096	-0.113423	-0.508781
O73	O	-0.982903	-0.281046	-0.592600
O74	O	-1.017094	-0.113421	-0.604631
O75	O	-0.899090	-0.113423	-0.604632
O76	O	-1.100904	-0.281042	-0.688449
Cu77	Cu	-0.999997	-0.197232	-0.655292
Cu78	Cu	-1.000000	-0.197235	-0.541939
O79	O	-0.982900	-0.281044	-0.688450
O80	O	-0.407389	0.412481	-0.688416
O81	O	-0.491198	0.294473	-0.604613
O82	O	-0.491196	0.412483	-0.604606
O83	O	-0.407391	0.294471	-0.688423
O84	O	-0.395344	0.508336	-0.508752
O85	O	-0.395346	0.390327	-0.508759
O86	O	-0.311537	0.508334	-0.592562
Cu87	Cu	-0.344689	0.458083	-0.541908
Cu88	Cu	-0.458046	0.344725	-0.655267
O89	O	-0.311539	0.390325	-0.592569
C90	C	-0.206293	0.621362	0.310708
C91	C	-0.130273	0.692489	0.346272
C92	C	-0.241295	0.586848	0.345550
C93	C	-0.310654	0.517001	0.206345
C94	C	-0.346217	0.476543	0.130324
C95	C	-0.345497	0.482644	0.241345
C96	C	-0.310653	0.517001	0.310704
C97	C	-0.346216	0.476544	0.346265
C98	C	-0.241295	0.586847	0.241349
C99	C	-0.975095	0.517016	0.310724
C100	C	-0.979987	0.476558	0.346284
C101	C	-0.974606	0.586863	0.345572
C102	C	-0.975097	0.517015	0.206365
C103	C	-0.979993	0.476557	0.130344
C104	C	-0.974609	0.586863	0.241371
C105	C	-0.975095	0.621378	0.310731
C106	C	-0.979988	0.692505	0.346298
C107	C	-0.974609	0.482659	0.241365
C108	C	-0.310619	1.285875	0.310717
C109	C	-0.346178	1.326337	0.346281
C110	C	-0.241257	1.320238	0.345557
C111	C	-0.310630	1.181496	0.206359
C112	C	-0.346201	1.110356	0.130342
C113	C	-0.241268	1.216018	0.241357
C114	C	-0.206259	1.285876	0.310712
C115	C	-0.130237	1.326339	0.346269
C116	C	-0.345469	1.216017	0.241362
C117	C	-1.035804	0.108419	-0.445772
C118	C	-1.030911	0.037292	-0.481340
C119	C	-1.036293	0.142934	-0.480612
C120	C	-1.035802	0.212781	-0.341405
C121	C	-1.030906	0.253239	-0.265384
C122	C	-1.036290	0.247138	-0.376405
C123	C	-1.035804	0.212782	-0.445764
C124	C	-1.030911	0.253240	-0.481324
C125	C	-1.036290	0.142934	-0.376412
C126	C	-1.026957	0.285927	-0.510052
C127	C	-1.026956	-0.020171	-0.510074
C128	C	-1.026949	0.285925	-0.203966
C129	C	-1.021997	0.326934	-0.546093
C130	C	-1.021995	-0.092261	-0.546124
C131	C	-1.021986	0.326931	-0.126915
O132	O	-1.017109	0.390313	0.491241
O133	O	-0.982893	0.508338	0.407452
O134	O	-1.100907	0.390301	0.407411
O135	O	-0.899096	0.508350	0.491281
O136	O	-1.100872	0.294470	0.311568
O137	O	-0.982858	0.412507	0.311609
O138	O	-1.017074	0.294482	0.395398
Cu139	Cu	-0.999963	0.344744	0.344752
Cu140	Cu	-1.000005	0.458076	0.458097
O141	O	-0.899061	0.412519	0.395438
C142	C	-0.658585	0.589963	-0.445745
C143	C	-0.734606	0.549503	-0.481304
C144	C	-0.623588	0.555597	-0.480589
C145	C	-0.554215	0.694339	-0.341391
C146	C	-0.518644	0.765479	-0.265374
C147	C	-0.519378	0.659814	-0.376393
C148	C	-0.554229	0.589956	-0.445748
C149	C	-0.518672	0.549490	-0.481310
C150	C	-0.623575	0.659821	-0.376390
C151	C	-0.489946	0.516796	-0.510040
C152	C	-0.796023	0.516815	-0.510031
C153	C	-0.489907	0.822952	-0.203959
C154	C	-0.453908	0.475781	-0.546083
C155	C	-0.873074	0.475808	-0.546071
C156	C	-0.453854	0.895055	-0.126912
H157	H	-0.462355	0.688765	0.037116
F158	F	-0.419969	0.409153	0.204597
H159	H	-0.213198	0.376369	-0.026114
F160	F	-1.037306	0.105182	-0.339683
H161	H	-0.213191	0.615738	0.402538
H162	H	-0.402458	1.187130	0.213266
H163	H	-1.037074	0.303343	-0.348296
H164	H	-1.037080	0.114044	-0.537602
H165	H	-0.973827	0.426453	0.213262
F166	F	-0.973575	0.624623	0.420061
F167	F	-0.204565	0.178215	-0.026349
H168	H	-0.462390	0.688704	-0.348291
H169	H	-0.462357	0.303329	-0.348320
H170	H	-0.651697	0.499387	-0.537576
F171	F	-0.660282	0.105178	-0.555107
F172	F	-0.660271	0.482220	0.037362
F173	F	-0.204567	0.624608	0.204622
F174	F	-0.419984	0.178207	-0.026360
F175	F	-0.660301	0.697583	-0.339658
H176	H	-0.651636	0.688776	0.037130
F177	F	-0.660277	0.105163	-0.339699
H178	H	-0.973815	0.615753	0.213272
F179	F	-0.204540	1.178260	0.204623
H180	H	-0.213155	1.376447	0.402545
