data_functionalizedCrystal
_audit_creation_method	'MofGen! by Chris Wilmer'
_symmetry_space_group_name_H-M	'P1'
_symmetry_Int_Tables_number	1
_symmetry_cell_setting	triclinic
loop_
_symmetry_equiv_pos_as_xyz
  x,y,z
_cell_length_a	14.044191
_cell_length_b	15.186229
_cell_length_c	16.109301
_cell_angle_alpha	89.994833
_cell_angle_beta	88.326629
_cell_angle_gamma	89.999039
loop_
_atom_site_label
_atom_site_type_symbol
_atom_site_fract_x
_atom_site_fract_y
_atom_site_fract_z
O1	O	1.257645	-0.073191	0.200463
O2	O	1.757645	0.426809	0.700463
O3	O	0.981678	-0.073202	0.193224
O4	O	1.481678	0.426798	0.693224
O5	O	1.127242	-0.073187	0.076377
O6	O	1.627242	0.426813	0.576377
O7	O	1.112080	-0.073206	0.317311
O8	O	1.612080	0.426794	0.817311
O9	O	1.127233	0.073270	0.076375
O10	O	1.627233	0.573270	0.576375
O11	O	0.981668	0.073255	0.193222
O12	O	1.481668	0.573255	0.693222
O13	O	1.257635	0.073266	0.200461
O14	O	1.757635	0.573266	0.700461
Zn15	Zn	1.119650	0.096514	0.196841
Zn16	Zn	1.619650	0.596514	0.696841
Zn17	Zn	1.119663	-0.096450	0.196844
Zn18	Zn	1.619663	0.403550	0.696844
O19	O	1.112071	0.073251	0.317308
O20	O	1.612071	0.573251	0.817308
C21	C	0.946359	0.000025	0.190056
C22	C	1.446359	0.500025	0.690056
C23	C	0.841136	0.000021	0.180610
C24	C	1.341136	0.500021	0.680610
C25	C	0.590834	0.000026	0.230335
C26	C	1.090834	0.500026	0.730335
C27	C	0.648484	0.000030	0.163354
C28	C	1.148484	0.500030	0.663354
C29	C	0.755686	0.000025	0.172958
C30	C	1.255686	0.500025	0.672958
C31	C	0.483623	0.000031	0.220733
C32	C	0.983623	0.500031	0.720733
C33	C	1.126623	0.000042	0.045355
C34	C	1.626623	0.500042	0.545355
C35	C	1.124782	0.000043	-0.047077
C36	C	1.624782	0.500043	0.452923
C37	C	1.292954	0.000037	0.203629
C38	C	1.792954	0.500037	0.703629
C39	C	1.398177	0.000035	0.213075
C40	C	1.898177	0.500035	0.713075
N41	N	1.119648	0.228207	0.196839
N42	N	1.619648	0.728207	0.696839
N43	N	1.119672	-0.228143	0.196841
N44	N	1.619672	0.271857	0.696841
C45	C	1.184126	0.453936	0.145119
C46	C	1.684126	0.953936	0.645119
C47	C	1.184129	0.546126	0.145118
C48	C	1.684129	1.046126	0.645118
C49	C	1.055187	0.546122	0.248562
C50	C	1.555187	1.046122	0.748562
C51	C	1.055181	0.453934	0.248559
C52	C	1.555181	0.953934	0.748559
C53	C	1.119655	0.407843	0.196839
C54	C	1.619655	0.907843	0.696839
C55	C	1.119665	0.592221	0.196840
C56	C	1.619665	1.092221	0.696840
C57	C	1.119668	0.692177	0.196839
C58	C	1.619668	1.192177	0.696839
C59	C	1.119652	0.307881	0.196839
C60	C	1.619652	0.807881	0.696839
C61	C	1.206876	0.000032	-0.263240
C62	C	1.706876	0.500032	0.236760
C63	C	1.205138	0.000025	-0.350089
C64	C	1.705138	0.500025	0.149911
C65	C	1.032431	0.000021	-0.343068
C66	C	1.532431	0.500021	0.156932
C67	C	1.034169	0.000022	-0.256220
C68	C	1.534169	0.500022	0.243780
C69	C	1.121395	0.000032	-0.216308
C70	C	1.621395	0.500032	0.283692
C71	C	1.117918	0.000024	-0.390006
C72	C	1.617918	0.500024	0.109994
C73	C	1.116034	0.000016	-0.484173
C74	C	1.616034	0.500016	0.015827
C75	C	1.123280	0.000039	-0.122136
C76	C	1.623280	0.500039	0.377864
C77	C	1.112690	0.000020	0.348330
C78	C	1.612690	0.500020	0.848330
C79	C	1.114531	0.000013	0.440762
C80	C	1.614531	0.500013	0.940762
H81	H	1.236624	0.416411	0.103005
H82	H	1.736624	0.916411	0.603005
C83	C	0.606407	0.000032	0.076141
C84	C	1.106407	0.500032	0.576141
H85	H	0.656678	0.000038	0.035379
H86	H	1.156678	0.500038	0.535379
H87	H	0.568295	-0.051039	0.069624
H88	H	1.068295	0.448961	0.569624
H89	H	0.568299	0.051113	0.069616
H90	H	1.068299	0.551113	0.569616
C91	C	0.984280	0.596824	0.305457
C92	C	1.484280	1.096824	0.805457
H93	H	0.993523	0.658330	0.298060
H94	H	1.493523	1.158330	0.798060
H95	H	0.921023	0.581725	0.291708
H96	H	1.421023	1.081725	0.791708
H97	H	0.994563	0.581704	0.361715
H98	H	1.494563	1.081704	0.861715
C99	C	1.255045	0.596828	0.088228
C100	C	1.755045	1.096828	0.588228
H101	H	1.245811	0.658334	0.095628
H102	H	1.745811	1.158334	0.595628
H103	H	1.318299	0.581716	0.101979
H104	H	1.818299	1.081716	0.601979
H105	H	1.244763	0.581724	0.031969
H106	H	1.744763	1.081724	0.531969
C107	C	0.984261	0.403228	0.305455
C108	C	1.484261	0.903228	0.805455
H109	H	0.945873	0.443880	0.336267
H110	H	1.445873	0.943880	0.836267
H111	H	0.944816	0.367272	0.272600
H112	H	1.444816	0.867272	0.772600
H113	H	1.018351	0.367259	0.342611
H114	H	1.518351	0.867259	0.842611
H115	H	1.277900	0.000038	-0.230746
H116	H	1.777900	0.500038	0.269254
C117	C	1.299168	0.000030	-0.401711
C118	C	1.799168	0.500030	0.098289
H119	H	1.351361	0.000043	-0.365499
H120	H	1.851361	0.500043	0.134501
H121	H	1.302087	-0.051043	-0.435731
H122	H	1.802087	0.448957	0.064269
H123	H	1.302074	0.051109	-0.435740
H124	H	1.802074	0.551109	0.064260
H125	H	0.961415	0.000015	-0.375576
H126	H	1.461415	0.500015	0.124424
C127	C	0.940135	0.000025	-0.204592
C128	C	1.440135	0.500025	0.295408
H129	H	0.887938	0.000032	-0.240800
H130	H	1.387938	0.500032	0.259200
H131	H	0.937226	-0.051047	-0.170561
H132	H	1.437226	0.448953	0.329439
H133	H	0.937226	0.051105	-0.170573
H134	H	1.437226	0.551105	0.329427
H135	H	0.621988	0.000019	0.294886
H136	H	1.121988	0.500019	0.794886
