data_functionalizedCrystal
_audit_creation_method	'MofGen! by Chris Wilmer'
_symmetry_space_group_name_H-M	'P1'
_symmetry_Int_Tables_number	1
_symmetry_cell_setting	triclinic
loop_
_symmetry_equiv_pos_as_xyz
  x,y,z
_cell_length_a	13.339070
_cell_length_b	12.996460
_cell_length_c	14.519709
_cell_angle_alpha	89.992910
_cell_angle_beta	80.345281
_cell_angle_gamma	90.005393
loop_
_atom_site_label
_atom_site_type_symbol
_atom_site_fract_x
_atom_site_fract_y
_atom_site_fract_z
O1	O	1.343121	0.085613	-0.462554
O2	O	1.048484	0.085606	-0.401841
O3	O	1.203614	0.085600	-0.299946
O4	O	1.187990	0.085618	-0.564449
O5	O	1.203598	-0.085534	-0.299934
O6	O	1.048468	-0.085528	-0.401829
O7	O	1.343105	-0.085521	-0.462542
Cu8	Cu	1.195785	-0.101150	-0.432185
Cu9	Cu	1.195804	0.101235	-0.432199
O10	O	1.187974	-0.085515	-0.564437
C11	C	1.010768	0.000038	-0.391580
C12	C	0.898411	0.000035	-0.361010
N13	N	1.195779	-0.243498	-0.432176
C14	C	0.534048	0.000067	-0.598702
C15	C	0.639613	0.000073	-0.627426
C16	C	0.704317	0.000063	-0.560825
C17	C	0.663447	0.000048	-0.465494
C18	C	0.557872	0.000050	-0.436767
C19	C	0.728141	0.000046	-0.398889
C20	C	0.687271	0.000030	-0.303559
C21	C	0.581706	0.000032	-0.274836
C22	C	0.517002	0.000042	-0.341438
C23	C	0.833716	0.000044	-0.427617
C24	C	0.857541	0.000027	-0.265682
C25	C	0.751976	0.000020	-0.236957
C26	C	1.195802	-0.663312	-0.432199
C27	C	1.195793	-0.546507	-0.432195
C28	C	1.195791	-0.453408	-0.432188
C29	C	1.195780	-0.336596	-0.432183
C30	C	1.380820	0.000049	-0.472804
C31	C	1.493178	0.000059	-0.503373
C32	C	1.202878	0.000033	-0.265395
C33	C	1.200696	0.000032	-0.162459
N34	N	1.195818	0.243582	-0.432202
C35	C	1.188711	0.000054	-0.598988
C36	C	1.190892	0.000061	-0.701924
C37	C	1.192663	0.000059	0.214480
C38	C	1.194894	0.000051	0.109605
C39	C	1.196679	0.000045	0.026014
C40	C	1.198911	0.000039	-0.078868
H41	H	0.866982	0.000052	-0.505235
C42	C	0.684569	0.000092	-0.732279
H43	H	0.756708	0.000102	-0.739849
H44	H	0.662367	-0.059579	-0.760842
H45	H	0.662378	0.059785	-0.760834
H46	H	0.790272	0.000071	-0.584218
C47	C	0.400879	0.000035	-0.309843
H48	H	0.368202	0.000044	-0.363164
H49	H	0.381391	-0.059645	-0.273437
H50	H	0.381401	0.059719	-0.273449
C51	C	0.707011	0.000015	-0.132099
H52	H	0.634872	0.000025	-0.124535
H53	H	0.729196	-0.059665	-0.103531
H54	H	0.729212	0.059699	-0.103545
H55	H	0.481357	0.000084	-0.652918
C56	C	0.536746	0.000033	-0.169977
H57	H	0.464607	0.000047	-0.162408
H58	H	0.558930	-0.059645	-0.141406
H59	H	0.558953	0.059719	-0.141429
H60	H	0.910224	0.000023	-0.211449
