data_functionalizedCrystal
_audit_creation_method	'MofGen! by Chris Wilmer'
_symmetry_space_group_name_H-M	'P1'
_symmetry_Int_Tables_number	1
_symmetry_cell_setting	triclinic
loop_
_symmetry_equiv_pos_as_xyz
  x,y,z
_cell_length_a	16.625548
_cell_length_b	12.759399
_cell_length_c	12.759393
_cell_angle_alpha	90.031461
_cell_angle_beta	89.977740
_cell_angle_gamma	89.983816
loop_
_atom_site_label
_atom_site_type_symbol
_atom_site_fract_x
_atom_site_fract_y
_atom_site_fract_z
Zn1	Zn	1.232735	0.418180	-0.594067
Zn2	Zn	1.232652	0.593897	-0.418386
Zn3	Zn	1.097893	0.418236	-0.418397
Zn4	Zn	1.097885	0.593821	-0.594018
O5	O	1.165291	0.506033	-0.506217
O6	O	1.345556	0.441498	-0.570779
O7	O	1.214744	0.570651	-0.271366
O8	O	1.115818	0.271207	-0.441725
O9	O	1.345495	0.570596	-0.441707
O10	O	1.214886	0.271166	-0.570789
O11	O	1.115738	0.441593	-0.271374
O12	O	0.985059	0.441519	-0.441677
O13	O	1.115804	0.570466	-0.741046
O14	O	0.985053	0.570520	-0.570705
O15	O	1.214878	0.441423	-0.741082
O16	O	1.214736	0.740908	-0.441659
O17	O	1.115723	0.740852	-0.570695
C18	C	1.165242	0.779001	-0.506193
C19	C	1.165294	0.895777	-0.506218
C20	C	0.955800	0.506018	-0.506188
C21	C	0.866179	0.506037	-0.506200
C22	C	1.165350	0.505930	-0.780250
C23	C	1.165375	0.505886	-0.897027
C24	C	0.538004	0.506044	-0.506245
C25	C	0.629312	0.506039	-0.506229
C26	C	0.702088	0.506041	-0.506222
C27	C	0.793403	0.506035	-0.506207
C28	C	1.375600	0.506049	-0.506247
C29	C	1.465221	0.506056	-0.506260
C30	C	1.165363	0.232000	-0.506264
C31	C	1.165393	0.115223	-0.506284
C32	C	1.216909	0.950634	-0.439105
C33	C	1.216961	1.060358	-0.439141
C34	C	1.113776	1.060359	-0.573404
C35	C	1.113729	0.950637	-0.573373
C36	C	1.216983	0.438643	-1.061641
C37	C	1.216968	0.438684	-0.951917
C38	C	1.113800	0.573059	-0.951867
C39	C	1.113820	0.573023	-1.061590
C40	C	1.165279	0.506061	-0.233250
C41	C	1.165410	0.505809	-0.116474
H42	H	1.258898	0.905969	-0.384425
H43	H	1.258991	0.383912	-1.106324
N44	N	1.061015	0.894582	-0.641936
N45	N	1.089341	0.833272	-0.708898
H46	H	1.052117	0.793682	-0.757323
H47	H	1.258992	1.105017	-0.384492
N48	N	1.269645	0.370085	-0.895889
N49	N	1.321005	0.407074	-0.834667
H50	H	1.358211	0.358625	-0.795095
H51	H	1.071792	1.105040	-0.628078
N52	N	1.061134	0.641619	-1.117623
N53	N	1.061161	0.641573	-1.215588
H54	H	1.023955	0.690018	-1.255165
H55	H	1.071795	0.627781	-0.907168
