data_functionalizedCrystal
_audit_creation_method	'MofGen! by Chris Wilmer'
_symmetry_space_group_name_H-M	'P1'
_symmetry_Int_Tables_number	1
_symmetry_cell_setting	triclinic
loop_
_symmetry_equiv_pos_as_xyz
  x,y,z
_cell_length_a	14.519709
_cell_length_b	12.503572
_cell_length_c	14.519731
_cell_angle_alpha	93.524736
_cell_angle_beta	96.315500
_cell_angle_gamma	93.519209
loop_
_atom_site_label
_atom_site_type_symbol
_atom_site_fract_x
_atom_site_fract_y
_atom_site_fract_z
O1	O	1.229178	0.089193	-0.115571
O2	O	1.479178	0.339193	0.134429
O3	O	1.729178	0.589193	0.384429
O4	O	1.979178	0.839193	0.634429
O5	O	0.960704	0.089227	-0.129806
O6	O	1.210704	0.339227	0.120194
O7	O	1.460704	0.589227	0.370194
O8	O	1.710704	0.839227	0.620194
O9	O	1.102048	0.089187	0.011547
O10	O	1.352048	0.339187	0.261547
O11	O	1.602048	0.589187	0.511547
O12	O	1.852048	0.839187	0.761547
O13	O	1.087834	0.089233	-0.256924
O14	O	1.337834	0.339233	-0.006924
O15	O	1.587834	0.589233	0.243076
O16	O	1.837834	0.839233	0.493076
O17	O	1.091418	-0.089452	0.000899
O18	O	1.341418	0.160548	0.250899
O19	O	1.591418	0.410548	0.500899
O20	O	1.841418	0.660548	0.750899
O21	O	0.950074	-0.089412	-0.140454
O22	O	1.200074	0.160588	0.109546
O23	O	1.450074	0.410588	0.359546
O24	O	1.700074	0.660588	0.609546
O25	O	1.218548	-0.089446	-0.126219
O26	O	1.468548	0.160554	0.123781
O27	O	1.718548	0.410554	0.373781
O28	O	1.968548	0.660554	0.623781
Cu29	Cu	1.083341	-0.105740	-0.134309
Cu30	Cu	1.333341	0.144260	0.115691
Cu31	Cu	1.583341	0.394260	0.365691
Cu32	Cu	1.833341	0.644260	0.615691
Cu33	Cu	1.095912	0.105521	-0.121716
Cu34	Cu	1.345912	0.355521	0.128284
Cu35	Cu	1.595912	0.605521	0.378284
Cu36	Cu	1.845912	0.855521	0.628284
O37	O	1.077205	-0.089406	-0.267572
O38	O	1.327205	0.160594	-0.017572
O39	O	1.577205	0.410594	0.232428
O40	O	1.827205	0.660594	0.482428
C41	C	0.921030	-0.000088	-0.134466
C42	C	1.171030	0.249912	0.115534
C43	C	1.421030	0.499912	0.365534
C44	C	1.671030	0.749912	0.615534
C45	C	0.818649	-0.000076	-0.132477
C46	C	1.068649	0.249924	0.117523
C47	C	1.318649	0.499924	0.367523
C48	C	1.568649	0.749924	0.617523
N49	N	1.074506	-0.254330	-0.143165
N50	N	1.324506	-0.004330	0.106835
N51	N	1.574506	0.245670	0.356835
N52	N	1.824506	0.495670	0.606835
C53	C	0.443750	-0.000126	-0.125161
C54	C	0.693750	0.249874	0.124839
C55	C	0.943750	0.499874	0.374839
C56	C	1.193750	0.749874	0.624839
C57	C	0.548059	-0.000112	-0.127192
C58	C	0.798059	0.249888	0.122808
C59	C	1.048059	0.499888	0.372808
C60	C	1.298059	0.749888	0.622808
C61	C	0.631196	-0.000100	-0.128819
C62	C	0.881196	0.249900	0.121181
C63	C	1.131196	0.499900	0.371181
C64	C	1.381196	0.749900	0.621181
C65	C	0.735512	-0.000088	-0.130851
C66	C	0.985512	0.249912	0.119149
C67	C	1.235512	0.499912	0.369149
C68	C	1.485512	0.749912	0.619149
C69	C	1.061509	-0.473442	-0.156201
C70	C	1.311509	-0.223442	0.093799
C71	C	1.561509	0.026558	0.343799
C72	C	1.811509	0.276558	0.593799
C73	C	1.117748	-0.526784	-0.099819
C74	C	1.367748	-0.276784	0.150181
C75	C	1.617748	-0.026784	0.400181
C76	C	1.867748	0.223216	0.650181
C77	C	1.110516	-0.648706	-0.107073
C78	C	1.360516	-0.398706	0.142927
C79	C	1.610516	-0.148706	0.392927
C80	C	1.860516	0.101294	0.642927
C81	C	1.068739	-0.351509	-0.148949
C82	C	1.318739	-0.101509	0.101051
C83	C	1.568739	0.148491	0.351051
C84	C	1.818739	0.398491	0.601051
C85	C	1.258223	-0.000128	-0.121559
C86	C	1.508223	0.249872	0.128441
C87	C	1.758223	0.499872	0.378441
C88	C	2.008223	0.749872	0.628441
C89	C	1.360604	-0.000134	-0.123547
C90	C	1.610604	0.249866	0.126453
C91	C	1.860604	0.499866	0.376453
C92	C	2.110604	0.749866	0.626453
C93	C	1.096067	-0.000135	0.040582
C94	C	1.346067	0.249865	0.290582
C95	C	1.596067	0.499865	0.540582
C96	C	1.846067	0.749865	0.790582
C97	C	1.094070	-0.000145	0.142962
C98	C	1.344070	0.249855	0.392962
C99	C	1.594070	0.499855	0.642962
C100	C	1.844070	0.749855	0.892962
N101	N	1.104754	0.254111	-0.112852
N102	N	1.354754	0.504111	0.137148
N103	N	1.604754	0.754111	0.387148
N104	N	1.854754	1.004111	0.637148
C105	C	1.092448	-0.000150	0.226106
C106	C	1.342448	0.249850	0.476106
C107	C	1.592448	0.499850	0.726106
C108	C	1.842448	0.749850	0.976106
C109	C	1.090421	-0.000150	0.330415
C110	C	1.340421	0.249850	0.580415
C111	C	1.590421	0.499850	0.830415
C112	C	1.840421	0.749850	1.080415
C113	C	1.088813	-0.000151	0.413554
C114	C	1.338813	0.249849	0.663554
C115	C	1.588813	0.499849	0.913554
C116	C	1.838813	0.749849	1.163554
C117	C	1.086786	-0.000154	0.517869
C118	C	1.336786	0.249846	0.767869
C119	C	1.586786	0.499846	1.017869
C120	C	1.836786	0.749846	1.267869
C121	C	1.083185	-0.000104	0.703391
C122	C	1.333185	0.249896	0.953391
C123	C	1.583185	0.499896	1.203391
C124	C	1.833185	0.749896	1.453391
C125	C	1.085178	-0.000154	0.601008
C126	C	1.335178	0.249846	0.851008
C127	C	1.585178	0.499846	1.101008
C128	C	1.835178	0.749846	1.351008
H129	H	1.171327	-0.480887	-0.046102
H130	H	1.421327	-0.230887	0.203898
H131	H	1.671327	0.019113	0.453898
H132	H	1.921327	0.269113	0.703898
F133	F	0.991483	-0.533427	-0.226412
F134	F	1.241483	-0.283427	0.023588
F135	F	1.491483	-0.033427	0.273588
F136	F	1.741483	0.216573	0.523588
