data_functionalizedCrystal
_audit_creation_method	'MofGen! by Chris Wilmer'
_symmetry_space_group_name_H-M	'P1'
_symmetry_Int_Tables_number	1
_symmetry_cell_setting	triclinic
loop_
_symmetry_equiv_pos_as_xyz
  x,y,z
_cell_length_a	15.021413
_cell_length_b	15.944551
_cell_length_c	15.944551
_cell_angle_alpha	83.498738
_cell_angle_beta	89.998676
_cell_angle_gamma	90.002688
loop_
_atom_site_label
_atom_site_type_symbol
_atom_site_fract_x
_atom_site_fract_y
_atom_site_fract_z
O1	O	-0.073941	-1.114528	-0.108323
O2	O	-0.073964	-0.869979	-0.121679
O3	O	-0.073944	-0.998932	0.007274
O4	O	-0.073961	-0.985576	-0.237276
O5	O	0.074121	-0.998912	0.007260
O6	O	0.074101	-0.869959	-0.121693
O7	O	0.074123	-1.114509	-0.108337
Zn8	Zn	0.097620	-0.992231	-0.115017
Zn9	Zn	-0.097461	-0.992257	-0.114999
O10	O	0.074103	-0.985556	-0.237290
C11	C	0.000066	-0.838675	-0.121132
C12	C	0.000057	-0.745429	-0.119470
N13	N	0.230758	-0.992219	-0.115030
N14	N	-0.230598	-0.992275	-0.114980
C15	C	0.529764	-0.933085	-0.175123
C16	C	0.470408	-0.916089	-0.099454
C17	C	0.587795	-0.992256	-0.114995
C18	C	0.470409	-1.009195	-0.190679
C19	C	0.412371	-0.992236	-0.115016
C20	C	0.529746	-0.975222	-0.039288
C21	C	0.529751	-1.068361	-0.130562
C22	C	0.470423	-1.051396	-0.054838
C23	C	0.688852	-0.992265	-0.114984
C24	C	0.311315	-0.992227	-0.115018
C25	C	0.000089	-0.998367	0.038561
C26	C	0.000089	-0.996705	0.131807
C27	C	0.000092	-1.145813	-0.108885
C28	C	0.000094	-1.239059	-0.110547
C29	C	0.000081	-0.530572	-0.035565
C30	C	-0.072926	-0.469562	-0.074521
C31	C	0.000068	-0.574703	-0.116462
C32	C	0.073054	-0.469565	-0.074554
C33	C	0.000083	-0.409790	-0.113551
C34	C	-0.072998	-0.514921	-0.155440
C35	C	0.073047	-0.514930	-0.155462
C36	C	0.000023	-0.453937	-0.194476
C37	C	0.000059	-0.669705	-0.118137
C38	C	0.000085	-0.314789	-0.111883
C39	C	0.000069	-0.986120	-0.268577
C40	C	0.000063	-0.987782	-0.361823
C41	C	0.000069	-0.912801	0.346663
C42	C	0.073077	-0.951753	0.407674
C43	C	0.000082	-0.993698	0.302533
C44	C	-0.072903	-0.951792	0.407671
C45	C	0.000071	-0.990787	0.467445
C46	C	0.073150	-1.032673	0.362315
C47	C	-0.072895	-1.032700	0.362306
C48	C	0.000131	-1.071711	0.423298
C49	C	0.000089	-0.995372	0.207530
C50	C	0.000070	-0.989119	0.562446
H51	H	0.444335	-0.851721	-0.086294
H52	H	-0.134787	-0.534917	-0.189625
O53	O	-0.000145	-0.414276	-0.274611
C54	C	-0.076482	-0.362908	-0.286921
H55	H	-0.101615	-0.346550	-0.223298
H56	H	-0.058938	-0.302387	-0.328748
H57	H	-0.130619	-0.398247	-0.318673
H58	H	0.134773	-0.449470	-0.040328
O59	O	0.000301	-0.832682	0.306959
C60	C	0.077404	-0.790325	0.329950
H61	H	0.130940	-0.838536	0.351936
H62	H	0.102877	-0.747116	0.273162
H63	H	0.060743	-0.751072	0.383341
H64	H	0.555840	-1.132709	-0.143751
O65	O	0.439481	-1.111172	0.005764
C66	C	0.387807	-1.170404	-0.032097
H67	H	0.407889	-1.169640	-0.101128
H68	H	0.399406	-1.236125	0.002338
H69	H	0.314344	-1.153345	-0.028116
O70	O	0.439208	-1.026408	-0.266951
C71	C	0.387603	-1.100717	-0.256283
H72	H	0.362003	-1.111417	-0.188609
H73	H	0.328780	-1.094097	-0.301726
H74	H	0.430295	-1.156725	-0.269887
O75	O	0.146610	-0.910848	0.431753
C76	C	0.120399	-0.840806	0.472469
H77	H	0.050058	-0.851379	0.498367
H78	H	0.168149	-0.832967	0.526604
H79	H	0.121794	-0.781435	0.425362
H80	H	-0.134615	-1.066895	0.342181
H81	H	0.134767	-0.535053	-0.189655
H82	H	0.555701	-0.960811	0.024721
O83	O	-0.000157	-0.570282	0.044551
C84	C	-0.077263	-0.547295	0.086904
H85	H	-0.130794	-0.525302	0.038689
H86	H	-0.102742	-0.604086	0.130104
H87	H	-0.060603	-0.493910	0.126165
O88	O	0.561003	-0.873428	-0.235692
C89	C	0.654854	-0.874730	-0.235347
H90	H	0.679099	-0.939238	-0.206087
H91	H	0.680510	-0.862097	-0.302886
H92	H	0.680844	-0.823910	-0.196792
O93	O	-0.146579	-0.445724	-0.033639
C94	C	-0.197854	-0.517615	-0.005898
H95	H	-0.153473	-0.575980	-0.000067
H96	H	-0.228379	-0.509790	0.058213
H97	H	-0.253172	-0.525209	-0.053405
O98	O	0.146841	-1.073392	0.338319
C99	C	0.145964	-1.074452	0.250021
H100	H	0.102693	-1.020537	0.219829
H101	H	0.216746	-1.066500	0.224565
H102	H	0.117747	-1.137173	0.234270
H103	H	-0.134630	-0.917573	0.427754
O104	O	0.000341	-1.151900	0.462827
C105	C	0.077405	-1.194221	0.439688
H106	H	0.130955	-1.145991	0.417778
H107	H	0.102889	-1.237559	0.496376
H108	H	0.060687	-1.233333	0.386202
