data_functionalizedCrystal
_audit_creation_method	'MofGen! by Chris Wilmer'
_symmetry_space_group_name_H-M	'P1'
_symmetry_Int_Tables_number	1
_symmetry_cell_setting	triclinic
loop_
_symmetry_equiv_pos_as_xyz
  x,y,z
_cell_length_a	12.837943
_cell_length_b	15.944551
_cell_length_c	11.892095
_cell_angle_alpha	93.888509
_cell_angle_beta	85.689438
_cell_angle_gamma	89.163839
loop_
_atom_site_label
_atom_site_type_symbol
_atom_site_fract_x
_atom_site_fract_y
_atom_site_fract_z
O1	O	1.382096	0.213524	-0.093988
O2	O	1.080290	0.202737	-0.093995
O3	O	1.239434	0.086515	-0.093981
O4	O	1.222952	0.329745	-0.094002
O5	O	1.226164	0.096189	0.094025
O6	O	1.067021	0.212411	0.094012
O7	O	1.368826	0.223198	0.094018
Zn8	Zn	1.215817	0.219340	0.123865
Zn9	Zn	1.233299	0.206594	-0.123842
O10	O	1.209683	0.339419	0.094005
C11	C	1.035034	0.203930	0.000008
C12	C	0.919957	0.193062	0.000006
C13	C	0.679007	0.323714	0.000011
C14	C	0.570881	0.313507	0.000010
C15	C	0.595575	0.162440	0.000010
C16	C	0.703701	0.172648	0.000012
C17	C	0.745413	0.253287	0.000010
C18	C	0.853542	0.263494	0.000003
C19	C	0.878234	0.112428	0.000012
C20	C	0.770107	0.102221	0.000011
C21	C	1.232115	0.060004	0.000022
C22	C	1.230063	-0.033407	0.000023
C23	C	1.126515	-0.256548	0.000005
C24	C	1.168058	-0.308949	0.092705
C25	C	1.226352	-0.204430	0.000014
C26	C	1.181163	-0.318468	-0.092655
C27	C	1.222761	-0.369631	0.000001
C28	C	1.267917	-0.255596	0.092790
C29	C	1.281014	-0.265115	-0.092653
C30	C	1.322628	-0.317491	0.000069
C31	C	1.228418	-0.109262	0.000023
C32	C	1.220702	-0.464796	0.000000
C33	C	1.414082	0.222005	0.000013
C34	C	1.529160	0.232872	0.000008
C35	C	1.217002	0.365931	-0.000001
C36	C	1.219054	0.459340	-0.000009
N37	N	1.203893	0.228039	0.292918
N38	N	1.245231	0.197890	-0.292895
C39	C	1.328203	0.137313	0.529576
C40	C	1.319876	0.143400	0.647918
C41	C	1.178907	0.246295	0.647944
C42	C	1.187234	0.240208	0.529603
C43	C	1.261886	0.185716	0.470423
C44	C	1.270217	0.179634	0.352080
C45	C	1.129244	0.282524	0.352108
C46	C	1.120917	0.288611	0.470449
H47	H	0.516815	0.370856	0.000013
C48	C	1.057064	0.335034	0.288023
C49	C	0.953170	0.314716	0.316845
C50	C	0.886656	0.363080	0.257843
H51	H	1.072573	0.323654	0.209051
H52	H	1.066899	0.393010	0.307440
H53	H	0.943340	0.256754	0.297421
H54	H	0.937628	0.326100	0.395808
H55	H	0.896491	0.421056	0.277259
H56	H	0.902175	0.351696	0.178873
H57	H	0.816157	0.349307	0.277398
C58	C	1.097799	0.305315	0.712360
C59	C	1.029585	0.258949	0.780330
C60	C	0.954863	0.313290	0.839701
H61	H	1.059377	0.333299	0.660320
H62	H	1.131811	0.345641	0.758587
H63	H	0.995576	0.218639	0.734107
H64	H	1.067976	0.230968	0.832391
H65	H	0.988875	0.353615	0.885928
H66	H	0.916449	0.341271	0.787653
H67	H	0.908577	0.281840	0.885834
H68	H	0.736129	0.036567	0.000025
H69	H	1.331005	0.135266	0.303897
H70	H	1.328737	-0.245642	-0.171025
H71	H	0.932315	0.055081	0.000004
H72	H	0.561587	0.096792	0.000105
C73	C	1.409131	0.078025	0.465361
C74	C	1.390298	-0.004400	0.494112
C75	C	1.464821	-0.059035	0.434962
H76	H	1.476997	0.093606	0.484684
H77	H	1.404578	0.081285	0.386401
H78	H	1.394861	-0.007656	0.573054
H79	H	1.322446	-0.020006	0.474786
H80	H	1.460268	-0.055775	0.356003
H81	H	1.532682	-0.043446	0.454290
H82	H	1.452047	-0.114967	0.454454
H83	H	0.712969	0.389374	0.000008
H84	H	1.043639	-0.229864	0.000096
H85	H	0.887502	0.329155	0.000004
H86	H	1.120299	-0.328402	0.171073
H87	H	1.304571	-0.228194	0.171246
H88	H	1.405566	-0.344012	0.000124
C89	C	1.391709	0.090742	0.712204
C90	C	1.331706	0.038360	0.780137
C91	C	1.397843	-0.010170	0.839363
H92	H	1.431635	0.126712	0.758450
H93	H	1.437341	0.057370	0.660043
H94	H	1.286092	0.071730	0.832292
H95	H	1.291782	0.002374	0.733919
H96	H	1.443476	-0.043542	0.787202
H97	H	1.437766	0.025806	0.885603
H98	H	1.357142	-0.045722	0.885455
C99	C	1.132051	-0.355012	-0.197114
C100	C	1.029411	-0.324005	-0.196679
C101	C	0.984134	-0.357637	-0.292891
H102	H	1.131572	-0.414564	-0.196826
H103	H	1.171436	-0.339291	-0.262969
H104	H	0.990036	-0.339731	-0.130842
H105	H	1.029861	-0.264456	-0.196984
H106	H	1.023519	-0.341916	-0.358745
H107	H	0.983662	-0.417189	-0.292594
H108	H	0.914492	-0.336598	-0.292614
C109	C	1.039812	0.347641	0.534855
C110	C	0.971587	0.301288	0.602831
C111	C	0.896869	0.355641	0.662187
H112	H	1.001398	0.375622	0.482806
H113	H	1.073827	0.387967	0.581076
H114	H	0.937574	0.260977	0.556613
H115	H	1.009970	0.273309	0.654901
H116	H	0.930884	0.395968	0.708409
H117	H	0.858463	0.383620	0.610130
H118	H	0.850576	0.324201	0.708323
