data_functionalizedCrystal
_audit_creation_method	'MofGen! by Chris Wilmer'
_symmetry_space_group_name_H-M	'P1'
_symmetry_Int_Tables_number	1
_symmetry_cell_setting	triclinic
loop_
_symmetry_equiv_pos_as_xyz
  x,y,z
_cell_length_a	15.944551
_cell_length_b	10.723024
_cell_length_c	9.798715
_cell_angle_alpha	90.001978
_cell_angle_beta	89.992122
_cell_angle_gamma	96.016696
loop_
_atom_site_label
_atom_site_type_symbol
_atom_site_fract_x
_atom_site_fract_y
_atom_site_fract_z
O1	O	1.115445	-0.160932	-0.113620
O2	O	0.871009	-0.180773	-0.113593
O3	O	0.998865	0.010795	-0.113602
O4	O	0.987588	-0.352500	-0.113611
O5	O	0.998855	0.010795	0.113380
O6	O	0.870999	-0.180773	0.113389
O7	O	1.115435	-0.160931	0.113362
Zn8	Zn	0.993215	-0.170852	0.149414
Zn9	Zn	0.993228	-0.170853	-0.149645
O10	O	0.987579	-0.352500	0.113371
C11	C	0.839705	-0.179949	-0.000099
C12	C	0.746445	-0.177480	-0.000089
C13	C	0.998039	0.057284	-0.000113
C14	C	0.995584	0.195808	-0.000117
C15	C	1.146739	-0.161755	-0.000135
C16	C	1.239999	-0.164225	-0.000155
C17	C	1.455569	-0.288870	-0.000126
C18	C	1.516262	-0.230989	-0.112038
C19	C	1.410750	-0.168692	-0.000135
C20	C	1.516231	-0.230960	0.111749
C21	C	1.575688	-0.173016	-0.000110
C22	C	1.470215	-0.110778	-0.112139
C23	C	1.470177	-0.110766	0.111748
C24	C	1.530853	-0.052798	-0.000191
C25	C	1.315734	-0.166205	-0.000150
C26	C	1.670703	-0.175495	-0.000104
C27	C	0.988404	-0.398989	-0.000122
C28	C	0.990859	-0.537512	-0.000126
N29	N	0.993213	-0.170851	0.353513
C30	C	1.067126	0.271694	-0.000127
C31	C	1.064590	0.414865	-0.000132
N32	N	0.993237	-0.170844	-0.353745
C33	C	1.046896	-0.090065	0.421287
C34	C	1.046910	-0.090061	0.578449
H35	H	1.422834	-0.388624	-0.000240
C36	C	1.198105	0.256721	0.116530
C37	C	1.152353	0.216334	-0.000142
H38	H	1.250725	0.222553	0.116512
H39	H	1.167059	0.229330	0.195674
H40	H	1.207572	0.345673	0.116516
H41	H	1.142881	0.127382	-0.000122
H42	H	1.183406	0.243718	-0.079306
C43	C	1.505586	-0.423271	-0.239433
C44	C	1.543906	-0.299652	-0.239670
H45	H	1.522680	-0.465680	-0.318193
H46	H	1.446043	-0.422906	-0.240079
H47	H	1.522059	-0.465070	-0.159872
H48	H	1.527428	-0.257851	-0.319226
H49	H	1.603461	-0.300011	-0.239037
C50	C	1.094577	0.126013	0.622684
C51	C	1.108957	0.003318	0.657116
H52	H	1.132887	0.183661	0.671247
H53	H	1.038396	0.139347	0.646066
H54	H	1.102710	0.138244	0.527387
H55	H	1.100818	-0.008917	0.752413
H56	H	1.165152	-0.010022	0.633744
C57	C	0.839512	0.445899	-0.000107
C58	C	0.908171	0.374480	-0.000113
H59	H	0.788465	0.391558	-0.000091
H60	H	0.841752	0.497271	-0.079259
H61	H	0.841751	0.497290	0.079049
H62	H	0.905935	0.323096	-0.079275
H63	H	0.905930	0.323087	0.079047
H64	H	1.449940	-0.059994	-0.206861
H65	H	0.932457	0.236832	-0.000119
C66	C	1.191762	-0.016413	0.377043
C67	C	1.108952	0.003307	0.342599
H68	H	1.230078	0.041240	0.328483
H69	H	1.201493	-0.099648	0.353667
H70	H	1.199879	-0.004181	0.472341
H71	H	1.100833	-0.008934	0.247302
H72	H	1.099218	0.086562	0.365966
H73	H	0.947277	-0.240016	0.587982
H74	H	1.125835	0.480072	-0.000134
H75	H	1.536603	-0.281812	0.206361
C76	C	1.551628	0.144589	-0.117538
C77	C	1.574852	0.081978	-0.000264
H78	H	1.578797	0.227790	-0.117588
H79	H	1.492240	0.146871	-0.118283
H80	H	1.568110	0.101577	-0.196276
H81	H	1.558364	0.124986	0.078475
H82	H	1.634253	0.079703	0.000494
C83	C	1.465565	-0.105321	0.356565
C84	C	1.442590	-0.042207	0.239479
H85	H	1.448526	-0.063005	0.435427
H86	H	1.524997	-0.107046	0.357940
H87	H	1.438742	-0.188711	0.355744
H88	H	1.469418	0.041181	0.240295
H89	H	1.383147	-0.040467	0.238104
H90	H	0.947259	-0.240007	0.411841
