data_functionalizedCrystal
_audit_creation_method	'MofGen! by Chris Wilmer'
_symmetry_space_group_name_H-M	'P1'
_symmetry_Int_Tables_number	1
_symmetry_cell_setting	triclinic
loop_
_symmetry_equiv_pos_as_xyz
  x,y,z
_cell_length_a	14.519709
_cell_length_b	14.519710
_cell_length_c	13.596369
_cell_angle_alpha	90.004381
_cell_angle_beta	89.993066
_cell_angle_gamma	96.319855
loop_
_atom_site_label
_atom_site_type_symbol
_atom_site_fract_x
_atom_site_fract_y
_atom_site_fract_z
O1	O	-0.120893	1.223868	0.081772
O2	O	0.212441	1.557202	0.415105
O3	O	0.545774	1.890535	0.748439
O4	O	-0.135129	0.955392	0.081779
O5	O	0.198204	1.288725	0.415112
O6	O	0.531537	1.622058	0.748446
O7	O	0.006227	1.096748	0.081766
O8	O	0.339561	1.430082	0.415100
O9	O	0.672894	1.763415	0.748433
O10	O	-0.262249	1.082512	0.081785
O11	O	0.071084	1.415845	0.415118
O12	O	0.404417	1.749178	0.748451
O13	O	0.006235	1.096734	-0.081816
O14	O	0.339568	1.430067	0.251517
O15	O	0.672902	1.763401	0.584850
O16	O	-0.135122	0.955377	-0.081804
O17	O	0.198212	1.288711	0.251529
O18	O	0.531545	1.622044	0.584863
O19	O	-0.120885	1.223854	-0.081811
O20	O	0.212448	1.557188	0.251522
O21	O	0.545781	1.890521	0.584856
Zn22	Zn	-0.128002	1.089614	-0.107780
Zn23	Zn	0.205331	1.422947	0.225554
Zn24	Zn	0.538664	1.756280	0.558887
Zn25	Zn	-0.128012	1.089632	0.107748
Zn26	Zn	0.205321	1.422966	0.441081
Zn27	Zn	0.538654	1.756299	0.774415
O28	O	-0.262242	1.082498	-0.081798
O29	O	0.071091	1.415831	0.251535
O30	O	0.404425	1.749164	0.584868
C31	C	0.040591	1.096078	-0.000025
C32	C	0.373924	1.429411	0.333308
C33	C	0.707258	1.762744	0.666642
C34	C	0.142972	1.094090	-0.000026
C35	C	0.476306	1.427423	0.333308
C36	C	0.809639	1.760756	0.666641
C37	C	-0.121553	1.258221	-0.000018
C38	C	0.211781	1.591554	0.333315
C39	C	0.545114	1.924888	0.666649
C40	C	-0.123541	1.360602	-0.000014
C41	C	0.209793	1.693936	0.333319
C42	C	0.543126	2.027269	0.666653
C43	C	-0.134462	0.921025	-0.000012
C44	C	0.198871	1.254358	0.333322
C45	C	0.532205	1.587691	0.666655
C46	C	-0.132474	0.818643	-0.000009
C47	C	0.200859	1.151977	0.333324
C48	C	0.534193	1.485310	0.666657
C49	C	-0.296606	1.083168	-0.000005
C50	C	0.036728	1.416501	0.333329
C51	C	0.370061	1.749835	0.666662
C52	C	-0.398987	1.085156	0.000002
C53	C	-0.065653	1.418490	0.333336
C54	C	0.267680	1.751823	0.666669
C55	C	0.517868	1.086770	0.000000
C56	C	0.851201	1.420103	0.333333
C57	C	1.184535	1.753437	0.666667
C58	C	0.413560	1.088803	-0.000007
C59	C	0.746893	1.422136	0.333326
C60	C	1.080227	1.755469	0.666659
C61	C	0.330423	1.090430	-0.000014
C62	C	0.663757	1.423763	0.333320
C63	C	0.997090	1.757096	0.666653
C64	C	0.226109	1.092463	-0.000019
C65	C	0.559442	1.425796	0.333314
C66	C	0.892776	1.759129	0.666647
N67	N	-0.127995	1.089608	-0.254872
N68	N	0.205338	1.422941	0.078462
N69	N	0.538672	1.756274	0.411795
C70	C	-0.130860	1.735498	-0.000013
C71	C	0.202473	2.068832	0.333320
C72	C	0.535807	2.402165	0.666654
C73	C	-0.128828	1.631190	-0.000013
C74	C	0.204506	1.964524	0.333320
C75	C	0.537839	2.297857	0.666654
C76	C	-0.127201	1.548054	-0.000013
C77	C	0.206133	1.881387	0.333321
C78	C	0.539466	2.214720	0.666654
C79	C	-0.125168	1.443739	-0.000014
C80	C	0.208166	1.777072	0.333319
C81	C	0.541499	2.110406	0.666652
C82	C	-0.128013	1.089631	-0.656162
C83	C	0.205320	1.422964	-0.322829
C84	C	0.538653	1.756298	0.010504
C85	C	-0.128011	1.089622	-0.544511
C86	C	0.205322	1.422955	-0.211178
C87	C	0.538655	1.756288	0.122156
C88	C	-0.128005	1.089620	-0.455521
C89	C	0.205329	1.422953	-0.122187
C90	C	0.538662	1.756286	0.211146
C91	C	-0.128001	1.089610	-0.343862
C92	C	0.205332	1.422943	-0.010529
C93	C	0.538665	1.756276	0.322805
N94	N	-0.128012	1.089645	0.254840
N95	N	0.205321	1.422979	0.588173
N96	N	0.538654	1.756312	0.921506
