data_functionalizedCrystal
_audit_creation_method	'MofGen! by Chris Wilmer'
_symmetry_space_group_name_H-M	'P1'
_symmetry_Int_Tables_number	1
_symmetry_cell_setting	triclinic
loop_
_symmetry_equiv_pos_as_xyz
  x,y,z
_cell_length_a	16.959455
_cell_length_b	17.637651
_cell_length_c	16.959447
_cell_angle_alpha	78.752936
_cell_angle_beta	89.977004
_cell_angle_gamma	101.214853
loop_
_atom_site_label
_atom_site_type_symbol
_atom_site_fract_x
_atom_site_fract_y
_atom_site_fract_z
Zn1	Zn	1.144798	-0.314808	-0.383322
Zn2	Zn	1.117998	-0.447035	-0.224382
Zn3	Zn	1.012615	-0.314834	-0.251141
Zn4	Zn	0.985886	-0.446976	-0.356519
O5	O	1.065324	-0.380913	-0.303841
O6	O	1.251850	-0.332363	-0.362257
O7	O	1.103989	-0.429533	-0.117314
O8	O	1.052551	-0.204191	-0.291091
O9	O	1.232161	-0.429509	-0.245485
O10	O	1.149665	-0.204173	-0.388204
O11	O	1.026564	-0.332406	-0.136973
O12	O	0.898461	-0.332348	-0.265100
O13	O	1.006996	-0.429408	-0.470692
O14	O	0.878824	-0.429433	-0.342521
O15	O	1.123747	-0.332305	-0.490385
O16	O	1.078071	-0.557666	-0.219495
O17	O	0.981009	-0.557623	-0.316575
C18	C	0.859963	-0.380887	-0.303806
C19	C	0.772105	-0.380895	-0.303806
C20	C	0.390373	-0.431447	-0.243022
C21	C	0.410865	-0.330445	-0.364743
C22	C	0.493414	-0.330432	-0.364726
C23	C	0.524445	-0.380928	-0.303857
C24	C	0.472928	-0.431437	-0.243005
C25	C	0.544936	-0.279929	-0.425582
C26	C	0.627490	-0.279915	-0.425569
C27	C	0.658523	-0.330408	-0.364696
C28	C	0.607001	-0.380918	-0.303840
C29	C	0.638032	-0.431414	-0.242971
C30	C	0.586512	-0.481922	-0.182112
C31	C	0.503962	-0.481930	-0.182132
C32	C	0.741073	-0.330399	-0.364676
C33	C	0.720588	-0.431405	-0.242954
C34	C	1.023753	-0.586332	-0.262240
C35	C	1.006041	-0.674211	-0.244469
C36	C	1.200393	-0.962891	-0.439092
C37	C	1.183725	-1.045467	-0.422380
C38	C	1.082667	-1.045593	-0.321158
C39	C	1.099330	-0.963016	-0.337859
C40	C	1.158193	-0.921671	-0.396827
C41	C	1.057129	-0.921796	-0.295594
C42	C	1.073788	-0.839226	-0.312297
C43	C	1.132647	-0.797876	-0.371264
C44	C	1.174851	-0.839101	-0.413530
C45	C	0.998263	-0.963142	-0.236630
C46	C	0.956062	-0.921923	-0.194366
C47	C	0.972725	-0.839351	-0.211064
C48	C	1.031583	-0.798001	-0.270031
C49	C	0.930520	-0.798126	-0.168798
C50	C	0.947178	-0.715555	-0.185501
C51	C	1.048242	-0.715431	-0.286734
C52	C	1.271487	-0.380940	-0.303876
C53	C	1.359341	-0.380951	-0.303891
C54	C	1.065380	-0.380847	-0.510023
C55	C	1.065403	-0.380819	-0.597885
C56	C	1.107079	-0.174692	-0.345622
C57	C	1.124872	-0.086813	-0.363426
C58	C	1.025179	-0.330166	-0.979620
C59	C	1.105801	-0.431306	-0.959136
C60	C	1.105784	-0.431325	-0.876586
C61	C	1.065462	-0.380764	-0.845549
C62	C	1.025158	-0.330185	-0.897062
C63	C	1.146080	-0.481908	-0.825066
C64	C	1.146064	-0.481929	-0.742511
C65	C	1.105747	-0.431364	-0.711473
C66	C	1.065441	-0.380782	-0.762992
C67	C	1.025120	-0.330222	-0.731955
C68	C	0.984819	-0.279635	-0.783473
C69	C	0.984841	-0.279619	-0.866025
C70	C	1.105725	-0.431380	-0.628922
C71	C	1.025099	-0.330240	-0.649398
C72	C	1.065326	-0.380922	-0.098473
C73	C	1.065500	-0.380727	-0.010656
H74	H	0.611788	-0.523040	-0.132555
H75	H	0.882588	-0.831801	-0.120792
Cl76	Cl	0.974521	-0.266572	-1.044382
Cl77	Cl	0.894129	-0.663732	-0.132365
Cl78	Cl	0.371851	-0.266976	-0.441266
Cl79	Cl	1.274403	-0.910909	-0.513215
Cl80	Cl	1.236789	-1.097284	-0.475515
H81	H	1.034739	-1.079268	-0.273148
Cl82	Cl	0.934133	-0.216075	-0.744446
H83	H	0.992268	-0.289063	-0.624136
Cl84	Cl	0.977440	-1.066946	-0.215514
Cl85	Cl	1.196731	-0.545518	-0.677754
H86	H	1.222789	-0.805437	-0.461542
H87	H	1.146209	-0.730642	-0.384862
H88	H	0.783017	-0.289279	-0.414228
H89	H	0.462007	-0.523050	-0.132583
Cl90	Cl	1.156377	-0.494975	-0.564160
Cl91	Cl	0.759592	-0.494885	-0.166424
Cl92	Cl	0.934178	-0.216034	-0.930793
Cl93	Cl	0.325609	-0.494935	-0.166514
Cl94	Cl	1.156480	-0.494871	-0.998153
Cl95	Cl	1.196757	-0.545474	-0.864086
Cl96	Cl	0.505919	-0.216464	-0.502106
H97	H	0.669431	-0.238788	-0.475124
Cl98	Cl	0.882060	-0.973906	-0.120243
Cl99	Cl	1.122252	-0.663448	-0.360857
