data_functionalizedCrystal
_audit_creation_method	'MofGen! by Chris Wilmer'
_symmetry_space_group_name_H-M	'P1'
_symmetry_Int_Tables_number	1
_symmetry_cell_setting	triclinic
loop_
_symmetry_equiv_pos_as_xyz
  x,y,z
_cell_length_a	6.817900
_cell_length_b	17.284672
_cell_length_c	17.078481
_cell_angle_alpha	92.839858
_cell_angle_beta	99.306161
_cell_angle_gamma	103.040903
loop_
_atom_site_label
_atom_site_type_symbol
_atom_site_fract_x
_atom_site_fract_y
_atom_site_fract_z
V1	V	-3.974048	-0.108879	-0.240610
V2	V	-3.474048	0.391121	0.259390
O3	O	-3.968323	0.005421	-0.242989
O4	O	-3.468323	0.505421	0.257011
O5	O	-3.920387	-0.216071	-0.232272
O6	O	-3.420387	0.283929	0.267728
O7	O	-3.905184	-0.107121	-0.348602
O8	O	-3.405184	0.392879	0.151398
O9	O	-3.983632	-0.104283	-0.125853
O10	O	-3.483632	0.395717	0.374147
V11	V	-4.461009	-0.095217	-0.227697
V12	V	-3.961009	0.404783	0.272303
O13	O	-4.227764	-0.138847	-0.268936
O14	O	-3.727764	0.361153	0.231064
O15	O	-4.657490	-0.065249	-0.199372
O16	O	-4.157490	0.434751	0.300628
O17	O	-4.291464	0.011975	-0.236036
O18	O	-3.791464	0.511975	0.263964
O19	O	-4.584131	-0.209518	-0.225319
O20	O	-4.084131	0.290482	0.274681
O21	O	-4.568822	-0.099814	-0.342454
O22	O	-4.068822	0.400186	0.157546
O23	O	-4.306667	-0.096975	-0.119706
O24	O	-3.806667	0.403025	0.380294
C25	C	-3.764770	-0.242205	-0.226749
C26	C	-3.264770	0.257795	0.273251
C27	C	-3.802046	-0.329835	-0.220651
C28	C	-3.302046	0.170165	0.279349
C29	C	-3.845390	-0.382209	-0.289742
C30	C	-3.345390	0.117791	0.210258
C31	C	-3.880394	-0.464546	-0.284005
C32	C	-3.380394	0.035454	0.215995
C33	C	-3.872067	-0.494507	-0.209177
C34	C	-3.372067	0.005493	0.290823
C35	C	-3.828713	-0.442126	-0.140081
C36	C	-3.328713	0.057874	0.359919
C37	C	-3.793696	-0.359790	-0.145818
C38	C	-3.293696	0.140210	0.354182
C39	C	-3.974012	-0.739550	-0.184301
C40	C	-3.474012	-0.239550	0.315699
C41	C	-4.009040	-0.821892	-0.178568
C42	C	-3.509040	-0.321892	0.321432
C43	C	-4.060715	-0.844306	-0.322493
C44	C	-3.560715	-0.344306	0.177507
C45	C	-4.025706	-0.761969	-0.328224
C46	C	-3.525706	-0.261969	0.171776
C47	C	-3.982345	-0.709595	-0.259128
C48	C	-3.482345	-0.209595	0.240872
N49	N	-3.907853	-0.578668	-0.203311
N50	N	-3.407853	-0.078668	0.296689
N51	N	-3.946546	-0.625435	-0.264995
N52	N	-3.446546	-0.125435	0.235005
C53	C	-3.745376	-0.103227	-0.375139
C54	C	-3.245376	0.396773	0.124861
C55	C	-3.770321	-0.102499	-0.463379
C56	C	-3.270321	0.397501	0.036621
C57	C	-3.963179	-0.106092	-0.508632
C58	C	-3.463179	0.393908	-0.008632
C59	C	-3.986605	-0.105408	-0.591543
C60	C	-3.486605	0.394592	-0.091543
C61	C	-3.817174	-0.101136	-0.629199
C62	C	-3.317174	0.398864	-0.129199
C63	C	-3.624299	-0.097540	-0.583940
C64	C	-3.124299	0.402460	-0.083940
C65	C	-3.600873	-0.098219	-0.501030
C66	C	-3.100873	0.401781	-0.001030
C67	C	-3.867810	-0.098679	-0.876755
C68	C	-3.367810	0.401321	-0.376755
C69	C	-3.891253	-0.098003	-0.959671
C70	C	-3.391253	0.401997	-0.459671
C71	C	-4.253558	-0.105869	-0.967268
C72	C	-3.753558	0.394131	-0.467268
C73	C	-4.230117	-0.106552	-0.884357
C74	C	-3.730117	0.393448	-0.384357
C75	C	-4.037243	-0.102952	-0.839104
C76	C	-3.537243	0.397048	-0.339104
N77	N	-3.841116	-0.100439	-0.713947
N78	N	-3.341116	0.399561	-0.213947
N79	N	-4.013301	-0.103644	-0.754357
N80	N	-3.513301	0.396356	-0.254357
C81	C	-4.110423	0.038104	-0.241556
C82	C	-3.610423	0.538104	0.258444
C83	C	-4.052384	0.125734	-0.247659
C84	C	-3.552384	0.625734	0.252341
C85	C	-4.129817	-0.100872	-0.093164
C86	C	-3.629817	0.399128	0.406836
C87	C	-4.084111	-0.101596	-0.004924
C88	C	-3.584111	0.398404	0.495076
H89	H	-4.002249	-0.846282	-0.117631
H90	H	-3.502249	-0.346282	0.382369
H91	H	-3.710777	-0.095776	-0.839923
H92	H	-3.210777	0.404224	-0.339923
H93	H	-3.938725	-0.696917	-0.128038
H94	H	-3.438725	-0.196917	0.371962
F95	F	-3.710910	-0.093456	-0.999746
F96	F	-3.210910	0.406544	-0.499746
H97	H	-3.852201	-0.357823	-0.350676
H98	H	-3.352201	0.142177	0.149324
F99	F	-3.395605	-0.094389	-0.452868
F100	F	-2.895605	0.405611	0.047132
H101	H	-4.101156	-0.109576	-0.477979
H102	H	-3.601156	0.390424	0.022021
F103	F	-4.191874	-0.109240	-0.639702
F104	F	-3.691874	0.390760	-0.139702
F105	F	-3.443976	-0.092993	-0.624019
F106	F	-2.943976	0.407007	-0.124019
H107	H	-4.410589	-0.108798	-1.004121
H108	H	-3.910589	0.391202	-0.504121
H109	H	-3.915686	-0.507187	-0.340266
H110	H	-3.415686	-0.007187	0.159734
H111	H	-4.096018	-0.886958	-0.378747
H112	H	-3.596018	-0.386958	0.121253
F113	F	-4.034566	-0.730089	-0.407867
F114	F	-3.534566	-0.230089	0.092133
F115	F	-3.819841	-0.474014	-0.060442
F116	F	-3.319841	0.025986	0.439558
H117	H	-3.758393	-0.317147	-0.089557
H118	H	-3.258393	0.182853	0.410443
F119	F	-4.410454	-0.111101	-0.844286
F120	F	-3.910454	0.388899	-0.344286
