data_functionalizedCrystal
_audit_creation_method	'MofGen! by Chris Wilmer'
_symmetry_space_group_name_H-M	'P1'
_symmetry_Int_Tables_number	1
_symmetry_cell_setting	triclinic
loop_
_symmetry_equiv_pos_as_xyz
  x,y,z
_cell_length_a	16.120530
_cell_length_b	11.169416
_cell_length_c	11.169409
_cell_angle_alpha	89.969126
_cell_angle_beta	87.079404
_cell_angle_gamma	87.106171
loop_
_atom_site_label
_atom_site_type_symbol
_atom_site_fract_x
_atom_site_fract_y
_atom_site_fract_z
Zn1	Zn	1.274670	-0.570869	-0.771606
Zn2	Zn	1.608003	-0.237535	-0.438273
Zn3	Zn	1.941337	0.095798	-0.104939
Zn4	Zn	1.274593	-0.771604	-0.570923
Zn5	Zn	1.607926	-0.438270	-0.237589
Zn6	Zn	1.941260	-0.104937	0.095744
Zn7	Zn	1.135242	-0.560749	-0.560762
Zn8	Zn	1.468576	-0.227416	-0.227429
Zn9	Zn	1.801909	0.105918	0.105904
Zn10	Zn	1.135248	-0.761319	-0.761395
Zn11	Zn	1.468581	-0.427986	-0.428062
Zn12	Zn	1.801914	-0.094652	-0.094728
O13	O	1.204938	-0.666135	-0.666172
O14	O	1.538272	-0.332802	-0.332838
O15	O	1.871605	0.000532	0.000495
O16	O	1.391327	-0.606036	-0.753510
O17	O	1.724661	-0.272703	-0.420177
O18	O	2.057994	0.060630	-0.086844
O19	O	1.256074	-0.743702	-0.401622
O20	O	1.589407	-0.410369	-0.068289
O21	O	1.922740	-0.077036	0.265044
O22	O	1.153768	-0.394144	-0.588752
O23	O	1.487101	-0.060810	-0.255419
O24	O	1.820434	0.272523	0.077914
O25	O	1.391271	-0.753515	-0.606069
O26	O	1.724604	-0.420182	-0.272736
O27	O	2.057937	-0.086849	0.060598
O28	O	1.256205	-0.401579	-0.743658
O29	O	1.589538	-0.068246	-0.410325
O30	O	1.922871	0.265088	-0.076992
O31	O	1.153693	-0.588788	-0.394158
O32	O	1.487027	-0.255455	-0.060824
O33	O	1.820360	0.077878	0.272509
O34	O	1.018576	-0.578815	-0.578851
O35	O	1.351909	-0.245482	-0.245518
O36	O	1.685242	0.087851	0.087815
O37	O	1.153777	-0.735986	-0.930702
O38	O	1.487110	-0.402653	-0.597369
O39	O	1.820443	-0.069320	-0.264035
O40	O	1.018580	-0.726173	-0.726255
O41	O	1.351913	-0.392840	-0.392922
O42	O	1.685246	-0.059507	-0.059589
O43	O	1.256210	-0.596063	-0.938204
O44	O	1.589543	-0.262730	-0.604871
O45	O	1.922876	0.070603	-0.271537
O46	O	1.256079	-0.938187	-0.596168
O47	O	1.589412	-0.604854	-0.262835
O48	O	1.922745	-0.271520	0.070499
O49	O	1.153702	-0.930631	-0.736107
O50	O	1.487035	-0.597297	-0.402774
O51	O	1.820369	-0.263964	-0.069441
C52	C	1.204905	-0.977957	-0.666160
C53	C	1.538239	-0.644624	-0.332827
C54	C	1.871572	-0.311291	0.000507
C55	C	1.204967	-1.111362	-0.666201
C56	C	1.538301	-0.778029	-0.332867
C57	C	1.871634	-0.444695	0.000466
C58	C	0.988327	-0.650281	-0.650343
C59	C	1.321660	-0.316948	-0.317010
C60	C	1.654994	0.016386	0.016323
C61	C	0.895660	-0.643528	-0.643601
C62	C	1.228993	-0.310194	-0.310267
C63	C	1.562326	0.023139	0.023066
C64	C	0.725996	-0.631170	-0.631300
C65	C	1.059329	-0.297836	-0.297967
C66	C	1.392662	0.035497	0.035366
C67	C	0.684722	-0.701189	-0.701130
C68	C	1.018055	-0.367856	-0.367797
C69	C	1.351388	-0.034522	-0.034464
C70	C	0.590315	-0.694313	-0.694286
C71	C	0.923648	-0.360980	-0.360953
C72	C	1.256981	-0.027646	-0.027620
C73	C	0.820411	-0.638044	-0.638143
C74	C	1.153744	-0.304711	-0.304809
C75	C	1.487078	0.028623	0.028524
C76	C	1.422395	-0.682052	-0.682062
C77	C	1.755729	-0.348718	-0.348729
C78	C	2.089062	-0.015385	-0.015395
C79	C	1.515063	-0.688835	-0.688834
C80	C	1.848396	-0.355501	-0.355500
C81	C	2.181729	-0.022168	-0.022167
C82	C	1.205002	-0.666007	-0.979219
C83	C	1.538336	-0.332673	-0.645885
C84	C	1.871669	0.000660	-0.312552
C85	C	1.205030	-0.665952	-1.112621
C86	C	1.538363	-0.332618	-0.779288
C87	C	1.871696	0.000715	-0.445954
C88	C	1.204994	-0.353097	-0.666211
C89	C	1.538328	-0.019763	-0.332878
C90	C	1.871661	0.313570	0.000456
C91	C	1.205018	-0.219699	-0.666228
C92	C	1.538351	0.113635	-0.332895
C93	C	1.871685	0.446968	0.000439
C94	C	1.204923	-0.666180	-0.354346
C95	C	1.538256	-0.332847	-0.021012
C96	C	1.871589	0.000487	0.312321
C97	C	1.205057	-0.665909	-0.220956
C98	C	1.538390	-0.332575	0.112377
C99	C	1.871723	0.000758	0.445711
H100	H	0.720288	-0.766297	-0.766056
H101	H	1.053621	-0.432964	-0.432722
H102	H	1.386954	-0.099631	-0.099389
Cl103	Cl	0.671087	-0.530653	-0.531066
Cl104	Cl	1.004421	-0.197320	-0.197733
Cl105	Cl	1.337754	0.136014	0.135600
