data_functionalizedCrystal
_audit_creation_method	'MofGen! by Chris Wilmer'
_symmetry_space_group_name_H-M	'P1'
_symmetry_Int_Tables_number	1
_symmetry_cell_setting	triclinic
loop_
_symmetry_equiv_pos_as_xyz
  x,y,z
_cell_length_a	15.944551
_cell_length_b	15.944551
_cell_length_c	14.421503
_cell_angle_alpha	89.996660
_cell_angle_beta	89.996859
_cell_angle_gamma	96.501262
loop_
_atom_site_label
_atom_site_type_symbol
_atom_site_fract_x
_atom_site_fract_y
_atom_site_fract_z
O1	O	1.114529	-0.108320	-0.077017
O2	O	0.869980	-0.121677	-0.077040
O3	O	0.998933	0.007276	-0.077020
O4	O	0.985576	-0.237273	-0.077038
O5	O	0.998911	0.007257	0.077204
O6	O	0.869958	-0.121696	0.077183
O7	O	1.114508	-0.108340	0.077206
Cu8	Cu	0.992231	-0.115020	0.091277
Cu9	Cu	0.992256	-0.114997	-0.091110
O10	O	0.985555	-0.237293	0.077186
C11	C	0.838675	-0.121132	0.000069
C12	C	0.745429	-0.119470	0.000060
C13	C	0.998367	0.038561	0.000092
C14	C	0.996705	0.131807	0.000093
C15	C	0.530572	-0.035565	0.000084
C16	C	0.469563	-0.074518	-0.075959
C17	C	0.574703	-0.116462	0.000071
C18	C	0.469564	-0.074556	0.076093
C19	C	0.409790	-0.113551	0.000086
C20	C	0.514922	-0.155437	-0.076035
C21	C	0.514929	-0.155464	0.076086
C22	C	0.453937	-0.194476	0.000024
C23	C	0.669705	-0.118137	0.000062
C24	C	0.314789	-0.111883	0.000089
C25	C	1.145813	-0.108885	0.000096
C26	C	1.239059	-0.110547	0.000098
C27	C	0.986120	-0.268577	0.000072
C28	C	0.987782	-0.361823	0.000066
N29	N	0.992219	-0.115035	0.219558
C30	C	0.912801	0.346663	0.000072
C31	C	0.951753	0.407671	0.076117
C32	C	0.993698	0.302533	0.000085
C33	C	0.951793	0.407674	-0.075935
C34	C	0.990787	0.467445	0.000074
C35	C	1.032672	0.362312	0.076193
C36	C	1.032701	0.362308	-0.075927
C37	C	1.071711	0.423298	0.000136
C38	C	0.995372	0.207530	0.000092
C39	C	0.989119	0.562446	0.000073
N40	N	0.992275	-0.114975	-0.219392
C41	C	0.932581	-0.174636	0.469202
C42	C	1.008481	-0.190943	0.531011
C43	C	0.992240	-0.115015	0.408719
C44	C	0.916359	-0.098727	0.531005
C45	C	0.992253	-0.114997	0.591441
C46	C	1.068178	-0.131360	0.469167
C47	C	0.976007	-0.039111	0.469156
C48	C	1.051961	-0.055386	0.530936
C49	C	0.992231	-0.115027	0.303458
C50	C	0.992270	-0.114985	0.696700
H51	H	0.449461	-0.040294	-0.140243
H52	H	0.534918	-0.189620	-0.140394
H53	H	1.022224	-0.255126	0.558180
H54	H	1.138919	0.456457	0.000186
C55	C	0.409604	-0.284040	-0.000179
C56	C	0.358585	-0.296169	-0.079140
C57	C	0.317722	-0.378659	-0.079357
H58	H	0.450471	-0.323003	-0.000766
H59	H	0.375609	-0.292801	0.053823
H60	H	0.392577	-0.287416	-0.133127
H61	H	0.317702	-0.257226	-0.078569
H62	H	0.283728	-0.387420	-0.025355
H63	H	0.358596	-0.417615	-0.079942
H64	H	0.283096	-0.386897	-0.132926
C65	C	0.906027	0.434585	0.161718
C66	C	0.836517	0.475045	0.134516
C67	C	0.794376	0.499855	0.213341
H68	H	0.887198	0.386273	0.197829
H69	H	0.943423	0.472297	0.197524
H70	H	0.799128	0.437335	0.098725
H71	H	0.855322	0.523367	0.098416
H72	H	0.831772	0.537567	0.249147
H73	H	0.775553	0.451539	0.249447
H74	H	0.747213	0.527317	0.194896
C75	C	0.865396	-0.241839	0.432864
C76	C	0.865747	-0.240468	0.335790
C77	C	0.803867	-0.302356	0.302282
H78	H	0.876999	-0.295777	0.453945
H79	H	0.811571	-0.230801	0.454892
H80	H	0.919560	-0.251511	0.313771
H81	H	0.854134	-0.186544	0.314685
H82	H	0.750042	-0.291318	0.324310
H83	H	0.815475	-0.356290	0.323369
H84	H	0.804091	-0.301428	0.236414
C85	C	0.541746	-0.200916	0.161914
C86	C	0.519048	-0.158283	0.241325
C87	C	0.543751	-0.200114	0.320414
H88	H	0.514470	-0.257054	0.162588
H89	H	0.601185	-0.202059	0.161029
H90	H	0.459619	-0.157149	0.242210
H91	H	0.546321	-0.102147	0.240682
H92	H	0.603191	-0.201257	0.319529
H93	H	0.516473	-0.256251	0.321078
H94	H	0.528361	-0.171189	0.374303
C95	C	1.119233	0.011843	0.567044
C96	C	1.118055	0.011606	0.664121
C97	C	1.180006	0.073530	0.697417
H98	H	1.173130	0.000219	0.545854
H99	H	1.108148	0.065641	0.544978
H100	H	1.129146	-0.042179	0.686178
H101	H	1.064172	0.023241	0.685335
H102	H	1.168921	0.127328	0.675351
H103	H	1.233899	0.061900	0.676221
H104	H	1.179210	0.073383	0.763286
H105	H	0.845652	0.313356	0.000141
C106	C	1.078179	0.335482	0.161981
C107	C	1.079152	0.247790	0.161017
C108	C	1.121052	0.223040	0.240035
H109	H	1.134488	0.362327	0.162289
H110	H	1.049620	0.351322	0.215935
H111	H	1.107713	0.231957	0.107078
H112	H	1.022855	0.220924	0.160724
H113	H	1.092492	0.238881	0.293989
H114	H	1.177358	0.249890	0.240336
H115	H	1.121711	0.163538	0.239396
C116	C	0.957480	0.046402	0.432941
C117	C	0.877910	0.063117	0.464198
C118	C	0.860799	0.141877	0.430843
H119	H	0.999235	0.088953	0.454975
H120	H	0.958078	0.045934	0.367069
H121	H	0.877318	0.063592	0.530056
H122	H	0.836138	0.020587	0.442166
H123	H	0.861397	0.141409	0.364971
H124	H	0.902560	0.184421	0.452880
H125	H	0.806807	0.153225	0.452039
C126	C	1.078154	0.335495	-0.161756
C127	C	1.035523	0.358195	-0.241167
C128	C	1.077356	0.333495	-0.320256
H129	H	1.134293	0.362772	-0.162427
H130	H	1.079298	0.276055	-0.160873
H131	H	1.034388	0.417623	-0.242049
H132	H	0.979387	0.330921	-0.240526
H133	H	1.078500	0.274056	-0.319373
H134	H	1.133493	0.360774	-0.320917
H135	H	1.048432	0.348887	-0.374145
C136	C	0.442899	-0.028796	0.161782
C137	C	0.482090	0.054348	0.161427
C138	C	0.457558	0.096530	0.240348
H139	H	0.383368	-0.028426	0.161541
H140	H	0.459222	-0.056947	0.215804
H141	H	0.465762	0.082492	0.107418
H142	H	0.541620	0.054003	0.161681
H143	H	0.473880	0.068379	0.294371
H144	H	0.398027	0.096894	0.240100
H145	H	0.484151	0.152945	0.240122
H146	H	1.132368	-0.145205	0.442119
H147	H	0.852183	-0.084959	0.558170
H148	H	0.563905	0.031573	-0.000005
H149	H	0.917575	0.427758	-0.140230
