data_functionalizedCrystal
_audit_creation_method	'MofGen! by Chris Wilmer'
_symmetry_space_group_name_H-M	'P1'
_symmetry_Int_Tables_number	1
_symmetry_cell_setting	triclinic
loop_
_symmetry_equiv_pos_as_xyz
  x,y,z
_cell_length_a	12.837943
_cell_length_b	12.837942
_cell_length_c	11.295483
_cell_angle_alpha	85.469583
_cell_angle_beta	94.538773
_cell_angle_gamma	94.828940
loop_
_atom_site_label
_atom_site_type_symbol
_atom_site_fract_x
_atom_site_fract_y
_atom_site_fract_z
O1	O	-1.408689	-0.265788	-0.099003
O2	O	-1.105556	-0.252345	-0.099010
O3	O	-1.250401	-0.107500	-0.098999
O4	O	-1.263845	-0.410633	-0.099013
O5	O	-1.237676	-0.120201	0.099051
O6	O	-1.092832	-0.265045	0.099040
O7	O	-1.395965	-0.278489	0.099047
Cu8	Cu	-1.243237	-0.272927	0.117127
Cu9	Cu	-1.258285	-0.257907	-0.117090
O10	O	-1.251121	-0.423333	0.099037
C11	C	-1.060125	-0.254153	0.000014
C12	C	-0.943710	-0.240609	0.000012
C13	C	-1.239497	-0.074781	0.000025
C14	C	-1.225953	0.041634	0.000023
C15	C	-1.441396	-0.276680	0.000021
C16	C	-1.557812	-0.290224	0.000015
C17	C	-0.718835	-0.403439	0.000021
C18	C	-0.609453	-0.390717	0.000020
C19	C	-0.615561	-0.202446	0.000016
C20	C	-0.724943	-0.215167	0.000017
C21	C	-0.776576	-0.315667	0.000018
C22	C	-0.885961	-0.328387	0.000011
C23	C	-0.892066	-0.140117	0.000016
C24	C	-0.782684	-0.127396	0.000015
C25	C	-1.262024	-0.456052	0.000010
C26	C	-1.275569	-0.572467	0.000004
N27	N	-1.232661	-0.283491	0.281863
C28	C	-1.388784	0.266509	0.000002
C29	C	-1.376062	0.375892	-0.000000
C30	C	-1.187791	0.369784	0.000008
C31	C	-1.200512	0.260402	0.000010
C32	C	-1.301011	0.208768	0.000009
C33	C	-1.313731	0.099383	0.000020
C34	C	-1.125461	0.093278	0.000019
C35	C	-1.112740	0.202660	0.000017
N36	N	-1.268868	-0.247335	-0.281825
C37	C	-1.344996	-0.171231	0.531161
C38	C	-1.337012	-0.179223	0.655824
C39	C	-1.208702	-0.307459	0.655854
C40	C	-1.216687	-0.299467	0.531191
C41	C	-1.284837	-0.231353	0.468849
C42	C	-1.292826	-0.223367	0.344183
C43	C	-1.164512	-0.351597	0.344216
C44	C	-1.156528	-0.359589	0.468879
H45	H	-0.760876	-0.485269	0.000020
H46	H	-0.573495	-0.120630	0.000114
C47	C	-0.954887	0.237662	-0.101790
C48	C	-1.002276	0.259426	0.000016
H49	H	-0.886693	0.272712	-0.101790
H50	H	-0.949899	0.164263	-0.101775
H51	H	-0.995924	0.261270	-0.170850
H52	H	-0.961243	0.235810	0.069076
H53	H	-1.007259	0.332841	0.000011
C54	C	-0.747669	0.030476	0.101814
C55	C	-0.725923	-0.016930	0.000009
H56	H	-0.712624	0.098672	0.101808
H57	H	-0.821069	0.035460	0.101804
H58	H	-0.724046	-0.010547	0.170874
H59	H	-0.749554	0.024089	-0.069051
H60	H	-0.652508	-0.021908	0.000009
C61	C	-0.577111	-0.540743	-0.101797
C62	C	-0.545981	-0.487197	0.000014
H63	H	-0.537920	-0.600303	-0.101802
H64	H	-0.649636	-0.562698	-0.101785
H65	H	-0.564872	-0.495542	-0.170853
H66	H	-0.558228	-0.532395	0.069070
H67	H	-0.473440	-0.465243	0.000012
C68	C	-1.477517	0.508960	-0.101821
C69	C	-1.472545	0.439361	-0.000008
H70	H	-1.537089	0.548137	-0.101829
H71	H	-1.415855	0.555365	-0.101810
H72	H	-1.482998	0.470574	-0.170876
H73	H	-1.467057	0.477747	0.069047
H74	H	-1.534223	0.392950	-0.000009
H75	H	-1.115530	-0.400555	0.293468
H76	H	-1.470613	0.224468	0.000013
C77	C	-1.416832	-0.065581	0.000026
C78	C	-1.424197	0.042623	0.000017
H79	H	-1.485032	-0.100618	0.000029
H80	H	-1.384677	-0.080332	-0.069030
H81	H	-1.375805	-0.089177	0.069100
H82	H	-1.465217	0.066220	-0.069061
H83	H	-1.456367	0.057381	0.069080
H84	H	-1.105969	0.411844	-0.000004
H85	H	-1.385998	-0.130265	0.706555
H86	H	-0.939091	-0.068646	0.000006
H87	H	-1.053990	0.046252	0.000034
C88	C	-1.418841	-0.097405	0.356679
C89	C	-1.367730	-0.148492	0.275653
H90	H	-1.465077	-0.051173	0.314371
H91	H	-1.457689	-0.147834	0.405289
H92	H	-1.368416	-0.058546	0.405317
H93	H	-1.418155	-0.187358	0.227021
H94	H	-1.328880	-0.098056	0.227023
C95	C	-1.031081	-0.353367	0.694297
C96	C	-1.133784	-0.382308	0.724405
H97	H	-0.984828	-0.399570	0.736627
H98	H	-1.027230	-0.357234	0.611148
H99	H	-1.011528	-0.283672	0.714718
H100	H	-1.153340	-0.452001	0.703975
H101	H	-1.137639	-0.378452	0.807573
H102	H	-1.400494	-0.115777	0.480401
H103	H	-1.101038	-0.415044	0.519653
H104	H	-0.928000	-0.410219	0.000014
