data_functionalizedCrystal
_audit_creation_method	'MofGen! by Chris Wilmer'
_symmetry_space_group_name_H-M	'P1'
_symmetry_Int_Tables_number	1
_symmetry_cell_setting	triclinic
loop_
_symmetry_equiv_pos_as_xyz
  x,y,z
_cell_length_a	11.026660
_cell_length_b	10.654551
_cell_length_c	9.482900
_cell_angle_alpha	99.428019
_cell_angle_beta	78.636107
_cell_angle_gamma	96.535098
loop_
_atom_site_label
_atom_site_type_symbol
_atom_site_fract_x
_atom_site_fract_y
_atom_site_fract_z
O1	O	1.633371	0.511447	-0.120880
O2	O	1.279563	0.451455	-0.120883
O3	O	1.464601	0.300477	-0.120883
O4	O	1.448333	0.662425	-0.120881
O5	O	1.427017	0.331302	0.120910
O6	O	1.241979	0.482279	0.120909
O7	O	1.595787	0.542272	0.120912
Cu8	Cu	1.415451	0.515090	0.142988
Cu9	Cu	1.459899	0.478636	-0.142959
O10	O	1.410749	0.693249	0.120911
C11	C	1.215467	0.455799	0.000012
C12	C	1.080476	0.422806	0.000011
C13	C	0.867917	0.479818	0.000006
C14	C	1.007437	0.513921	0.000009
C15	C	1.444615	0.268832	0.000010
C16	C	1.441042	0.128612	0.000000
C17	C	1.459852	0.045934	-0.131798
C18	C	1.456482	-0.085817	-0.131791
C19	C	1.415495	-0.052199	0.131824
C20	C	1.418857	0.079549	0.131816
C21	C	1.482037	0.094996	-0.263613
C22	C	1.500850	0.012317	-0.395422
C23	C	1.497480	-0.119434	-0.395416
C24	C	1.475296	-0.168506	-0.263600
C25	C	1.659883	0.537927	0.000013
C26	C	1.794876	0.570919	0.000005
C27	C	1.430736	0.724894	0.000015
C28	C	1.434310	0.865113	0.000015
N29	N	1.384198	0.540731	0.344108
N30	N	1.491162	0.452988	-0.344079
C31	C	1.450672	0.486191	0.416308
C32	C	1.424678	0.507536	0.583725
H33	H	0.827157	0.376578	0.000027
Br34	Br	1.618390	0.349175	0.552390
Br35	Br	1.075345	0.686013	0.000029
Br36	Br	1.486623	0.273800	-0.263630
H37	H	1.526823	0.423689	0.354180
H38	H	1.518899	0.052279	-0.502742
H39	H	1.512785	-0.186750	-0.502741
H40	H	1.039741	0.319544	-0.000087
H41	H	1.472536	-0.275789	-0.263605
Br42	Br	0.862790	0.743005	0.000025
H43	H	1.348513	0.570030	0.645849
Br44	Br	1.385391	-0.118796	0.310705
H45	H	1.403514	0.146866	0.239138
Br46	Br	1.257253	0.644886	0.447648
