data_functionalizedCrystal
_audit_creation_method	'MofGen! by Chris Wilmer'
_symmetry_space_group_name_H-M	'P1'
_symmetry_Int_Tables_number	1
_symmetry_cell_setting	triclinic
loop_
_symmetry_equiv_pos_as_xyz
  x,y,z
_cell_length_a	13.339071
_cell_length_b	14.044190
_cell_length_c	11.804365
_cell_angle_alpha	102.923601
_cell_angle_beta	74.875833
_cell_angle_gamma	104.410527
loop_
_atom_site_label
_atom_site_type_symbol
_atom_site_fract_x
_atom_site_fract_y
_atom_site_fract_z
O1	O	1.405399	0.472645	-0.099104
O2	O	1.105103	0.408757	-0.099094
O3	O	1.250735	0.301533	-0.099076
O4	O	1.259767	0.579869	-0.099123
O5	O	1.212393	0.329721	0.098975
O6	O	1.066760	0.436945	0.098957
O7	O	1.367056	0.500833	0.098947
Cu8	Cu	1.213407	0.471463	0.117035
Cu9	Cu	1.258752	0.438127	-0.117183
O10	O	1.221424	0.608057	0.098928
C11	C	1.047268	0.412059	-0.000067
C12	C	0.932062	0.379891	-0.000062
C13	C	0.882304	0.279577	-0.000041
C14	C	0.774063	0.249350	-0.000042
C15	C	0.715567	0.319434	-0.000055
C16	C	0.765323	0.419751	-0.000068
C17	C	0.873576	0.449980	-0.000076
C18	C	0.706839	0.489837	-0.000090
C19	C	0.756594	0.590154	-0.000103
C20	C	0.864837	0.620379	-0.000110
C21	C	0.923333	0.550294	-0.000097
C22	C	0.598585	0.459608	-0.000082
C23	C	0.589857	0.630012	-0.000117
C24	C	0.698098	0.660239	-0.000116
C25	C	1.227616	0.279275	-0.000047
C26	C	1.215841	0.170954	-0.000036
C27	C	1.277826	-0.063039	-0.000084
C28	C	1.194340	-0.027365	-0.000073
C29	C	1.206306	0.082990	-0.000052
C30	C	1.265862	-0.173404	-0.000105
C31	C	1.424892	0.497531	-0.000083
C32	C	1.540100	0.529698	-0.000096
C33	C	1.244544	0.630315	-0.000104
C34	C	1.256321	0.738634	-0.000122
N35	N	1.181522	0.494911	0.281772
N36	N	1.290645	0.414673	-0.281919
C37	C	1.367213	0.358347	0.655744
C38	C	1.391333	0.340604	0.531086
C39	C	1.338882	0.379179	0.468751
C40	C	1.262307	0.435501	0.531087
C41	C	1.238191	0.453252	0.655758
C42	C	1.209860	0.474084	0.468765
C43	C	1.133285	0.530406	0.531101
C44	C	1.109172	0.548153	0.655760
C45	C	1.161623	0.509578	0.718094
C46	C	1.233976	0.456333	0.344094
C47	C	1.104954	0.551238	0.344108
C48	C	1.080834	0.568981	0.468767
H49	H	1.011471	0.574902	-0.000091
H50	H	1.113879	-0.079702	-0.000078
H51	H	1.358280	-0.010705	-0.000075
H52	H	1.296323	0.410476	0.293351
H53	H	1.358524	0.364730	0.367248
H54	H	1.453680	0.294749	0.480336
H55	H	1.409918	0.326951	0.706505
H56	H	1.141982	0.524021	0.819602
H57	H	1.046829	0.594023	0.706514
H58	H	1.018485	0.614839	0.519537
H59	H	1.062245	0.582651	0.293356
H60	H	0.738625	0.741919	-0.000127
H61	H	0.558085	0.377930	-0.000072
H62	H	0.627433	0.294817	-0.000055
H63	H	0.733561	0.167672	-0.000033
H64	H	0.905348	0.702061	-0.000139
H65	H	0.929943	0.222524	-0.000039
H66	H	0.542230	0.687080	-0.000128
