data_functionalizedCrystal
_audit_creation_method	'MofGen! by Chris Wilmer'
_symmetry_space_group_name_H-M	'P1'
_symmetry_Int_Tables_number	1
_symmetry_cell_setting	triclinic
loop_
_symmetry_equiv_pos_as_xyz
  x,y,z
_cell_length_a	19.076808
_cell_length_b	12.594517
_cell_length_c	19.076919
_cell_angle_alpha	87.709341
_cell_angle_beta	90.121640
_cell_angle_gamma	92.319696
loop_
_atom_site_label
_atom_site_type_symbol
_atom_site_fract_x
_atom_site_fract_y
_atom_site_fract_z
Zn1	Zn	-0.295811	1.585738	0.385879
Zn2	Zn	0.204189	2.085738	0.885879
Zn3	Zn	-0.408606	1.586186	0.263648
Zn4	Zn	0.091394	2.086186	0.763648
Zn5	Zn	-0.291103	1.415178	0.268406
Zn6	Zn	0.208897	1.915178	0.768406
Zn7	Zn	-0.413279	1.400846	0.381136
Zn8	Zn	0.086721	1.900846	0.881136
O9	O	-0.352200	1.496987	0.324767
O10	O	0.147800	1.996987	0.824767
O11	O	-0.310788	1.734743	0.369658
O12	O	0.189212	2.234743	0.869658
O13	O	-0.389092	1.569687	0.165947
O14	O	0.110908	2.069687	0.665947
O15	O	-0.193391	1.443613	0.287965
O16	O	0.306609	1.943613	0.787965
O17	O	-0.393657	1.735072	0.279856
O18	O	0.106343	2.235072	0.779856
O19	O	-0.196850	1.568923	0.374272
O20	O	0.303150	2.068923	0.874272
O21	O	-0.302763	1.444048	0.169443
O22	O	0.197237	1.944048	0.669443
O23	O	-0.307295	1.264332	0.283366
O24	O	0.192705	1.764332	0.783366
O25	O	-0.401623	1.419187	0.480097
O26	O	0.098377	1.919187	0.980097
O27	O	-0.397058	1.253802	0.366188
O28	O	0.102942	1.753802	0.866188
O29	O	-0.315320	1.555026	0.483581
O30	O	0.184680	2.055026	0.983581
O31	O	-0.507562	1.555790	0.275257
O32	O	-0.007562	2.055790	0.775257
O33	O	-0.510996	1.419622	0.361575
O34	O	-0.010996	1.919622	0.861575
C35	C	-0.352173	1.220447	0.324779
C36	C	0.147827	1.720447	0.824779
C37	C	-0.352180	1.102140	0.324800
C38	C	0.147820	1.602140	0.824800
C39	C	-0.401090	1.027191	0.369752
C40	C	0.098910	1.527191	0.869752
C41	C	-0.337714	0.959040	0.389615
C42	C	0.162286	1.459040	0.889615
C43	C	-0.415608	0.959490	0.304919
C44	C	0.084392	1.459490	0.804919
C45	C	-0.288771	1.035547	0.344698
C46	C	0.211229	1.535547	0.844698
C47	C	-0.366707	1.036002	0.259970
C48	C	0.133293	1.536002	0.759970
C49	C	-0.303286	0.967887	0.279810
C50	C	0.196714	1.467887	0.779810
C51	C	-0.534777	1.486228	0.317400
C52	C	-0.034777	1.986228	0.817400
C53	C	-0.612885	1.481721	0.314272
C54	C	-0.112885	1.981721	0.814272
C55	C	-0.651323	1.544792	0.357774
C56	C	-0.151323	2.044792	0.857774
C57	C	-0.724714	1.540553	0.354836
C58	C	-0.224714	2.040553	0.854836
C59	C	-0.759666	1.473247	0.308392
C60	C	-0.259666	1.973247	0.808392
C61	C	-0.721223	1.410168	0.264888
C62	C	-0.221223	1.910168	0.764888
C63	C	-0.647834	1.414403	0.267830
C64	C	-0.147834	1.914403	0.767830
C65	C	-0.978971	1.453588	0.294774
C66	C	-0.478971	1.953588	0.794774
C67	C	-1.052365	1.449360	0.291834
C68	C	-0.552365	1.949360	0.791834
C69	C	-1.055851	1.579743	0.381783
C70	C	-0.555851	2.079743	0.881783
C71	C	-0.982459	1.583976	0.384718
C72	C	-0.482459	2.083976	0.884718
C73	C	-0.944023	1.520894	0.341217
C74	C	-0.444023	2.020894	0.841217
N75	N	-0.834683	1.468914	0.305387
N76	N	-0.334683	1.968914	0.805387
N77	N	-0.869007	1.525222	0.344227
N78	N	-0.369007	2.025222	0.844227
C79	C	-0.168910	1.507817	0.332178
C80	C	0.331090	2.007817	0.832178
C81	C	-0.090803	1.512432	0.335336
C82	C	0.409197	2.012432	0.835336
C83	C	-0.359518	1.485458	0.508048
C84	C	0.140482	1.985458	1.008048
C85	C	-0.362637	1.480545	0.586152
C86	C	0.137363	1.980545	1.086152
C87	C	-0.352226	1.774607	0.324756
C88	C	0.147774	2.274607	0.824756
C89	C	-0.352238	1.892912	0.324751
C90	C	0.147762	2.392912	0.824751
C91	C	-0.344859	1.508535	0.142201
C92	C	0.155141	2.008535	0.642201
C93	C	-0.341542	1.513666	0.064106
C94	C	0.158458	2.013666	0.564106
C95	C	-0.319170	1.548957	0.624660
C96	C	0.180830	2.048957	1.124660
C97	C	-0.322098	1.544328	0.698047
C98	C	0.177902	2.044328	1.198047
C99	C	-0.368496	1.471291	0.732924
C100	C	0.131504	1.971291	1.232924
C101	C	-0.411964	1.402872	0.694410
C102	C	0.088036	1.902872	1.194410
C103	C	-0.409033	1.407496	0.621025
C104	C	0.090967	1.907496	1.121025
C105	C	-0.382079	1.449871	0.952207
C106	C	0.117921	1.949871	1.452207
C107	C	-0.385009	1.445254	1.025597
C108	C	0.114991	1.945254	1.525597
C109	C	-0.295141	1.586710	1.029229
C110	C	0.204859	2.086710	1.529229
C111	C	-0.292216	1.591332	0.955843
C112	C	0.207784	2.091332	1.455843
C113	C	-0.335682	1.522909	0.917335
C114	C	0.164318	2.022909	1.417335
N115	N	-0.371491	1.466560	0.807936
N116	N	0.128509	1.966560	1.307936
N117	N	-0.332683	1.527636	0.842324
N118	N	0.167317	2.027636	1.342324
H119	H	-0.756006	1.591921	0.390255
H120	H	-0.256006	2.091921	0.890255
H121	H	-0.449740	1.343400	0.722812
H122	H	0.050260	1.843400	1.222812
H123	H	-0.235142	1.068736	0.361553
H124	H	0.264858	1.568736	0.861553
H125	H	-0.616539	1.363042	0.232407
H126	H	-0.116539	1.863042	0.732407
H127	H	-1.080821	1.394547	0.254013
H128	H	-0.580821	1.894547	0.754013
H129	H	-0.325447	0.925336	0.444420
H130	H	0.174553	1.425336	0.944420
H131	H	-0.444421	1.351777	0.589672
H132	H	0.055579	1.851777	1.089672
O133	O	-0.455785	1.061929	0.420174
O134	O	0.044215	1.561929	0.920174
H135	H	-0.494734	1.109819	0.391066
H136	H	0.005266	1.609819	0.891066
H137	H	-0.254436	1.650810	0.927451
H138	H	0.245564	2.150810	1.427451
O139	O	-0.486627	0.915349	0.282671
O140	O	0.013373	1.415349	0.782671
H141	H	-0.480874	0.870168	0.234379
H142	H	0.019126	1.370168	0.734379
O143	O	-0.435044	1.366459	1.063218
O144	O	0.064956	1.866459	1.563218
H145	H	-0.472144	1.409870	1.095203
H146	H	0.027856	1.909870	1.595203
H147	H	-0.947682	1.402225	0.259352
H148	H	-0.447682	1.902225	0.759352
H149	H	-0.261903	0.941860	0.241777
H150	H	0.238097	1.441860	0.741777
O151	O	-0.613624	1.617396	0.407862
O152	O	-0.113624	2.117396	0.907862
H153	H	-0.652685	1.660537	0.437620
H154	H	-0.152685	2.160537	0.937620
H155	H	-0.749687	1.355362	0.227075
H156	H	-0.249687	1.855362	0.727075
H157	H	-0.281390	1.608435	0.596269
H158	H	0.218610	2.108435	1.096269
H159	H	-0.286705	1.600039	0.729397
H160	H	0.213295	2.100039	1.229397
H161	H	-0.954003	1.638782	0.422537
H162	H	-0.454003	2.138782	0.922537
O163	O	-0.428921	1.376024	0.910679
O164	O	0.071079	1.876024	1.410679
H165	H	-0.461667	1.324450	0.947263
H166	H	0.038333	1.824450	1.447263
O167	O	-1.097305	1.647774	0.428705
O168	O	-0.597305	2.147774	0.928705
H169	H	-1.085403	1.626797	0.484408
H170	H	-0.585403	2.126797	0.984408
O171	O	-0.248241	1.660477	1.070761
O172	O	0.251759	2.160477	1.570761
H173	H	-0.258062	1.644981	1.127650
H174	H	0.241938	2.144981	1.627650
H175	H	-0.378994	1.069728	0.205181
H176	H	0.121006	1.569728	0.705181
