data_functionalizedCrystal
_audit_creation_method	'MofGen! by Chris Wilmer'
_symmetry_space_group_name_H-M	'P1'
_symmetry_Int_Tables_number	1
_symmetry_cell_setting	triclinic
loop_
_symmetry_equiv_pos_as_xyz
  x,y,z
_cell_length_a	13.032721
_cell_length_b	13.033293
_cell_length_c	13.033109
_cell_angle_alpha	74.800007
_cell_angle_beta	105.143326
_cell_angle_gamma	105.184121
loop_
_atom_site_label
_atom_site_type_symbol
_atom_site_fract_x
_atom_site_fract_y
_atom_site_fract_z
Zn1	Zn	-0.311713	1.665132	-0.842278
Zn2	Zn	-0.471371	1.624457	-0.682627
Zn3	Zn	-0.311733	1.464934	-0.642082
Zn4	Zn	-0.511805	1.464897	-0.842154
O5	O	-0.401656	1.554855	-0.752285
O6	O	-0.315962	1.810297	-0.838120
O7	O	-0.433282	1.586289	-0.526704
O8	O	-0.161182	1.508529	-0.651722
O9	O	-0.433262	1.780413	-0.720825
O10	O	-0.161168	1.655613	-0.798805
O11	O	-0.315996	1.469088	-0.496916
O12	O	-0.355203	1.314369	-0.651602
O13	O	-0.502176	1.508466	-0.992715
O14	O	-0.502195	1.314342	-0.798594
O15	O	-0.355169	1.655578	-0.992806
O16	O	-0.627283	1.586253	-0.720705
O17	O	-0.656990	1.469025	-0.837909
C18	C	-0.433090	1.275317	-0.720685
C19	C	-0.446566	1.155729	-0.707195
C20	C	-0.394649	1.117199	-0.759329
C21	C	-0.408577	0.993599	-0.745387
C22	C	-0.681171	1.523253	-0.783720
C23	C	-0.800742	1.509836	-0.797215
C24	C	-0.839317	1.561920	-0.745297
C25	C	-0.962899	1.548054	-0.759243
C26	C	-0.121048	1.586612	-0.720755
C27	C	-0.001470	1.600145	-0.707318
C28	C	-0.433181	1.586555	-1.032886
C29	C	-0.446615	1.600063	-1.152462
C30	C	-0.370100	1.835485	-0.784009
C31	C	-0.356653	1.955073	-0.797528
C32	C	-0.394573	1.548097	-1.191034
C33	C	-0.408457	1.562057	-1.314621
C34	C	-0.370169	1.523350	-0.472774
C35	C	-0.356408	1.510084	-0.353188
H36	H	-0.301884	1.013586	-0.852480
H37	H	-0.339887	1.175716	-0.814279
H38	H	-0.859209	1.454985	-0.851993
H39	H	-0.463336	0.935084	-0.690427
O40	O	-0.519094	1.078227	-0.634390
H41	H	-0.603208	1.092263	-0.664602
O42	O	-0.761886	1.634613	-0.672764
H43	H	-0.676970	1.634104	-0.673200
O44	O	-0.321938	1.475473	-1.113587
H45	H	-0.285934	1.439525	-1.160641
H46	H	-0.463295	1.616885	-1.373090
O47	O	-0.283753	1.437468	-1.275752
H48	H	-0.314091	1.353346	-1.289770
O49	O	-1.040327	1.475373	-0.831795
H50	H	-1.125243	1.475876	-0.831354
O51	O	-0.924044	1.672821	-0.634759
H52	H	-0.839127	1.672307	-0.635186
H53	H	-0.501449	1.654887	-1.210934
