data_functionalizedCrystal
_audit_creation_method	'MofGen! by Chris Wilmer'
_symmetry_space_group_name_H-M	'P1'
_symmetry_Int_Tables_number	1
_symmetry_cell_setting	triclinic
loop_
_symmetry_equiv_pos_as_xyz
  x,y,z
_cell_length_a	12.759401
_cell_length_b	13.031981
_cell_length_c	12.759393
_cell_angle_alpha	97.217753
_cell_angle_beta	90.018496
_cell_angle_gamma	97.192140
loop_
_atom_site_label
_atom_site_type_symbol
_atom_site_fract_x
_atom_site_fract_y
_atom_site_fract_z
Zn1	Zn	1.553145	-0.416051	0.540805
Zn2	Zn	1.530724	-0.590868	0.342781
Zn3	Zn	1.377440	-0.416106	0.365137
Zn4	Zn	1.355131	-0.590787	0.518433
O5	O	1.454110	-0.503453	0.441789
O6	O	1.697191	-0.439252	0.514543
O7	O	1.510344	-0.567742	0.198719
O8	O	1.419468	-0.269833	0.407159
O9	O	1.680718	-0.567689	0.369056
O10	O	1.548558	-0.269793	0.536221
O11	O	1.397727	-0.439345	0.215143
O12	O	1.227461	-0.439267	0.385466
O13	O	1.381444	-0.567551	0.668429
O14	O	1.211070	-0.567605	0.498091
O15	O	1.526925	-0.439174	0.684866
O16	O	1.488711	-0.737123	0.347363
O17	O	1.359703	-0.737064	0.476414
C18	C	1.181145	-0.503434	0.441777
C19	C	1.064366	-0.503451	0.441794
C20	C	1.000984	-0.570383	0.500313
C21	C	0.891258	-0.570396	0.500323
C22	C	0.908308	-0.436542	0.383285
C23	C	1.018032	-0.436524	0.383282
C24	C	0.991138	-0.647666	0.567881
C25	C	0.881413	-0.647679	0.567891
C26	C	1.419382	-0.775018	0.407058
C27	C	1.404621	-0.891195	0.392235
C28	C	1.461870	-0.942887	0.449546
C29	C	1.446615	-1.062962	0.434227
C30	C	1.728141	-0.503473	0.441802
C31	C	1.844916	-0.503482	0.441807
C32	C	1.454197	-0.503348	0.715836
C33	C	1.454234	-0.503303	0.832619
C34	C	1.489003	-0.230828	0.476679
C35	C	1.503872	-0.114651	0.491547
C36	C	1.454094	-0.503483	0.168818
C37	C	1.454298	-0.503233	0.052074
C38	C	1.529996	-0.436450	0.896042
C39	C	1.530026	-0.436412	1.005771
C40	C	1.378528	-0.570089	0.988643
C41	C	1.378494	-0.570120	0.878916
C42	C	1.617465	-0.359276	0.905931
C43	C	1.617495	-0.359238	1.015660
H44	H	0.870569	-0.382052	0.335648
O45	O	1.019960	-0.739437	0.521388
C46	C	0.975286	-0.821249	0.576281
H47	H	0.956960	-0.788483	0.660422
H48	H	1.033535	-0.880545	0.578507
H49	H	0.899242	-0.860876	0.534303
O50	O	1.374729	-1.116088	0.362025
C51	C	1.401108	-1.089574	0.260689
H52	H	1.451503	-1.010251	0.268590
H53	H	1.325753	-1.086053	0.213959
H54	H	1.447397	-1.150975	0.217574
O55	O	1.603627	-0.262745	0.882811
C56	C	1.506421	-0.236046	0.923164
H57	H	1.451567	-0.310105	0.933175
H58	H	1.468592	-0.190472	0.865928
H59	H	1.520501	-0.185973	1.003018
H60	H	1.316799	-0.624555	0.827281
O61	O	1.332739	-0.944325	0.320037
C62	C	1.359118	-0.917811	0.218700
H63	H	1.409513	-0.838488	0.226602
H64	H	1.283763	-0.914291	0.171971
H65	H	1.405407	-0.979213	0.175585
H66	H	1.696098	-0.380919	1.042667
H67	H	1.316861	-0.624487	1.026352
H68	H	1.691033	-0.388295	0.868186
O69	O	1.533694	-0.889686	0.521762
C70	C	1.507340	-0.916246	0.623087
H71	H	1.419604	-0.946400	0.624494
H72	H	1.525420	-0.844356	0.684107
H73	H	1.555683	-0.979458	0.642595
H74	H	0.841286	-0.728611	0.535614
H75	H	1.023702	-0.626078	0.652047
O76	O	0.845276	-0.613374	0.664636
C77	C	0.871215	-0.678624	0.738329
H78	H	0.883590	-0.758066	0.694998
H79	H	0.804148	-0.688564	0.796647
H80	H	0.946879	-0.642008	0.782932
O81	O	1.575839	-1.061574	0.563697
C82	C	1.626126	-1.132953	0.613988
H83	H	1.573266	-1.210834	0.607723
H84	H	1.641290	-1.101257	0.700791
H85	H	1.704483	-1.144486	0.574120
O86	O	1.079446	-0.371463	0.326354
C87	C	1.015020	-0.312379	0.274737
H88	H	0.931336	-0.355202	0.265544
H89	H	1.048133	-0.301110	0.193421
H90	H	1.013495	-0.233052	0.323503
O91	O	1.594302	-0.267569	1.068049
C92	C	1.502523	-0.286173	1.127831
H93	H	1.454158	-0.362157	1.092457
H94	H	1.453297	-0.219114	1.126520
H95	H	1.525898	-0.292292	1.212854
