data_functionalizedCrystal
_audit_creation_method	'MofGen! by Chris Wilmer'
_symmetry_space_group_name_H-M	'P1'
_symmetry_Int_Tables_number	1
_symmetry_cell_setting	triclinic
loop_
_symmetry_equiv_pos_as_xyz
  x,y,z
_cell_length_a	15.944499
_cell_length_b	15.944551
_cell_length_c	14.048226
_cell_angle_alpha	89.992615
_cell_angle_beta	89.990949
_cell_angle_gamma	83.488174
loop_
_atom_site_label
_atom_site_type_symbol
_atom_site_fract_x
_atom_site_fract_y
_atom_site_fract_z
O1	O	1.114553	0.108127	-0.079220
O2	O	0.869998	0.121529	-0.079209
O3	O	0.998954	-0.007448	-0.079206
O4	O	0.985597	0.237104	-0.079223
O5	O	0.998938	-0.007456	0.079115
O6	O	0.869982	0.121521	0.079112
O7	O	1.114538	0.108119	0.079102
Zn8	Zn	0.992258	0.114819	0.104244
Zn9	Zn	0.992278	0.114829	-0.104351
O10	O	0.985582	0.237096	0.079099
C11	C	0.838695	0.120976	-0.000047
C12	C	0.745447	0.119331	-0.000043
C13	C	0.998392	-0.038746	-0.000045
C14	C	0.996729	-0.131992	-0.000045
C15	C	0.453911	0.194263	-0.000062
C16	C	0.514948	0.155316	-0.078122
C17	C	0.409810	0.113355	-0.000065
C18	C	0.514918	0.155286	0.077970
C19	C	0.574719	0.116296	-0.000052
C20	C	0.469619	0.074385	-0.078189
C21	C	0.469583	0.074367	0.077974
C22	C	0.530603	0.035360	-0.000105
C23	C	0.314810	0.111663	-0.000073
C24	C	0.669718	0.117981	-0.000051
C25	C	0.912823	-0.346833	-0.000054
C26	C	0.951779	-0.407861	0.078006
C27	C	0.993722	-0.302717	-0.000052
C28	C	0.951813	-0.407837	-0.078086
C29	C	0.990811	-0.467629	-0.000063
C30	C	1.032700	-0.362517	0.078073
C31	C	1.032723	-0.362487	-0.078090
C32	C	1.071737	-0.423497	-0.000010
C33	C	0.995397	-0.207715	-0.000045
C34	C	0.989143	-0.562630	-0.000063
C35	C	1.145840	0.108672	-0.000063
C36	C	1.239089	0.110317	-0.000073
C37	C	0.986144	0.268394	-0.000064
C38	C	0.987806	0.361640	-0.000071
N39	N	0.992250	0.114812	0.246604
N40	N	0.992293	0.114830	-0.246712
C41	C	1.049369	0.057724	0.296424
C42	C	1.049375	0.057724	0.396081
C43	C	0.992265	0.114815	0.445918
C44	C	0.935139	0.171906	0.396091
C45	C	0.935130	0.171901	0.296436
C46	C	0.935163	0.171912	0.603806
C47	C	0.935173	0.171917	0.703468
C48	C	1.049408	0.057734	0.703452
C49	C	1.049399	0.057730	0.603796
C50	C	0.992274	0.114821	0.553976
H51	H	0.420581	0.261409	-0.000142
H52	H	0.449647	0.040199	-0.144256
O53	O	0.570157	-0.044826	-0.000316
C54	C	0.547048	-0.087158	-0.082712
H55	H	0.525133	-0.038934	-0.139980
H56	H	0.493571	-0.126277	-0.064830
C57	C	0.650561	-0.204927	-0.049171
C58	C	0.623652	-0.145697	-0.119513
H59	H	0.697812	-0.241040	-0.071871
H60	H	0.666129	-0.176409	0.006342
H61	H	0.605991	-0.237518	-0.034277
H62	H	0.668218	-0.113101	-0.134397
H63	H	0.608093	-0.174211	-0.175030
H64	H	0.449460	0.040171	0.143974
O65	O	0.879626	0.227248	0.444607
C66	C	0.827802	0.182241	0.502262
H67	H	0.861258	0.116528	0.517193
H68	H	0.765720	0.176503	0.463878
C69	C	0.768771	0.310304	0.578583
C70	C	0.809866	0.229596	0.596928
H71	H	0.757703	0.339516	0.636976
H72	H	0.803683	0.340627	0.539737
H73	H	0.717040	0.305511	0.546594
H74	H	0.861600	0.234390	0.628905
H75	H	0.774962	0.199275	0.635781
O76	O	0.879757	0.227487	0.555451
C77	C	0.893403	0.310643	0.579800
H78	H	0.960654	0.311083	0.607177
H79	H	0.846852	0.335298	0.637653
C80	C	0.797751	0.367042	0.457638
C81	C	0.880352	0.367582	0.491256
H82	H	0.789697	0.402166	0.403023
H83	H	0.788555	0.311018	0.441236
H84	H	0.758968	0.387586	0.505857
H85	H	0.919133	0.347029	0.443042
H86	H	0.889555	0.423604	0.507648
O87	O	0.879563	0.227243	0.247995
C88	C	0.827753	0.182231	0.190359
H89	H	0.826339	0.115988	0.220407
H90	H	0.854033	0.177837	0.114825
C91	C	0.739306	0.309841	0.151941
C92	C	0.737564	0.228483	0.188851
H93	H	0.683674	0.338372	0.151006
H94	H	0.774213	0.340168	0.190768
H95	H	0.761210	0.306168	0.088999
H96	H	0.715670	0.232157	0.251795
H97	H	0.702651	0.198157	0.150034
O98	O	0.538953	0.196306	-0.156729
C99	C	0.499544	0.280061	-0.156441
H100	H	0.481200	0.299498	-0.080486
H101	H	0.440526	0.284520	-0.202799
C102	C	0.583530	0.315397	-0.289393
C103	C	0.561006	0.339273	-0.196103
H104	H	0.621440	0.351922	-0.313862
H105	H	0.610078	0.258969	-0.289590
H106	H	0.534342	0.319113	-0.328013
H107	H	0.610191	0.335546	-0.157482
H108	H	0.534466	0.395702	-0.195900
H109	H	1.066882	-0.342536	0.144139
H110	H	0.534987	0.189518	0.143961
O111	O	1.073404	-0.338350	-0.156849
C112	C	1.018160	-0.281240	-0.210344
H113	H	0.966348	-0.249974	-0.161955
H114	H	0.988568	-0.316697	-0.269761
C115	C	1.131412	-0.251596	-0.313312
C116	C	1.067781	-0.213190	-0.253878
H117	H	1.162020	-0.209621	-0.340170
H118	H	1.168631	-0.290075	-0.277274
H119	H	1.106743	-0.281142	-0.362818
H120	H	1.092451	-0.183654	-0.204367
H121	H	1.030567	-0.174704	-0.289909
O122	O	0.910819	-0.431796	0.156669
C123	C	0.827074	-0.392360	0.156410
H124	H	0.807587	-0.374106	0.080447
H125	H	0.822669	-0.333285	0.202673
C126	C	0.791804	-0.476162	0.289545
C127	C	0.767867	-0.453748	0.196245
H128	H	0.755282	-0.514027	0.314121
H129	H	0.848226	-0.502729	0.289723
H130	H	0.788133	-0.426926	0.328086
H131	H	0.771549	-0.502982	0.157703
H132	H	0.711445	-0.427191	0.196062
H133	H	0.917592	-0.427904	-0.144085
H134	H	0.845673	-0.313513	0.000026
O135	O	1.151928	-0.463041	0.000203
C136	C	1.194252	-0.439921	0.082599
H137	H	1.146022	-0.418010	0.139866
H138	H	1.233365	-0.386440	0.064719
C139	C	1.312035	-0.543423	0.049065
C140	C	1.252798	-0.516517	0.119404
H141	H	1.348152	-0.590668	0.071767
H142	H	1.283522	-0.558997	-0.006449
H143	H	1.344620	-0.498848	0.034171
H144	H	1.220207	-0.561088	0.134288
H145	H	1.281307	-0.500952	0.174922
O146	O	1.104880	0.002184	0.248164
C147	C	1.155309	-0.048189	0.313512
H148	H	1.120877	-0.049150	0.384560
H149	H	1.217706	-0.020887	0.324087
C150	C	1.214907	-0.137619	0.187372
C151	C	1.172614	-0.138805	0.274632
H152	H	1.225586	-0.193514	0.163388
H153	H	1.180935	-0.103681	0.143345
H154	H	1.266900	-0.114863	0.196196
H155	H	1.120618	-0.161550	0.265805
H156	H	1.206578	-0.172749	0.318657
H157	H	1.095886	0.011238	0.436644
H158	H	1.095907	0.011246	0.563219
H159	H	1.095921	0.011248	0.744020
O160	O	0.879573	0.227280	0.751844
C161	C	0.796428	0.213581	0.727509
H162	H	0.796030	0.146331	0.700116
H163	H	0.771736	0.260129	0.669671
C164	C	0.739988	0.309181	0.849703
C165	C	0.739498	0.226581	0.816066
H166	H	0.704869	0.317204	0.904327
H167	H	0.796004	0.318413	0.866097
H168	H	0.719413	0.347962	0.801497
H169	H	0.760082	0.187802	0.864267
H170	H	0.683483	0.217343	0.799683
