data_functionalizedCrystal
_audit_creation_method	'MofGen! by Chris Wilmer'
_symmetry_space_group_name_H-M	'P1'
_symmetry_Int_Tables_number	1
_symmetry_cell_setting	triclinic
loop_
_symmetry_equiv_pos_as_xyz
  x,y,z
_cell_length_a	19.319731
_cell_length_b	19.318970
_cell_length_c	19.315557
_cell_angle_alpha	60.007379
_cell_angle_beta	60.014690
_cell_angle_gamma	59.991495
loop_
_atom_site_label
_atom_site_type_symbol
_atom_site_fract_x
_atom_site_fract_y
_atom_site_fract_z
O1	O	0.095954	-1.011347	0.845684
O2	O	0.036156	-0.787405	0.681392
O3	O	0.177960	-0.929104	0.681276
O4	O	-0.045850	-0.869648	0.845799
O5	O	0.225008	-0.882072	0.728208
O6	O	0.083204	-0.740373	0.728324
O7	O	0.143002	-0.964315	0.892616
Cu8	Cu	0.117399	-0.848050	0.814755
Cu9	Cu	0.061759	-0.903670	0.759252
O10	O	0.001198	-0.822616	0.892732
N11	N	0.156535	-0.808935	0.853797
N12	N	0.022631	-0.942793	0.720211
C13	C	0.182113	-0.653200	0.879374
C14	C	0.182221	-0.783395	1.009518
C15	C	0.312319	-0.783375	0.879314
C16	C	0.182127	-0.783371	0.879357
C17	C	0.214696	-0.750836	0.911890
C18	C	-0.132988	-0.968144	0.694232
C19	C	-0.002674	-0.968326	0.564242
C20	C	-0.002907	-1.098444	0.694459
C21	C	-0.002887	-0.968321	0.694542
C22	C	-0.035363	-1.000810	0.661869
N23	N	0.389025	-0.808944	0.853717
O24	O	0.660019	-0.816766	0.651282
O25	O	0.660312	-0.981573	0.874999
O26	O	0.660193	-0.981192	0.733108
O27	O	0.660138	-0.817147	0.793174
O28	O	0.519202	-0.934278	0.780210
O29	O	0.519321	-0.934658	0.922102
O30	O	0.519028	-0.769852	0.698384
Cu31	Cu	0.506300	-0.847971	0.814544
Cu32	Cu	0.673039	-0.903453	0.758840
O33	O	0.519147	-0.770232	0.840276
N34	N	0.790314	-0.942480	0.719658
N35	N	0.156514	-0.576494	0.853827
O36	O	-0.045823	-0.305328	0.845846
O37	O	0.177892	-0.305317	0.681053
O38	O	0.035967	-0.305340	0.681465
O39	O	0.096102	-0.305306	0.845434
O40	O	0.083020	-0.446347	0.728459
O41	O	0.224945	-0.446325	0.728047
O42	O	0.001230	-0.446335	0.892839
Cu43	Cu	0.117383	-0.459205	0.814734
Cu44	Cu	0.061738	-0.292448	0.759159
O45	O	0.143154	-0.446313	0.892428
N46	N	0.022597	-0.175159	0.720067
N47	N	0.156703	-0.808977	1.086224
O48	O	0.148753	-1.011298	1.357359
O49	O	-0.016009	-0.787491	1.357400
O50	O	-0.015627	-0.929387	1.357339
O51	O	0.148372	-0.869401	1.357420
O52	O	0.031342	-0.882367	1.216340
O53	O	0.030961	-0.740471	1.216400
O54	O	0.195723	-0.964278	1.216360
Cu55	Cu	0.117631	-0.848081	1.203506
Cu56	Cu	0.062083	-0.903688	1.370254
O57	O	0.195341	-0.822381	1.216420
N58	N	0.023010	-0.942801	1.487536
C59	C	0.054075	-0.735670	0.682223
C60	C	0.229681	-0.911148	0.682079
C61	C	0.125082	-1.016051	0.891784
C62	C	-0.050524	-0.840572	0.891928
C63	C	0.589851	-0.980810	0.926735
C64	C	0.589706	-0.980340	0.751019
C65	C	0.589484	-0.770613	0.646650
C66	C	0.589634	-0.771085	0.822364
C67	C	0.229543	-0.375646	0.681799
C68	C	0.053845	-0.375847	0.682366
C69	C	-0.050480	-0.375832	0.892036
C70	C	0.125277	-0.375807	0.891527
C71	C	-0.015214	-0.735785	1.286905
C72	C	-0.014732	-0.911497	1.286802
C73	C	0.194928	-1.015984	1.286855
C74	C	0.194457	-0.840261	1.286926
H75	H	0.041301	-0.671339	0.630625
H76	H	0.293962	-0.923825	0.630414
H77	H	0.137858	-1.080380	0.943384
O78	O	0.589488	-0.708852	0.570000
C79	C	0.662391	-0.616110	0.445543
C80	C	0.662482	-0.686035	0.532341
H81	H	0.721409	-0.597653	0.415062
H82	H	0.603392	-0.558270	0.454460
H83	H	0.662327	-0.640685	0.402822
H84	H	0.662576	-0.661539	0.575108
H85	H	0.721476	-0.743862	0.523359
O86	O	0.589575	-0.709683	0.837846
C87	C	0.589695	-0.670923	0.938546
C88	C	0.589742	-0.740528	0.921134
H89	H	0.589849	-0.695841	1.005878
H90	H	0.530630	-0.613076	0.931073
H91	H	0.648640	-0.652338	0.891547
H92	H	0.530838	-0.759185	0.968118
H93	H	0.648846	-0.798329	0.928578
H94	H	-0.066232	-0.924309	1.286721
H95	H	-0.114808	-0.827900	0.943589
H96	H	0.293660	-0.375252	0.629934
O97	O	-0.127065	-0.375979	0.953831
C98	C	-0.202713	-0.448990	1.095250
C99	C	-0.115928	-0.448941	1.025336
H100	H	-0.193736	-0.507965	1.153085
H101	H	-0.245499	-0.449053	1.070754
H102	H	-0.233150	-0.389945	1.113686
H103	H	-0.085417	-0.507977	1.006870
H104	H	-0.073201	-0.448834	1.049870
O105	O	0.038371	-0.375920	0.621023
C106	C	-0.062386	-0.375945	0.582281
C107	C	-0.044974	-0.375866	0.651827
H108	H	-0.129774	-0.375883	0.607154
H109	H	-0.015497	-0.434983	0.563777
H110	H	-0.054788	-0.316960	0.524395
H111	H	-0.052582	-0.434811	0.709758
H112	H	-0.091859	-0.316789	0.670260
H113	H	0.589730	-1.031874	0.738162
O114	O	0.140721	-0.375959	0.953015
C115	C	0.226848	-0.448992	1.042098
C116	C	0.209438	-0.448929	0.972471
H117	H	0.282417	-0.507973	1.057837
H118	H	0.168109	-0.449053	1.101360
H119	H	0.242942	-0.389953	1.018595
H120	H	0.193365	-0.507958	0.995894
H121	H	0.268191	-0.448824	0.913223
O122	O	-0.076824	-0.659032	1.286804
C123	C	-0.117800	-0.508207	1.213761
C124	C	-0.047949	-0.595071	1.213780
H125	H	-0.094487	-0.456473	1.154719
H126	H	-0.133796	-0.495729	1.272743
H127	H	-0.176862	-0.508122	1.213783
H128	H	0.011156	-0.595219	1.213728
H129	H	-0.032026	-0.607515	1.154803
H130	H	0.246659	-1.080258	1.286832
H131	H	0.245979	-0.827427	1.286940
H132	H	0.589926	-1.032546	0.990990
