data_functionalizedCrystal
_audit_creation_method	'MofGen! by Chris Wilmer'
_symmetry_space_group_name_H-M	'P1'
_symmetry_Int_Tables_number	1
_symmetry_cell_setting	triclinic
loop_
_symmetry_equiv_pos_as_xyz
  x,y,z
_cell_length_a	21.295418
_cell_length_b	29.839131
_cell_length_c	29.839135
_cell_angle_alpha	90.015469
_cell_angle_beta	90.033021
_cell_angle_gamma	90.057233
loop_
_atom_site_label
_atom_site_type_symbol
_atom_site_fract_x
_atom_site_fract_y
_atom_site_fract_z
Zn1	Zn	0.962241	-0.178737	0.254239
Zn2	Zn	0.962143	-0.253846	0.179108
Zn3	Zn	0.856984	-0.178751	0.179096
Zn4	Zn	0.856914	-0.253861	0.254184
O5	O	0.909571	-0.216299	0.216657
O6	O	1.050318	-0.188688	0.244300
O7	O	0.948182	-0.243884	0.116240
O8	O	0.871017	-0.115882	0.189081
O9	O	1.050246	-0.243870	0.189103
O10	O	0.948349	-0.115871	0.244288
O11	O	0.870922	-0.188712	0.116230
O12	O	0.768886	-0.188727	0.189028
O13	O	0.870897	-0.243896	0.317059
O14	O	0.768834	-0.243910	0.244196
O15	O	0.948281	-0.188702	0.317098
O16	O	0.948114	-0.316715	0.189050
O17	O	0.870802	-0.316726	0.244208
C18	C	0.746019	-0.216322	0.216605
C19	C	0.676051	-0.216343	0.216594
C20	C	0.643174	-0.245115	0.245276
C21	C	0.577431	-0.245104	0.245296
C22	C	0.544569	-0.216326	0.216626
C23	C	0.577454	-0.187549	0.187941
C24	C	0.643195	-0.187557	0.187925
N25	N	0.441304	-0.212806	0.177333
N26	N	0.378852	-0.212801	0.177349
C27	C	0.346494	-0.216297	0.216674
N28	N	0.378946	-0.219809	0.255981
N29	N	0.441403	-0.219817	0.255964
C30	C	0.473283	-0.216313	0.216640
C31	C	0.242331	-0.245058	0.245381
C32	C	0.176588	-0.245044	0.245402
C33	C	0.176611	-0.187491	0.188042
C34	C	0.242353	-0.187503	0.188025
C35	C	0.275210	-0.216289	0.216694
C36	C	0.909457	-0.333021	0.216634
C37	C	0.909466	-0.382956	0.216640
C38	C	0.949900	-0.692581	0.187978
C39	C	0.949978	-0.880254	0.187995
O40	O	0.984266	-0.904503	0.163609
N41	N	0.909701	-0.903741	0.216691
C42	C	0.869405	-0.880307	0.245386
O43	O	0.835154	-0.904590	0.269796
C44	C	0.869331	-0.692635	0.245370
C45	C	0.909606	-0.669150	0.216670
C46	C	0.990172	-0.669096	0.159280
C47	C	0.990150	-0.622180	0.159275
C48	C	0.949856	-0.598750	0.187966
C49	C	0.909584	-0.622234	0.216664
C50	C	0.829039	-0.669201	0.274067
C51	C	0.829025	-0.622280	0.274061
C52	C	0.869300	-0.598796	0.245361
C53	C	0.869267	-0.551888	0.245350
N54	N	0.909544	-0.528401	0.216655
C55	C	0.949838	-0.551832	0.187963
C56	C	0.869446	-0.978837	0.245391
C57	C	0.869464	-1.025755	0.245395
C58	C	0.950037	-1.025699	0.188005
C59	C	0.950016	-0.978780	0.188000
C60	C	0.909723	-0.955350	0.216696
C61	C	0.949788	-0.453306	0.187953
C62	C	0.949760	-0.406386	0.187948
C63	C	0.869189	-0.406447	0.245339
C64	C	0.869214	-0.453362	0.245342
C65	C	0.909519	-0.476791	0.216648
O66	O	0.835002	-0.527610	0.269727
O67	O	0.984094	-0.527540	0.163563
C68	C	0.949922	-0.739496	0.187984
C69	C	0.909651	-0.762981	0.216681
C70	C	0.869356	-0.739550	0.245373
C71	C	0.909668	-0.809899	0.216685
C72	C	0.949962	-0.833329	0.187993
C73	C	0.990239	-0.809842	0.159298
C74	C	0.990217	-0.762927	0.159292
C75	C	0.829080	-0.763037	0.274068
C76	C	0.829105	-0.809953	0.274072
C77	C	0.869399	-0.833383	0.245380
C78	C	1.073761	-0.216275	0.216709
C79	C	1.143729	-0.216265	0.216731
C80	C	0.909592	-0.216299	0.333835
C81	C	0.909601	-0.216299	0.383770
C82	C	0.909702	-0.099120	0.216689
C83	C	0.909758	-0.049186	0.216703
C84	C	0.869339	-0.187574	0.693411
C85	C	0.869328	-0.187571	0.881084
O86	O	0.835100	-0.163156	0.905347
N87	N	0.909554	-0.216294	0.904555
C88	C	0.949781	-0.245022	0.881104
O89	O	0.983991	-0.269456	0.905374
C90	C	0.949788	-0.245027	0.693432
C91	C	0.909565	-0.216299	0.669964
C92	C	0.829118	-0.158848	0.669943
C93	C	0.829123	-0.158847	0.623027
C94	C	0.869349	-0.187572	0.599580
C95	C	0.909570	-0.216298	0.623048
C96	C	0.990012	-0.273757	0.669982
C97	C	0.990009	-0.273756	0.623061
C98	C	0.949786	-0.245028	0.599593
C99	C	0.949801	-0.245022	0.552686
N100	N	0.909576	-0.216299	0.529215
C101	C	0.869350	-0.187574	0.552662
C102	C	0.949776	-0.245017	0.979635
C103	C	0.949775	-0.245015	1.026553
C104	C	0.869321	-0.187565	1.026529
C105	C	0.869326	-0.187564	0.979611
C106	C	0.909551	-0.216294	0.956164
C107	C	0.869365	-0.187574	0.454136
C108	C	0.869376	-0.187575	0.407217
C109	C	0.949827	-0.245027	0.407244
C110	C	0.949819	-0.245025	0.454160
C111	C	0.909583	-0.216297	0.477605
O112	O	0.984007	-0.269428	0.528394
O113	O	0.835136	-0.163150	0.528385
C114	C	0.869333	-0.187574	0.740326
C115	C	0.909554	-0.216300	0.763795
C116	C	0.949780	-0.245025	0.740347
C117	C	0.909553	-0.216298	0.810712
C118	C	0.869327	-0.187574	0.834160
C119	C	0.829102	-0.158850	0.810689
C120	C	0.829107	-0.158850	0.763774
C121	C	0.990005	-0.273748	0.763818
C122	C	0.989997	-0.273746	0.810734
C123	C	0.949771	-0.245021	0.834181
C124	C	0.909548	-0.216304	1.099934
C125	C	0.909549	-0.216291	1.050000
H126	H	0.269084	-0.268495	0.268727
C127	C	0.636613	-0.130670	0.131229
C128	C	0.679337	-0.155933	0.156391
H129	H	0.658928	-0.111149	0.111758
H130	H	0.611030	-0.113511	0.150840
H131	H	0.610912	-0.150217	0.114017
H132	H	0.705035	-0.136386	0.173605
H133	H	0.704931	-0.173093	0.136777
C134	C	0.102558	-0.305470	0.251547
C135	C	0.140443	-0.276671	0.276932
H136	H	0.080240	-0.324993	0.271013
H137	H	0.128148	-0.322626	0.231938
H138	H	0.073583	-0.288320	0.234478
H139	H	0.169421	-0.293821	0.293998
H140	H	0.114850	-0.259514	0.296548
C141	C	1.074880	-0.710091	0.153116
C142	C	1.034490	-0.737115	0.127746
H143	H	1.102211	-0.694156	0.133639
H144	H	1.098943	-0.728364	0.172711
H145	H	1.050875	-0.689419	0.170199
H146	H	1.058495	-0.757789	0.110666
H147	H	1.010425	-0.718839	0.108144
H148	H	1.022760	-0.297142	0.744732
C149	C	0.838727	-0.111496	1.040995
C150	C	0.825101	-0.155993	1.052311
H151	H	0.811429	-0.092010	1.056917
H152	H	0.832962	-0.107384	1.009699
H153	H	0.881031	-0.104917	1.048704
H154	H	0.782799	-0.162573	1.044599
H155	H	0.830861	-0.160107	1.083614
C156	C	0.958464	-0.305440	1.079306
C157	C	0.993998	-0.276587	1.052349
H158	H	0.985767	-0.324930	1.095233
H159	H	0.931026	-0.322630	1.060988
H160	H	0.934510	-0.288328	1.099986
H161	H	1.017948	-0.293698	1.031668
H162	H	1.021447	-0.259396	1.070669
H163	H	0.149855	-0.164057	0.164700
C164	C	1.026069	-0.881743	0.133851
C165	C	1.034552	-0.835604	0.127774
H166	H	1.053435	-0.897647	0.114397
H167	H	0.983795	-0.889477	0.127224
H168	H	1.035235	-0.889397	0.164052
H169	H	1.025381	-0.827949	0.097573
H170	H	1.076836	-0.827867	0.134398
H171	H	0.982609	-0.472376	0.164588
C172	C	1.096569	-0.295625	0.825210
C173	C	1.034218	-0.305328	0.836524
H174	H	1.123865	-0.315126	0.841129
H175	H	1.105815	-0.265444	0.832920
H176	H	1.102316	-0.299731	0.793910
H177	H	1.028470	-0.301219	0.867824
H178	H	1.024969	-0.335516	0.828817
C179	C	0.636542	-0.302002	0.301974
C180	C	0.679289	-0.276752	0.276793
H181	H	0.658840	-0.321531	0.321433
H182	H	0.610850	-0.319152	0.282375
H183	H	0.610953	-0.282447	0.319199
H184	H	0.704875	-0.296307	0.259565
H185	H	0.704991	-0.259601	0.296395
H186	H	0.982811	-0.959662	0.164630
C187	C	0.749466	-0.805284	0.330806
C188	C	0.784832	-0.835764	0.305623
H189	H	0.722141	-0.821218	0.350287
H190	H	0.725396	-0.787018	0.311208
H191	H	0.776878	-0.786949	0.348006
H192	H	0.757419	-0.854097	0.288420
H193	H	0.808904	-0.854037	0.325224
C194	C	0.838736	-1.040196	0.321440
C195	C	0.825189	-1.051567	0.276940
H196	H	0.811405	-1.056132	0.340917
H197	H	0.832959	-1.008903	0.325538
H198	H	0.881029	-1.047848	0.328047
H199	H	0.782897	-1.043912	0.270332
H200	H	0.830961	-1.082867	0.272840
C201	C	0.503559	-0.251433	0.305730
C202	C	0.541280	-0.276732	0.276825
H203	H	0.481245	-0.270959	0.325195
H204	H	0.474588	-0.234293	0.288656
H205	H	0.529267	-0.231894	0.322946
H206	H	0.515572	-0.296268	0.259606
H207	H	0.570254	-0.293879	0.293900
C208	C	0.985904	-1.097599	0.162583
C209	C	0.994378	-1.051460	0.156500
H210	H	1.013295	-1.113503	0.143147
H211	H	0.943639	-1.105341	0.155936
H212	H	0.995042	-1.105245	0.192791
H213	H	0.985235	-1.043814	0.126293
H214	H	1.036652	-1.043714	0.163144
C215	C	1.020896	-0.607746	0.083229
C216	C	1.034430	-0.596372	0.127731
H217	H	1.048240	-0.591817	0.063756
H218	H	0.978613	-0.600090	0.076614
H219	H	1.026667	-0.639044	0.079135
H220	H	1.028655	-0.565074	0.131825
H221	H	1.076724	-0.604025	0.134348
H222	H	0.796351	-0.135460	0.829788
C223	C	0.958489	-0.305451	0.354467
C224	C	0.994038	-0.276603	0.381464
H225	H	0.985781	-0.324948	0.338552
H226	H	0.934539	-0.288339	0.333781
H227	H	0.931044	-0.322637	0.372760
H228	H	1.021479	-0.259415	0.363170
H229	H	1.017998	-0.293717	0.402152
C230	C	0.793389	-0.133333	0.551100
C231	C	0.784901	-0.127273	0.597234
H232	H	0.766087	-0.113839	0.535180
H233	H	0.784145	-0.163516	0.543400
H234	H	0.835691	-0.126747	0.543431
H235	H	0.742600	-0.133862	0.604904
H236	H	0.794141	-0.097083	0.604937
H237	H	0.269122	-0.164076	0.164666
C238	C	0.860606	-0.926071	0.305821
C239	C	0.825147	-0.953088	0.276935
H240	H	0.833254	-0.910179	0.325295
H241	H	0.884580	-0.905365	0.288734
H242	H	0.888023	-0.944347	0.323028
H243	H	0.797733	-0.934811	0.259725
H244	H	0.801162	-0.973796	0.294024
C245	C	0.476686	-0.161990	0.162489
C246	C	0.541333	-0.155919	0.156422
H247	H	0.454389	-0.142464	0.143027
H248	H	0.465962	-0.155458	0.192684
H249	H	0.465864	-0.192166	0.155863
H250	H	0.552156	-0.125744	0.163051
H251	H	0.552061	-0.162448	0.126220
C252	C	0.749411	-0.664524	0.330801
C253	C	0.784771	-0.695007	0.305619
H254	H	0.722084	-0.680456	0.350284
H255	H	0.725343	-0.646257	0.311204
H256	H	0.776827	-0.646191	0.348001
H257	H	0.757355	-0.713339	0.288417
H258	H	0.808841	-0.713282	0.325219
H259	H	0.836573	-0.164171	0.960506
C260	C	0.789844	-0.130788	0.411914
C261	C	0.825155	-0.155997	0.381421
H262	H	0.762543	-0.111297	0.395989
H263	H	0.817289	-0.113600	0.430229
H264	H	0.765746	-0.150372	0.430198
H265	H	0.849257	-0.136413	0.363139
H266	H	0.797707	-0.173186	0.363098
H267	H	0.982557	-0.387267	0.164575
H268	H	1.022988	-0.688168	0.135916
C269	C	0.820200	-0.569507	0.334484
C270	C	0.784733	-0.596526	0.305606
H271	H	0.792855	-0.553610	0.353959
H272	H	0.844174	-0.548806	0.317392
H273	H	0.847619	-0.587783	0.351691
H274	H	0.757317	-0.578250	0.288396
H275	H	0.760748	-0.617230	0.322700
C276	C	1.069528	-0.330550	0.627801
C277	C	1.034227	-0.305337	0.597290
H278	H	1.096828	-0.350044	0.611890
H279	H	1.042077	-0.347734	0.646082
H280	H	1.093627	-0.310968	0.646117
H281	H	1.010124	-0.324919	0.578976
H282	H	1.061682	-0.288152	0.579001
H283	H	0.836421	-0.472485	0.268714
H284	H	0.836380	-0.387362	0.268699
C285	C	0.749605	-0.102057	0.665194
C286	C	0.784900	-0.127267	0.695711
H287	H	0.722310	-0.082556	0.681101
H288	H	0.725505	-0.121637	0.646883
H289	H	0.777064	-0.084877	0.646908
H290	H	0.757441	-0.144450	0.713995
H291	H	0.809002	-0.107685	0.714029
C292	C	1.029308	-0.301799	0.984381
C293	C	0.994003	-0.276595	0.953866
H294	H	1.056617	-0.321290	0.968473
H295	H	1.001861	-0.318987	1.002662
H296	H	1.053400	-0.282213	1.002697
H297	H	0.969908	-0.296181	0.935552
H298	H	1.021454	-0.259405	0.935578
C299	C	1.074697	-0.279994	0.722762
C300	C	1.034236	-0.305335	0.695765
H301	H	1.102005	-0.299490	0.738675
H302	H	1.050746	-0.262896	0.743449
H303	H	1.098787	-0.260414	0.704468
H304	H	1.010142	-0.324913	0.714059
H305	H	1.058189	-0.322440	0.675076
H306	H	0.796268	-0.743964	0.297433
C307	C	1.029345	-0.301812	0.449468
C308	C	0.994035	-0.276601	0.479959
H309	H	1.056637	-0.321309	0.465394
H310	H	1.053448	-0.282233	0.431189
H311	H	1.001895	-0.318997	0.431147
H312	H	1.021485	-0.259413	0.498277
H313	H	0.969930	-0.296182	0.498246
H314	H	0.836601	-0.164181	0.473220
H315	H	0.796353	-0.135456	0.744670
