data_functionalizedCrystal
_audit_creation_method	'MofGen! by Chris Wilmer'
_symmetry_space_group_name_H-M	'P1'
_symmetry_Int_Tables_number	1
_symmetry_cell_setting	triclinic
loop_
_symmetry_equiv_pos_as_xyz
  x,y,z
_cell_length_a	19.288864
_cell_length_b	19.288865
_cell_length_c	17.766277
_cell_angle_alpha	90.011603
_cell_angle_beta	90.023209
_cell_angle_gamma	83.136245
loop_
_atom_site_label
_atom_site_type_symbol
_atom_site_fract_x
_atom_site_fract_y
_atom_site_fract_z
O1	O	-0.921353	-0.086649	-0.062844
O2	O	-0.588020	0.246685	0.270489
O3	O	-0.254686	0.580018	0.603823
O4	O	-0.719092	-0.098337	-0.062794
O5	O	-0.385759	0.234996	0.270539
O6	O	-0.052426	0.568329	0.603873
O7	O	-0.826067	0.008637	-0.062806
O8	O	-0.492734	0.341971	0.270528
O9	O	-0.159400	0.675304	0.603861
O10	O	-0.814378	-0.193623	-0.062832
O11	O	-0.481045	0.139710	0.270501
O12	O	-0.147712	0.473043	0.603834
O13	O	-0.826048	0.008643	0.062383
O14	O	-0.492715	0.341976	0.395716
O15	O	-0.159382	0.675309	0.729050
O16	O	-0.719074	-0.098332	0.062395
O17	O	-0.385740	0.235001	0.395728
O18	O	-0.052407	0.568335	0.729061
O19	O	-0.921334	-0.086643	0.062344
O20	O	-0.588001	0.246690	0.395678
O21	O	-0.254668	0.580023	0.729011
Cu22	Cu	-0.820202	-0.092487	0.073800
Cu23	Cu	-0.486869	0.240846	0.407134
Cu24	Cu	-0.153536	0.574179	0.740467
Cu25	Cu	-0.820224	-0.092494	-0.074250
Cu26	Cu	-0.486891	0.240840	0.259084
Cu27	Cu	-0.153558	0.574173	0.592417
O28	O	-0.814360	-0.193618	0.062356
O29	O	-0.481026	0.139715	0.395689
O30	O	-0.147693	0.473049	0.729023
C31	C	-0.693207	-0.097959	-0.000193
C32	C	-0.359873	0.235375	0.333140
C33	C	-0.026540	0.568708	0.666474
C34	C	-0.616103	-0.096830	-0.000173
C35	C	-0.282770	0.236504	0.333160
C36	C	0.050564	0.569837	0.666494
C37	C	-0.825682	0.034516	-0.000209
C38	C	-0.492348	0.367850	0.333124
C39	C	-0.159015	0.701183	0.666458
C40	C	-0.824553	0.111620	-0.000202
C41	C	-0.491219	0.444953	0.333131
C42	C	-0.157886	0.778287	0.666465
C43	C	-0.947220	-0.087022	-0.000258
C44	C	-0.613887	0.246311	0.333075
C45	C	-0.280554	0.579645	0.666408
C46	C	-1.024324	-0.088151	-0.000283
C47	C	-0.690990	0.245182	0.333050
C48	C	-0.357657	0.578516	0.666384
C49	C	-0.814745	-0.219497	-0.000242
C50	C	-0.481412	0.113836	0.333091
C51	C	-0.148078	0.447169	0.666424
C52	C	-0.815874	-0.296601	-0.000254
C53	C	-0.482541	0.036733	0.333079
C54	C	-0.149207	0.370066	0.666413
C55	C	-0.571407	-0.159598	-0.000193
C56	C	-0.238073	0.173736	0.333140
C57	C	0.095260	0.507069	0.666473
C58	C	-0.498960	-0.158537	-0.000201
C59	C	-0.165626	0.174796	0.333132
C60	C	0.167707	0.508130	0.666465
C61	C	-0.471212	-0.094705	-0.000205
C62	C	-0.137879	0.238629	0.333129
C63	C	0.195455	0.571962	0.666462
C64	C	-0.515918	-0.031929	-0.000180
C65	C	-0.182585	0.301405	0.333153
C66	C	0.150748	0.634738	0.666487
C67	C	-0.588364	-0.032991	-0.000164
C68	C	-0.255030	0.300342	0.333169
C69	C	0.078303	0.633676	0.666502
C70	C	-0.362957	-0.044527	-0.044082
C71	C	-0.029623	0.288806	0.289251
C72	C	0.303710	0.622139	0.622584
C73	C	-0.290512	-0.043468	-0.044103
C74	C	0.042821	0.289866	0.289231
C75	C	0.376154	0.623199	0.622564
C76	C	-0.247767	-0.091425	-0.000250
C77	C	0.085567	0.241908	0.333084
C78	C	0.418900	0.575242	0.666417
C79	C	-0.277473	-0.140454	0.043614
C80	C	0.055861	0.192879	0.376947
C81	C	0.389194	0.526212	0.710281
C82	C	-0.349918	-0.141517	0.043630
C83	C	-0.016585	0.191817	0.376963
C84	C	0.316749	0.525150	0.710296
C85	C	-0.392658	-0.093546	-0.000221
C86	C	-0.059325	0.239788	0.333112
C87	C	0.274009	0.573121	0.666446
C88	C	-0.124514	-0.153047	-0.000278
C89	C	0.208819	0.180286	0.333056
C90	C	0.542152	0.513619	0.666389
C91	C	-0.052066	-0.151984	-0.000281
C92	C	0.281267	0.181349	0.333052
C93	C	0.614600	0.514683	0.666386
C94	C	-0.069026	-0.025374	-0.000267
C95	C	0.264307	0.307960	0.333066
C96	C	0.597640	0.641293	0.666399
C97	C	-0.141473	-0.026439	-0.000256
C98	C	0.191860	0.306894	0.333077
C99	C	0.525194	0.640228	0.666410
C100	C	-0.169212	-0.090278	-0.000265
C101	C	0.164121	0.243056	0.333068
C102	C	0.497454	0.576389	0.666402
C103	C	-0.887321	0.156316	-0.000214
C104	C	-0.553987	0.489650	0.333119
C105	C	-0.220654	0.822983	0.666453
C106	C	-0.886260	0.228763	-0.000226
C107	C	-0.552927	0.562097	0.333108
C108	C	-0.219593	0.895430	0.666441
C109	C	-0.822428	0.256511	-0.000210
C110	C	-0.489094	0.589844	0.333123
C111	C	-0.155761	0.923178	0.666456
C112	C	-0.759652	0.211805	-0.000203
C113	C	-0.426318	0.545138	0.333131
C114	C	-0.092985	0.878471	0.666464
C115	C	-0.760714	0.139359	-0.000198
C116	C	-0.427381	0.472693	0.333135
C117	C	-0.094047	0.806026	0.666468
C118	C	-0.772242	0.364800	0.043653
C119	C	-0.438908	0.698133	0.376986
C120	C	-0.105575	1.031467	0.710320
C121	C	-0.771182	0.437245	0.043654
C122	C	-0.437848	0.770578	0.376987
C123	C	-0.104515	1.103911	0.710320
C124	C	-0.819148	0.479956	-0.000226
C125	C	-0.485815	0.813290	0.333107
C126	C	-0.152481	1.146623	0.666440
C127	C	-0.868186	0.450216	-0.044097
C128	C	-0.534853	0.783550	0.289236
C129	C	-0.201519	1.116883	0.622570
C130	C	-0.869249	0.377771	-0.044093
C131	C	-0.535915	0.711104	0.289240
C132	C	-0.202582	1.044438	0.622574
C133	C	-0.821269	0.335065	-0.000215
C134	C	-0.487935	0.668398	0.333118
C135	C	-0.154602	1.001732	0.666452
C136	C	-0.880770	0.603209	-0.000252
C137	C	-0.547437	0.936542	0.333081
C138	C	-0.214104	1.269875	0.666415
C139	C	-0.879707	0.675657	-0.000268
C140	C	-0.546374	1.008990	0.333065
C141	C	-0.213040	1.342323	0.666398
C142	C	-0.753097	0.658697	-0.000238
C143	C	-0.419763	0.992030	0.333096
C144	C	-0.086430	1.325363	0.666429
C145	C	-0.754162	0.586250	-0.000229
C146	C	-0.420829	0.919583	0.333105
C147	C	-0.087495	1.252917	0.666438
C148	C	-0.818001	0.558511	-0.000232
C149	C	-0.484667	0.891844	0.333101
C150	C	-0.151334	1.225177	0.666434
N151	N	-0.820192	-0.092482	0.177931
N152	N	-0.486858	0.240851	0.511264
N153	N	-0.153525	0.574184	0.844597
N154	N	-0.820241	-0.092493	-0.178380
N155	N	-0.486907	0.240840	0.154953
N156	N	-0.153574	0.574174	0.488287
C157	C	-0.867575	-0.045137	0.217312
C158	C	-0.534242	0.288196	0.550646
C159	C	-0.200909	0.621530	0.883979
C160	C	-0.867579	-0.045134	0.296114
C161	C	-0.534246	0.288200	0.629447
C162	C	-0.200913	0.621533	0.962781
C163	C	-0.820206	-0.092488	0.335531
C164	C	-0.486873	0.240846	0.668864
C165	C	-0.153540	0.574179	1.002198
C166	C	-0.772814	-0.139837	0.296140
C167	C	-0.439481	0.193497	0.629473
C168	C	-0.106147	0.526830	0.962807
C169	C	-0.772807	-0.139834	0.217340
C170	C	-0.439473	0.193499	0.550673
C171	C	-0.106140	0.526833	0.884006
C172	C	-0.810908	-0.155775	0.460362
C173	C	-0.477574	0.177558	0.793695
C174	C	-0.144241	0.510891	1.127029
C175	C	-0.810920	-0.155779	0.539161
C176	C	-0.477586	0.177554	0.872494
C177	C	-0.144253	0.510888	1.205828
C178	C	-0.820225	-0.092496	0.578577
C179	C	-0.486892	0.240837	0.911911
C180	C	-0.153558	0.574171	1.245244
C181	C	-0.829533	-0.029207	0.539185
C182	C	-0.496199	0.304127	0.872519
C183	C	-0.162866	0.637460	1.205852
C184	C	-0.829525	-0.029204	0.460385
C185	C	-0.496192	0.304129	0.793718
C186	C	-0.162859	0.637463	1.127052
C187	C	-0.820209	-0.092496	0.420977
C188	C	-0.486875	0.240838	0.754310
C189	C	-0.153542	0.574171	1.087643
C190	C	-0.867616	-0.045143	0.703405
C191	C	-0.534282	0.288190	1.036738
C192	C	-0.200949	0.621523	1.370072
C193	C	-0.867615	-0.045139	0.782208
C194	C	-0.534281	0.288194	1.115542
C195	C	-0.200948	0.621527	1.448875
C196	C	-0.772853	-0.139848	0.782233
C197	C	-0.439519	0.193485	1.115566
C198	C	-0.106186	0.526818	1.448899
C199	C	-0.772850	-0.139846	0.703431
C200	C	-0.439517	0.193487	1.036764
C201	C	-0.106183	0.526820	1.370098
C202	C	-0.820235	-0.092495	0.664022
C203	C	-0.486902	0.240839	0.997355
C204	C	-0.153569	0.574172	1.330689
H205	H	-0.593987	-0.211580	-0.000202
H206	H	-0.260654	0.121753	0.333132
H207	H	0.072680	0.455087	0.666465
F208	F	-0.231985	-0.191499	0.090289
F209	F	0.101348	0.141835	0.423622
F210	F	0.434682	0.475168	0.756956
H211	H	-0.734269	-0.178402	0.671364
H212	H	-0.400935	0.154931	1.004697
H213	H	-0.067602	0.488265	1.338031
H214	H	-0.906158	-0.006579	0.185228
H215	H	-0.572824	0.326754	0.518561
H216	H	-0.239491	0.660088	0.851894
H217	H	-0.709599	0.102967	-0.000188
H218	H	-0.376266	0.436300	0.333145
H219	H	-0.042933	0.769633	0.666478
H220	H	-0.374102	-0.181436	0.079347
H221	H	-0.040769	0.151898	0.412681
H222	H	0.292565	0.485231	0.746014
H223	H	-0.147101	-0.205028	-0.000274
H224	H	0.186233	0.128305	0.333060
H225	H	0.519566	0.461638	0.666393
F226	F	-0.635935	0.033818	-0.000143
F227	F	-0.302602	0.367152	0.333191
F228	F	0.030732	0.700485	0.666524
H229	H	-0.266331	-0.003548	-0.079822
H230	H	0.067002	0.329785	0.253511
H231	H	0.400336	0.663119	0.586845
H232	H	-0.803318	-0.207311	0.428276
H233	H	-0.469985	0.126022	0.761609
H234	H	-0.136651	0.459355	1.094942
F235	F	-0.451382	-0.225346	-0.000221
F236	F	-0.118048	0.107988	0.333112
F237	F	0.215285	0.441321	0.666446
F238	F	-0.921434	0.346122	-0.090785
F239	F	-0.588100	0.679455	0.242548
F240	F	-0.254767	1.012788	0.575881
H241	H	-0.015674	-0.203099	-0.000293
H242	H	0.317659	0.130234	0.333040
H243	H	0.650992	0.463567	0.666373
F244	F	-0.946517	0.723227	-0.000286
F245	F	-0.613184	1.056560	0.333048
F246	F	-0.279850	1.389893	0.666381
F247	F	-0.039500	0.042562	-0.000263
F248	F	0.293833	0.375895	0.333070
F249	F	0.627166	0.709228	0.666403
H250	H	-0.177866	0.024674	-0.000244
H251	H	0.155467	0.358007	0.333089
H252	H	0.488801	0.691340	0.666423
H253	H	-0.907245	0.484991	-0.079829
H254	H	-0.573911	0.818325	0.253505
H255	H	-0.240578	1.151658	0.586838
F256	F	-0.408444	0.006520	-0.090759
F257	F	-0.075110	0.339853	0.242574
F258	F	0.258223	0.673186	0.575907
F259	F	-0.722394	-0.190232	0.338091
F260	F	-0.389060	0.143101	0.671424
F261	F	-0.055727	0.476435	1.004757
F262	F	-0.722430	-0.190242	0.824179
F263	F	-0.389097	0.143092	1.157513
F264	F	-0.055764	0.476425	1.490846
F265	F	-0.718994	0.468890	0.090347
F266	F	-0.385661	0.802223	0.423680
F267	F	-0.052328	1.135556	0.757014
F268	F	-0.918014	0.005260	0.338034
F269	F	-0.584681	0.338593	0.671367
F270	F	-0.251348	0.671927	1.004701
H271	H	-0.932751	0.580622	-0.000258
H272	H	-0.599418	0.913956	0.333075
H273	H	-0.266085	1.247289	0.666408
H274	H	-0.707679	0.234401	-0.000192
H275	H	-0.374346	0.567735	0.333142
H276	H	-0.041012	0.901068	0.666475
F277	F	-0.953069	0.276341	-0.000239
F278	F	-0.619735	0.609675	0.333094
F279	F	-0.286402	0.943008	0.666427
H280	H	-0.906198	-0.006581	0.814274
H281	H	-0.572865	0.326752	1.147607
H282	H	-0.239531	0.660085	1.480940
H283	H	-0.493322	0.020044	-0.000193
H284	H	-0.159988	0.353377	0.333140
H285	H	0.173345	0.686711	0.666474
F286	F	-0.685161	0.688223	-0.000225
F287	F	-0.351828	1.021556	0.333108
F288	F	-0.018495	1.354889	0.666442
F289	F	-0.839426	0.038151	0.418464
F290	F	-0.506092	0.371484	0.751797
F291	F	-0.172759	0.704818	1.085131
F292	F	-0.955264	0.126798	-0.000234
F293	F	-0.621930	0.460132	0.333099
F294	F	-0.288597	0.793465	0.666433
H295	H	-0.906198	-0.006585	0.671317
H296	H	-0.572864	0.326749	1.004650
H297	H	-0.239531	0.660082	1.337984
H298	H	-0.734220	-0.178389	0.185274
H299	H	-0.400887	0.154945	0.518608
H300	H	-0.067554	0.488278	0.851941
F301	F	-0.687355	0.538679	-0.000213
F302	F	-0.354021	0.872012	0.333120
F303	F	-0.020688	1.205345	0.666454
F304	F	-0.839441	0.038149	0.581129
F305	F	-0.506108	0.371482	0.914462
F306	F	-0.172775	0.704816	1.247795
H307	H	-0.733180	0.330029	0.079389
H308	H	-0.399847	0.663363	0.412723
H309	H	-0.066513	0.996696	0.746056
F310	F	-0.801018	-0.223136	0.581078
F311	F	-0.467685	0.110197	0.914411
F312	F	-0.134352	0.443530	1.247744
