data_functionalizedCrystal
_audit_creation_method	'MofGen! by Chris Wilmer'
_symmetry_space_group_name_H-M	'P1'
_symmetry_Int_Tables_number	1
_symmetry_cell_setting	triclinic
loop_
_symmetry_equiv_pos_as_xyz
  x,y,z
_cell_length_a	12.594517
_cell_length_b	12.594510
_cell_length_c	16.625546
_cell_angle_alpha	89.960609
_cell_angle_beta	90.018355
_cell_angle_gamma	89.988729
loop_
_atom_site_label
_atom_site_type_symbol
_atom_site_fract_x
_atom_site_fract_y
_atom_site_fract_z
Zn1	Zn	1.627217	-0.601543	-0.321017
Zn2	Zn	1.627089	-0.423549	-0.455882
Zn3	Zn	1.449222	-0.423602	-0.321057
Zn4	Zn	1.449183	-0.601509	-0.455802
O5	O	1.538178	-0.512551	-0.388439
O6	O	1.776146	-0.577923	-0.338924
O7	O	1.603457	-0.274610	-0.438047
O8	O	1.472903	-0.447243	-0.208219
O9	O	1.776052	-0.447152	-0.438008
O10	O	1.603676	-0.577975	-0.208190
O11	O	1.472779	-0.274649	-0.338992
O12	O	1.300271	-0.447211	-0.338914
O13	O	1.472838	-0.750460	-0.437872
O14	O	1.300243	-0.577918	-0.437911
O15	O	1.603638	-0.750484	-0.338847
O16	O	1.603419	-0.447119	-0.568703
O17	O	1.472713	-0.577866	-0.568645
C18	C	1.261637	-0.512567	-0.388409
C19	C	1.143331	-0.512599	-0.388415
C20	C	1.074094	-0.583554	-0.442365
C21	C	1.003296	-0.609740	-0.368847
C22	C	1.003330	-0.486389	-0.461994
C23	C	1.074092	-0.538837	-0.314858
C24	C	1.074132	-0.415440	-0.408055
C25	C	1.003366	-0.441590	-0.334486
C26	C	1.538248	-0.790172	-0.388346
C27	C	1.538278	-0.908478	-0.388307
C28	C	1.609442	-0.977744	-0.334443
C29	C	1.512369	-1.048554	-0.314701
C30	C	1.635408	-1.048467	-0.407992
C31	C	1.441153	-0.977729	-0.368527
C32	C	1.564258	-0.977636	-0.461852
C33	C	1.467118	-1.048414	-0.442139
C34	C	1.815799	-0.512535	-0.388471
C35	C	1.934104	-0.512529	-0.388484
C36	C	1.538077	-0.512506	-0.597930
C37	C	1.538131	-0.512523	-0.687551
C38	C	1.538169	-0.236010	-0.388474
C39	C	1.538345	-0.117705	-0.388286
C40	C	1.538317	-0.512634	-1.015727
C41	C	1.538262	-0.512606	-0.924418
C42	C	1.538223	-0.512578	-0.851642
C43	C	1.538170	-0.512551	-0.760328
C44	C	1.538308	-0.512619	-0.178130
C45	C	1.538363	-0.512648	-0.088509
H46	H	1.105045	-0.561069	-0.252643
H47	H	1.105152	-0.643635	-0.487900
O48	O	1.680980	-0.940585	-0.280025
C49	C	1.628229	-0.877546	-0.222491
H50	H	1.550779	-0.846476	-0.249094
H51	H	1.610266	-0.927436	-0.166896
C52	C	1.794617	-0.821427	-0.166133
C53	C	1.699496	-0.783258	-0.198810
H54	H	1.838579	-0.763268	-0.151522
H55	H	1.830157	-0.863900	-0.204893
H56	H	1.779634	-0.863001	-0.119808
H57	H	1.714479	-0.741696	-0.245140
H58	H	1.663960	-0.740775	-0.160058
O59	O	1.343089	-0.941004	-0.348585
C60	C	1.274537	-1.027559	-0.334611
H61	H	1.305980	-1.100653	-0.367256
H62	H	1.270401	-1.044423	-0.267305
C63	C	1.124144	-0.910812	-0.326072
C64	C	1.162760	-1.000586	-0.366174
H65	H	1.055193	-0.894174	-0.345538
H66	H	1.170329	-0.852498	-0.335484
H67	H	1.120707	-0.924878	-0.269987
H68	H	1.166209	-0.986515	-0.422257
H69	H	1.116572	-1.058898	-0.356772
O70	O	0.966123	-0.459841	-0.536130
C71	C	0.904602	-0.366600	-0.530526
H72	H	0.874075	-0.357311	-0.466371
H73	H	0.955542	-0.295009	-0.547013
C74	C	0.847321	-0.385410	-0.667590
C75	C	0.809820	-0.374007	-0.588796
H76	H	0.788857	-0.389976	-0.703537
H77	H	0.888772	-0.448227	-0.671368
H78	H	0.889771	-0.325749	-0.681318
H79	H	0.767382	-0.433673	-0.575066
H80	H	0.768360	-0.311200	-0.585018
H81	H	0.972507	-0.381556	-0.288839
O82	O	1.111238	-0.317514	-0.428005
C83	C	1.073596	-0.289370	-0.505000
H84	H	1.052567	-0.364308	-0.539964
H85	H	0.999932	-0.237429	-0.498671
C86	C	1.186223	-0.135524	-0.507483
C87	C	1.160403	-0.227564	-0.550428
H88	H	1.239767	-0.097395	-0.535504
H89	H	1.211581	-0.154481	-0.455608
H90	H	1.124828	-0.092252	-0.502211
H91	H	1.221794	-0.270840	-0.555690
H92	H	1.135058	-0.208612	-0.602305
O93	O	1.486353	-1.085674	-0.240446
C94	C	1.561527	-1.049655	-0.183844
H95	H	1.639003	-1.029757	-0.215920
H96	H	1.529868	-0.975625	-0.152548
C97	C	1.486595	-1.161630	-0.081567
C98	C	1.581756	-1.137199	-0.120962
H99	H	1.499071	-1.215628	-0.042776
H100	H	1.435946	-1.185894	-0.119699
H101	H	1.460222	-1.099931	-0.055493
H102	H	1.608120	-1.198894	-0.147043
H103	H	1.632410	-1.112947	-0.082833
O104	O	0.966211	-0.707786	-0.349193
C105	C	1.002258	-0.782397	-0.406175
H106	H	1.022144	-0.739934	-0.464841
H107	H	1.076301	-0.823804	-0.382204
C108	C	0.890327	-0.917475	-0.349494
C109	C	0.914742	-0.865323	-0.421552
H110	H	0.836346	-0.968631	-0.358977
H111	H	0.866044	-0.867211	-0.311102
H112	H	0.952037	-0.951972	-0.329526
H113	H	0.853036	-0.830816	-0.441513
H114	H	0.939013	-0.915584	-0.459948
O115	O	1.395425	-1.085269	-0.496557
C116	C	1.448202	-1.146848	-0.554977
H117	H	1.535424	-1.122892	-0.557421
H118	H	1.441782	-1.234481	-0.538464
C119	C	1.289574	-1.157516	-0.634798
C120	C	1.396700	-1.128087	-0.637803
H121	H	1.257803	-1.145949	-0.685888
H122	H	1.254015	-1.116033	-0.595437
H123	H	1.284239	-1.230543	-0.621033
H124	H	1.402033	-1.055060	-0.651557
H125	H	1.432258	-1.169558	-0.677168
H126	H	1.586239	-0.946464	-0.524039
O127	O	1.733395	-1.085590	-0.427731
C128	C	1.772856	-1.148793	-0.364391
H129	H	1.731673	-1.125794	-0.305889
H130	H	1.756779	-1.236041	-0.377953
C131	C	1.943892	-1.159287	-0.427759
C132	C	1.893317	-1.131034	-0.355906
H133	H	2.018198	-1.148338	-0.422527
H134	H	1.917306	-1.116710	-0.470435
H135	H	1.930483	-1.231993	-0.439053
H136	H	1.906715	-1.058327	-0.344618
H137	H	1.919908	-1.173599	-0.313228
