data_functionalizedCrystal
_audit_creation_method	'MofGen! by Chris Wilmer'
_symmetry_space_group_name_H-M	'P1'
_symmetry_Int_Tables_number	1
_symmetry_cell_setting	triclinic
loop_
_symmetry_equiv_pos_as_xyz
  x,y,z
_cell_length_a	19.805407
_cell_length_b	18.050589
_cell_length_c	18.050583
_cell_angle_alpha	90.028091
_cell_angle_beta	90.019169
_cell_angle_gamma	90.028221
loop_
_atom_site_label
_atom_site_type_symbol
_atom_site_fract_x
_atom_site_fract_y
_atom_site_fract_z
Zn1	Zn	1.034724	-0.295634	0.419954
Zn2	Zn	1.284724	-0.045634	0.669954
Zn3	Zn	1.534724	0.204366	0.919954
Zn4	Zn	1.784724	0.454366	1.169954
Zn5	Zn	1.034637	-0.419839	0.295773
Zn6	Zn	1.284637	-0.169839	0.545773
Zn7	Zn	1.534637	0.080161	0.795773
Zn8	Zn	1.784637	0.330161	1.045773
Zn9	Zn	0.921540	-0.295667	0.295776
Zn10	Zn	1.171540	-0.045667	0.545776
Zn11	Zn	1.421540	0.204333	0.795776
Zn12	Zn	1.671540	0.454333	1.045776
Zn13	Zn	0.921499	-0.419787	0.419920
Zn14	Zn	1.171499	-0.169787	0.669920
Zn15	Zn	1.421499	0.080213	0.919920
Zn16	Zn	1.671499	0.330213	1.169920
O17	O	0.978100	-0.357732	0.357855
O18	O	1.228100	-0.107732	0.607855
O19	O	1.478100	0.142268	0.857855
O20	O	1.728100	0.392268	1.107855
O21	O	1.129429	-0.312118	0.403494
O22	O	1.379429	-0.062118	0.653494
O23	O	1.629429	0.187882	0.903494
O24	O	1.879429	0.437882	1.153494
O25	O	1.019614	-0.403403	0.191849
O26	O	1.269614	-0.153403	0.441849
O27	O	1.519614	0.096597	0.691849
O28	O	1.769614	0.346597	0.941849
O29	O	0.936608	-0.191738	0.312264
O30	O	1.186608	0.058262	0.562264
O31	O	1.436608	0.308262	0.812264
O32	O	1.686608	0.558262	1.062264
O33	O	1.129365	-0.403371	0.312259
O34	O	1.379365	-0.153371	0.562259
O35	O	1.629365	0.096629	0.812259
O36	O	1.879365	0.346629	1.062259
O37	O	1.019764	-0.191714	0.403497
O38	O	1.269764	0.058286	0.653497
O39	O	1.519764	0.308286	0.903497
O40	O	1.769764	0.558286	1.153497
O41	O	0.936523	-0.312174	0.191851
O42	O	1.186523	-0.062174	0.441851
O43	O	1.436523	0.187826	0.691851
O44	O	1.686523	0.437826	0.941851
O45	O	0.826818	-0.312124	0.312230
O46	O	1.076818	-0.062124	0.562230
O47	O	1.326818	0.187876	0.812230
O48	O	1.576818	0.437876	1.062230
O49	O	0.936538	-0.403282	0.523849
O50	O	1.186538	-0.153282	0.773849
O51	O	1.436538	0.096718	1.023849
O52	O	1.686538	0.346718	1.273849
O53	O	0.826788	-0.403314	0.403438
O54	O	1.076788	-0.153314	0.653438
O55	O	1.326788	0.096686	0.903438
O56	O	1.576788	0.346686	1.153438
O57	O	1.019725	-0.312068	0.523874
O58	O	1.269725	-0.062068	0.773874
O59	O	1.519725	0.187932	1.023874
O60	O	1.769725	0.437932	1.273874
O61	O	1.019575	-0.523757	0.312226
O62	O	1.269575	-0.273757	0.562226
O63	O	1.519575	-0.023757	0.812226
O64	O	1.769575	0.226243	1.062226
O65	O	0.936453	-0.523718	0.403436
O66	O	1.186453	-0.273718	0.653436
O67	O	1.436453	-0.023718	0.903436
O68	O	1.686453	0.226282	1.153436
C69	C	0.802244	-0.357718	0.357831
C70	C	1.052244	-0.107718	0.607831
C71	C	1.302244	0.142282	0.857831
C72	C	1.552244	0.392282	1.107831
C73	C	0.727012	-0.357729	0.357839
C74	C	0.977012	-0.107729	0.607839
C75	C	1.227012	0.142271	0.857839
C76	C	1.477012	0.392271	1.107839
C77	C	0.691670	-0.405284	0.405254
C78	C	0.941670	-0.155284	0.655254
C79	C	1.191670	0.094716	0.905254
C80	C	1.441670	0.344716	1.155254
C81	C	0.620981	-0.405285	0.405264
C82	C	0.870981	-0.155285	0.655264
C83	C	1.120981	0.094715	0.905264
C84	C	1.370981	0.344715	1.155264
C85	C	0.585636	-0.357735	0.357855
C86	C	0.835636	-0.107735	0.607855
C87	C	1.085636	0.142265	0.857855
C88	C	1.335636	0.392265	1.107855
C89	C	0.620983	-0.310176	0.310438
C90	C	0.870983	-0.060176	0.560438
C91	C	1.120983	0.189824	0.810438
C92	C	1.370983	0.439824	1.060438
C93	C	0.691671	-0.310171	0.310432
C94	C	0.941671	-0.060171	0.560432
C95	C	1.191671	0.189829	0.810432
C96	C	1.441671	0.439829	1.060432
C97	C	0.335910	-0.310192	0.310463
C98	C	0.585910	-0.060192	0.560463
C99	C	0.835910	0.189808	0.810463
C100	C	1.085910	0.439808	1.060463
C101	C	0.265218	-0.310202	0.310471
C102	C	0.515218	-0.060202	0.560471
C103	C	0.765218	0.189798	0.810471
C104	C	1.015218	0.439798	1.060471
C105	C	0.265221	-0.405306	0.405295
C106	C	0.515221	-0.155306	0.655295
C107	C	0.765221	0.094694	0.905295
C108	C	1.015221	0.344694	1.155295
C109	C	0.335908	-0.405301	0.405289
C110	C	0.585908	-0.155301	0.655289
C111	C	0.835908	0.094699	0.905289
C112	C	1.085908	0.344699	1.155289
C113	C	0.371249	-0.357739	0.357875
C114	C	0.621249	-0.107739	0.607875
C115	C	0.871249	0.142261	0.857875
C116	C	1.121249	0.392261	1.107875
C117	C	0.447897	-0.357738	0.357865
C118	C	0.697897	-0.107738	0.607865
C119	C	0.947897	0.142262	0.857865
C120	C	1.197897	0.392262	1.107865
C121	C	0.508989	-0.357740	0.357861
C122	C	0.758989	-0.107740	0.607861
C123	C	1.008989	0.142260	0.857861
C124	C	1.258989	0.392260	1.107861
C125	C	0.978018	-0.550684	0.357843
C126	C	1.228018	-0.300684	0.607843
C127	C	1.478018	-0.050684	0.857843
C128	C	1.728018	0.199316	1.107843
C129	C	0.978045	-0.633230	0.357863
C130	C	1.228045	-0.383230	0.607863
C131	C	1.478045	-0.133230	0.857863
C132	C	1.728045	0.116770	1.107863
C133	C	0.932888	-0.832687	0.407445
C134	C	1.182888	-0.582687	0.657445
C135	C	1.432888	-0.332687	0.907445
C136	C	1.682888	-0.082687	1.157445
C137	C	0.916390	-0.882132	0.339678
C138	C	1.166390	-0.632132	0.589678
C139	C	1.416390	-0.382132	0.839678
C140	C	1.666390	-0.132132	1.089678
C141	C	0.978112	-0.784360	0.357872
C142	C	1.228112	-0.534360	0.607872
C143	C	1.478112	-0.284360	0.857872
C144	C	1.728112	-0.034360	1.107872
C145	C	0.994643	-0.881996	0.425648
C146	C	1.244643	-0.631996	0.675648
C147	C	1.494643	-0.381996	0.925648
C148	C	1.744643	-0.131996	1.175648
C149	C	0.978175	-0.930345	0.357888
C150	C	1.228175	-0.680345	0.607888
C151	C	1.478175	-0.430345	0.857888
C152	C	1.728175	-0.180345	1.107888
C153	C	0.961581	-0.832718	0.290069
C154	C	1.211581	-0.582718	0.540069
C155	C	1.461581	-0.332718	0.790069
C156	C	1.711581	-0.082718	1.040069
C157	C	1.039863	-0.832578	0.376085
C158	C	1.289863	-0.582578	0.626085
C159	C	1.539863	-0.332578	0.876085
C160	C	1.789863	-0.082578	1.126085
C161	C	1.023388	-0.882001	0.308270
C162	C	1.273388	-0.632001	0.558270
C163	C	1.523388	-0.382001	0.808270
C164	C	1.773388	-0.132001	1.058270
C165	C	0.978074	-0.700262	0.357865
C166	C	1.228074	-0.450262	0.607865
C167	C	1.478074	-0.200262	0.857865
C168	C	1.728074	0.049738	1.107865
C169	C	0.978213	-1.014442	0.357888
C170	C	1.228213	-0.764442	0.607888
C171	C	1.478213	-0.514442	0.857888
C172	C	1.728213	-0.264442	1.107888
C173	C	1.154643	-0.357747	0.357880
C174	C	1.404643	-0.107747	0.607880
C175	C	1.654643	0.142253	0.857880
C176	C	1.904643	0.392253	1.107880
C177	C	1.229875	-0.357753	0.357890
C178	C	1.479875	-0.107753	0.607890
C179	C	1.729875	0.142247	0.857890
C180	C	1.979875	0.392247	1.107890
C181	C	0.978137	-0.357665	0.551561
C182	C	1.228137	-0.107665	0.801561
C183	C	1.478137	0.142335	1.051561
C184	C	1.728137	0.392335	1.301561
C185	C	0.978152	-0.357637	0.634107
C186	C	1.228152	-0.107637	0.884107
C187	C	1.478152	0.142363	1.134107
C188	C	1.728152	0.392363	1.384107
C189	C	0.978200	-0.164026	0.357884
C190	C	1.228200	0.085974	0.607884
C191	C	1.478200	0.335974	0.857884
C192	C	1.728200	0.585974	1.107884
C193	C	0.978243	-0.081480	0.357896
C194	C	1.228243	0.168520	0.607896
C195	C	1.478243	0.418520	0.857896
C196	C	1.728243	0.668520	1.107896
C197	C	0.978102	-0.357744	0.164903
C198	C	1.228102	-0.107744	0.414903
C199	C	1.478102	0.142256	0.664903
C200	C	1.728102	0.392256	0.914903
C201	C	0.978218	-0.357563	0.082358
C202	C	1.228218	-0.107563	0.332358
C203	C	1.478218	0.142437	0.582358
C204	C	1.728218	0.392437	0.832358
C205	C	1.023431	-0.307985	0.882946
C206	C	1.273431	-0.057985	1.132946
C207	C	1.523431	0.192015	1.382946
C208	C	1.773431	0.442015	1.632946
C209	C	1.039947	-0.375748	0.833538
C210	C	1.289947	-0.125748	1.083538
C211	C	1.539947	0.124252	1.333538
C212	C	1.789947	0.374252	1.583538
C213	C	0.978196	-0.357590	0.931228
C214	C	1.228196	-0.107590	1.181228
C215	C	1.478196	0.142410	1.431228
C216	C	1.728196	0.392410	1.681228
C217	C	0.961690	-0.289854	0.833554
C218	C	1.211690	-0.039854	1.083554
C219	C	1.461690	0.210146	1.333554
C220	C	1.711690	0.460146	1.583554
C221	C	0.978176	-0.357610	0.785242
C222	C	1.228176	-0.107610	1.035242
C223	C	1.478176	0.142390	1.285242
C224	C	1.728176	0.392390	1.535242
C225	C	0.994744	-0.425389	0.882906
C226	C	1.244744	-0.175389	1.132906
C227	C	1.494744	0.074611	1.382906
C228	C	1.744744	0.324611	1.632906
C229	C	0.916458	-0.339449	0.882927
C230	C	1.166458	-0.089449	1.132927
C231	C	1.416458	0.160551	1.382927
C232	C	1.666458	0.410551	1.632927
C233	C	0.932951	-0.407259	0.833541
C234	C	1.182951	-0.157259	1.083541
C235	C	1.432951	0.092741	1.333541
C236	C	1.682951	0.342741	1.583541
C237	C	0.978209	-0.357578	1.015326
C238	C	1.228209	-0.107578	1.265326
C239	C	1.478209	0.142422	1.515326
C240	C	1.728209	0.392422	1.765326
C241	C	0.978163	-0.357629	0.701146
C242	C	1.228163	-0.107629	0.951146
C243	C	1.478163	0.142371	1.201146
C244	C	1.728163	0.392371	1.451146
H245	H	0.364676	-0.271470	0.271850
H246	H	0.614676	-0.021470	0.521850
H247	H	0.864676	0.228530	0.771850
H248	H	1.114676	0.478530	1.021850
H249	H	1.061659	-0.903518	0.266306
H250	H	1.311659	-0.653518	0.516306
H251	H	1.561659	-0.403518	0.766306
H252	H	1.811659	-0.153518	1.016306
H253	H	0.894689	-0.449266	0.811985
H254	H	1.144689	-0.199266	1.061985
H255	H	1.394689	0.050734	1.311985
H256	H	1.644689	0.300734	1.561985
H257	H	0.894588	-0.811032	0.449308
H258	H	1.144588	-0.561032	0.699308
H259	H	1.394588	-0.311032	0.949308
H260	H	1.644588	-0.061032	1.199308
F261	F	1.012885	-0.910292	0.500556
F262	F	1.262885	-0.660292	0.750556
F263	F	1.512885	-0.410292	1.000556
F264	F	1.762885	-0.160292	1.250556
H265	H	0.720443	-0.444007	0.443857
H266	H	0.970443	-0.194007	0.693857
H267	H	1.220443	0.055993	0.943857
H268	H	1.470443	0.305993	1.193857
H269	H	0.236442	-0.271477	0.271865
H270	H	0.486442	-0.021477	0.521865
H271	H	0.736442	0.228523	0.771865
H272	H	0.986442	0.478523	1.021865
F273	F	0.583371	-0.455898	0.455730
F274	F	0.833371	-0.205898	0.705730
F275	F	1.083371	0.044102	0.955730
F276	F	1.333371	0.294102	1.205730
F277	F	0.373521	-0.455913	0.455745
F278	F	0.623521	-0.205913	0.705745
F279	F	0.873521	0.044087	0.955745
F280	F	1.123521	0.294087	1.205745
H281	H	0.720445	-0.271444	0.271826
H282	H	0.970445	-0.021444	0.521826
H283	H	1.220445	0.228556	0.771826
H284	H	1.470445	0.478556	1.021826
H285	H	0.864199	-0.903915	0.324288
H286	H	1.114199	-0.653915	0.574288
H287	H	1.364199	-0.403915	0.824288
H288	H	1.614199	-0.153915	1.074288
F289	F	0.943261	-0.804546	0.215138
F290	F	1.193261	-0.554546	0.465138
F291	F	1.443261	-0.304546	0.715138
F292	F	1.693261	-0.054546	0.965138
F293	F	0.943453	-0.214971	0.805216
F294	F	1.193453	0.035029	1.055216
F295	F	1.443453	0.285029	1.305216
F296	F	1.693453	0.535029	1.555216
F297	F	0.583365	-0.259565	0.259987
F298	F	0.833365	-0.009565	0.509987
F299	F	1.083365	0.240435	0.759987
F300	F	1.333365	0.490435	1.009987
F301	F	1.108066	-0.804107	0.396243
F302	F	1.358066	-0.554107	0.646243
F303	F	1.608066	-0.304107	0.896243
F304	F	1.858066	-0.054107	1.146243
H305	H	0.864272	-0.324072	0.904639
H306	H	1.114272	-0.074072	1.154639
H307	H	1.364272	0.175928	1.404639
H308	H	1.614272	0.425928	1.654639
H309	H	1.061723	-0.266079	0.904638
H310	H	1.311723	-0.016079	1.154638
H311	H	1.561723	0.233921	1.404638
H312	H	1.811723	0.483921	1.654638
F313	F	1.013062	-0.500295	0.911120
F314	F	1.263062	-0.250295	1.161120
F315	F	1.513062	-0.000295	1.411120
F316	F	1.763062	0.249705	1.661120
F317	F	0.227603	-0.455925	0.455759
F318	F	0.477603	-0.205925	0.705759
F319	F	0.727603	0.044075	0.955759
F320	F	0.977603	0.294075	1.205759
F321	F	1.108178	-0.395822	0.805181
F322	F	1.358178	-0.145822	1.055181
F323	F	1.608178	0.104178	1.305181
F324	F	1.858178	0.354178	1.555181
