data_functionalizedCrystal
_audit_creation_method	'MofGen! by Chris Wilmer'
_symmetry_space_group_name_H-M	'P1'
_symmetry_Int_Tables_number	1
_symmetry_cell_setting	triclinic
loop_
_symmetry_equiv_pos_as_xyz
  x,y,z
_cell_length_a	12.759401
_cell_length_b	18.101395
_cell_length_c	12.759393
_cell_angle_alpha	89.966555
_cell_angle_beta	89.981504
_cell_angle_gamma	90.031265
loop_
_atom_site_label
_atom_site_type_symbol
_atom_site_fract_x
_atom_site_fract_y
_atom_site_fract_z
Zn1	Zn	1.606136	-0.294783	-0.593968
Zn2	Zn	1.605980	-0.418644	-0.418282
Zn3	Zn	1.430438	-0.294822	-0.418307
Zn4	Zn	1.430376	-0.418587	-0.593923
O5	O	1.518232	-0.356709	-0.506120
O6	O	1.753136	-0.311221	-0.570671
O7	O	1.582654	-0.402259	-0.271264
O8	O	1.453835	-0.191183	-0.441638
O9	O	1.753021	-0.402221	-0.441595
O10	O	1.582920	-0.191155	-0.570695
O11	O	1.453684	-0.311287	-0.271283
O12	O	1.283408	-0.311232	-0.441595
O13	O	1.453730	-0.402124	-0.740950
O14	O	1.283363	-0.402162	-0.570619
O15	O	1.582860	-0.311166	-0.740983
O16	O	1.582594	-0.522270	-0.441552
O17	O	1.453579	-0.522228	-0.570595
C18	C	1.245265	-0.356695	-0.506106
C19	C	1.128488	-0.356707	-0.506125
C20	C	1.073630	-0.404131	-0.573197
C21	C	0.963906	-0.404140	-0.573208
C22	C	0.963908	-0.309301	-0.439066
C23	C	1.073630	-0.309288	-0.439061
C24	C	1.128488	-0.451550	-0.640260
C25	C	1.073630	-0.498977	-0.707337
C26	C	0.963906	-0.498987	-0.707348
C27	C	0.909040	-0.451568	-0.640283
C28	C	1.518092	-0.549120	-0.506089
C29	C	1.518128	-0.631434	-0.506111
C30	C	1.518358	-0.930525	-0.506168
C31	C	1.437374	-0.899204	-0.587559
C32	C	1.436989	-0.813586	-0.587305
C33	C	1.518244	-0.782142	-0.506140
C34	C	1.488263	-0.813302	-0.395415
C35	C	1.487741	-0.898947	-0.395903
C36	C	1.629501	-0.898866	-0.534526
C37	C	1.628847	-0.813215	-0.536954
C38	C	1.518181	-0.698283	-0.506118
C39	C	1.518418	-1.014384	-0.506182
C40	C	1.792265	-0.356723	-0.506135
C41	C	1.909042	-0.356729	-0.506141
C42	C	1.518306	-0.356634	-0.780153
C43	C	1.518337	-0.356602	-0.896930
C44	C	1.518402	-0.163547	-0.506174
C45	C	1.518474	-0.081233	-0.506197
C46	C	1.585584	-0.309236	-0.951811
C47	C	1.585609	-0.309209	-1.061535
C48	C	1.451137	-0.403922	-1.061488
C49	C	1.451108	-0.403944	-0.951766
C50	C	1.652814	-0.261894	-0.896975
C51	C	1.720068	-0.214524	-0.951856
C52	C	1.720092	-0.214497	-1.061580
C53	C	1.652864	-0.261840	-1.116423
C54	C	1.518219	-0.356730	-0.233153
C55	C	1.518392	-0.356553	-0.116376
H56	H	1.217831	-0.451549	-0.640256
H57	H	1.455945	-0.919745	-0.669927
C58	C	0.903559	-0.257147	-0.365294
C59	C	0.963901	-0.204979	-0.291516
C60	C	0.903553	-0.152826	-0.217741
C61	C	0.782863	-0.152840	-0.217744
C62	C	0.722514	-0.205009	-0.291524
C63	C	0.782862	-0.257163	-0.365300
H64	H	1.053249	-0.204967	-0.291512
H65	H	0.948228	-0.114206	-0.163124
H66	H	0.738190	-0.114232	-0.163131
H67	H	0.633166	-0.205022	-0.291529
H68	H	0.738187	-0.295783	-0.419917
C69	C	1.794013	-0.162447	-0.891533
C70	C	1.748525	-0.104321	-0.816115
C71	C	1.822472	-0.052242	-0.755794
C72	C	1.941906	-0.058289	-0.770892
C73	C	1.987399	-0.116418	-0.846314
C74	C	1.913453	-0.168497	-0.906634
H75	H	1.660108	-0.099842	-0.804936
H76	H	1.788794	-0.009212	-0.699962
H77	H	1.996645	-0.019738	-0.726239
H78	H	2.075817	-0.120897	-0.857493
H79	H	1.947131	-0.211527	-0.962466
H80	H	1.118297	-0.270667	-0.384453
H81	H	1.355493	-0.920792	-0.569012
H82	H	1.545393	-0.792936	-0.333119
C83	C	1.377198	-0.456002	-1.121813
C84	C	1.377233	-0.455981	-1.242503
C85	C	1.303295	-0.508065	-1.302826
C86	C	1.229322	-0.560169	-1.242459
C87	C	1.229284	-0.560191	-1.121762
C88	C	1.303222	-0.508108	-1.061439
H89	H	1.431995	-0.417409	-1.287196
H90	H	1.303324	-0.508047	-1.392174
H91	H	1.174589	-0.598724	-1.287114
H92	H	1.174523	-0.598764	-1.077069
H93	H	1.303193	-0.508125	-0.972091
H94	H	1.118309	-0.537579	-0.761945
C95	C	1.377148	-0.456050	-0.891378
C96	C	1.257719	-0.450003	-0.906441
C97	C	1.183759	-0.502107	-0.846046
C98	C	1.229229	-0.560257	-0.770588
C99	C	1.348665	-0.566306	-0.755522
C100	C	1.422625	-0.514202	-0.815916
H101	H	1.224054	-0.406955	-0.962303
H102	H	1.095344	-0.497629	-0.857200
H103	H	1.174480	-0.598828	-0.725881
H104	H	1.382330	-0.609355	-0.699660
H105	H	1.511039	-0.518680	-0.804762
H106	H	1.407879	-0.791919	-0.370962
H107	H	1.455746	-0.792516	-0.669407
H108	H	1.656833	-0.920408	-0.613890
H109	H	0.919243	-0.537599	-0.761972
C110	C	1.325700	-0.785990	-0.561925
C111	C	1.236902	-0.841882	-0.541818
C112	C	1.125608	-0.814287	-0.516435
C113	C	1.103112	-0.730798	-0.511157
C114	C	1.191913	-0.674901	-0.531264
C115	C	1.303207	-0.702496	-0.556648
H116	H	1.253552	-0.903690	-0.545725
H117	H	1.059872	-0.855666	-0.501551
H118	H	1.020726	-0.710370	-0.492367
H119	H	1.175263	-0.613093	-0.527358
H120	H	1.368942	-0.661117	-0.571532
C121	C	1.711016	-0.926230	-0.454449
C122	C	1.805307	-0.972492	-0.491336
C123	C	1.886811	-0.999862	-0.411256
C124	C	1.874024	-0.980969	-0.294290
C125	C	1.779730	-0.934705	-0.257397
C126	C	1.698225	-0.907335	-0.337477
H127	H	1.814776	-0.986480	-0.577927
H128	H	1.956614	-1.034110	-0.438567
H129	H	1.934359	-1.001230	-0.235010
H130	H	1.770261	-0.920717	-0.170807
H131	H	1.628422	-0.873087	-0.310166
H132	H	1.651456	-0.792845	-0.618442
H133	H	1.774846	-0.175921	-1.106261
C134	C	1.377985	-0.926033	-0.363458
C135	C	1.291422	-0.869733	-0.337286
C136	C	1.181662	-0.896815	-0.304844
C137	C	1.158466	-0.980196	-0.298575
C138	C	1.245031	-1.036501	-0.324748
C139	C	1.354791	-1.009419	-0.357190
H140	H	1.308591	-0.808005	-0.341926
H141	H	1.117581	-0.855134	-0.285469
H142	H	1.077215	-1.000243	-0.274560
H143	H	1.227862	-1.098229	-0.320108
H144	H	1.418873	-1.051100	-0.376565
H145	H	0.819695	-0.451573	-0.640307
H146	H	1.544168	-0.919669	-0.333192
H147	H	1.692377	-0.791806	-0.481993
H148	H	1.652803	-0.261912	-0.807632
H149	H	1.652878	-0.261806	-1.205768
