data_functionalizedCrystal
_audit_creation_method	'MofGen! by Chris Wilmer'
_symmetry_space_group_name_H-M	'P1'
_symmetry_Int_Tables_number	1
_symmetry_cell_setting	triclinic
loop_
_symmetry_equiv_pos_as_xyz
  x,y,z
_cell_length_a	10.654545
_cell_length_b	14.044220
_cell_length_c	9.130313
_cell_angle_alpha	90.003971
_cell_angle_beta	90.003278
_cell_angle_gamma	88.835978
loop_
_atom_site_label
_atom_site_type_symbol
_atom_site_fract_x
_atom_site_fract_y
_atom_site_fract_z
O1	O	1.681230	0.133209	0.121789
O2	O	1.317026	0.145907	0.121796
O3	O	1.493661	0.001537	0.121778
O4	O	1.504595	0.277578	0.121807
O5	O	1.493647	0.001537	-0.121821
O6	O	1.317012	0.145907	-0.121803
O7	O	1.681215	0.133209	-0.121810
Cu8	Cu	1.499112	0.139558	-0.144049
Cu9	Cu	1.499129	0.139558	0.144035
O10	O	1.504580	0.277578	-0.121792
C11	C	1.270128	0.144975	-0.000003
C12	C	1.130404	0.142189	-0.000001
C13	C	1.064760	0.140877	-0.132788
C14	C	0.933476	0.138243	-0.132788
C15	C	0.933491	0.138236	0.132797
C16	C	1.064773	0.140864	0.132796
C17	C	1.488868	-0.033808	-0.000022
C18	C	1.474593	-0.139128	-0.000023
C19	C	1.448494	-0.331961	-0.000002
C20	C	1.549742	-0.388929	0.000001
C21	C	1.535220	-0.496228	0.000013
C22	C	1.463014	-0.224652	-0.000014
C23	C	1.728114	0.134140	-0.000008
C24	C	1.867838	0.136927	-0.000000
C25	C	1.509373	0.312924	0.000011
C26	C	1.523649	0.418244	0.000022
N27	N	1.499109	0.139557	-0.346671
C28	C	1.581776	0.197624	-0.423313
C29	C	1.581795	0.197619	-0.576650
C30	C	1.416471	0.081477	-0.576690
C31	C	1.416459	0.081478	-0.423356
N32	N	1.499141	0.139551	0.346658
H33	H	1.118192	0.141956	-0.240919
Br34	Br	0.844391	0.136461	-0.313007
H35	H	1.118223	0.141929	0.240933
H36	H	1.649112	0.244902	-0.639045
Br37	Br	0.844415	0.136409	0.313012
H38	H	1.647329	-0.357118	0.000097
H39	H	1.350914	-0.363770	0.000004
Br40	Br	1.304301	0.002666	-0.680771
Br41	Br	1.304260	0.002667	-0.319332
H42	H	1.649075	0.244916	-0.360881
