data_functionalizedCrystal
_audit_creation_method	'MofGen! by Chris Wilmer'
_symmetry_space_group_name_H-M	'P1'
_symmetry_Int_Tables_number	1
_symmetry_cell_setting	triclinic
loop_
_symmetry_equiv_pos_as_xyz
  x,y,z
_cell_length_a	16.625546
_cell_length_b	14.908932
_cell_length_c	14.908308
_cell_angle_alpha	83.630060
_cell_angle_beta	93.264070
_cell_angle_gamma	86.677597
loop_
_atom_site_label
_atom_site_type_symbol
_atom_site_fract_x
_atom_site_fract_y
_atom_site_fract_z
Zn1	Zn	-0.273405	-1.354229	-0.432055
Zn2	Zn	-0.400000	-1.362862	-0.280696
Zn3	Zn	-0.273439	-1.211602	-0.289431
Zn4	Zn	-0.416457	-1.202832	-0.440723
O5	O	-0.340825	-1.282881	-0.360726
O6	O	-0.283296	-1.482037	-0.404693
O7	O	-0.376338	-1.350080	-0.155194
O8	O	-0.160601	-1.230580	-0.308378
O9	O	-0.376305	-1.488379	-0.293490
O10	O	-0.160575	-1.335367	-0.413163
O11	O	-0.283355	-1.238950	-0.161611
O12	O	-0.299312	-1.083776	-0.316783
O13	O	-0.404354	-1.215632	-0.566234
O14	O	-0.404387	-1.077333	-0.427938
O15	O	-0.299254	-1.326863	-0.559865
O16	O	-0.515017	-1.341576	-0.301896
O17	O	-0.527108	-1.224003	-0.419468
C18	C	-0.353640	-1.047712	-0.374250
C19	C	-0.359143	-0.947105	-0.380056
C20	C	-0.550319	-1.282798	-0.360693
C21	C	-0.639938	-1.282843	-0.360705
C22	C	-0.353636	-1.269306	-0.596810
C23	C	-0.359095	-1.263521	-0.697414
C24	C	-0.968110	-1.282996	-0.360790
C25	C	-0.876803	-1.282950	-0.360769
C26	C	-0.804027	-1.282919	-0.360747
C27	C	-0.712714	-1.282875	-0.360727
C28	C	-0.130513	-1.282989	-0.360778
C29	C	-0.040891	-1.283034	-0.360800
C30	C	-0.421678	-0.801978	-0.446009
C31	C	-0.416508	-0.896507	-0.440560
C32	C	-0.306944	-0.903166	-0.324995
C33	C	-0.312114	-0.808637	-0.330443
C34	C	-0.369482	-0.758046	-0.390953
C35	C	-0.374647	-0.663514	-0.396405
C36	C	-0.265087	-0.670176	-0.280835
C37	C	-0.259917	-0.764705	-0.275387
C38	C	-0.327953	-0.518969	-0.347145
C39	C	-0.322448	-0.619576	-0.341343
C40	C	-0.259894	-1.368472	-0.879831
C41	C	-0.265021	-1.363040	-0.974358
C42	C	-0.374470	-1.247219	-0.980997
C43	C	-0.369344	-1.252652	-0.886470
C44	C	-0.312055	-1.313281	-0.835890
C45	C	-0.306933	-1.318718	-0.741361
C46	C	-0.416377	-1.202893	-0.748002
C47	C	-0.421504	-1.197461	-0.842529
C48	C	-0.328003	-1.296456	-0.125558
C49	C	-0.322307	-1.302416	-0.024944
H50	H	-0.421356	-0.622324	-0.445679
C51	C	-0.473927	-0.944829	-0.501128
N52	N	-0.517178	-0.981224	-0.546750
H53	H	-0.222544	-1.407980	-1.010131
C54	C	-0.196809	-0.820365	-0.208838
N55	N	-0.149269	-0.862287	-0.158718
H56	H	-0.421111	-1.197857	-1.022195
C57	C	-0.207668	-0.621843	-0.220268
N58	N	-0.164421	-0.585438	-0.174652
C59	C	-0.243912	-1.385408	-0.685725
N60	N	-0.196440	-1.435638	-0.643822
H61	H	-0.468145	-1.148096	-0.883724
C62	C	-0.473758	-1.142180	-0.699660
N63	N	-0.516977	-1.096453	-0.663247
H64	H	-0.213251	-1.417844	-0.838648
H65	H	-0.468383	-0.760785	-0.495286
C66	C	-0.243837	-0.958832	-0.258448
N67	N	-0.196299	-1.000760	-0.208331
