data_functionalizedCrystal
_audit_creation_method	'MofGen! by Chris Wilmer'
_symmetry_space_group_name_H-M	'P1'
_symmetry_Int_Tables_number	1
_symmetry_cell_setting	triclinic
loop_
_symmetry_equiv_pos_as_xyz
  x,y,z
_cell_length_a	21.395362
_cell_length_b	21.295417
_cell_length_c	21.395355
_cell_angle_alpha	89.978549
_cell_angle_beta	89.956060
_cell_angle_gamma	90.046383
loop_
_atom_site_label
_atom_site_type_symbol
_atom_site_fract_x
_atom_site_fract_y
_atom_site_fract_z
Zn1	Zn	0.957860	-0.250415	-0.354573
Zn2	Zn	1.457860	0.249585	0.145427
Zn3	Zn	0.957763	-0.355667	-0.249790
Zn4	Zn	1.457763	0.144333	0.250210
Zn5	Zn	0.853075	-0.250445	-0.249774
Zn6	Zn	1.353075	0.249555	0.250226
Zn7	Zn	0.853045	-0.355680	-0.354495
Zn8	Zn	1.353045	0.144320	0.145505
O9	O	0.905436	-0.303052	-0.302158
O10	O	1.405436	0.196948	0.197842
O11	O	1.045525	-0.264359	-0.340713
O12	O	1.545525	0.235641	0.159287
O13	O	0.943848	-0.341716	-0.162110
O14	O	1.443848	0.158284	0.337890
O15	O	0.867029	-0.162351	-0.263702
O16	O	1.367029	0.337649	0.236298
O17	O	1.045454	-0.341687	-0.263729
O18	O	1.545454	0.158313	0.236271
O19	O	0.944014	-0.162330	-0.340697
O20	O	1.444014	0.337670	0.159303
O21	O	0.866934	-0.264409	-0.162098
O22	O	1.366934	0.235591	0.337902
O23	O	0.765393	-0.264422	-0.263626
O24	O	1.265393	0.235578	0.236374
O25	O	0.866977	-0.341709	-0.442183
O26	O	1.366977	0.158291	0.057817
O27	O	0.765371	-0.341738	-0.340564
O28	O	1.265371	0.158262	0.159436
O29	O	0.943984	-0.264372	-0.442240
O30	O	1.443984	0.235628	0.057760
O31	O	0.943819	-0.443758	-0.263653
O32	O	1.443819	0.056242	0.236347
O33	O	0.866883	-0.443767	-0.340579
O34	O	1.366883	0.056233	0.159421
C35	C	0.742648	-0.303085	-0.302085
C36	C	1.242648	0.196915	0.197915
C37	C	0.673007	-0.303114	-0.302069
C38	C	1.173007	0.196886	0.197931
C39	C	0.640299	-0.343426	-0.342070
C40	C	1.140299	0.156574	0.157930
C41	C	0.574863	-0.343411	-0.342098
C42	C	1.074863	0.156589	0.157902
C43	C	0.542139	-0.303090	-0.302114
C44	C	1.042139	0.196910	0.197886
C45	C	0.574855	-0.262771	-0.262109
C46	C	1.074855	0.237229	0.237891
C47	C	0.640289	-0.262783	-0.262087
C48	C	1.140289	0.237217	0.237913
C49	C	0.438414	-0.298019	-0.245709
C50	C	0.938414	0.201981	0.254291
C51	C	0.372981	-0.298011	-0.245730
C52	C	0.872981	0.201989	0.254270
C53	C	0.340318	-0.303049	-0.302183
C54	C	0.840318	0.196951	0.197817
C55	C	0.373096	-0.308108	-0.358616
C56	C	0.873096	0.191892	0.141384
C57	C	0.438530	-0.308120	-0.358594
C58	C	0.938530	0.191880	0.141406
C59	C	0.471186	-0.303072	-0.302134
C60	C	0.971186	0.196928	0.197866
C61	C	0.236657	-0.343346	-0.342218
C62	C	0.736657	0.156654	0.157782
C63	C	0.171221	-0.343326	-0.342247
C64	C	0.671221	0.156674	0.157753
C65	C	0.171214	-0.262690	-0.262252
C66	C	0.671214	0.237310	0.237748
C67	C	0.236649	-0.262706	-0.262229
C68	C	0.736649	0.237294	0.237771
C69	C	0.269367	-0.303038	-0.302211
C70	C	0.769367	0.196962	0.197789
C71	C	0.905354	-0.466603	-0.302123
C72	C	1.405354	0.033397	0.197877
C73	C	0.905376	-0.536571	-0.302129
C74	C	1.405376	-0.036571	0.197871
C75	C	0.945472	-0.569412	-0.262115
C76	C	1.445472	-0.069412	0.237885
C77	C	0.945502	-0.635155	-0.262129
C78	C	1.445502	-0.135155	0.237871
C79	C	0.905424	-0.668054	-0.302151
C80	C	1.405424	-0.168054	0.197849
C81	C	0.865324	-0.635205	-0.342173
C82	C	1.365324	-0.135205	0.157827
C83	C	0.865301	-0.569464	-0.342162
C84	C	1.365301	-0.069464	0.157838
N85	N	0.850614	-0.771336	-0.306903
N86	N	1.350614	-0.271336	0.193097
N87	N	0.850638	-0.833787	-0.306910
N88	N	1.350638	-0.333787	0.193090
C89	C	0.905494	-0.866129	-0.302187
C90	C	1.405494	-0.366129	0.197813
N91	N	0.960325	-0.833659	-0.297445
N92	N	1.460325	-0.333659	0.202555
N93	N	0.960300	-0.771202	-0.297435
N94	N	1.460300	-0.271202	0.202565
C95	C	0.905445	-0.739339	-0.302167
C96	C	1.405445	-0.239339	0.197833
C97	C	0.945625	-0.970255	-0.262186
C98	C	1.445625	-0.470255	0.237814
C99	C	0.945656	-1.035999	-0.262204
C100	C	1.445656	-0.535999	0.237796
C101	C	0.865473	-1.036048	-0.342245
C102	C	1.365473	-0.536048	0.157755
C103	C	0.865448	-0.970305	-0.342230
C104	C	1.365448	-0.470305	0.157770
C105	C	0.905523	-0.937413	-0.302197
C106	C	1.405523	-0.437413	0.197803
C107	C	1.068859	-0.303019	-0.302231
C108	C	1.568859	0.196981	0.197769
C109	C	1.138501	-0.303005	-0.302262
C110	C	1.638501	0.196995	0.197738
C111	C	0.905488	-0.303039	-0.465581
C112	C	1.405488	0.196961	0.034419
C113	C	0.905510	-0.303033	-0.535223
C114	C	1.405510	0.196967	-0.035223
C115	C	0.905535	-0.138861	-0.302206
C116	C	1.405535	0.361139	0.197794
C117	C	0.905578	-0.068893	-0.302227
C118	C	1.405578	0.431107	0.197773
C119	C	0.945606	-0.262762	-0.567967
C120	C	1.445606	0.237238	-0.067967
C121	C	0.945605	-0.262735	-0.633402
C122	C	1.445605	0.237265	-0.133402
C123	C	0.905515	-0.302991	-0.666091
C124	C	1.405515	0.197009	-0.166091
C125	C	0.865411	-0.343265	-0.633339
C126	C	1.365411	0.156735	-0.133339
C127	C	0.865409	-0.343286	-0.567905
C128	C	1.365409	0.156714	-0.067905
C129	C	0.900539	-0.359672	-0.769752
C130	C	1.400539	0.140328	-0.269752
C131	C	0.900546	-0.359652	-0.835185
C132	C	1.400546	0.140348	-0.335185
C133	C	0.905519	-0.302924	-0.867912
C134	C	1.405519	0.197076	-0.367912
C135	C	0.910498	-0.246215	-0.835198
C136	C	1.410498	0.253785	-0.335198
C137	C	0.910496	-0.246237	-0.769763
C138	C	1.410496	0.253763	-0.269763
C139	C	0.905513	-0.302972	-0.737043
C140	C	1.405513	0.197028	-0.237043
C141	C	0.945616	-0.262620	-0.971608
C142	C	1.445616	0.237380	-0.471608
C143	C	0.945611	-0.262592	-1.037045
C144	C	1.445611	0.237408	-0.537045
C145	C	0.865420	-0.343127	-1.036981
C146	C	1.365420	0.156873	-0.536981
C147	C	0.865422	-0.343150	-0.971545
C148	C	1.365422	0.156850	-0.471545
C149	C	0.905523	-0.302897	-0.938863
C150	C	1.405523	0.197103	-0.438863
C151	C	0.905420	-0.303019	-0.139370
C152	C	1.405420	0.196981	0.360630
C153	C	0.905519	-0.302847	-0.069729
C154	C	1.405519	0.197153	0.430271
H155	H	0.144590	-0.376152	-0.374825
H156	H	0.644590	0.123848	0.125175
H157	H	0.978259	-0.229985	-0.541361
H158	H	1.478259	0.270015	-0.041361
C159	C	0.821309	-0.387543	-0.669298
C160	C	1.321309	0.112457	-0.169298
N161	N	0.788087	-0.420892	-0.696382
N162	N	1.288087	0.079108	-0.196382
H163	H	0.832843	-1.062834	-0.374834
H164	H	1.332843	-0.562834	0.125166
C165	C	0.989767	-1.072123	-0.218182
C166	C	1.489767	-0.572123	0.281818
N167	N	1.022991	-1.099333	-0.185023
N168	N	1.522991	-0.599333	0.314977
C169	C	0.538857	-0.218418	-0.218126
C170	C	1.038857	0.281582	0.281874
N171	N	0.511743	-0.185009	-0.184998
N172	N	1.011743	0.314991	0.315002
H173	H	0.896322	-0.405855	-0.743111
H174	H	1.396322	0.094145	-0.243111
H175	H	0.832755	-0.376079	-0.541245
H176	H	1.332755	0.123921	-0.041245
C177	C	0.989720	-0.218436	-0.669428
C178	C	1.489720	0.281564	-0.169428
N179	N	1.022948	-0.185071	-0.696560
N180	N	1.522948	0.314929	-0.196560
H181	H	0.914548	-0.200022	-0.861842
H182	H	1.414548	0.299978	-0.361842
C183	C	0.676284	-0.387790	-0.386054
C184	C	1.176284	0.112210	0.113946
N185	N	0.703390	-0.421205	-0.419183
N186	N	1.203390	0.078795	0.080817
H187	H	0.548227	-0.376237	-0.374675
H188	H	1.048227	0.123763	0.125325
H189	H	0.666920	-0.229954	-0.229513
H190	H	1.166920	0.270046	0.270487
H191	H	0.832649	-0.542724	-0.374747
H192	H	1.332649	-0.042724	0.125253
C193	C	0.272630	-0.218365	-0.218218
C194	C	0.772630	0.281635	0.281782
N195	N	0.299730	-0.184965	-0.185067
N196	N	0.799730	0.315035	0.314933
H197	H	0.832795	-0.943565	-0.374811
H198	H	1.332795	-0.443565	0.125189
H199	H	0.144570	-0.229857	-0.229699
H200	H	0.644570	0.270143	0.270301
C201	C	0.915964	-0.183857	-0.733780
C202	C	1.415964	0.316143	-0.233780
N203	N	0.920079	-0.136872	-0.706678
N204	N	1.420079	0.363128	-0.206678
C205	C	0.989550	-0.533234	-0.218071
C206	C	1.489550	-0.033234	0.281929
N207	N	1.022747	-0.505984	-0.184893
N208	N	1.522747	-0.005984	0.315107
H209	H	0.978155	-0.661899	-0.229545
H210	H	1.478155	-0.161899	0.270455
H211	H	0.346503	-0.312209	-0.404586
H212	H	0.846503	0.187791	0.095414
C213	C	0.989718	-0.934071	-0.218158
C214	C	1.489718	-0.434071	0.281842
N215	N	1.022931	-0.906819	-0.184999
N216	N	1.522931	-0.406819	0.315001
C217	C	0.474583	-0.313684	-0.420669
C218	C	0.974583	0.186316	0.079331
N219	N	0.501739	-0.317873	-0.467425
N220	N	1.001739	0.182127	0.032575
C221	C	0.989722	-0.218336	-0.935656
C222	C	1.489722	0.281664	-0.435656
N223	N	1.022943	-0.184980	-0.908578
N224	N	1.522943	0.315020	-0.408578
C225	C	0.821320	-0.387409	-1.072935
C226	C	1.321320	0.112591	-0.572935
N227	N	0.788103	-0.420763	-1.100019
N228	N	1.288103	0.079237	-0.600019
H229	H	0.832775	-0.375947	-0.944885
H230	H	1.332775	0.124053	-0.444885
C231	C	0.821236	-0.671396	-0.386195
C232	C	1.321236	-0.171396	0.113805
N233	N	0.788028	-0.698654	-0.419354
N234	N	1.288028	-0.198654	0.080646
H235	H	0.263297	-0.376183	-0.374777
H236	H	0.763297	0.123817	0.125223
H237	H	0.978261	-0.229795	-1.063704
H238	H	1.478261	0.270205	-0.563704
H239	H	0.346298	-0.293896	-0.199778
H240	H	0.846298	0.206104	0.300222
C241	C	0.474337	-0.292479	-0.183602
C242	C	0.974337	0.207521	0.316398
N243	N	0.501393	-0.288308	-0.136824
N244	N	1.001393	0.211692	0.363176
H245	H	0.896496	-0.405828	-0.861816
H246	H	1.396496	0.094172	-0.361816
