data_functionalizedCrystal
_audit_creation_method	'MofGen! by Chris Wilmer'
_symmetry_space_group_name_H-M	'P1'
_symmetry_Int_Tables_number	1
_symmetry_cell_setting	triclinic
loop_
_symmetry_equiv_pos_as_xyz
  x,y,z
_cell_length_a	6.817900
_cell_length_b	12.908943
_cell_length_c	15.301126
_cell_angle_alpha	95.514568
_cell_angle_beta	104.177575
_cell_angle_gamma	100.860631
loop_
_atom_site_label
_atom_site_type_symbol
_atom_site_fract_x
_atom_site_fract_y
_atom_site_fract_z
V1	V	-3.999628	-0.328999	-0.123632
O2	O	-3.984114	-0.322407	0.007099
O3	O	-3.954739	-0.327066	-0.246256
O4	O	-3.937838	-0.472343	-0.121222
O5	O	-4.001131	-0.176125	-0.118800
V6	V	-4.484536	-0.310676	-0.108055
O7	O	-4.257848	-0.369194	-0.157801
O8	O	-4.676513	-0.270482	-0.073886
O9	O	-4.306218	-0.312609	0.014568
O10	O	-4.617447	-0.317268	-0.238787
O11	O	-4.600429	-0.463550	-0.112888
O12	O	-4.323119	-0.167333	-0.110465
C13	C	-3.801027	-0.321958	-0.276165
C14	C	-3.845522	-0.321333	-0.376408
C15	C	-3.779468	-0.507271	-0.116671
C16	C	-3.810254	-0.624457	-0.115512
C17	C	-4.048171	-0.326309	-0.428077
C18	C	-4.089970	-0.325728	-0.522266
C19	C	-3.929114	-0.320163	-0.564784
C20	C	-3.726449	-0.315190	-0.513108
C21	C	-3.684656	-0.315779	-0.418922
C22	C	-3.813571	-0.313961	-0.709423
C23	C	-3.855365	-0.313370	-0.803616
C24	C	-4.218885	-0.323910	-0.812768
C25	C	-4.177092	-0.324499	-0.718581
C26	C	-3.974428	-0.319524	-0.666912
C27	C	-4.231613	-0.855421	-0.122282
C28	C	-4.260550	-0.965528	-0.121194
C29	C	-3.897064	-0.954779	-0.112240
C30	C	-3.868127	-0.844672	-0.113328
C31	C	-4.035411	-0.794997	-0.118351
C32	C	-4.006475	-0.684890	-0.119446
C33	C	-3.642988	-0.674141	-0.110486
C34	C	-3.671924	-0.784248	-0.109397
C35	C	-4.123272	-0.317714	0.044472
C36	C	-4.058015	-0.318346	0.144715
C37	C	-4.144832	-0.132399	-0.115020
C38	C	-4.093284	-0.015212	-0.116174
H39	H	-4.179162	-0.330831	-0.393465
H40	H	-4.367828	-0.814977	-0.126382
F41	F	-3.555256	-0.309274	-0.558362
H42	H	-3.760876	-0.995243	-0.108144
F43	F	-3.684170	-0.307467	-0.848868
F44	F	-3.493906	-0.837128	-0.104054
F45	F	-4.348287	-0.330400	-0.673330
F46	F	-3.434162	-0.609827	-0.106307
F47	F	-3.597876	-0.308671	-0.654436
F48	F	-4.434579	-0.329213	-0.867760
H49	H	-3.519642	-0.311731	-0.376854
H50	H	-4.254984	-0.329782	-0.564332
F51	F	-4.184512	-0.632024	-0.124795
H52	H	-4.420315	-1.014722	-0.124395
