data_functionalizedCrystal
_audit_creation_method	'MofGen! by Chris Wilmer'
_symmetry_space_group_name_H-M	'P1'
_symmetry_Int_Tables_number	1
_symmetry_cell_setting	triclinic
loop_
_symmetry_equiv_pos_as_xyz
  x,y,z
_cell_length_a	10.540510
_cell_length_b	14.971482
_cell_length_c	14.048226
_cell_angle_alpha	89.994098
_cell_angle_beta	90.006950
_cell_angle_gamma	95.937040
loop_
_atom_site_label
_atom_site_type_symbol
_atom_site_fract_x
_atom_site_fract_y
_atom_site_fract_z
O1	O	-0.165403	1.187869	-0.079150
O2	O	0.334597	1.687869	0.420850
O3	O	-0.185218	0.927578	-0.079154
O4	O	0.314782	1.427578	0.420846
O5	O	0.009466	1.063676	-0.079144
O6	O	0.509466	1.563676	0.420856
O7	O	-0.360087	1.051771	-0.079160
O8	O	0.139913	1.551771	0.420840
O9	O	0.009478	1.063659	0.079177
O10	O	0.509478	1.563659	0.579177
O11	O	-0.185206	0.927562	0.079167
O12	O	0.314794	1.427562	0.579167
O13	O	-0.165391	1.187852	0.079172
O14	O	0.334609	1.687852	0.579172
Zn15	Zn	-0.175297	1.057704	0.104306
Zn16	Zn	0.324703	1.557704	0.604306
Zn17	Zn	-0.175312	1.057726	-0.104289
Zn18	Zn	0.324688	1.557726	0.395711
O19	O	-0.360075	1.051754	0.079162
O20	O	0.139925	1.551754	0.579162
C21	C	-0.184327	0.894240	0.000006
C22	C	0.315673	1.394240	0.500006
C23	C	-0.181674	0.794928	0.000004
C24	C	0.318326	1.294928	0.500004
C25	C	-0.180418	0.748267	0.086306
C26	C	0.319582	1.248267	0.586306
C27	C	-0.177905	0.654955	0.086307
C28	C	0.322095	1.154955	0.586307
C29	C	-0.176657	0.608304	0.000005
C30	C	0.323343	1.108304	0.500005
C31	C	-0.177909	0.654972	-0.086303
C32	C	0.322091	1.154972	0.413697
C33	C	-0.180413	0.748283	-0.086303
C34	C	0.319587	1.248283	0.413697
C35	C	-0.172693	0.460481	-0.086297
C36	C	0.327307	0.960481	0.413703
C37	C	-0.170191	0.367163	-0.086297
C38	C	0.329809	0.867163	0.413703
C39	C	-0.170185	0.367153	0.086314
C40	C	0.329815	0.867153	0.586314
C41	C	-0.172689	0.460464	0.086314
C42	C	0.327311	0.960464	0.586314
C43	C	-0.173943	0.507125	0.000005
C44	C	0.326057	1.007125	0.500005
C45	C	-0.407375	1.052650	-0.000001
C46	C	0.092625	1.552650	0.499999
C47	C	-0.548294	1.055304	-0.000007
C48	C	-0.048294	1.555304	0.499993
C49	C	-0.766825	0.960758	0.000367
C50	C	-0.266825	1.460758	0.500367
C51	C	-0.620261	0.957927	-0.000005
C52	C	-0.120261	1.457927	0.499995
C53	C	-0.592510	1.105162	-0.090410
C54	C	-0.092510	1.605162	0.409590
C55	C	-0.739247	1.107303	-0.090471
C56	C	-0.239247	1.607303	0.409529
C57	C	-0.738985	1.109312	0.089570
C58	C	-0.238985	1.609312	0.589570
C59	C	-0.592696	1.104693	0.090750
C60	C	-0.092696	1.604693	0.590750
C61	C	0.056766	1.062780	0.000016
C62	C	0.556766	1.562780	0.500016
C63	C	0.197685	1.060126	0.000016
C64	C	0.697685	1.560126	0.500016
C65	C	-0.166282	1.221190	0.000010
C66	C	0.333718	1.721190	0.500010
C67	C	-0.168935	1.320502	0.000005
C68	C	0.331065	1.820502	0.500005
N69	N	-0.175286	1.057696	0.246667
N70	N	0.324714	1.557696	0.746667
N71	N	-0.175313	1.057741	-0.246649
N72	N	0.324687	1.557741	0.253351
C73	C	-0.089115	1.117979	0.296490
C74	C	0.410885	1.617979	0.796490
C75	C	-0.089115	1.117985	0.396147
C76	C	0.410885	1.617985	0.896147
C77	C	-0.175292	1.057711	0.445981
C78	C	0.324708	1.557711	0.945981
C79	C	-0.261466	0.997422	0.396151
C80	C	0.238534	1.497422	0.896151
C81	C	-0.261460	0.997412	0.296495
C82	C	0.238540	1.497412	0.796495
C83	C	-0.261475	0.997448	0.603865
C84	C	0.238525	1.497448	1.103865
C85	C	-0.261484	0.997458	0.703528
C86	C	0.238516	1.497458	1.203528
C87	C	-0.089130	1.118021	0.703517
C88	C	0.410870	1.618021	1.203517
C89	C	-0.089124	1.118011	0.603861
C90	C	0.410876	1.618011	1.103861
C91	C	-0.175300	1.057722	0.554039
C92	C	0.324700	1.557722	1.054039
H93	H	-0.181438	0.786273	-0.156579
H94	H	0.318562	1.286273	0.343421
H95	H	-0.169176	0.329182	-0.156572
H96	H	0.330824	0.829182	0.343428
H97	H	-0.331629	0.948341	0.436731
H98	H	0.168371	1.448341	0.936731
H99	H	-0.173713	0.498444	0.156588
H100	H	0.326287	0.998444	0.656588
O101	O	0.003825	1.183017	0.449873
O102	O	0.503825	1.683017	0.949873
H103	H	0.065630	1.144994	0.495284
H104	H	0.565630	1.644994	0.995284
H105	H	-0.018963	1.167109	0.744089
H106	H	0.481037	1.667109	1.244089
O107	O	-0.526633	1.198871	0.097904
O108	O	-0.026633	1.698871	0.597904
H109	H	-0.471578	1.206023	0.165311
H110	H	0.028422	1.706023	0.665311
H111	H	-0.809200	0.922812	0.065201
H112	H	-0.309200	1.422812	0.565201
H113	H	-0.562068	1.070550	-0.157694
H114	H	-0.062068	1.570550	0.342306
O115	O	-0.354380	0.932383	0.242746
O116	O	0.145620	1.432383	0.742746
H117	H	-0.416156	0.970406	0.197309
H118	H	0.083844	1.470406	0.697309
H119	H	-0.331656	0.948376	0.744097
H120	H	0.168344	1.448376	1.244097
H121	H	-0.331645	0.948351	0.563303
H122	H	0.168355	1.448351	1.063303
H123	H	-0.173715	0.498469	-0.156579
H124	H	0.326285	0.998469	0.343421
H125	H	-0.176884	0.616982	-0.156572
H126	H	0.323116	1.116982	0.343428
O127	O	-0.795632	1.068539	0.180349
O128	O	-0.295632	1.568539	0.680349
H129	H	-0.869565	1.012756	0.162647
H130	H	-0.369565	1.512756	0.662647
O131	O	-0.825087	0.910802	-0.085012
O132	O	-0.325087	1.410802	0.414988
H133	H	-0.788120	0.944730	-0.151143
H134	H	-0.288120	1.444730	0.348857
O135	O	-0.181780	0.798582	0.179390
O136	O	0.318220	1.298582	0.679390
H137	H	-0.180479	0.750456	0.239400
H138	H	0.319521	1.250456	0.739400
O139	O	0.003864	1.182973	0.242749
O140	O	0.503864	1.682973	0.742749
H141	H	-0.010603	1.172840	0.165081
H142	H	0.489397	1.672840	0.665081
O143	O	-0.176564	0.604623	0.179389
O144	O	0.323436	1.104623	0.679389
H145	H	-0.177873	0.652737	0.239400
H146	H	0.322127	1.152737	0.739400
H147	H	-0.169164	0.329157	0.156590
H148	H	0.330836	0.829157	0.656590
O149	O	-0.583238	0.905968	-0.085997
O150	O	-0.083238	1.405968	0.414003
H151	H	-0.612731	0.939504	-0.151668
H152	H	-0.112731	1.439504	0.348332
H153	H	-0.591345	0.918909	0.064793
H154	H	-0.091345	1.418909	0.564793
O155	O	0.003824	1.183015	0.550106
O156	O	0.503824	1.683015	1.050106
H157	H	0.063758	1.224932	0.601491
H158	H	0.563758	1.724932	1.101491
O159	O	-0.555233	1.056689	0.179350
O160	O	-0.055233	1.556689	0.679350
H161	H	-0.505202	0.997896	0.158843
H162	H	-0.005202	1.497896	0.658843
H163	H	-0.779868	1.073243	-0.158049
H164	H	-0.279868	1.573243	0.341951
O165	O	-0.768630	1.203772	-0.095927
O166	O	-0.268630	1.703772	0.404073
H167	H	-0.678067	1.248689	-0.098516
H168	H	-0.178067	1.748689	0.401484
H169	H	-0.544306	1.176849	-0.093773
H170	H	-0.044306	1.676849	0.406227
H171	H	-0.760311	1.182422	0.090187
H172	H	-0.260311	1.682422	0.590187
