data_functionalizedCrystal
_audit_creation_method	'MofGen! by Chris Wilmer'
_symmetry_space_group_name_H-M	'P1'
_symmetry_Int_Tables_number	1
_symmetry_cell_setting	triclinic
loop_
_symmetry_equiv_pos_as_xyz
  x,y,z
_cell_length_a	15.944551
_cell_length_b	13.339070
_cell_length_c	12.376457
_cell_angle_alpha	104.410245
_cell_angle_beta	101.276265
_cell_angle_gamma	80.435984
loop_
_atom_site_label
_atom_site_type_symbol
_atom_site_fract_x
_atom_site_fract_y
_atom_site_fract_z
O1	O	0.409519	-1.361721	-0.094056
O2	O	0.354248	-1.067189	-0.094048
O3	O	0.261484	-1.222496	-0.094042
O4	O	0.502283	-1.206414	-0.094062
O5	O	0.284634	-1.183683	0.093969
O6	O	0.377398	-1.028376	0.093963
O7	O	0.432670	-1.322908	0.093955
Zn8	Zn	0.408710	-1.169480	0.123810
Zn9	Zn	0.378208	-1.220618	-0.123903
O10	O	0.525433	-1.167601	0.093949
C11	C	0.356487	-1.010092	-0.000041
C12	C	0.328657	-0.897788	-0.000038
C13	C	0.241610	-1.202422	-0.000036
C14	C	0.147897	-1.200420	-0.000036
C15	C	0.430431	-1.380005	-0.000054
C16	C	0.458260	-1.492311	-0.000065
C17	C	-0.090507	-1.099369	-0.000048
C18	C	-0.129176	-1.127158	0.092651
C19	C	-0.023674	-1.196799	-0.000044
C20	C	-0.151979	-1.165448	-0.092713
C21	C	-0.189405	-1.193296	-0.000057
C22	C	-0.061099	-1.224599	0.092732
C23	C	-0.083908	-1.262892	-0.092715
C24	C	-0.122540	-1.290747	0.000007
C25	C	0.071800	-1.198814	-0.000036
C26	C	-0.284874	-1.191287	-0.000058
C27	C	0.545308	-1.187676	-0.000059
C28	C	0.639019	-1.189680	-0.000067
N29	N	0.429527	-1.134587	0.292867
C30	C	0.545045	-0.533017	-0.000074
C31	C	0.571195	-0.638533	-0.000081
C32	C	0.510563	-0.703352	-0.000069
C33	C	0.423776	-0.662645	-0.000053
C34	C	0.397623	-0.557120	-0.000055
C35	C	0.363140	-0.727455	-0.000050
C36	C	0.276354	-0.686748	-0.000033
C37	C	0.250205	-0.581233	-0.000035
C38	C	0.310837	-0.516415	-0.000046
C39	C	0.389294	-0.832979	-0.000048
C40	C	0.241871	-0.857082	-0.000029
C41	C	0.215722	-0.751566	-0.000022
N42	N	0.357386	-1.255518	-0.292960
C43	C	0.309045	-1.336516	0.647859
C44	C	0.294473	-1.360931	0.529520
C45	C	0.328235	-1.304347	0.470351
C46	C	0.376572	-1.223343	0.529532
C47	C	0.391151	-1.198930	0.647883
C48	C	0.410341	-1.166762	0.470375
C49	C	0.458678	-1.085758	0.529556
C50	C	0.473254	-1.061349	0.647895
C51	C	0.439492	-1.117933	0.707064
C52	C	0.395762	-1.191175	0.352024
C53	C	0.477868	-1.053590	0.352048
C54	C	0.492440	-1.029174	0.470387
H55	H	-0.076032	-1.018478	0.000046
H56	H	0.192498	-0.909859	-0.000025
H57	H	0.594401	-0.480235	-0.000092
H58	H	0.281565	-1.382585	0.696043
F59	F	-0.155396	-1.052149	0.195090
H60	H	-0.021853	-1.249577	0.171188
F61	F	0.524708	-0.975148	0.710880
H62	H	-0.136832	-1.371680	0.000057
H63	H	0.531859	-0.789267	-0.000078
H64	H	-0.063834	-1.320246	-0.171092
F65	F	0.283011	-0.404109	-0.000036
H66	H	-0.191311	-1.140405	-0.171088
H67	H	0.459956	-0.866111	-0.000057
F68	F	0.543883	-0.942965	0.533384
F69	F	0.344320	-1.277382	0.289053
H70	H	0.179536	-0.548096	-0.000034
F71	F	0.663555	-0.681850	-0.000103
H72	H	0.145057	-0.718409	-0.000018
H73	H	0.505362	-1.007515	0.303873
F74	F	0.312724	-1.330333	0.344404
H75	H	0.255119	-1.426885	0.481339
H76	H	0.451353	-1.098051	0.803425
