data_functionalizedCrystal
_audit_creation_method	'MofGen! by Chris Wilmer'
_symmetry_space_group_name_H-M	'P1'
_symmetry_Int_Tables_number	1
_symmetry_cell_setting	triclinic
loop_
_symmetry_equiv_pos_as_xyz
  x,y,z
_cell_length_a	17.699083
_cell_length_b	12.996460
_cell_length_c	17.699083
_cell_angle_alpha	90.007036
_cell_angle_beta	96.717152
_cell_angle_gamma	89.995129
loop_
_atom_site_label
_atom_site_type_symbol
_atom_site_fract_x
_atom_site_fract_y
_atom_site_fract_z
O1	O	-1.004077	0.085551	0.095710
O2	O	-0.504077	0.585551	0.595710
O3	O	-0.783699	0.085558	0.108163
O4	O	-0.283699	0.585558	0.608163
O5	O	-0.900114	0.085545	-0.008253
O6	O	-0.400114	0.585545	0.491747
O7	O	-0.887662	0.085564	0.212125
O8	O	-0.387662	0.585564	0.712125
O9	O	-0.900102	-0.085589	-0.008259
O10	O	-0.400102	0.414411	0.491741
O11	O	-0.783687	-0.085576	0.108156
O12	O	-0.283687	0.414424	0.608156
O13	O	-1.004065	-0.085582	0.095703
O14	O	-0.504065	0.414418	0.595703
Cu15	Cu	-0.893875	-0.101205	0.101929
Cu16	Cu	-0.393875	0.398795	0.601929
Cu17	Cu	-0.893889	0.101180	0.101937
Cu18	Cu	-0.393889	0.601180	0.601937
O19	O	-0.887650	-0.085570	0.212119
O20	O	-0.387650	0.414430	0.712119
C21	C	-0.755496	-0.000009	0.107713
C22	C	-0.255496	0.499991	0.607713
C23	C	-0.671478	-0.000007	0.106375
C24	C	-0.171478	0.499993	0.606375
C25	C	-0.632004	-0.093293	0.105741
C26	C	-0.132004	0.406707	0.605741
C27	C	-0.553061	-0.093293	0.104471
C28	C	-0.053061	0.406707	0.604471
C29	C	-0.513594	-0.000007	0.103841
C30	C	-0.013594	0.499993	0.603841
C31	C	-0.553073	0.093286	0.104473
C32	C	-0.053073	0.593286	0.604473
C33	C	-0.632015	0.093286	0.105737
C34	C	-0.132015	0.593286	0.605737
C35	C	-0.234711	0.093289	0.099374
C36	C	0.265289	0.593289	0.599374
C37	C	-0.155763	0.093282	0.098112
C38	C	0.344237	0.593282	0.598112
C39	C	-0.155757	-0.093291	0.098108
C40	C	0.344243	0.406709	0.598108
C41	C	-0.234699	-0.093291	0.099372
C42	C	0.265301	0.406709	0.599372
C43	C	-0.274172	0.000002	0.100000
C44	C	0.225828	0.500002	0.600000
C45	C	-0.359771	0.000002	0.101375
C46	C	0.140229	0.500002	0.601375
C47	C	-0.427996	-0.000006	0.102472
C48	C	0.072004	0.499994	0.602472
N49	N	-0.893870	-0.243552	0.101923
N50	N	-0.393870	0.256448	0.601923
C51	C	-0.893888	-0.663367	0.101938
C52	C	-0.393888	-0.163367	0.601938
C53	C	-0.893881	-0.546561	0.101936
C54	C	-0.393881	-0.046561	0.601936
C55	C	-0.893880	-0.453463	0.101931
C56	C	-0.393880	0.046537	0.601931
C57	C	-0.893872	-0.336651	0.101929
C58	C	-0.393872	0.163349	0.601929
C59	C	-0.032269	-0.000013	0.096148
C60	C	0.467731	0.499987	0.596148
C61	C	-0.116289	-0.000005	0.097472
C62	C	0.383711	0.499995	0.597472
C63	C	-0.899662	-0.000022	-0.036453
C64	C	-0.399662	0.499978	0.463547
C65	C	-0.898323	-0.000022	-0.120471
C66	C	-0.398323	0.499978	0.379529
N67	N	-0.893900	0.243527	0.101937
N68	N	-0.393900	0.743527	0.601937
C69	C	-0.966657	-0.000025	-0.169092
C70	C	-0.466657	0.499975	0.330908
C71	C	-0.965395	-0.000016	-0.248036
C72	C	-0.465395	0.499984	0.251964
C73	C	-0.895798	-0.000011	-0.278356
C74	C	-0.395798	0.499989	0.221644
C75	C	-0.827459	-0.000005	-0.229729
C76	C	-0.327459	0.499995	0.270271
C77	C	-0.828722	-0.000007	-0.150787
C78	C	-0.328722	0.499993	0.349213
C79	C	-0.822364	0.000004	-0.548092
C80	C	-0.322364	0.500004	-0.048092
C81	C	-0.821106	0.000002	-0.627040
C82	C	-0.321106	0.500002	-0.127040
C83	C	-0.959036	-0.000006	-0.645341
C84	C	-0.459036	0.499994	-0.145341
C85	C	-0.960299	-0.000008	-0.566399
C86	C	-0.460299	0.499992	-0.066399
C87	C	-0.891961	0.000004	-0.517778
C88	C	-0.391961	0.500004	-0.017778
C89	C	-0.893331	-0.000004	-0.432179
C90	C	-0.393331	0.499996	0.067821
C91	C	-0.894428	-0.000011	-0.363954
C92	C	-0.394428	0.499989	0.136046
C93	C	-0.888102	-0.000001	0.240319
C94	C	-0.388102	0.499999	0.740319
C95	C	-0.889441	0.000006	0.324337
C96	C	-0.389441	0.500006	0.824337
H97	H	-0.520927	-0.169256	0.103942
H98	H	-0.020927	0.330744	0.603942
H99	H	-0.520933	0.169241	0.103955
H100	H	-0.020933	0.669241	0.603955
Cl101	Cl	-0.739966	0.000014	-0.267846
Cl102	Cl	-0.239966	0.500014	0.232154
H103	H	-1.023330	-0.000036	-0.144412
H104	H	-0.523330	0.499964	0.355588
Cl105	Cl	-1.051304	-0.000024	-0.309157
Cl106	Cl	-0.551304	0.499976	0.190843
Cl107	Cl	-0.681640	0.210565	0.106531
Cl108	Cl	-0.181640	0.710565	0.606531
H109	H	-0.266829	-0.169254	0.099889
H110	H	0.233171	0.330746	0.599889
H111	H	-1.016972	-0.000017	-0.541717
H112	H	-0.516972	0.499983	-0.041717
H113	H	-1.014680	-0.000010	-0.684937
H114	H	-0.514680	0.499990	-0.184937
H115	H	-0.764429	0.000005	-0.651723
H116	H	-0.264429	0.500005	-0.151723
H117	H	-0.766719	0.000013	-0.508514
H118	H	-0.266719	0.500013	-0.008514
Cl119	Cl	-0.742814	0.000002	-0.089663
Cl120	Cl	-0.242814	0.500002	0.410337
Cl121	Cl	-0.106129	-0.210575	0.097315
Cl122	Cl	0.393871	0.289425	0.597315
H123	H	-0.123631	0.169251	0.097598
H124	H	0.376369	0.669251	0.597598
H125	H	-0.664132	-0.169257	0.106260
H126	H	-0.164132	0.330743	0.606260
Cl127	Cl	-0.284324	0.210571	0.100165
Cl128	Cl	0.215676	0.710571	0.600165
