data_functionalizedCrystal
_audit_creation_method	'MofGen! by Chris Wilmer'
_symmetry_space_group_name_H-M	'P1'
_symmetry_Int_Tables_number	1
_symmetry_cell_setting	triclinic
loop_
_symmetry_equiv_pos_as_xyz
  x,y,z
_cell_length_a	10.686285
_cell_length_b	19.805407
_cell_length_c	19.805399
_cell_angle_alpha	90.016510
_cell_angle_beta	85.609337
_cell_angle_gamma	94.372303
loop_
_atom_site_label
_atom_site_type_symbol
_atom_site_fract_x
_atom_site_fract_y
_atom_site_fract_z
Zn1	Zn	-0.502490	-1.055488	-0.362099
Zn2	Zn	-0.002490	-0.555488	0.137901
Zn3	Zn	-0.713507	-1.064130	-0.240254
Zn4	Zn	-0.213507	-0.564130	0.259746
Zn5	Zn	-0.502516	-0.942309	-0.248923
Zn6	Zn	-0.002516	-0.442309	0.251077
Zn7	Zn	-0.713421	-0.950985	-0.353405
Zn8	Zn	-0.213421	-0.450985	0.146595
O9	O	-0.607984	-1.003228	-0.301170
O10	O	-0.107984	-0.503228	0.198830
O11	O	-0.530507	-1.151352	-0.345946
O12	O	-0.030507	-0.651352	0.154054
O13	O	-0.685566	-1.047956	-0.146685
O14	O	-0.185566	-0.547956	0.353315
O15	O	-0.325936	-0.950074	-0.271203
O16	O	0.174064	-0.450074	0.228797
O17	O	-0.685541	-1.157701	-0.256427
O18	O	-0.185541	-0.657701	0.243573
O19	O	-0.325917	-1.033227	-0.354352
O20	O	0.174083	-0.533227	0.145648
O21	O	-0.530551	-0.958455	-0.153054
O22	O	-0.030551	-0.458455	0.346946
O23	O	-0.530467	-0.848742	-0.262772
O24	O	-0.030467	-0.348742	0.237228
O25	O	-0.685394	-0.964861	-0.449277
O26	O	-0.185394	-0.464861	0.050723
O27	O	-0.685419	-0.855116	-0.339535
O28	O	-0.185419	-0.355116	0.160465
O29	O	-0.530423	-1.041639	-0.455664
O30	O	-0.030423	-0.541639	0.044336
O31	O	-0.890072	-1.056369	-0.247997
O32	O	-0.390072	-0.556369	0.252003
O33	O	-0.890008	-0.973241	-0.331128
O34	O	-0.390008	-0.473241	0.168872
C35	C	-0.607937	-0.827370	-0.301151
C36	C	-0.107937	-0.327370	0.198849
C37	C	-0.607948	-0.752138	-0.301158
C38	C	-0.107948	-0.252138	0.198842
C39	C	-0.527363	-0.713494	-0.347830
C40	C	-0.027363	-0.213494	0.152170
C41	C	-0.527367	-0.642806	-0.347830
C42	C	-0.027367	-0.142806	0.152170
C43	C	-0.607963	-0.610763	-0.301162
C44	C	-0.107963	-0.110763	0.198838
C45	C	-0.688551	-0.649412	-0.254485
C46	C	-0.188551	-0.149412	0.245515
C47	C	-0.688540	-0.720099	-0.254482
C48	C	-0.188540	-0.220099	0.245518
C49	C	-0.688597	-0.364341	-0.254497
C50	C	-0.188597	0.135659	0.245503
C51	C	-0.688605	-0.293649	-0.254506
C52	C	-0.188605	0.206351	0.245494
C53	C	-0.527425	-0.287048	-0.347846
C54	C	-0.027425	0.212952	0.152154
C55	C	-0.527413	-0.357735	-0.347842
C56	C	-0.027413	0.142265	0.152158
C57	C	-0.607996	-0.396377	-0.301164
C58	C	-0.107996	0.103623	0.198836
C59	C	-0.607989	-0.473025	-0.301163
C60	C	-0.107989	0.026975	0.198837
C61	C	-0.607977	-0.534117	-0.301166
C62	C	-0.107977	-0.034117	0.198834
C63	C	-0.935824	-1.016703	-0.287693
C64	C	-0.435824	-0.516703	0.212307
C65	C	-1.076076	-1.022529	-0.281951
C66	C	-0.576076	-0.522529	0.218049
C67	C	-0.278862	-0.989719	-0.314714
C68	C	0.221138	-0.489719	0.185286
C69	C	-0.138611	-0.983962	-0.320486
C70	C	0.361389	-0.483962	0.179514
C71	C	-0.607896	-1.003254	-0.477716
C72	C	-0.107896	-0.503254	0.022284
C73	C	-0.607859	-1.003265	-0.552950
C74	C	-0.107859	-0.503265	-0.052950
C75	C	-0.608021	-0.179772	-0.301184
C76	C	-0.108021	0.320228	0.198816
C77	C	-0.608013	-0.255004	-0.301175
C78	C	-0.108013	0.244996	0.198825
C79	C	-0.527135	-0.956673	-0.591610
C80	C	-0.027135	-0.456673	-0.091610
C81	C	-0.527110	-0.956682	-0.662300
C82	C	-0.027110	-0.456682	-0.162300
C83	C	-0.607804	-1.003285	-0.694328
C84	C	-0.107804	-0.503285	-0.194328
C85	C	-0.688537	-1.049879	-0.655662
C86	C	-0.188537	-0.549879	-0.155662
C87	C	-0.688567	-1.049867	-0.584974
C88	C	-0.188567	-0.549867	-0.084974
C89	C	-0.688419	-1.049928	-0.940740
C90	C	-0.188419	-0.549928	-0.440740
C91	C	-0.688380	-1.049938	-1.011434
C92	C	-0.188380	-0.549938	-0.511434
C93	C	-0.526962	-0.956743	-1.018067
C94	C	-0.026962	-0.456743	-0.518067
C95	C	-0.526992	-0.956731	-0.947378
C96	C	-0.026992	-0.456731	-0.447378
C97	C	-0.607729	-1.003322	-0.908718
C98	C	-0.107729	-0.503322	-0.408718
C99	C	-0.607756	-1.003311	-0.832069
C100	C	-0.107756	-0.503311	-0.332069
C101	C	-0.607771	-1.003299	-0.770976
C102	C	-0.107771	-0.503299	-0.270976
C103	C	-0.607980	-1.003237	-0.125314
C104	C	-0.107980	-0.503237	0.374686
C105	C	-0.607662	-1.003342	-0.050096
C106	C	-0.107662	-0.503342	0.449904
H107	H	-0.754214	-0.395795	-0.216489
H108	H	-0.254214	0.104205	0.283511
H109	H	-0.754239	-0.267562	-0.216500
H110	H	-0.254239	0.232438	0.283500
Cl111	Cl	-1.159076	-1.080386	-0.224217
Cl112	Cl	-0.659076	-0.580386	0.275783
Cl113	Cl	-0.425683	-0.898078	-0.710896
Cl114	Cl	0.074317	-0.398078	-0.210896
H115	H	-0.461417	-0.918727	-0.565539
H116	H	0.038583	-0.418727	-0.065539
Cl117	Cl	-0.426060	-0.594228	-0.406508
Cl118	Cl	0.073940	-0.094228	0.093492
Cl119	Cl	-0.789989	-1.108463	-0.695926
Cl120	Cl	-0.289989	-0.608463	-0.195926
Cl121	Cl	-0.790058	-1.108439	-0.536371
Cl122	Cl	-0.290058	-0.608439	-0.036371
H123	H	-0.461279	-0.918783	-0.921305
H124	H	0.038721	-0.418783	-0.421305
Cl125	Cl	-0.426094	-0.398013	-0.406516
Cl126	Cl	0.073906	0.101987	0.093484
H127	H	-0.754173	-1.087858	-0.909271
H128	H	-0.254173	-0.587858	-0.409271
H129	H	-0.461226	-0.918804	-1.049552
H130	H	0.038774	-0.418804	-0.549552
Cl131	Cl	-1.055616	-0.926100	-0.378210
Cl132	Cl	-0.555616	-0.426100	0.121790
H133	H	-0.461736	-0.739578	-0.385834
H134	H	0.038264	-0.239578	0.114166
H135	H	-0.461806	-0.255576	-0.385852
H136	H	0.038194	0.244424	0.114148
Cl137	Cl	-0.789834	-1.108528	-1.051697
Cl138	Cl	-0.289834	-0.608528	-0.551697
H139	H	-0.754168	-0.623317	-0.216484
H140	H	-0.254168	-0.123317	0.283516
H141	H	-0.754159	-0.751562	-0.216477
H142	H	-0.254159	-0.251562	0.283523
