data_functionalizedCrystal
_audit_creation_method	'MofGen! by Chris Wilmer'
_symmetry_space_group_name_H-M	'P1'
_symmetry_Int_Tables_number	1
_symmetry_cell_setting	triclinic
loop_
_symmetry_equiv_pos_as_xyz
  x,y,z
_cell_length_a	29.839134
_cell_length_b	29.839131
_cell_length_c	13.032268
_cell_angle_alpha	97.140540
_cell_angle_beta	97.153304
_cell_angle_gamma	90.036281
loop_
_atom_site_label
_atom_site_type_symbol
_atom_site_fract_x
_atom_site_fract_y
_atom_site_fract_z
Zn1	Zn	0.654455	-0.211166	-0.591080
Zn2	Zn	0.663926	-0.276762	-0.416332
Zn3	Zn	0.588877	-0.201640	-0.416331
Zn4	Zn	0.579291	-0.286258	-0.590983
O5	O	0.621637	-0.243957	-0.503682
O6	O	0.718576	-0.219881	-0.567941
O7	O	0.661946	-0.258836	-0.270107
O8	O	0.597624	-0.140039	-0.439552
O9	O	0.725535	-0.268073	-0.439554
O10	O	0.645804	-0.147038	-0.567940
O11	O	0.606807	-0.203644	-0.270106
O12	O	0.524740	-0.212852	-0.439458
O13	O	0.581286	-0.284258	-0.737222
O14	O	0.517698	-0.275021	-0.567775
O15	O	0.636509	-0.229088	-0.737293
O16	O	0.652651	-0.340887	-0.439460
O17	O	0.590470	-0.347863	-0.567775
C18	C	0.504919	-0.243934	-0.503606
C19	C	0.454985	-0.243936	-0.503599
C20	C	0.141684	-0.276366	-0.570414
C21	C	-0.045992	-0.276381	-0.570461
O22	O	-0.073364	-0.303931	-0.627225
N23	N	-0.065809	-0.243978	-0.503760
C24	C	-0.038705	-0.211566	-0.437049
O25	O	-0.059867	-0.184002	-0.380325
C26	C	0.148970	-0.211549	-0.437008
C27	C	0.168785	-0.243958	-0.503705
C28	C	0.161499	-0.308771	-0.637107
C29	C	0.208415	-0.308769	-0.637090
C30	C	0.235516	-0.276361	-0.570382
C31	C	0.215701	-0.243955	-0.503689
C32	C	0.176073	-0.179136	-0.370303
C33	C	0.222994	-0.179134	-0.370300
C34	C	0.242809	-0.211543	-0.436997
C35	C	0.289718	-0.211544	-0.436964
N36	N	0.309536	-0.243948	-0.503664
C37	C	0.282435	-0.276356	-0.570373
C38	C	-0.137237	-0.211578	-0.437073
C39	C	-0.184155	-0.211582	-0.437082
C40	C	-0.191439	-0.276397	-0.570495
C41	C	-0.144520	-0.276394	-0.570481
C42	C	-0.117419	-0.243981	-0.503773
C43	C	0.380963	-0.276348	-0.570333
C44	C	0.427884	-0.276344	-0.570308
C45	C	0.435163	-0.211528	-0.436899
C46	C	0.388247	-0.211534	-0.436919
C47	C	0.361147	-0.243946	-0.503645
O48	O	0.317118	-0.184006	-0.380238
O49	O	0.303605	-0.303909	-0.627105
C50	C	0.094767	-0.276368	-0.570430
C51	C	0.074952	-0.243963	-0.503738
C52	C	0.102053	-0.211555	-0.437029
C53	C	0.028034	-0.243968	-0.503747
C54	C	0.000933	-0.276376	-0.570455
C55	C	0.020750	-0.308779	-0.637156
C56	C	0.067666	-0.308777	-0.637139
C57	C	0.082236	-0.179151	-0.370329
C58	C	0.035319	-0.179157	-0.370350
C59	C	0.008218	-0.211565	-0.437059
C60	C	0.621559	-0.360677	-0.503630
C61	C	0.621565	-0.410612	-0.503643
C62	C	0.654062	-0.716617	-0.436966
C63	C	0.654115	-0.904292	-0.437006
O64	O	0.681683	-0.925462	-0.380275
N65	N	0.621726	-0.931403	-0.503761
C66	C	0.589323	-0.911593	-0.570515
O67	O	0.561779	-0.938959	-0.627302
C68	C	0.589272	-0.723919	-0.570479
C69	C	0.621661	-0.696810	-0.503712
C70	C	0.686448	-0.689508	-0.370205
C71	C	0.686433	-0.642592	-0.370192
C72	C	0.654031	-0.622785	-0.436939
C73	C	0.621646	-0.649893	-0.503699
C74	C	0.556872	-0.704109	-0.637237
C75	C	0.556863	-0.657187	-0.637224
C76	C	0.589251	-0.630079	-0.570458
C77	C	0.589229	-0.583170	-0.570432
N78	N	0.621618	-0.556059	-0.503677
C79	C	0.654019	-0.575866	-0.436931
C80	C	0.589352	-1.010124	-0.570527
C81	C	0.589364	-1.057042	-0.570535
C82	C	0.654156	-1.049739	-0.437028
C83	C	0.654142	-1.002819	-0.437015
C84	C	0.621741	-0.983013	-0.503773
C85	C	0.653985	-0.477339	-0.436907
C86	C	0.653966	-0.430419	-0.436896
C87	C	0.589175	-0.437727	-0.570407
C88	C	0.589192	-0.484643	-0.570414
C89	C	0.621601	-0.504448	-0.503661
O90	O	0.561679	-0.561970	-0.627142
O91	O	0.681566	-0.548494	-0.380168
C92	C	0.654077	-0.763533	-0.436979
C93	C	0.621691	-0.790642	-0.503739
C94	C	0.589290	-0.770834	-0.570486
C95	C	0.621703	-0.837560	-0.503747
C96	C	0.654104	-0.857368	-0.437000
C97	C	0.686493	-0.830257	-0.370246
C98	C	0.686478	-0.783341	-0.370232
C99	C	0.556901	-0.797945	-0.637240
C100	C	0.556918	-0.844861	-0.637248
C101	C	0.589319	-0.864669	-0.570501
C102	C	0.738811	-0.243980	-0.503758
C103	C	0.788744	-0.243990	-0.503791
C104	C	0.606772	-0.258795	-0.776232
C105	C	0.600437	-0.265118	-0.892377
C106	C	0.621727	-0.126782	-0.503757
C107	C	0.621765	-0.076850	-0.503789
C108	C	0.624936	-0.240640	-0.944193
C109	C	0.618390	-0.247175	-1.064234
C110	C	0.636470	-0.229144	-0.232192
C111	C	0.642892	-0.222694	-0.116048
H112	H	0.245057	-0.152737	-0.315984
Br113	Br	0.575345	-0.290167	-1.138403
H114	H	0.019191	-0.152766	-0.316028
Br115	Br	0.557395	-0.308108	-0.966549
Br116	Br	0.124727	-0.352760	-0.727654
Br117	Br	0.149193	-0.135148	-0.279785
Br118	Br	0.454773	-0.320332	-0.660827
Br119	Br	-0.228228	-0.320377	-0.661034
Br120	Br	0.545227	-0.521433	-0.661001
H121	H	0.668713	-0.196896	-1.071545
H122	H	0.372113	-0.185145	-0.382607
Br123	Br	0.545374	-0.983251	-0.661135
H124	H	0.650756	-0.214845	-0.899684
H125	H	0.530516	-0.781822	-0.691595
H126	H	0.358903	-0.302740	-0.624670
H127	H	0.224544	-0.335158	-0.691404
H128	H	0.530478	-0.641064	-0.691589
H129	H	-0.200283	-0.185196	-0.382760
H130	H	0.712874	-0.846392	-0.315895
H131	H	-0.115175	-0.185183	-0.382747
Br132	Br	0.471952	-0.167548	-0.346369
Br133	Br	-0.016039	-0.352764	-0.727681
Br134	Br	-0.117633	-0.320378	-0.661001
H135	H	0.083795	-0.335167	-0.691451
H136	H	0.104297	-0.152760	-0.316006
Br137	Br	0.697923	-0.393631	-0.346276
H138	H	0.680376	-0.493459	-0.382552
H139	H	0.712807	-0.620523	-0.315828
H140	H	0.712835	-0.705630	-0.315852
Br141	Br	0.698128	-1.076629	-0.346440
Br142	Br	0.698098	-0.966033	-0.346400
H143	H	0.562986	-1.079110	-0.624893
H144	H	0.530496	-0.726173	-0.691601
H145	H	0.562793	-0.421592	-0.624748
Br146	Br	0.512957	-0.881646	-0.727865
Br147	Br	0.730437	-0.746557	-0.279618
