data_functionalizedCrystal
_audit_creation_method	'MofGen! by Chris Wilmer'
_symmetry_space_group_name_H-M	'P1'
_symmetry_Int_Tables_number	1
_symmetry_cell_setting	triclinic
loop_
_symmetry_equiv_pos_as_xyz
  x,y,z
_cell_length_a	18.050589
_cell_length_b	12.759401
_cell_length_c	12.759393
_cell_angle_alpha	90.018496
_cell_angle_beta	89.969379
_cell_angle_gamma	89.971618
loop_
_atom_site_label
_atom_site_type_symbol
_atom_site_fract_x
_atom_site_fract_y
_atom_site_fract_z
Zn1	Zn	-0.295612	-1.606157	-0.593988
Zn2	Zn	-0.419823	-1.606010	-0.418311
Zn3	Zn	-0.295651	-1.430459	-0.418328
Zn4	Zn	-0.419766	-1.430406	-0.593953
O5	O	-0.357713	-1.518258	-0.506145
O6	O	-0.312097	-1.753158	-0.570692
O7	O	-0.403391	-1.582683	-0.271292
O8	O	-0.191722	-1.453849	-0.441651
O9	O	-0.403354	-1.753050	-0.441623
O10	O	-0.191693	-1.582934	-0.570708
O11	O	-0.312163	-1.453706	-0.271304
O12	O	-0.312108	-1.283431	-0.441617
O13	O	-0.403256	-1.453759	-0.740979
O14	O	-0.403294	-1.283392	-0.570648
O15	O	-0.312041	-1.582882	-0.741005
O16	O	-0.523740	-1.582632	-0.441589
O17	O	-0.523698	-1.453616	-0.570632
C18	C	-0.357699	-1.245290	-0.506131
C19	C	-0.357711	-1.128514	-0.506149
C20	C	-0.550665	-1.518131	-0.506127
C21	C	-0.633211	-1.518173	-0.506155
C22	C	-0.357638	-1.518331	-0.780178
C23	C	-0.357606	-1.518363	-0.896955
C24	C	-0.832666	-1.448083	-0.576304
C25	C	-0.882114	-1.422469	-0.480436
C26	C	-0.784341	-1.518276	-0.506169
C27	C	-0.881974	-1.543942	-0.602048
C28	C	-0.930326	-1.518374	-0.506191
C29	C	-0.832703	-1.492611	-0.410250
C30	C	-0.832558	-1.614129	-0.531927
C31	C	-0.881985	-1.588551	-0.435992
C32	C	-0.700243	-1.518217	-0.506158
C33	C	-1.014423	-1.518433	-0.506191
C34	C	-0.164007	-1.518414	-0.506185
C35	C	-0.081462	-1.518480	-0.506203
C36	C	-0.357727	-1.792291	-0.506160
C37	C	-0.357733	-1.909068	-0.506166
C38	C	-0.405268	-1.073659	-0.573225
C39	C	-0.405277	-0.963935	-0.573236
C40	C	-0.310171	-0.963930	-0.439088
C41	C	-0.310159	-1.073652	-0.439083
C42	C	-0.460179	-1.073661	-0.650671
C43	C	-0.460188	-0.963937	-0.650683
C44	C	-0.310106	-1.585606	-0.951832
C45	C	-0.310079	-1.585631	-1.061557
C46	C	-0.405059	-1.451166	-1.061516
C47	C	-0.405081	-1.451136	-0.951794
C48	C	-0.255273	-1.663242	-0.951857
C49	C	-0.255246	-1.663267	-1.061581
C50	C	-0.357734	-1.518245	-0.233178
C51	C	-0.357557	-1.518417	-0.116401
H52	H	-0.811010	-1.388636	-0.635531
H53	H	-0.903898	-1.341455	-0.458669
C54	C	-0.276064	-1.773183	-1.101815
N55	N	-0.291745	-1.855967	-1.132119
C56	C	-0.283106	-1.767634	-0.905871
N57	N	-0.304066	-1.846264	-0.871234
H58	H	-0.443758	-1.396376	-0.907117
C59	C	-0.439476	-1.113942	-0.760652
N60	N	-0.423889	-1.144282	-0.843490
H61	H	-0.197759	-1.641493	-0.922099
H62	H	-0.271429	-1.118311	-0.384470
H63	H	-0.811149	-1.470848	-0.329152
C64	C	-0.537869	-0.923653	-0.621047
N65	N	-0.596376	-0.893313	-0.598723
C66	C	-0.911062	-1.668797	-0.355787
N67	N	-0.932966	-1.729232	-0.295373
C68	C	-0.803117	-1.723541	-0.561404
N69	N	-0.780935	-1.805948	-0.583621
H70	H	-0.271455	-0.919248	-0.384485
H71	H	-0.443710	-1.396430	-1.106180
H72	H	-0.903618	-1.565611	-0.683124
C73	C	-0.533951	-1.119593	-0.611115
N74	N	-0.589516	-1.154190	-0.581318
H75	H	-0.200598	-1.634172	-1.095627
C76	C	-0.432443	-0.918011	-0.755173
N77	N	-0.411541	-0.883418	-0.833871
