data_functionalizedCrystal
_audit_creation_method	'MofGen! by Chris Wilmer'
_symmetry_space_group_name_H-M	'P1'
_symmetry_Int_Tables_number	1
_symmetry_cell_setting	triclinic
loop_
_symmetry_equiv_pos_as_xyz
  x,y,z
_cell_length_a	10.654550
_cell_length_b	23.532357
_cell_length_c	9.130313
_cell_angle_alpha	89.988834
_cell_angle_beta	89.993098
_cell_angle_gamma	83.656597
loop_
_atom_site_label
_atom_site_type_symbol
_atom_site_fract_x
_atom_site_fract_y
_atom_site_fract_z
O1	O	1.665273	0.079987	-0.121940
O2	O	1.299550	0.087608	-0.121918
O3	O	1.493473	0.000936	-0.121899
O4	O	1.471351	0.166659	-0.121958
O5	O	1.493461	0.000932	0.121700
O6	O	1.299538	0.087604	0.121681
O7	O	1.665261	0.079983	0.121659
Cu8	Cu	1.482399	0.083793	0.143913
Cu9	Cu	1.482413	0.083798	-0.144171
O10	O	1.471339	0.166655	0.121641
C11	C	1.252764	0.087046	-0.000115
C12	C	1.113375	0.085372	-0.000106
C13	C	1.032252	0.136403	-0.000145
C14	C	0.901282	0.134827	-0.000170
C15	C	0.932570	0.031184	-0.000122
C16	C	1.063537	0.032761	-0.000087
C17	C	1.082089	0.189015	-0.000164
C18	C	1.000965	0.240050	-0.000205
C19	C	0.869995	0.238473	-0.000230
C20	C	0.820149	0.185862	-0.000214
C21	C	1.492913	-0.020286	-0.000095
C22	C	1.491250	-0.083516	-0.000081
C23	C	1.480812	-0.475593	-0.132946
C24	C	1.479231	-0.535002	-0.132954
O25	O	1.478376	-0.565722	-0.245883
N26	N	1.478440	-0.564721	-0.000170
C27	C	1.479218	-0.535026	0.132631
O28	O	1.478399	-0.565760	0.245573
C29	C	1.480790	-0.475617	0.132638
C30	C	1.481594	-0.445902	-0.000155
C31	C	1.481614	-0.445878	-0.265727
C32	C	1.483198	-0.386472	-0.265719
C33	C	1.483980	-0.356782	-0.132928
C34	C	1.483177	-0.386497	-0.000146
C35	C	1.481559	-0.445923	0.265437
C36	C	1.483131	-0.386510	0.265432
C37	C	1.483934	-0.356795	0.132640
C38	C	1.485543	-0.297401	0.132653
N39	N	1.486334	-0.267682	-0.000131
C40	C	1.485552	-0.297372	-0.132921
C41	C	1.475913	-0.659789	0.132607
C42	C	1.474350	-0.719198	0.132602
C43	C	1.474361	-0.719170	-0.132984
C44	C	1.475933	-0.659761	-0.132977
C45	C	1.476704	-0.630071	-0.000177
C46	C	1.488879	-0.172617	-0.132893
C47	C	1.490468	-0.113206	-0.132872
C48	C	1.490451	-0.113239	0.132712
C49	C	1.488868	-0.172645	0.132693
C50	C	1.488078	-0.202332	-0.000122
O51	O	1.486393	-0.266643	0.245525
O52	O	1.486355	-0.266631	-0.245845
C53	C	1.712047	0.080545	-0.000147
C54	C	1.851437	0.082219	-0.000166
C55	C	1.471898	0.187877	-0.000167
C56	C	1.473562	0.251107	-0.000190
N57	N	1.482398	0.083789	0.346535
N58	N	1.482424	0.083798	-0.346794
C59	C	1.406706	0.048936	0.576589
C60	C	1.406696	0.048930	0.423252
C61	C	1.558124	0.118652	0.423163
C62	C	1.558140	0.118655	0.576497
C63	C	1.330990	0.014079	0.653298
C64	C	1.255266	-0.020786	0.576681
C65	C	1.255255	-0.020792	0.423344
C66	C	1.330970	0.014066	0.346625
H67	H	1.488230	-0.196780	-0.241043
H68	H	0.891974	-0.011650	-0.000133
C69	C	1.707810	0.187576	0.561019
C70	C	1.641367	0.156977	0.660726
H71	H	1.759189	0.211235	0.613022
H72	H	1.759596	0.161584	0.501217
H73	H	1.649703	0.210669	0.501214
H74	H	1.699475	0.133880	0.720525
H75	H	1.589577	0.182972	0.720554
H76	H	1.188730	0.190304	-0.000151
H77	H	1.483740	-0.362338	0.373577
C78	C	1.489015	-0.166702	0.395213
C79	C	1.487991	-0.205311	0.278658
H80	H	1.488456	-0.186866	0.485325
H81	H	1.562873	-0.147594	0.389691
H82	H	1.416395	-0.139467	0.389678
H83	H	1.560617	-0.232544	0.284186
H84	H	1.414126	-0.224429	0.284182
H85	H	1.129590	-0.008793	-0.000058
C86	C	1.187838	0.288488	-0.000207
C87	C	1.055752	0.297878	-0.000227
H88	H	1.221655	0.324190	-0.000230
H89	H	1.215702	0.267459	0.084752
H90	H	1.215735	0.267452	-0.085145
H91	H	1.027854	0.318910	0.084718
H92	H	1.027876	0.318916	-0.085194
H93	H	1.476545	-0.635620	0.240755
C94	C	0.852230	0.341077	-0.000286
C95	C	0.780822	0.294569	-0.000274
H96	H	0.797177	0.375709	-0.000328
H97	H	0.903935	0.339538	0.084670
H98	H	0.903991	0.339530	-0.085227
H99	H	0.729067	0.296114	0.084673
H100	H	0.729095	0.296109	-0.085239
C101	C	1.581843	-0.743436	-0.359370
C102	C	1.473494	-0.751815	-0.278952
H103	H	1.581310	-0.763594	-0.449473
H104	H	1.582887	-0.703807	-0.378383
H105	H	1.654813	-0.757234	-0.304796
H106	H	1.400524	-0.738013	-0.333521
H107	H	1.472438	-0.791452	-0.259943
H108	H	1.193629	-0.049169	0.639156
C109	C	1.365883	-0.731512	0.358970
C110	C	1.473472	-0.751854	0.278576
H111	H	1.365332	-0.751672	0.449088
H112	H	1.366950	-0.691885	0.377953
H113	H	1.292398	-0.737192	0.304395
H114	H	1.546957	-0.746170	0.333146
H115	H	1.472416	-0.791490	0.259597
H116	H	1.330962	0.014055	0.221767
C117	C	1.490312	-0.119154	-0.395399
C118	C	1.491342	-0.080544	-0.278848
H119	H	1.490842	-0.098990	-0.485513
H120	H	1.562929	-0.146383	-0.389882
H121	H	1.416451	-0.138269	-0.389856
H122	H	1.565208	-0.061432	-0.284385
H123	H	1.418718	-0.053306	-0.284368
H124	H	0.713503	0.184582	-0.000211
C125	C	1.375637	-0.362260	-0.492030
C126	C	1.484009	-0.353843	-0.411738
H127	H	1.376117	-0.342124	-0.582192
H128	H	1.374614	-0.401895	-0.510928
H129	H	1.302683	-0.348458	-0.437428
H130	H	1.556964	-0.367649	-0.466336
H131	H	1.485044	-0.314199	-0.392844
H132	H	1.480973	-0.470045	-0.373868
C133	C	1.370781	-0.041076	0.872983
C134	C	1.331009	0.014083	0.821847
H135	H	1.370800	-0.041069	0.977037
H136	H	1.314846	-0.066820	0.838337
H137	H	1.453684	-0.052741	0.838271
H138	H	1.248101	0.025747	0.856550
H139	H	1.386946	0.039836	0.856507
H140	H	1.476585	-0.635571	-0.241109
H141	H	1.193606	-0.049184	0.360967
C142	C	1.371731	-0.506729	0.419503
C143	C	1.480623	-0.478564	0.411422
H144	H	1.371144	-0.526878	0.509635
H145	H	1.299138	-0.479489	0.413924
H146	H	1.371073	-0.532929	0.340439
H147	H	1.481275	-0.452362	0.490480
H148	H	1.553234	-0.505808	0.417015
C149	C	1.492848	-0.022176	0.250620
C150	C	1.491301	-0.080595	0.278672
H151	H	1.493358	-0.002022	0.340731
H152	H	1.566349	-0.016497	0.196076
H153	H	1.419871	-0.008388	0.196046
H154	H	1.564283	-0.094384	0.333236
H155	H	1.417792	-0.086277	0.333239
H156	H	1.619765	0.147033	0.360686
