data_functionalizedCrystal
_audit_creation_method	'MofGen! by Chris Wilmer'
_symmetry_space_group_name_H-M	'P1'
_symmetry_Int_Tables_number	1
_symmetry_cell_setting	triclinic
loop_
_symmetry_equiv_pos_as_xyz
  x,y,z
_cell_length_a	18.366186
_cell_length_b	19.288864
_cell_length_c	19.288865
_cell_angle_alpha	96.863755
_cell_angle_beta	90.011479
_cell_angle_gamma	89.977106
loop_
_atom_site_label
_atom_site_type_symbol
_atom_site_fract_x
_atom_site_fract_y
_atom_site_fract_z
O1	O	0.060791	-0.921353	0.086649
O2	O	0.560791	-0.421353	0.586649
O3	O	0.060743	-0.719092	0.098337
O4	O	0.560743	-0.219092	0.598337
O5	O	0.060754	-0.826067	-0.008637
O6	O	0.560754	-0.326067	0.491363
O7	O	0.060780	-0.814378	0.193623
O8	O	0.560780	-0.314378	0.693623
O9	O	-0.060345	-0.826049	-0.008643
O10	O	0.439655	-0.326049	0.491357
O11	O	-0.060357	-0.719074	0.098332
O12	O	0.439643	-0.219074	0.598332
O13	O	-0.060308	-0.921335	0.086643
O14	O	0.439692	-0.421335	0.586643
Zn15	Zn	-0.079559	-0.820201	0.092487
Zn16	Zn	0.420441	-0.320201	0.592487
Zn17	Zn	0.079994	-0.820225	0.092494
Zn18	Zn	0.579994	-0.320225	0.592494
O19	O	-0.060319	-0.814360	0.193618
O20	O	0.439681	-0.314360	0.693618
C21	C	0.000187	-0.693207	0.097959
C22	C	0.500187	-0.193207	0.597959
C23	C	0.000167	-0.616103	0.096830
C24	C	0.500167	-0.116103	0.596830
N25	N	-0.188451	-0.820190	0.092482
N26	N	0.311549	-0.320190	0.592482
C27	C	0.000202	-0.825682	-0.034516
C28	C	0.500202	-0.325682	0.465484
C29	C	0.000195	-0.824553	-0.111620
C30	C	0.500195	-0.324553	0.388380
C31	C	-0.226546	-0.867574	0.045137
C32	C	0.273454	-0.367574	0.545137
C33	C	-0.302774	-0.867578	0.045134
C34	C	0.197226	-0.367578	0.545134
C35	C	-0.340903	-0.820206	0.092488
C36	C	0.159097	-0.320206	0.592488
C37	C	-0.302799	-0.772813	0.139836
C38	C	0.197201	-0.272813	0.639836
C39	C	-0.226572	-0.772805	0.139834
C40	C	0.273428	-0.272805	0.639834
C41	C	-0.461657	-0.810907	0.155775
C42	C	0.038343	-0.310907	0.655775
C43	C	-0.537882	-0.810920	0.155779
C44	C	-0.037882	-0.310920	0.655779
C45	C	-0.576011	-0.820225	0.092496
C46	C	-0.076011	-0.320225	0.592496
C47	C	-0.537905	-0.829533	0.029207
C48	C	-0.037905	-0.329533	0.529207
C49	C	-0.461679	-0.829525	0.029204
C50	C	0.038321	-0.329525	0.529204
C51	C	-0.423558	-0.820208	0.092496
C52	C	0.076442	-0.320208	0.592496
C53	C	-0.696761	-0.867617	0.045144
C54	C	-0.196761	-0.367617	0.545144
C55	C	-0.772990	-0.867616	0.045140
C56	C	-0.272990	-0.367616	0.545140
C57	C	-0.773014	-0.772854	0.139849
C58	C	-0.273014	-0.272854	0.639849
C59	C	-0.696786	-0.772851	0.139847
C60	C	-0.196786	-0.272851	0.639847
C61	C	-0.658664	-0.820236	0.092495
C62	C	-0.158664	-0.320236	0.592495
N63	N	0.188885	-0.820242	0.092493
N64	N	0.688885	-0.320242	0.592493
C65	C	0.000250	-0.947220	0.087022
C66	C	0.500250	-0.447220	0.587022
C67	C	0.000274	-1.024324	0.088151
C68	C	0.500274	-0.524324	0.588151
C69	C	0.000187	-0.571407	0.159598
C70	C	0.500187	-0.071407	0.659598
C71	C	0.000195	-0.498960	0.158537
C72	C	0.500195	0.001040	0.658537
C73	C	0.000198	-0.471212	0.094705
C74	C	0.500198	0.028788	0.594705
C75	C	0.000174	-0.515918	0.031929
C76	C	0.500174	-0.015918	0.531929
C77	C	0.000159	-0.588364	0.032991
C78	C	0.500159	-0.088364	0.532991
C79	C	0.042642	-0.362956	0.044527
C80	C	0.542642	0.137044	0.544527
C81	C	0.042662	-0.290512	0.043468
C82	C	0.542662	0.209488	0.543468
C83	C	0.000241	-0.247767	0.091425
C84	C	0.500241	0.252233	0.591425
C85	C	-0.042189	-0.277473	0.140454
C86	C	0.457811	0.222527	0.640454
C87	C	-0.042205	-0.349918	0.141517
C88	C	0.457795	0.150082	0.641517
C89	C	0.000214	-0.392658	0.093546
C90	C	0.500214	0.107342	0.593546
C91	C	0.000269	-0.124514	0.153047
C92	C	0.500269	0.375486	0.653047
C93	C	0.000272	-0.052066	0.151984
C94	C	0.500272	0.447934	0.651984
C95	C	0.000259	-0.069026	0.025374
C96	C	0.500259	0.430974	0.525374
C97	C	0.000248	-0.141473	0.026439
C98	C	0.500248	0.358527	0.526439
C99	C	0.000256	-0.169212	0.090278
C100	C	0.500256	0.330788	0.590278
C101	C	0.000207	-0.887321	-0.156316
C102	C	0.500207	-0.387321	0.343684
C103	C	0.000218	-0.886260	-0.228763
C104	C	0.500218	-0.386260	0.271237
C105	C	0.000203	-0.822428	-0.256511
C106	C	0.500203	-0.322428	0.243489
C107	C	0.000196	-0.759652	-0.211805
C108	C	0.500196	-0.259652	0.288195
C109	C	0.000192	-0.760714	-0.139359
C110	C	0.500192	-0.260714	0.360641
C111	C	-0.042227	-0.772242	-0.364800
C112	C	0.457773	-0.272242	0.135200
C113	C	-0.042228	-0.771182	-0.437245
C114	C	0.457772	-0.271182	0.062755
C115	C	0.000219	-0.819148	-0.479956
C116	C	0.500219	-0.319148	0.020044
C117	C	0.042657	-0.868186	-0.450216
C118	C	0.542657	-0.368186	0.049784
C119	C	0.042653	-0.869248	-0.377771
C120	C	0.542653	-0.369248	0.122229
C121	C	0.000208	-0.821269	-0.335065
C122	C	0.500208	-0.321269	0.164935
C123	C	0.000244	-0.880770	-0.603209
C124	C	0.500244	-0.380770	-0.103209
C125	C	0.000259	-0.879707	-0.675657
C126	C	0.500259	-0.379707	-0.175657
C127	C	0.000230	-0.753097	-0.658697
C128	C	0.500230	-0.253097	-0.158697
C129	C	0.000221	-0.754162	-0.586250
C130	C	0.500221	-0.254162	-0.086250
C131	C	0.000225	-0.818001	-0.558511
C132	C	0.500225	-0.318001	-0.058511
C133	C	0.000234	-0.814745	0.219497
C134	C	0.500234	-0.314745	0.719497
C135	C	0.000246	-0.815874	0.296601
C136	C	0.500246	-0.315874	0.796601
H137	H	-0.195509	-0.906156	0.006579
H138	H	0.304491	-0.406156	0.506579
O139	O	-0.343877	-0.918694	-0.005926
O140	O	0.156123	-0.418694	0.494074
H141	H	-0.304562	-0.951645	-0.038848
H142	H	0.195438	-0.451645	0.461152
O143	O	0.000209	-0.684249	-0.688617
O144	O	0.500209	-0.184249	-0.188617
H145	H	0.049561	-0.654106	-0.670640
H146	H	0.549561	-0.154106	-0.170640
O147	O	-0.185472	-0.721699	0.190899
O148	O	0.314528	-0.221699	0.690899
H149	H	-0.200076	-0.730378	0.245028
H150	H	0.299924	-0.230378	0.745028
O151	O	-0.814143	-0.721777	0.190933
O152	O	-0.314143	-0.221777	0.690933
H153	H	-0.799486	-0.730467	0.245053
H154	H	-0.299486	-0.230467	0.745053
H155	H	0.000185	-0.707679	-0.234401
H156	H	0.500185	-0.207679	0.265599
O157	O	0.000175	-0.601328	0.228449
O158	O	0.500175	-0.101328	0.728449
H159	H	0.000179	-0.558071	0.271917
H160	H	0.500179	-0.058071	0.771917
O161	O	0.000257	-0.039113	-0.043478
O162	O	0.500257	0.460887	0.456522
H163	H	0.049623	-0.006544	-0.046995
H164	H	0.549623	0.493456	0.453005
H165	H	-0.568948	-0.837110	-0.022324
H166	H	-0.068948	-0.337110	0.477676
O167	O	0.000224	-0.450737	0.226238
O168	O	0.500224	0.049263	0.726238
H169	H	0.000232	-0.482198	0.270807
H170	H	0.500232	0.017802	0.770807
O171	O	-0.655690	-0.721752	0.190920
O172	O	-0.155690	-0.221752	0.690920
H173	H	-0.695007	-0.688815	0.223853
H174	H	-0.195007	-0.188815	0.723853
H175	H	-0.076756	-0.374102	0.181436
H176	H	0.423244	0.125898	0.681436
H177	H	-0.076733	-0.242671	0.179506
H178	H	0.423267	0.257329	0.679506
O179	O	-0.814079	-0.918725	-0.005933
O180	O	-0.314079	-0.418725	0.494067
H181	H	-0.873489	-0.910765	0.002016
H182	H	-0.373489	-0.410765	0.502016
H183	H	0.077208	-0.909175	-0.353560
H184	H	0.577208	-0.409175	0.146440
H185	H	0.000236	-0.177866	-0.024674
H186	H	0.500236	0.322134	0.475326
O187	O	0.000262	-0.949623	-0.573287
O188	O	0.500262	-0.449623	-0.073287
H189	H	-0.049101	-0.953136	-0.540705
H190	H	0.450899	-0.453136	-0.040705
O191	O	0.088449	-0.919923	-0.496271
O192	O	0.588449	-0.419923	0.003729
H193	H	0.081333	-0.910942	-0.551643
H194	H	0.581333	-0.410942	-0.051643
O195	O	-0.578974	-0.800885	0.224040
O196	O	-0.078974	-0.300885	0.724040
H197	H	-0.638384	-0.802464	0.213412
H198	H	-0.138384	-0.302464	0.713412
H199	H	0.000182	-0.709599	-0.102967
H200	H	0.500182	-0.209599	0.397033
O201	O	0.000266	-0.947409	-0.723871
O202	O	0.500266	-0.447409	-0.223871
H203	H	0.000258	-0.991975	-0.692408
H204	H	0.500258	-0.491975	-0.192408
H205	H	0.000284	-0.015674	0.203099
H206	H	0.500284	0.484326	0.703099
O207	O	0.000191	-0.686462	-0.538034
O208	O	0.500191	-0.186462	-0.038034
H209	H	0.000174	-0.641896	-0.569498
H210	H	0.500174	-0.141896	-0.069498
O211	O	0.000171	-0.485994	-0.036920
O212	O	0.500171	0.014006	0.463080
H213	H	0.049517	-0.503998	-0.067075
H214	H	0.549517	-0.003998	0.432925
O215	O	0.000263	-0.154442	0.221897
O216	O	0.500263	0.345558	0.721897
H217	H	0.000264	-0.111187	0.265367
H218	H	0.500264	0.388813	0.765367
O219	O	-0.087999	-0.718297	-0.469321
O220	O	0.412001	-0.218297	0.030679
H221	H	-0.117504	-0.685112	-0.427451
H222	H	0.382496	-0.185112	0.072549
O223	O	-0.343926	-0.721727	0.190917
O224	O	0.156074	-0.221727	0.690917
H225	H	-0.329268	-0.730407	0.245039
H226	H	0.170732	-0.230407	0.745039
O227	O	-0.420576	-0.839551	-0.039051
O228	O	0.079424	-0.339551	0.460949
H229	H	-0.459890	-0.846017	-0.083059
H230	H	0.040110	-0.346017	0.416941
H231	H	-0.076796	-0.733180	-0.330029
H232	H	0.423204	-0.233180	0.169971
H233	H	0.077215	-0.266331	0.003548
H234	H	0.577215	0.233669	0.503548
H235	H	0.000212	-0.939303	-0.133736
H236	H	0.500212	-0.439303	0.366264
O237	O	0.088403	-0.409059	-0.007198
O238	O	0.588403	0.090941	0.492802
H239	H	0.117919	-0.376233	-0.041459
H240	H	0.617919	0.123767	0.458541
O241	O	0.000138	-0.636579	-0.034711
O242	O	0.500138	-0.136579	0.465289
H243	H	0.049496	-0.626773	-0.065268
H244	H	0.549496	-0.126773	0.434732
O245	O	-0.655635	-0.918712	-0.005933
O246	O	-0.155635	-0.418712	0.494067
H247	H	-0.694935	-0.951655	-0.038866
H248	H	-0.194935	-0.451655	0.461134
O249	O	-0.420533	-0.800876	0.224035
O250	O	0.079467	-0.300876	0.724035
H251	H	-0.459834	-0.794418	0.268042
H252	H	0.040166	-0.294418	0.768042
O253	O	0.000221	-0.953961	-0.276986
O254	O	0.500221	-0.453961	0.223014
H255	H	0.000217	-0.998530	-0.245525
H256	H	0.500217	-0.498530	0.254475
