data_functionalizedCrystal
_audit_creation_method	'MofGen! by Chris Wilmer'
_symmetry_space_group_name_H-M	'P1'
_symmetry_Int_Tables_number	1
_symmetry_cell_setting	triclinic
loop_
_symmetry_equiv_pos_as_xyz
  x,y,z
_cell_length_a	16.109301
_cell_length_b	16.109302
_cell_length_c	14.586319
_cell_angle_alpha	89.987756
_cell_angle_beta	90.005533
_cell_angle_gamma	96.538228
loop_
_atom_site_label
_atom_site_type_symbol
_atom_site_fract_x
_atom_site_fract_y
_atom_site_fract_z
O1	O	-1.103136	0.106876	-0.076182
O2	O	-0.861074	0.120175	-0.076197
O3	O	-0.988754	-0.007505	-0.076183
O4	O	-0.975456	0.234556	-0.076196
O5	O	-0.988736	-0.007527	0.076298
O6	O	-0.861056	0.120154	0.076284
O7	O	-1.103118	0.106854	0.076299
Cu8	Cu	-0.982085	0.113502	0.090214
Cu9	Cu	-0.982107	0.113527	-0.090112
O10	O	-0.975438	0.234535	0.076285
C11	C	-0.830090	0.119626	0.000042
C12	C	-0.737795	0.118011	0.000036
C13	C	-0.988206	-0.038491	0.000057
C14	C	-0.986591	-0.130786	0.000055
C15	C	-1.134102	0.107404	0.000058
C16	C	-1.226397	0.109019	0.000057
C17	C	-0.975986	0.265520	0.000043
C18	C	-0.977601	0.357816	0.000039
C19	C	-0.515523	0.190018	0.000043
C20	C	-0.428802	0.188494	0.000049
C21	C	-0.448676	0.037006	0.000053
C22	C	-0.535395	0.038530	0.000054
C23	C	-0.568816	0.115039	0.000044
C24	C	-0.395376	0.111990	0.000050
C25	C	-0.301350	0.110337	0.000056
C26	C	-0.662848	0.116693	0.000040
N27	N	-0.982076	0.113484	0.217046
C28	C	-0.981346	0.570168	-0.083072
C29	C	-0.982872	0.656889	-0.083070
C30	C	-0.982848	0.656855	0.083173
C31	C	-0.981328	0.570135	0.083170
C32	C	-0.980572	0.526795	0.000044
C33	C	-0.983619	0.700234	0.000049
C34	C	-0.985275	0.794260	0.000052
C35	C	-0.978919	0.432763	0.000041
N36	N	-0.982122	0.113539	-0.216944
C37	C	-0.931694	0.063079	0.548074
C38	C	-0.931687	0.063067	0.452093
C39	C	-1.032511	0.163946	0.452034
C40	C	-1.032521	0.163952	0.548014
C41	C	-0.982108	0.113520	0.596031
C42	C	-0.982091	0.113502	0.404071
C43	C	-0.982084	0.113490	0.300003
C44	C	-0.982116	0.113531	0.700105
H45	H	-0.385414	0.249550	0.000051
O46	O	-0.416168	-0.037290	-0.000108
C47	C	-0.366592	-0.042679	-0.079070
H48	H	-0.387093	0.000772	-0.134265
H49	H	-0.298198	-0.023488	-0.061218
C50	C	-0.351953	-0.186556	-0.047088
C51	C	-0.377138	-0.133193	-0.114882
H52	H	-0.358454	-0.242389	-0.069177
H53	H	-0.385350	-0.182924	0.006113
H54	H	-0.294960	-0.170553	-0.032217
H55	H	-0.434132	-0.149189	-0.129743
H56	H	-0.343750	-0.136829	-0.168086
H57	H	-0.578788	-0.022530	0.000057
H58	H	-0.890644	0.022013	0.587167
H59	H	-0.980730	0.534884	-0.150758
H60	H	-0.983503	0.692199	-0.150752
H61	H	-0.890636	0.021992	0.413051
O62	O	-1.081398	0.212915	0.405246
C63	C	-1.070593	0.202081	0.310248
H64	H	-1.007629	0.178362	0.297163
H65	H	-1.122746	0.154727	0.283012
C66	C	-1.150729	0.315386	0.277015
C67	C	-1.073393	0.286260	0.260943
H68	H	-1.152460	0.367310	0.246600
H69	H	-1.158011	0.322684	0.341017
H70	H	-1.194181	0.275916	0.254318
H71	H	-1.029943	0.325724	0.283650
H72	H	-1.066103	0.278971	0.196944
H73	H	-0.542731	0.252317	0.000043
O74	O	-0.980451	0.527927	0.163860
C75	C	-0.907594	0.487225	0.168825
H76	H	-0.883395	0.477391	0.096651
H77	H	-0.857779	0.527253	0.209829
C78	C	-0.957709	0.414055	0.305001
C79	C	-0.927992	0.401971	0.216355
H80	H	-0.970290	0.361468	0.334323
H81	H	-1.006794	0.441479	0.301659
H82	H	-0.916192	0.447414	0.339159
H83	H	-0.969512	0.368621	0.182196
H84	H	-0.878915	0.374539	0.219693
H85	H	-1.073579	0.205029	0.587062
H86	H	-0.983462	0.692153	0.150850
