data_functionalizedCrystal
_audit_creation_method	'MofGen! by Chris Wilmer'
_symmetry_space_group_name_H-M	'P1'
_symmetry_Int_Tables_number	1
_symmetry_cell_setting	triclinic
loop_
_symmetry_equiv_pos_as_xyz
  x,y,z
_cell_length_a	12.759401
_cell_length_b	12.759400
_cell_length_c	12.759393
_cell_angle_alpha	89.969349
_cell_angle_beta	89.982549
_cell_angle_gamma	90.012209
loop_
_atom_site_label
_atom_site_type_symbol
_atom_site_fract_x
_atom_site_fract_y
_atom_site_fract_z
Zn1	Zn	1.606255	-0.418229	-0.593991
Zn2	Zn	1.606157	-0.593948	-0.418315
Zn3	Zn	1.430560	-0.418281	-0.418331
Zn4	Zn	1.430550	-0.593864	-0.593956
O5	O	1.518381	-0.506081	-0.506148
O6	O	1.753263	-0.441552	-0.570696
O7	O	1.582828	-0.570703	-0.271296
O8	O	1.453912	-0.271253	-0.441654
O9	O	1.753191	-0.570653	-0.441627
O10	O	1.582994	-0.271215	-0.570711
O11	O	1.453817	-0.441641	-0.271307
O12	O	1.283538	-0.441559	-0.441620
O13	O	1.453895	-0.570508	-0.740982
O14	O	1.283531	-0.570558	-0.570651
O15	O	1.582984	-0.441470	-0.741008
O16	O	1.582818	-0.740958	-0.441593
O17	O	1.453800	-0.740896	-0.570636
C18	C	1.245413	-0.506056	-0.506134
C19	C	1.128637	-0.506071	-0.506152
C20	C	1.073805	-0.438975	-0.573463
C21	C	0.964081	-0.438995	-0.573469
C22	C	0.964030	-0.573216	-0.438853
C23	C	1.073752	-0.573189	-0.438841
C24	C	1.128690	-0.371856	-0.640774
C25	C	1.073858	-0.304756	-0.708090
C26	C	0.964134	-0.304776	-0.708097
C27	C	0.909242	-0.371896	-0.640787
C28	C	1.518326	-0.779048	-0.506132
C29	C	1.518398	-0.895825	-0.506160
C30	C	1.585578	-0.950587	-0.573415
C31	C	1.585627	-1.060311	-0.573441
C32	C	1.451314	-1.060501	-0.438947
C33	C	1.451260	-0.950779	-0.438927
C34	C	1.652716	-0.895633	-0.640647
C35	C	1.719901	-0.950395	-0.707907
C36	C	1.719950	-1.060119	-0.707933
C37	C	1.652813	-1.115081	-0.640699
C38	C	1.792414	-0.506106	-0.506164
C39	C	1.909191	-0.506117	-0.506170
C40	C	1.518449	-0.505974	-0.780182
C41	C	1.518478	-0.505928	-0.896959
C42	C	1.518465	-0.232047	-0.506188
C43	C	1.518501	-0.115271	-0.506205
C44	C	1.451331	-0.438713	-0.951833
C45	C	1.451363	-0.438682	-1.061557
C46	C	1.585698	-0.573083	-1.061523
C47	C	1.585660	-0.573119	-0.951801
C48	C	1.384149	-0.371522	-0.896990
C49	C	1.316997	-0.304301	-0.951864
C50	C	1.317029	-0.304269	-1.061588
C51	C	1.384212	-0.371459	-1.116438
C52	C	1.518373	-0.506111	-0.233181
C53	C	1.518548	-0.505861	-0.116405
H54	H	1.118397	-0.627825	-0.384032
Br55	Br	1.811113	-1.134438	-0.799226
Br56	Br	0.889721	-0.213703	-0.799442
Br57	Br	1.676871	-0.664263	-1.135962
Br58	Br	0.760329	-0.371909	-0.640784
Br59	Br	1.360088	-0.876451	-0.347650
Br60	Br	0.889534	-0.664303	-0.347511
H61	H	1.218033	-0.371832	-0.640776
Br62	Br	1.652626	-0.746722	-0.640643
H63	H	1.118559	-0.250103	-0.762885
H64	H	1.774556	-0.905640	-0.762653
H65	H	1.384117	-0.371538	-0.807647
H66	H	1.652846	-1.204426	-0.640737
Br67	Br	1.225819	-0.213124	-0.877429
H68	H	1.262344	-0.249542	-1.106264
Br69	Br	1.360205	-1.135091	-0.347707
Br70	Br	1.384247	-0.371422	-1.265351
Br71	Br	1.676781	-0.664349	-0.877322
