data_functionalizedCrystal
_audit_creation_method	'MofGen! by Chris Wilmer'
_symmetry_space_group_name_H-M	'P1'
_symmetry_Int_Tables_number	1
_symmetry_cell_setting	triclinic
loop_
_symmetry_equiv_pos_as_xyz
  x,y,z
_cell_length_a	12.759399
_cell_length_b	17.077404
_cell_length_c	17.077396
_cell_angle_alpha	89.980499
_cell_angle_beta	90.026002
_cell_angle_gamma	89.984659
loop_
_atom_site_label
_atom_site_type_symbol
_atom_site_fract_x
_atom_site_fract_y
_atom_site_fract_z
Zn1	Zn	-0.418260	-1.200097	0.443856
Zn2	Zn	-0.593961	-1.200022	0.312596
Zn3	Zn	-0.418297	-1.068829	0.312604
Zn4	Zn	-0.593898	-1.068815	0.443820
O5	O	-0.506104	-1.134441	0.378219
O6	O	-0.441578	-1.309934	0.426456
O7	O	-0.570700	-1.182593	0.202750
O8	O	-0.271271	-1.086279	0.330034
O9	O	-0.570664	-1.309879	0.330020
O10	O	-0.271244	-1.182721	0.426464
O11	O	-0.441641	-1.086206	0.202756
O12	O	-0.441580	-0.958980	0.329998
O13	O	-0.570558	-1.086255	0.553671
O14	O	-0.570594	-0.958970	0.426402
O15	O	-0.441517	-1.182708	0.553698
O16	O	-0.740973	-1.182580	0.329984
O17	O	-0.740927	-1.086182	0.426394
C18	C	-0.506085	-0.930493	0.378197
C19	C	-0.506102	-0.843243	0.378207
C20	C	-0.779071	-1.134392	0.378201
C21	C	-0.895848	-1.134444	0.378220
C22	C	-0.506026	-1.134488	0.582963
C23	C	-0.505993	-1.134508	0.670213
C24	C	-0.950699	-1.184695	0.328076
C25	C	-1.060423	-1.184746	0.328103
C26	C	-1.060435	-1.084286	0.428418
C27	C	-0.950713	-1.084240	0.428395
C28	C	-1.210298	-1.277400	0.300171
C29	C	-1.265152	-1.327645	0.250016
C30	C	-1.229604	-1.339725	0.173426
C31	C	-1.139202	-1.301549	0.146975
C32	C	-1.084353	-1.251299	0.197127
C33	C	-1.119900	-1.239233	0.273728
C34	C	-0.800836	-0.991585	0.456318
C35	C	-0.745985	-0.941330	0.506466
C36	C	-0.781532	-0.929242	0.583058
C37	C	-0.871938	-0.967404	0.609505
C38	C	-0.926789	-1.017658	0.559357
C39	C	-0.891234	-1.029748	0.482766
C40	C	-0.232071	-1.134510	0.378254
C41	C	-0.115294	-1.134540	0.378269
C42	C	-0.506124	-1.339185	0.378241
C43	C	-0.506132	-1.426435	0.378251
C44	C	-0.573381	-0.802268	0.428323
C45	C	-0.573383	-0.720287	0.428336
C46	C	-0.506111	-0.679284	0.378227
C47	C	-0.438825	-0.720264	0.328108
C48	C	-0.438818	-0.802243	0.328100
C49	C	-0.438846	-0.549394	0.328127
C50	C	-0.438854	-0.467410	0.328134
C51	C	-0.573410	-0.467438	0.428363
C52	C	-0.573404	-0.549417	0.428355
C53	C	-0.506119	-0.590393	0.378235
C54	C	-0.506105	-1.134438	0.174271
C55	C	-0.505842	-1.134570	0.087022
C56	C	-0.438796	-1.184733	0.711219
C57	C	-0.438761	-1.184742	0.793199
C58	C	-0.505930	-1.134531	0.834173
C59	C	-0.573130	-1.084300	0.793161
C60	C	-0.573159	-1.084288	0.711182
C61	C	-0.573066	-1.084332	0.964032
C62	C	-0.573039	-1.084346	1.046016
C63	C	-0.438669	-1.184787	1.046048
C64	C	-0.438698	-1.184774	0.964069
C65	C	-0.505900	-1.134545	0.923064
H66	H	-0.906030	-1.225575	0.287222
F67	F	-0.367277	-1.238226	0.836837
H68	H	-0.627731	-1.043457	1.079375
F69	F	-1.248130	-1.264557	0.381692
F70	F	-0.367209	-0.845852	0.274761
H71	H	-1.105120	-1.043411	0.469268
H72	H	-0.627815	-1.043414	0.826529
H73	H	-0.736863	-0.888317	0.623887
H74	H	-0.383950	-1.225684	1.079439
H75	H	-1.000399	-1.048735	0.580899
F76	F	-0.909773	-0.954539	0.691023
H77	H	-0.672368	-0.910261	0.484928
F78	F	-0.367260	-0.423772	0.274800
H79	H	-0.771879	-1.001429	0.393953
F80	F	-0.644588	-1.030870	0.920392
F81	F	-0.644987	-0.845900	0.481653
F82	F	-0.644990	-0.676682	0.481677
F83	F	-0.367217	-1.238220	0.920464
H84	H	-0.627867	-1.043381	0.677797
H85	H	-1.110271	-1.311383	0.084605
H86	H	-1.010748	-1.220218	0.175592
H87	H	-0.628188	-0.582801	0.469153
H88	H	-1.338758	-1.358728	0.271559
F89	F	-0.645009	-0.423829	0.481714
F90	F	-0.367232	-0.593001	0.274784
F91	F	-0.367311	-1.238180	0.667619
F92	F	-1.287988	-1.393199	0.120048
F93	F	-0.367222	-0.676623	0.274784
