data_functionalizedCrystal
_audit_creation_method	'MofGen! by Chris Wilmer'
_symmetry_space_group_name_H-M	'P1'
_symmetry_Int_Tables_number	1
_symmetry_cell_setting	triclinic
loop_
_symmetry_equiv_pos_as_xyz
  x,y,z
_cell_length_a	14.971486
_cell_length_b	18.266242
_cell_length_c	14.971486
_cell_angle_alpha	90.005330
_cell_angle_beta	83.614129
_cell_angle_gamma	90.003985
loop_
_atom_site_label
_atom_site_type_symbol
_atom_site_fract_x
_atom_site_fract_y
_atom_site_fract_z
O1	O	1.186950	0.060797	0.116563
O2	O	0.926550	0.060817	0.130521
O3	O	1.063730	0.060801	-0.006658
O4	O	1.049771	0.060813	0.253742
O5	O	1.063706	-0.060961	-0.006662
O6	O	0.926527	-0.060945	0.130517
O7	O	1.186927	-0.060965	0.116559
Zn8	Zn	1.056723	-0.080287	0.123537
Zn9	Zn	1.056754	0.080139	0.123543
O10	O	1.049748	-0.060949	0.253738
C11	C	0.893214	-0.000061	0.129895
C12	C	0.793917	-0.000054	0.128024
C13	C	0.736691	-0.000051	0.208614
C14	C	0.643392	-0.000062	0.206850
C15	C	0.607320	-0.000071	0.124497
C16	C	0.664552	-0.000075	0.043902
C17	C	0.757850	-0.000070	0.045666
C18	C	0.470090	-0.000086	0.040231
C19	C	0.376786	-0.000090	0.038466
C20	C	0.355632	-0.000078	0.201415
C21	C	0.448930	-0.000073	0.203179
C22	C	0.506156	-0.000076	0.122584
N23	N	1.056709	-0.189774	0.123533
C24	C	1.111006	-0.228079	0.177877
C25	C	1.111021	-0.304724	0.177874
C26	C	1.056722	-0.343061	0.123539
C27	C	1.002421	-0.304747	0.069184
C28	C	1.002415	-0.228104	0.069181
N29	N	0.978376	-0.463408	0.121012
N30	N	0.978385	-0.536216	0.121020
C31	C	1.056740	-0.573983	0.123542
N32	N	1.135086	-0.536192	0.126074
N33	N	1.135077	-0.463378	0.126071
C34	C	1.056723	-0.426168	0.123535
C35	C	1.111058	-0.695395	0.177886
C36	C	1.111074	-0.772042	0.177877
C37	C	1.002466	-0.772064	0.069192
C38	C	1.002458	-0.695419	0.069195
C39	C	1.056752	-0.657089	0.123547
C40	C	1.220263	-0.000085	0.117185
C41	C	1.319561	-0.000087	0.119056
C42	C	1.063094	-0.000079	-0.039985
C43	C	1.061223	-0.000079	-0.139282
N44	N	1.056776	0.189626	0.123540
C45	C	1.141812	-0.000085	-0.196507
C46	C	1.140049	-0.000078	-0.289807
C47	C	1.057696	-0.000069	-0.325879
C48	C	0.977101	-0.000060	-0.268646
C49	C	0.978865	-0.000062	-0.175349
C50	C	0.973430	-0.000057	-0.463109
C51	C	0.971665	-0.000056	-0.556413
C52	C	1.134614	-0.000073	-0.577567
C53	C	1.136378	-0.000075	-0.484269
C54	C	1.055782	-0.000067	-0.427043
C55	C	1.050384	-0.000067	0.287065
C56	C	1.052254	-0.000063	0.386362
H57	H	0.596802	-0.000059	0.272474
H58	H	0.910047	-0.000048	-0.298024
Br59	Br	1.253584	-0.000108	-0.147562
H60	H	1.200238	-0.000076	-0.624165
Br61	Br	0.547754	-0.000094	-0.069150
H62	H	0.478296	-0.000059	0.270239
H63	H	0.913240	-0.000057	-0.128756
Br64	Br	0.785637	-0.000033	0.320385
H65	H	0.958256	-0.803277	0.024949
Br66	Br	0.277969	-0.000073	0.310796
Br67	Br	0.615598	-0.000094	-0.067865
H68	H	0.347419	-0.000098	-0.028593
H69	H	0.904606	-0.000061	-0.585780
H70	H	1.155268	-0.664186	0.222142
Br71	Br	1.184777	-0.824028	0.251629
H72	H	0.804443	-0.000071	-0.019958
H73	H	1.155237	-0.335917	0.222130
Br74	Br	1.249425	-0.000087	-0.367467
Br75	Br	1.184669	-0.176063	0.251661
Br76	Br	0.928734	-0.356774	-0.004564
Br77	Br	0.928715	-0.176115	-0.004573
H78	H	0.958239	-0.664231	0.024947
Br79	Br	1.248144	-0.000085	-0.435314
Br80	Br	0.864048	-0.000044	-0.385445
