data_functionalizedCrystal
_audit_creation_method	'MofGen! by Chris Wilmer'
_symmetry_space_group_name_H-M	'P1'
_symmetry_Int_Tables_number	1
_symmetry_cell_setting	triclinic
loop_
_symmetry_equiv_pos_as_xyz
  x,y,z
_cell_length_a	17.699077
_cell_length_b	17.699104
_cell_length_c	9.730223
_cell_angle_alpha	89.997740
_cell_angle_beta	90.000360
_cell_angle_gamma	83.286047
loop_
_atom_site_label
_atom_site_type_symbol
_atom_site_fract_x
_atom_site_fract_y
_atom_site_fract_z
O1	O	1.004081	0.095686	-0.114274
O2	O	0.783703	0.108143	-0.114282
O3	O	0.900110	-0.008274	-0.114266
O4	O	0.887674	0.212102	-0.114291
O5	O	0.900109	-0.008271	0.114314
O6	O	0.783702	0.108145	0.114298
O7	O	1.004080	0.095688	0.114305
Zn8	Zn	0.893891	0.101917	0.150594
Zn9	Zn	0.893893	0.101914	-0.150570
O10	O	0.887673	0.212105	0.114289
C11	C	0.755506	0.107698	0.000008
C12	C	0.671487	0.106362	0.000005
C13	C	0.632019	0.105733	0.124606
C14	C	0.553076	0.104465	0.124607
C15	C	0.513603	0.103831	0.000007
C16	C	0.553077	0.104457	-0.124603
C17	C	0.632019	0.105720	-0.124603
C18	C	0.234713	0.099364	-0.124605
C19	C	0.155765	0.098103	-0.124595
C20	C	0.155771	0.098109	0.124605
C21	C	0.234713	0.099372	0.124605
C22	C	0.274180	0.099994	-0.000004
C23	C	0.359779	0.101367	-0.000004
C24	C	0.428005	0.102463	0.000006
C25	C	0.899661	-0.036469	0.000025
C26	C	0.898317	-0.120487	0.000025
C27	C	0.959061	-0.645359	-0.000012
C28	C	0.960320	-0.566415	0.000000
C29	C	0.891984	-0.517796	0.000001
C30	C	0.822385	-0.548125	0.000004
C31	C	0.821127	-0.627067	0.000001
C32	C	0.827458	-0.229759	0.000016
C33	C	0.828722	-0.150811	0.000014
C34	C	0.966651	-0.169107	0.000015
C35	C	0.965393	-0.248049	0.000012
C36	C	0.895794	-0.278371	0.000022
C37	C	0.894430	-0.363971	0.000011
C38	C	0.893348	-0.432198	0.000002
C39	C	1.032278	0.096133	0.000013
C40	C	1.116296	0.097469	0.000007
C41	C	0.888122	0.240300	-0.000004
C42	C	0.889467	0.324318	-0.000013
N43	N	0.893895	0.101920	0.356130
N44	N	0.893894	0.101905	-0.356106
C45	C	0.945453	0.050388	0.428063
C46	C	0.945451	0.050378	0.571946
C47	C	0.842331	0.153440	0.571950
C48	C	0.842330	0.153445	0.428070
C49	C	1.004991	-0.009112	0.428062
C50	C	1.004989	-0.009121	0.571945
H51	H	0.520932	0.103935	-0.226055
H52	H	0.800341	0.195400	0.369503
O53	O	0.514626	0.103811	0.245521
C54	C	0.393012	0.101885	0.355976
C55	C	0.436463	0.102616	0.218937
H56	H	0.329807	0.100935	0.334530
H57	H	0.415512	0.049172	0.417434
H58	H	0.401549	0.155067	0.417427
H59	H	0.427944	0.049470	0.157375
H60	H	0.413954	0.155363	0.157584
H61	H	0.773072	-0.111227	0.000018
H62	H	0.800347	0.195390	0.630539
H63	H	0.987175	-0.063906	0.616566
H64	H	0.992677	-0.067155	0.389014
H65	H	0.770787	-0.254436	0.000007
O66	O	1.031723	-0.295354	0.000192
C67	C	1.110369	-0.395073	0.118654
C68	C	1.035214	-0.341557	0.118600
H69	H	1.113223	-0.432430	0.214391
H70	H	1.113237	-0.432538	0.023057
H71	H	1.160316	-0.359825	0.118592
H72	H	0.985225	-0.376745	0.118711
H73	H	1.032412	-0.304089	0.214189
O74	O	0.117544	0.097531	0.245778
C75	C	0.125890	0.097626	0.492960
C76	C	0.169270	0.098298	0.355838
H77	H	0.167694	0.098230	0.581979
H78	H	0.081925	0.149993	0.499280
H79	H	0.095936	0.044099	0.499127
H80	H	0.199270	0.151790	0.349578
H81	H	0.213193	0.045895	0.349576
H82	H	1.059754	0.008742	0.383436
H83	H	1.063021	0.003233	0.610996
O84	O	0.756073	-0.500791	-0.000054
C85	C	0.696880	-0.371070	0.000026
C86	C	0.772035	-0.424586	0.000064
H87	H	0.709759	-0.309447	0.000151
H88	H	0.662613	-0.382022	-0.095657
H89	H	0.662623	-0.382129	0.095664
H90	H	0.806353	-0.413558	-0.095509
H91	H	0.806244	-0.413622	0.095810
H92	H	1.014707	-0.684940	-0.000024
H93	H	1.016990	-0.541730	0.000003
O94	O	0.272924	0.100001	-0.245768
C95	C	0.264587	0.099809	-0.492949
C96	C	0.221213	0.099106	-0.355825
H97	H	0.222800	0.099069	-0.581966
H98	H	0.294504	0.153355	-0.499293
H99	H	0.308585	0.047463	-0.499096
H100	H	0.177180	0.151415	-0.349586
H101	H	0.191349	0.045525	-0.349539
H102	H	1.023322	-0.144410	-0.000012
O103	O	0.753457	-0.656400	-0.000068
C104	C	0.616778	-0.629926	0.000010
C105	C	0.693362	-0.596607	0.000050
H106	H	0.568171	-0.581600	0.000135
H107	H	0.612689	-0.666398	-0.095673
H108	H	0.612782	-0.666456	0.095647
H109	H	0.697410	-0.560043	-0.095523
H110	H	0.697418	-0.560179	0.095797
H111	H	0.664152	0.106256	0.226070
H112	H	0.266848	0.099892	0.226068
H113	H	0.123628	0.097586	-0.226066
H114	H	0.664152	0.106233	-0.226066
