data_functionalizedCrystal
_audit_creation_method	'MofGen! by Chris Wilmer'
_symmetry_space_group_name_H-M	'P1'
_symmetry_Int_Tables_number	1
_symmetry_cell_setting	triclinic
loop_
_symmetry_equiv_pos_as_xyz
  x,y,z
_cell_length_a	15.297475
_cell_length_b	12.759398
_cell_length_c	12.759393
_cell_angle_alpha	89.971889
_cell_angle_beta	99.687659
_cell_angle_gamma	99.667109
loop_
_atom_site_label
_atom_site_type_symbol
_atom_site_fract_x
_atom_site_fract_y
_atom_site_fract_z
Zn1	Zn	1.379184	0.696558	0.871603
Zn2	Zn	1.379055	0.872251	0.695907
Zn3	Zn	1.228314	0.666163	0.665576
Zn4	Zn	1.228266	0.841737	0.841199
O5	O	1.303705	0.769177	0.768571
O6	O	1.505413	0.745355	0.873714
O7	O	1.359025	0.844963	0.544856
O8	O	1.248402	0.523189	0.692936
O9	O	1.505318	0.874436	0.744632
O10	O	1.359245	0.545520	0.844303
O11	O	1.248276	0.693551	0.522571
O12	O	1.102062	0.663963	0.663454
O13	O	1.248319	0.822428	0.992260
O14	O	1.102027	0.792956	0.792484
O15	O	1.359199	0.715766	1.014597
O16	O	1.358978	1.015209	0.715150
O17	O	1.248194	0.992790	0.821895
C18	C	1.069310	0.721851	0.721379
C19	C	0.969035	0.701629	0.701215
C20	C	1.303591	1.042122	0.768543
C21	C	1.303625	1.158905	0.768582
C22	C	1.303768	0.769084	1.042617
C23	C	1.303795	0.769044	1.159399
C24	C	0.686403	0.913710	0.912689
C25	C	0.780616	0.932716	0.931632
C26	C	0.827725	0.874946	0.874029
C27	C	0.780612	0.798166	0.797481
C28	C	0.686390	0.779163	0.778531
C29	C	0.827713	0.740400	0.739871
C30	C	0.780599	0.663620	0.663323
C31	C	0.686386	0.644620	0.644377
C32	C	0.639277	0.702390	0.701979
C33	C	0.921935	0.759402	0.758821
C34	C	0.921922	0.624856	0.624663
C35	C	0.827709	0.605850	0.605721
C36	C	1.539015	0.816690	0.815948
C37	C	1.639290	0.836937	0.836137
C38	C	1.245978	1.202237	0.689747
C39	C	1.246017	1.311968	0.689776
C40	C	1.361352	1.335029	0.847483
C41	C	1.361317	1.225299	0.847450
C42	C	1.188286	1.135842	0.610880
C43	C	1.130633	1.179173	0.532039
C44	C	1.130672	1.288905	0.532067
C45	C	1.188364	1.355306	0.610936
C46	C	1.303792	1.495162	0.768626
C47	C	1.303699	1.378366	0.768644
C48	C	1.303694	0.769205	0.495601
C49	C	1.303842	0.768984	0.378855
C50	C	1.361538	0.713501	1.225896
C51	C	1.361559	0.713467	1.335624
C52	C	1.246092	0.824529	1.312349
C53	C	1.246067	0.824556	1.202622
C54	C	1.419265	0.657989	1.182673
C55	C	1.477014	0.602442	1.249171
C56	C	1.477035	0.602408	1.358899
C57	C	1.419308	0.657922	1.402130
H58	H	0.960285	0.821917	0.821148
O59	O	1.188162	1.029233	0.610668
C60	C	1.124865	0.979917	0.524172
H61	H	1.112277	1.040661	0.460254
H62	H	1.152077	0.912001	0.489794
H63	H	1.059059	0.947212	0.552524
O64	O	0.919244	0.893209	0.892437
C65	C	0.950762	0.798914	0.925961
H66	H	0.896480	0.727429	0.897197
H67	H	1.013784	0.792888	0.891282
H68	H	0.967511	0.800174	1.016508
H69	H	1.083735	1.324182	0.467866
O70	O	1.188551	1.461930	0.610897
C71	C	1.275046	1.515969	0.601446
H72	H	1.312341	1.460256	0.563176
H73	H	1.268637	1.588121	0.549784
H74	H	1.314101	1.543228	0.683731
O75	O	1.533052	0.548604	1.207012
C76	C	1.520636	0.560519	1.095901
H77	H	1.491048	0.635630	1.074942
H78	H	1.588206	0.567045	1.067809
H79	H	1.472616	0.488517	1.055107
H80	H	1.408321	1.389101	0.911696
H81	H	1.408260	1.190020	0.911644
O82	O	0.640597	0.969659	0.968737
C83	C	0.586124	0.898933	1.025714
H84	H	0.614554	0.821931	1.038066
H85	H	0.585061	0.936814	1.106290
H86	H	0.514711	0.880864	0.978862
O87	O	1.419362	0.658224	1.076108
C88	C	1.442461	0.763610	1.044124
H89	H	1.481742	0.814946	1.115298
H90	H	1.485752	0.764873	0.979470
H91	H	1.378571	0.796227	1.011742
O92	O	1.190156	0.878599	1.354415
C93	C	1.241502	0.956787	1.428223
H94	H	1.312544	0.977628	1.409456
H95	H	1.208835	1.031045	1.422875
H96	H	1.244648	0.924915	1.512020
H97	H	0.648029	0.582111	0.582035
O98	O	0.781978	0.531132	0.531479
C99	C	0.805058	0.431101	0.559236
H100	H	0.830998	0.431125	0.648391
H101	H	0.743107	0.366696	0.537818
H102	H	0.859729	0.414595	0.513944
O103	O	1.533210	0.548433	1.423350
C104	C	1.584135	0.499423	1.361662
H105	H	1.587217	0.543105	1.284062
H106	H	1.655229	0.502565	1.407681
H107	H	1.551141	0.412969	1.343361
O108	O	1.074566	1.114833	0.455326
C109	C	1.023678	1.176609	0.385765
H110	H	1.060661	1.262248	0.389618
H111	H	1.014074	1.143035	0.301040
H112	H	0.955150	1.174499	0.410386
O113	O	0.547755	0.683950	0.683763
C114	C	0.516314	0.650732	0.778167
H115	H	0.570631	0.679682	0.849580
H116	H	0.453288	0.685459	0.784085
H117	H	0.499598	0.560197	0.777174
O118	O	1.419472	0.658014	1.508749
C119	C	1.505935	0.702417	1.562812
H120	H	1.543195	0.755760	1.507074
H121	H	1.499466	0.751469	1.634903
H122	H	1.545061	0.635930	1.590176
O123	O	1.189967	0.878629	1.138181
C124	C	1.139020	0.927618	1.199857
H125	H	1.175977	0.938675	1.285519
H126	H	1.129374	1.008464	1.166202
H127	H	1.070512	0.875333	1.197723
H128	H	0.818969	0.995233	0.993955
H129	H	0.960278	0.577816	0.577757
