data_functionalizedCrystal
_audit_creation_method	'MofGen! by Chris Wilmer'
_symmetry_space_group_name_H-M	'P1'
_symmetry_Int_Tables_number	1
_symmetry_cell_setting	triclinic
loop_
_symmetry_equiv_pos_as_xyz
  x,y,z
_cell_length_a	8.597366
_cell_length_b	8.559649
_cell_length_c	7.088929
_cell_angle_alpha	84.655815
_cell_angle_beta	103.954530
_cell_angle_gamma	77.624636
loop_
_atom_site_label
_atom_site_type_symbol
_atom_site_fract_x
_atom_site_fract_y
_atom_site_fract_z
O1	O	2.074461	0.219466	0.182744
O2	O	1.606581	0.245558	0.105668
O3	O	1.881742	-0.000149	0.150998
O4	O	1.799300	0.465172	0.137413
O5	O	1.918523	-0.033059	0.475033
O6	O	1.643363	0.212647	0.429702
O7	O	2.111242	0.186555	0.506778
Cu8	Cu	1.880661	0.196596	0.497827
Cu9	Cu	1.837163	0.235517	0.114619
O10	O	1.836082	0.432261	0.461448
C11	C	1.565628	0.228134	0.257909
C12	C	1.388803	0.225231	0.228780
C13	C	1.906380	-0.076142	0.314041
C14	C	1.924976	-0.253547	0.317094
C15	C	2.152196	0.203979	0.354533
C16	C	2.329019	0.206884	0.383649
C17	C	1.811443	0.508255	0.298401
C18	C	1.792846	0.685662	0.295335
N19	N	1.911267	0.169221	0.767357
N20	N	1.806571	0.262879	-0.154909
H21	H	1.413122	0.193396	0.538547
H22	H	2.019790	0.072169	0.866891
C23	C	1.275215	0.243452	0.019532
H24	H	1.336431	0.255345	-0.073719
H25	H	1.185980	0.336271	-0.002275
H26	H	1.233172	0.149956	0.005488
C27	C	1.659981	0.393994	0.710663
H28	H	1.597613	0.449804	0.788537
H29	H	1.591513	0.344685	0.621305
H30	H	1.700391	0.468410	0.639226
H31	H	1.665498	-0.230663	0.274363
H32	H	2.052335	-0.337234	0.338089
