data_functionalizedCrystal
_audit_creation_method	'MofGen! by Chris Wilmer'
_symmetry_space_group_name_H-M	'P1'
_symmetry_Int_Tables_number	1
_symmetry_cell_setting	triclinic
loop_
_symmetry_equiv_pos_as_xyz
  x,y,z
_cell_length_a	12.477989
_cell_length_b	20.016444
_cell_length_c	20.016444
_cell_angle_alpha	90.002879
_cell_angle_beta	55.727976
_cell_angle_gamma	64.371720
loop_
_atom_site_label
_atom_site_type_symbol
_atom_site_fract_x
_atom_site_fract_y
_atom_site_fract_z
Zr1	Zr	1.178131	-0.039718	0.595629
O2	O	1.402653	-0.137252	0.479818
O3	O	0.953598	-0.016157	0.637469
O4	O	1.178126	-0.146391	0.628330
O5	O	1.178134	0.102922	0.488957
O6	O	1.178134	-0.146391	0.738269
O7	O	1.178126	-0.007018	0.488957
O8	O	0.776496	0.086574	0.754617
O9	O	1.579773	-0.130043	0.472609
O10	O	1.045963	0.001549	0.729703
O11	O	1.045963	0.083596	0.647656
O12	O	1.310315	-0.069738	0.636896
O13	O	1.310315	0.012309	0.554850
Zr14	Zr	1.178158	0.135624	0.770970
Zr15	Zr	1.178145	-0.039718	0.770970
Zr16	Zr	1.178145	0.135624	0.595629
Zr17	Zr	1.460617	-0.028220	0.584132
Zr18	Zr	0.895673	0.124126	0.782467
O19	O	1.402692	0.112062	0.729130
O20	O	1.402672	-0.137251	0.729130
O21	O	1.402672	0.112062	0.479818
O22	O	0.953637	0.233157	0.886781
O23	O	0.953617	-0.016156	0.886781
O24	O	0.953617	0.233157	0.637469
O25	O	1.178156	-0.007017	0.877642
O26	O	1.178164	0.242296	0.738269
O27	O	1.178156	0.242296	0.628330
O28	O	1.178164	0.102923	0.877642
O29	O	1.579784	-0.130042	0.611982
O30	O	0.776506	0.225948	0.754617
O31	O	0.776517	0.225948	0.893990
O32	O	0.776506	0.086575	0.893990
O33	O	1.579784	0.009331	0.472609
O34	O	1.579794	0.009331	0.611982
O35	O	1.045975	0.165643	0.729703
O36	O	1.045975	0.083596	0.811749
O37	O	1.310327	0.012309	0.718943
O38	O	1.310327	0.094356	0.636896
C39	C	0.824799	0.033571	0.697681
C40	C	0.704876	0.028689	0.702562
C41	C	1.178128	0.047952	0.463975
C42	C	1.178122	0.047952	0.389538
C43	C	1.178162	0.267279	0.683300
C44	C	1.178168	0.341716	0.683300
C45	C	1.531491	0.062335	0.668918
C46	C	1.651414	0.067216	0.664037
C47	C	1.178128	-0.171373	0.683299
C48	C	1.178122	-0.245811	0.683299
C49	C	1.316139	0.475771	0.634853
C50	C	1.316133	0.545716	0.634851
C51	C	1.040140	0.620132	0.731747
C52	C	1.040148	0.550188	0.731744
C53	C	1.178152	0.478008	0.683299
C54	C	1.178138	0.617897	0.683300
C55	C	1.178130	0.693735	0.683298
C56	C	1.178161	0.402166	0.683300
C57	C	1.040151	0.085166	0.266714
C58	C	1.040157	0.085168	0.196769
C59	C	1.316150	0.010739	0.099886
C60	C	1.316142	0.010742	0.169831
C61	C	1.178138	0.047953	0.253244
C62	C	1.178152	0.047952	0.113354
C63	C	1.178160	0.047955	0.037516
C64	C	1.178129	0.047952	0.329088
C65	C	1.178162	0.047953	0.902624
C66	C	1.178168	0.047953	0.977061
C67	C	0.824816	0.033571	0.917006
C68	C	0.704899	0.028690	0.996323
C69	C	0.824816	0.252897	0.697681
C70	C	0.704899	0.322453	0.702562
C71	C	0.824833	0.252897	0.917006
C72	C	0.704922	0.322453	0.996323
C73	C	1.531457	-0.156992	0.449593
C74	C	1.651368	-0.226548	0.370275
C75	C	1.531474	0.062334	0.449593
C76	C	1.651391	0.067216	0.370276
C77	C	1.531474	-0.156991	0.668918
C78	C	1.651391	-0.226547	0.664037
C79	C	0.648578	-0.016437	0.990744
C80	C	0.535919	-0.021039	1.065264
C81	C	0.479575	0.019491	1.145363
C82	C	0.535907	0.064620	1.150940
C83	C	0.648572	0.069217	1.076420
C84	C	0.648591	0.397952	0.747682
C85	C	0.535933	0.463315	0.752264
C86	C	0.479576	0.453176	0.711732
C87	C	0.535895	0.377669	0.666606
C88	C	0.648559	0.312308	0.662019
C89	C	0.648610	0.312290	1.076407
C90	C	0.535957	0.377639	1.150940
C91	C	0.479609	0.453151	1.145389
C92	C	0.535932	0.463313	1.065297
C93	C	0.648591	0.397965	0.990765
C94	C	1.707693	-0.216384	0.290192
C95	C	1.820382	-0.281732	0.215657
C96	C	1.876735	-0.357243	0.221208
C97	C	1.820406	-0.367406	0.301300
C98	C	1.707727	-0.302058	0.375833
C99	C	1.707723	0.112336	0.375854
C100	C	1.820414	0.116920	0.301333
C101	C	1.876761	0.076387	0.221234
C102	C	1.820424	0.031261	0.215657
C103	C	1.707744	0.026673	0.290177
C104	C	1.707712	-0.216384	0.704579
C105	C	1.820372	-0.281733	0.700010
C106	C	1.876716	-0.357245	0.654892
C107	C	1.820383	-0.367407	0.614349
C108	C	1.707718	-0.302059	0.618924
H109	H	0.697395	0.103930	0.627314
F110	F	0.708546	0.408760	0.790829
F111	F	0.708493	0.117255	1.082372
H112	H	1.968455	-0.410449	0.651173
F113	F	0.644789	-0.019311	0.750554
F114	F	0.708467	0.231957	0.613999
H115	H	0.490037	0.524804	1.060790
H116	H	1.661881	-0.010066	0.285624
F117	F	1.880406	-0.011871	0.130403
F118	F	1.463015	0.398954	0.583291
F119	F	1.647778	0.155479	0.461094
F120	F	0.475982	-0.069070	1.059311
F121	F	1.996686	0.081278	0.141929
F122	F	0.893275	0.552571	0.783305
F123	F	1.462998	0.543330	0.583281
H124	H	0.694472	0.250810	1.080943
F125	F	1.463015	-0.028863	0.011108
H126	H	0.927779	0.115475	0.334631
F127	F	1.647766	-0.136024	0.752602
H128	H	1.428514	-0.019559	0.158856
F129	F	1.647785	-0.312888	0.461062
H130	H	0.490110	0.369351	1.216148
H131	H	0.927782	0.678908	0.771191
H132	H	1.866225	-0.273443	0.733024
H133	H	1.866303	-0.428895	0.305809
H134	H	0.694452	-0.049452	0.925530
F135	F	1.880374	-0.447778	0.566327
H136	H	0.927794	0.115471	0.207744
F137	F	0.359665	0.014592	1.224667
F138	F	0.708503	0.408793	0.905537
H139	H	0.490016	0.097618	1.216166
H140	H	1.661874	-0.310345	0.585905
F141	F	1.880347	0.164953	0.307286
F142	F	0.476011	0.543668	0.800296
H143	H	1.866227	-0.273442	0.150450
H144	H	0.489992	0.369425	0.633606
H145	H	0.387875	0.506355	1.206084
F146	F	0.359666	0.522747	0.716621
F147	F	1.647735	-0.136025	0.284264
F148	F	1.996658	-0.426786	0.141875
