data_functionalizedCrystal
_audit_creation_method	'MofGen! by Chris Wilmer'
_symmetry_space_group_name_H-M	'P1'
_symmetry_Int_Tables_number	1
_symmetry_cell_setting	triclinic
loop_
_symmetry_equiv_pos_as_xyz
  x,y,z
_cell_length_a	13.262522
_cell_length_b	13.339070
_cell_length_c	16.053802
_cell_angle_alpha	93.267614
_cell_angle_beta	71.511321
_cell_angle_gamma	99.428816
loop_
_atom_site_label
_atom_site_type_symbol
_atom_site_fract_x
_atom_site_fract_y
_atom_site_fract_z
O1	O	1.450739	0.112024	-0.398833
O2	O	1.146297	0.131088	-0.329708
O3	O	1.263578	-0.025368	-0.356335
O4	O	1.333458	0.268479	-0.372206
O5	O	1.257112	-0.016791	-0.216008
O6	O	1.139831	0.139664	-0.189381
O7	O	1.444273	0.120600	-0.258507
Zn8	Zn	1.291026	0.131494	-0.201664
Zn9	Zn	1.299545	0.120194	-0.386550
O10	O	1.326993	0.277056	-0.231880
C11	C	1.103303	0.135097	-0.250516
C12	C	0.984824	0.134254	-0.223615
C13	C	1.248541	-0.058654	-0.283492
C14	C	1.213356	-0.170614	-0.275507
C15	C	0.925645	0.138535	-0.134480
C16	C	0.814326	0.137733	-0.109197
C17	C	0.762176	0.132659	-0.173047
C18	C	0.821356	0.128385	-0.262185
C19	C	0.932685	0.129179	-0.287469
C20	C	0.769215	0.123303	-0.326037
C21	C	0.828395	0.119029	-0.415174
C22	C	0.939713	0.119823	-0.440455
C23	C	0.991863	0.124898	-0.376604
C24	C	0.657886	0.122509	-0.300752
C25	C	0.664926	0.113153	-0.453742
C26	C	0.776245	0.113954	-0.479025
C27	C	1.486938	-0.538068	-0.337625
C28	C	1.520000	-0.432876	-0.345124
C29	C	1.443341	-0.367306	-0.327720
C30	C	1.333616	-0.406937	-0.302816
C31	C	1.300551	-0.512138	-0.295310
C32	C	1.256955	-0.341376	-0.285405
C33	C	1.147230	-0.381007	-0.260501
C34	C	1.114170	-0.486198	-0.252997
C35	C	1.190828	-0.551769	-0.270400
C36	C	1.290020	-0.236174	-0.292912
C37	C	1.103633	-0.210245	-0.250597
C38	C	1.070571	-0.315436	-0.243098
C39	C	1.487268	0.116591	-0.337700
C40	C	1.605747	0.117434	-0.364607
C41	C	1.342030	0.310342	-0.304724
C42	C	1.377215	0.422301	-0.312715
N43	N	1.285219	0.139205	-0.075485
N44	N	1.305357	0.112475	-0.512730
C45	C	1.335155	0.072657	-0.043128
C46	C	1.331106	0.078060	0.045198
C47	C	1.277127	0.150018	0.101164
C48	C	1.227186	0.216570	0.068802
C49	C	1.231229	0.211161	-0.019521
C50	C	1.259458	0.173617	0.366585
C51	C	1.255422	0.179023	0.454913
C52	C	1.359341	0.040512	0.431302
C53	C	1.363385	0.035113	0.342977
C54	C	1.313438	0.101661	0.310625
N55	N	1.272990	0.155545	0.191447
N56	N	1.317569	0.096129	0.220344
H57	H	0.609714	0.125997	-0.228177
F58	F	1.206306	0.244445	0.332159
F59	F	0.953796	-0.357627	-0.216595
H60	H	0.968114	0.142658	-0.082502
H61	H	1.082509	0.125554	-0.397185
F62	F	1.478531	-0.255351	-0.335705
F63	F	1.412491	-0.030311	0.465741
H64	H	1.183229	0.275156	0.114377
H65	H	1.211464	0.237624	0.500478
H66	H	1.190564	0.265351	-0.045863
F67	F	0.643700	0.131812	-0.146137
H68	H	0.766147	0.141199	-0.036621
F69	F	1.568509	-0.607856	-0.356131
F70	F	1.002692	0.115258	-0.535322
F71	F	0.839241	0.109403	-0.573889
F72	F	1.636772	-0.390706	-0.371641
H73	H	1.041211	-0.156856	-0.236421
H74	H	0.622467	0.109023	-0.505735
F75	F	1.155650	-0.663733	-0.262500
H76	H	1.379358	-0.203918	-0.313189
H77	H	1.024825	-0.518461	-0.232712
H78	H	1.371766	0.023870	0.071541
F79	F	1.392613	-0.003927	-0.102686
H80	H	1.407338	-0.023481	0.297410
