data_functionalizedCrystal
_audit_creation_method	'MofGen! by Chris Wilmer'
_symmetry_space_group_name_H-M	'P1'
_symmetry_Int_Tables_number	1
_symmetry_cell_setting	triclinic
loop_
_symmetry_equiv_pos_as_xyz
  x,y,z
_cell_length_a	23.532407
_cell_length_b	23.532407
_cell_length_c	9.016244
_cell_angle_alpha	89.993097
_cell_angle_beta	89.995357
_cell_angle_gamma	82.848712
loop_
_atom_site_label
_atom_site_type_symbol
_atom_site_fract_x
_atom_site_fract_y
_atom_site_fract_z
O1	O	0.755262	0.069133	-0.123262
O2	O	1.255262	0.569133	0.376738
O3	O	0.589399	0.079136	-0.123287
O4	O	1.089399	0.579136	0.376713
O5	O	0.677332	-0.008797	-0.123246
O6	O	1.177332	0.491203	0.376754
O7	O	0.667329	0.157066	-0.123302
O8	O	1.167329	0.657066	0.376698
O9	O	0.677319	-0.008795	0.123434
O10	O	1.177319	0.491205	0.623434
O11	O	0.589386	0.079138	0.123394
O12	O	1.089386	0.579138	0.623394
O13	O	0.755249	0.069135	0.123419
O14	O	1.255249	0.569135	0.623419
Cu15	Cu	0.672316	0.074137	0.145930
Cu16	Cu	1.172316	0.574137	0.645930
Cu17	Cu	0.672332	0.074134	-0.145798
Cu18	Cu	1.172332	0.574134	0.354202
O19	O	0.667316	0.157068	0.123378
O20	O	1.167316	0.657068	0.623378
C21	C	0.568176	0.078882	0.000050
C22	C	1.068176	0.578882	0.500050
C23	C	0.504959	0.078116	0.000042
C24	C	1.004959	0.578116	0.500042
C25	C	0.677071	-0.030012	0.000098
C26	C	1.177071	0.469988	0.500098
C27	C	0.676305	-0.093229	0.000109
C28	C	1.176305	0.406771	0.500109
C29	C	0.238792	0.022921	0.000101
C30	C	0.738792	0.522921	0.500101
C31	C	0.298192	0.023632	0.000100
C32	C	0.798192	0.523632	0.500100
O33	O	0.334937	-0.020153	0.000166
O34	O	0.834937	0.479847	0.500166
N35	N	0.320818	0.075909	0.000072
N36	N	0.820818	0.575909	0.500072
C37	C	0.284041	0.127477	0.000060
C38	C	0.784041	0.627477	0.500060
O39	O	0.308740	0.172007	0.000038
O40	O	0.808740	0.672007	0.500038
C41	C	0.224642	0.126765	0.000072
C42	C	0.724642	0.626765	0.500072
C43	C	0.202019	0.074485	0.000084
C44	C	0.702019	0.574485	0.500084
C45	C	0.216168	-0.029354	0.000115
C46	C	0.716168	0.470646	0.500115
C47	C	0.156772	-0.030066	0.000113
C48	C	0.656772	0.469934	0.500113
C49	C	0.119999	0.021499	0.000096
C50	C	0.619999	0.521499	0.500096
C51	C	0.142623	0.073774	0.000082
C52	C	0.642623	0.573774	0.500082
C53	C	0.187865	0.178333	0.000070
C54	C	0.687865	0.678333	0.500070
C55	C	0.128463	0.177616	0.000083
C56	C	0.628463	0.677616	0.500083
C57	C	0.105840	0.125336	0.000095
C58	C	0.605840	0.625336	0.500095
C59	C	0.046454	0.124627	0.000064
C60	C	0.546454	0.624627	0.500064
N61	N	0.023828	0.072351	0.000091
N62	N	0.523828	0.572351	0.500091
C63	C	0.060600	0.020787	0.000108
C64	C	0.560600	0.520787	0.500108
C65	C	0.408783	0.128968	0.000039
C66	C	0.908783	0.628968	0.500039
C67	C	0.468181	0.129681	0.000017
C68	C	0.968181	0.629681	0.500017
C69	C	0.482328	0.025836	0.000060
C70	C	0.982328	0.525836	0.500060
C71	C	0.422929	0.025124	0.000071
C72	C	0.922929	0.525124	0.500071
C73	C	0.386157	0.076692	0.000067
C74	C	0.886157	0.576692	0.500067
C75	C	-0.064136	0.019297	0.000102
C76	C	0.435864	0.519297	0.500102
C77	C	-0.123538	0.018590	0.000094
C78	C	0.376462	0.518590	0.500094
C79	C	-0.137680	0.122435	0.000059
C80	C	0.362320	0.622435	0.500059
C81	C	-0.078284	0.123142	0.000059
C82	C	0.421716	0.623142	0.500059
C83	C	-0.041512	0.071568	0.000086
C84	C	0.458488	0.571568	0.500086
O85	O	0.009675	0.168390	0.000003
O86	O	0.509675	0.668390	0.500003
O87	O	0.035892	-0.023737	0.000149
O88	O	0.535892	0.476263	0.500149
C89	C	0.723538	-0.492332	0.000035
C90	C	1.223538	0.007668	0.500035
C91	C	0.722827	-0.551733	0.000024
C92	C	1.222827	-0.051733	0.500024
O93	O	0.766613	-0.588477	-0.000024
O94	O	1.266613	-0.088477	0.499976
N95	N	0.670551	-0.574359	0.000017
N96	N	1.170551	-0.074359	0.500017
C97	C	0.618982	-0.537581	0.000006
C98	C	1.118982	-0.037581	0.500006
O99	O	0.574452	-0.562281	-0.000003
O100	O	1.074452	-0.062281	0.499997
C101	C	0.619695	-0.478182	0.000007
C102	C	1.119695	0.021818	0.500007
C103	C	0.671974	-0.455559	0.000029
C104	C	1.171974	0.044441	0.500029
C105	C	0.775814	-0.469709	0.000055
C106	C	1.275814	0.030291	0.500055
C107	C	0.776525	-0.410313	0.000069
C108	C	1.276525	0.089687	0.500069
C109	C	0.724961	-0.373540	0.000063
C110	C	1.224961	0.126460	0.500063
C111	C	0.672685	-0.396163	0.000043
C112	C	1.172685	0.103837	0.500043
C113	C	0.568127	-0.441406	-0.000015
C114	C	1.068127	0.058594	0.499985
C115	C	0.568843	-0.382003	-0.000015
C116	C	1.068843	0.117997	0.499985
C117	C	0.621123	-0.359381	0.000007
C118	C	1.121123	0.140619	0.500007
C119	C	0.621832	-0.299994	0.000051
C120	C	1.121832	0.200006	0.500051
N121	N	0.674109	-0.277368	0.000058
N122	N	1.174109	0.222632	0.500058
C123	C	0.725673	-0.314141	0.000064
C124	C	1.225673	0.185859	0.500064
C125	C	0.617491	-0.662324	0.000002
C126	C	1.117491	-0.162324	0.500002
C127	C	0.616778	-0.721722	0.000012
C128	C	1.116778	-0.221722	0.500012
C129	C	0.720623	-0.735869	0.000026
C130	C	1.220623	-0.235869	0.500026
C131	C	0.721335	-0.676470	0.000027
C132	C	1.221335	-0.176470	0.500027
C133	C	0.669767	-0.639698	0.000009
C134	C	1.169767	-0.139698	0.500009
C135	C	0.727163	-0.189404	0.000095
C136	C	1.227163	0.310596	0.500095
C137	C	0.727869	-0.130002	0.000115
C138	C	1.227869	0.369998	0.500115
C139	C	0.624025	-0.115860	0.000092
C140	C	1.124025	0.384140	0.500092
C141	C	0.623318	-0.175257	0.000080
C142	C	1.123318	0.324743	0.500080
C143	C	0.674891	-0.212028	0.000076
C144	C	1.174891	0.287972	0.500076
O145	O	0.578069	-0.263215	0.000093
O146	O	1.078069	0.236785	0.500093
O147	O	0.770196	-0.289433	0.000053
O148	O	1.270196	0.210567	0.500053
C149	C	0.776472	0.069389	0.000078
C150	C	1.276472	0.569389	0.500078
C151	C	0.839689	0.070155	0.000077
C152	C	1.339689	0.570155	0.500077
C153	C	0.667577	0.178283	0.000031
C154	C	1.167577	0.678283	0.500031
C155	C	0.668343	0.241500	0.000010
C156	C	1.168343	0.741500	0.500010
N157	N	0.672310	0.074138	0.351116
N158	N	1.172310	0.574138	0.851116
N159	N	0.672343	0.074128	-0.350984
N160	N	1.172343	0.574128	0.149016
C161	C	0.625131	0.121023	0.586127
C162	C	1.125131	0.621023	1.086127
C163	C	0.625232	0.121195	0.414236
C164	C	1.125232	0.621195	0.914236
C165	C	0.731662	0.086782	0.413459
C166	C	1.231662	0.586782	0.913459
C167	C	0.731404	0.087113	0.585403
C168	C	1.231404	0.587113	1.085403
C169	C	0.660730	0.014449	0.585678
C170	C	1.160730	0.514449	1.085678
C171	C	0.659357	0.014857	0.413724
C172	C	1.159357	0.514857	0.913724
H173	H	-0.141954	-0.023984	0.000100
H174	H	0.358046	0.476016	0.500100
H175	H	0.618411	0.002207	0.629124
H176	H	1.118411	0.502207	1.129124
H177	H	0.632609	0.165490	0.373076
H178	H	1.132609	0.665490	0.873076
H179	H	0.098525	0.219610	0.000086
H180	H	0.598525	0.719610	0.500086
H181	H	0.525555	-0.459814	-0.000042
H182	H	1.025555	0.040186	0.499958
H183	H	-0.059864	0.165712	0.000047
H184	H	0.440136	0.665712	0.500047
H185	H	0.770443	-0.111587	0.000137
H186	H	1.270443	0.388413	0.500137
H187	H	0.695162	-0.020445	0.626346
H188	H	1.195162	0.479555	1.126346
H189	H	0.769159	-0.219337	0.000086
H190	H	1.269159	0.280663	0.500086
H191	H	0.819097	-0.391900	0.000081
H192	H	1.319097	0.108100	0.500081
H193	H	0.138359	-0.072637	0.000129
H194	H	0.638359	0.427363	0.500129
H195	H	-0.167631	0.164417	0.000038
H196	H	0.332369	0.664417	0.500038
H197	H	0.763906	-0.658055	0.000044
H198	H	1.263906	-0.158055	0.500044
H199	H	0.404515	-0.017447	0.000083
H200	H	0.904515	0.482553	0.500083
H201	H	0.817806	-0.499644	0.000055
H202	H	1.317806	0.000356	0.500055
H203	H	0.512280	-0.016150	0.000074
H204	H	1.012280	0.483850	0.500074
H205	H	0.762610	-0.765821	0.000026
H206	H	1.262610	-0.265821	0.500026
H207	H	0.574207	-0.740135	0.000019
H208	H	1.074207	-0.240135	0.500019
H209	H	0.486595	0.172252	-0.000014
H210	H	0.986595	0.672252	0.499986
H211	H	0.767614	0.054286	0.627001
H212	H	1.267614	0.554286	1.127001
H213	H	0.575496	-0.632386	-0.000001
H214	H	1.075496	-0.132386	0.499999
H215	H	0.767616	0.053522	0.372570
H216	H	1.267616	0.553522	0.872570
H217	H	-0.034204	-0.022699	0.000123
H218	H	0.465796	0.477301	0.500123
H219	H	0.378846	0.170964	0.000025
H220	H	0.878846	0.670964	0.500025
H221	H	0.526850	-0.352065	-0.000032
H222	H	1.026850	0.147935	0.499968
H223	H	0.580747	-0.193677	0.000103
H224	H	1.080747	0.306323	0.500103
H225	H	0.742198	0.129798	0.370368
H226	H	1.242198	0.629798	0.870368
H227	H	0.582043	-0.085909	0.000093
H228	H	1.082043	0.414091	0.500093
H229	H	0.246104	-0.071347	0.000133
H230	H	0.746104	0.428653	0.500133
H231	H	0.632408	0.165068	0.629307
H232	H	1.132408	0.665068	1.129307
H233	H	0.615699	0.005254	0.372979
H234	H	1.115699	0.505254	0.872979
H235	H	0.581103	0.113711	0.372088
H236	H	1.081103	0.613711	0.872088
H237	H	0.580863	0.113666	0.627517
H238	H	1.080863	0.613666	1.127517
H239	H	0.206274	0.220904	0.000053
H240	H	0.706274	0.720904	0.500053
H241	H	0.691533	-0.021648	0.370764
H242	H	1.191533	0.478352	0.870764
H243	H	0.741688	0.130627	0.625479
H244	H	1.241688	0.630627	1.125479
