data_functionalizedCrystal
_audit_creation_method	'MofGen! by Chris Wilmer'
_symmetry_space_group_name_H-M	'P1'
_symmetry_Int_Tables_number	1
_symmetry_cell_setting	triclinic
loop_
_symmetry_equiv_pos_as_xyz
  x,y,z
_cell_length_a	9.065218
_cell_length_b	10.654559
_cell_length_c	9.130313
_cell_angle_alpha	89.995033
_cell_angle_beta	90.001302
_cell_angle_gamma	95.247715
loop_
_atom_site_label
_atom_site_type_symbol
_atom_site_fract_x
_atom_site_fract_y
_atom_site_fract_z
O1	O	-0.207295	1.668656	-0.121802
O2	O	-0.227025	1.303257	-0.121803
O3	O	-0.002477	1.493510	-0.121798
O4	O	-0.431844	1.478404	-0.121807
O5	O	-0.002478	1.493491	0.121801
O6	O	-0.227027	1.303239	0.121796
O7	O	-0.207297	1.668638	0.121797
Cu8	Cu	-0.217162	1.485937	0.144039
Cu9	Cu	-0.217160	1.485959	-0.144045
O10	O	-0.431845	1.478386	0.121792
C11	C	-0.225574	1.256445	-0.000004
C12	C	-0.221232	1.116985	-0.000004
C13	C	-0.084939	1.064905	0.000003
C14	C	-0.080868	0.933867	-0.000008
C15	C	-0.349393	0.906998	-0.000026
C16	C	-0.353463	1.038034	-0.000026
C17	C	0.070092	1.080417	0.000019
C18	C	0.074163	0.949378	0.000008
C19	C	-0.486823	1.479847	-0.000009
C20	C	-0.650642	1.484187	-0.000012
C21	C	0.052501	1.492049	-0.000001
C22	C	0.216320	1.487708	-0.000007
C23	C	-0.208748	1.715451	-0.000006
C24	C	-0.213090	1.854911	-0.000015
N25	N	-0.217162	1.485931	0.346661
N26	N	-0.217148	1.485974	-0.346668
C27	C	-0.316548	1.401676	0.423349
C28	C	-0.316545	1.401700	0.576686
C29	C	-0.117758	1.570239	0.576634
C30	C	-0.117769	1.570219	0.423300
C31	C	-0.431312	1.304367	0.423380
C32	C	-0.431309	1.304392	0.576717
H33	H	-0.457051	0.842701	-0.000044
H34	H	0.134784	0.919761	0.101956
H35	H	-0.036836	1.638865	0.639050
H36	H	-0.544727	1.326250	0.381767
F37	F	-0.384374	1.184982	0.361239
H38	H	-0.406027	1.207784	0.618358
F39	F	0.131305	1.139827	0.137500
F40	F	-0.498523	1.093456	-0.000061
F41	F	0.146459	1.134698	-0.133215
F42	F	0.138698	0.902555	-0.137468
H43	H	-0.036854	1.638837	0.360862
H44	H	-0.538471	1.335339	0.624267
