data_functionalizedCrystal
_audit_creation_method	'MofGen! by Chris Wilmer'
_symmetry_space_group_name_H-M	'P1'
_symmetry_Int_Tables_number	1
_symmetry_cell_setting	triclinic
loop_
_symmetry_equiv_pos_as_xyz
  x,y,z
_cell_length_a	23.532355
_cell_length_b	23.532407
_cell_length_c	13.330367
_cell_angle_alpha	89.990692
_cell_angle_beta	89.998270
_cell_angle_gamma	82.838088
loop_
_atom_site_label
_atom_site_type_symbol
_atom_site_fract_x
_atom_site_fract_y
_atom_site_fract_z
O1	O	0.755281	0.068994	-0.083297
O2	O	0.589414	0.079028	-0.083331
O3	O	0.677349	-0.008922	-0.083294
O4	O	0.667346	0.156943	-0.083333
O5	O	0.677337	-0.008924	0.083553
O6	O	0.589401	0.079026	0.083517
O7	O	0.755269	0.068992	0.083550
Cu8	Cu	0.672334	0.074009	0.098768
Cu9	Cu	0.672349	0.074011	-0.098548
O10	O	0.667333	0.156942	0.083514
C11	C	0.568191	0.078776	0.000089
C12	C	0.504972	0.078022	0.000077
C13	C	0.112951	0.073283	0.091069
C14	C	0.053552	0.072565	0.091073
O15	O	0.022827	0.072174	0.168420
N16	N	0.023850	0.072211	0.000125
C17	C	0.053552	0.072568	-0.090833
O18	O	0.022834	0.072200	-0.168191
C19	C	0.112951	0.073281	-0.090836
C20	C	0.142649	0.073641	0.000118
C21	C	0.142649	0.073643	0.182015
C22	C	0.202044	0.074361	0.182011
C23	C	0.231742	0.074720	0.091060
C24	C	0.202044	0.074360	0.000113
C25	C	0.142652	0.073634	-0.181793
C26	C	0.202055	0.074347	-0.181788
C27	C	0.231753	0.074707	-0.090834
C28	C	0.291136	0.075437	-0.090842
N29	N	0.320838	0.075792	0.000106
C30	C	0.291141	0.075433	0.091057
C31	C	-0.071189	0.071069	-0.090820
C32	C	-0.130588	0.070359	-0.090818
C33	C	-0.130584	0.070356	0.091088
C34	C	-0.071185	0.071069	0.091085
C35	C	-0.041488	0.071423	0.000128
C36	C	0.415875	0.076942	0.091041
C37	C	0.475275	0.077663	0.091028
C38	C	0.475266	0.077664	-0.090878
C39	C	0.415871	0.076946	-0.090866
C40	C	0.386177	0.076583	0.000102
O41	O	0.321899	0.075826	-0.168150
O42	O	0.321867	0.075794	0.168402
C43	C	0.677088	-0.030139	0.000132
C44	C	0.676322	-0.093356	0.000139
C45	C	0.723557	-0.492468	0.000094
C46	C	0.722845	-0.551868	0.000086
O47	O	0.766632	-0.588620	0.000058
N48	N	0.670568	-0.574484	0.000076
C49	C	0.618998	-0.537697	0.000064
O50	O	0.574467	-0.562388	0.000054
C51	C	0.619710	-0.478298	0.000064
C52	C	0.671991	-0.455685	0.000084
C53	C	0.775834	-0.469854	0.000113
C54	C	0.776545	-0.410458	0.000122
C55	C	0.724979	-0.373676	0.000113
C56	C	0.672703	-0.396289	0.000094
C57	C	0.568141	-0.441512	0.000045
C58	C	0.568858	-0.382110	0.000045
C59	C	0.621139	-0.359497	0.000065
C60	C	0.621848	-0.300110	0.000095
N61	N	0.674126	-0.277494	0.000104
C62	C	0.725691	-0.314277	0.000114
C63	C	0.617507	-0.662439	0.000061
C64	C	0.616794	-0.721837	0.000068
C65	C	0.720642	-0.736004	0.000088
C66	C	0.721354	-0.676605	0.000088
C67	C	0.669784	-0.639823	0.000071
C68	C	0.727181	-0.189540	0.000135
C69	C	0.727888	-0.130138	0.000148
C70	C	0.624041	-0.115977	0.000123
C71	C	0.623334	-0.175373	0.000114
C72	C	0.674909	-0.212154	0.000117
O73	O	0.578084	-0.263323	0.000119
O74	O	0.770216	-0.289577	0.000110
C75	C	0.776491	0.069244	0.000128
C76	C	0.839710	0.069998	0.000134
C77	C	0.667594	0.178158	0.000086
C78	C	0.668360	0.241375	0.000071
N79	N	0.672327	0.074007	0.237549
N80	N	0.672360	0.074008	-0.237330
C81	C	0.633409	0.112940	0.710156
C82	C	0.711303	0.035077	0.710156
C83	C	0.711297	0.035076	0.605138
C84	C	0.672347	0.074007	0.552624
C85	C	0.633403	0.112940	0.605128
C86	C	0.750244	-0.003853	0.552626
C87	C	0.750240	-0.003856	0.447601
C88	C	0.711286	0.035074	0.395085
C89	C	0.672340	0.074008	0.447596
C90	C	0.633390	0.112939	0.395082
C91	C	0.594441	0.151872	0.447591
C92	C	0.594449	0.151870	0.552612
C93	C	0.711278	0.035075	0.290063
C94	C	0.633383	0.112940	0.290054
H95	H	0.118483	0.073340	-0.255858
H96	H	0.562739	0.183567	0.595371
H97	H	-0.047009	0.071364	0.165148
O98	O	0.782806	-0.229207	0.000152
H99	H	0.819273	-0.203495	0.000179
H100	H	0.601696	0.144636	0.752912
O101	O	0.792240	-0.045850	0.390967
H102	H	0.819321	-0.072924	0.445129
O103	O	0.561881	-0.622770	0.000070
H104	H	0.536846	-0.630772	-0.067930
O105	O	0.566943	-0.199761	0.000105
H106	H	0.564126	-0.226491	0.068107
H107	H	0.582057	-0.086018	0.000119
H108	H	0.226220	0.074651	0.256075
H109	H	0.226231	0.074635	-0.255859
H110	H	-0.047015	0.071362	-0.164893
O111	O	0.507309	0.078038	-0.188967
H112	H	0.529080	0.117181	-0.193333
O113	O	0.513233	-0.342440	0.000031
H114	H	0.522506	-0.297336	0.000033
O115	O	-0.162607	0.069973	-0.188928
H116	H	-0.194967	0.108469	-0.193310
O117	O	0.383833	0.076559	-0.188962
H118	H	0.414466	0.076927	-0.252205
H119	H	0.770463	-0.111731	0.000167
H120	H	0.525569	-0.459912	0.000023
H121	H	0.601663	0.144641	0.247303
O122	O	0.753316	-0.006909	0.766788
H123	H	0.729505	-0.034466	0.814648
O124	O	0.792254	-0.045841	0.609260
H125	H	0.785710	-0.039304	0.691109
O126	O	0.110565	0.073299	0.280067
H127	H	0.127217	0.034631	0.323777
H128	H	0.819117	-0.392053	0.000134
O129	O	0.552421	0.193853	0.390949
H130	H	0.558959	0.187306	0.309100
O131	O	0.753272	-0.006913	0.233414
H132	H	0.797631	0.000103	0.253546
O133	O	0.507306	0.078062	0.189131
H134	H	0.476673	0.077690	0.252373
O135	O	0.831455	-0.509523	0.000137
H136	H	0.867920	-0.483809	0.000160
H137	H	0.762629	-0.765963	0.000091
O138	O	0.777743	-0.652219	0.000089
H139	H	0.802502	-0.667027	0.068093
O140	O	0.383850	0.076559	0.189152
H141	H	0.414487	0.076936	0.252384
H142	H	-0.154774	0.070063	0.165146
O143	O	0.560406	-0.746225	0.000059
H144	H	0.524672	-0.710663	0.000049
