data_functionalizedCrystal
_audit_creation_method	'MofGen! by Chris Wilmer'
_symmetry_space_group_name_H-M	'P1'
_symmetry_Int_Tables_number	1
_symmetry_cell_setting	triclinic
loop_
_symmetry_equiv_pos_as_xyz
  x,y,z
_cell_length_a	12.759395
_cell_length_b	25.639239
_cell_length_c	12.759387
_cell_angle_alpha	90.036418
_cell_angle_beta	90.020509
_cell_angle_gamma	90.040223
loop_
_atom_site_label
_atom_site_type_symbol
_atom_site_fract_x
_atom_site_fract_y
_atom_site_fract_z
Zn1	Zn	1.606094	-0.208102	0.593964
Zn2	Zn	1.605911	-0.295548	0.418267
Zn3	Zn	1.430392	-0.208130	0.418301
Zn4	Zn	1.430311	-0.295510	0.593906
O5	O	1.518177	-0.251823	0.506110
O6	O	1.753090	-0.219705	0.570668
O7	O	1.582585	-0.283979	0.271250
O8	O	1.453810	-0.134961	0.441641
O9	O	1.752956	-0.283951	0.441584
O10	O	1.582897	-0.134940	0.570700
O11	O	1.453632	-0.219754	0.271275
O12	O	1.283360	-0.219718	0.441585
O13	O	1.453671	-0.283888	0.740935
O14	O	1.283300	-0.283916	0.570602
O15	O	1.582818	-0.219669	0.740978
O16	O	1.582506	-0.368708	0.441528
O17	O	1.453494	-0.368681	0.570569
C18	C	1.245209	-0.251816	0.506092
C19	C	1.128432	-0.251826	0.506109
C20	C	1.128409	-0.318783	0.640236
C21	C	1.073536	-0.352266	0.707303
C22	C	0.963815	-0.352272	0.707316
C23	C	0.908963	-0.318791	0.640257
C24	C	0.963836	-0.285309	0.573190
C25	C	1.073560	-0.285307	0.573182
C26	C	0.963859	-0.218349	0.439070
C27	C	1.073581	-0.218345	0.439050
C28	C	0.909008	-0.184868	0.372011
C29	C	0.963880	-0.151387	0.304937
C30	C	1.073609	-0.151383	0.304926
C31	C	1.128454	-0.184862	0.371983
C32	C	1.518000	-0.387665	0.506062
C33	C	1.518020	-0.445779	0.506076
C34	C	1.585529	-0.806144	0.439032
C35	C	1.585570	-0.860748	0.439046
O36	O	1.642784	-0.888986	0.381991
N37	N	1.518361	-0.888062	0.506179
C38	C	1.451115	-0.860768	0.573310
O39	O	1.393954	-0.889014	0.630414
C40	C	1.451081	-0.806165	0.573300
C41	C	1.518286	-0.778854	0.506156
C42	C	1.652729	-0.778833	0.371894
C43	C	1.652687	-0.724233	0.371879
C44	C	1.585444	-0.696943	0.439002
C45	C	1.518244	-0.724253	0.506140
C46	C	1.383841	-0.778872	0.640436
C47	C	1.383813	-0.724265	0.640421
C48	C	1.451018	-0.696954	0.573276
C49	C	1.450958	-0.642363	0.573249
N50	N	1.518167	-0.615050	0.506116
C51	C	1.585409	-0.642339	0.438992
C52	C	1.451195	-0.975438	0.573326
C53	C	1.451223	-1.030041	0.573331
C54	C	1.585679	-1.030017	0.439069
C55	C	1.585644	-0.975414	0.439059
C56	C	1.518403	-0.948125	0.506193
C57	C	1.585315	-0.527674	0.438965
C58	C	1.585263	-0.473069	0.438953
C59	C	1.450812	-0.473097	0.573219
C60	C	1.450859	-0.527698	0.573227
C61	C	1.518119	-0.554985	0.506097
O62	O	1.393776	-0.614090	0.630278
O63	O	1.642571	-0.614087	0.381908
C64	C	1.792210	-0.251829	0.506128
C65	C	1.908987	-0.251832	0.506136
C66	C	1.518256	-0.251771	0.780143
C67	C	1.518290	-0.251749	0.896920
C68	C	1.518383	-0.115449	0.506181
C69	C	1.518470	-0.057335	0.506211
C70	C	1.518158	-0.251836	0.233142
C71	C	1.518328	-0.251710	0.116366
C72	C	1.652780	-0.184883	0.896984
C73	C	1.720039	-0.151442	0.951877
C74	C	1.720065	-0.151423	1.061598
C75	C	1.652821	-0.184847	1.116430
C76	C	1.585562	-0.218288	1.061537
C77	C	1.585546	-0.218305	0.951813
C78	C	1.451068	-0.285151	1.061473
C79	C	1.451046	-0.285174	0.951751
C80	C	1.383825	-0.318576	1.116305
C81	C	1.316569	-0.352021	1.061412
C82	C	1.316547	-0.352039	0.951683
C83	C	1.383787	-0.318615	0.896859
H84	H	1.217795	-0.184863	0.371978
H85	H	1.261764	-0.379265	0.906996
H86	H	1.396488	-1.052272	0.627997
O87	O	1.318396	-0.697838	0.705674
C88	C	1.259116	-0.733657	0.764954
H89	H	1.255526	-0.772597	0.721922
H90	H	1.297564	-0.739416	0.844776
C91	C	1.151686	-0.664576	0.832864
C92	C	1.147269	-0.712401	0.780007
H93	H	1.082694	-0.651464	0.842155
H94	H	1.191626	-0.640443	0.792930
H95	H	1.183730	-0.669382	0.899377
H96	H	1.115237	-0.707593	0.713491
H97	H	1.107321	-0.736532	0.819932
O98	O	1.251406	-0.384541	1.114720
C99	C	1.311175	-0.418291	1.178205
H100	H	1.393911	-0.421533	1.145153
H101	H	1.314836	-0.402107	1.261368
C102	C	1.158141	-0.468659	1.220455
C103	C	1.259756	-0.472644	1.179855
H104	H	1.126422	-0.502186	1.221478
H105	H	1.117871	-0.445920	1.177688
H106	H	1.161205	-0.455171	1.289754
H107	H	1.256689	-0.486126	1.110553
H108	H	1.300024	-0.495387	1.222611
H109	H	1.118279	-0.124113	0.250319
O110	O	0.910553	-0.118942	0.239691
C111	C	0.846990	-0.148669	0.171751
H112	H	0.879998	-0.189843	0.165101
H113	H	0.763849	-0.150492	0.204245
C114	C	0.804735	-0.072488	0.070797
C115	C	0.845282	-0.123057	0.062622
H116	H	0.803676	-0.056689	0.003482
H117	H	0.847555	-0.052460	0.116571
H118	H	0.735454	-0.074014	0.097880
H119	H	0.914565	-0.121530	0.035553
H120	H	0.802472	-0.143085	0.016841
H121	H	1.217750	-0.318785	0.640225
O122	O	1.653009	-0.184872	1.223013
C123	C	1.753692	-0.198283	1.259685
H124	H	1.797079	-0.221092	1.196453
H125	H	1.799270	-0.161266	1.279180
C126	C	1.690206	-0.204113	1.436489
C127	C	1.743492	-0.232131	1.358829
H128	H	1.683916	-0.224989	1.497648
H129	H	1.622375	-0.195075	1.411783
H130	H	1.728195	-0.173266	1.452721
H131	H	1.705496	-0.262973	1.342589
H132	H	1.811317	-0.241175	1.383535
O133	O	1.650651	-0.446621	0.373693
C134	C	1.709991	-0.482421	0.314438
H135	H	1.713632	-0.521325	0.357489
H136	H	1.671563	-0.488281	0.234613
C137	C	1.817330	-0.413277	0.246510
C138	C	1.821809	-0.461058	0.299390
H139	H	1.886303	-0.400099	0.237223
H140	H	1.777349	-0.389157	0.286427
H141	H	1.785302	-0.418167	0.179995
H142	H	1.853824	-0.456166	0.365908
H143	H	1.861798	-0.485177	0.259483
O144	O	1.650509	-0.554238	0.373716
C145	C	1.590768	-0.585876	0.305792
H146	H	1.511131	-0.594087	0.342767
H147	H	1.579257	-0.564870	0.227913
C148	C	1.746446	-0.627632	0.241435
C149	C	1.648638	-0.637721	0.286852
H150	H	1.782144	-0.659612	0.229747
H151	H	1.786696	-0.606316	0.287194
H152	H	1.736840	-0.610127	0.176541
H153	H	1.658245	-0.655220	0.351750
H154	H	1.608391	-0.659041	0.241103
H155	H	1.707492	-0.801047	0.317234
O156	O	1.385763	-0.949013	0.638569
C157	C	1.326477	-0.984834	0.697836
H158	H	1.322897	-1.023773	0.654799
H159	H	1.364911	-0.990595	0.777664
C160	C	1.219028	-0.915758	0.765735
C161	C	1.214624	-0.963582	0.712872
H162	H	1.150034	-0.902647	0.775015
H163	H	1.258973	-0.891623	0.725809
H164	H	1.251061	-0.920564	0.832253
H165	H	1.182604	-0.958773	0.646351
H166	H	1.174672	-0.987715	0.752787
O167	O	1.651029	-0.948967	0.373806
C168	C	1.710358	-0.984770	0.314545
H169	H	1.713992	-1.023675	0.357593
H170	H	1.671926	-0.990626	0.234722
C171	C	1.817711	-0.915631	0.246618
C172	C	1.822181	-0.963413	0.299494
H173	H	1.886687	-0.902457	0.237329
H174	H	1.777738	-0.891510	0.286539
H175	H	1.785679	-0.920518	0.180104
H176	H	1.854200	-0.958525	0.366012
H177	H	1.862163	-0.987533	0.259584
H178	H	1.118208	-0.379525	0.761903
H179	H	1.383780	-0.318629	0.807517
O180	O	1.785329	-0.119027	0.898451
C181	C	1.770874	-0.126204	0.789836
H182	H	1.736386	-0.166552	0.774821
H183	H	1.714980	-0.095190	0.758705
C184	C	1.919536	-0.071881	0.751970
C185	C	1.877185	-0.121438	0.733527
H186	H	1.985112	-0.068938	0.717234
H187	H	1.929273	-0.067043	0.825145
H188	H	1.872948	-0.046041	0.726027
H189	H	1.923767	-0.147276	0.759482
H190	H	1.867458	-0.126280	0.660355
H191	H	1.707414	-0.701999	0.317207
O192	O	1.385541	-0.554150	0.638546
C193	C	1.326160	-0.518351	0.697764
H194	H	1.369157	-0.479402	0.701417
H195	H	1.246380	-0.512606	0.659223
C196	C	1.258177	-0.587459	0.805094
C197	C	1.310990	-0.539622	0.809588
H198	H	1.248814	-0.600580	0.874070
H199	H	1.298179	-0.611578	0.765195
H200	H	1.191699	-0.582665	0.772971
H201	H	1.377472	-0.544417	0.841698
H202	H	1.270999	-0.515504	0.849495
H203	H	1.396060	-0.450869	0.627867
H204	H	1.383846	-0.318556	1.205646
H205	H	1.640435	-1.052247	0.384417
H206	H	0.919138	-0.379534	0.761933
H207	H	0.819622	-0.318795	0.640283
H208	H	1.652776	-0.184900	0.807643
H209	H	0.819667	-0.184874	0.372030
H210	H	1.774827	-0.124189	1.106292
H211	H	1.329110	-0.801099	0.695107
