data_functionalizedCrystal
_audit_creation_method	'MofGen! by Chris Wilmer'
_symmetry_space_group_name_H-M	'P1'
_symmetry_Int_Tables_number	1
_symmetry_cell_setting	triclinic
loop_
_symmetry_equiv_pos_as_xyz
  x,y,z
_cell_length_a	16.109302
_cell_length_b	10.967829
_cell_length_c	14.586319
_cell_angle_alpha	77.868327
_cell_angle_beta	89.994552
_cell_angle_gamma	84.099565
loop_
_atom_site_label
_atom_site_type_symbol
_atom_site_fract_x
_atom_site_fract_y
_atom_site_fract_z
O1	O	1.104075	0.160397	-0.101620
O2	O	1.437409	0.493730	0.231713
O3	O	1.770742	0.827064	0.565046
O4	O	0.862131	0.180357	-0.104766
O5	O	1.195464	0.513690	0.228567
O6	O	1.528798	0.847023	0.561900
O7	O	0.988683	-0.011276	-0.074491
O8	O	1.322016	0.322058	0.258843
O9	O	1.655349	0.655391	0.592176
O10	O	0.977524	0.352029	-0.131896
O11	O	1.310857	0.685362	0.201437
O12	O	1.644190	1.018696	0.534771
O13	O	0.988674	-0.011278	0.077990
O14	O	1.322007	0.322055	0.411324
O15	O	1.655340	0.655388	0.744657
O16	O	0.862122	0.180354	0.047715
O17	O	1.195456	0.513687	0.381048
O18	O	1.528789	0.847020	0.714382
O19	O	1.104067	0.160394	0.050861
O20	O	1.437400	0.493727	0.384194
O21	O	1.770733	0.827061	0.717528
Cu22	Cu	0.983094	0.170374	0.063211
Cu23	Cu	1.316427	0.503707	0.396544
Cu24	Cu	1.649760	0.837040	0.729877
Cu25	Cu	0.983104	0.170377	-0.117116
Cu26	Cu	1.316437	0.503710	0.216217
Cu27	Cu	1.649771	0.837044	0.549551
O28	O	0.977515	0.352026	0.020585
O29	O	1.310848	0.685359	0.353919
O30	O	1.644182	1.018693	0.687252
C31	C	0.831147	0.179547	-0.028397
C32	C	1.164480	0.512880	0.304936
C33	C	1.497814	0.846213	0.638270
C34	C	0.738837	0.177122	-0.028011
C35	C	1.072171	0.510455	0.305322
C36	C	1.405504	0.843789	0.638656
C37	C	0.526459	0.171514	0.055983
C38	C	0.859792	0.504848	0.389316
C39	C	1.193125	0.838181	0.722650
C40	C	0.439725	0.169223	0.056342
C41	C	0.773058	0.502556	0.389675
C42	C	1.106392	0.835890	0.723009
C43	C	0.439745	0.169233	-0.109902
C44	C	0.773079	0.502566	0.223431
C45	C	1.106412	0.835899	0.556764
C46	C	0.526478	0.171515	-0.110259
C47	C	0.859811	0.504848	0.223074
C48	C	1.193145	0.838182	0.556408
C49	C	0.569832	0.172662	-0.027314
C50	C	0.903165	0.505996	0.306019
C51	C	1.236499	0.839329	0.639352
C52	C	0.396366	0.168088	-0.026599
C53	C	0.729699	0.501422	0.306734
C54	C	1.063032	0.834755	0.640068
C55	C	0.302325	0.165604	-0.026211
C56	C	0.635659	0.498937	0.307123
C57	C	0.968992	0.832271	0.640456
C58	C	0.663878	0.175145	-0.027702
C59	C	0.997212	0.508478	0.305631
C60	C	1.330545	0.841811	0.638964
C61	C	0.987866	-0.057766	0.009094
C62	C	1.321199	0.275567	0.342427
C63	C	1.654532	0.608900	0.675760
C64	C	0.985434	-0.196290	0.030976
C65	C	1.318768	0.137043	0.364309
C66	C	1.652101	0.470377	0.697643
C67	C	0.984355	-0.258041	-0.038259
C68	C	1.317689	0.075293	0.295074
C69	C	1.651022	0.408626	0.628408
C70	C	0.981842	-0.401212	-0.015644
C71	C	1.315176	-0.067879	0.317689
C72	C	1.648509	0.265455	0.651022
C73	C	1.135051	0.161204	-0.025510
C74	C	1.468384	0.494537	0.307823
C75	C	1.801717	0.827871	0.641156
C76	C	1.227360	0.163629	-0.025902
C77	C	1.560693	0.496962	0.307431
C78	C	1.894027	0.830295	0.640764
C79	C	0.978332	0.398517	-0.063001
C80	C	1.311665	0.731850	0.270332
C81	C	1.644999	1.065184	0.603666
C82	C	0.980763	0.537041	-0.084889
C83	C	1.314097	0.870374	0.248444
C84	C	1.647430	1.203707	0.581777
N85	N	0.983092	0.170371	0.190043
N86	N	1.316426	0.503704	0.523376
N87	N	1.649759	0.837037	0.856710
N88	N	0.983112	0.170370	-0.243947
N89	N	1.316445	0.503704	0.089387
N90	N	1.649779	0.837037	0.422720
C91	C	1.039148	0.085544	0.438451
C92	C	1.372481	0.418878	0.771784
C93	C	1.705815	0.752211	1.105118
C94	C	1.039151	0.085541	0.534433
C95	C	1.372484	0.418875	0.867766
C96	C	1.705817	0.752208	1.201099
C97	C	0.927050	0.255201	0.507638
C98	C	1.260383	0.588534	0.840971
C99	C	1.593717	0.921867	1.174305
C100	C	0.927044	0.255197	0.411659
C101	C	1.260378	0.588530	0.744992
C102	C	1.593711	0.921863	1.078326
C103	C	0.983098	0.170370	0.377068
C104	C	1.316431	0.503703	0.710401
C105	C	1.649765	0.837037	1.043734
C106	C	0.983106	0.170371	0.569028
C107	C	1.316439	0.503704	0.902362
C108	C	1.649773	0.837037	1.235695
C109	C	0.983108	0.170368	0.673096
C110	C	1.316442	0.503702	1.006429
C111	C	1.649775	0.837035	1.339763
C112	C	0.983095	0.170371	0.272994
C113	C	1.316428	0.503704	0.606327
C114	C	1.649762	0.837037	0.939661
H115	H	0.404414	0.168289	0.124171
H116	H	0.737748	0.501622	0.457505
H117	H	1.071081	0.834955	0.790838
H118	H	0.985288	-0.204913	-0.114276
H119	H	1.318621	0.128420	0.219057
H120	H	1.651954	0.461754	0.552391
H121	H	0.561755	0.172449	0.123522
H122	H	0.895088	0.505782	0.456855
H123	H	1.228422	0.839115	0.790189
Cl124	Cl	0.980390	-0.483219	0.101729
Cl125	Cl	1.313724	-0.149886	0.435062
Cl126	Cl	1.647057	0.183447	0.768395
Cl127	Cl	0.385240	0.167760	-0.214165
Cl128	Cl	0.718573	0.501093	0.119169
Cl129	Cl	1.051906	0.834427	0.452502
H130	H	0.984493	-0.249416	0.106992
H131	H	1.317826	0.083917	0.440326
H132	H	1.651160	0.417251	0.773659
Cl133	Cl	0.982176	-0.380948	-0.202264
Cl134	Cl	1.315510	-0.047614	0.131069
Cl135	Cl	1.648843	0.285719	0.464402
H136	H	0.561794	0.172446	-0.178093
H137	H	0.895127	0.505780	0.155240
H138	H	1.228460	0.839113	0.488573
Cl139	Cl	1.109615	-0.021104	0.611598
Cl140	Cl	1.442948	0.312230	0.944932
Cl141	Cl	1.776281	0.645563	1.278265
H142	H	1.084789	0.016471	0.410290
H143	H	1.418123	0.349805	0.743623
H144	H	1.751456	0.683138	1.076957
Cl145	Cl	0.856589	0.361840	0.551128
Cl146	Cl	1.189922	0.695173	0.884462
Cl147	Cl	1.523255	1.028507	1.217795
Cl148	Cl	0.856572	0.361837	0.334485
Cl149	Cl	1.189905	0.695170	0.667819
Cl150	Cl	1.523238	1.028504	1.001152
