data_functionalizedCrystal
_audit_creation_method	'MofGen! by Chris Wilmer'
_symmetry_space_group_name_H-M	'P1'
_symmetry_Int_Tables_number	1
_symmetry_cell_setting	triclinic
loop_
_symmetry_equiv_pos_as_xyz
  x,y,z
_cell_length_a	16.992694
_cell_length_b	12.837942
_cell_length_c	16.053802
_cell_angle_alpha	92.838962
_cell_angle_beta	87.249047
_cell_angle_gamma	92.748582
loop_
_atom_site_label
_atom_site_type_symbol
_atom_site_fract_x
_atom_site_fract_y
_atom_site_fract_z
O1	O	1.059913	0.217066	-0.069322
O2	O	0.831447	0.214638	-0.069347
O3	O	0.940614	0.064530	-0.069330
O4	O	0.950746	0.367174	-0.069339
O5	O	0.934602	0.072756	0.069528
O6	O	0.825435	0.222864	0.069511
O7	O	1.053901	0.225292	0.069536
Zn8	Zn	0.938714	0.225384	0.091570
Zn9	Zn	0.946634	0.214546	-0.091381
O10	O	0.944734	0.375400	0.069519
C11	C	0.798996	0.215629	0.000079
C12	C	0.711256	0.206315	0.000070
C13	C	0.667730	0.296178	0.000068
C14	C	0.585288	0.287422	0.000079
C15	C	0.546375	0.188801	0.000087
C16	C	0.589907	0.098931	0.000092
C17	C	0.672346	0.107689	0.000086
C18	C	0.300064	0.152502	0.000111
C19	C	0.217618	0.143751	0.000114
C20	C	0.213006	0.332243	0.000103
C21	C	0.295447	0.340992	0.000092
C22	C	0.338972	0.251122	0.000101
N23	N	0.462107	0.179847	0.000097
N24	N	0.423238	0.260077	0.000098
C25	C	0.934185	0.029738	0.000098
C26	C	0.923977	-0.086184	0.000096
C27	C	1.046699	-0.316977	0.000092
C28	C	1.037111	-0.425897	0.000089
C29	C	0.895215	-0.412948	0.000082
C30	C	0.904802	-0.304027	0.000085
C31	C	0.980547	-0.256046	0.000091
C32	C	0.990134	-0.147123	0.000099
C33	C	0.848238	-0.134176	0.000086
C34	C	0.838650	-0.243097	0.000084
C35	C	1.086353	0.224300	0.000108
C36	C	1.174092	0.233614	0.000112
C37	C	0.951163	0.410191	0.000089
C38	C	0.961371	0.526114	0.000086
N39	N	0.933314	0.232780	0.216430
N40	N	0.952040	0.207141	-0.216241
C41	C	0.979785	0.168935	0.260131
C42	C	0.976016	0.174120	0.347537
C43	C	0.925779	0.243156	0.391240
C44	C	0.879303	0.307004	0.347533
C45	C	0.883068	0.301813	0.260129
C46	C	0.909329	0.265799	0.652647
C47	C	0.905569	0.270987	0.740058
C48	C	1.002281	0.138101	0.740056
C49	C	1.006046	0.132921	0.652650
C50	C	0.959566	0.196765	0.608950
N51	N	0.921927	0.248459	0.480584
N52	N	0.963414	0.191455	0.519608
H53	H	0.699407	0.376486	0.000061
H54	H	1.090979	-0.475503	0.000087
C55	C	0.347931	0.053649	0.000115
H56	H	0.312946	-0.006337	0.000111
H57	H	0.378096	0.056013	0.048536
H58	H	0.382276	0.050275	-0.048315
C59	C	0.831954	0.372043	0.212053
H60	H	0.841385	0.359058	0.153740
H61	H	0.845101	0.443226	0.226366
H62	H	0.777831	0.357154	0.226387
H63	H	0.177559	0.405409	0.000097
H64	H	0.185938	0.063438	0.000120
C65	C	1.035045	0.092993	0.212064
H66	H	1.062175	0.055705	0.250613
H67	H	1.072160	0.131232	0.177957
H68	H	1.004882	0.045171	0.177980
C69	C	0.547104	-0.009550	0.000099
H70	H	0.491772	-0.001898	0.000093
H71	H	0.559473	-0.043971	0.048522
H72	H	0.563655	-0.049704	-0.048330
H73	H	0.833547	-0.452034	0.000069
H74	H	0.776981	-0.282179	0.000076
C75	C	0.720226	0.008839	0.000080
H76	H	0.685245	-0.051151	0.000076
H77	H	0.750394	0.011203	0.048499
H78	H	0.754568	0.005472	-0.048353
H79	H	1.013856	0.122131	0.383118
C80	C	1.061301	0.056975	0.604582
H81	H	1.088433	0.019685	0.643128
H82	H	1.098415	0.095216	0.570474
H83	H	1.031137	0.009153	0.570497
H84	H	0.871485	0.317785	0.617074
C85	C	0.824045	0.382943	0.395604
H86	H	0.828464	0.376900	0.453919
H87	H	0.771159	0.366365	0.381291
H88	H	0.838437	0.452427	0.381268
C89	C	1.073448	-0.094344	0.000103
H90	H	1.111472	-0.146237	0.000094
H91	H	1.078048	-0.049258	0.048526
H92	H	1.082229	-0.054991	-0.048326
H93	H	0.549853	0.360598	0.000077
H94	H	0.327125	0.421299	0.000076
C95	C	1.053395	0.067869	0.788127
H96	H	1.043955	0.080838	0.846441
H97	H	1.107516	0.082743	0.773794
H98	H	1.040236	-0.003315	0.773810
H99	H	0.864658	0.327208	0.775638
C100	C	1.130011	-0.264193	0.000104
H101	H	1.168037	-0.316082	0.000103
H102	H	1.134602	-0.219106	0.048528
H103	H	1.138798	-0.224839	-0.048324
C104	C	0.775468	-0.067151	0.000079
H105	H	0.792024	0.004591	0.000075
H106	H	0.742648	-0.079477	0.048497
H107	H	0.746845	-0.085207	-0.048355
