data_functionalizedCrystal
_audit_creation_method	'MofGen! by Chris Wilmer'
_symmetry_space_group_name_H-M	'P1'
_symmetry_Int_Tables_number	1
_symmetry_cell_setting	triclinic
loop_
_symmetry_equiv_pos_as_xyz
  x,y,z
_cell_length_a	12.759401
_cell_length_b	12.759394
_cell_length_c	12.759401
_cell_angle_alpha	90.009520
_cell_angle_beta	90.002178
_cell_angle_gamma	90.014017
loop_
_atom_site_label
_atom_site_type_symbol
_atom_site_fract_x
_atom_site_fract_y
_atom_site_fract_z
Zn1	Zn	1.606092	-0.418419	0.593988
Zn2	Zn	1.606039	-0.594073	0.418311
Zn3	Zn	1.430444	-0.418409	0.418327
Zn4	Zn	1.430386	-0.594057	0.593952
O5	O	1.518240	-0.506239	0.506145
O6	O	1.753106	-0.441730	0.570692
O7	O	1.582749	-0.570773	0.271292
O8	O	1.453791	-0.271389	0.441651
O9	O	1.753067	-0.570783	0.441623
O10	O	1.582839	-0.271396	0.570708
O11	O	1.453740	-0.441714	0.271304
O12	O	1.283416	-0.441698	0.441616
O13	O	1.453691	-0.570755	0.740978
O14	O	1.283372	-0.570746	0.570647
O15	O	1.582782	-0.441715	0.741004
O16	O	1.582692	-0.741092	0.441589
O17	O	1.453640	-0.741080	0.570632
C18	C	1.245273	-0.506220	0.506130
C19	C	1.128496	-0.506237	0.506149
C20	C	1.073639	-0.573540	0.573225
C21	C	0.963915	-0.573553	0.573236
C22	C	0.963915	-0.438958	0.439088
C23	C	1.073637	-0.438940	0.439082
C24	C	1.073639	-0.651250	0.650671
C25	C	0.963915	-0.651263	0.650682
C26	C	1.518182	-0.779207	0.506127
C27	C	1.518253	-0.895983	0.506155
C28	C	1.652530	-0.895833	0.640643
C29	C	1.719701	-0.950618	0.707895
C30	C	1.719764	-1.060340	0.707917
C31	C	1.652645	-1.115278	0.640683
C32	C	1.585474	-1.060493	0.573431
C33	C	1.585421	-0.950769	0.573414
C34	C	1.451193	-1.060644	0.438951
C35	C	1.451135	-0.950922	0.438921
C36	C	1.384075	-1.115582	0.371716
C37	C	1.316907	-1.060797	0.304458
C38	C	1.316848	-0.951069	0.304437
C39	C	1.383963	-0.896137	0.371669
C40	C	1.792274	-0.506259	0.506160
C41	C	1.909050	-0.506268	0.506166
C42	C	1.518236	-0.506234	0.780178
C43	C	1.518234	-0.506232	0.896955
C44	C	1.518328	-0.232206	0.506185
C45	C	1.518365	-0.115429	0.506202
C46	C	1.585445	-0.439054	0.951832
C47	C	1.585439	-0.439057	1.061556
C48	C	1.451007	-0.573423	1.061516
C49	C	1.451009	-0.573415	0.951794
C50	C	1.663062	-0.361482	0.951856
C51	C	1.663055	-0.361484	1.061580
C52	C	1.518234	-0.506261	1.233177
C53	C	1.518226	-0.506243	1.116401
H54	H	1.107662	-0.728491	0.621388
Br55	Br	1.148084	-0.347574	0.348072
Br56	Br	1.359769	-0.664567	0.877319
Br57	Br	1.810919	-1.134696	0.799193
Br58	Br	1.652437	-0.746924	0.640630
Br59	Br	1.652896	-1.264187	0.640551
H60	H	1.262259	-1.105537	0.249726
Br61	Br	0.907200	-0.602900	0.779599
H62	H	1.744418	-0.383288	1.091359
H63	H	0.934126	-0.732605	0.628751
Br64	Br	1.359775	-0.664594	1.135947
Br65	Br	1.626794	-0.225856	0.902248
Br66	Br	1.791867	-0.410074	0.895117
H67	H	1.384126	-1.204924	0.371744
H68	H	0.919235	-0.384167	0.384485
Br69	Br	1.123293	-0.615139	0.786349
Br70	Br	1.810773	-0.876055	0.799150
Br71	Br	1.225673	-0.876726	0.213169
Br72	Br	1.383872	-0.747228	0.371662
Br73	Br	1.614342	-0.232722	1.118338
