data_functionalizedCrystal
_audit_creation_method	'MofGen! by Chris Wilmer'
_symmetry_space_group_name_H-M	'P1'
_symmetry_Int_Tables_number	1
_symmetry_cell_setting	triclinic
loop_
_symmetry_equiv_pos_as_xyz
  x,y,z
_cell_length_a	14.044220
_cell_length_b	14.044220
_cell_length_c	12.503572
_cell_angle_alpha	86.156832
_cell_angle_beta	86.164750
_cell_angle_gamma	86.811122
loop_
_atom_site_label
_atom_site_type_symbol
_atom_site_fract_x
_atom_site_fract_y
_atom_site_fract_z
O1	O	1.282200	-0.225116	-0.089210
O2	O	1.782200	0.274884	0.410790
O3	O	1.005530	-0.216809	-0.089237
O4	O	1.505530	0.283191	0.410763
O5	O	1.139712	-0.082627	-0.089213
O6	O	1.639712	0.417373	0.410787
O7	O	1.148019	-0.359298	-0.089234
O8	O	1.648019	0.140702	0.410766
O9	O	1.129622	-0.092737	0.089427
O10	O	1.629622	0.407263	0.589427
O11	O	0.995440	-0.226918	0.089403
O12	O	1.495440	0.273082	0.589403
O13	O	1.272110	-0.235226	0.089430
O14	O	1.772110	0.264774	0.589430
Cu15	Cu	1.132854	-0.231995	0.105728
Cu16	Cu	1.632854	0.268005	0.605728
Cu17	Cu	1.144786	-0.220040	-0.105535
Cu18	Cu	1.644786	0.279960	0.394465
O19	O	1.137929	-0.369407	0.089406
O20	O	1.637929	0.130593	0.589406
C21	C	0.964864	-0.218228	0.000080
C22	C	1.464864	0.281772	0.500080
C23	C	0.858721	-0.207383	0.000070
C24	C	1.358721	0.292617	0.500070
C25	C	0.664382	-0.187558	0.000092
C26	C	1.164382	0.312442	0.500092
C27	C	0.613253	-0.264472	0.000091
C28	C	1.113253	0.235528	0.500091
C29	C	0.505116	-0.253441	0.000104
C30	C	1.005116	0.246559	0.500104
C31	C	0.772529	-0.198587	0.000080
C32	C	1.272529	0.301413	0.500080
C33	C	1.131031	-0.052060	0.000107
C34	C	1.631031	0.447940	0.500107
C35	C	1.120187	0.054082	0.000107
C36	C	1.620187	0.554082	0.500107
C37	C	1.312777	-0.233807	0.000111
C38	C	1.812777	0.266193	0.500111
C39	C	1.418920	-0.244651	0.000114
C40	C	1.918920	0.255349	0.500114
C41	C	1.146609	-0.399974	0.000084
C42	C	1.646609	0.100026	0.500084
C43	C	1.157454	-0.506117	0.000077
C44	C	1.657454	-0.006117	0.500077
N45	N	1.124469	-0.240404	0.254319
N46	N	1.624469	0.259596	0.754319
C47	C	1.100361	0.248421	0.000090
C48	C	1.600361	0.748421	0.500090
C49	C	1.177275	0.299551	0.000094
C50	C	1.677275	0.799551	0.500094
C51	C	1.166244	0.407687	0.000084
C52	C	1.666244	0.907687	0.500084
C53	C	1.111391	0.140274	0.000099
C54	C	1.611391	0.640274	0.500099
N55	N	1.153179	-0.211624	-0.254126
N56	N	1.653179	0.288376	0.245874
C57	C	1.112134	-0.252782	0.473432
C58	C	1.612134	0.247218	0.973432
C59	C	1.165511	-0.199249	0.526768
C60	C	1.665511	0.300751	1.026768
C61	C	1.158648	-0.206136	0.648690
C62	C	1.658648	0.293864	1.148690
C63	C	1.118996	-0.245896	0.351499
C64	C	1.618996	0.254104	0.851499
H65	H	0.626945	-0.113431	0.000104
H66	H	1.126945	0.386569	0.500104
C67	C	1.269056	0.150119	0.000133
C68	C	1.769056	0.650119	0.500133
C69	C	1.277354	0.249015	0.000120
C70	C	1.777354	0.749015	0.500120
H71	H	1.330838	0.118919	0.000158
H72	H	1.830838	0.618919	0.500158
H73	H	1.238887	0.135697	-0.062165
H74	H	1.738887	0.635697	0.437835
H75	H	1.231827	0.128669	0.062427
H76	H	1.731827	0.628669	0.562427
H77	H	1.314578	0.270466	-0.062178
H78	H	1.814578	0.770466	0.437822
H79	H	1.307537	0.263444	0.062425
H80	H	1.807537	0.763444	0.562425
C81	C	1.008595	0.397850	0.000090
C82	C	1.508595	0.897850	0.500090
C83	C	1.000288	0.298955	0.000089
C84	C	1.500288	0.798955	0.500089
H85	H	0.946813	0.429053	0.000100
H86	H	1.446813	0.929053	0.500100
H87	H	1.045802	0.419305	-0.062205
H88	H	1.545802	0.919305	0.437795
H89	H	1.038789	0.412260	0.062387
H90	H	1.538789	0.912260	0.562387
H91	H	0.970100	0.284544	-0.062212
H92	H	1.470100	0.784544	0.437788
H93	H	0.963066	0.277492	0.062390
H94	H	1.463066	0.777492	0.562390
C95	C	1.327869	-0.154909	0.491610
C96	C	1.827869	0.345091	0.991610
C97	C	1.234072	-0.130381	0.464678
C98	C	1.734072	0.369619	0.964678
H99	H	1.370164	-0.112387	0.453239
H100	H	1.870164	0.387613	0.953239
H101	H	1.344765	-0.218465	0.473277
H102	H	1.844765	0.281535	0.973277
H103	H	1.332291	-0.150493	0.566579
H104	H	1.832291	0.349507	1.066579
H105	H	1.229647	-0.134804	0.389709
H106	H	1.729647	0.365196	0.889709
H107	H	1.217171	-0.066809	0.483003
H108	H	1.717171	0.433191	0.983003
C109	C	0.976976	-0.269714	0.600071
C110	C	1.476976	0.230286	1.100071
C111	C	1.043496	-0.321638	0.535396
C112	C	1.543496	0.178362	1.035396
H113	H	0.934610	-0.312226	0.638339
H114	H	1.434610	0.187774	1.138339
H115	H	0.941632	-0.224687	0.556203
H116	H	1.441632	0.275313	1.056203
H117	H	1.009578	-0.237027	0.649546
H118	H	1.509578	0.262973	1.149546
H119	H	1.010895	-0.354319	0.485915
H120	H	1.510895	0.145681	0.985915
H121	H	1.078844	-0.366682	0.579268
H122	H	1.578844	0.133318	1.079268
C123	C	0.762687	-0.356250	0.000013
C124	C	1.262687	0.143750	0.500013
C125	C	0.663790	-0.364549	0.000040
C126	C	1.163790	0.135451	0.500040
H127	H	0.793888	-0.418031	-0.000035
H128	H	1.293888	0.081969	0.499965
H129	H	0.777126	-0.326104	0.062318
H130	H	1.277126	0.173896	0.562318
H131	H	0.784119	-0.318999	-0.062274
H132	H	1.284119	0.181001	0.437726
H133	H	0.642356	-0.401795	0.062332
H134	H	1.142356	0.098205	0.562332
H135	H	0.649344	-0.394710	-0.062271
H136	H	1.149344	0.105290	0.437729
