data_functionalizedCrystal
_audit_creation_method	'MofGen! by Chris Wilmer'
_symmetry_space_group_name_H-M	'P1'
_symmetry_Int_Tables_number	1
_symmetry_cell_setting	triclinic
loop_
_symmetry_equiv_pos_as_xyz
  x,y,z
_cell_length_a	16.625548
_cell_length_b	19.121449
_cell_length_c	16.625539
_cell_angle_alpha	92.469138
_cell_angle_beta	90.020568
_cell_angle_gamma	87.586203
loop_
_atom_site_label
_atom_site_type_symbol
_atom_site_fract_x
_atom_site_fract_y
_atom_site_fract_z
Zn1	Zn	1.246350	-0.279588	0.442220
Zn2	Zn	1.496350	-0.029588	0.692220
Zn3	Zn	1.746350	0.220412	0.942220
Zn4	Zn	1.996350	0.470412	1.192220
Zn5	Zn	1.251996	-0.397043	0.301636
Zn6	Zn	1.501996	-0.147043	0.551636
Zn7	Zn	1.751996	0.102957	0.801636
Zn8	Zn	2.001996	0.352957	1.051636
Zn9	Zn	1.111513	-0.279615	0.307399
Zn10	Zn	1.361513	-0.029615	0.557399
Zn11	Zn	1.611513	0.220385	0.807399
Zn12	Zn	1.861513	0.470385	1.057399
Zn13	Zn	1.117223	-0.397003	0.436428
Zn14	Zn	1.367223	-0.147003	0.686428
Zn15	Zn	1.617223	0.102997	0.936428
Zn16	Zn	1.867223	0.352997	1.186428
O17	O	1.181771	-0.338312	0.371920
O18	O	1.431771	-0.088312	0.621920
O19	O	1.681771	0.161688	0.871920
O20	O	1.931771	0.411688	1.121920
O21	O	1.359932	-0.295174	0.423583
O22	O	1.609932	-0.045174	0.673583
O23	O	1.859932	0.204826	0.923583
O24	O	2.109932	0.454826	1.173583
O25	O	1.233334	-0.381494	0.189566
O26	O	1.483334	-0.131494	0.439566
O27	O	1.733334	0.118506	0.689566
O28	O	1.983334	0.368506	0.939566
O29	O	1.124647	-0.181328	0.330119
O30	O	1.374647	0.068672	0.580119
O31	O	1.624647	0.318672	0.830119
O32	O	1.874647	0.568672	1.080119
O33	O	1.364080	-0.381468	0.320297
O34	O	1.614080	-0.131468	0.570297
O35	O	1.864080	0.118532	0.820297
O36	O	2.114080	0.368532	1.070297
O37	O	1.223711	-0.181309	0.429171
O38	O	1.473711	0.068691	0.679171
O39	O	1.723711	0.318691	0.929171
O40	O	1.973711	0.568691	1.179171
O41	O	1.130122	-0.295220	0.193800
O42	O	1.380122	-0.045220	0.443800
O43	O	1.630122	0.204780	0.693800
O44	O	1.880122	0.454780	0.943800
O45	O	0.999438	-0.295181	0.324503
O46	O	1.249438	-0.045181	0.574503
O47	O	1.499438	0.204819	0.824503
O48	O	1.749438	0.454819	1.074503
O49	O	1.134379	-0.381400	0.550030
O50	O	1.384379	-0.131400	0.800030
O51	O	1.634379	0.118600	1.050030
O52	O	1.884379	0.368600	1.300030
O53	O	1.003633	-0.381426	0.419299
O54	O	1.253633	-0.131426	0.669299
O55	O	1.503633	0.118574	0.919299
O56	O	1.753633	0.368574	1.169299
O57	O	1.229248	-0.295135	0.554285
O58	O	1.479248	-0.045135	0.804285
O59	O	1.729248	0.204865	1.054285
O60	O	1.979248	0.454865	1.304285
O61	O	1.238871	-0.495321	0.314680
O62	O	1.488871	-0.245321	0.564680
O63	O	1.738871	0.004679	0.814680
O64	O	1.988871	0.254679	1.064680
O65	O	1.139854	-0.495291	0.413711
O66	O	1.389854	-0.245291	0.663711
O67	O	1.639854	0.004709	0.913711
O68	O	1.889854	0.254709	1.163711
C69	C	0.972280	-0.338302	0.371898
C70	C	1.222280	-0.088302	0.621898
C71	C	1.472280	0.161698	0.871898
C72	C	1.722280	0.411698	1.121898
C73	C	0.882659	-0.338315	0.371907
C74	C	1.132659	-0.088315	0.621907
C75	C	1.382659	0.161685	0.871907
C76	C	1.632659	0.411685	1.121907
C77	C	1.190616	-0.520790	0.362959
C78	C	1.440616	-0.270790	0.612959
C79	C	1.690616	-0.020790	0.862959
C80	C	1.940616	0.229210	1.112959
C81	C	1.194474	-0.598855	0.359153
C82	C	1.444474	-0.348855	0.609153
C83	C	1.694474	-0.098855	0.859153
C84	C	1.944474	0.151145	1.109153
C85	C	0.554484	-0.338320	0.371941
C86	C	0.804484	-0.088320	0.621941
C87	C	1.054484	0.161680	0.871941
C88	C	1.304484	0.411680	1.121941
C89	C	0.645792	-0.338316	0.371929
C90	C	0.895792	-0.088316	0.621929
C91	C	1.145792	0.161684	0.871929
C92	C	1.395792	0.411684	1.121929
C93	C	0.718568	-0.338318	0.371924
C94	C	0.968568	-0.088318	0.621924
C95	C	1.218568	0.161682	0.871924
C96	C	1.468568	0.411682	1.121924
C97	C	0.809883	-0.338314	0.371913
C98	C	1.059883	-0.088314	0.621913
C99	C	1.309883	0.161686	0.871913
C100	C	1.559883	0.411686	1.121913
C101	C	1.144699	-0.635540	0.408882
C102	C	1.394699	-0.385540	0.658882
C103	C	1.644699	-0.135540	0.908882
C104	C	1.894699	0.114460	1.158882
C105	C	1.148327	-0.708890	0.405302
C106	C	1.398327	-0.458890	0.655302
C107	C	1.648327	-0.208890	0.905302
C108	C	1.898327	0.041110	1.155302
C109	C	1.201736	-0.745553	0.351996
C110	C	1.451736	-0.495553	0.601996
C111	C	1.701736	-0.245553	0.851996
C112	C	1.951736	0.004447	1.101996
C113	C	1.251514	-0.708863	0.302262
C114	C	1.501514	-0.458863	0.552262
C115	C	1.751514	-0.208863	0.802262
C116	C	2.001514	0.041137	1.052262
C117	C	1.247880	-0.635514	0.305838
C118	C	1.497880	-0.385514	0.555838
C119	C	1.747880	-0.135514	0.805838
C120	C	1.997880	0.114486	1.055838
C121	C	1.215283	-0.967019	0.338617
C122	C	1.465283	-0.717019	0.588617
C123	C	1.715283	-0.467019	0.838617
C124	C	1.965283	-0.217019	1.088617
C125	C	1.218914	-1.040372	0.335046
C126	C	1.468914	-0.790372	0.585046
C127	C	1.718914	-0.540372	0.835046
C128	C	1.968914	-0.290372	1.085046
C129	C	1.115726	-1.040394	0.438085
C130	C	1.365726	-0.790394	0.688085
C131	C	1.615726	-0.540394	0.938085
C132	C	1.865726	-0.290394	1.188085
C133	C	1.112101	-0.967044	0.441661
C134	C	1.362101	-0.717044	0.691661
C135	C	1.612101	-0.467044	0.941661
C136	C	1.862101	-0.217044	1.191661
C137	C	1.161875	-0.930360	0.391923
C138	C	1.411875	-0.680360	0.641923
C139	C	1.661875	-0.430360	0.891923
C140	C	1.911875	-0.180360	1.141923
C141	C	1.205448	-0.820529	0.348338
C142	C	1.455448	-0.570529	0.598338
C143	C	1.705448	-0.320529	0.848338
C144	C	1.955448	-0.070529	1.098338
C145	C	1.158159	-0.855386	0.395578
C146	C	1.408159	-0.605386	0.645578
C147	C	1.658159	-0.355386	0.895578
C148	C	1.908159	-0.105386	1.145578
C149	C	1.392080	-0.338323	0.371943
C150	C	1.642080	-0.088323	0.621943
C151	C	1.892080	0.161677	0.871943
C152	C	2.142080	0.411677	1.121943
C153	C	1.481702	-0.338327	0.371953
C154	C	1.731702	-0.088327	0.621953
C155	C	1.981702	0.161673	0.871953
C156	C	2.231702	0.411673	1.121953
C157	C	1.181821	-0.338260	0.582232
C158	C	1.431821	-0.088260	0.832232
C159	C	1.681821	0.161740	1.082232
C160	C	1.931821	0.411740	1.332232
C161	C	1.181842	-0.338238	0.671854
C162	C	1.431842	-0.088238	0.921854
C163	C	1.681842	0.161762	1.171854
C164	C	1.931842	0.411762	1.421854
C165	C	1.172913	-0.155122	0.380934
C166	C	1.422913	0.094878	0.630934
C167	C	1.672913	0.344878	0.880934
C168	C	1.922913	0.594878	1.130934
C169	C	1.169138	-0.077057	0.384775
C170	C	1.419138	0.172943	0.634775
C171	C	1.669138	0.422943	0.884775
C172	C	1.919138	0.672943	1.134775
C173	C	1.181765	-0.338314	0.162429
C174	C	1.431765	-0.088314	0.412429
C175	C	1.681765	0.161686	0.662429
C176	C	1.931765	0.411686	0.912429
C177	C	1.181890	-0.338138	0.072817
C178	C	1.431890	-0.088138	0.322817
C179	C	1.681890	0.161862	0.572817
C180	C	1.931890	0.411862	0.822817
C181	C	1.181875	-0.338159	1.000034
C182	C	1.431875	-0.088159	1.250034
C183	C	1.681875	0.161841	1.500034
C184	C	1.931875	0.411841	1.750034
C185	C	1.181864	-0.338183	0.908724
C186	C	1.431864	-0.088183	1.158724
C187	C	1.681864	0.161817	1.408724
C188	C	1.931864	0.411817	1.658724
C189	C	1.181859	-0.338199	0.835947
C190	C	1.431859	-0.088199	1.085947
C191	C	1.681859	0.161801	1.335947
C192	C	1.931859	0.411801	1.585947
C193	C	1.181847	-0.338222	0.744631
C194	C	1.431847	-0.088222	0.994631
C195	C	1.681847	0.161778	1.244631
C196	C	1.931847	0.411778	1.494631
H197	H	1.101211	-0.605693	0.452293
H198	H	1.351211	-0.355693	0.702293
H199	H	1.601211	-0.105693	0.952293
H200	H	1.851211	0.144307	1.202293
H201	H	1.107787	-0.738756	0.445789
H202	H	1.357787	-0.488756	0.695789
H203	H	1.607787	-0.238756	0.945789
H204	H	1.857787	0.011244	1.195789
H205	H	1.068611	-0.937194	0.485066
H206	H	1.318611	-0.687194	0.735066
H207	H	1.568611	-0.437194	0.985066
H208	H	1.818611	-0.187194	1.235066
O209	O	1.309120	-0.748417	0.244777
O210	O	1.559120	-0.498417	0.494777
O211	O	1.809120	-0.248417	0.744777
O212	O	2.059120	0.001583	0.994777
H213	H	1.294635	-0.734403	0.182161
H214	H	1.544635	-0.484403	0.432161
H215	H	1.794635	-0.234403	0.682161
H216	H	2.044635	0.015597	0.932161
H217	H	1.075201	-1.070270	0.478578
H218	H	1.325201	-0.820270	0.728578
H219	H	1.575201	-0.570270	0.978578
H220	H	1.825201	-0.320270	1.228578
O221	O	1.276515	-1.079921	0.277544
O222	O	1.526515	-0.829921	0.527544
O223	O	1.776515	-0.579921	0.777544
O224	O	2.026515	-0.329921	1.027544
H225	H	1.310511	-1.042091	0.243552
H226	H	1.560511	-0.792091	0.493552
H227	H	1.810511	-0.542091	0.743552
H228	H	2.060511	-0.292091	0.993552
H229	H	1.255813	-0.937156	0.298120
H230	H	1.505813	-0.687156	0.548120
H231	H	1.755813	-0.437156	0.798120
H232	H	2.005813	-0.187156	1.048120
O233	O	1.301571	-0.595941	0.252208
O234	O	1.551571	-0.345941	0.502208
O235	O	1.801571	-0.095941	0.752208
O236	O	2.051571	0.154059	1.002208
H237	H	1.339327	-0.633757	0.214546
H238	H	1.589327	-0.383757	0.464546
H239	H	1.839327	-0.133757	0.714546
H240	H	2.089327	0.116243	0.964546
O241	O	1.100550	-0.815850	0.453071
O242	O	1.350550	-0.565850	0.703071
O243	O	1.600550	-0.315850	0.953071
O244	O	1.850550	-0.065850	1.203071
H245	H	1.134961	-0.782382	0.495760
H246	H	1.384961	-0.532382	0.745760
H247	H	1.634961	-0.282382	0.995760
H248	H	1.884961	-0.032382	1.245760
H249	H	1.248934	-0.850389	0.304937
H250	H	1.498934	-0.600389	0.554937
H251	H	1.748934	-0.350389	0.804937
H252	H	1.998934	-0.100389	1.054937
