data_functionalizedCrystal
_audit_creation_method	'MofGen! by Chris Wilmer'
_symmetry_space_group_name_H-M	'P1'
_symmetry_Int_Tables_number	1
_symmetry_cell_setting	triclinic
loop_
_symmetry_equiv_pos_as_xyz
  x,y,z
_cell_length_a	19.077236
_cell_length_b	15.298852
_cell_length_c	19.076919
_cell_angle_alpha	97.034097
_cell_angle_beta	90.112677
_cell_angle_gamma	82.210197
loop_
_atom_site_label
_atom_site_type_symbol
_atom_site_fract_x
_atom_site_fract_y
_atom_site_fract_z
Zn1	Zn	1.103630	-0.322987	0.398801
Zn2	Zn	1.128285	-0.465578	0.262866
Zn3	Zn	0.990780	-0.322521	0.276641
Zn4	Zn	1.007771	-0.477449	0.374071
O5	O	1.057616	-0.397134	0.328095
O6	O	1.204564	-0.337130	0.385354
O7	O	1.113253	-0.441438	0.167030
O8	O	0.988320	-0.198070	0.308960
O9	O	1.222679	-0.441891	0.285483
O10	O	1.071230	-0.198412	0.398710
O11	O	1.012228	-0.336334	0.177150
O12	O	0.895370	-0.347845	0.284980
O13	O	1.017279	-0.462122	0.475015
O14	O	0.907853	-0.461670	0.356561
O15	O	1.087706	-0.348640	0.493184
O16	O	1.129728	-0.591666	0.261503
O17	O	1.041187	-0.600387	0.343205
C18	C	0.876289	-0.405995	0.319582
C19	C	0.798718	-0.409809	0.315955
C20	C	0.752855	-0.357151	0.366304
C21	C	0.679969	-0.360729	0.362890
C22	C	0.652948	-0.416971	0.309129
C23	C	0.698816	-0.469631	0.258774
C24	C	0.771701	-0.466047	0.262186
C25	C	0.435978	-0.433524	0.293340
C26	C	0.363088	-0.437105	0.289933
C27	C	0.344246	-0.328202	0.394048
C28	C	0.417133	-0.324627	0.397458
C29	C	0.462994	-0.377284	0.347101
N30	N	0.578447	-0.420632	0.305639
N31	N	0.537493	-0.373617	0.350589
C32	C	1.089995	-0.628311	0.298192
C33	C	1.103910	-0.727208	0.285426
C34	C	0.958619	-1.024267	0.419425
C35	C	0.945547	-0.931349	0.431425
C36	C	0.985136	-0.880309	0.394926
C37	C	1.037801	-0.922197	0.346426
C38	C	1.050878	-1.015124	0.334429
C39	C	1.077395	-0.871166	0.309930
C40	C	1.130060	-0.913053	0.261430
C41	C	1.143134	-1.005972	0.249435
C42	C	1.103545	-1.057012	0.285934
C43	C	1.064318	-0.778239	0.321926
C44	C	1.156577	-0.769095	0.236930
C45	C	1.169649	-0.862014	0.224931
C46	C	1.239653	-0.388238	0.336641
C47	C	1.317225	-0.384447	0.340282
C48	C	1.051638	-0.406757	0.510130
C49	C	1.049090	-0.410858	0.587703
C50	C	1.025130	-0.165054	0.358130
C51	C	1.011286	-0.066155	0.370930
C52	C	1.063603	-0.387482	0.146777
C53	C	1.066251	-0.383123	0.069244
C54	C	1.084559	-0.353703	0.633607
C55	C	1.082156	-0.357554	0.706495
C56	C	1.044288	-0.418564	0.733477
C57	C	1.008815	-0.475721	0.687567
C58	C	1.011214	-0.471866	0.614681
C59	C	1.033177	-0.436425	0.950448
C60	C	1.030782	-0.440278	1.023340
C61	C	1.104122	-0.322109	1.042263
C62	C	1.106522	-0.318263	0.969374
C63	C	1.071045	-0.375417	0.923471
N64	N	1.041833	-0.422503	0.807980
N65	N	1.073497	-0.371473	0.848970
H66	H	0.676810	-0.515420	0.214998
C67	C	1.142709	-0.259830	0.866054
C68	C	1.148108	-0.251158	0.939721
H69	H	1.168378	-0.218396	0.847750
H70	H	1.094387	-0.248505	0.853606
H71	H	1.161714	-0.318471	0.846846
H72	H	1.129098	-0.192520	0.958930
H73	H	1.196440	-0.262477	0.952176
C74	C	1.133004	-0.275540	1.162395
C75	C	1.143107	-0.259279	1.092722
H76	H	1.157068	-0.236743	1.193545
H77	H	1.151198	-0.335447	1.167082
H78	H	1.083894	-0.265443	1.173813
H79	H	1.192218	-0.269383	1.081303
H80	H	1.124917	-0.199358	1.088032
C81	C	1.120801	-0.295320	0.530283
C82	C	1.126182	-0.286636	0.603952
H83	H	1.146500	-0.253915	0.511979
H84	H	1.072484	-0.283960	0.517824
H85	H	1.139781	-0.353974	0.511086
H86	H	1.107197	-0.227984	0.623150
H87	H	1.174509	-0.297990	0.616418
H88	H	0.809042	-0.508927	0.221186
H89	H	0.306898	-0.285331	0.435045
H90	H	1.021438	-0.744142	0.361416
H91	H	0.902669	-0.897248	0.470914
C92	C	1.170817	-1.105193	0.142598
C93	C	1.201076	-1.052078	0.196204
H94	H	1.206605	-1.133677	0.109762
H95	H	1.136271	-1.069097	0.119044
H96	H	1.149065	-1.148838	0.162634
H97	H	1.222825	-1.008428	0.176168
H98	H	1.235636	-1.088176	0.219761
H99	H	1.114181	-1.132674	0.276162
C100	C	1.278543	-0.961304	0.206247
C101	C	1.227545	-0.908058	0.171627
H102	H	1.314287	-0.989724	0.173340
H103	H	1.256833	-1.004992	0.226260
H104	H	1.299101	-0.925302	0.242613
H105	H	1.206983	-0.944062	0.135265
H106	H	1.249258	-0.864365	0.151603
H107	H	0.439128	-0.278832	0.441238
H108	H	0.473311	-0.476401	0.252337
C109	C	0.916173	-0.752183	0.458380
C110	C	0.970761	-0.778172	0.408107
H111	H	0.907293	-0.689125	0.466512
H112	H	0.929686	-0.774952	0.501278
H113	H	0.874514	-0.774837	0.441438
H114	H	1.012421	-0.755523	0.425052
H115	H	0.957251	-0.755393	0.365201
H116	H	0.926394	-1.065832	0.449141
H117	H	0.977979	-0.525394	0.709541
C118	C	1.177492	-0.622595	0.217570
C119	C	1.200095	-0.713001	0.196803
H120	H	1.204355	-0.587963	0.192795
H121	H	1.183984	-0.609318	0.266911
H122	H	1.128809	-0.609191	0.207074
H123	H	1.248777	-0.726407	0.207303
H124	H	1.193610	-0.726283	0.147449
H125	H	0.982323	-0.518399	0.577307
C126	C	0.389030	-0.544390	0.187353
C127	C	0.333386	-0.498929	0.230833
H128	H	0.370690	-0.582552	0.150869
H129	H	0.421246	-0.578691	0.214633
H130	H	0.412884	-0.502753	0.167059
H131	H	0.309535	-0.540566	0.251132
H132	H	0.301157	-0.464626	0.203549
H133	H	1.111040	-0.311014	0.743868
H134	H	0.999944	-0.489962	1.045305
C135	C	1.020985	-0.587563	0.906922
C136	C	0.994174	-0.499247	0.900005
H137	H	0.996903	-0.626344	0.875776
H138	H	1.014146	-0.598578	0.954189
H139	H	1.070090	-0.597663	0.895478
H140	H	0.945070	-0.489144	0.911453
H141	H	1.001007	-0.488227	0.852726
C142	C	0.765386	-0.319188	0.491166
C143	C	0.782553	-0.295328	0.425402
H144	H	0.783715	-0.281015	0.527650
H145	H	0.785384	-0.378931	0.494123
H146	H	0.715413	-0.313783	0.496330
H147	H	0.832526	-0.300739	0.420236
H148	H	0.762557	-0.235570	0.422443
C149	C	0.593234	-0.357556	0.454522
C150	C	0.629558	-0.302851	0.418240
H151	H	0.562110	-0.321820	0.488691
H152	H	0.626237	-0.396383	0.477472
H153	H	0.566710	-0.391553	0.422007
H154	H	0.656086	-0.268858	0.450753
H155	H	0.596550	-0.264009	0.395289
