data_functionalizedCrystal
_audit_creation_method	'MofGen! by Chris Wilmer'
_symmetry_space_group_name_H-M	'P1'
_symmetry_Int_Tables_number	1
_symmetry_cell_setting	triclinic
loop_
_symmetry_equiv_pos_as_xyz
  x,y,z
_cell_length_a	12.827893
_cell_length_b	12.759394
_cell_length_c	12.827885
_cell_angle_alpha	90.029530
_cell_angle_beta	90.019272
_cell_angle_gamma	90.013826
loop_
_atom_site_label
_atom_site_type_symbol
_atom_site_fract_x
_atom_site_fract_y
_atom_site_fract_z
Zn1	Zn	1.597681	-0.418216	0.590851
Zn2	Zn	1.597580	-0.593932	0.416112
Zn3	Zn	1.422922	-0.418268	0.416124
Zn4	Zn	1.422912	-0.593854	0.590812
O5	O	1.510274	-0.506067	0.503474
O6	O	1.743903	-0.441537	0.567682
O7	O	1.574373	-0.570684	0.269877
O8	O	1.446151	-0.271240	0.439324
O9	O	1.743829	-0.570634	0.439302
O10	O	1.574545	-0.271202	0.567694
O11	O	1.446053	-0.441624	0.269886
O12	O	1.276685	-0.441548	0.439286
O13	O	1.446134	-0.570501	0.737053
O14	O	1.276677	-0.570551	0.567628
O15	O	1.574535	-0.441461	0.737081
O16	O	1.574363	-0.740943	0.439264
O17	O	1.446036	-0.740885	0.567616
C18	C	1.238764	-0.506047	0.503455
C19	C	1.122611	-0.506064	0.503471
C20	C	1.510216	-0.779035	0.503457
C21	C	1.510286	-0.895812	0.503485
C22	C	1.070850	-0.569998	0.566881
C23	C	0.950800	-0.570017	0.566899
C24	C	1.643883	-0.895614	0.637257
C25	C	1.710715	-0.950376	0.704152
C26	C	1.710777	-1.060098	0.704174
C27	C	1.643998	-1.115060	0.637298
C28	C	1.577167	-1.060298	0.570403
C29	C	1.577114	-0.950574	0.570386
C30	C	1.443566	-1.060495	0.436638
C31	C	1.443508	-0.950774	0.436608
C32	C	1.376787	-1.115457	0.369761
C33	C	1.309959	-1.060695	0.302860
C34	C	1.309901	-0.950967	0.302839
C35	C	1.376676	-0.896012	0.369714
C36	C	1.782844	-0.506089	0.503495
C37	C	1.898997	-0.506098	0.503504
C38	C	1.510345	-0.505967	0.776045
C39	C	1.510375	-0.505924	0.892198
C40	C	1.510360	-0.232034	0.503515
C41	C	1.510397	-0.115257	0.503532
C42	C	1.510263	-0.506092	0.231965
C43	C	1.510435	-0.505839	0.115812
C44	C	1.573919	-0.442058	0.943997
C45	C	1.573952	-0.442012	1.064047
H46	H	1.115412	-0.624717	0.621158
H47	H	1.078048	-0.451337	0.449201
H48	H	1.455990	-0.560560	0.936728
O49	O	1.376711	-0.789429	0.369528
C50	C	1.403543	-0.752812	0.269383
H51	H	1.449154	-0.816033	0.226222
H52	H	1.329566	-0.733431	0.224053
C53	C	1.415149	-0.575944	0.332537
C54	C	1.471177	-0.653590	0.279529
H55	H	1.456866	-0.514737	0.338795
H56	H	1.397068	-0.600612	0.400007
H57	H	1.353505	-0.559806	0.294755
H58	H	1.532813	-0.669737	0.317318
H59	H	1.489270	-0.628923	0.212067
O60	O	1.245195	-1.114245	0.237938
C61	C	1.259554	-1.222830	0.252330
H62	H	1.340192	-1.237727	0.286625
H63	H	1.197558	-1.253968	0.307939
C64	C	1.151015	-1.260961	0.104483
C65	C	1.250060	-1.279258	0.146597
H66	H	1.145154	-1.295770	0.039264
H67	H	1.141337	-1.187805	0.094789
H68	H	1.099362	-1.286909	0.150834
H69	H	1.301709	-1.253298	0.100252
H70	H	1.259745	-1.352411	0.156281
H71	H	0.906286	-0.624756	0.621183
O72	O	1.244832	-0.897888	0.237911
C73	C	1.140684	-0.924746	0.260697
H74	H	1.138546	-1.004383	0.300885
H75	H	1.105433	-0.862981	0.314385
C76	C	1.080052	-0.832130	0.109417
C77	C	1.077425	-0.929946	0.158769
H78	H	1.041028	-0.835333	0.046545
H79	H	1.150218	-0.814032	0.094067
H80	H	1.050677	-0.780669	0.154167
H81	H	1.106811	-0.981402	0.114024
H82	H	1.007262	-0.948053	0.174110
O83	O	0.952039	-0.440905	0.438581
C84	C	0.925370	-0.463705	0.334372
H85	H	0.895284	-0.547607	0.328933
H86	H	0.862090	-0.407295	0.307104
C87	C	1.059311	-0.348425	0.271401
C88	C	1.022367	-0.451477	0.264720
H89	H	1.119141	-0.340878	0.228434
H90	H	1.077276	-0.333060	0.341609
H91	H	1.006568	-0.301428	0.248679
H92	H	1.075105	-0.498471	0.287454
H93	H	1.004412	-0.466850	0.194514
O94	O	1.643928	-0.789031	0.637396
C95	C	1.717218	-0.752264	0.710741
H96	H	1.731859	-0.815437	0.771822
H97	H	1.793424	-0.732770	0.669356
C98	C	1.656572	-0.575506	0.689231
C99	C	1.674548	-0.653094	0.764257
H100	H	1.630255	-0.514331	0.722239
H101	H	1.607198	-0.600276	0.639814
H102	H	1.720082	-0.559274	0.654750
H103	H	1.611036	-0.669334	0.798727
H104	H	1.723910	-0.628324	0.813681
H105	H	1.765084	-0.905617	0.758604
O106	O	1.638956	-0.376744	1.117020
C107	C	1.697986	-0.317387	1.045571
H108	H	1.701640	-0.360378	0.967734
H109	H	1.659748	-0.237586	1.034011
C110	C	1.804696	-0.249470	1.183889
C111	C	1.809191	-0.302277	1.088290
H112	H	1.873291	-0.240144	1.210240
H113	H	1.764924	-0.289456	1.232026
H114	H	1.772826	-0.182975	1.174243
H115	H	1.841048	-0.368775	1.097940
H116	H	1.848971	-0.262301	1.040155
H117	H	1.628294	-0.387411	0.899467
H118	H	1.765186	-1.104685	0.758656
O119	O	1.445675	-0.571128	1.062567
C120	C	1.505195	-0.638972	0.999448
H121	H	1.584412	-0.601914	0.983219
H122	H	1.516624	-0.716854	1.041439
C123	C	1.350469	-0.703451	0.915633
C124	C	1.447762	-0.657931	0.895693
H125	H	1.315041	-0.715151	0.851634
H126	H	1.310368	-0.657746	0.958160
H127	H	1.360007	-0.768348	0.950628
H128	H	1.438223	-0.593031	0.860711
H129	H	1.487861	-0.703626	0.853158
H130	H	1.644046	-1.204401	0.637331
H131	H	1.376839	-1.204798	0.369788
