data_functionalizedCrystal
_audit_creation_method	'MofGen! by Chris Wilmer'
_symmetry_space_group_name_H-M	'P1'
_symmetry_Int_Tables_number	1
_symmetry_cell_setting	triclinic
loop_
_symmetry_equiv_pos_as_xyz
  x,y,z
_cell_length_a	13.262522
_cell_length_b	13.339070
_cell_length_c	10.065875
_cell_angle_alpha	101.189098
_cell_angle_beta	65.550306
_cell_angle_gamma	99.428816
loop_
_atom_site_label
_atom_site_type_symbol
_atom_site_fract_x
_atom_site_fract_y
_atom_site_fract_z
O1	O	1.497514	0.048993	-0.669321
O2	O	1.184965	0.078981	-0.553315
O3	O	1.305369	-0.081682	-0.598000
O4	O	1.377111	0.209656	-0.624636
O5	O	1.282446	-0.050929	-0.362504
O6	O	1.162042	0.109735	-0.317818
O7	O	1.474591	0.079747	-0.433825
Zn8	Zn	1.314677	0.099623	-0.338432
Zn9	Zn	1.344880	0.059104	-0.648708
O10	O	1.354187	0.240410	-0.389140
C11	C	1.132684	0.095506	-0.420416
C12	C	1.011049	0.098914	-0.375270
C13	C	0.941417	0.117282	-0.225683
C14	C	0.827132	0.120476	-0.183254
C15	C	0.782471	0.105311	-0.290408
C16	C	0.852105	0.086950	-0.439997
C17	C	0.966399	0.083747	-0.482430
C18	C	0.807453	0.071776	-0.547155
C19	C	0.877087	0.053416	-0.696745
C20	C	0.991370	0.050215	-0.739170
C21	C	1.036032	0.065380	-0.632017
C22	C	0.693159	0.074979	-0.504722
C23	C	0.718141	0.041444	-0.761469
C24	C	0.832425	0.038250	-0.803898
C25	C	1.281789	-0.103456	-0.475756
C26	C	1.245667	-0.214154	-0.462354
C27	C	1.526535	-0.591425	-0.566601
C28	C	1.560476	-0.487419	-0.579186
C29	C	1.481776	-0.419098	-0.549980
C30	C	1.369131	-0.454793	-0.508185
C31	C	1.335185	-0.558808	-0.495588
C32	C	1.290427	-0.386481	-0.478967
C33	C	1.177781	-0.422176	-0.437173
C34	C	1.143842	-0.526181	-0.424579
C35	C	1.222541	-0.594502	-0.453785
C36	C	1.324372	-0.282466	-0.491564
C37	C	1.133023	-0.249848	-0.420551
C38	C	1.099082	-0.353855	-0.407966
C39	C	1.526873	0.063221	-0.566727
C40	C	1.648509	0.059812	-0.611883
C41	C	1.377768	0.262184	-0.511387
C42	C	1.413890	0.372880	-0.524798
N43	N	1.294072	0.127276	-0.126679
N44	N	1.365490	0.031444	-0.860463
C45	C	1.337702	0.068719	-0.075092
C46	C	1.321855	0.090009	0.087956
H47	H	0.689415	0.107914	-0.255853
C48	C	1.227764	0.216295	-0.023288
H49	H	1.225819	0.218930	0.072733
H50	H	1.154012	0.205703	-0.019246
H51	H	1.262571	0.279179	-0.059561
H52	H	0.636475	0.089936	-0.382925
C53	C	1.431837	-0.057556	0.036140
H54	H	1.433807	-0.060178	-0.059891
H55	H	1.397070	-0.120452	0.072384
H56	H	1.505590	-0.046925	0.032115
H57	H	1.272761	0.155903	0.164497
H58	H	1.007364	-0.382933	-0.373936
H59	H	1.590598	-0.647059	-0.590365
H60	H	1.386782	0.002822	-0.151632
H61	H	0.770442	0.135412	-0.061457
C62	C	0.909024	0.018051	-0.968439
H63	H	0.866066	0.009484	-1.026187
H64	H	0.944612	-0.042424	-0.986792
H65	H	0.963643	0.074648	-0.993854
C66	C	1.019936	-0.565448	-0.378599
H67	H	1.010992	-0.637175	-0.375269
H68	H	0.994185	-0.552424	-0.448198
H69	H	0.978192	-0.530978	-0.283940
H70	H	1.068938	-0.194220	-0.396762
H71	H	0.977790	0.129619	-0.138455
H72	H	1.416089	-0.253413	-0.525592
C73	C	1.161744	0.061854	-0.678692
H74	H	1.196821	0.048745	-0.783127
H75	H	1.173462	0.008793	-0.637336
H76	H	1.192509	0.125862	-0.644425
H77	H	1.652191	-0.458363	-0.613213
C78	C	1.067963	0.030012	-0.903713
H79	H	1.025002	0.021447	-0.961455
H80	H	1.103549	-0.030465	-0.922067
H81	H	1.122585	0.086607	-0.929134
C82	C	0.669027	0.024767	-0.879345
H83	H	0.590990	0.029315	-0.832651
H84	H	0.683365	-0.041178	-0.935509
H85	H	0.702410	0.075894	-0.942578
H86	H	1.509418	-0.334412	-0.560228
H87	H	1.194912	-0.679195	-0.443546
