data_functionalizedCrystal
_audit_creation_method	'MofGen! by Chris Wilmer'
_symmetry_space_group_name_H-M	'P1'
_symmetry_Int_Tables_number	1
_symmetry_cell_setting	triclinic
loop_
_symmetry_equiv_pos_as_xyz
  x,y,z
_cell_length_a	21.395362
_cell_length_b	13.031981
_cell_length_c	21.395355
_cell_angle_alpha	82.800183
_cell_angle_beta	89.956060
_cell_angle_gamma	97.204883
loop_
_atom_site_label
_atom_site_type_symbol
_atom_site_fract_x
_atom_site_fract_y
_atom_site_fract_z
Zn1	Zn	0.926274	-0.415794	-0.322901
Zn2	Zn	1.426274	0.084206	0.177099
Zn3	Zn	0.912901	-0.590555	-0.204806
Zn4	Zn	1.412901	-0.090555	0.295194
Zn5	Zn	0.821486	-0.415842	-0.218098
Zn6	Zn	1.321486	0.084158	0.281902
Zn7	Zn	0.808181	-0.590577	-0.309509
Zn8	Zn	1.308181	-0.090577	0.190491
O9	O	0.867211	-0.503192	-0.263828
O10	O	1.367211	-0.003192	0.236172
O11	O	1.012181	-0.438947	-0.307277
O12	O	1.512181	0.061053	0.192723
O13	O	0.900746	-0.567390	-0.118890
O14	O	1.400746	-0.067390	0.381110
O15	O	0.846551	-0.269571	-0.243168
O16	O	1.346551	0.230429	0.256832
O17	O	1.002356	-0.567343	-0.220513
O18	O	1.502356	-0.067343	0.279487
O19	O	0.923538	-0.269535	-0.320166
O20	O	1.423538	0.230465	0.179834
O21	O	0.833583	-0.439030	-0.128656
O22	O	1.333583	0.060970	0.371344
O23	O	0.732041	-0.439051	-0.230182
O24	O	1.232041	0.060949	0.269818
O25	O	0.823875	-0.567380	-0.398964
O26	O	1.323875	-0.067380	0.101036
O27	O	0.722266	-0.567427	-0.297341
O28	O	1.222266	-0.067427	0.202659
O29	O	0.910638	-0.438968	-0.408803
O30	O	1.410638	0.061032	0.091197
O31	O	0.887846	-0.736823	-0.207527
O32	O	1.387846	-0.236823	0.292473
O33	O	0.810908	-0.736839	-0.284452
O34	O	1.310908	-0.236839	0.215548
C35	C	0.704419	-0.503247	-0.263751
C36	C	1.204419	-0.003247	0.236249
C37	C	0.634774	-0.503296	-0.263732
C38	C	1.134774	-0.003296	0.236268
C39	C	0.846499	-0.774756	-0.243108
C40	C	1.346499	-0.274756	0.256892
C41	C	0.837696	-0.890932	-0.234265
C42	C	1.337696	-0.390932	0.265735
C43	C	0.596981	-0.570230	-0.298634
C44	C	1.096981	-0.070230	0.201366
C45	C	0.531547	-0.570205	-0.298664
C46	C	1.031547	-0.070205	0.201336
C47	C	0.503909	-0.503256	-0.263779
C48	C	1.003909	-0.003256	0.236221
C49	C	0.541711	-0.436309	-0.228874
C50	C	1.041711	0.063691	0.271126
C51	C	0.607143	-0.436329	-0.228851
C52	C	1.107143	0.063671	0.271149
C53	C	0.400824	-0.494836	-0.208016
C54	C	0.900824	0.005164	0.291984
C55	C	0.335392	-0.494823	-0.208038
C56	C	0.835392	0.005177	0.291962
C57	C	0.302093	-0.503188	-0.263854
C58	C	0.802093	-0.003188	0.236146
C59	C	0.334233	-0.511587	-0.319647
C60	C	0.834233	-0.011587	0.180353
C61	C	0.399666	-0.511607	-0.319623
C62	C	0.899666	-0.011607	0.180377
C63	C	0.432959	-0.503226	-0.263802
C64	C	0.932959	-0.003226	0.236198
C65	C	0.193349	-0.570098	-0.298792
C66	C	0.693349	-0.070098	0.201208
C67	C	0.127915	-0.570065	-0.298823
C68	C	0.627915	-0.070065	0.201177
C69	C	0.138079	-0.436174	-0.229028
C70	C	0.638079	0.063826	0.270972
C71	C	0.203513	-0.436202	-0.229002
C72	C	0.703513	0.063798	0.270998
C73	C	0.231143	-0.503169	-0.263883
C74	C	0.731143	-0.003169	0.236117
C75	C	0.871838	-0.942626	-0.268456
C76	C	1.371838	-0.442626	0.231544
C77	C	0.862741	-1.062700	-0.259317
C78	C	1.362741	-0.562700	0.240683
C79	C	1.030638	-0.503137	-0.263906
C80	C	1.530638	-0.003137	0.236094
C81	C	1.100281	-0.503114	-0.263939
C82	C	1.600281	-0.003114	0.236061
C83	C	0.867264	-0.503171	-0.427253
C84	C	1.367264	-0.003171	0.072747
C85	C	0.867287	-0.503162	-0.496895
C86	C	1.367287	-0.003162	0.003105
C87	C	0.888020	-0.230568	-0.284643
C88	C	1.388020	0.269432	0.215357
C89	C	0.896888	-0.114391	-0.293514
C90	C	1.396888	0.385609	0.206486
C91	C	0.912463	-0.436295	-0.534733
C92	C	1.412463	0.063705	-0.034733
C93	C	0.912465	-0.436250	-0.600172
C94	C	1.412465	0.063750	-0.100172
C95	C	0.867297	-0.503091	-0.627769
C96	C	1.367297	-0.003091	-0.127769
C97	C	0.822114	-0.569962	-0.589923
C98	C	1.322114	-0.069962	-0.089923
C99	C	0.822109	-0.569998	-0.524486
C100	C	1.322109	-0.069998	-0.024486
C101	C	0.855172	-0.597205	-0.724261
C102	C	1.355172	-0.097205	-0.224261
C103	C	0.855182	-0.597172	-0.789697
C104	C	1.355182	-0.097172	-0.289697
C105	C	0.867310	-0.502980	-0.829598
C106	C	1.367310	-0.002980	-0.329598
C107	C	0.879442	-0.408820	-0.804057
C108	C	1.379442	0.091180	-0.304057
C109	C	0.879437	-0.408855	-0.738620
C110	C	1.379437	0.091145	-0.238620
C111	C	0.867298	-0.503059	-0.698724
C112	C	1.367298	-0.003059	-0.198724
C113	C	0.912491	-0.436059	-0.938393
C114	C	1.412491	0.063941	-0.438393
C115	C	0.912489	-0.436012	-1.003833
C116	C	1.412489	0.063988	-0.503833
C117	C	0.822140	-0.569734	-0.993583
C118	C	1.322140	-0.069734	-0.493583
C119	C	0.822139	-0.569771	-0.928144
C120	C	1.322139	-0.069771	-0.428144
C121	C	0.867318	-0.502935	-0.900553
C122	C	1.367318	-0.002935	-0.400553
C123	C	0.867199	-0.503138	-0.101045
C124	C	1.367199	-0.003138	0.398955
C125	C	0.867320	-0.502852	-0.031426
C126	C	1.367320	-0.002852	0.468574
H127	H	0.619473	-0.624759	-0.327038
H128	H	1.119473	-0.124759	0.172962
Cl129	Cl	0.782162	-0.959840	-0.178625
Cl130	Cl	1.282162	-0.459840	0.321375
H131	H	0.637915	-0.381820	-0.200429
H132	H	1.137915	0.118180	0.299571
H133	H	0.907802	-0.897991	-0.304498
H134	H	1.407802	-0.397991	0.195502
Cl135	Cl	0.807204	-1.131604	-0.203675
Cl136	Cl	1.307204	-0.631604	0.296325
H137	H	0.932854	-1.069759	-0.329558
H138	H	1.432854	-0.569759	0.170442
Cl139	Cl	0.103340	-0.352002	-0.185176
Cl140	Cl	0.603340	0.147998	0.314824
Cl141	Cl	0.969256	-0.352266	-0.500051
Cl142	Cl	1.469256	0.147734	-0.000051
Cl143	Cl	0.969251	-0.352161	-0.647750
Cl144	Cl	1.469251	0.147839	-0.147750
Cl145	Cl	0.894683	-0.290488	-0.706512
Cl146	Cl	1.394683	0.209512	-0.206512
H147	H	0.889319	-0.332120	-0.836544
H148	H	1.389319	0.167880	-0.336544
H149	H	0.234284	-0.381702	-0.200577
H150	H	0.734284	0.118298	0.299423
H151	H	0.845307	-0.673843	-0.810487
H152	H	1.345307	-0.173843	-0.310487
Cl153	Cl	0.292380	-0.522097	-0.389821
Cl154	Cl	0.792380	-0.022097	0.110179
H155	H	0.949275	-0.381631	-0.915927
H156	H	1.449275	0.118369	-0.415927
Cl157	Cl	0.228089	-0.654277	-0.342646
Cl158	Cl	0.728089	-0.154277	0.157354
H159	H	0.845130	-0.673888	-0.691779
H160	H	1.345130	-0.173888	-0.191779
Cl161	Cl	0.969295	-0.351959	-1.051400
Cl162	Cl	1.469295	0.148041	-0.551400
H163	H	0.785358	-0.624146	-1.016052
H164	H	1.285358	-0.124146	-0.516052
H165	H	0.785355	-0.624228	-0.897336
H166	H	1.285355	-0.124228	-0.397336
H167	H	0.500770	-0.624710	-0.327089
H168	H	1.000770	-0.124710	0.172911
Cl169	Cl	0.765329	-0.653987	-0.624617
Cl170	Cl	1.265329	-0.153987	-0.124617
H171	H	0.785318	-0.624448	-0.493679
H172	H	1.285318	-0.124448	0.006321
H173	H	0.425831	-0.518444	-0.365053
H174	H	0.925831	-0.018444	0.134947
H175	H	0.097145	-0.624569	-0.327250
H176	H	0.597145	-0.124569	0.172750
H177	H	0.309228	-0.487990	-0.162607
H178	H	0.809228	0.012010	0.337393
H179	H	0.427930	-0.488019	-0.162561
H180	H	0.927930	0.011981	0.337439
Cl181	Cl	0.506966	-0.352139	-0.185022
Cl182	Cl	1.006966	0.147861	0.314978
