data_functionalizedCrystal
_audit_creation_method	'MofGen! by Chris Wilmer'
_symmetry_space_group_name_H-M	'P1'
_symmetry_Int_Tables_number	1
_symmetry_cell_setting	triclinic
loop_
_symmetry_equiv_pos_as_xyz
  x,y,z
_cell_length_a	16.956984
_cell_length_b	14.853559
_cell_length_c	15.455313
_cell_angle_alpha	92.670929
_cell_angle_beta	87.518126
_cell_angle_gamma	79.842436
loop_
_atom_site_label
_atom_site_type_symbol
_atom_site_fract_x
_atom_site_fract_y
_atom_site_fract_z
O1	O	1.061570	0.033147	-0.072134
O2	O	0.829447	0.064796	-0.072133
O3	O	0.951713	-0.082730	-0.072133
O4	O	0.939305	0.180673	-0.072134
O5	O	0.944721	-0.074326	0.072130
O6	O	0.822455	0.073200	0.072129
O7	O	1.054579	0.041550	0.072128
Cu8	Cu	0.937879	0.058142	0.085301
Cu9	Cu	0.946147	0.048204	-0.085306
O10	O	0.932313	0.189076	0.072128
C11	C	0.796245	0.070619	-0.000002
C12	C	0.707729	0.075437	-0.000002
C13	C	0.675558	-0.005126	-0.000000
C14	C	0.592388	-0.000593	-0.000006
C15	C	0.541390	0.084503	-0.000009
C16	C	0.573567	0.165072	-0.000013
C17	C	0.656736	0.160538	-0.000013
C18	C	0.291642	0.106944	-0.000015
C19	C	0.208468	0.111472	-0.000012
C20	C	0.227295	-0.054194	-0.000007
C21	C	0.310464	-0.058720	-0.000002
C22	C	0.342634	0.021848	-0.000011
N23	N	0.456377	0.089138	-0.000012
N24	N	0.427646	0.017212	-0.000014
C25	C	0.947656	-0.112074	-0.000003
C26	C	0.945975	-0.212031	-0.000008
C27	C	0.942654	-0.639245	-0.078645
C28	C	0.935032	-0.630078	0.078635
C29	C	0.936618	-0.536165	0.078635
C30	C	0.941221	-0.493788	-0.000005
C31	C	0.944238	-0.545323	-0.078647
C32	C	0.933593	-0.484621	0.157276
C33	C	0.935178	-0.390702	0.157280
C34	C	0.939787	-0.348324	0.078638
C35	C	0.942805	-0.399866	-0.000007
C36	C	0.947408	-0.357489	-0.078648
C37	C	0.950432	-0.409030	-0.157294
C38	C	0.948847	-0.502946	-0.157289
C39	C	0.941372	-0.254409	0.078633
C40	C	0.948992	-0.263567	-0.078650
C41	C	1.087781	0.035728	-0.000004
C42	C	1.176297	0.030909	-0.000010
C43	C	0.936370	0.218421	-0.000004
C44	C	0.938051	0.318377	-0.000004
N45	N	0.932069	0.065131	0.205296
N46	N	0.951963	0.041207	-0.205301
C47	C	0.984030	0.002477	0.250691
C48	C	0.979643	0.007771	0.341499
C49	C	0.923299	0.075723	0.386910
C50	C	0.871333	0.138380	0.341510
C51	C	0.875716	0.133082	0.250703
C52	C	0.904380	0.098567	0.658492
C53	C	0.900002	0.103862	0.749304
C54	C	1.008312	-0.026749	0.749287
C55	C	1.012694	-0.032038	0.658479
C56	C	0.960724	0.030616	0.613086
N57	N	0.918816	0.081137	0.479731
N58	N	0.965204	0.025197	0.520268
H59	H	0.717075	-0.074420	0.000005
H60	H	0.854118	0.159200	0.786274
H61	H	0.825452	0.193705	0.378489
H62	H	0.952745	-0.229071	-0.142689
H63	H	0.351982	-0.128014	0.000004
H64	H	1.058573	-0.087370	0.621507
H65	H	0.201093	-0.119789	-0.000009
H66	H	0.938891	-0.212444	0.142665
H67	H	1.021953	-0.043248	0.378458
H68	H	0.954174	-0.374513	-0.221323
H69	H	0.951309	-0.544919	-0.221318
H70	H	0.931279	-0.664586	0.142661
H71	H	0.862066	0.149584	0.621540
H72	H	0.566199	-0.066196	-0.000006
H73	H	0.945120	-0.681215	-0.142677
H74	H	1.029914	-0.052853	0.213723
H75	H	0.166947	0.180771	-0.000010
H76	H	0.929840	-0.519131	0.221301
H77	H	0.932718	-0.348745	0.221318
H78	H	0.317825	0.172548	-0.000028
H79	H	1.050622	-0.077760	0.786254
H80	H	0.682928	0.226141	-0.000011
H81	H	0.532038	0.234359	-0.000021
H82	H	0.833403	0.184100	0.213744
