data_functionalizedCrystal
_audit_creation_method	'MofGen! by Chris Wilmer'
_symmetry_space_group_name_H-M	'P1'
_symmetry_Int_Tables_number	1
_symmetry_cell_setting	triclinic
loop_
_symmetry_equiv_pos_as_xyz
  x,y,z
_cell_length_a	17.640112
_cell_length_b	12.645330
_cell_length_c	17.640968
_cell_angle_alpha	78.771593
_cell_angle_beta	92.139080
_cell_angle_gamma	101.241872
loop_
_atom_site_label
_atom_site_type_symbol
_atom_site_fract_x
_atom_site_fract_y
_atom_site_fract_z
Zn1	Zn	1.247780	-0.030458	-0.195081
Zn2	Zn	1.747780	0.469542	0.304919
Zn3	Zn	1.222027	-0.249165	-0.068107
Zn4	Zn	1.722027	0.250835	0.431893
Zn5	Zn	1.095118	-0.099415	-0.093730
Zn6	Zn	1.595118	0.400585	0.406270
Zn7	Zn	1.120767	-0.235211	-0.220689
Zn8	Zn	1.620767	0.264789	0.279311
O9	O	1.171423	-0.153562	-0.144402
O10	O	1.671423	0.346438	0.355598
O11	O	1.350632	-0.036452	-0.156798
O12	O	1.850632	0.463548	0.343202
O13	O	1.183680	-0.263999	0.034766
O14	O	1.683680	0.236001	0.534766
O15	O	1.115413	0.058093	-0.107181
O16	O	1.615413	0.558093	0.392819
O17	O	1.331711	-0.197135	-0.063511
O18	O	1.831711	0.302865	0.436489
O19	O	1.227573	0.108755	-0.181643
O20	O	1.727573	0.608755	0.318357
O21	O	1.090440	-0.153978	0.015941
O22	O	1.590440	0.346022	0.515941
O23	O	0.992252	-0.140447	-0.132011
O24	O	1.492252	0.359553	0.367989
O25	O	1.159127	-0.173352	-0.323563
O26	O	1.659127	0.326648	0.176437
O27	O	1.011096	-0.240216	-0.225287
O28	O	1.511096	0.259784	0.274713
O29	O	1.252444	-0.022921	-0.304750
O30	O	1.752444	0.477079	0.195250
O31	O	1.208550	-0.395675	-0.088341
O32	O	1.708550	0.104325	0.411659
O33	O	1.134155	-0.385423	-0.200442
O34	O	1.634155	0.114577	0.299558
C35	C	0.974120	-0.196301	-0.184209
C36	C	1.474120	0.303699	0.315791
C37	C	0.889717	-0.214604	-0.201257
C38	C	1.389717	0.285396	0.298743
C39	C	1.171365	-0.429008	-0.144402
C40	C	1.671365	0.070992	0.355598
C41	C	1.171415	-0.546821	-0.144414
C42	C	1.671415	-0.046821	0.355586
C43	C	0.563040	-0.014493	-0.014899
C44	C	1.063040	0.485507	0.485101
C45	C	0.483733	-0.031710	-0.030928
C46	C	0.983733	0.468290	0.469072
C47	C	0.503375	-0.135841	-0.127889
C48	C	1.003375	0.364159	0.372111
C49	C	0.582687	-0.118628	-0.111870
C50	C	1.082687	0.381372	0.388130
C51	C	0.612512	-0.057954	-0.055374
C52	C	1.112512	0.442046	0.444626
C53	C	0.632159	-0.162089	-0.152345
C54	C	1.132159	0.337911	0.347655
C55	C	0.711463	-0.144883	-0.136325
C56	C	1.211463	0.355117	0.363675
C57	C	0.741294	-0.084215	-0.079830
C58	C	1.241294	0.415785	0.420170
C59	C	0.691816	-0.040748	-0.039354
C60	C	1.191816	0.459252	0.460646
C61	C	0.602331	-0.222769	-0.208838
C62	C	1.102331	0.277231	0.291162
C63	C	0.651804	-0.266231	-0.249313
C64	C	1.151804	0.233769	0.250687
C65	C	0.731110	-0.249018	-0.233297
C66	C	1.231110	0.250982	0.266703
C67	C	0.760941	-0.188350	-0.176801
C68	C	1.260941	0.311650	0.323199
C69	C	0.780588	-0.292485	-0.273773
C70	C	1.280588	0.207515	0.226227
C71	C	0.859892	-0.275278	-0.257753
C72	C	1.359892	0.224722	0.242247
C73	C	0.840245	-0.171143	-0.160781
C74	C	1.340245	0.328857	0.339219
C75	C	1.124892	-0.707868	-0.215069
C76	C	1.624892	-0.207868	0.284931
C77	C	1.124554	-0.585435	-0.214940
C78	C	1.624554	-0.085435	0.285060
C79	C	1.133571	-0.622203	-0.068749
C80	C	1.633571	-0.122203	0.431251
C81	C	1.133287	-0.744763	-0.069178
C82	C	1.633287	-0.244763	0.430822
C83	C	1.256009	-0.689787	-0.148703
C84	C	1.756009	-0.189787	0.351297
C85	C	1.255870	-0.566716	-0.150553
C86	C	1.755870	-0.066716	0.349447
C87	C	1.369496	-0.110658	-0.104440
C88	C	1.869496	0.389342	0.395560
C89	C	1.453902	-0.092374	-0.087410
C90	C	1.953902	0.407626	0.412590
C91	C	1.211520	-0.088888	-0.342482
C92	C	1.711520	0.411112	0.157518
C93	C	1.228606	-0.061328	-0.426892
C94	C	1.728606	0.438672	0.073108
C95	C	1.171505	0.122968	-0.144414
C96	C	1.671505	0.622968	0.355586
C97	C	1.171539	0.240809	-0.144419
C98	C	1.671539	0.740809	0.355581
C99	C	1.041907	-0.362295	-0.753477
C100	C	1.541907	0.137705	-0.253477
C101	C	1.057979	-0.336381	-0.832790
C102	C	1.557979	0.163619	-0.332790
C103	C	1.155141	-0.179751	-0.813190
C104	C	1.655141	0.320249	-0.313190
C105	C	1.139075	-0.205649	-0.733875
C106	C	1.639075	0.294351	-0.233875
C107	C	1.082458	-0.296923	-0.704024
C108	C	1.582458	0.203077	-0.204024
C109	C	1.179626	-0.140276	-0.684422
C110	C	1.679626	0.359724	-0.184422
C111	C	1.163563	-0.166176	-0.605113
C112	C	1.663563	0.333824	-0.105113
C113	C	1.106950	-0.257448	-0.575256
C114	C	1.606950	0.242552	-0.075256
C115	C	1.066395	-0.322822	-0.624715
C116	C	1.566395	0.177178	-0.124715
C117	C	1.236246	-0.049007	-0.714273
C118	C	1.736246	0.450993	-0.214273
C119	C	1.276797	0.016366	-0.664821
C120	C	1.776797	0.516366	-0.164821
C121	C	1.260731	-0.009529	-0.585511
C122	C	1.760731	0.490471	-0.085511
C123	C	1.204118	-0.100801	-0.555654
C124	C	1.704118	0.399199	-0.055654
C125	C	1.301286	0.055846	-0.536052
C126	C	1.801286	0.555846	-0.036052
C127	C	1.285224	0.029947	-0.456742
C128	C	1.785224	0.529947	0.043258
C129	C	1.188056	-0.126700	-0.476345
C130	C	1.688056	0.373300	0.023655
C131	C	1.131526	-0.217899	0.052917
C132	C	1.631526	0.282101	0.552917
C133	C	1.114586	-0.245129	0.137356
C134	C	1.614586	0.254871	0.637356
H135	H	0.864533	-0.121717	-0.114788
H136	H	1.364533	0.378283	0.385212
F137	F	1.014813	-0.405965	-0.885420
F138	F	1.514813	0.094035	-0.385420
H139	H	1.093876	-0.278537	-0.510676
H140	H	1.593876	0.221463	-0.010676
F141	F	1.006131	-0.419960	-0.592944
F142	F	1.506131	0.080040	-0.092944
H143	H	1.150358	-0.714958	-0.271900
H144	H	1.650358	-0.214958	0.228100
F145	F	0.981642	-0.459433	-0.721705
F146	F	1.481642	0.040567	-0.221705
F147	F	1.215398	-0.082616	-0.844967
F148	F	1.715398	0.417384	-0.344967
F149	F	0.748832	-0.357076	-0.333886
F150	F	1.248832	0.142924	0.166114
F151	F	0.620051	-0.330815	-0.309431
F152	F	1.120051	0.169185	0.190569
H153	H	1.318243	0.083181	-0.416477
H154	H	1.818243	0.583181	0.083523
F155	F	1.044004	-0.770745	-0.213171
F156	F	1.544004	-0.270745	0.286829
H157	H	1.249324	-0.027925	-0.778852
H158	H	1.749324	0.472075	-0.278852
F159	F	1.337053	0.113501	-0.696598
F160	F	1.837053	0.613501	-0.196598
F161	F	1.361547	0.152975	-0.567830
F162	F	1.861547	0.652975	-0.067830
H163	H	1.164912	-0.780360	-0.015614
H164	H	1.664912	-0.280360	0.484386
F165	F	1.052949	-0.606190	-0.060971
F166	F	1.552949	-0.106190	0.439029
H167	H	0.443454	0.003695	0.002031
H168	H	0.943454	0.503695	0.502031
F169	F	0.825697	-0.065908	-0.062776
F170	F	1.325697	0.434092	0.437224
H171	H	0.716104	0.008678	0.006640
H172	H	1.216104	0.508678	0.506640
F173	F	1.175635	-0.591591	0.001008
F174	F	1.675635	-0.091591	0.501008
F175	F	1.305388	-0.530571	-0.086512
F176	F	1.805388	-0.030571	0.413488
F177	F	1.043130	-0.569871	-0.212904
F178	F	1.543130	-0.069871	0.287096
H179	H	0.587328	0.034933	0.031095
H180	H	1.087328	0.534933	0.531095
H181	H	1.150106	-0.532996	-0.271552
H182	H	1.650106	-0.032996	0.228448
F183	F	1.301699	-0.733595	-0.081196
F184	F	1.801699	-0.233595	0.418804
H185	H	1.287369	-0.697644	-0.202086
H186	H	1.787369	-0.197644	0.297914
H187	H	0.479080	-0.185245	-0.173886
H188	H	0.979080	0.314755	0.326114
H189	H	0.537756	-0.236777	-0.221879
H190	H	1.037756	0.263223	0.278121
H191	H	0.900174	-0.310667	-0.290713
H192	H	1.400174	0.189333	0.209287
H193	H	1.071058	-0.791839	-0.063665
H194	H	1.571058	-0.291839	0.436335
F195	F	1.292791	-0.498887	-0.223234
F196	F	1.792791	0.001113	0.276766
H197	H	1.141934	-0.201003	-0.452043
H198	H	1.641934	0.298997	0.047957
