data_functionalizedCrystal
_audit_creation_method	'MofGen! by Chris Wilmer'
_symmetry_space_group_name_H-M	'P1'
_symmetry_Int_Tables_number	1
_symmetry_cell_setting	triclinic
loop_
_symmetry_equiv_pos_as_xyz
  x,y,z
_cell_length_a	8.634740
_cell_length_b	13.262508
_cell_length_c	7.681481
_cell_angle_alpha	100.048420
_cell_angle_beta	96.618947
_cell_angle_gamma	92.192749
loop_
_atom_site_label
_atom_site_type_symbol
_atom_site_fract_x
_atom_site_fract_y
_atom_site_fract_z
O1	O	2.049946	0.341431	0.017103
O2	O	1.599483	0.313492	0.003717
O3	O	1.829008	0.179903	-0.060253
O4	O	1.820421	0.475020	0.081072
O5	O	1.857256	0.163417	0.224711
O6	O	1.627731	0.297006	0.288680
O7	O	2.078194	0.324945	0.302066
Zn8	Zn	1.857448	0.308358	0.340617
Zn9	Zn	1.820229	0.330079	-0.034834
O10	O	1.848669	0.458534	0.366036
C11	C	1.555814	0.298919	0.143167
C12	C	1.383610	0.280048	0.134127
C13	C	1.840053	0.133486	0.063945
C14	C	1.830859	0.019739	0.009462
C15	C	1.866529	-0.336857	0.477239
C16	C	1.875155	-0.229986	0.528429
C17	C	1.864082	-0.167549	0.398692
C18	C	1.844381	-0.211994	0.217755
C19	C	1.835742	-0.318876	0.166559
C20	C	1.833295	-0.149568	0.088013
C21	C	1.813593	-0.194013	-0.092924
C22	C	1.804956	-0.300884	-0.144111
C23	C	1.816029	-0.363321	-0.014373
C24	C	1.841934	-0.042687	0.139209
C25	C	1.811146	-0.024706	-0.171471
C26	C	1.802520	-0.131577	-0.222661
C27	C	2.121862	0.339517	0.162612
C28	C	2.294065	0.358390	0.171641
C29	C	1.837624	0.504951	0.241835
C30	C	1.846817	0.618698	0.296306
N31	N	1.882860	0.293534	0.596853
N32	N	1.794829	0.344896	-0.291073
H33	H	1.349151	0.439904	0.210688
H34	H	1.328528	0.198541	0.095049
O35	O	1.989985	0.230854	0.656353
C36	C	2.076227	0.058814	0.630787
C37	C	1.954832	0.129687	0.563209
H38	H	2.047830	-0.022998	0.555538
H39	H	2.197712	0.086161	0.607682
H40	H	2.072950	0.060807	0.779286
H41	H	1.957968	0.127728	0.414704
H42	H	1.833403	0.102317	0.586450
H43	H	1.857961	-0.006511	0.286528
H44	H	1.871105	-0.080531	0.440382
O45	O	1.894509	-0.186687	0.704119
C46	C	2.055778	-0.074927	0.942977
C47	C	2.034026	-0.123879	0.743961
H48	H	2.168588	-0.024153	0.975260
H49	H	1.952757	-0.026538	0.974154
H50	H	2.062137	-0.137918	1.026886
H51	H	2.027706	-0.060955	0.659919
H52	H	2.137051	-0.172293	0.712926
H53	H	1.875532	-0.387701	0.582851
O54	O	1.687589	0.407513	0.649486
C55	C	1.487951	0.523890	0.724304
C56	C	1.609367	0.453029	0.791878
H57	H	1.424653	0.560692	0.839384
H58	H	1.549409	0.586345	0.667935
H59	H	1.399824	0.477027	0.615514
H60	H	1.697528	0.499806	0.900722
H61	H	1.547801	0.390571	0.848134
O62	O	1.783088	-0.174819	-0.398392
C63	C	1.621905	-0.286694	-0.637171
C64	C	1.643708	-0.237766	-0.438143
H65	H	1.509238	-0.337614	-0.669364
H66	H	1.615354	-0.223774	-0.721229
H67	H	1.725061	-0.334973	-0.668237
H68	H	1.540588	-0.189494	-0.406909
H69	H	1.650327	-0.300735	-0.354191
O70	O	1.800126	0.036013	-0.297387
C71	C	1.658183	0.165425	-0.420740
C72	C	1.670560	0.096745	-0.278016
H73	H	1.553417	0.214528	-0.405151
H74	H	1.769262	0.217277	-0.404023
H75	H	1.642650	0.115250	-0.558804
H76	H	1.686042	0.146840	-0.139890
H77	H	1.559474	0.044886	-0.294889
H78	H	1.809015	-0.450344	-0.056044
H79	H	1.788900	-0.337068	-0.291441
