data_functionalizedCrystal
_audit_creation_method	'MofGen! by Chris Wilmer'
_symmetry_space_group_name_H-M	'P1'
_symmetry_Int_Tables_number	1
_symmetry_cell_setting	triclinic
loop_
_symmetry_equiv_pos_as_xyz
  x,y,z
_cell_length_a	17.077404
_cell_length_b	12.645330
_cell_length_c	17.077395
_cell_angle_alpha	89.975056
_cell_angle_beta	89.984359
_cell_angle_gamma	90.012871
loop_
_atom_site_label
_atom_site_type_symbol
_atom_site_fract_x
_atom_site_fract_y
_atom_site_fract_z
Zn1	Zn	1.200081	-0.422046	-0.443855
Zn2	Zn	1.700081	0.077954	0.056145
Zn3	Zn	1.200020	-0.599328	-0.312594
Zn4	Zn	1.700020	-0.099328	0.187406
Zn5	Zn	1.068821	-0.422079	-0.312603
Zn6	Zn	1.568821	0.077921	0.187397
Zn7	Zn	1.068804	-0.599269	-0.443818
Zn8	Zn	1.568804	-0.099269	0.056182
O9	O	1.134431	-0.510681	-0.378218
O10	O	1.634431	-0.010681	0.121782
O11	O	1.309919	-0.445574	-0.426455
O12	O	1.809919	0.054426	0.073545
O13	O	1.182598	-0.575854	-0.202749
O14	O	1.682598	-0.075854	0.297251
O15	O	1.086266	-0.273728	-0.330033
O16	O	1.586266	0.226272	0.169967
O17	O	1.309875	-0.575822	-0.330018
O18	O	1.809875	-0.075822	0.169982
O19	O	1.182701	-0.273703	-0.426464
O20	O	1.682701	0.226297	0.073536
O21	O	1.086207	-0.445630	-0.202755
O22	O	1.586207	0.054370	0.297245
O23	O	0.958972	-0.445573	-0.329997
O24	O	1.458972	0.054427	0.170003
O25	O	1.086236	-0.575721	-0.553670
O26	O	1.586236	-0.075721	-0.053670
O27	O	0.958959	-0.575753	-0.426400
O28	O	1.458959	-0.075753	0.073600
O29	O	1.182685	-0.445516	-0.553697
O30	O	1.682685	0.054484	-0.053697
O31	O	1.182581	-0.747667	-0.329982
O32	O	1.682581	-0.247667	0.170018
O33	O	1.086177	-0.747624	-0.426392
O34	O	1.586177	-0.247624	0.073608
C35	C	0.930484	-0.510661	-0.378196
C36	C	1.430484	-0.010661	0.121804
C37	C	0.843234	-0.510679	-0.378205
C38	C	1.343234	-0.010679	0.121795
C39	C	0.802257	-0.578566	-0.428322
C40	C	1.302257	-0.078566	0.071678
C41	C	0.720277	-0.578568	-0.428334
C42	C	1.220277	-0.078568	0.071666
C43	C	0.679274	-0.510688	-0.378226
C44	C	1.179274	-0.010688	0.121774
C45	C	0.720256	-0.442793	-0.328107
C46	C	1.220256	0.057207	0.171893
C47	C	0.802235	-0.442786	-0.328099
C48	C	1.302235	0.057214	0.171901
C49	C	0.549386	-0.442814	-0.328126
C50	C	1.049386	0.057186	0.171874
C51	C	0.467402	-0.442822	-0.328133
C52	C	0.967402	0.057178	0.171867
C53	C	0.467428	-0.578596	-0.428361
C54	C	0.967428	-0.078596	0.071639
C55	C	0.549407	-0.578589	-0.428353
C56	C	1.049407	-0.078589	0.071647
C57	C	0.590383	-0.510695	-0.378233
C58	C	1.090383	-0.010695	0.121767
C59	C	1.134392	-0.786110	-0.378199
C60	C	1.634392	-0.286110	0.121801
C61	C	1.134447	-0.903940	-0.378217
C62	C	1.634447	-0.403940	0.121783
C63	C	1.194997	-1.071487	-0.317443
C64	C	1.694997	-0.571487	0.182557
C65	C	1.195195	-0.948927	-0.317592
C66	C	1.695195	-0.448927	0.182408
C67	C	1.156874	-0.948326	-0.460961
C68	C	1.656874	-0.448326	0.039039
C69	C	1.157354	-1.070924	-0.460639
C70	C	1.657354	-0.570924	0.039361
C71	C	1.051446	-1.071267	-0.357063
C72	C	1.551446	-0.571267	0.142937
C73	C	1.051844	-0.948663	-0.355208
C74	C	1.551844	-0.448663	0.144792
C75	C	1.339176	-0.510701	-0.378240
C76	C	1.839176	-0.010701	0.121760
C77	C	1.426425	-0.510709	-0.378249
C78	C	1.926425	-0.010709	0.121751
C79	C	1.134465	-0.510609	-0.582962
C80	C	1.634465	-0.010609	-0.082962
C81	C	1.134479	-0.510578	-0.670212
C82	C	1.634479	-0.010578	-0.170212
C83	C	1.134492	-0.234175	-0.378253
C84	C	1.634492	0.265825	0.121747
C85	C	1.134518	-0.116345	-0.378269
C86	C	1.634518	0.383655	0.121731
C87	C	1.184787	-0.442636	-1.046042
C88	C	1.684787	0.057364	-0.546042
C89	C	1.184771	-0.442674	-0.964061
C90	C	1.684771	0.057326	-0.464061
C91	C	1.134544	-0.510478	-0.923061
C92	C	1.634544	-0.010478	-0.423061
C93	C	1.084335	-0.578256	-0.964045
C94	C	1.584335	-0.078256	-0.464045
C95	C	1.084356	-0.578224	-1.046024
C96	C	1.584356	-0.078224	-0.546024
C97	C	1.084295	-0.578318	-0.793175
C98	C	1.584295	-0.078318	-0.293175
C99	C	1.084273	-0.578349	-0.711190
C100	C	1.584273	-0.078349	-0.211190
C101	C	1.184710	-0.442767	-0.711212
C102	C	1.684710	0.057233	-0.211212
C103	C	1.184731	-0.442735	-0.793191
C104	C	1.684731	0.057265	-0.293191
C105	C	1.134521	-0.510513	-0.834170
C106	C	1.634521	-0.010513	-0.334170
C107	C	1.134443	-0.510676	-0.174270
C108	C	1.634443	-0.010676	0.325730
C109	C	1.134581	-0.510408	-0.087020
C110	C	1.634581	-0.010408	0.412980
H111	H	1.181164	-0.918921	-0.256239
H112	H	1.681164	-0.418921	0.243761
H113	H	1.181142	-1.101037	-0.255910
H114	H	1.681142	-0.601037	0.244090
H115	H	1.031051	-1.102273	-0.297778
H116	H	1.531051	-0.602273	0.202222
Br117	Br	0.664669	-0.670702	-0.496355
Br118	Br	1.164669	-0.170702	0.003645
Br119	Br	0.605054	-0.670723	-0.496351
Br120	Br	1.105054	-0.170723	0.003649
Br121	Br	0.604997	-0.350670	-0.260107
Br122	Br	1.104997	0.149330	0.239893
Br123	Br	0.411755	-0.350706	-0.260122
Br124	Br	0.911755	0.149294	0.239878
H125	H	1.115233	-1.100594	-0.507520
H126	H	1.615233	-0.600594	-0.007520
Br127	Br	1.297002	-1.122701	-0.340555
Br128	Br	1.797002	-0.622701	0.159445
H129	H	0.686865	-0.387519	-0.287311
H130	H	1.186865	0.112481	0.212689
H131	H	0.835597	-0.387500	-0.287293
H132	H	1.335597	0.112500	0.212707
H133	H	1.225683	-0.387416	-1.079419
H134	H	1.725683	0.112584	-0.579419
Br135	Br	0.411819	-0.670723	-0.496392
Br136	Br	0.911819	-0.170723	0.003608
Br137	Br	1.252875	-0.350814	-0.655600
Br138	Br	1.752875	0.149186	-0.155600
H139	H	1.114164	-0.919183	-0.507495
H140	H	1.614164	-0.419183	-0.007495
Br141	Br	1.297746	-0.899902	-0.340973
Br142	Br	1.797746	-0.399902	0.159027
H143	H	1.043356	-0.633537	-0.677810
H144	H	1.543356	-0.133537	-0.177810
H145	H	1.218075	-1.099437	-0.478601
H146	H	1.718075	-0.599437	0.021399
Br147	Br	0.857896	-0.670702	-0.496324
Br148	Br	1.357896	-0.170702	0.003676
H149	H	1.216909	-0.917539	-0.479223
H150	H	1.716909	-0.417539	0.020777
H151	H	1.034934	-0.919663	-0.294315
H152	H	1.534934	-0.419663	0.205685
Br153	Br	1.252914	-0.350697	-0.908450
Br154	Br	1.752914	0.149303	-0.408450
H155	H	1.004352	-0.918050	-0.396262
H156	H	1.504352	-0.418050	0.103738
H157	H	1.225627	-0.387518	-0.826572
H158	H	1.725627	0.112482	-0.326572
H159	H	1.006384	-1.100277	-0.401365
H160	H	1.506384	-0.600277	0.098635
Br161	Br	1.016153	-0.670304	-0.848788
Br162	Br	1.516153	-0.170304	-0.348788
Br163	Br	1.016172	-0.670282	-0.908403
Br164	Br	1.516172	-0.170282	-0.408403
H165	H	1.043473	-0.633411	-1.079388
H166	H	1.543473	-0.133411	-0.579388
