data_functionalizedCrystal
_audit_creation_method	'MofGen! by Chris Wilmer'
_symmetry_space_group_name_H-M	'P1'
_symmetry_Int_Tables_number	1
_symmetry_cell_setting	triclinic
loop_
_symmetry_equiv_pos_as_xyz
  x,y,z
_cell_length_a	8.965430
_cell_length_b	11.792241
_cell_length_c	11.792254
_cell_angle_alpha	95.803993
_cell_angle_beta	89.999752
_cell_angle_gamma	90.000368
loop_
_atom_site_label
_atom_site_type_symbol
_atom_site_fract_x
_atom_site_fract_y
_atom_site_fract_z
O1	O	0.123895	-1.506916	0.155558
O2	O	0.623895	-1.006916	0.655558
O3	O	0.123930	-1.176575	0.171591
O4	O	0.623930	-0.676575	0.671591
O5	O	0.123901	-1.349754	-0.001595
O6	O	0.623901	-0.849754	0.498405
O7	O	0.123924	-1.333736	0.328744
O8	O	0.623924	-0.833736	0.828744
O9	O	-0.124178	-1.349740	-0.001583
O10	O	0.375822	-0.849740	0.498417
O11	O	-0.124149	-1.176561	0.171603
O12	O	0.375851	-0.676561	0.671603
O13	O	-0.124184	-1.506901	0.155570
O14	O	0.375816	-1.006901	0.655570
Cu15	Cu	-0.146818	-1.341729	0.163587
Cu16	Cu	0.353182	-0.841729	0.663587
Cu17	Cu	0.146564	-1.341747	0.163574
Cu18	Cu	0.646564	-0.841747	0.663574
O19	O	-0.124155	-1.333722	0.328756
O20	O	0.375845	-0.833722	0.828756
C21	C	-0.000105	-1.134277	0.170590
C22	C	0.499895	-0.634277	0.670590
C23	C	-0.000092	-1.008263	0.167576
C24	C	0.499908	-0.508263	0.667576
N25	N	-0.353167	-1.341726	0.163596
N26	N	0.146833	-0.841726	0.663596
C27	C	-0.000138	-1.348738	-0.043880
C28	C	0.499862	-0.848738	0.456120
C29	C	-0.000136	-1.345718	-0.169893
C30	C	0.499864	-0.845718	0.330107
C31	C	-0.450459	-1.261611	0.243663
C32	C	0.049541	-0.761611	0.743663
C33	C	-0.549882	-1.364313	0.266318
C34	C	-0.049882	-0.864313	0.766318
C35	C	-0.549871	-1.239067	0.140951
C36	C	-0.049871	-0.739067	0.640951
C37	C	-0.450401	-1.444479	0.186303
C38	C	0.049599	-0.944479	0.686303
C39	C	-0.450381	-1.319166	0.060891
C40	C	0.049619	-0.819166	0.560891
C41	C	-0.549759	-1.421941	0.083503
C42	C	-0.049759	-0.921941	0.583503
N43	N	0.352913	-1.341760	0.163556
N44	N	0.852913	-0.841760	0.663556
C45	C	-0.000145	-1.549199	0.156571
C46	C	0.499855	-1.049199	0.656571
C47	C	-0.000149	-1.675213	0.159586
C48	C	0.499851	-1.175213	0.659586
C49	C	-0.000135	-0.777551	0.162033
C50	C	0.499865	-0.277551	0.662033
C51	C	-0.000111	-0.905936	0.165112
C52	C	0.499889	-0.405936	0.665112
C53	C	-0.000130	-1.343264	-0.272229
C54	C	0.499870	-0.843264	0.227771
C55	C	-0.000116	-1.340196	-0.400616
C56	C	0.499884	-0.840196	0.099384
C57	C	-0.000113	-1.334738	0.371041
C58	C	0.499887	-0.834738	0.871041
C59	C	-0.000105	-1.337758	0.497054
C60	C	0.499895	-0.837758	0.997054
H61	H	-0.406860	-1.193924	0.311434
H62	H	0.093140	-0.693924	0.811434
H63	H	-0.406642	-1.300029	-0.025919
H64	H	0.093358	-0.800029	0.474081
H65	H	-0.593569	-1.152236	0.121816
H66	H	-0.093569	-0.652236	0.621816
H67	H	-0.593587	-1.383418	0.353155
H68	H	-0.093587	-0.883418	0.853155
O69	O	-0.607162	-1.511798	-0.006212
O70	O	-0.107162	-1.011798	0.493788
H71	H	-0.675287	-1.470638	-0.069131
H72	H	-0.175287	-0.970638	0.430869
H73	H	-0.406891	-1.531330	0.205543
H74	H	0.093109	-1.031330	0.705543
