data_functionalizedCrystal
_audit_creation_method	'MofGen! by Chris Wilmer'
_symmetry_space_group_name_H-M	'P1'
_symmetry_Int_Tables_number	1
_symmetry_cell_setting	triclinic
loop_
_symmetry_equiv_pos_as_xyz
  x,y,z
_cell_length_a	7.681481
_cell_length_b	8.559649
_cell_length_c	8.559649
_cell_angle_alpha	110.221336
_cell_angle_beta	85.069100
_cell_angle_gamma	85.086760
loop_
_atom_site_label
_atom_site_type_symbol
_atom_site_fract_x
_atom_site_fract_y
_atom_site_fract_z
O1	O	-0.146402	-2.109661	-0.037797
O2	O	-0.146408	-1.634175	0.045985
O3	O	-0.146402	-1.913809	-0.233649
O4	O	-0.146407	-1.830027	0.241837
O5	O	0.146456	-1.948236	-0.268136
O6	O	0.146450	-1.668602	0.011497
O7	O	0.146457	-2.144088	-0.072285
Zn8	Zn	0.192951	-1.911811	-0.035869
Zn9	Zn	-0.192902	-1.866452	0.009570
O10	O	0.146451	-1.864454	0.207349
C11	C	0.000020	-1.591080	0.035090
C12	C	0.000017	-1.411380	0.053990
N13	N	0.456286	-1.942779	-0.066883
N14	N	-0.456237	-1.835499	0.040569
C15	C	0.000024	-1.937371	-0.311201
C16	C	0.000014	-1.956269	-0.490899
C17	C	0.000025	-2.187183	-0.061390
C18	C	0.000016	-2.366881	-0.080288
C19	C	0.000021	-1.840891	0.284902
C20	C	0.000019	-1.821992	0.464601
H21	H	0.531494	-2.052307	-0.176556
H22	H	0.000009	-1.466259	-0.209706
C23	C	-0.000353	-1.278900	0.226660
C24	C	-0.151043	-1.279507	0.330726
C25	C	-0.151457	-1.157476	0.489790
H26	H	0.101654	-1.302959	0.273685
H27	H	-0.000453	-1.171635	0.216941
H28	H	-0.150927	-1.386748	0.340450
H29	H	-0.253075	-1.255428	0.283754
H30	H	-0.151557	-1.050211	0.480072
H31	H	-0.049443	-1.181546	0.536799
H32	H	-0.253706	-1.157861	0.560414
H33	H	0.000030	-2.085699	-0.590289
H34	H	0.000023	-1.692573	-0.436021
H35	H	0.468564	-1.725988	0.150245
