data_functionalizedCrystal
_audit_creation_method	'MofGen! by Chris Wilmer'
_symmetry_space_group_name_H-M	'P1'
_symmetry_Int_Tables_number	1
_symmetry_cell_setting	triclinic
loop_
_symmetry_equiv_pos_as_xyz
  x,y,z
_cell_length_a	29.839134
_cell_length_b	29.839131
_cell_length_c	12.827885
_cell_angle_alpha	90.036821
_cell_angle_beta	90.033318
_cell_angle_gamma	90.034165
loop_
_atom_site_label
_atom_site_type_symbol
_atom_site_fract_x
_atom_site_fract_y
_atom_site_fract_z
Zn1	Zn	0.686760	-0.178918	0.591189
Zn2	Zn	0.686680	-0.254056	0.416428
Zn3	Zn	0.611631	-0.178931	0.416420
Zn4	Zn	0.611590	-0.254013	0.591085
O5	O	0.649165	-0.216479	0.503780
O6	O	0.749616	-0.188898	0.568053
O7	O	0.676708	-0.244113	0.270191
O8	O	0.621647	-0.116062	0.439644
O9	O	0.749558	-0.244101	0.439657
O10	O	0.676844	-0.116053	0.568046
O11	O	0.621570	-0.188919	0.270185
O12	O	0.548758	-0.188878	0.439543
O13	O	0.621578	-0.244028	0.737335
O14	O	0.548728	-0.244040	0.567868
O15	O	0.676805	-0.188857	0.737411
O16	O	0.676669	-0.316917	0.439556
O17	O	0.621501	-0.316885	0.567876
C18	C	0.532442	-0.216456	0.503694
C19	C	0.482508	-0.216457	0.503682
C20	C	0.125924	-0.187714	0.437098
C21	C	0.313597	-0.187701	0.437034
O22	O	0.337864	-0.163225	0.380325
N23	N	0.337063	-0.216464	0.503734
C24	C	0.313608	-0.245230	0.570460
O25	O	0.337873	-0.269691	0.627199
C26	C	0.125936	-0.245240	0.570528
C27	C	0.102472	-0.216479	0.503816
C28	C	0.102460	-0.158954	0.370392
C29	C	0.055545	-0.158960	0.370404
C30	C	0.032093	-0.187724	0.437123
C31	C	0.055557	-0.216484	0.503828
C32	C	0.102481	-0.274004	0.637258
C33	C	0.055560	-0.274003	0.637271
C34	C	0.032097	-0.245241	0.570559
C35	C	-0.014811	-0.245254	0.570559
N36	N	-0.038277	-0.216491	0.503859
C37	C	-0.014825	-0.187726	0.437141
C38	C	0.412138	-0.245223	0.570418
C39	C	0.459056	-0.245222	0.570400
C40	C	0.459042	-0.187692	0.436975
C41	C	0.412123	-0.187696	0.436989
C42	C	0.388672	-0.216461	0.503718
C43	C	-0.113351	-0.187739	0.437171
C44	C	-0.160270	-0.187749	0.437187
C45	C	-0.160252	-0.245276	0.570615
C46	C	-0.113337	-0.245269	0.570596
C47	C	-0.089887	-0.216497	0.503871
O48	O	-0.039107	-0.269714	0.627247
O49	O	-0.039098	-0.163262	0.380427
C50	C	0.172839	-0.187709	0.437085
C51	C	0.196303	-0.216468	0.503791
C52	C	0.172851	-0.245233	0.570509
C53	C	0.243221	-0.216466	0.503773
C54	C	0.266673	-0.187702	0.437055
C55	C	0.243207	-0.158939	0.370354
C56	C	0.196291	-0.158944	0.370367
C57	C	0.196317	-0.273996	0.637209
C58	C	0.243233	-0.273989	0.637190
C59	C	0.266684	-0.245224	0.570472
C60	C	0.649084	-0.333202	0.503729
C61	C	0.649090	-0.383136	0.503741
C62	C	0.677943	-0.692784	0.437062
C63	C	0.677999	-0.880457	0.437103
O64	O	0.702466	-0.904725	0.380369
N65	N	0.649258	-0.903921	0.503859
C66	C	0.620504	-0.880465	0.570615
O67	O	0.596063	-0.904730	0.627405
C68	C	0.620451	-0.692793	0.570579
C69	C	0.649190	-0.669331	0.503811
C70	C	0.706681	-0.669321	0.370300
C71	C	0.706665	-0.622406	0.370286
C72	C	0.677912	-0.598953	0.437035
C73	C	0.649174	-0.622415	0.503797
C74	C	0.591699	-0.669338	0.637340
C75	C	0.591689	-0.622417	0.637327
C76	C	0.620429	-0.598954	0.570558
C77	C	0.620405	-0.552047	0.570533
N78	N	0.649146	-0.528582	0.503776
C79	C	0.677899	-0.552035	0.437027
C80	C	0.620533	-0.978996	0.570628
C81	C	0.620545	-1.025914	0.570636
C82	C	0.678041	-1.025902	0.437124
C83	C	0.678026	-0.978983	0.437112
C84	C	0.649274	-0.955531	0.503871
C85	C	0.677863	-0.453509	0.437003
C86	C	0.677843	-0.406589	0.436992
C87	C	0.620350	-0.406605	0.570508
C88	C	0.620367	-0.453521	0.570515
C89	C	0.649128	-0.476971	0.503759
O90	O	0.595954	-0.527750	0.627244
O91	O	0.702343	-0.527762	0.380263
C92	C	0.677959	-0.739699	0.437075
C93	C	0.649222	-0.763161	0.503838
C94	C	0.620469	-0.739708	0.570587
C95	C	0.649235	-0.810079	0.503846
C96	C	0.677988	-0.833532	0.437097
C97	C	0.706728	-0.810067	0.370340
C98	C	0.706712	-0.763152	0.370327
C99	C	0.591728	-0.763173	0.637343
C100	C	0.591746	-0.810089	0.637351
C101	C	0.620499	-0.833542	0.570602
C102	C	0.766343	-0.216503	0.503868
C103	C	0.816278	-0.216513	0.503905
C104	C	0.649196	-0.216436	0.776351
C105	C	0.649209	-0.216418	0.892504
C106	C	0.649259	-0.099301	0.503855
C107	C	0.649299	-0.049367	0.503887
C108	C	0.649160	-0.216490	0.232270
C109	C	0.649234	-0.216382	0.116118
C110	C	0.676540	-0.189112	0.944327
C111	C	0.676554	-0.189092	1.064377
H112	H	0.121577	-0.297425	0.691582
H113	H	0.625836	-0.239762	1.071559
Br114	Br	0.581534	-1.057750	0.661239
Br115	Br	0.715511	-0.150156	0.870152
H116	H	0.177227	-0.297420	0.691541
H117	H	-0.179372	-0.164327	0.382859
H118	H	0.701246	-0.387488	0.382618
Br119	Br	0.275070	-0.313029	0.727730
H120	H	0.699954	-0.165716	1.108943
H121	H	0.625817	-0.239778	0.937014
Br122	Br	0.552738	-0.841925	0.727971
Br123	Br	-0.081534	-0.148692	0.346615
H124	H	0.730115	-0.744052	0.315958
H125	H	0.597118	-0.959904	0.624993
H126	H	0.568294	-0.688433	0.691705
Br127	Br	0.023709	-0.119919	0.279872
H128	H	0.701428	-0.959883	0.382744
H129	H	0.393049	-0.268648	0.624759
H130	H	0.568276	-0.603324	0.691694
H131	H	0.701453	-1.045005	0.382775
H132	H	0.568314	-0.744082	0.691700
H133	H	0.730068	-0.603305	0.315921
H134	H	0.121550	-0.135528	0.316062
Br135	Br	0.380285	-0.148662	0.346448
Br136	Br	0.023737	-0.313040	0.727842
Br137	Br	0.490879	-0.148655	0.346428
Br138	Br	0.581331	-0.374767	0.661095
Br139	Br	0.490894	-0.284265	0.660923
Br140	Br	-0.081492	-0.284309	0.661120
H141	H	-0.179355	-0.268697	0.624931
Br142	Br	0.275044	-0.119903	0.279804
Br143	Br	0.716896	-0.485328	0.346405
Br144	Br	0.164455	-0.119908	0.279825
H145	H	0.730097	-0.688411	0.315944
H146	H	0.730139	-0.829171	0.315988
Br147	Br	0.581353	-0.485364	0.661104
