data_functionalizedCrystal
_audit_creation_method	'MofGen! by Chris Wilmer'
_symmetry_space_group_name_H-M	'P1'
_symmetry_Int_Tables_number	1
_symmetry_cell_setting	triclinic
loop_
_symmetry_equiv_pos_as_xyz
  x,y,z
_cell_length_a	14.446369
_cell_length_b	14.395555
_cell_length_c	14.446369
_cell_angle_alpha	60.001429
_cell_angle_beta	90.002026
_cell_angle_gamma	60.000235
loop_
_atom_site_label
_atom_site_type_symbol
_atom_site_fract_x
_atom_site_fract_y
_atom_site_fract_z
Zr1	Zr	0.891801	1.016736	-0.121456
O2	O	0.743998	1.210532	-0.269266
O3	O	0.937107	0.822940	-0.076142
O4	O	0.937113	1.016726	-0.269256
O5	O	0.743992	1.016755	0.076176
O6	O	1.089450	1.016717	-0.269250
O7	O	0.743992	1.016747	-0.076152
O8	O	1.089439	0.670071	0.076194
O9	O	0.744003	1.363401	-0.269268
O10	O	1.070122	0.902645	-0.056815
O11	O	0.956434	0.902658	0.056862
O12	O	0.956441	1.130815	-0.170504
O13	O	0.842754	1.130827	-0.056827
Zr14	Zr	1.134761	1.016736	0.121500
Zr15	Zr	1.134761	1.016723	-0.121447
Zr16	Zr	0.891801	1.016750	0.121491
Zr17	Zr	0.891809	1.260545	-0.121460
Zr18	Zr	1.134754	0.772927	0.121504
O19	O	1.089455	1.210532	0.076186
O20	O	1.089456	1.210513	-0.269253
O21	O	0.743997	1.210551	0.076174
O22	O	1.282565	0.822940	0.269309
O23	O	1.282565	0.822921	-0.076130
O24	O	0.937107	0.822959	0.269297
O25	O	1.282571	1.016717	-0.076133
O26	O	1.089449	1.016747	0.269299
O27	O	0.937112	1.016755	0.269294
O28	O	1.282571	1.016726	0.076196
O29	O	0.937123	1.363391	-0.269261
O30	O	1.089439	0.670081	0.269305
O31	O	1.282560	0.670071	0.269312
O32	O	1.282560	0.670060	0.076201
O33	O	0.744002	1.363412	-0.076158
O34	O	0.937123	1.363401	-0.076150
O35	O	1.070121	0.902658	0.170548
O36	O	1.183809	0.902645	0.056871
O37	O	1.070128	1.130815	-0.056818
O38	O	0.956441	1.130827	0.056859
C39	C	0.709375	1.016753	0.000011
C40	C	0.606232	1.016759	0.000007
C41	C	1.013272	0.711768	0.000027
C42	C	1.013269	0.608265	0.000028
C43	C	0.387868	1.160650	-0.071335
C44	C	0.495100	1.160747	-0.071736
C45	C	0.602907	0.945274	-0.052290
C46	C	0.495138	0.946188	-0.052813
C47	C	0.496501	0.943234	0.123737
C48	C	0.602470	0.945946	0.123542
C49	C	0.951285	0.547679	0.062013
C50	C	0.906361	0.561932	-0.044885
C51	C	1.058166	0.409616	0.106894
C52	C	0.968283	0.623944	-0.106934
C53	C	1.120146	0.471564	0.044923
C54	C	1.075249	0.485864	-0.062039
C55	C	1.317187	1.016719	0.000033
C56	C	1.420330	1.016714	0.000037
C57	C	1.013282	1.016719	-0.303867
C58	C	1.013282	1.016714	-0.407005
C59	C	1.013290	1.321704	0.000017
C60	C	1.013293	1.425208	0.000016
C61	C	1.085337	0.872822	-0.481982
C62	C	1.085025	0.872725	-0.374654
C63	C	0.889754	1.088198	-0.481570
C64	C	0.890149	1.087284	-0.588429
C65	C	1.063756	1.090238	-0.589996
C66	C	1.066256	1.087526	-0.481324
C67	C	1.013281	1.016753	0.303911
C68	C	1.013281	1.016759	0.407049
C69	C	1.317178	0.711751	0.000038
C70	C	1.420318	0.608242	0.000043
C71	C	1.013272	0.711785	0.303916
C72	C	1.013268	0.608287	0.407055
C73	C	1.317178	0.711768	0.303927
C74	C	1.420317	0.608265	0.407070
C75	C	0.709385	1.321704	-0.303883
C76	C	0.606245	1.425208	-0.407026
C77	C	0.709384	1.321721	0.000006
C78	C	0.606244	1.425230	0.000001
C79	C	1.013291	1.321688	-0.303872
C80	C	1.013294	1.425185	-0.407011
C81	C	1.638682	0.461408	0.071377
C82	C	1.531454	0.568711	0.071783
C83	C	1.423642	0.480942	0.052341
C84	C	1.531408	0.373182	0.052860
C85	C	1.530040	0.548765	-0.123693
C86	C	1.424075	0.657623	-0.123494
C87	C	0.941215	0.461464	0.482037
C88	C	0.941523	0.568759	0.374707
C89	C	1.136797	0.480983	0.481615
C90	C	1.136407	0.373232	0.588475
C91	C	0.962805	0.548827	0.590052
C92	C	0.960301	0.657677	0.481379
C93	C	1.495299	0.461417	0.625432
C94	C	1.387968	0.568736	0.518200
C95	C	1.494857	0.480967	0.410385
C96	C	1.601718	0.373193	0.518154
C97	C	1.603338	0.548750	0.516813
C98	C	1.494664	0.657623	0.410844
H99	H	0.493341	1.217118	-0.036930
H100	H	0.898796	0.574911	0.114354
H101	H	0.605043	0.994918	-0.142453
Br102	Br	0.822798	1.002626	-0.587988
Br103	Br	1.535542	0.506064	0.223876
Br104	Br	1.270748	0.409613	0.108273
Br105	Br	0.904841	0.776547	-0.257647
Br106	Br	0.999011	0.311491	0.480312
Br107	Br	1.203749	0.221432	0.588027
Br108	Br	1.121436	0.256932	0.257532
H109	H	1.175987	0.816640	-0.320376
Br110	Br	1.601245	0.221412	0.602052
H111	H	1.344917	0.689862	-0.181143
H112	H	0.681626	0.840898	0.181194
Br113	Br	1.298284	0.506113	0.522266
Br114	Br	1.537214	0.711354	0.278918
H115	H	0.601954	0.998067	0.162611
H116	H	1.176535	0.816327	-0.479639
Br117	Br	1.408990	0.808966	0.411728
Br118	Br	1.027527	0.779128	-0.480254
H119	H	1.007334	0.689914	0.506903
Br120	Br	1.204624	0.416477	0.395609
H121	H	1.443235	0.442294	0.408238
Br122	Br	0.297935	1.254821	-0.013169
H123	H	1.502591	0.523887	-0.177119
H124	H	0.332885	1.216862	-0.162035
H125	H	1.050018	0.816282	-0.320868
H126	H	0.492655	1.217169	-0.162986
H127	H	0.850560	0.658425	0.320434
H128	H	0.833539	1.192888	-0.667012
H129	H	0.521788	0.840584	-0.004190
H130	H	1.127665	0.458915	-0.114537
Br131	Br	1.534092	0.718204	0.013226
Br132	Br	0.413123	1.019984	0.196563
H133	H	1.015042	0.523951	0.668269
H134	H	0.444795	0.996981	-0.143840
Br135	Br	1.732697	0.323065	0.473745
Br136	Br	1.615325	0.221386	0.204575
H137	H	1.019230	1.192572	-0.506843
H138	H	0.833734	1.194068	-0.508804
Br139	Br	1.297524	0.718178	0.520901
Br140	Br	0.755731	0.623916	-0.108198
H141	H	1.681557	0.523862	0.489371
Br142	Br	0.821919	1.005461	-0.395570
H143	H	1.011504	1.196282	-0.668198
H144	H	1.153346	1.044174	-0.594108
H145	H	0.523937	0.837203	0.177167
H146	H	0.869296	0.748491	0.429955
Br147	Br	1.217942	1.000655	-0.395616
Br148	Br	0.733348	0.768813	0.030180
H149	H	1.692640	0.498775	0.036476
H150	H	1.693666	0.371428	0.162076
H151	H	0.850018	0.498839	0.479698
Br152	Br	0.999871	0.506098	0.285050
H153	H	1.504754	0.343122	0.004233
H154	H	1.607469	0.588446	0.566839
Br155	Br	1.230767	0.323113	0.719453
H156	H	1.345375	0.503267	0.002862
H157	H	1.192819	0.503306	0.508847
H158	H	1.421508	0.442252	0.142505
H159	H	1.580059	0.588471	-0.167381
Br160	Br	1.491421	0.523681	0.715385
Br161	Br	1.424933	0.808980	-0.188621
Br162	Br	0.813484	0.615021	0.596912
H163	H	1.522096	0.503289	0.332126
H164	H	1.494252	0.371446	0.680402
