data_functionalizedCrystal
_audit_creation_method	'MofGen! by Chris Wilmer'
_symmetry_space_group_name_H-M	'P1'
_symmetry_Int_Tables_number	1
_symmetry_cell_setting	triclinic
loop_
_symmetry_equiv_pos_as_xyz
  x,y,z
_cell_length_a	15.297475
_cell_length_b	16.120444
_cell_length_c	15.298159
_cell_angle_alpha	77.996193
_cell_angle_beta	88.366721
_cell_angle_gamma	83.688625
loop_
_atom_site_label
_atom_site_type_symbol
_atom_site_fract_x
_atom_site_fract_y
_atom_site_fract_z
Zn1	Zn	1.212731	-0.647112	0.755037
Zn2	Zn	1.230540	-0.766766	0.613823
Zn3	Zn	1.094574	-0.600371	0.581229
Zn4	Zn	1.059247	-0.758627	0.734589
O5	O	1.149273	-0.693219	0.671170
O6	O	1.336229	-0.685952	0.758504
O7	O	1.234742	-0.728539	0.486219
O8	O	1.117580	-0.490265	0.599202
O9	O	1.349313	-0.773862	0.654754
O10	O	1.204389	-0.524606	0.726898
O11	O	1.134849	-0.606289	0.462273
O12	O	0.968753	-0.598396	0.579374
O13	O	1.057369	-0.759989	0.860581
O14	O	0.942798	-0.714666	0.692046
O15	O	1.170133	-0.678060	0.875605
O16	O	1.200486	-0.881993	0.634926
O17	O	1.074638	-0.876013	0.723652
C18	C	0.924366	-0.650577	0.629955
C19	C	0.828145	-0.632357	0.612345
C20	C	0.502998	-0.823445	0.797034
C21	C	0.593403	-0.840570	0.813578
C22	C	0.652092	-0.788518	0.763271
C23	C	0.620369	-0.719339	0.696418
C24	C	0.529956	-0.702217	0.679868
C25	C	0.679050	-0.667289	0.646105
C26	C	0.647327	-0.598111	0.579252
C27	C	0.556922	-0.580991	0.562705
C28	C	0.498232	-0.633043	0.613012
C29	C	0.769463	-0.684411	0.662655
C30	C	0.796421	-0.563183	0.545488
C31	C	0.706016	-0.546059	0.528945
C32	C	1.135681	-0.909167	0.680630
C33	C	1.129940	-1.001569	0.684722
C34	C	1.179232	-1.214871	0.650174
C35	C	1.119473	-1.170748	0.692204
C36	C	1.125299	-1.076608	0.688039
C37	C	1.173407	-1.309019	0.654337
C38	C	1.375058	-0.736029	0.712546
C39	C	1.471275	-0.754272	0.730178
C40	C	1.107823	-0.723330	0.900952
C41	C	1.090160	-0.736162	0.998872
C42	C	1.162938	-0.476435	0.661695
C43	C	1.168762	-0.384055	0.657658
C44	C	1.275218	-0.601714	1.306181
C45	C	1.291819	-0.589661	1.214181
C46	C	1.241405	-0.626285	1.160350
C47	C	1.174389	-0.674965	1.198526
C48	C	1.157790	-0.687025	1.290535
C49	C	1.123978	-0.711595	1.144704
C50	C	1.056961	-0.760275	1.182880
C51	C	1.040366	-0.772333	1.274881
C52	C	1.090779	-0.735709	1.328713
C53	C	1.140576	-0.699535	1.052695
C54	C	1.023149	-0.784846	1.037049
C55	C	1.006548	-0.796899	1.129049
C56	C	1.190551	-0.663239	1.442280
C57	C	1.208206	-0.650398	1.344358
H58	H	0.424616	-0.619103	0.599548
H59	H	1.063937	-1.203675	0.731314
C60	C	0.707602	-0.480529	0.372955
C61	C	0.671143	-0.470022	0.455455
H62	H	0.686076	-0.433584	0.327589
H63	H	0.691614	-0.531840	0.359705
H64	H	0.769844	-0.483274	0.375620
H65	H	0.608901	-0.467283	0.452793
H66	H	0.687126	-0.418696	0.468709
C67	C	1.084080	-0.836224	1.468011
C68	C	1.072532	-0.748959	1.429844
H69	H	1.072812	-0.844401	1.530444
H70	H	1.142786	-0.858451	1.458065
H71	H	1.044462	-0.865000	1.441415
H72	H	1.112155	-0.720184	1.456436
H73	H	1.013818	-0.726722	1.439797
C74	C	1.250037	-1.176430	0.507607
C75	C	1.254194	-1.170425	0.597368
H76	H	1.296316	-1.148987	0.475008
H77	H	1.195077	-1.149595	0.483414
H78	H	1.255915	-1.234784	0.503525
H79	H	1.248309	-1.112071	0.601451
H80	H	1.309168	-1.197257	0.621567
H81	H	0.795283	-0.740737	0.717088
C82	C	0.904544	-0.775381	1.357538
C83	C	0.966717	-0.825857	1.316860
H84	H	0.859084	-0.808430	1.383460
H85	H	0.880178	-0.728199	1.314000
H86	H	0.932207	-0.755292	1.402754
H87	H	0.939056	-0.845940	1.271639
H88	H	0.991085	-0.873054	1.360402
H89	H	1.195141	-0.659899	1.021621
C90	C	1.329109	-0.562562	1.037078
C91	C	1.259645	-0.613028	1.059220
H92	H	1.340364	-0.554371	0.974641
H93	H	1.380302	-0.590262	1.068748
H94	H	1.313763	-0.508822	1.052816
H95	H	1.274994	-0.666771	1.043488
H96	H	1.208441	-0.585330	1.027539
H97	H	0.619225	-0.896897	0.868008
C98	C	1.406216	-0.506545	1.238894
C99	C	1.365475	-0.536149	1.172219
H100	H	1.451686	-0.473502	1.212984
H101	H	1.430570	-0.553738	1.282426
H102	H	1.364021	-0.472305	1.266478
H103	H	1.407668	-0.570394	1.144639
H104	H	1.341121	-0.488949	1.128671
C105	C	0.352436	-0.851017	0.823677
C106	C	0.438487	-0.880655	0.852324
H107	H	0.312610	-0.886337	0.857818
H108	H	0.347539	-0.852528	0.762287
H109	H	0.338796	-0.794086	0.831514
H110	H	0.452129	-0.937584	0.844481
H111	H	0.443387	-0.879153	0.913730
H112	H	0.531098	-0.524669	0.508260
C113	C	0.968810	-0.919977	1.235196
C114	C	0.932890	-0.850415	1.171018
H115	H	0.923337	-0.953017	1.261101
H116	H	0.996453	-0.899885	1.280412
H117	H	1.010994	-0.954212	1.207594
H118	H	0.890711	-0.816176	1.198622
H119	H	0.905234	-0.870507	1.125795
C120	C	1.275628	-0.505771	1.406979
C121	C	1.330629	-0.561465	1.365353
H122	H	1.309843	-0.480919	1.443506
H123	H	1.233351	-0.536493	1.442876
H124	H	1.246400	-0.462120	1.362781
H125	H	1.359852	-0.605120	1.409551
H126	H	1.372921	-0.530741	1.329454
C127	C	0.766918	-0.879043	0.850765
C128	C	0.751467	-0.807334	0.781460
H129	H	0.828269	-0.890655	0.862000
H130	H	0.745866	-0.926767	0.834034
H131	H	0.737107	-0.868332	0.903268
H132	H	0.781272	-0.818048	0.728956
H133	H	0.772529	-0.759600	0.798188
C134	C	0.946977	-0.535592	0.518835
C135	C	0.860925	-0.505959	0.490188
H136	H	0.986800	-0.500265	0.484699
H137	H	0.960622	-0.592514	0.511000
H138	H	0.951870	-0.534080	0.580234
H139	H	0.856029	-0.507478	0.428790
H140	H	0.847276	-0.449023	0.498015
H141	H	0.982100	-0.814670	0.993219
