data_functionalizedCrystal
_audit_creation_method	'MofGen! by Chris Wilmer'
_symmetry_space_group_name_H-M	'P1'
_symmetry_Int_Tables_number	1
_symmetry_cell_setting	triclinic
loop_
_symmetry_equiv_pos_as_xyz
  x,y,z
_cell_length_a	12.759401
_cell_length_b	12.759394
_cell_length_c	12.759393
_cell_angle_alpha	90.030331
_cell_angle_beta	90.021162
_cell_angle_gamma	90.016374
loop_
_atom_site_label
_atom_site_type_symbol
_atom_site_fract_x
_atom_site_fract_y
_atom_site_fract_z
Zn1	Zn	1.606256	-0.418156	0.594065
Zn2	Zn	1.606150	-0.593875	0.418389
Zn3	Zn	1.430558	-0.418216	0.418396
Zn4	Zn	1.430547	-0.593799	0.594022
O5	O	1.518378	-0.506011	0.506218
O6	O	1.753263	-0.441472	0.570776
O7	O	1.582818	-0.570630	0.271369
O8	O	1.453913	-0.271187	0.441720
O9	O	1.753185	-0.570572	0.441708
O10	O	1.582998	-0.271143	0.570783
O11	O	1.453811	-0.441574	0.271374
O12	O	1.283535	-0.441500	0.441679
O13	O	1.453894	-0.570443	0.741049
O14	O	1.283527	-0.570501	0.570710
O15	O	1.582987	-0.441398	0.741081
O16	O	1.582807	-0.740886	0.441666
O17	O	1.453792	-0.740830	0.570703
C18	C	1.245410	-0.505999	0.506191
C19	C	1.128634	-0.506020	0.506205
C20	C	0.964070	-0.573292	0.573321
C21	C	1.073794	-0.573290	0.573293
C22	C	1.073744	-0.438755	0.439133
C23	C	0.964021	-0.438762	0.439158
C24	C	0.964100	-0.650961	0.650781
C25	C	1.073824	-0.650959	0.650752
C26	C	1.518316	-0.778979	0.506202
C27	C	1.518385	-0.895755	0.506230
C28	C	1.652952	-1.115184	0.372008
C29	C	1.720149	-1.060314	0.304868
C30	C	1.720094	-0.950593	0.304848
C31	C	1.652833	-0.895738	0.371972
C32	C	1.585636	-0.950608	0.439111
C33	C	1.585701	-1.060332	0.439127
C34	C	1.451188	-0.950625	0.573370
C35	C	1.451247	-1.060347	0.573398
C36	C	1.383928	-0.895770	0.640494
C37	C	1.316734	-0.950640	0.707641
C38	C	1.316793	-1.060368	0.707660
C39	C	1.384050	-1.115216	0.640538
C40	C	1.792411	-0.506024	0.506246
C41	C	1.909188	-0.506029	0.506258
C42	C	1.518451	-0.505905	0.780252
C43	C	1.518483	-0.505860	0.897028
C44	C	1.518469	-0.231978	0.506257
C45	C	1.518507	-0.115201	0.506274
C46	C	1.518365	-0.506041	0.233251
C47	C	1.518537	-0.505790	0.116475
C48	C	1.585710	-0.438661	0.951909
C49	C	1.585735	-0.438623	1.061633
C50	C	1.451302	-0.572993	1.061587
C51	C	1.451272	-0.573025	0.951865
C52	C	1.663328	-0.361086	0.951936
C53	C	1.663353	-0.361048	1.061660
H54	H	0.930119	-0.621906	0.728130
H55	H	1.118403	-0.383989	0.384502
N56	N	0.924605	-0.758708	0.621744
H57	H	0.986122	-0.806785	0.608761
H58	H	0.880563	-0.753877	0.556139
N59	N	0.904816	-0.366217	0.366831
H60	H	0.859252	-0.408863	0.318086
H61	H	0.956264	-0.323612	0.324393
H62	H	1.634239	-0.283740	1.095705
H63	H	1.107820	-0.728222	0.621469
N64	N	1.771130	-0.389910	1.101123
H65	H	1.819206	-0.402824	1.039592
H66	H	1.766358	-0.455516	1.145116
H67	H	1.396525	-0.627741	0.907185
H68	H	1.103656	-0.629253	0.732151
N69	N	1.378800	-0.645418	1.120732
H70	H	1.389012	-0.635196	1.198569
H71	H	1.395106	-0.720465	1.101547
N72	N	1.653024	-1.233525	0.372045
H73	H	1.705829	-1.259949	0.319340
H74	H	1.580943	-1.259951	0.352705
N75	N	1.792700	-1.119468	0.232474
H76	H	1.776410	-1.100436	0.157391
H77	H	1.782517	-1.197285	0.242757
H78	H	1.774807	-0.905918	0.250173
N79	N	1.652756	-0.777396	0.371936
H80	H	1.705525	-0.750961	0.319214
H81	H	1.671985	-0.750974	0.444053
N82	N	1.634485	-0.253314	0.912519
H83	H	1.568826	-0.257983	0.868525
H84	H	1.693733	-0.224610	0.868600
N85	N	1.383865	-0.777429	0.640463
H86	H	1.455913	-0.750927	0.659837
H87	H	1.331015	-0.751088	0.693160
N88	N	1.244186	-0.891479	0.780022
H89	H	1.254342	-0.813646	0.769814
H90	H	1.260508	-0.910581	0.855077
N91	N	1.244306	-1.119546	0.780068
H92	H	1.201692	-1.068144	0.822580
H93	H	1.287066	-1.165001	0.828739
N94	N	1.384117	-1.233558	0.640564
H95	H	1.436921	-1.259977	0.587854
H96	H	1.312034	-1.259977	0.621221
H97	H	1.740600	-0.390252	0.917904
