data_functionalizedCrystal
_audit_creation_method	'MofGen! by Chris Wilmer'
_symmetry_space_group_name_H-M	'P1'
_symmetry_Int_Tables_number	1
_symmetry_cell_setting	triclinic
loop_
_symmetry_equiv_pos_as_xyz
  x,y,z
_cell_length_a	14.519709
_cell_length_b	16.992694
_cell_length_c	16.053802
_cell_angle_alpha	92.750953
_cell_angle_beta	92.569364
_cell_angle_gamma	92.825816
loop_
_atom_site_label
_atom_site_type_symbol
_atom_site_fract_x
_atom_site_fract_y
_atom_site_fract_z
O1	O	0.191936	-1.043963	-0.069327
O2	O	0.525269	-0.710630	0.264006
O3	O	0.858603	-0.377297	0.597339
O4	O	0.189789	-0.815676	-0.069352
O5	O	0.523123	-0.482343	0.263981
O6	O	0.856456	-0.149010	0.597315
O7	O	0.057059	-0.935872	-0.069332
O8	O	0.390392	-0.602539	0.264002
O9	O	0.723726	-0.269206	0.597335
O10	O	0.324666	-0.923768	-0.069348
O11	O	0.658000	-0.590434	0.263985
O12	O	0.991333	-0.257101	0.597319
O13	O	0.064333	-0.929256	0.069526
O14	O	0.397666	-0.595923	0.402860
O15	O	0.730999	-0.262590	0.736193
O16	O	0.197063	-0.809060	0.069506
O17	O	0.530396	-0.475727	0.402839
O18	O	0.863730	-0.142394	0.736173
O19	O	0.199210	-1.037348	0.069530
O20	O	0.532543	-0.704014	0.402864
O21	O	0.865877	-0.370681	0.736197
Zn22	Zn	0.199291	-0.922154	0.091565
Zn23	Zn	0.532625	-0.588820	0.424898
Zn24	Zn	0.865958	-0.255487	0.758231
Zn25	Zn	0.189708	-0.930870	-0.091386
Zn26	Zn	0.523041	-0.597537	0.241947
Zn27	Zn	0.856374	-0.264204	0.575280
O28	O	0.331940	-0.917152	0.069510
O29	O	0.665273	-0.583818	0.402843
O30	O	0.998607	-0.250485	0.736177
C31	C	0.190666	-0.783152	0.000074
C32	C	0.523999	-0.449819	0.333407
C33	C	0.857332	-0.116485	0.666741
C34	C	0.182430	-0.696097	0.000065
C35	C	0.515763	-0.362763	0.333398
C36	C	0.849097	-0.029430	0.666731
C37	C	0.026296	-0.932000	0.000097
C38	C	0.359629	-0.598667	0.333431
C39	C	0.692962	-0.265333	0.666764
C40	C	-0.076207	-0.930309	0.000098
C41	C	0.257126	-0.596976	0.333431
C42	C	0.590460	-0.263643	0.666764
C43	C	0.198333	-1.069872	0.000103
C44	C	0.531666	-0.736539	0.333436
C45	C	0.865000	-0.403205	0.666769
C46	C	0.206569	-1.156927	0.000106
C47	C	0.539902	-0.823594	0.333440
C48	C	0.873235	-0.490261	0.666773
C49	C	-0.451551	-0.924087	0.000075
C50	C	-0.118217	-0.590753	0.333409
C51	C	0.215116	-0.257420	0.666742
C52	C	-0.347118	-0.925815	0.000082
C53	C	-0.013785	-0.592481	0.333415
C54	C	0.319548	-0.259148	0.666749
C55	C	-0.263882	-0.927198	0.000087
C56	C	0.069451	-0.593865	0.333421
C57	C	0.402785	-0.260531	0.666754
C58	C	-0.159443	-0.928926	0.000092
C59	C	0.173890	-0.595593	0.333426
C60	C	0.507223	-0.262260	0.666759
C61	C	0.362703	-0.921024	0.000079
C62	C	0.696037	-0.587691	0.333412
C63	C	1.029370	-0.254357	0.666746
C64	C	0.465206	-0.922715	0.000073
C65	C	0.798539	-0.589381	0.333407
C66	C	1.131872	-0.256048	0.666740
N67	N	0.205832	-0.916210	0.216424
N68	N	0.539165	-0.582877	0.549757
N69	N	0.872498	-0.249544	0.883091
C70	C	0.261890	-0.645968	0.000061
C71	C	0.595223	-0.312635	0.333394
C72	C	0.928556	0.020699	0.666727
C73	C	0.254147	-0.564170	0.000073
C74	C	0.587480	-0.230837	0.333406
C75	C	0.920813	0.102497	0.666739
C76	C	0.166943	-0.532503	0.000083
C77	C	0.500276	-0.199169	0.333416
C78	C	0.833610	0.134164	0.666749
C79	C	0.087478	-0.582638	0.000089
C80	C	0.420811	-0.249304	0.333423
C81	C	0.754144	0.084029	0.666756
C82	C	0.095222	-0.664434	0.000083
C83	C	0.428555	-0.331101	0.333417
C84	C	0.761888	0.002233	0.666750
C85	C	0.134847	-0.288859	0.000107
C86	C	0.468181	0.044475	0.333440
C87	C	0.801514	0.377808	0.666774
C88	C	0.127109	-0.207056	0.000111
C89	C	0.460442	0.126277	0.333444
C90	C	0.793776	0.459610	0.666777
C91	C	0.293779	-0.188594	0.000095
C92	C	0.627112	0.144739	0.333429
C93	C	0.960446	0.478073	0.666762
C94	C	0.301515	-0.270393	0.000084
C95	C	0.634849	0.062941	0.333417
C96	C	0.968182	0.396274	0.666751
C97	C	0.222050	-0.320520	0.000095
C98	C	0.555383	0.012813	0.333429
C99	C	0.888717	0.346146	0.666762
N100	N	0.159027	-0.448892	0.000092
N101	N	0.492360	-0.115559	0.333426
N102	N	0.825693	0.217774	0.666759
N103	N	0.229968	-0.404129	0.000092
N104	N	0.563301	-0.070796	0.333425
N105	N	0.896634	0.262538	0.666758
N106	N	0.183161	-0.936820	-0.216246
N107	N	0.516494	-0.603486	0.117088
N108	N	0.849827	-0.270153	0.450421
C109	C	0.149377	-0.967373	0.260127
C110	C	0.482711	-0.634039	0.593460
C111	C	0.816044	-0.300706	0.926793
C112	C	0.153962	-0.963222	0.347533
C113	C	0.487295	-0.629889	0.680866
C114	C	0.820628	-0.296556	1.014199
C115	C	0.215006	-0.907913	0.391235
C116	C	0.548339	-0.574580	0.724568
C117	C	0.881672	-0.241247	1.057901
C118	C	0.271462	-0.856746	0.347526
C119	C	0.604795	-0.523412	0.680859
C120	C	0.938129	-0.190079	1.014193
C121	C	0.266872	-0.860893	0.260121
C122	C	0.600206	-0.527559	0.593455
C123	C	0.933539	-0.194226	0.926788
C124	C	0.235027	-0.889799	0.652641
C125	C	0.568361	-0.556466	0.985974
C126	C	0.901694	-0.223132	1.319308
C127	C	0.239615	-0.885658	0.740052
C128	C	0.572948	-0.552324	1.073385
C129	C	0.906281	-0.218991	1.406718
C130	C	0.122113	-0.992134	0.740053
C131	C	0.455446	-0.658801	1.073386
C132	C	0.788780	-0.325467	1.406719
C133	C	0.117533	-0.996279	0.652646
C134	C	0.450866	-0.662946	0.985980
C135	C	0.784199	-0.329612	1.319313
C136	C	0.173985	-0.945109	0.608945
C137	C	0.507319	-0.611775	0.942279
C138	C	0.840652	-0.278442	1.275612
N139	N	0.219695	-0.903672	0.480578
N140	N	0.553028	-0.570338	0.813911
N141	N	0.886362	-0.237005	1.147244
N142	N	0.169291	-0.949347	0.519604
N143	N	0.502624	-0.616014	0.852937
N144	N	0.835957	-0.282680	1.186271
H145	H	0.332900	-0.671745	0.000052
H146	H	0.666233	-0.338411	0.333385
H147	H	0.999567	-0.005078	0.666718
Br148	Br	0.361990	-0.496140	0.000064
Br149	Br	0.695324	-0.162807	0.333397
Br150	Br	1.028657	0.170527	0.666731
H151	H	0.030517	-0.705249	0.000086
H152	H	0.363850	-0.371915	0.333420
H153	H	0.697184	-0.038582	0.666753
H154	H	0.372525	-0.296170	0.000066
H155	H	0.705858	0.037163	0.333400
H156	H	1.039192	0.370497	0.666733
Br157	Br	0.066535	-1.042445	0.200826
Br158	Br	0.399868	-0.709111	0.534160
Br159	Br	0.733202	-0.375778	0.867493
Br160	Br	0.343486	-0.791450	0.200811
Br161	Br	0.676819	-0.458116	0.534144
Br162	Br	1.010152	-0.124783	0.867477
H163	H	0.067826	-1.041316	0.617066
H164	H	0.401159	-0.707983	0.950400
H165	H	0.734493	-0.374649	1.283733
H166	H	0.321162	-0.811708	0.383113
H167	H	0.654495	-0.478374	0.716446
H168	H	0.987828	-0.145041	1.049780
H169	H	0.358475	-0.147771	0.000088
H170	H	0.691808	0.185562	0.333421
H171	H	1.025142	0.518895	0.666755
H172	H	0.056094	-0.181277	0.000118
H173	H	0.389427	0.152057	0.333451
H174	H	0.722760	0.485390	0.666785
H175	H	0.076151	-1.033794	0.775642
H176	H	0.409484	-0.700460	1.108975
H177	H	0.742817	-0.367127	1.442309
H178	H	0.289328	-0.840616	0.775630
H179	H	0.622661	-0.507282	1.108963
H180	H	0.955994	-0.173949	1.442296
Br181	Br	0.027001	-0.356879	0.000124
Br182	Br	0.360334	-0.023546	0.333458
Br183	Br	0.693667	0.309788	0.666791
H184	H	0.107992	-1.004882	0.383115
H185	H	0.441325	-0.671549	0.716448
H186	H	0.774659	-0.338216	1.049782
H187	H	0.016475	-0.556847	0.000110
H188	H	0.349808	-0.223514	0.333443
H189	H	0.683142	0.109819	0.666776
Br190	Br	0.311641	-0.820357	0.593337
Br191	Br	0.644975	-0.487024	0.926670
Br192	Br	0.978308	-0.153691	1.260004
