data_functionalizedCrystal
_audit_creation_method	'MofGen! by Chris Wilmer'
_symmetry_space_group_name_H-M	'P1'
_symmetry_Int_Tables_number	1
_symmetry_cell_setting	triclinic
loop_
_symmetry_equiv_pos_as_xyz
  x,y,z
_cell_length_a	10.723024
_cell_length_b	9.198806
_cell_length_c	19.288865
_cell_angle_alpha	89.991326
_cell_angle_beta	96.197942
_cell_angle_gamma	90.003661
loop_
_atom_site_label
_atom_site_type_symbol
_atom_site_fract_x
_atom_site_fract_y
_atom_site_fract_z
O1	O	1.655142	0.120902	-0.097416
O2	O	1.291794	0.120908	-0.106740
O3	O	1.483967	0.120876	-0.001016
O4	O	1.462969	0.120934	-0.203140
O5	O	1.483952	-0.120909	-0.001015
O6	O	1.291779	-0.120877	-0.106739
O7	O	1.655127	-0.120883	-0.097415
Cu8	Cu	1.473451	-0.142957	-0.102077
Cu9	Cu	1.473469	0.142982	-0.102078
O10	O	1.462954	-0.120851	-0.203139
C11	C	1.245301	0.000016	-0.106061
C12	C	1.106789	0.000018	-0.104031
C13	C	0.916356	0.000002	-0.040966
C14	C	1.059516	0.000001	-0.043063
N15	N	1.473448	-0.344071	-0.102076
C16	C	1.545367	-0.416258	-0.142351
C17	C	1.545386	-0.583670	-0.142350
C18	C	1.701620	0.000012	-0.098094
C19	C	1.840131	0.000020	-0.100124
C20	C	1.483284	-0.000021	0.024865
C21	C	1.481256	-0.000034	0.101982
N22	N	1.473483	0.344096	-0.102074
C23	C	1.463637	0.000049	-0.229020
C24	C	1.465665	0.000071	-0.306137
C25	C	1.594014	-0.000043	0.145945
C26	C	1.592109	-0.000020	0.218404
C27	C	1.477438	-0.000017	0.246898
C28	C	1.364665	0.000001	0.202925
C29	C	1.366574	-0.000008	0.130468
C30	C	1.387289	-0.084707	0.355772
C31	C	1.385385	-0.084708	0.428229
C32	C	1.471547	0.000016	0.470382
C33	C	1.559634	0.084721	0.440070
C34	C	1.561542	0.084713	0.367612
C35	C	1.475356	-0.000007	0.325465
C36	C	1.582247	0.000034	0.592914
C37	C	1.580336	0.000066	0.665374
C38	C	1.352890	0.000072	0.649894
C39	C	1.354803	0.000054	0.577435
C40	C	1.469485	0.000028	0.548949
H41	H	1.606930	-0.354120	-0.176829
O42	O	1.028544	0.000232	-0.164409
C43	C	0.863857	0.125566	-0.235531
C44	C	0.952388	0.125487	-0.167121
H45	H	0.802279	0.226839	-0.237754
H46	H	0.802072	0.024452	-0.237765
H47	H	0.921750	0.125508	-0.281749
H48	H	0.894593	0.125597	-0.120865
H49	H	1.014176	0.226592	-0.164949
O50	O	0.888648	-0.000217	-0.162418
C51	C	0.902631	-0.125394	-0.271036
C52	C	0.847631	-0.125325	-0.200505
H53	H	0.869470	-0.226517	-0.301856
H54	H	1.009440	-0.125491	-0.261670
H55	H	0.869631	-0.024149	-0.301818
H56	H	0.880534	-0.226553	-0.169686
H57	H	0.740828	-0.125152	-0.209920
H58	H	1.411901	-0.593834	-0.067594
H59	H	1.125012	-0.000005	0.007580
H60	H	1.633263	0.153686	0.342936
H61	H	1.606952	-0.645750	-0.176835
O62	O	1.705521	0.000006	0.118390
C63	C	1.930911	-0.000104	0.141394
C64	C	1.804719	-0.000126	0.172694
H65	H	2.011145	-0.000241	0.185284
H66	H	1.937591	0.101103	0.107874
H67	H	1.937412	-0.101271	0.107843
H68	H	1.798133	0.100973	0.206276
H69	H	1.798093	-0.101399	0.206173
O70	O	1.701566	-0.000232	0.261190
C71	C	1.831413	-0.125564	0.351960
C72	C	1.707396	-0.125483	0.303561
H73	H	1.836179	-0.226834	0.386219
H74	H	1.836240	-0.024447	0.386312
H75	H	1.913683	-0.125511	0.319138
H76	H	1.625056	-0.125587	0.336328
H77	H	1.702679	-0.226592	0.269206
H78	H	1.411893	-0.406209	-0.067593
O79	O	1.643296	0.167240	0.480927
C80	C	1.722131	0.408028	0.508498
C81	C	1.627340	0.314755	0.462167
H82	H	1.709246	0.527314	0.493358
H83	H	1.821608	0.372397	0.500986
H84	H	1.705657	0.393421	0.565490
H85	H	1.643699	0.329316	0.405158
H86	H	1.527895	0.350408	0.469739
H87	H	1.675628	0.000019	0.569720
O88	O	1.241574	0.000273	0.677644
C89	C	1.107396	0.125608	0.750417
C90	C	1.233520	0.125533	0.719046
H91	H	1.100832	0.226885	0.783885
H92	H	1.100784	0.024498	0.784010
H93	H	1.027152	0.125536	0.706532
H94	H	1.313836	0.125657	0.762885
H95	H	1.240023	0.226634	0.685435
O96	O	1.245153	-0.000020	0.534825
C97	C	1.019360	0.000069	0.527120
C98	C	1.143451	0.000114	0.575455
H99	H	0.937102	0.000209	0.559950
H100	H	1.014476	-0.101146	0.492834
H101	H	1.014642	0.101227	0.492785
H102	H	1.148252	-0.100975	0.609833
H103	H	1.148283	0.101397	0.609694
O104	O	1.299705	-0.167023	0.457555
C105	C	1.127115	-0.335128	0.438164
C106	C	1.224061	-0.241944	0.404863
H107	H	1.065948	-0.395749	0.395580
H108	H	1.065682	-0.261886	0.467944
H109	H	1.178012	-0.416815	0.475636
H110	H	1.173268	-0.160247	0.367360
H111	H	1.285490	-0.315277	0.375127
O112	O	1.303753	-0.167106	0.314766
C113	C	1.274240	-0.361475	0.230861
C114	C	1.368979	-0.268249	0.277250
H115	H	1.326937	-0.443292	0.200528
H116	H	1.214686	-0.288271	0.192770
H117	H	1.210946	-0.421948	0.264985
H118	H	1.432355	-0.207762	0.243181
H119	H	1.428444	-0.341529	0.315345
O120	O	1.253352	0.000195	0.230683
C121	C	1.119180	0.125514	0.303464
C122	C	1.245301	0.125448	0.272090
H123	H	1.112619	0.226785	0.336937
H124	H	1.112572	0.024398	0.337054
H125	H	1.038933	0.125448	0.259582
H126	H	1.325621	0.125565	0.315928
H127	H	1.251800	0.226555	0.238483
O128	O	1.256952	0.000186	0.087830
C129	C	1.063188	0.125497	0.052383
C130	C	1.187274	0.125444	0.100723
H131	H	1.006829	0.226772	0.062780
H132	H	1.006638	0.024385	0.062833
H133	H	1.084280	0.125412	-0.004292
H134	H	1.166295	0.125580	0.157415
H135	H	1.243787	0.226547	0.090213
H136	H	0.875630	-0.000034	0.011233
H137	H	1.672162	0.000066	0.701169
