data_functionalizedCrystal
_audit_creation_method	'MofGen! by Chris Wilmer'
_symmetry_space_group_name_H-M	'P1'
_symmetry_Int_Tables_number	1
_symmetry_cell_setting	triclinic
loop_
_symmetry_equiv_pos_as_xyz
  x,y,z
_cell_length_a	10.685980
_cell_length_b	12.759400
_cell_length_c	10.686551
_cell_angle_alpha	85.595160
_cell_angle_beta	81.591741
_cell_angle_gamma	94.380016
loop_
_atom_site_label
_atom_site_type_symbol
_atom_site_fract_x
_atom_site_fract_y
_atom_site_fract_z
Zn1	Zn	1.995797	-0.235484	-0.866710
Zn2	Zn	1.979382	-0.425813	-0.654452
Zn3	Zn	1.767226	-0.264725	-0.638176
Zn4	Zn	1.783506	-0.425711	-0.850362
O5	O	1.881478	-0.337933	-0.752425
O6	O	2.171253	-0.248537	-0.852207
O7	O	1.937556	-0.416725	-0.474661
O8	O	1.797602	-0.113820	-0.668521
O9	O	2.159193	-0.388371	-0.696262
O10	O	1.965533	-0.092336	-0.836425
O11	O	1.781685	-0.298374	-0.462703
O12	O	1.591752	-0.298275	-0.652669
O13	O	1.825350	-0.388197	-1.030163
O14	O	1.603713	-0.416551	-0.808562
O15	O	1.981320	-0.248438	-1.042173
O16	O	1.953342	-0.572826	-0.680410
O17	O	1.809433	-0.572751	-0.824345
C18	C	1.551674	-0.360576	-0.727076
C19	C	1.410586	-0.370285	-0.716262
C20	C	1.881410	-0.610907	-0.752400
C21	C	1.881500	-0.727675	-0.752441
C22	C	1.968906	-0.771269	-0.839931
C23	C	1.968967	-0.880987	-0.839967
C24	C	1.794212	-0.903508	-0.665010
C25	C	1.794146	-0.793792	-0.664981
C26	C	2.056260	-0.705152	-0.927391
C27	C	2.143674	-0.748746	-1.014888
C28	C	2.143735	-0.858463	-1.014923
C29	C	2.056383	-0.924588	-0.927462
C30	C	2.212569	-0.315204	-0.777874
C31	C	2.353660	-0.305517	-0.788719
C32	C	1.906982	-0.315044	-1.083514
C33	C	1.917850	-0.305290	-1.224604
C34	C	1.881583	-0.063890	-0.752481
C35	C	1.881628	0.052891	-0.752505
C36	C	1.856146	-0.360653	-0.422630
C37	C	1.845523	-0.370094	-0.281559
H38	H	1.412861	-0.242632	-0.859023
O39	O	1.761896	-0.445237	-1.210842
C40	C	1.828310	-0.513388	-1.139724
H41	H	1.923020	-0.471074	-1.127400
H42	H	1.846110	-0.586807	-1.191794
C43	C	1.632550	-0.597785	-1.023485
C44	C	1.748870	-0.545811	-1.008339
H45	H	1.583547	-0.617790	-0.942442
H46	H	1.587804	-0.551873	-1.071401
H47	H	1.647400	-0.658961	-1.066880
H48	H	1.734019	-0.484630	-0.964959
H49	H	1.793612	-0.591714	-0.960412
O50	O	1.709419	-0.967630	-0.579878
C51	C	1.727523	-0.947688	-0.455519
H52	H	1.776071	-0.864823	-0.456657
H53	H	1.789570	-1.007873	-0.417854
C54	C	1.538276	-1.058314	-0.367624
C55	C	1.597893	-0.956535	-0.369019
H56	H	1.458316	-1.063776	-0.314264
H57	H	1.526081	-1.071753	-0.451406
H58	H	1.589995	-1.108457	-0.336240
H59	H	1.546182	-0.906395	-0.400418
H60	H	1.610076	-0.943087	-0.285240
H61	H	1.988097	-0.242347	-1.283788
H62	H	1.351377	-0.433168	-0.645945
O63	O	2.228690	-0.684627	-1.099801
C64	C	2.353113	-0.704572	-1.081878
H65	H	2.352070	-0.787434	-1.033310
H66	H	2.390865	-0.644383	-1.019927
C67	C	2.440721	-0.593956	-1.271247
C68	C	2.439442	-0.695733	-1.211604
H69	H	2.493976	-0.588500	-1.351266
H70	H	2.356896	-0.580515	-1.283320
H71	H	2.472178	-0.543811	-1.219608
H72	H	2.407971	-0.745875	-1.263235
H73	H	2.523265	-0.709182	-1.199542
O74	O	1.709124	-0.751384	-0.580165
C75	C	1.632633	-0.688574	-0.646058
H76	H	1.632434	-0.715257	-0.745423
H77	H	1.672174	-0.602398	-0.653466
C78	C	1.496180	-0.667556	-0.451762
C79	C	1.495926	-0.700335	-0.573800
H80	H	1.411854	-0.674805	-0.407188
H81	H	1.547715	-0.709869	-0.407367
H82	H	1.529137	-0.595745	-0.457952
H83	H	1.462985	-0.772147	-0.567608
H84	H	1.444382	-0.658034	-0.618192
O85	O	2.056336	-0.598551	-0.927569
C86	C	2.152198	-0.549540	-1.023498
H87	H	2.175672	-0.606387	-1.099058
H88	H	2.240909	-0.527149	-0.980342
C89	C	2.076537	-0.379638	-0.991709
C90	C	2.105360	-0.449456	-1.084519
H91	H	2.047649	-0.317899	-1.029347
H92	H	2.011955	-0.412657	-0.927076
H93	H	2.150470	-0.360991	-0.955754
H94	H	2.031424	-0.468112	-1.120461
H95	H	2.169928	-0.416438	-1.149160
O96	O	2.228468	-0.900862	-1.100037
C97	C	2.162487	-0.963670	-1.176409
H98	H	2.063084	-0.936996	-1.176481
H99	H	2.155169	-1.049848	-1.136851
C100	C	2.356663	-0.984661	-1.313085
C101	C	2.234578	-0.951893	-1.313182
H102	H	2.401133	-0.977401	-1.397452
H103	H	2.401117	-0.942350	-1.261630
H104	H	2.350548	-1.056474	-1.280114
H105	H	2.240695	-0.880078	-1.346138
H106	H	2.190126	-0.994192	-1.364647
H107	H	2.056426	-1.013927	-0.927511
