data_functionalizedCrystal
_audit_creation_method	'MofGen! by Chris Wilmer'
_symmetry_space_group_name_H-M	'P1'
_symmetry_Int_Tables_number	1
_symmetry_cell_setting	triclinic
loop_
_symmetry_equiv_pos_as_xyz
  x,y,z
_cell_length_a	14.395555
_cell_length_b	21.606444
_cell_length_c	21.606444
_cell_angle_alpha	60.003501
_cell_angle_beta	90.001723
_cell_angle_gamma	59.993602
loop_
_atom_site_label
_atom_site_type_symbol
_atom_site_fract_x
_atom_site_fract_y
_atom_site_fract_z
Zr1	Zr	-0.122059	0.677505	0.596239
O2	O	-0.270417	0.806631	0.497415
O3	O	-0.076557	0.548377	0.626533
O4	O	-0.270382	0.677501	0.626534
O5	O	0.076275	0.677512	0.497413
O6	O	-0.270380	0.677501	0.728386
O7	O	-0.076592	0.677507	0.497414
O8	O	0.076338	0.446521	0.728383
O9	O	-0.270443	0.908491	0.497416
O10	O	-0.057176	0.601490	0.715464
O11	O	0.056905	0.601494	0.639453
O12	O	-0.171299	0.753521	0.639455
O13	O	-0.057218	0.753525	0.563443
Zr14	Zr	0.121750	0.677513	0.758680
Zr15	Zr	-0.122055	0.677505	0.758681
Zr16	Zr	0.121746	0.677513	0.596237
Zr17	Zr	-0.122100	0.839961	0.596240
Zr18	Zr	0.121791	0.515057	0.758679
O19	O	0.076248	0.806642	0.728385
O20	O	-0.270412	0.806631	0.728387
O21	O	0.076243	0.806642	0.497414
O22	O	0.270109	0.548387	0.857503
O23	O	-0.076551	0.548376	0.857505
O24	O	0.270103	0.548387	0.626531
O25	O	-0.076584	0.677507	0.857505
O26	O	0.270073	0.677517	0.728384
O27	O	0.270071	0.677517	0.626532
O28	O	0.076283	0.677511	0.857505
O29	O	-0.270440	0.908491	0.626536
O30	O	0.270131	0.446527	0.728382
O31	O	0.270134	0.446527	0.857502
O32	O	0.076341	0.446521	0.857503
O33	O	-0.076650	0.908497	0.497415
O34	O	-0.076647	0.908497	0.626535
O35	O	0.170990	0.601497	0.715463
O36	O	0.056909	0.601494	0.791475
O37	O	-0.057214	0.753524	0.715465
O38	O	0.056867	0.753528	0.639454
C39	C	-0.000103	0.474302	0.677458
C40	C	-0.000086	0.405336	0.677458
C41	C	-0.084327	0.429068	0.621345
C42	C	-0.084351	0.364279	0.621347
C43	C	-0.000128	0.275758	0.677459
C44	C	0.084118	0.252026	0.733577
C45	C	0.084136	0.316815	0.733578
C46	C	0.084046	-0.009261	0.733577
C47	C	0.084024	-0.074050	0.733571
C48	C	-0.084440	0.038204	0.621346
C49	C	-0.084422	0.102992	0.621346
C50	C	-0.000181	0.079255	0.677467
C51	C	-0.000157	0.149508	0.677465
C52	C	-0.000145	0.205506	0.677458
C53	C	-0.305118	0.677500	0.677461
C54	C	-0.408620	0.677497	0.677461
C55	C	-0.406984	0.594603	0.718909
C56	C	-0.500017	0.636042	0.647436
C57	C	-0.500014	0.636061	0.748916
C58	C	-0.500290	0.718936	0.605947
C59	C	-0.500273	0.718944	0.707478
C60	C	-0.593324	0.760443	0.635963
C61	C	0.304809	0.677518	0.677458
C62	C	0.408311	0.677521	0.677457
C63	C	-0.000159	0.677509	0.474269
C64	C	-0.000161	0.677509	0.405308
C65	C	-0.000205	0.880716	0.677460
C66	C	-0.000223	0.949682	0.677461
C67	C	-0.084380	0.677509	0.372910
C68	C	-0.084375	0.677505	0.308116
C69	C	-0.000156	0.677507	0.275718
C70	C	0.084071	0.677504	0.308122
C71	C	0.084071	0.677502	0.372918
C72	C	0.084075	0.677511	0.046808
C73	C	0.084067	0.677515	-0.017994
C74	C	-0.084371	0.677513	-0.017994
C75	C	-0.084371	0.677511	0.046802
C76	C	-0.000141	0.677504	0.079203
C77	C	-0.000145	0.677507	0.149460
C78	C	-0.000156	0.677510	0.205458
C79	C	-0.000150	0.677509	0.880649
C80	C	-0.000148	0.677509	0.949610
C81	C	-0.000099	0.474302	0.880648
C82	C	-0.000080	0.405336	0.949609
C83	C	0.304860	0.474312	0.677456
C84	C	0.408379	0.405348	0.677456
C85	C	0.304865	0.474311	0.880647
C86	C	0.408386	0.405348	0.949607
C87	C	-0.305174	0.880707	0.474271
C88	C	-0.408694	0.949670	0.405311
C89	C	-0.000210	0.880716	0.474270
C90	C	-0.000229	0.949683	0.405309
C91	C	-0.305169	0.880707	0.677462
C92	C	-0.408688	0.949670	0.677463
C93	C	-0.059632	0.372946	0.942317
C94	C	-0.059637	0.308154	1.007106
C95	C	-0.000082	0.275747	1.079187
C96	C	0.059472	0.308143	1.086478
C97	C	0.059469	0.372939	1.021689
C98	C	0.516554	0.372964	0.717132
C99	C	0.613831	0.308175	0.717128
C100	C	0.602930	0.275766	0.677452
C101	C	0.494744	0.308157	0.637771
C102	C	0.397469	0.372949	0.637771
C103	C	0.397451	0.372960	1.021675
C104	C	0.494710	0.308171	1.086477
C105	C	0.602903	0.275766	1.079208
C106	C	0.613836	0.308160	1.007132
C107	C	0.516578	0.372953	0.942332
C108	C	-0.397760	0.982066	0.333243
C109	C	-0.495019	1.046875	0.268441
C110	C	-0.603212	1.079284	0.275710
C111	C	-0.614145	1.046885	0.347786
C112	C	-0.516886	0.982081	0.412586
C113	C	0.059313	0.982078	0.412601
C114	C	0.059291	1.046889	0.347812
C115	C	-0.000267	1.079298	0.275731
C116	C	-0.059816	1.046899	0.268440
C117	C	-0.059801	0.982094	0.333229
C118	C	-0.397751	0.982058	0.717146
C119	C	-0.495009	1.046848	0.717162
C120	C	-0.603203	1.079253	0.677489
C121	C	-0.614138	1.046859	0.637804
C122	C	-0.516881	0.982065	0.637793
H123	H	-0.152948	0.383610	0.575654
H124	H	0.309392	0.399308	0.605464
C125	C	0.528568	0.408613	0.760767
H126	H	0.606931	0.380049	0.784384
H127	H	0.493119	0.397995	0.798320
H128	H	0.493085	0.469794	0.726507
C129	C	0.482664	0.272540	1.165750
H130	H	0.404297	0.301111	1.160792
H131	H	0.518105	0.283166	1.192683
H132	H	0.518143	0.211359	1.192676
C133	C	-0.482979	1.082500	0.189166
H134	H	-0.556392	1.125745	0.151610
H135	H	-0.442566	1.035978	0.183486
H136	H	-0.442563	1.107771	0.183493
H137	H	0.107788	1.073257	0.353763
C138	C	0.176767	0.154657	0.795299
H139	H	0.226936	0.149804	0.828721
H140	H	0.218358	0.127045	0.772246
H141	H	0.142165	0.127055	0.823018
H142	H	0.152641	-0.028599	0.779274
C143	C	0.124997	0.408550	1.029720
H144	H	0.160472	0.379958	1.081929
H145	H	0.073601	0.469728	1.006097
H146	H	0.181366	0.397913	1.006100
C147	C	-0.499203	0.766232	0.524272
H148	H	-0.432970	0.765910	0.524774
H149	H	-0.564963	0.824961	0.494768
H150	H	-0.498984	0.736989	0.502891
C151	C	0.732823	0.272550	0.760782
H152	H	0.789203	0.229327	0.755096
H153	H	0.741354	0.247269	0.812981
H154	H	0.741327	0.319081	0.741187
C155	C	-0.710175	1.150530	0.677500
H156	H	-0.688155	1.165180	0.706812
H157	H	-0.754174	1.129299	0.698743
H158	H	-0.754180	1.201097	0.626947
H159	H	-0.153001	0.175069	0.575652
H160	H	0.682146	0.223008	0.677458
H161	H	0.107820	0.955696	0.471287
H162	H	0.485885	0.281760	0.605468
H163	H	0.309363	0.399335	1.027608
H164	H	0.682088	0.223007	1.131979
H165	H	-0.108307	1.073296	0.209743
H166	H	0.701940	0.281766	1.001225
H167	H	0.525497	0.399314	0.883653
C168	C	-0.700926	0.855206	0.588548
H169	H	-0.701602	0.884511	0.537810
H170	H	-0.701029	0.884862	0.609433
H171	H	-0.766538	0.854704	0.589136
C172	C	-0.278760	0.946438	0.325232
H173	H	-0.286194	0.975030	0.273026
H174	H	-0.238321	0.885261	0.348852
H175	H	-0.238359	0.957066	0.348864
H176	H	-0.682397	1.132051	0.222940
H177	H	-0.309662	0.955684	0.749453
H178	H	0.107959	0.281748	1.145175
H179	H	-0.702247	1.073281	0.353695
C180	C	-0.177009	0.677505	0.082439
H181	H	-0.227161	0.677496	0.053868
H182	H	-0.218622	0.728271	0.082337
H183	H	-0.142388	0.626727	0.133099
C184	C	-0.528929	0.946442	0.491857
H185	H	-0.607296	0.975022	0.486898
H186	H	-0.493473	0.957052	0.518799
H187	H	-0.493466	0.885264	0.518774
H188	H	-0.000270	1.132066	0.222982
H189	H	-0.153037	0.057526	0.575652
H190	H	-0.108284	0.955719	0.327281
C191	C	-0.482960	1.082480	0.760807
H192	H	-0.404592	1.053909	0.784419
H193	H	-0.518400	1.071855	0.798364
H194	H	-0.518439	1.143661	0.726555
H195	H	-0.327205	0.524510	0.753900
C196	C	0.176668	-0.171425	0.795301
H197	H	0.226836	-0.176283	0.828729
H198	H	0.218263	-0.199042	0.772253
H199	H	0.142052	-0.199017	0.823013
C200	C	-0.733155	1.082518	0.594160
H201	H	-0.789502	1.125751	0.599847
H202	H	-0.741698	1.036010	0.613742
H203	H	-0.741697	1.107812	0.541955
H204	H	-0.525803	0.955702	0.605475
H205	H	-0.499306	0.753947	0.732889
C206	C	-0.176969	0.526438	0.559621
H207	H	-0.164890	0.561627	0.567651
H208	H	-0.249680	0.538890	0.561946
H209	H	-0.173478	0.538869	0.511180
C210	C	0.176805	0.290709	0.795299
H211	H	0.226970	0.228711	0.828713
H212	H	0.142220	0.313657	0.823016
H213	H	0.218413	0.313642	0.772244
H214	H	-0.500941	0.601008	0.622043
C215	C	-0.177020	0.677508	0.408544
H216	H	-0.164968	0.677515	0.451771
H217	H	-0.173516	0.626739	0.423306
H218	H	-0.249737	0.728283	0.372539
C219	C	-0.501232	0.588722	0.830549
H220	H	-0.567126	0.628144	0.834742
H221	H	-0.435139	0.568435	0.864749
H222	H	-0.502199	0.540381	0.842513
C223	C	-0.177022	0.677513	0.272477
H224	H	-0.227189	0.677524	0.301046
H225	H	-0.142423	0.626745	0.272581
H226	H	-0.218632	0.728290	0.221816
H227	H	-0.152953	0.677515	-0.044379
C228	C	-0.125135	0.272521	0.999073
H229	H	-0.160583	0.301093	0.946864
H230	H	-0.181506	0.283144	1.022689
H231	H	-0.073711	0.211340	1.022701
C232	C	0.176718	0.677510	-0.053627
H233	H	0.226889	0.677497	-0.025047
H234	H	0.142112	0.728280	-0.104285
H235	H	0.218323	0.626736	-0.053519
H236	H	0.152649	0.677500	0.281742
C237	C	0.176713	0.677515	0.082437
H238	H	0.164663	0.677505	0.125672
H239	H	0.173203	0.728286	0.046435
H240	H	0.249430	0.626742	0.097201
C241	C	0.176704	0.677512	0.408551
H242	H	0.226855	0.677523	0.379972
H243	H	0.218318	0.626744	0.459210
H244	H	0.142084	0.728288	0.408440
H245	H	-0.000089	0.222986	1.131936
C246	C	-0.125155	0.408587	0.863036
H247	H	-0.160629	0.380017	0.867984
H248	H	-0.073760	0.397967	0.836105
H249	H	-0.181525	0.469768	0.836115
