data_functionalizedCrystal
_audit_creation_method	'MofGen! by Chris Wilmer'
_symmetry_space_group_name_H-M	'P1'
_symmetry_Int_Tables_number	1
_symmetry_cell_setting	triclinic
loop_
_symmetry_equiv_pos_as_xyz
  x,y,z
_cell_length_a	11.169417
_cell_length_b	14.908178
_cell_length_c	11.169409
_cell_angle_alpha	93.334554
_cell_angle_beta	90.019513
_cell_angle_gamma	93.315343
loop_
_atom_site_label
_atom_site_type_symbol
_atom_site_fract_x
_atom_site_fract_y
_atom_site_fract_z
Zn1	Zn	1.807332	-0.359087	0.650915
Zn2	Zn	1.795609	-0.509994	0.438625
Zn3	Zn	1.606613	-0.359143	0.450246
Zn4	Zn	1.595019	-0.509921	0.639277
O5	O	1.701143	-0.434536	0.544766
O6	O	1.973726	-0.379112	0.622761
O7	O	1.770485	-0.490037	0.272213
O8	O	1.642997	-0.232880	0.486599
O9	O	1.965114	-0.489982	0.466793
O10	O	1.790464	-0.232839	0.634029
O11	O	1.631631	-0.379208	0.280750
O12	O	1.437126	-0.379137	0.475314
O13	O	1.623236	-0.489859	0.808775
O14	O	1.428608	-0.489913	0.614194
O15	O	1.779222	-0.379042	0.817325
O16	O	1.759243	-0.636240	0.455508
O17	O	1.611870	-0.636187	0.602926
C18	C	1.389320	-0.434524	0.544753
C19	C	1.255918	-0.434541	0.544774
C20	C	1.683059	-0.668950	0.526719
C21	C	1.675432	-0.769233	0.519039
C22	C	1.814541	-0.957483	0.658292
C23	C	1.807379	-1.051708	0.651080
C24	C	1.653940	-1.051909	0.497410
C25	C	1.661102	-0.957684	0.504622
C26	C	1.741406	-0.910474	0.585064
C27	C	1.748574	-0.816248	0.592270
C28	C	1.595130	-0.816451	0.438607
C29	C	1.587968	-0.910676	0.431395
C30	C	2.014185	-0.434549	0.544779
C31	C	2.147584	-0.434555	0.544785
C32	C	1.701243	-0.434436	0.857816
C33	C	1.701286	-0.434393	0.991219
C34	C	1.719332	-0.199207	0.562909
C35	C	1.727082	-0.098924	0.570640
C36	C	1.701118	-0.434571	0.232938
C37	C	1.701327	-0.434360	0.099555
H38	H	1.813965	-0.777810	0.657766
Cl39	Cl	1.503193	-0.757350	0.346535
Cl40	Cl	1.899320	-1.110801	0.743144
H41	H	1.588555	-1.090364	0.431923
H42	H	1.522584	-0.949127	0.365904
H43	H	1.879936	-0.919044	0.723783
