data_functionalizedCrystal
_audit_creation_method	'MofGen! by Chris Wilmer'
_symmetry_space_group_name_H-M	'P1'
_symmetry_Int_Tables_number	1
_symmetry_cell_setting	triclinic
loop_
_symmetry_equiv_pos_as_xyz
  x,y,z
_cell_length_a	13.897449
_cell_length_b	13.897448
_cell_length_c	13.897441
_cell_angle_alpha	90.028012
_cell_angle_beta	90.022859
_cell_angle_gamma	90.019402
loop_
_atom_site_label
_atom_site_type_symbol
_atom_site_fract_x
_atom_site_fract_y
_atom_site_fract_z
Zn1	Zn	-1.474690	0.383988	-0.545453
Zn2	Zn	-1.474579	0.545310	-0.384162
Zn3	Zn	-1.313379	0.384030	-0.384166
Zn4	Zn	-1.313356	0.545243	-0.545408
O5	O	-1.394001	0.464643	-0.464797
O6	O	-1.609657	0.405399	-0.524075
O7	O	-1.453159	0.523962	-0.249181
O8	O	-1.334834	0.249043	-0.405581
O9	O	-1.609575	0.523921	-0.405575
O10	O	-1.453348	0.249012	-0.524078
O11	O	-1.334726	0.405470	-0.249183
O12	O	-1.178394	0.405405	-0.405538
O13	O	-1.334794	0.523806	-0.680396
O14	O	-1.178377	0.523847	-0.524002
O15	O	-1.453325	0.405333	-0.680429
O16	O	-1.453136	0.680283	-0.405531
O17	O	-1.334686	0.680233	-0.523999
C18	C	-1.143387	0.464624	-0.464766
C19	C	-1.036173	0.464639	-0.464775
C20	C	-0.839878	0.464637	-0.464794
C21	C	-0.949110	0.464635	-0.464781
C22	C	-1.393922	0.715257	-0.464781
C23	C	-1.393977	0.822471	-0.464806
C24	C	-0.645594	0.464656	-0.464820
C25	C	-0.752808	0.464646	-0.464806
C26	C	-1.394072	1.018766	-0.464875
C27	C	-1.394016	0.909534	-0.464840
C28	C	-1.394069	0.464558	-0.716390
C29	C	-1.394098	0.464521	-0.823604
C30	C	-1.394098	1.213050	-0.464846
C31	C	-1.394118	1.105836	-0.464896
C32	C	-1.394125	0.464456	-1.019900
C33	C	-1.394107	0.464495	-0.910667
C34	C	-1.393988	0.464658	-0.214183
C35	C	-1.394146	0.464423	-0.106970
