data_functionalizedCrystal
_audit_creation_method	'MofGen! by Chris Wilmer'
_symmetry_space_group_name_H-M	'P1'
_symmetry_Int_Tables_number	1
_symmetry_cell_setting	triclinic
loop_
_symmetry_equiv_pos_as_xyz
  x,y,z
_cell_length_a	14.044220
_cell_length_b	14.044220
_cell_length_c	12.503572
_cell_angle_alpha	93.843168
_cell_angle_beta	86.164750
_cell_angle_gamma	93.188878
loop_
_atom_site_label
_atom_site_type_symbol
_atom_site_fract_x
_atom_site_fract_y
_atom_site_fract_z
O1	O	1.282200	0.225116	-0.089210
O2	O	1.005530	0.216809	-0.089237
O3	O	1.139712	0.082627	-0.089213
O4	O	1.148019	0.359298	-0.089234
O5	O	1.129622	0.092737	0.089427
O6	O	0.995440	0.226918	0.089403
O7	O	1.272110	0.235226	0.089430
Cu8	Cu	1.132854	0.231995	0.105728
Cu9	Cu	1.144786	0.220040	-0.105535
O10	O	1.137929	0.369407	0.089406
C11	C	0.964864	0.218228	0.000080
C12	C	0.858721	0.207383	0.000070
C13	C	0.664382	0.187558	0.000092
C14	C	0.613253	0.264472	0.000091
C15	C	0.505116	0.253441	0.000104
C16	C	0.772529	0.198587	0.000080
C17	C	1.131031	0.052060	0.000107
C18	C	1.120187	-0.054082	0.000107
C19	C	1.100361	-0.248421	0.000090
C20	C	1.177275	-0.299551	0.000094
C21	C	1.166244	-0.407687	0.000084
C22	C	1.111391	-0.140274	0.000099
C23	C	1.312777	0.233807	0.000111
C24	C	1.418920	0.244651	0.000114
C25	C	1.146609	0.399974	0.000084
C26	C	1.157454	0.506117	0.000077
N27	N	1.124469	0.240404	0.254319
N28	N	1.153179	0.211624	-0.254126
C29	C	1.112134	0.252782	0.473432
C30	C	1.165511	0.199249	0.526768
C31	C	1.158648	0.206136	0.648690
C32	C	1.118996	0.245896	0.351499
H33	H	0.650692	0.338605	0.000081
C34	C	0.614296	0.088792	0.000042
C35	C	0.515446	0.097348	0.000021
C36	C	0.469265	0.006386	-0.000044
H37	H	0.628615	0.058524	0.062317
H38	H	0.635694	0.051554	-0.062282
H39	H	0.494055	0.134571	0.062339
H40	H	0.501098	0.127599	-0.062249
H41	H	0.490663	-0.030851	-0.062368
H42	H	0.483592	-0.023874	0.062232
H43	H	0.402191	0.012179	-0.000068
H44	H	1.251413	-0.262115	0.000029
C45	C	1.001595	-0.298508	0.000140
C46	C	1.010152	-0.397357	0.000164
C47	C	0.919190	-0.443539	0.000231
H48	H	0.971320	-0.284198	-0.062136
H49	H	0.964365	-0.277100	0.062464
H50	H	1.047367	-0.418758	-0.062152
H51	H	1.040410	-0.411695	0.062436
H52	H	0.881960	-0.422131	0.062554
H53	H	0.888922	-0.429222	-0.062047
H54	H	0.924982	-0.510612	0.000257
H55	H	1.216364	0.148245	0.480864
C56	C	1.044430	0.320772	0.534823
C57	C	1.051028	0.314197	0.645298
C58	C	0.988688	0.376826	0.701899
H59	H	0.980786	0.304144	0.516597
H60	H	1.061324	0.384353	0.516516
H61	H	1.034128	0.250630	0.663598
H62	H	1.114657	0.330834	0.663556
H63	H	1.005582	0.440408	0.683592
H64	H	0.925048	0.360192	0.683664
H65	H	0.993162	0.372381	0.776861
