data_functionalizedCrystal
_audit_creation_method	'MofGen! by Chris Wilmer'
_symmetry_space_group_name_H-M	'P1'
_symmetry_Int_Tables_number	1
_symmetry_cell_setting	triclinic
loop_
_symmetry_equiv_pos_as_xyz
  x,y,z
_cell_length_a	19.121241
_cell_length_b	17.641144
_cell_length_c	17.640968
_cell_angle_alpha	87.822596
_cell_angle_beta	76.877407
_cell_angle_gamma	81.703563
loop_
_atom_site_label
_atom_site_type_symbol
_atom_site_fract_x
_atom_site_fract_y
_atom_site_fract_z
Zn1	Zn	1.196630	-0.149193	-0.534710
Zn2	Zn	1.205718	-0.301311	-0.433758
Zn3	Zn	1.061421	-0.182369	-0.402752
Zn4	Zn	1.106840	-0.281079	-0.557049
O5	O	1.142653	-0.228488	-0.482067
O6	O	1.295802	-0.163954	-0.524946
O7	O	1.171372	-0.307885	-0.322823
O8	O	1.056546	-0.072995	-0.397931
O9	O	1.302479	-0.275715	-0.450777
O10	O	1.155884	-0.048621	-0.494880
O11	O	1.065358	-0.220498	-0.300043
O12	O	0.969480	-0.200880	-0.419592
O13	O	1.133956	-0.241233	-0.660908
O14	O	1.002849	-0.273402	-0.532954
O15	O	1.199924	-0.144336	-0.644495
O16	O	1.215413	-0.403601	-0.472438
O17	O	1.142768	-0.388736	-0.563019
C18	C	1.185026	-0.423382	-0.523535
C19	C	1.203222	-0.506750	-0.541303
C20	C	0.960763	-0.238546	-0.475333
C21	C	0.882957	-0.242863	-0.472474
C22	C	1.004691	-0.844704	-0.347191
C23	C	1.021800	-0.923040	-0.363888
C24	C	1.125145	-0.897527	-0.464886
C25	C	1.108043	-0.819187	-0.448199
C26	C	1.047815	-0.792782	-0.389350
C27	C	1.151167	-0.767265	-0.490359
C28	C	1.134068	-0.688932	-0.473670
C29	C	1.073845	-0.662522	-0.414823
C30	C	1.030716	-0.714450	-0.372662
C31	C	1.211397	-0.793671	-0.549203
C32	C	1.254522	-0.741750	-0.591363
C33	C	1.237420	-0.663415	-0.574679
C34	C	1.177196	-0.637004	-0.515831
C35	C	1.280548	-0.611487	-0.616840
C36	C	1.263449	-0.533154	-0.600151
C37	C	1.160097	-0.558672	-0.499143
C38	C	0.842955	-0.186764	-0.509837
C39	C	0.769846	-0.190818	-0.507144
C40	C	0.736741	-0.250975	-0.467091
C41	C	0.776748	-0.307077	-0.429723
C42	C	0.849855	-0.303020	-0.432413
C43	C	0.516178	-0.266133	-0.457030
C44	C	0.443067	-0.270187	-0.454346
C45	C	0.436169	-0.153927	-0.531766
C46	C	0.509279	-0.149877	-0.534455
C47	C	0.549278	-0.205977	-0.497084
C48	C	0.662013	-0.255122	-0.464339
C49	C	0.624004	-0.201827	-0.499832
C50	C	1.325252	-0.218391	-0.488828
C51	C	1.403065	-0.214088	-0.491709
C52	C	1.170993	-0.186827	-0.681174
C53	C	1.183070	-0.169074	-0.766021
C54	C	1.100135	-0.032828	-0.440455
C55	C	1.082016	0.050550	-0.422723
C56	C	1.051086	-0.362935	-1.087802
C57	C	1.062446	-0.346243	-1.167527
C58	C	1.131134	-0.245353	-1.150428
C59	C	1.119776	-0.262034	-1.070699
C60	C	1.079752	-0.320827	-1.039392
C61	C	1.148442	-0.219926	-1.022289
C62	C	1.137088	-0.236609	-0.942568
C63	C	1.097068	-0.295400	-0.911255
C64	C	1.068398	-0.337510	-0.959671
C65	C	1.188470	-0.161137	-1.053598
C66	C	1.217136	-0.119029	-1.005189
C67	C	1.205778	-0.135708	-0.925465
C68	C	1.165757	-0.194499	-0.894152
C69	C	1.234447	-0.093599	-0.877049
C70	C	1.223093	-0.110281	-0.797328
C71	C	1.154403	-0.211182	-0.814431
C72	C	1.114451	-0.269930	-0.283725
C73	C	1.102464	-0.287465	-0.198838
H74	H	1.059926	-0.598738	-0.401233
O75	O	0.656225	-0.143482	-0.538844
C76	C	0.751333	-0.107420	-0.642813
C77	C	0.714891	-0.173564	-0.598707
H78	H	0.798780	-0.131717	-0.691211
H79	H	0.710232	-0.068017	-0.669122
H80	H	0.771994	-0.073554	-0.600713
H81	H	0.694229	-0.207487	-0.640757
H82	H	0.756018	-0.212912	-0.572385
O83	O	1.305279	-0.482613	-0.641008
C84	C	1.324710	-0.350621	-0.660089
C85	C	1.277284	-0.407777	-0.613750
H86	H	1.302086	-0.290102	-0.638080
H87	H	1.382623	-0.365581	-0.652084
H88	H	1.324505	-0.353866	-0.724455
H89	H	1.277428	-0.404563	-0.549368
H90	H	1.219394	-0.392799	-0.621820
H91	H	0.749787	-0.356056	-0.397107
O92	O	1.250843	-0.069270	-0.750304
C93	C	1.253652	0.055105	-0.700046
C94	C	1.222154	0.008753	-0.753315
H95	H	1.230482	0.118197	-0.702475
H96	H	1.238644	0.033139	-0.637668
H97	H	1.315199	0.048293	-0.720603
H98	H	1.160604	0.015545	-0.732828
H99	H	1.237219	0.030729	-0.815682
H100	H	0.403594	-0.108253	-0.562190
O101	O	1.228112	-0.869772	-0.565350
C102	C	1.317000	-0.982487	-0.572256
C103	C	1.298158	-0.896309	-0.553931
H104	H	1.373639	-1.003964	-0.563046
H105	H	1.275876	-1.015107	-0.532005
H106	H	1.315449	-0.992176	-0.635345
H107	H	1.299718	-0.886548	-0.490861
H108	H	1.339285	-0.863732	-0.594233
O109	O	1.339130	-0.637113	-0.673922
C110	C	1.468669	-0.646531	-0.720613
C111	C	1.402392	-0.617490	-0.655899
H112	H	1.519831	-0.630663	-0.706072
H113	H	1.473550	-0.711443	-0.725305
H114	H	1.461679	-0.618940	-0.778407
H115	H	1.409334	-0.645024	-0.598070
H116	H	1.397531	-0.552574	-0.651276
H117	H	1.111050	-0.537172	-0.451228
H118	H	1.121791	-0.259040	-0.788935
H119	H	0.869904	-0.137779	-0.542455
H120	H	1.303560	-0.763260	-0.639276
H121	H	0.882423	-0.348701	-0.401987
O122	O	0.730923	-0.136273	-0.543316
C123	C	0.627818	-0.037444	-0.529192
C124	C	0.671842	-0.099178	-0.488124
H125	H	0.580034	-0.007446	-0.484590
H126	H	0.663990	0.006298	-0.558261
H127	H	0.606813	-0.065522	-0.575146
H128	H	0.692855	-0.071168	-0.442136
H129	H	0.635641	-0.142913	-0.459107
O130	O	0.541312	-0.091365	-0.573360
C131	C	0.526760	0.023505	-0.649891
C132	C	0.490389	-0.042709	-0.605844
H133	H	0.485609	0.062852	-0.676180
H134	H	0.547430	0.057414	-0.607831
H135	H	0.574190	-0.000768	-0.698319
H136	H	0.442932	-0.018501	-0.557417
H137	H	0.469770	-0.076608	-0.647954
H138	H	1.174184	-0.919037	-0.512798
H139	H	0.635051	-0.304102	-0.431728
O140	O	1.086165	-0.311605	-0.833819
C141	C	1.141166	-0.351155	-0.725997
C142	C	1.153618	-0.332809	-0.813697
H143	H	1.195691	-0.368319	-0.709704
H144	H	1.110970	-0.298402	-0.691419
H145	H	1.107606	-0.400384	-0.711952
H146	H	1.187195	-0.283604	-0.827815
H147	H	1.183781	-0.385602	-0.848228
H148	H	0.416117	-0.319178	-0.421730
O149	O	0.972132	-0.688870	-0.315554
C150	C	0.842576	-0.679336	-0.268951
C151	C	0.908859	-0.708366	-0.333663
H152	H	0.791401	-0.695073	-0.283577
H153	H	0.849451	-0.706952	-0.211130
H154	H	0.837804	-0.614435	-0.264262
H155	H	0.913670	-0.773261	-0.338423
H156	H	0.901955	-0.680692	-0.391450
O157	O	1.029543	-0.394681	-0.929388
C158	C	0.962605	-0.493000	-0.954754
C159	C	1.006593	-0.428280	-0.989151
H160	H	0.944025	-0.520173	-1.003053
H161	H	0.997955	-0.538294	-0.927002
H162	H	0.913224	-0.468405	-0.908721
H163	H	1.055977	-0.452806	-1.035213
H164	H	0.971192	-0.382997	-1.016853
O165	O	1.012231	-0.420106	-1.057519
C166	C	0.945293	-0.518425	-1.082885
C167	C	0.989281	-0.453706	-1.117282
H168	H	0.926713	-0.545599	-1.131184
H169	H	0.980643	-0.563719	-1.055133
H170	H	0.895912	-0.493831	-1.036852
H171	H	1.038665	-0.478231	-1.163344
H172	H	0.953880	-0.408422	-1.144984
O173	O	0.554932	-0.320709	-0.420718
C174	C	0.554040	-0.436425	-0.343604
C175	C	0.510068	-0.374676	-0.384711
H176	H	0.517782	-0.480064	-0.314468
H177	H	0.601784	-0.466544	-0.388170
H178	H	0.575099	-0.408344	-0.297693
H179	H	0.488960	-0.402696	-0.430619
H180	H	0.462361	-0.344562	-0.340099
O181	O	1.034715	-0.387211	-1.214609
C182	C	1.060116	-0.470127	-1.325846
C183	C	1.091617	-0.423782	-1.272574
H184	H	1.106105	-0.499694	-1.372733
H185	H	1.029588	-0.515059	-1.289822
H186	H	1.021321	-0.429888	-1.354451
H187	H	1.130442	-0.463961	-1.243957
H188	H	1.122101	-0.378842	-1.308636
H189	H	1.163723	-0.197486	-1.175929
O190	O	1.199534	-0.145066	-1.131069
C191	C	1.249478	-0.192028	-1.261435
C192	C	1.236981	-0.210337	-1.173724
H193	H	1.279769	-0.244783	-1.295947
H194	H	1.194981	-0.174964	-1.277820
H195	H	1.282983	-0.142755	-1.275468
H196	H	1.203502	-0.259623	-1.159627
H197	H	1.291504	-0.227356	-1.157385
O198	O	1.255899	-0.061839	-1.035617
C199	C	1.256136	0.058771	-1.104476
C200	C	1.212150	-0.005938	-1.070037
H201	H	1.220788	0.103975	-1.132327
H202	H	1.274653	0.086065	-1.056202
H203	H	1.305555	0.034144	-1.150445
H204	H	1.162701	0.018628	-1.024078
H205	H	1.193688	-0.033223	-1.118354
O206	O	0.946171	-0.819179	-0.289984
C207	C	0.845421	-0.852737	-0.191608
C208	C	0.911681	-0.881751	-0.256354
H209	H	0.817507	-0.903310	-0.164410
H210	H	0.863860	-0.822639	-0.145043
H211	H	0.805810	-0.810767	-0.217481
H212	H	0.951319	-0.923749	-0.230551
H213	H	0.893188	-0.911804	-0.302909
O214	O	0.979905	-0.973543	-0.323054
C215	C	0.903217	-1.069449	-0.328051
C216	C	0.950650	-1.012299	-0.374392
H217	H	0.879539	-1.100788	-0.369536
H218	H	0.937691	-1.112716	-0.297189
H219	H	0.857263	-1.037109	-0.283104
H220	H	0.996610	-1.044574	-0.419378
H221	H	0.916126	-0.969034	-0.405200
O222	O	1.273285	-0.036497	-0.907587
C223	C	1.321268	0.033879	-1.022836
C224	C	1.277255	-0.030796	-0.988352
H225	H	1.324505	0.038498	-1.088141
H226	H	1.293602	0.090438	-0.993901
H227	H	1.378329	0.020543	-1.011994
H228	H	1.220189	-0.017534	-0.999184
H229	H	1.304978	-0.087336	-1.017289
