data_functionalizedCrystal
_audit_creation_method	'MofGen! by Chris Wilmer'
_symmetry_space_group_name_H-M	'P1'
_symmetry_Int_Tables_number	1
_symmetry_cell_setting	triclinic
loop_
_symmetry_equiv_pos_as_xyz
  x,y,z
_cell_length_a	17.077404
_cell_length_b	13.897447
_cell_length_c	17.077396
_cell_angle_alpha	90.026095
_cell_angle_beta	90.019501
_cell_angle_gamma	90.019755
loop_
_atom_site_label
_atom_site_type_symbol
_atom_site_fract_x
_atom_site_fract_y
_atom_site_fract_z
Zn1	Zn	1.200073	-0.384009	0.443856
Zn2	Zn	1.199988	-0.545322	0.312595
Zn3	Zn	1.068805	-0.384043	0.312604
Zn4	Zn	1.068780	-0.545264	0.443819
O5	O	1.134411	-0.464660	0.378218
O6	O	1.309909	-0.405417	0.426456
O7	O	1.182561	-0.523966	0.202749
O8	O	1.086264	-0.249057	0.330034
O9	O	1.309846	-0.523933	0.330019
O10	O	1.182706	-0.249032	0.426464
O11	O	1.086181	-0.405475	0.202756
O12	O	0.958955	-0.405420	0.329998
O13	O	1.086222	-0.523835	0.553671
O14	O	0.958937	-0.523868	0.426401
O15	O	1.182682	-0.405362	0.553698
O16	O	1.182537	-0.680296	0.329983
O17	O	1.086139	-0.680254	0.426393
C18	C	0.930464	-0.464642	0.378197
C19	C	0.843214	-0.464658	0.378206
C20	C	1.134348	-0.715274	0.378200
C21	C	1.134392	-0.822488	0.378219
C22	C	0.802235	-0.526427	0.428323
C23	C	0.720254	-0.526429	0.428335
C24	C	0.679254	-0.464666	0.378227
C25	C	0.720239	-0.402890	0.328108
C26	C	0.802218	-0.402884	0.328100
C27	C	0.549369	-0.402909	0.328127
C28	C	0.467384	-0.402916	0.328133
C29	C	0.467405	-0.526454	0.428362
C30	C	0.549384	-0.526448	0.428354
C31	C	0.590363	-0.464673	0.378234
C32	C	1.134430	-0.909558	0.378237
C33	C	1.134485	-1.018790	0.378257
C34	C	1.339156	-0.464678	0.378241
C35	C	1.426405	-0.464686	0.378250
C36	C	1.134459	-0.464588	0.582963
C37	C	1.134479	-0.464558	0.670213
C38	C	1.134497	-0.213067	0.378254
C39	C	1.134533	-0.105853	0.378269
C40	C	1.134409	-0.464661	0.174271
C41	C	1.134541	-0.464419	0.087021
C42	C	1.184708	-0.402864	0.711218
C43	C	1.184717	-0.402832	0.793199
C44	C	1.134501	-0.464500	0.834172
C45	C	1.084267	-0.526197	0.793161
C46	C	1.084255	-0.526223	0.711182
C47	C	1.084299	-0.526139	0.964031
C48	C	1.084313	-0.526114	1.046016
C49	C	1.184762	-0.402747	1.046048
C50	C	1.184749	-0.402774	0.964069
C51	C	1.134516	-0.464472	0.923063
H52	H	0.835611	-0.576725	0.469124
C53	C	0.422286	-0.334970	0.273014
N54	N	0.388318	-0.283791	0.231498
H55	H	0.686850	-0.352597	0.287312
C56	C	0.675181	-0.594399	0.483452
N57	N	0.641233	-0.645603	0.524964
H58	H	0.835582	-0.352580	0.287294
C59	C	1.029001	-0.594093	0.666076
N60	N	0.987380	-0.645214	0.632103
C61	C	1.029068	-0.593945	1.091085
N62	N	0.987456	-0.645036	1.125031
H63	H	1.225662	-0.352508	1.079438
H64	H	1.225620	-0.352596	0.826582
C65	C	0.422327	-0.594403	0.483499
N66	N	0.388370	-0.645582	0.525025
C67	C	1.239949	-0.335022	0.666155
N68	N	1.281556	-0.283918	0.632215
H69	H	1.225643	-0.352564	0.930710
H70	H	1.043381	-0.576365	0.930647
C71	C	0.594444	-0.334955	0.272990
N72	N	0.628394	-0.283778	0.231458
C73	C	1.029022	-0.594023	0.838235
N74	N	0.987409	-0.645110	0.872183
H75	H	0.582764	-0.576746	0.469153
