data_functionalizedCrystal
_audit_creation_method	'MofGen! by Chris Wilmer'
_symmetry_space_group_name_H-M	'P1'
_symmetry_Int_Tables_number	1
_symmetry_cell_setting	triclinic
loop_
_symmetry_equiv_pos_as_xyz
  x,y,z
_cell_length_a	10.540539
_cell_length_b	10.540539
_cell_length_c	12.996460
_cell_angle_alpha	89.996006
_cell_angle_beta	89.996491
_cell_angle_gamma	84.525492
loop_
_atom_site_label
_atom_site_type_symbol
_atom_site_fract_x
_atom_site_fract_y
_atom_site_fract_z
O1	O	1.685889	0.178903	-0.085513
O2	O	1.316476	0.195759	-0.085525
O3	O	1.509610	0.002624	-0.085518
O4	O	1.492755	0.372037	-0.085521
O5	O	1.509590	0.002613	0.085616
O6	O	1.316456	0.195748	0.085609
O7	O	1.685869	0.178892	0.085621
Cu8	Cu	1.501160	0.187319	0.101241
Cu9	Cu	1.501184	0.187332	-0.101145
O10	O	1.492734	0.372026	0.085613
C11	C	1.269163	0.194489	0.000040
C12	C	1.128215	0.190707	0.000035
C13	C	0.944788	0.045790	0.000436
C14	C	1.091406	0.049624	0.000040
C15	C	1.066554	0.258609	-0.097687
C16	C	0.920009	0.253794	-0.097758
C17	C	0.919498	0.256652	0.096853
C18	C	1.066480	0.257951	0.098134
C19	C	1.508336	-0.044684	0.000047
C20	C	1.504554	-0.185632	0.000042
C21	C	1.359637	-0.369059	-0.000347
C22	C	1.363471	-0.222441	0.000038
C23	C	1.572438	-0.247296	0.097770
C24	C	1.567623	-0.393841	0.097852
C25	C	1.570516	-0.394346	-0.096759
C26	C	1.571815	-0.247364	-0.098051
C27	C	1.733182	0.180161	0.000053
C28	C	1.874130	0.183943	0.000051
C29	C	1.494008	0.419335	0.000046
C30	C	1.497790	0.560283	0.000045
N31	N	1.501153	0.187309	0.243588
N32	N	1.501202	0.187332	-0.243492
C33	C	1.501183	0.187333	0.663402
C34	C	1.501171	0.187331	0.546597
C35	C	1.501168	0.187322	0.453498
C36	C	1.501155	0.187318	0.336686
H37	H	1.133160	-0.004171	-0.070133
C38	C	0.882554	0.187034	-0.195273
C39	C	0.919297	0.254761	-0.281235
C40	C	0.884838	0.193287	-0.371083
H41	H	0.792857	0.183467	-0.196340
H42	H	0.923977	0.102957	-0.196850
H43	H	0.877871	0.338815	-0.279659
H44	H	1.008990	0.258330	-0.280202
H45	H	0.926261	0.109210	-0.372660
H46	H	0.795141	0.189724	-0.372139
H47	H	0.909774	0.239224	-0.429419
C48	C	1.509655	-0.436152	-0.195614
C49	C	1.468313	-0.328629	-0.254227
C50	C	1.412244	-0.367089	-0.345297
H51	H	1.438914	-0.481983	-0.179433
H52	H	1.570423	-0.489335	-0.233823
H53	H	1.407551	-0.275467	-0.216025
H54	H	1.539031	-0.282785	-0.270435
H55	H	1.473012	-0.420273	-0.383507
H56	H	1.341508	-0.412921	-0.329107
H57	H	1.384198	-0.294143	-0.385082
H58	H	1.107433	0.208346	0.170429
C59	C	1.706458	-0.457141	-0.097796
C60	C	1.770235	-0.415968	-0.184322
C61	C	1.895465	-0.473780	-0.185295
H62	H	1.705331	-0.547089	-0.100358
H63	H	1.749281	-0.434317	-0.037200
H64	H	1.727423	-0.438801	-0.244902
H65	H	1.771397	-0.326028	-0.181779
H66	H	1.938288	-0.450955	-0.124699
H67	H	1.894325	-0.563725	-0.187854
H68	H	1.938757	-0.445843	-0.243996
H69	H	1.134012	-0.003803	0.070092
H70	H	0.916194	-0.009950	0.070519
H71	H	0.914589	-0.009706	-0.069255
H72	H	1.522145	-0.206501	-0.170348
H73	H	1.090705	0.360809	0.104033
C74	C	1.708877	-0.214824	-0.106088
C75	C	1.724909	-0.149069	-0.198074
C76	C	1.851142	-0.119023	-0.205498
H77	H	1.764738	-0.291064	-0.105331
H78	H	1.727764	-0.162782	-0.049485
H79	H	1.706036	-0.201109	-0.254662
H80	H	1.669077	-0.072815	-0.198851
H81	H	1.870028	-0.066982	-0.148895
H82	H	1.906992	-0.195269	-0.204738
H83	H	1.862033	-0.074395	-0.267905
H84	H	0.872041	0.355259	-0.102195
H85	H	1.088907	0.362217	-0.101324
C86	C	0.877255	0.195864	0.195610
C87	C	0.798774	0.285553	0.251706
C88	C	0.759827	0.229532	0.342653
H89	H	0.949953	0.167673	0.235608
H90	H	0.831348	0.125220	0.179249
H91	H	0.844681	0.356174	0.268070
H92	H	0.726058	0.313751	0.211739
H93	H	0.713919	0.158889	0.326291
H94	H	0.832532	0.201343	0.382641
H95	H	0.706564	0.290374	0.380720
H96	H	1.309664	-0.180689	0.070207
H97	H	1.109151	0.211449	-0.170414
C98	C	1.500605	-0.431195	0.195284
C99	C	1.464830	-0.321865	0.253526
C100	C	1.403071	-0.356217	0.343280
H101	H	1.556691	-0.488207	0.234477
H102	H	1.426870	-0.471633	0.177463
H103	H	1.538554	-0.281447	0.271349
H104	H	1.408729	-0.264841	0.214364
H105	H	1.329336	-0.396654	0.325459
H106	H	1.459165	-0.413230	0.382465
H107	H	1.378780	-0.282042	0.382804
H108	H	1.304124	-0.399271	0.069339
H109	H	1.310055	-0.179833	-0.070017
C110	C	0.856781	0.392626	0.097692
C111	C	0.950931	0.477693	0.094495
C112	C	0.893206	0.602959	0.095248
H113	H	0.807758	0.406655	0.158669
H114	H	0.802792	0.405871	0.039376
H115	H	1.004898	0.464454	0.152805
H116	H	0.999960	0.463705	0.033522
H117	H	0.839218	0.616204	0.036933
H118	H	0.844185	0.616974	0.156226
H119	H	0.957077	0.660692	0.093070
C120	C	1.285355	-0.406944	-0.093884
C121	C	1.248924	-0.298522	-0.153019
C122	C	1.180510	-0.333384	-0.239204
H123	H	1.211546	-0.444611	-0.072055
H124	H	1.337485	-0.466462	-0.134078
H125	H	1.196795	-0.239026	-0.112833
H126	H	1.322708	-0.260841	-0.174875
H127	H	1.232640	-0.392902	-0.279398
H128	H	1.106706	-0.371052	-0.217365
H129	H	1.155793	-0.259828	-0.279342
H130	H	1.669088	-0.441809	0.102289
H131	H	1.676045	-0.224942	0.101407
H132	H	1.525266	-0.204701	0.170493
