data_functionalizedCrystal
_audit_creation_method	'MofGen! by Chris Wilmer'
_symmetry_space_group_name_H-M	'P1'
_symmetry_Int_Tables_number	1
_symmetry_cell_setting	triclinic
loop_
_symmetry_equiv_pos_as_xyz
  x,y,z
_cell_length_a	14.519731
_cell_length_b	15.944493
_cell_length_c	12.996460
_cell_angle_alpha	89.999729
_cell_angle_beta	89.994327
_cell_angle_gamma	83.581948
loop_
_atom_site_label
_atom_site_type_symbol
_atom_site_fract_x
_atom_site_fract_y
_atom_site_fract_z
O1	O	1.223639	0.110197	-0.085555
O2	O	1.473639	0.360197	0.164445
O3	O	1.723639	0.610197	0.414445
O4	O	1.973639	0.860197	0.664445
O5	O	0.955139	0.123146	-0.085555
O6	O	1.205139	0.373146	0.164445
O7	O	1.455139	0.623146	0.414445
O8	O	1.705139	0.873146	0.664445
O9	O	1.096749	-0.005596	-0.085564
O10	O	1.346749	0.244404	0.164436
O11	O	1.596749	0.494404	0.414436
O12	O	1.846749	0.744404	0.664436
O13	O	1.082029	0.238938	-0.085547
O14	O	1.332029	0.488938	0.164453
O15	O	1.582029	0.738938	0.414453
O16	O	1.832029	0.988938	0.664453
O17	O	1.096734	-0.005603	0.085570
O18	O	1.346734	0.244397	0.335570
O19	O	1.596734	0.494397	0.585570
O20	O	1.846734	0.744397	0.835570
O21	O	0.955124	0.123138	0.085579
O22	O	1.205124	0.373138	0.335579
O23	O	1.455124	0.623138	0.585579
O24	O	1.705124	0.873138	0.835579
O25	O	1.223624	0.110190	0.085579
O26	O	1.473624	0.360190	0.335579
O27	O	1.723624	0.610190	0.585579
O28	O	1.973624	0.860190	0.835579
Cu29	Cu	1.089373	0.116664	0.101205
Cu30	Cu	1.339373	0.366664	0.351205
Cu31	Cu	1.589373	0.616664	0.601205
Cu32	Cu	1.839373	0.866664	0.851205
Cu33	Cu	1.089390	0.116672	-0.101181
Cu34	Cu	1.339390	0.366672	0.148819
Cu35	Cu	1.589390	0.616672	0.398819
Cu36	Cu	1.839390	0.866672	0.648819
O37	O	1.082014	0.238931	0.085587
O38	O	1.332014	0.488931	0.335587
O39	O	1.582014	0.738931	0.585587
O40	O	1.832014	0.988931	0.835587
C41	C	0.920773	0.122535	0.000012
C42	C	1.170773	0.372535	0.250012
C43	C	1.420773	0.622535	0.500012
C44	C	1.670773	0.872535	0.750012
C45	C	0.818397	0.120717	0.000011
C46	C	1.068397	0.370717	0.250011
C47	C	1.318397	0.620717	0.500011
C48	C	1.568397	0.870717	0.750011
C49	C	0.735255	0.119240	0.000007
C50	C	0.985255	0.369240	0.250007
C51	C	1.235255	0.619240	0.500007
C52	C	1.485255	0.869240	0.750007
C53	C	0.630950	0.117394	0.000006
C54	C	0.880950	0.367394	0.250006
C55	C	1.130950	0.617394	0.500006
C56	C	1.380950	0.867394	0.750006
C57	C	0.547814	0.115929	0.000006
C58	C	0.797814	0.365929	0.250006
C59	C	1.047814	0.615929	0.500006
C60	C	1.297814	0.865929	0.750006
C61	C	0.443502	0.114083	0.000004
C62	C	0.693502	0.364083	0.250004
C63	C	0.943502	0.614083	0.500004
C64	C	1.193502	0.864083	0.750004
C65	C	1.096140	-0.036895	-0.000001
C66	C	1.346140	0.213105	0.249999
C67	C	1.596140	0.463105	0.499999
C68	C	1.846140	0.713105	0.749999
C69	C	1.094336	-0.130146	-0.000014
C70	C	1.344336	0.119854	0.249986
C71	C	1.594336	0.369854	0.499986
C72	C	1.844336	0.619854	0.749986
C73	C	1.177691	-0.365779	0.000005
C74	C	1.427691	-0.115779	0.250005
C75	C	1.677691	0.134221	0.500005
C76	C	1.927691	0.384221	0.750005
C77	C	1.132748	-0.416412	-0.084372
C78	C	1.382748	-0.166412	0.165628
C79	C	1.632748	0.083588	0.415628
C80	C	1.882748	0.333588	0.665628
C81	C	1.090994	-0.300872	-0.000002
C82	C	1.340994	-0.050872	0.249998
C83	C	1.590994	0.199128	0.499998
C84	C	1.840994	0.449128	0.749998
C85	C	1.132713	-0.416395	0.084352
C86	C	1.382713	-0.166395	0.334352
C87	C	1.632713	0.083605	0.584352
C88	C	1.882713	0.333605	0.834352
C89	C	1.087772	-0.465787	0.000015
C90	C	1.337772	-0.215787	0.250015
C91	C	1.587772	0.034213	0.500015
C92	C	1.837772	0.284213	0.750015
C93	C	1.046074	-0.350277	-0.084449
C94	C	1.296074	-0.100277	0.165551
C95	C	1.546074	0.149723	0.415551
C96	C	1.796074	0.399723	0.665551
C97	C	1.046052	-0.350257	0.084352
C98	C	1.296052	-0.100257	0.334352
C99	C	1.546052	0.149743	0.584352
C100	C	1.796052	0.399743	0.834352
C101	C	1.001046	-0.400857	-0.000046
C102	C	1.251046	-0.150857	0.249954
C103	C	1.501046	0.099143	0.499954
C104	C	1.751046	0.349143	0.749954
C105	C	1.092852	-0.205870	-0.000012
C106	C	1.342852	0.044130	0.249988
C107	C	1.592852	0.294130	0.499988
C108	C	1.842852	0.544130	0.749988
C109	C	1.085907	-0.560787	0.000018
C110	C	1.335907	-0.310787	0.250018
C111	C	1.585907	-0.060787	0.500018
C112	C	1.835907	0.189213	0.750018
C113	C	1.257990	0.110800	0.000010
C114	C	1.507990	0.360800	0.250010
C115	C	1.757990	0.610800	0.500010
C116	C	2.007990	0.860800	0.750010
C117	C	1.360366	0.112618	0.000004
C118	C	1.610366	0.362618	0.250004
C119	C	1.860366	0.612618	0.500004
C120	C	2.110366	0.862618	0.750004
C121	C	1.082623	0.270231	0.000022
C122	C	1.332623	0.520231	0.250022
C123	C	1.582623	0.770231	0.500022
C124	C	1.832623	1.020231	0.750022
C125	C	1.084427	0.363482	0.000029
C126	C	1.334427	0.613482	0.250029
C127	C	1.584427	0.863482	0.500029
C128	C	1.834427	1.113482	0.750029
N129	N	1.089367	0.116657	0.243552
N130	N	1.339367	0.366657	0.493552
N131	N	1.589367	0.616657	0.743552
N132	N	1.839367	0.866657	0.993552
N133	N	1.089403	0.116672	-0.243528
N134	N	1.339403	0.366672	0.006472
N135	N	1.589403	0.616672	0.256472
N136	N	1.839403	0.866672	0.506472
C137	C	1.089389	0.116673	0.663366
C138	C	1.339389	0.366673	0.913366
C139	C	1.589389	0.616673	1.163366
C140	C	1.839389	0.866673	1.413366
C141	C	1.089380	0.116671	0.546561
C142	C	1.339380	0.366671	0.796561
C143	C	1.589380	0.616671	1.046561
C144	C	1.839380	0.866671	1.296561
C145	C	1.089378	0.116666	0.453462
C146	C	1.339378	0.366666	0.703462
C147	C	1.589378	0.616666	0.953462
C148	C	1.839378	0.866666	1.203462
C149	C	1.089369	0.116663	0.336650
C150	C	1.339369	0.366663	0.586650
C151	C	1.589369	0.616663	0.836650
C152	C	1.839369	0.866663	1.086650
H153	H	1.252369	-0.350037	-0.000080
H154	H	1.502369	-0.100037	0.249920
H155	H	1.752369	0.149963	0.499920
H156	H	2.002369	0.399963	0.749920
Br157	Br	0.985089	-0.302060	0.203256
Br158	Br	1.235089	-0.052060	0.453256
Br159	Br	1.485089	0.197940	0.703256
Br160	Br	1.735089	0.447940	0.953256
H161	H	1.169368	-0.445299	-0.155708
H162	H	1.419368	-0.195299	0.094292
H163	H	1.669368	0.054701	0.344292
H164	H	1.919368	0.304701	0.594292
Br165	Br	1.193755	-0.464528	0.203240
Br166	Br	1.443755	-0.214528	0.453240
Br167	Br	1.693755	0.035472	0.703240
Br168	Br	1.943755	0.285472	0.953240
H169	H	1.009488	-0.321510	-0.155859
H170	H	1.259488	-0.071510	0.094141
H171	H	1.509488	0.178490	0.344141
H172	H	1.759488	0.428490	0.594141
H173	H	0.926309	-0.416436	-0.000093
H174	H	1.176309	-0.166436	0.249907
H175	H	1.426309	0.083564	0.499907
H176	H	1.676309	0.333564	0.749907
