data_functionalizedCrystal
_audit_creation_method	'MofGen! by Chris Wilmer'
_symmetry_space_group_name_H-M	'P1'
_symmetry_Int_Tables_number	1
_symmetry_cell_setting	triclinic
loop_
_symmetry_equiv_pos_as_xyz
  x,y,z
_cell_length_a	13.262430
_cell_length_b	11.804365
_cell_length_c	9.065218
_cell_angle_alpha	77.989386
_cell_angle_beta	95.286412
_cell_angle_gamma	62.657049
loop_
_atom_site_label
_atom_site_type_symbol
_atom_site_fract_x
_atom_site_fract_y
_atom_site_fract_z
O1	O	-1.519501	0.591189	0.021657
O2	O	-1.191682	0.485010	0.075066
O3	O	-1.362367	0.540291	-0.167017
O4	O	-1.348816	0.535907	0.263740
O5	O	-1.317432	0.327682	-0.103346
O6	O	-1.146747	0.272400	0.138738
O7	O	-1.474566	0.378579	0.085328
Cu8	Cu	-1.306553	0.306077	0.117847
Cu9	Cu	-1.359695	0.557512	0.042548
O10	O	-1.303881	0.323298	0.327412
C11	C	-1.127225	0.365105	0.109764
C12	C	-1.002108	0.324580	0.118276
C13	C	-0.747414	0.673942	0.003413
C14	C	-0.864968	0.712019	-0.004591
C15	C	-0.899259	0.615163	0.026125
C16	C	-0.815983	0.480223	0.064847
C17	C	-0.698418	0.442142	0.072841
C18	C	-0.850264	0.383363	0.095553
C19	C	-0.766988	0.248423	0.134275
C20	C	-0.649435	0.210349	0.142268
C21	C	-0.615144	0.307205	0.111551
C22	C	-0.967829	0.421443	0.087559
C23	C	-0.918834	0.189644	0.156986
C24	C	-0.801279	0.151567	0.164991
N25	N	-1.269185	0.129233	0.170806
C26	C	-1.486807	-0.174232	-0.137627
C27	C	-1.515075	-0.040415	-0.177697
C28	C	-1.453605	0.002004	-0.090575
C29	C	-1.363862	-0.089408	0.036624
C30	C	-1.335597	-0.223236	0.076705
C31	C	-1.302395	-0.047000	0.123758
C32	C	-1.212652	-0.138412	0.250957
C33	C	-1.184392	-0.272227	0.291031
C34	C	-1.245862	-0.314646	0.203909
C35	C	-1.330660	0.086828	0.083677
C36	C	-1.179450	0.037824	0.298009
C37	C	-1.151182	-0.095993	0.338079
C38	C	-0.539023	0.498483	0.050631
C39	C	-0.664139	0.539005	0.042124
C40	C	-1.338598	0.433567	-0.190027
C41	C	-1.334705	0.432312	-0.353448
N42	N	-1.397072	0.734359	-0.010424
C43	C	-1.327651	0.430025	0.350421
C44	C	-1.331546	0.431289	0.513839
H45	H	-0.946751	0.110775	0.181996
H46	H	-0.932764	0.821887	-0.036127
H47	H	-1.476625	0.110965	-0.123206
Cl48	Cl	-1.627888	0.074498	-0.337594
Cl49	Cl	-0.704304	0.795690	-0.035274
H50	H	-1.536854	-0.208778	-0.208544
H51	H	-0.519423	0.276210	0.118072
Cl52	Cl	-1.210319	-0.482882	0.254279
Cl53	Cl	-0.696578	-0.018067	0.213667
H54	H	-1.111327	-0.346653	0.394614
Cl55	Cl	-1.038366	-0.210922	0.497984
H56	H	-1.129397	0.072359	0.368955
Cl57	Cl	-1.072503	0.591076	0.038884
Cl58	Cl	-1.047044	0.663034	0.016069
Cl59	Cl	-0.544749	0.040710	0.190940
H60	H	-1.403728	0.161245	-0.019889
