data_functionalizedCrystal
_audit_creation_method	'MofGen! by Chris Wilmer'
_symmetry_space_group_name_H-M	'P1'
_symmetry_Int_Tables_number	1
_symmetry_cell_setting	triclinic
loop_
_symmetry_equiv_pos_as_xyz
  x,y,z
_cell_length_a	16.109301
_cell_length_b	16.053802
_cell_length_c	16.109301
_cell_angle_alpha	92.563380
_cell_angle_beta	96.538519
_cell_angle_gamma	92.577771
loop_
_atom_site_label
_atom_site_type_symbol
_atom_site_fract_x
_atom_site_fract_y
_atom_site_fract_z
O1	O	1.106638	0.069379	-0.103368
O2	O	1.606638	0.569379	0.396632
O3	O	0.864576	0.069392	-0.116667
O4	O	1.364576	0.569392	0.383333
O5	O	0.992256	0.069377	0.011013
O6	O	1.492256	0.569377	0.511013
O7	O	0.978958	0.069395	-0.231048
O8	O	1.478958	0.569395	0.268952
O9	O	0.985228	-0.069481	0.004014
O10	O	1.485228	0.430519	0.504014
O11	O	0.857549	-0.069466	-0.123666
O12	O	1.357549	0.430534	0.376334
O13	O	1.099610	-0.069479	-0.110367
O14	O	1.599610	0.430521	0.389633
Zn15	Zn	0.977463	-0.091519	-0.118128
Zn16	Zn	1.477463	0.408481	0.381872
Zn17	Zn	0.986723	0.091432	-0.108906
Zn18	Zn	1.486723	0.591432	0.391094
O19	O	0.971930	-0.069464	-0.238047
O20	O	1.471930	0.430536	0.261953
C21	C	0.830088	-0.000035	-0.119628
C22	C	1.330088	0.499965	0.380372
C23	C	0.737793	-0.000030	-0.118012
C24	C	1.237793	0.499970	0.381988
N25	N	0.971150	-0.216379	-0.124420
N26	N	1.471150	0.283621	0.375580
C27	C	0.515520	-0.000034	-0.190020
C28	C	1.015520	0.499966	0.309980
C29	C	0.428799	-0.000040	-0.188496
C30	C	0.928799	0.499960	0.311504
C31	C	0.448673	-0.000048	-0.037008
C32	C	0.948673	0.499952	0.462992
C33	C	0.535392	-0.000048	-0.038533
C34	C	1.035392	0.499952	0.461467
C35	C	0.568813	-0.000037	-0.115041
C36	C	1.068813	0.499963	0.384959
C37	C	0.395374	-0.000042	-0.111992
C38	C	0.895374	0.499958	0.388008
C39	C	0.301347	-0.000048	-0.110340
C40	C	0.801347	0.499952	0.389660
C41	C	0.662845	-0.000033	-0.116694
C42	C	1.162845	0.499967	0.383306
C43	C	1.025498	-0.260079	-0.070112
C44	C	1.525498	0.239921	0.429888
C45	C	1.021089	-0.347485	-0.074522
C46	C	1.521089	0.152515	0.425478
C47	C	0.962337	-0.391189	-0.133245
C48	C	1.462337	0.108811	0.366755
C49	C	0.907983	-0.347483	-0.187556
C50	C	1.407983	0.152517	0.312444
C51	C	0.912388	-0.260078	-0.183141
C52	C	1.412388	0.239922	0.316859
C53	C	0.943094	-0.652597	-0.152504
C54	C	1.443094	-0.152597	0.347496
C55	C	0.938695	-0.740008	-0.156916
C56	C	1.438695	-0.240008	0.343084
C57	C	1.051801	-0.740004	-0.043880
C58	C	1.551801	-0.240004	0.456120
C59	C	1.056204	-0.652598	-0.039474
C60	C	1.556204	-0.152598	0.460526
C61	C	1.001848	-0.608899	-0.093782
C62	C	1.501848	-0.108899	0.406218
N63	N	0.957831	-0.480533	-0.137755
N64	N	1.457831	0.019467	0.362245
N65	N	1.006350	-0.519557	-0.089267
N66	N	1.506350	-0.019557	0.410733
C67	C	1.134099	-0.000050	-0.107406
C68	C	1.634099	0.499950	0.392594
C69	C	1.226394	-0.000049	-0.109021
C70	C	1.726394	0.499951	0.390979
C71	C	0.988204	-0.000053	0.038488
C72	C	1.488204	0.499947	0.538488
C73	C	0.986588	-0.000054	0.130784
C74	C	1.486588	0.499946	0.630784
N75	N	0.993043	0.216292	-0.102607
N76	N	1.493043	0.716292	0.397393
C77	C	0.975983	-0.000032	-0.265522
C78	C	1.475983	0.499968	0.234478
C79	C	0.977598	-0.000026	-0.357817
C80	C	1.477598	0.499974	0.142183
C81	C	1.058597	-0.000045	0.353057
C82	C	1.558597	0.499955	0.853057
C83	C	1.057073	-0.000038	0.439777
C84	C	1.557073	0.499962	0.939777
C85	C	0.905584	-0.000032	0.419903
C86	C	1.405584	0.499968	0.919903
C87	C	0.907109	-0.000033	0.333184
C88	C	1.407109	0.499967	0.833184
C89	C	0.983618	-0.000044	0.299763
C90	C	1.483618	0.499956	0.799763
C91	C	0.980569	-0.000036	0.473203
C92	C	1.480569	0.499964	0.973203
C93	C	0.978916	-0.000028	0.567229
C94	C	1.478916	0.499972	1.067229
C95	C	0.985271	-0.000050	0.205731
C96	C	1.485271	0.499950	0.705731
H97	H	0.385411	-0.000039	-0.249552
H98	H	0.885411	0.499961	0.250448
H99	H	0.578786	-0.000053	0.022528
H100	H	1.078786	0.499947	0.522528
H101	H	0.846049	-0.000030	0.289791
H102	H	1.346049	0.499970	0.789791
C103	C	0.411911	-0.000049	0.047147
C104	C	0.911911	0.499951	0.547147
H105	H	0.456073	-0.000058	0.091583
H106	H	0.956073	0.499942	0.591583
H107	H	0.380945	0.048374	0.053329
H108	H	0.880945	0.548374	0.553329
H109	H	0.376047	-0.048477	0.048452
H110	H	0.876047	0.451523	0.548452
H111	H	0.542728	-0.000032	-0.252318
H112	H	1.042728	0.499968	0.247682
H113	H	1.073344	-0.224501	-0.022297
H114	H	1.573344	0.275499	0.477703
H115	H	1.104045	-0.617016	0.008343
H116	H	1.604045	-0.117016	0.508343
C117	C	1.080880	-0.395553	-0.014790
C118	C	1.580880	0.104447	0.485210
H119	H	1.116510	-0.357006	0.020806
H120	H	1.616510	0.142994	0.520806
H121	H	1.049275	-0.429663	0.018113
H122	H	1.549275	0.070337	0.518113
H123	H	1.113758	-0.429634	-0.046443
H124	H	1.613758	0.070366	0.453557
H125	H	0.890849	-0.775587	-0.204738
H126	H	1.390849	-0.275587	0.295262
C127	C	1.111580	-0.788075	0.015861
C128	C	1.611580	-0.288075	0.515861
H129	H	1.100539	-0.846389	0.004829
H130	H	1.600539	-0.346389	0.504829
H131	H	1.167785	-0.773739	0.007543
H132	H	1.667785	-0.273739	0.507543
H133	H	1.103280	-0.773760	0.072076
H134	H	1.603280	-0.273760	0.572076
C135	C	0.883312	-0.604539	-0.212247
C136	C	1.383312	-0.104539	0.287753
H137	H	0.847698	-0.643088	-0.247858
H138	H	1.347698	-0.143088	0.252142
H139	H	0.850429	-0.570454	-0.180611
H140	H	1.350429	-0.070454	0.319389
H141	H	0.914930	-0.570431	-0.245147
H142	H	1.414930	-0.070431	0.254853
C143	C	1.139548	-0.000035	0.498400
C144	C	1.639548	0.499965	0.998400
H145	H	1.127686	-0.000023	0.554835
H146	H	1.627686	0.499977	1.054835
H147	H	1.168473	-0.048458	0.485839
H148	H	1.668473	0.451542	0.985839
H149	H	1.173364	0.048393	0.490702
H150	H	1.673364	0.548393	0.990702
C151	C	1.142750	-0.000049	0.316292
C152	C	1.642750	0.499951	0.816292
H153	H	1.132922	-0.000058	0.257012
H154	H	1.632922	0.499942	0.757012
H155	H	1.176071	0.048373	0.337022
H156	H	1.676071	0.548373	0.837022
H157	H	1.171170	-0.048479	0.332151
H158	H	1.671170	0.451521	0.832151
C159	C	0.821432	-0.000033	0.456669
C160	C	1.321432	0.499967	0.956669
H161	H	0.831260	-0.000042	0.515948
H162	H	1.331260	0.499958	1.015948
H163	H	0.793005	0.048389	0.440813
H164	H	1.293005	0.548389	0.940813
H165	H	0.788116	-0.048463	0.435935
H166	H	1.288116	0.451537	0.935935
H167	H	0.860141	-0.383072	-0.235367
H168	H	1.360141	0.116928	0.264633
H169	H	0.868131	-0.224498	-0.227364
H170	H	1.368131	0.275502	0.272636
