data_functionalizedCrystal
_audit_creation_method	'MofGen! by Chris Wilmer'
_symmetry_space_group_name_H-M	'P1'
_symmetry_Int_Tables_number	1
_symmetry_cell_setting	triclinic
loop_
_symmetry_equiv_pos_as_xyz
  x,y,z
_cell_length_a	10.489741
_cell_length_b	10.654552
_cell_length_c	9.565339
_cell_angle_alpha	90.004412
_cell_angle_beta	89.995522
_cell_angle_gamma	95.487581
loop_
_atom_site_label
_atom_site_type_symbol
_atom_site_fract_x
_atom_site_fract_y
_atom_site_fract_z
O1	O	1.693974	-0.177197	-0.116162
O2	O	1.322770	-0.193829	-0.116183
O3	O	1.516905	-0.002778	-0.116175
O4	O	1.499838	-0.368248	-0.116170
O5	O	1.516880	-0.002762	0.116346
O6	O	1.322744	-0.193813	0.116337
O7	O	1.693948	-0.177181	0.116358
Zn8	Zn	1.508342	-0.185494	0.153265
Zn9	Zn	1.508376	-0.185516	-0.153090
O10	O	1.499813	-0.368232	0.116350
C11	C	1.275226	-0.192565	0.000075
C12	C	1.133598	-0.188807	0.000066
C13	C	1.515639	0.044029	0.000082
C14	C	1.511888	0.183473	0.000071
C15	C	1.510143	0.248977	-0.126674
C16	C	1.506608	0.379999	-0.126670
C17	C	1.506569	0.380003	0.126837
C18	C	1.510095	0.248982	0.126830
C19	C	1.511936	0.183469	-0.253434
C20	C	1.510192	0.248973	-0.380189
C21	C	1.506657	0.379995	-0.380185
C22	C	1.504866	0.445513	-0.253424
C23	C	1.065516	-0.067246	0.000078
C24	C	0.973375	-0.124678	-0.114563
C25	C	0.973383	-0.124691	0.114684
C26	C	1.043322	-0.246289	-0.114669
C27	C	1.043340	-0.246285	0.114680
C28	C	0.951226	-0.303805	0.000011
C29	C	1.741492	-0.178445	0.000098
C30	C	1.883120	-0.182203	0.000097
C31	C	1.501078	0.584961	0.000088
C32	C	1.504827	0.445516	0.000082
N33	N	1.508400	-0.185521	-0.362169
C34	C	1.598327	-0.097305	-0.546504
C35	C	1.482950	-0.071671	-0.453249
C36	C	1.623767	-0.211099	-0.453355
C37	C	1.392892	-0.159788	-0.546452
C38	C	1.533785	-0.299266	-0.546566
C39	C	1.418325	-0.273680	-0.453353
N40	N	1.508328	-0.185479	0.362345
H41	H	1.511638	0.195618	-0.483393
O42	O	1.079985	-0.307806	-0.230331
C43	C	1.020245	-0.432106	-0.230611
H44	H	0.992273	-0.461187	-0.119240
H45	H	0.930798	-0.436940	-0.298831
C46	C	1.147961	-0.486358	-0.425991
C47	C	1.113615	-0.522078	-0.289202
H48	H	1.205552	-0.541857	-0.462139
H49	H	1.188206	-0.402613	-0.425807
H50	H	1.073412	-0.490386	-0.482824
H51	H	1.188160	-0.518034	-0.232368
H52	H	1.073385	-0.605825	-0.289378
H53	H	1.505224	0.433323	-0.483395
H54	H	1.514818	0.076785	-0.253452
O55	O	0.892049	-0.423082	-0.000241
C56	C	0.814201	-0.440807	-0.120115
H57	H	0.788521	-0.345460	-0.159591
H58	H	0.868284	-0.488778	-0.205130
C59	C	0.722333	-0.641272	-0.034408
C60	C	0.690784	-0.524166	-0.082886
H61	H	0.646206	-0.692696	-0.011447
H62	H	0.774784	-0.629334	0.046352
H63	H	0.767404	-0.681232	-0.105262
H64	H	0.645729	-0.484201	-0.012026
H65	H	0.638322	-0.536099	-0.163633
O66	O	0.936611	-0.063136	0.230271
C67	C	0.995332	0.061556	0.229805
H68	H	1.085493	0.066760	0.162690
H69	H	0.926044	0.127304	0.185054
C70	C	0.920544	0.095527	0.462842
C71	C	1.031287	0.101916	0.380420
H72	H	0.942718	0.120426	0.555748
H73	H	0.880978	0.011521	0.463155
H74	H	0.862814	0.150316	0.425533
H75	H	1.089008	0.047115	0.417719
H76	H	1.070864	0.185913	0.380117
O77	O	1.124768	0.052002	-0.000308
C78	C	1.089299	0.115623	-0.121399
H79	H	1.056532	0.043819	-0.205457
H80	H	1.007712	0.175060	-0.095238
C81	C	1.245273	0.290015	-0.072220
C82	C	1.205039	0.201824	-0.175466
H83	H	1.316664	0.343193	-0.105569
H84	H	1.269166	0.247156	0.009364
H85	H	1.177273	0.339533	-0.050429
H86	H	1.273033	0.152298	-0.197242
H87	H	1.181160	0.244677	-0.257055
H88	H	1.342163	-0.348269	-0.412710
H89	H	1.074351	-0.297671	0.211608
O90	O	1.457065	0.043011	-0.404275
C91	C	1.344363	0.029242	-0.323156
H92	H	1.284018	-0.060907	-0.354972
H93	H	1.370641	0.023850	-0.207810
C94	C	1.341391	0.253985	-0.308307
C95	C	1.267268	0.143268	-0.347392
H96	H	1.293836	0.324323	-0.323251
H97	H	1.417323	0.263263	-0.362954
H98	H	1.363284	0.249474	-0.212187
H99	H	1.245390	0.147773	-0.443514
H100	H	1.191330	0.133994	-0.292762
O101	O	1.276342	-0.133853	-0.594787
C102	C	1.194864	-0.115713	-0.480806
H103	H	1.230149	-0.165159	-0.384557
H104	H	1.195223	-0.010545	-0.458635
C105	C	1.014376	-0.110438	-0.634480
C106	C	1.057708	-0.171178	-0.516268
H107	H	0.929770	-0.144646	-0.656355
H108	H	1.069269	-0.122654	-0.711272
H109	H	1.014686	-0.022802	-0.615989
H110	H	1.057413	-0.258809	-0.534767
H111	H	1.002811	-0.158978	-0.439480
O112	O	1.559711	-0.413958	-0.595449
C113	C	1.681516	-0.440594	-0.548072
H114	H	1.741419	-0.348645	-0.521890
H115	H	1.670316	-0.502229	-0.450598
C116	C	1.675211	-0.623573	-0.695517
C117	C	1.748787	-0.510638	-0.663371
H118	H	1.716705	-0.666784	-0.766634
H119	H	1.593145	-0.605631	-0.727432
H120	H	1.665882	-0.674920	-0.614278
H121	H	1.758100	-0.459287	-0.744604
H122	H	1.830856	-0.528573	-0.631471
O123	O	1.740246	-0.237057	-0.404831
C124	C	1.822232	-0.254016	-0.518689
H125	H	1.762539	-0.281619	-0.615423
H126	H	1.884538	-0.162341	-0.539749
C127	C	1.981572	-0.325186	-0.365131
C128	C	1.908257	-0.359100	-0.483938
H129	H	2.034642	-0.390003	-0.343695
H130	H	1.926340	-0.313757	-0.288421
H131	H	2.033483	-0.248789	-0.382696
H132	H	1.856337	-0.435487	-0.466366
H133	H	1.963483	-0.370545	-0.560645
H134	H	1.505111	0.433358	0.230039
H135	H	1.501969	0.552197	-0.253431
H136	H	1.511489	0.195644	0.230037
H137	H	0.942396	-0.073250	-0.211487
H138	H	1.674318	-0.022670	-0.587406
