data_functionalizedCrystal
_audit_creation_method	'MofGen! by Chris Wilmer'
_symmetry_space_group_name_H-M	'P1'
_symmetry_Int_Tables_number	1
_symmetry_cell_setting	triclinic
loop_
_symmetry_equiv_pos_as_xyz
  x,y,z
_cell_length_a	18.101395
_cell_length_b	19.077142
_cell_length_c	19.076919
_cell_angle_alpha	90.074357
_cell_angle_beta	87.727683
_cell_angle_gamma	92.273342
loop_
_atom_site_label
_atom_site_type_symbol
_atom_site_fract_x
_atom_site_fract_y
_atom_site_fract_z
Zn1	Zn	-0.358289	-1.058229	0.440456
Zn2	Zn	-0.024956	-0.724896	0.773789
Zn3	Zn	0.308378	-0.391563	1.107123
Zn4	Zn	-0.477362	-1.062856	0.322951
Zn5	Zn	-0.144028	-0.729523	0.656284
Zn6	Zn	0.189305	-0.396189	0.989617
Zn7	Zn	-0.348367	-0.945448	0.318246
Zn8	Zn	-0.015033	-0.612115	0.651579
Zn9	Zn	0.318300	-0.278782	0.984912
Zn10	Zn	-0.476913	-0.940678	0.435699
Zn11	Zn	-0.143580	-0.607345	0.769032
Zn12	Zn	0.189754	-0.274011	1.102366
O13	O	-0.415233	-1.001803	0.379338
O14	O	-0.081899	-0.668470	0.712671
O15	O	0.251434	-0.335136	1.046005
O16	O	-0.378425	-1.157174	0.428829
O17	O	-0.045091	-0.823841	0.762162
O18	O	0.288242	-0.490508	1.095495
O19	O	-0.456285	-1.051214	0.223995
O20	O	-0.122952	-0.717881	0.557329
O21	O	0.210381	-0.384548	0.890662
O22	O	-0.246053	-0.960469	0.334479
O23	O	0.087280	-0.627136	0.667812
O24	O	0.420613	-0.293802	1.001146
O25	O	-0.465907	-1.160573	0.342498
O26	O	-0.132574	-0.827240	0.675831
O27	O	0.200760	-0.493907	1.009164
O28	O	-0.253343	-1.043329	0.424266
O29	O	0.079990	-0.709995	0.757600
O30	O	0.413323	-0.376662	1.090933
O31	O	-0.361513	-0.964955	0.220539
O32	O	-0.028180	-0.631622	0.553872
O33	O	0.305153	-0.298289	0.887205
O34	O	-0.361078	-0.846484	0.329866
O35	O	-0.027745	-0.513151	0.663200
O36	O	0.305589	-0.179818	0.996533
O37	O	-0.465142	-0.952339	0.534661
O38	O	-0.131809	-0.619005	0.867995
O39	O	0.201524	-0.285672	1.201328
O40	O	-0.455521	-0.842980	0.416159
O41	O	-0.122187	-0.509646	0.749492
O42	O	0.211146	-0.176313	1.082825
O43	O	-0.377990	-1.038703	0.538156
O44	O	-0.044656	-0.705370	0.871490
O45	O	0.288677	-0.372036	1.204823
O46	O	-0.580932	-1.046589	0.337885
O47	O	-0.247598	-0.713255	0.671218
O48	O	0.085735	-0.379922	1.004552
O49	O	-0.580602	-0.956825	0.420721
O50	O	-0.247269	-0.623492	0.754054
O51	O	0.086065	-0.290158	1.087388
C52	C	-0.607638	-1.001710	0.379313
C53	C	-0.274305	-0.668376	0.712647
C54	C	0.059028	-0.335043	1.045980
C55	C	-0.689954	-1.001733	0.379329
C56	C	-0.356621	-0.668400	0.712662
C57	C	-0.023287	-0.335067	1.045996
C58	C	-0.407175	-0.819236	0.371986
C59	C	-0.073841	-0.485902	0.705320
C60	C	0.259492	-0.152569	1.038653
C61	C	-0.403746	-0.741132	0.368858
C62	C	-0.070412	-0.407799	0.702191
C63	C	0.262921	-0.074465	1.035524
C64	C	-0.422623	-0.994473	0.562618
C65	C	-0.089289	-0.661139	0.895951
C66	C	0.244044	-0.327806	1.229285
C67	C	-0.425772	-0.991349	0.640721
C68	C	-0.092439	-0.658016	0.974054
C69	C	0.240895	-0.324682	1.307388
C70	C	-0.989053	-1.001886	0.379373
C71	C	-0.655720	-0.668553	0.712706
C72	C	-0.322387	-0.335219	1.046040
C73	C	-0.957562	-0.945529	0.431631
C74	C	-0.624229	-0.612196	0.764964
C75	C	-0.290896	-0.278863	1.098298
C76	C	-0.871926	-0.945279	0.431450
C77	C	-0.538593	-0.611946	0.764784
C78	C	-0.205260	-0.278612	1.098117
C79	C	-0.840667	-1.001810	0.379352
C80	C	-0.507333	-0.668477	0.712685
C81	C	-0.174000	-0.335143	1.046019
C82	C	-0.867928	-0.984740	0.304491
C83	C	-0.534594	-0.651407	0.637824
C84	C	-0.201261	-0.318073	0.971157
C85	C	-0.953571	-0.984378	0.304802
C86	C	-0.620237	-0.651044	0.638136
C87	C	-0.286904	-0.317711	0.971469
C88	C	-0.961442	-1.075457	0.401329
C89	C	-0.628109	-0.742124	0.734662
C90	C	-0.294775	-0.408790	1.067996
C91	C	-0.875838	-1.074955	0.402936
C92	C	-0.542504	-0.741621	0.736269
C93	C	-0.209171	-0.408288	1.069602
C94	C	-0.756805	-1.001769	0.379335
C95	C	-0.423471	-0.668435	0.712669
C96	C	-0.090138	-0.335102	1.046002
C97	C	-1.072915	-1.001926	0.379385
C98	C	-0.739581	-0.668592	0.712718
C99	C	-0.406248	-0.335259	1.046051
C100	C	-0.222077	-1.001915	0.379379
C101	C	0.111256	-0.668582	0.712712
C102	C	0.444590	-0.335248	1.046045
C103	C	-0.139766	-1.001963	0.379396
C104	C	0.193568	-0.668629	0.712729
C105	C	0.526901	-0.335296	1.046063
C106	C	-0.451375	-0.702635	0.412245
C107	C	-0.118041	-0.369302	0.745579
C108	C	0.215292	-0.035969	1.078912
C109	C	-0.448143	-0.629248	0.409309
C110	C	-0.114810	-0.295915	0.742643
C111	C	0.218523	0.037418	1.075976
C112	C	-0.397286	-0.594360	0.362982
C113	C	-0.063953	-0.261027	0.696315
C114	C	0.269380	0.072307	1.029648
C115	C	-0.349652	-0.632862	0.319592
C116	C	-0.016319	-0.299529	0.652926
C117	C	0.317014	0.033805	0.986259
C118	C	-0.352881	-0.706247	0.322532
C119	C	-0.019547	-0.372914	0.655866
C120	C	0.313786	-0.039581	0.989199
C121	C	-0.382348	-0.375075	0.349382
C122	C	-0.049014	-0.041741	0.682715
C123	C	0.284319	0.291592	1.016048
C124	C	-0.379125	-0.301684	0.346443
C125	C	-0.045791	0.031649	0.679776
C126	C	0.287542	0.364983	1.013110
C127	C	-0.477615	-0.298076	0.436161
C128	C	-0.144282	0.035258	0.769495
C129	C	0.189052	0.368591	1.102828
C130	C	-0.480842	-0.371463	0.439094
C131	C	-0.147508	-0.038129	0.772428
C132	C	0.185825	0.295204	1.105761
C133	C	-0.433205	-0.409958	0.395708
C134	C	-0.099872	-0.076625	0.729041
C135	C	0.233461	0.256709	1.062374
N136	N	-0.393984	-0.519347	0.359978
N137	N	-0.060650	-0.186014	0.693311
N138	N	0.272683	0.147320	1.026644
N139	N	-0.436505	-0.484970	0.398716
N140	N	-0.103171	-0.151636	0.732049
N141	N	0.230162	0.181697	1.065382
C142	C	-0.423318	-0.185083	0.386710
C143	C	-0.089985	0.148250	0.720044
C144	C	0.243348	0.481583	1.053377
C145	C	-0.426753	-0.263187	0.389831
C146	C	-0.093420	0.070146	0.723164
C147	C	0.239913	0.403479	1.056497
C148	C	-0.407820	-1.009145	0.196773
C149	C	-0.074486	-0.675812	0.530106
C150	C	0.258847	-0.342478	0.863439
C151	C	-0.404468	-1.012405	0.118675
C152	C	-0.071134	-0.679072	0.452009
C153	C	0.262199	-0.345738	0.785342
C154	C	-0.381878	-1.034844	0.679235
C155	C	-0.048545	-0.701511	1.012568
C156	C	0.284789	-0.368178	1.345901
C157	C	-0.384834	-1.031901	0.752620
C158	C	-0.051500	-0.698567	1.085954
C159	C	0.281833	-0.365234	1.419287
C160	C	-0.431688	-0.985465	0.787491
C161	C	-0.098355	-0.652131	1.120824
C162	C	0.234979	-0.318798	1.454158
C163	C	-0.475584	-0.941964	0.748972
C164	C	-0.142250	-0.608631	1.082305
C165	C	0.191083	-0.275298	1.415639
C166	C	-0.472624	-0.944905	0.675588
C167	C	-0.139290	-0.611572	1.008921
C168	C	0.194043	-0.278238	1.342254
C169	C	-0.445403	-0.971845	1.006772
C170	C	-0.112070	-0.638512	1.340105
C171	C	0.221263	-0.305179	1.673439
C172	C	-0.448362	-0.968909	1.080162
C173	C	-0.115029	-0.635576	1.413495
C174	C	0.218305	-0.302243	1.746828
C175	C	-0.357610	-1.058845	1.083805
C176	C	-0.024277	-0.725512	1.417138
C177	C	0.309056	-0.392179	1.750471
C178	C	-0.354658	-1.061785	1.010419
C179	C	-0.021324	-0.728451	1.343752
C180	C	0.312009	-0.395118	1.677085
C181	C	-0.398550	-1.018282	0.971906
C182	C	-0.065217	-0.684949	1.305239
C183	C	0.268116	-0.351615	1.638573
N184	N	-0.434712	-0.982456	0.862503
N185	N	-0.101379	-0.649123	1.195836
N186	N	0.231954	-0.315790	1.529170
N187	N	-0.395522	-1.021287	0.896895
N188	N	-0.062189	-0.687954	1.230229
N189	N	0.271145	-0.354621	1.563562
H190	H	-0.853645	-0.955614	0.486866
H191	H	-0.520311	-0.622280	0.820199
H192	H	-0.186978	-0.288947	1.153533
Cl193	Cl	-0.500584	-0.917156	0.958365
Cl194	Cl	-0.167250	-0.583823	1.291699
Cl195	Cl	0.166083	-0.250489	1.625032
H196	H	-0.522257	-0.399864	0.476818
H197	H	-0.188923	-0.066530	0.810151
H198	H	0.144410	0.266803	1.143484
H199	H	-0.858354	-1.087881	0.458044
H200	H	-0.525020	-0.754548	0.791377
H201	H	-0.191687	-0.421215	1.124711
Cl202	Cl	-0.537498	-0.249677	0.490700
Cl203	Cl	-0.204165	0.083656	0.824033
Cl204	Cl	0.129169	0.416989	1.157367
Cl205	Cl	-0.830235	-0.902749	0.275900
Cl206	Cl	-0.496902	-0.569415	0.609234
Cl207	Cl	-0.163569	-0.236082	0.942567
Cl208	Cl	-0.507265	-0.910524	1.123998
Cl209	Cl	-0.173931	-0.577191	1.457332
Cl210	Cl	0.159402	-0.243858	1.790665
Cl211	Cl	-0.534484	-0.883585	0.792810
Cl212	Cl	-0.201151	-0.550251	1.126143
Cl213	Cl	0.132183	-0.216918	1.459477
Cl214	Cl	-0.527805	-0.890220	0.627170
Cl215	Cl	-0.194471	-0.556887	0.960503
Cl216	Cl	0.138862	-0.223554	1.293837
Cl217	Cl	-0.285712	-0.589002	0.261356
Cl218	Cl	0.047621	-0.255668	0.594689
Cl219	Cl	0.380954	0.077665	0.928023
Cl220	Cl	-0.293000	-0.754644	0.267987
Cl221	Cl	0.040334	-0.421310	0.601321
Cl222	Cl	0.373667	-0.087977	0.934654
Cl223	Cl	-0.508023	-0.580855	0.463856
Cl224	Cl	-0.174689	-0.247522	0.797190
Cl225	Cl	0.158644	0.085811	1.130523
Cl226	Cl	-0.992981	-1.140229	0.342633
Cl227	Cl	-0.659648	-0.806896	0.675967
Cl228	Cl	-0.326315	-0.473563	1.009300
Cl229	Cl	-0.993587	-0.961277	0.517458
Cl230	Cl	-0.660254	-0.627943	0.850791
Cl231	Cl	-0.326921	-0.294610	1.184124
H232	H	-0.316506	-1.099600	0.982032
H233	H	0.016827	-0.766266	1.315365
H234	H	0.350161	-0.432933	1.648699
H235	H	-0.848565	-0.890686	0.416671
H236	H	-0.515232	-0.557353	0.750005
H237	H	-0.181899	-0.224019	1.083338
Cl238	Cl	-0.986403	-0.861751	0.409094
Cl239	Cl	-0.653070	-0.528417	0.742428
Cl240	Cl	-0.319737	-0.195084	1.075761
H241	H	-0.974248	-1.023806	0.264378
H242	H	-0.640914	-0.690473	0.597712
H243	H	-0.307581	-0.357139	0.931045
Cl244	Cl	-0.979815	-0.901482	0.276624
Cl245	Cl	-0.646482	-0.568149	0.609957
Cl246	Cl	-0.313149	-0.234816	0.943290
Cl247	Cl	-0.836467	-1.046321	0.242532
Cl248	Cl	-0.503133	-0.712987	0.575866
Cl249	Cl	-0.169800	-0.379654	0.909199
Cl250	Cl	-0.999279	-1.100382	0.484417
Cl251	Cl	-0.665946	-0.767048	0.817750
Cl252	Cl	-0.332613	-0.433715	1.151083
H253	H	-0.854805	-1.118925	0.367885
H254	H	-0.521471	-0.785592	0.701219
H255	H	-0.188138	-0.452259	1.034552
Cl256	Cl	-0.515316	-0.746488	0.470486
Cl257	Cl	-0.181983	-0.413155	0.803819
Cl258	Cl	0.151350	-0.079821	1.137152
H259	H	-0.337702	-0.273280	0.308722
H260	H	-0.004369	0.060053	0.642055
H261	H	0.328965	0.393387	0.975389
Cl262	Cl	-0.302432	-1.113528	1.132224
Cl263	Cl	0.030902	-0.780195	1.465558
Cl264	Cl	0.364235	-0.446862	1.798891
Cl265	Cl	-0.322459	-0.423459	0.294840
Cl266	Cl	0.010874	-0.090126	0.628173
Cl267	Cl	0.344207	0.243207	0.961506
Cl268	Cl	-0.322976	-1.093228	0.635404
Cl269	Cl	0.010357	-0.759895	0.968738
Cl270	Cl	0.343691	-0.426561	1.302071
Cl271	Cl	-0.329684	-1.086615	0.801036
Cl272	Cl	0.003649	-0.753281	1.134369
Cl273	Cl	0.336983	-0.419948	1.467702
