data_functionalizedCrystal
_audit_creation_method	'MofGen! by Chris Wilmer'
_symmetry_space_group_name_H-M	'P1'
_symmetry_Int_Tables_number	1
_symmetry_cell_setting	triclinic
loop_
_symmetry_equiv_pos_as_xyz
  x,y,z
_cell_length_a	16.992694
_cell_length_b	14.519731
_cell_length_c	15.455313
_cell_angle_alpha	92.669259
_cell_angle_beta	87.142206
_cell_angle_gamma	87.178538
loop_
_atom_site_label
_atom_site_type_symbol
_atom_site_fract_x
_atom_site_fract_y
_atom_site_fract_z
O1	O	1.044104	0.191794	-0.072025
O2	O	1.544104	0.691794	0.427975
O3	O	0.815817	0.189647	-0.072051
O4	O	1.315817	0.689647	0.427949
O5	O	0.936004	0.056917	-0.072029
O6	O	1.436004	0.556917	0.427971
O7	O	0.923917	0.324523	-0.072046
O8	O	1.423917	0.824523	0.427954
O9	O	0.929132	0.064474	0.072232
O10	O	1.429132	0.564474	0.572232
O11	O	0.808944	0.197204	0.072210
O12	O	1.308944	0.697204	0.572210
O13	O	1.037232	0.199351	0.072236
O14	O	1.537232	0.699351	0.572236
Cu15	Cu	0.922460	0.198967	0.085395
Cu16	Cu	1.422460	0.698967	0.585395
Cu17	Cu	0.930588	0.190030	-0.085210
Cu18	Cu	1.430588	0.690030	0.414790
O19	O	0.917044	0.332080	0.072214
O20	O	1.417044	0.832080	0.572214
C21	C	0.783164	0.190665	0.000077
C22	C	1.283164	0.690665	0.500077
C23	C	0.696109	0.182429	0.000067
C24	C	1.196109	0.682429	0.500067
C25	C	0.645985	0.261888	0.000063
C26	C	1.145985	0.761888	0.500063
C27	C	0.564186	0.254146	0.000075
C28	C	1.064186	0.754146	0.500075
C29	C	0.532513	0.166942	0.000086
C30	C	1.032513	0.666942	0.500086
C31	C	0.582643	0.087477	0.000093
C32	C	1.082643	0.587477	0.500093
C33	C	0.664440	0.095221	0.000087
C34	C	1.164440	0.595221	0.500087
C35	C	0.288867	0.134847	0.000111
C36	C	0.788867	0.634847	0.500111
C37	C	0.207064	0.127109	0.000115
C38	C	0.707064	0.627109	0.500115
C39	C	0.188613	0.293778	0.000099
C40	C	0.688613	0.793778	0.500099
C41	C	0.270412	0.301514	0.000087
C42	C	0.770412	0.801514	0.500087
C43	C	0.320535	0.222049	0.000099
C44	C	0.820535	0.722049	0.500099
N45	N	0.448902	0.159026	0.000096
N46	N	0.948902	0.659026	0.500096
N47	N	0.404144	0.229967	0.000095
N48	N	0.904144	0.729967	0.500095
C49	C	0.932002	0.026296	0.000101
C50	C	1.432002	0.526296	0.500101
C51	C	0.930304	-0.076206	0.000102
C52	C	1.430304	0.423794	0.500102
C53	C	0.928925	-0.159450	0.000099
C54	C	1.428925	0.340550	0.500099
C55	C	0.927202	-0.263882	0.000093
C56	C	1.427202	0.236118	0.500093
C57	C	0.925835	-0.347120	0.000087
C58	C	1.425835	0.152880	0.500087
C59	C	0.924112	-0.451559	0.000082
C60	C	1.424112	0.048441	0.500082
C61	C	1.069885	0.198332	0.000107
C62	C	1.569885	0.698332	0.500107
C63	C	1.156941	0.206568	0.000110
C64	C	1.656941	0.706568	0.500110
C65	C	0.921047	0.362702	0.000082
C66	C	1.421047	0.862702	0.500082
C67	C	0.922745	0.465203	0.000076
C68	C	1.422745	0.965203	0.500076
N69	N	0.916749	0.205252	0.205390
N70	N	1.416749	0.705252	0.705390
N71	N	0.936306	0.183738	-0.205205
N72	N	1.436306	0.683738	0.294795
C73	C	0.967827	0.148888	0.250793
C74	C	1.467827	0.648888	0.750793
C75	C	0.963515	0.153650	0.341600
C76	C	1.463515	0.653650	0.841600
C77	C	0.908129	0.214783	0.387002
C78	C	1.408129	0.714783	0.887002
C79	C	0.857046	0.271150	0.341593
C80	C	1.357046	0.771150	0.841593
C81	C	0.861355	0.266382	0.250787
C82	C	1.361355	0.766382	0.750787
C83	C	0.889531	0.235337	0.658580
C84	C	1.389531	0.735337	1.158580
C85	C	0.885228	0.240103	0.749392
C86	C	1.385228	0.740103	1.249392
C87	C	0.991697	0.122602	0.749393
C88	C	1.491697	0.622602	1.249393
C89	C	0.996004	0.117843	0.658586
C90	C	1.496004	0.617843	1.158586
C91	C	0.944918	0.174207	0.613184
C92	C	1.444918	0.674207	1.113184
N93	N	0.903722	0.219654	0.479822
N94	N	1.403722	0.719654	0.979822
N95	N	0.949322	0.169330	0.520367
N96	N	1.449322	0.669330	1.020367
H97	H	0.147795	0.358473	0.000091
H98	H	0.647795	0.858473	0.500091
H99	H	1.012931	0.099111	0.213832
H100	H	1.512931	0.599111	0.713832
O101	O	1.013223	0.098872	0.385570
O102	O	1.513223	0.598872	0.885570
C103	C	1.063026	0.043886	0.326025
C104	C	1.563026	0.543886	0.826025
H105	H	1.067025	0.078367	0.261288
H106	H	1.567025	0.578367	0.761288
H107	H	1.124386	0.035869	0.352251
H108	H	1.624386	0.535869	0.852251
H109	H	1.037939	-0.027039	0.316387
H110	H	1.537939	0.472961	0.816387
H111	H	0.181280	0.056094	0.000123
H112	H	0.681280	0.556094	0.500123
H113	H	0.819761	0.312279	0.213821
H114	H	1.319761	0.812279	0.713821
H115	H	0.705251	0.030517	0.000090
H116	H	1.205251	0.530517	0.500090
H117	H	0.523378	0.318850	0.000071
H118	H	1.023378	0.818850	0.500071
O119	O	0.676792	0.346571	-0.000104
O120	O	1.176792	0.846571	0.499896
C121	C	0.727116	0.352116	-0.074812
C122	C	1.227116	0.852116	0.425188
H123	H	0.710185	0.299755	-0.127027
H124	H	1.210185	0.799755	0.372973
H125	H	0.721070	0.424592	-0.099897
H126	H	1.221070	0.924592	0.400103
H127	H	0.790787	0.336486	-0.057924
H128	H	1.290787	0.836486	0.442076
H129	H	0.329668	0.070140	0.000121
H130	H	0.829668	0.570140	0.500121
O131	O	1.049827	0.058375	0.614619
O132	O	1.549827	0.558375	1.114619
C133	C	1.093999	0.009662	0.674167
C134	C	1.593999	0.509662	1.174167
H135	H	1.058778	0.009626	0.738901
H136	H	1.558778	0.509626	1.238901
H137	H	1.107102	-0.064482	0.647939
H138	H	1.607102	0.435518	1.147939
H139	H	1.151835	0.044451	0.683810
H140	H	1.651835	0.544451	1.183810
O141	O	0.551750	0.002836	0.000066
O142	O	1.051750	0.502836	0.500066
C143	C	0.468805	0.013039	0.000090
C144	C	0.968805	0.513039	0.500090
H145	H	0.451000	0.082167	-0.027227
H146	H	0.951000	0.582167	0.472773
H147	H	0.445602	-0.045320	-0.041786
H148	H	0.945602	0.454680	0.458214
H149	H	0.442742	0.010518	0.069301
H150	H	0.942742	0.510518	0.569301
H151	H	0.847937	0.281233	0.621622
H152	H	1.347937	0.781233	1.121622
H153	H	0.296194	0.372523	0.000069
H154	H	0.796194	0.872523	0.500069
H155	H	0.811945	0.320922	0.378565
H156	H	1.311945	0.820922	0.878565
H157	H	1.033288	0.076712	0.786368
H158	H	1.533288	0.576712	1.286368
H159	H	0.840124	0.289888	0.786355
H160	H	1.340124	0.789888	1.286355
