data_functionalizedCrystal
_audit_creation_method	'MofGen! by Chris Wilmer'
_symmetry_space_group_name_H-M	'P1'
_symmetry_Int_Tables_number	1
_symmetry_cell_setting	triclinic
loop_
_symmetry_equiv_pos_as_xyz
  x,y,z
_cell_length_a	16.109317
_cell_length_b	17.666332
_cell_length_c	16.109301
_cell_angle_alpha	90.007897
_cell_angle_beta	96.535152
_cell_angle_gamma	89.995238
loop_
_atom_site_label
_atom_site_type_symbol
_atom_site_fract_x
_atom_site_fract_y
_atom_site_fract_z
O1	O	-1.103129	0.062870	0.106934
O2	O	-0.603129	0.562870	0.606934
O3	O	-0.861069	0.062890	0.120219
O4	O	-0.361069	0.562890	0.620219
O5	O	-0.988749	0.062872	-0.007454
O6	O	-0.488749	0.562872	0.492546
O7	O	-0.975449	0.062888	0.234607
O8	O	-0.475449	0.562888	0.734607
O9	O	-0.988726	-0.063025	-0.007461
O10	O	-0.488726	0.436975	0.492539
O11	O	-0.861047	-0.063007	0.120212
O12	O	-0.361047	0.436993	0.620212
O13	O	-1.103107	-0.063027	0.106927
O14	O	-0.603107	0.436973	0.606927
Cu15	Cu	-0.982075	-0.074512	0.113569
Cu16	Cu	-0.482075	0.425488	0.613569
Cu17	Cu	-0.982101	0.074375	0.113577
Cu18	Cu	-0.482101	0.574375	0.613577
O19	O	-0.975427	-0.063009	0.234600
O20	O	-0.475427	0.436991	0.734600
C21	C	-0.830083	-0.000056	0.119675
C22	C	-0.330083	0.499944	0.619675
C23	C	-0.737788	-0.000049	0.118054
C24	C	-0.237788	0.499951	0.618054
C25	C	-0.438727	0.068568	0.112824
C26	C	0.061273	0.568568	0.612824
C27	C	-0.525448	0.068572	0.114341
C28	C	-0.025448	0.568572	0.614341
C29	C	-0.525443	-0.068688	0.114322
C30	C	-0.025443	0.431312	0.614322
C31	C	-0.438724	-0.068691	0.112799
C32	C	0.061276	0.431309	0.612799
C33	C	-0.395367	-0.000060	0.112054
C34	C	0.104633	0.499940	0.612054
C35	C	-0.568808	-0.000054	0.115095
C36	C	-0.068808	0.499946	0.615095
C37	C	-0.662835	-0.000051	0.116740
C38	C	-0.162835	0.499949	0.616740
C39	C	-0.301335	-0.000063	0.110408
C40	C	0.198665	0.499937	0.610408
N41	N	-0.982062	-0.179232	0.113563
N42	N	-0.482062	0.320768	0.613563
C43	C	-1.038617	-0.218849	0.057057
C44	C	-0.538617	0.281151	0.557057
C45	C	-1.038622	-0.298097	0.057053
C46	C	-0.538622	0.201903	0.557053
C47	C	-0.982080	-0.337724	0.113569
C48	C	-0.482080	0.162276	0.613569
C49	C	-0.925514	-0.298097	0.170079
C50	C	-0.425514	0.201903	0.670079
C51	C	-0.925505	-0.218851	0.170076
C52	C	-0.425505	0.281149	0.670076
N53	N	-0.971477	-0.462137	0.187138
N54	N	-0.471477	0.037863	0.687138
N55	N	-0.971490	-0.537417	0.187138
N56	N	-0.471490	-0.037417	0.687138
C57	C	-0.982101	-0.576488	0.113581
C58	C	-0.482101	-0.076488	0.613581
N59	N	-0.992716	-0.537434	0.040020
N60	N	-0.492716	-0.037434	0.540020
N61	N	-0.992706	-0.462147	0.040021
N62	N	-0.492706	0.037853	0.540021
C63	C	-0.982082	-0.423653	0.113578
C64	C	-0.482082	0.076347	0.613578
C65	C	-1.038665	-0.702035	0.057066
C66	C	-0.538665	-0.202035	0.557066
C67	C	-1.038664	-0.781284	0.057061
C68	C	-0.538664	-0.281284	0.557061
C69	C	-0.925560	-0.781282	0.170094
C70	C	-0.425560	-0.281282	0.670094
C71	C	-0.925557	-0.702035	0.170092
C72	C	-0.425557	-0.202035	0.670092
C73	C	-0.982114	-0.662416	0.113579
C74	C	-0.482114	-0.162416	0.613579
C75	C	-0.134092	-0.000075	0.107472
C76	C	0.365908	0.499925	0.607472
C77	C	-0.226387	-0.000065	0.109095
C78	C	0.273613	0.499935	0.609095
C79	C	-0.988199	-0.000077	-0.038433
C80	C	-0.488199	0.499923	0.461567
C81	C	-0.986584	-0.000078	-0.130728
C82	C	-0.486584	0.499922	0.369272
N83	N	-0.982120	0.179095	0.113577
N84	N	-0.482120	0.679095	0.613577
C85	C	-1.058591	-0.000072	-0.352996
C86	C	-0.558591	0.499928	0.147004
C87	C	-1.057067	-0.000066	-0.439717
C88	C	-0.557067	0.499934	0.060283
C89	C	-0.905579	-0.000056	-0.419851
C90	C	-0.405579	0.499944	0.080149
C91	C	-0.907104	-0.000057	-0.333132
C92	C	-0.407104	0.499943	0.166868
C93	C	-0.983612	-0.000069	-0.299707
C94	C	-0.483612	0.499931	0.200293
C95	C	-0.980563	-0.000062	-0.473147
C96	C	-0.480563	0.499938	0.026853
C97	C	-0.978910	-0.000055	-0.567173
C98	C	-0.478910	0.499945	-0.067173
C99	C	-0.985266	-0.000074	-0.205675
C100	C	-0.485266	0.499926	0.294325
C101	C	-0.975977	-0.000058	0.265578
C102	C	-0.475977	0.499942	0.765578
C103	C	-0.977592	-0.000052	0.357874
C104	C	-0.477592	0.499948	0.857874
H105	H	-0.403419	-0.124579	0.112172
H106	H	0.096581	0.375421	0.612172
O107	O	-0.864597	-0.824026	0.231063
O108	O	-0.364597	-0.324026	0.731063
H109	H	-0.875184	-0.808796	0.295874
H110	H	-0.375184	-0.308796	0.795874
H111	H	-1.084677	-0.330360	0.011037
H112	H	-0.584677	0.169640	0.511037
O113	O	-0.826227	-0.000054	-0.275653
O114	O	-0.326227	0.499946	0.224347
H115	H	-0.840143	-0.000047	-0.209737
H116	H	-0.340143	0.499953	0.290263
H117	H	-0.560748	0.124456	0.114967
H118	H	-0.060748	0.624456	0.614967
H119	H	-0.403429	0.124452	0.112216
H120	H	0.096571	0.624452	0.612216
O121	O	-1.099672	-0.824010	-0.003891
O122	O	-0.599672	-0.324010	0.496109
H123	H	-1.064702	-0.860120	-0.044326
H124	H	-0.564702	-0.360120	0.455674
O125	O	-1.099603	-0.176116	-0.003904
O126	O	-0.599603	0.323884	0.496096
H127	H	-1.138925	-0.216984	-0.043204
H128	H	-0.638925	0.283016	0.456796
O129	O	-0.572209	-0.142706	0.115139
O130	O	-0.072209	0.357294	0.615139
H131	H	-0.527487	-0.190428	0.114342
H132	H	-0.027487	0.309572	0.614342
O133	O	-0.864531	-0.340830	0.231043
O134	O	-0.364531	0.159170	0.731043
H135	H	-0.874045	-0.402591	0.221560
H136	H	-0.374045	0.097409	0.721560
H137	H	-0.879450	-0.186593	0.216091
H138	H	-0.379450	0.313407	0.716091
H139	H	-0.879508	-0.669776	0.216108
H140	H	-0.379508	-0.169776	0.716108
H141	H	-1.120889	-0.000080	-0.325785
H142	H	-0.620889	0.499920	0.174215
O143	O	-1.099650	-0.659294	-0.003894
O144	O	-0.599650	-0.159294	0.496106
H145	H	-1.138968	-0.700160	-0.043199
H146	H	-0.638968	-0.200160	0.456801
O147	O	-1.137935	-0.000078	-0.497196
O148	O	-0.637935	0.499922	0.002804
H149	H	-1.191389	-0.000094	-0.459381
H150	H	-0.691389	0.499906	0.040619
O151	O	-0.823061	-0.000060	-0.455901
O152	O	-0.323061	0.499940	0.044099
H153	H	-0.834595	-0.000071	-0.525155
H154	H	-0.334595	0.499929	-0.025155
