data_functionalizedCrystal
_audit_creation_method	'MofGen! by Chris Wilmer'
_symmetry_space_group_name_H-M	'P1'
_symmetry_Int_Tables_number	1
_symmetry_cell_setting	triclinic
loop_
_symmetry_equiv_pos_as_xyz
  x,y,z
_cell_length_a	12.759401
_cell_length_b	16.625546
_cell_length_c	16.625539
_cell_angle_alpha	90.030397
_cell_angle_beta	90.017397
_cell_angle_gamma	90.022629
loop_
_atom_site_label
_atom_site_type_symbol
_atom_site_fract_x
_atom_site_fract_y
_atom_site_fract_z
Zn1	Zn	1.606187	-0.320997	0.455829
Zn2	Zn	1.606061	-0.455840	0.320992
Zn3	Zn	1.430493	-0.321025	0.321017
Zn4	Zn	1.430454	-0.455791	0.455789
O5	O	1.518299	-0.388413	0.388407
O6	O	1.753192	-0.338892	0.437949
O7	O	1.582735	-0.437989	0.208163
O8	O	1.453868	-0.208189	0.338928
O9	O	1.753099	-0.437961	0.338884
O10	O	1.582950	-0.208168	0.437974
O11	O	1.453745	-0.338941	0.208182
O12	O	1.283466	-0.338894	0.338889
O13	O	1.453802	-0.437878	0.568627
O14	O	1.283438	-0.437906	0.437905
O15	O	1.582913	-0.338845	0.568656
O16	O	1.582698	-0.568666	0.338845
O17	O	1.453680	-0.568630	0.437880
C18	C	1.245331	-0.388399	0.388396
C19	C	1.128555	-0.388412	0.388410
C20	C	1.073705	-0.440050	0.439883
C21	C	0.963981	-0.440060	0.439892
C22	C	0.963966	-0.336792	0.336949
C23	C	1.073688	-0.336778	0.336944
C24	C	1.073714	-0.499673	0.499314
C25	C	0.963990	-0.499684	0.499322
C26	C	1.518199	-0.597904	0.388373
C27	C	1.518253	-0.687525	0.388386
C28	C	1.518436	-1.015701	0.388470
C29	C	1.518382	-0.924392	0.388448
C30	C	1.518344	-0.851616	0.388427
C31	C	1.518291	-0.760302	0.388407
C32	C	1.792332	-0.388429	0.388418
C33	C	1.909109	-0.388435	0.388423
C34	C	1.518367	-0.388353	0.598716
C35	C	1.518396	-0.388328	0.688337
C36	C	1.518427	-0.178104	0.388458
C37	C	1.518482	-0.088483	0.388480
C38	C	1.518291	-0.388415	0.178916
C39	C	1.518466	-0.388213	0.089295
C40	C	1.518445	-0.388237	1.016513
C41	C	1.518428	-0.388265	0.925204
C42	C	1.518421	-0.388283	0.852428
C43	C	1.518403	-0.388310	0.761114
H44	H	0.919279	-0.294753	0.295048
H45	H	1.118342	-0.294724	0.295036
H46	H	0.934183	-0.562114	0.482485
H47	H	1.103523	-0.483026	0.561791
H48	H	1.107718	-0.558959	0.476834
N49	N	0.918946	-0.470096	0.577927
H50	H	0.977884	-0.455805	0.615907
H51	H	0.874336	-0.513754	0.602659
