data_functionalizedCrystal
_audit_creation_method	'MofGen! by Chris Wilmer'
_symmetry_space_group_name_H-M	'P1'
_symmetry_Int_Tables_number	1
_symmetry_cell_setting	triclinic
loop_
_symmetry_equiv_pos_as_xyz
  x,y,z
_cell_length_a	16.120530
_cell_length_b	19.077068
_cell_length_c	19.076919
_cell_angle_alpha	94.470751
_cell_angle_beta	90.500157
_cell_angle_gamma	90.462149
loop_
_atom_site_label
_atom_site_type_symbol
_atom_site_fract_x
_atom_site_fract_y
_atom_site_fract_z
Zn1	Zn	1.235622	0.351862	0.464893
Zn2	Zn	1.568955	0.685195	0.798226
Zn3	Zn	1.902289	1.018528	1.131559
Zn4	Zn	1.235519	0.465010	0.351733
Zn5	Zn	1.568853	0.798344	0.685066
Zn6	Zn	1.902186	1.131677	1.018399
Zn7	Zn	1.102611	0.341206	0.341097
Zn8	Zn	1.435945	0.674539	0.674431
Zn9	Zn	1.769278	1.007873	1.007764
Zn10	Zn	1.090943	0.463251	0.463136
Zn11	Zn	1.424277	0.796584	0.796469
Zn12	Zn	1.757610	1.129918	1.129802
O13	O	1.166174	0.405332	0.405215
O14	O	1.499507	0.738666	0.738548
O15	O	1.832841	1.071999	1.071881
O16	O	1.351779	0.372067	0.455068
O17	O	1.685113	0.705400	0.788401
O18	O	2.018446	1.038734	1.121734
O19	O	1.222729	0.444865	0.251890
O20	O	1.556062	0.778198	0.585224
O21	O	1.889396	1.111531	0.918557
O22	O	1.125182	0.244190	0.353803
O23	O	1.458515	0.577524	0.687137
O24	O	1.791848	0.910857	1.020470
O25	O	1.351704	0.455197	0.371930
O26	O	1.685037	0.788530	0.705263
O27	O	2.018371	1.121864	1.038596
O28	O	1.222904	0.252019	0.444755
O29	O	1.556237	0.585352	0.778088
O30	O	1.889571	0.918686	1.111422
O31	O	1.125082	0.353906	0.244077
O32	O	1.458415	0.687239	0.577410
O33	O	1.791749	1.020573	0.910743
O34	O	0.984893	0.352200	0.352100
O35	O	1.318226	0.685533	0.685433
O36	O	1.651559	1.018867	1.018766
O37	O	1.105295	0.452198	0.561800
O38	O	1.438629	0.785531	0.895134
O39	O	1.771962	1.118865	1.228467
O40	O	0.976320	0.441866	0.441761
O41	O	1.309654	0.775199	0.775094
O42	O	1.642987	1.108532	1.108428
O43	O	1.211590	0.370361	0.563091
O44	O	1.544923	0.703694	0.896424
O45	O	1.878257	1.037027	1.229758
O46	O	1.211415	0.563206	0.370226
O47	O	1.544748	0.896540	0.703559
O48	O	1.878082	1.229873	1.036893
O49	O	1.105196	0.561914	0.452074
O50	O	1.438529	0.895247	0.785407
O51	O	1.771862	1.228580	1.118740
C52	C	1.157050	0.588083	0.412130
C53	C	1.490383	0.921417	0.745463
C54	C	1.823717	1.254750	1.078796
C55	C	1.153221	0.666269	0.415115
C56	C	1.486555	0.999602	0.748448
C57	C	1.819888	1.332936	1.081782
C58	C	0.950485	0.395686	0.395586
C59	C	1.283818	0.729019	0.728919
C60	C	1.617151	1.062353	1.062253
C61	C	0.858210	0.391577	0.391484
C62	C	1.191543	0.724910	0.724818
C63	C	1.524877	1.058244	1.058151
C64	C	1.157153	0.412272	0.588681
C65	C	1.490486	0.745605	0.922015
C66	C	1.823819	1.078938	1.255348
C67	C	1.153308	0.415229	0.666864
C68	C	1.486642	0.748562	1.000197
C69	C	1.819975	1.081895	1.333531
C70	C	0.689263	0.384058	0.384001
C71	C	1.022597	0.717392	0.717334
C72	C	1.355930	1.050725	1.050668
C73	C	0.643920	0.426660	0.426481
C74	C	0.977254	0.759993	0.759815
C75	C	1.310587	1.093327	1.093148
C76	C	0.549913	0.422477	0.422318
C77	C	0.883246	0.755810	0.755651
C78	C	1.216579	1.089143	1.088984
C79	C	0.783280	0.388241	0.388164
C80	C	1.116613	0.721574	0.721497
C81	C	1.449946	1.054907	1.054831
C82	C	1.382706	0.415017	0.414881
C83	C	1.716039	0.748350	0.748214
C84	C	2.049372	1.081683	1.081548
C85	C	1.474979	0.419144	0.419000
C86	C	1.808312	0.752477	0.752334
C87	C	2.141645	1.085810	1.085667
C88	C	1.175356	0.221869	0.398289
C89	C	1.508689	0.555203	0.731622
C90	C	1.842023	0.888536	1.064955
C91	C	1.179269	0.143688	0.395338
C92	C	1.512602	0.477022	0.728671
C93	C	1.845935	0.810355	1.062004
C94	C	1.206765	0.703654	0.373943
C95	C	1.540098	1.036987	0.707276
C96	C	1.873431	1.370321	1.040610
C97	C	1.203168	0.777118	0.376755
C98	C	1.536502	1.110452	0.710088
C99	C	1.869835	1.443785	1.043422
C100	C	1.146024	0.813196	0.420736
C101	C	1.479357	1.146529	0.754069
C102	C	1.812691	1.479863	1.087402
C103	C	1.092478	0.775806	0.461912
C104	C	1.425812	1.109139	0.795246
C105	C	1.759145	1.442473	1.128579
C106	C	1.096079	0.702343	0.459104
C107	C	1.429413	1.035677	0.792437
C108	C	1.762746	1.369010	1.125770
C109	C	1.129324	1.032836	0.433705
C110	C	1.462657	1.366169	0.767039
C111	C	1.795990	1.699503	1.100372
C112	C	1.125725	1.106304	0.436509
C113	C	1.459059	1.439637	0.769843
C114	C	1.792392	1.772970	1.103176
C115	C	1.236417	1.107611	0.351353
C116	C	1.569750	1.440944	0.684686
C117	C	1.903083	1.774277	1.018019
C118	C	1.240009	1.034146	0.348545
C119	C	1.573343	1.367480	0.681878
C120	C	1.906676	1.700813	1.015211
C121	C	1.186467	0.996763	0.389724
C122	C	1.519800	1.330096	0.723057
C123	C	1.853133	1.663430	1.056391
N124	N	1.142345	0.888288	0.423610
N125	N	1.475678	1.221621	0.756943
N126	N	1.809012	1.554955	1.090276
N127	N	1.190150	0.921673	0.386853
N128	N	1.523484	1.255006	0.720187
N129	N	1.856817	1.588339	1.053520
C130	C	1.175211	0.398371	0.222462
C131	C	1.508544	0.731705	0.555795
C132	C	1.841878	1.065038	0.889128
C133	C	1.179226	0.395223	0.144279
C134	C	1.512559	0.728557	0.477612
C135	C	1.845893	1.061890	0.810946
C136	C	1.206841	0.374012	0.704267
C137	C	1.540175	0.707345	1.037601
C138	C	1.873508	1.040678	1.370934
C139	C	1.203219	0.376787	0.777728
C140	C	1.536552	0.710120	1.111061
C141	C	1.869886	1.043454	1.444394
C142	C	1.146067	0.420784	0.813784
C143	C	1.479400	0.754117	1.147117
C144	C	1.812734	1.087450	1.480450
C145	C	1.092528	0.462002	0.776375
C146	C	1.425862	0.795336	1.109708
C147	C	1.759195	1.128669	1.443042
C148	C	1.096147	0.459223	0.702916
C149	C	1.429481	0.792556	1.036249
C150	C	1.762814	1.125889	1.369582
C151	C	1.129306	0.433662	1.033411
C152	C	1.462639	0.766996	1.366744
C153	C	1.795973	1.100329	1.700078
C154	C	1.125693	0.436440	1.106876
C155	C	1.459026	0.769774	1.440209
C156	C	1.792360	1.103107	1.773542
C157	C	1.236383	0.351224	1.108223
C158	C	1.569716	0.684557	1.441557
C159	C	1.903050	1.017890	1.774890
C160	C	1.240000	0.348451	1.034763
C161	C	1.573333	0.681785	1.368096
C162	C	1.906667	1.015118	1.701430
C163	C	1.186458	0.389667	0.997360
C164	C	1.519792	0.723000	1.330694
C165	C	1.853125	1.056334	1.664027
N166	N	1.142365	0.423623	0.888872
N167	N	1.475698	0.756957	1.222205
N168	N	1.809032	1.090290	1.555539
N169	N	1.190157	0.386823	0.922273
N170	N	1.523490	0.720156	1.255606
N171	N	1.856824	1.053490	1.588940
H172	H	0.675703	0.466273	0.465978
H173	H	1.009036	0.799606	0.799311
H174	H	1.342370	1.132940	1.132644
H175	H	0.657483	0.344448	0.344508
H176	H	0.990816	0.677782	0.677842
H177	H	1.324149	1.011115	1.011175
Br178	Br	1.309082	1.158349	0.295473
Br179	Br	1.642415	1.491682	0.628807
Br180	Br	1.975748	1.825016	0.962140
H181	H	1.085726	1.002404	0.467234
H182	H	1.419059	1.335737	0.800567
H183	H	1.752392	1.669071	1.133900
Br184	Br	1.275843	0.827853	0.320881
Br185	Br	1.609176	1.161186	0.654214
Br186	Br	1.942509	1.494520	0.987547
Br187	Br	1.284314	0.654698	0.314245
Br188	Br	1.617648	0.988031	0.647578
Br189	Br	1.950981	1.321365	0.980911
Br190	Br	1.048122	0.496151	1.155808
Br191	Br	1.381455	0.829485	1.489142
Br192	Br	1.714788	1.162818	1.822475
Br193	Br	1.014931	0.824768	0.521608
Br194	Br	1.348264	1.158102	0.854941
Br195	Br	1.681598	1.491435	1.188275
H196	H	1.286541	1.004773	0.312732
H197	H	1.619874	1.338107	0.646065
H198	H	1.953207	1.671440	0.979399
Br199	Br	1.023415	0.651606	0.514987
Br200	Br	1.356749	0.984939	0.848320
Br201	Br	1.690082	1.318273	1.181654
H202	H	1.079201	1.135677	0.472337
H203	H	1.412534	1.469010	0.805670
H204	H	1.745867	1.802344	1.139003
Br205	Br	1.284415	0.314305	0.655342
Br206	Br	1.617748	0.647638	0.988675
Br207	Br	1.951081	0.980971	1.322009
H208	H	1.246813	0.343226	0.808179
H209	H	1.580147	0.676559	1.141512
H210	H	1.913480	1.009892	1.474845
Br211	Br	1.317569	0.288742	0.985835
Br212	Br	1.650902	0.622075	1.319168
Br213	Br	1.984236	0.955408	1.652502
H214	H	1.279972	0.317667	1.138684
H215	H	1.613306	0.651001	1.472018
H216	H	1.946639	0.984334	1.805351
H217	H	1.085720	0.467234	1.002968
H218	H	1.419054	0.800567	1.336301
H219	H	1.752387	1.133901	1.669634
Br220	Br	1.014959	0.521708	0.825307
Br221	Br	1.348292	0.855042	1.158640
Br222	Br	1.681626	1.188375	1.491973
H223	H	1.052547	0.492779	0.672462
H224	H	1.385880	0.826112	1.005795
H225	H	1.719213	1.159445	1.339129
