data_functionalizedCrystal
_audit_creation_method	'MofGen! by Chris Wilmer'
_symmetry_space_group_name_H-M	'P1'
_symmetry_Int_Tables_number	1
_symmetry_cell_setting	triclinic
loop_
_symmetry_equiv_pos_as_xyz
  x,y,z
_cell_length_a	9.065218
_cell_length_b	9.065215
_cell_length_c	13.930277
_cell_angle_alpha	89.994352
_cell_angle_beta	90.006791
_cell_angle_gamma	85.015291
loop_
_atom_site_label
_atom_site_type_symbol
_atom_site_fract_x
_atom_site_fract_y
_atom_site_fract_z
O1	O	-1.960406	-0.216336	-0.079831
O2	O	-1.531121	-0.234083	-0.079832
O3	O	-1.754639	-0.010567	-0.079828
O4	O	-1.736888	-0.439852	-0.079836
O5	O	-1.754606	-0.010601	0.079834
O6	O	-1.531088	-0.234117	0.079829
O7	O	-1.960373	-0.216371	0.079831
Zn8	Zn	-1.745725	-0.225249	0.105180
Zn9	Zn	-1.745769	-0.225204	-0.105182
O10	O	-1.736855	-0.439887	0.079826
C11	C	-1.476118	-0.232394	-0.000002
C12	C	-1.312275	-0.227295	-0.000002
C13	C	-1.752917	0.044403	0.000002
C14	C	-1.747819	0.208246	-0.000001
C15	C	-2.015376	-0.218059	-0.000002
C16	C	-2.179219	-0.223159	-0.000008
C17	C	-1.738576	-0.494856	-0.000006
C18	C	-1.743674	-0.658699	-0.000009
N19	N	-1.745707	-0.225279	0.248746
N20	N	-1.745799	-0.225163	-0.248748
C21	C	-1.836471	-0.315919	0.701004
C22	C	-1.655111	-0.134429	0.700996
C23	C	-1.655089	-0.134453	0.600500
C24	C	-1.745761	-0.225209	0.550252
C25	C	-1.836455	-0.315942	0.600498
C26	C	-1.564408	-0.043711	0.550246
C27	C	-1.564383	-0.043730	0.449744
C28	C	-1.655048	-0.134495	0.399494
C29	C	-1.745745	-0.225233	0.449747
C30	C	-1.836417	-0.315989	0.399498
C31	C	-1.927106	-0.406736	0.449749
C32	C	-1.927120	-0.406708	0.550248
C33	C	-1.655035	-0.134523	0.298995
C34	C	-1.836401	-0.316012	0.298993
H35	H	-1.910230	-0.389925	0.258087
C36	C	-1.483794	0.036806	0.704297
C37	C	-1.464741	0.056046	0.605473
H38	H	-1.422251	0.098389	0.738391
H39	H	-1.584367	0.062762	0.720791
H40	H	-1.457661	-0.063780	0.720732
H41	H	-1.490886	0.156632	0.589037
H42	H	-1.364146	0.030100	0.588972
C43	C	-1.385104	0.135662	0.459843
C44	C	-1.464686	0.056001	0.394513
H45	H	-1.323546	0.197220	0.425742
H46	H	-1.452210	0.195192	0.499015
H47	H	-1.325563	0.068591	0.499067
H48	H	-1.524235	0.123072	0.355293
H49	H	-1.397571	-0.003534	0.355324
C50	C	-1.456457	-0.122550	0.185996
C51	C	-1.555366	-0.034783	0.243755
H52	H	-1.394929	-0.060968	0.151890
H53	H	-1.396902	-0.189581	0.225223
H54	H	-1.510465	-0.176605	0.141693
H55	H	-1.501357	0.019264	0.288063
H56	H	-1.614927	0.032274	0.204524
H57	H	-2.000958	-0.480585	0.591171
H58	H	-2.000938	-0.480623	0.408823
H59	H	-1.910304	-0.389807	0.741922
H60	H	-1.581300	-0.060530	0.741915
