data_functionalizedCrystal
_audit_creation_method	'MofGen! by Chris Wilmer'
_symmetry_space_group_name_H-M	'P1'
_symmetry_Int_Tables_number	1
_symmetry_cell_setting	triclinic
loop_
_symmetry_equiv_pos_as_xyz
  x,y,z
_cell_length_a	25.639242
_cell_length_b	29.839131
_cell_length_c	25.639233
_cell_angle_alpha	89.980415
_cell_angle_beta	89.977834
_cell_angle_gamma	90.036947
loop_
_atom_site_label
_atom_site_type_symbol
_atom_site_fract_x
_atom_site_fract_y
_atom_site_fract_z
Zn1	Zn	0.799215	-0.178962	-0.295739
Zn2	Zn	0.799134	-0.254076	-0.208302
Zn3	Zn	0.711791	-0.178955	-0.208303
Zn4	Zn	0.711732	-0.254059	-0.295692
O5	O	0.755468	-0.216513	-0.252009
O6	O	0.872370	-0.188935	-0.284160
O7	O	0.787539	-0.244115	-0.135137
O8	O	0.723447	-0.116089	-0.219922
O9	O	0.872310	-0.244122	-0.219920
O10	O	0.787677	-0.116094	-0.284161
O11	O	0.723369	-0.188924	-0.135138
O12	O	0.638618	-0.188908	-0.219876
O13	O	0.723346	-0.244093	-0.368864
O14	O	0.638575	-0.244087	-0.284081
O15	O	0.787619	-0.188919	-0.368898
O16	O	0.787482	-0.316941	-0.219875
O17	O	0.723268	-0.316929	-0.284080
C18	C	0.619626	-0.216495	-0.251974
C19	C	0.561512	-0.216499	-0.251971
C20	C	0.201135	-0.245293	-0.285409
C21	C	0.146531	-0.245295	-0.285417
O22	O	0.118282	-0.269755	-0.313817
N23	N	0.119229	-0.216525	-0.252043
C24	C	0.146535	-0.187748	-0.218663
O25	O	0.118299	-0.163276	-0.190277
C26	C	0.201138	-0.187743	-0.218658
C27	C	0.228437	-0.216518	-0.252030
C28	C	0.228434	-0.274065	-0.318778
C29	C	0.283034	-0.274063	-0.318769
C30	C	0.310336	-0.245288	-0.285390
C31	C	0.283037	-0.216516	-0.252021
C32	C	0.228443	-0.158963	-0.185281
C33	C	0.283050	-0.158961	-0.185279
C34	C	0.310349	-0.187736	-0.218651
C35	C	0.364940	-0.187739	-0.218633
N36	N	0.392241	-0.216509	-0.252006
C37	C	0.364939	-0.245283	-0.285385
C38	C	0.031864	-0.187759	-0.218677
C39	C	-0.022738	-0.187766	-0.218679
C40	C	-0.022739	-0.245313	-0.285434
C41	C	0.031865	-0.245308	-0.285429
C42	C	0.059166	-0.216529	-0.252051
C43	C	0.479604	-0.245277	-0.285363
C44	C	0.534210	-0.245273	-0.285350
C45	C	0.534206	-0.187724	-0.218597
C46	C	0.479605	-0.187729	-0.218609
C47	C	0.452306	-0.216507	-0.251996
O48	O	0.393223	-0.163290	-0.190249
O49	O	0.393182	-0.269746	-0.313771
C50	C	0.755374	-0.333236	-0.251983
C51	C	0.755381	-0.383170	-0.251990
C52	C	0.788965	-0.692807	-0.218627
C53	C	0.789030	-0.880480	-0.218647
O54	O	0.817509	-0.904740	-0.190260
N55	N	0.755577	-0.903955	-0.252049
C56	C	0.722108	-0.880509	-0.285450
O57	O	0.693659	-0.904782	-0.313865
C58	C	0.722046	-0.692837	-0.285432
C59	C	0.755498	-0.669364	-0.252024
C60	C	0.822415	-0.669335	-0.185222
C61	C	0.822396	-0.622419	-0.185215
C62	C	0.788928	-0.598976	-0.218613
C63	C	0.755479	-0.622449	-0.252018
C64	C	0.688580	-0.669391	-0.318836
C65	C	0.688568	-0.622470	-0.318829
C66	C	0.722020	-0.598998	-0.285422
C67	C	0.721993	-0.552090	-0.285409
N68	N	0.755446	-0.528615	-0.252007
C69	C	0.788914	-0.552058	-0.218609
C70	C	0.722141	-0.979039	-0.285457
C71	C	0.722156	-1.025957	-0.285461
C72	C	0.789079	-1.025925	-0.218658
C73	C	0.789062	-0.979007	-0.218652
C74	C	0.755595	-0.955565	-0.252055
C75	C	0.788872	-0.453533	-0.218597
C76	C	0.788849	-0.406613	-0.218592
C77	C	0.721928	-0.406649	-0.285396
C78	C	0.721949	-0.453564	-0.285400
C79	C	0.755425	-0.477005	-0.251999
O80	O	0.693533	-0.527802	-0.313784
O81	O	0.817366	-0.527777	-0.190207
C82	C	0.788984	-0.739723	-0.218633
C83	C	0.755535	-0.763195	-0.252038
C84	C	0.722067	-0.739752	-0.285436
C85	C	0.755549	-0.810113	-0.252042
C86	C	0.789017	-0.833556	-0.218644
C87	C	0.822470	-0.810081	-0.185242
C88	C	0.822451	-0.763166	-0.185235
C89	C	0.688614	-0.763227	-0.318838
C90	C	0.688635	-0.810143	-0.318841
C91	C	0.722102	-0.833585	-0.285443
C92	C	0.891841	-0.216531	-0.252045
C93	C	0.949955	-0.216539	-0.252060
C94	C	0.755485	-0.216505	-0.388382
C95	C	0.755492	-0.216502	-0.446496
C96	C	0.755577	-0.099335	-0.252047
C97	C	0.755624	-0.049400	-0.252063
C98	C	0.789002	-0.187687	-0.806883
C99	C	0.789008	-0.187675	-0.861488
O100	O	0.817457	-0.163229	-0.889744
N101	N	0.755550	-0.216396	-0.888779
C102	C	0.722079	-0.245129	-0.861463
O103	O	0.693621	-0.269558	-0.889691
C104	C	0.722071	-0.245139	-0.806860
C105	C	0.755535	-0.216419	-0.779571
C106	C	0.822463	-0.158969	-0.779594
C107	C	0.822457	-0.158982	-0.724994
C108	C	0.788990	-0.187714	-0.697682
C109	C	0.755529	-0.216432	-0.724971
C110	C	0.688598	-0.273869	-0.779545
C111	C	0.688592	-0.273876	-0.724938
C112	C	0.722056	-0.245156	-0.697650
C113	C	0.722056	-0.245176	-0.643058
N114	N	0.755514	-0.216455	-0.615767
C115	C	0.788981	-0.187723	-0.643079
C116	C	0.722100	-0.245106	-0.976134
C117	C	0.722110	-0.245099	-1.030736
C118	C	0.789039	-0.187644	-1.030757
C119	C	0.789030	-0.187653	-0.976153
C120	C	0.755558	-0.216384	-0.948843
C121	C	0.788967	-0.187753	-0.528414
C122	C	0.788959	-0.187770	-0.473808
C123	C	0.722029	-0.245223	-0.473793
C124	C	0.722038	-0.245208	-0.528393
C125	C	0.755509	-0.216470	-0.555702
O126	O	0.693620	-0.269609	-0.614767
O127	O	0.817430	-0.163295	-0.614845
C128	C	0.755482	-0.216488	-0.116167
C129	C	0.755576	-0.216365	-0.058053
H130	H	0.816089	-0.387503	-0.191385
H131	H	0.305256	-0.297494	-0.345945
C132	C	-0.017239	-0.130883	-0.152696
C133	C	-0.052741	-0.156138	-0.181993
H134	H	-0.035761	-0.111353	-0.130051
H135	H	0.004032	-0.150431	-0.132654
H136	H	0.004084	-0.113729	-0.175517
H137	H	-0.074061	-0.173294	-0.159172
H138	H	-0.074021	-0.136587	-0.202036
H139	H	0.694842	-0.268504	-0.953901
C140	C	0.093236	-0.181423	-0.148347
C141	C	0.061873	-0.156128	-0.181979
H142	H	0.111762	-0.161894	-0.125694
H143	H	0.071911	-0.200970	-0.128314
H144	H	0.117310	-0.198552	-0.168227
H145	H	0.037795	-0.139001	-0.162099
H146	H	0.083200	-0.136572	-0.202014
H147	H	0.206226	-0.135532	-0.158104
C148	C	0.418243	-0.251620	-0.355700
C149	C	0.449601	-0.276910	-0.322061
H150	H	0.399723	-0.271150	-0.378355
H151	H	0.394167	-0.234491	-0.335829
H152	H	0.439573	-0.232071	-0.375735
H153	H	0.428270	-0.296457	-0.302023
H154	H	0.473680	-0.294047	-0.341934
C155	C	0.622488	-0.805450	-0.384881
C156	C	0.651862	-0.835940	-0.355568
H157	H	0.599792	-0.821376	-0.407558
H158	H	0.602495	-0.787179	-0.362076
H159	H	0.645256	-0.787120	-0.404895
H160	H	0.629094	-0.854268	-0.335551
H161	H	0.671856	-0.854218	-0.378375
H162	H	0.206210	-0.297497	-0.345962
C163	C	0.026367	-0.302189	-0.351413
C164	C	0.061869	-0.276934	-0.322117
H165	H	0.044889	-0.321712	-0.374067
H166	H	0.005051	-0.319346	-0.328597
H167	H	0.005089	-0.282637	-0.371452
H168	H	0.083144	-0.296487	-0.302076
H169	H	0.083193	-0.259776	-0.344936
C170	C	0.277562	-0.102078	-0.119293
C171	C	0.313058	-0.127329	-0.148582
H172	H	0.296088	-0.082554	-0.096635
H173	H	0.256292	-0.084924	-0.142114
H174	H	0.256237	-0.121633	-0.099260
H175	H	0.334380	-0.107774	-0.168618
H176	H	0.334337	-0.144485	-0.125759
H177	H	0.694866	-0.268490	-1.052950
C178	C	0.681238	-0.569690	-0.389151
C179	C	0.651780	-0.596703	-0.355548
H180	H	0.658526	-0.553785	-0.411820
H181	H	0.701150	-0.548996	-0.369255
H182	H	0.704011	-0.587971	-0.409173
H183	H	0.629009	-0.578421	-0.335523
H184	H	0.631859	-0.617399	-0.375446
H185	H	0.816288	-0.164248	-1.053004
C186	C	-0.106447	-0.270861	-0.315087
C187	C	-0.052756	-0.276939	-0.322131
H188	H	-0.124978	-0.290383	-0.337744
H189	H	-0.115414	-0.277395	-0.279950
H190	H	-0.115362	-0.240683	-0.322801
H191	H	-0.043841	-0.307116	-0.314413
H192	H	-0.043786	-0.270409	-0.357277
H193	H	0.849716	-0.135570	-0.801826
C194	C	0.618271	-0.280093	-0.840932
C195	C	0.651818	-0.305440	-0.809538
H196	H	0.595568	-0.299587	-0.859450
H197	H	0.598288	-0.260525	-0.819629
H198	H	0.638209	-0.262983	-0.865013
H199	H	0.631880	-0.322548	-0.785454
H200	H	0.671803	-0.325017	-0.830842
H201	H	0.457377	-0.164299	-0.191433
H202	H	0.556445	-0.164298	-0.191419
H203	H	0.816133	-0.472612	-0.191400
C204	C	0.814493	-0.111701	-0.457019
C205	C	0.825743	-0.156194	-0.443816
H206	H	0.837199	-0.092208	-0.438502
H207	H	0.819285	-0.107589	-0.493444
H208	H	0.779368	-0.105131	-0.448056
H209	H	0.860867	-0.162766	-0.452782
H210	H	0.820956	-0.160309	-0.407382
H211	H	0.849637	-0.603311	-0.158013
H212	H	0.849671	-0.688417	-0.158025
H213	H	0.816279	-0.164266	-0.953939
H214	H	0.661328	-0.297268	-0.702705
C215	C	0.681269	-0.710450	-0.389160
C216	C	0.651820	-0.737464	-0.355550
H217	H	0.658550	-0.694549	-0.411827
H218	H	0.701180	-0.689752	-0.369269
H219	H	0.704042	-0.728729	-0.409184
H220	H	0.629050	-0.719184	-0.335523
H221	H	0.631900	-0.758164	-0.375444
C222	C	0.796306	-0.127299	-0.589814
C223	C	0.825759	-0.156165	-0.558425
H224	H	0.819023	-0.107797	-0.608339
H225	H	0.776387	-0.144398	-0.613885
H226	H	0.773540	-0.110119	-0.568503
H227	H	0.848523	-0.173347	-0.579737
H228	H	0.845687	-0.139064	-0.534352
H229	H	0.849706	-0.135594	-0.702780
C230	C	0.656008	-1.021264	-0.351494
C231	C	0.685382	-1.051755	-0.322180
H232	H	0.633309	-1.037191	-0.374167
H233	H	0.636020	-1.002991	-0.328689
H234	H	0.678777	-1.002938	-0.371511
H235	H	0.662614	-1.070079	-0.302160
H236	H	0.705372	-1.070036	-0.344988
H237	H	0.694794	-0.268599	-0.550613
H238	H	0.694887	-0.959956	-0.312658
C239	C	0.692303	-0.270741	-0.390075
C240	C	0.685241	-0.276802	-0.443764
H241	H	0.669586	-0.290233	-0.371537
H242	H	0.727420	-0.277327	-0.381139
H243	H	0.684682	-0.240554	-0.381138
H244	H	0.692865	-0.306989	-0.452702
H245	H	0.650115	-0.270219	-0.452704
H246	H	0.556434	-0.268707	-0.312526
H247	H	0.816301	-0.959898	-0.191448
H248	H	0.661337	-0.688495	-0.346038
C249	C	0.818869	-1.097837	-0.189066
C250	C	0.825908	-1.051700	-0.181985
H251	H	0.841620	-1.113749	-0.166442
H252	H	0.783765	-1.105569	-0.181337
H253	H	0.826459	-1.105482	-0.224221
H254	H	0.818314	-1.044054	-0.146831
H255	H	0.861020	-1.043965	-0.189711
C256	C	0.655800	-0.448881	-0.351434
C257	C	0.685179	-0.479368	-0.322122
H258	H	0.633105	-0.464810	-0.374110
H259	H	0.635806	-0.430612	-0.328629
H260	H	0.678565	-0.430550	-0.371449
H261	H	0.662414	-0.497697	-0.302103
H262	H	0.705174	-0.497645	-0.344929
C263	C	0.714614	-0.353862	-0.355705
C264	C	0.685146	-0.380873	-0.322109
H265	H	0.691908	-0.337951	-0.378374
H266	H	0.734530	-0.333175	-0.335805
H267	H	0.737384	-0.372146	-0.375728
H268	H	0.662378	-0.362589	-0.302084
H269	H	0.665221	-0.401563	-0.342012
C270	C	0.888604	-0.767861	-0.119209
C271	C	0.859227	-0.737369	-0.148516
H272	H	0.911311	-0.751937	-0.096542
H273	H	0.865842	-0.786185	-0.099189
H274	H	0.908589	-0.786137	-0.142022
H275	H	0.839239	-0.719095	-0.125704
H276	H	0.881992	-0.719037	-0.168537
C277	C	0.852230	-0.881993	-0.155621
C278	C	0.859276	-0.835856	-0.148548
H279	H	0.874960	-0.897906	-0.132977
H280	H	0.817118	-0.889716	-0.147915
H281	H	0.859843	-0.889646	-0.190769
H282	H	0.851659	-0.828201	-0.113401
H283	H	0.894396	-0.828129	-0.156250
