data_functionalizedCrystal
_audit_creation_method	'MofGen! by Chris Wilmer'
_symmetry_space_group_name_H-M	'P1'
_symmetry_Int_Tables_number	1
_symmetry_cell_setting	triclinic
loop_
_symmetry_equiv_pos_as_xyz
  x,y,z
_cell_length_a	12.759401
_cell_length_b	14.908520
_cell_length_c	12.759393
_cell_angle_alpha	93.262204
_cell_angle_beta	89.982620
_cell_angle_gamma	93.320696
loop_
_atom_site_label
_atom_site_type_symbol
_atom_site_fract_x
_atom_site_fract_y
_atom_site_fract_z
Zn1	Zn	1.582055	-0.359098	-0.618082
Zn2	Zn	2.082055	0.140902	-0.118082
Zn3	Zn	1.571790	-0.509985	-0.452529
Zn4	Zn	2.071790	-0.009985	0.047471
Zn5	Zn	1.406358	-0.359146	-0.442425
Zn6	Zn	1.906358	0.140854	0.057575
Zn7	Zn	1.396187	-0.509915	-0.628166
Zn8	Zn	1.896187	-0.009915	-0.128166
O9	O	1.489097	-0.434536	-0.535301
O10	O	1.989097	0.065464	-0.035301
O11	O	1.727714	-0.379123	-0.596130
O12	O	2.227714	0.120877	-0.096130
O13	O	1.549805	-0.490025	-0.304171
O14	O	2.049805	0.009975	0.195829
O15	O	1.438217	-0.232896	-0.457278
O16	O	1.938217	0.267104	0.042722
O17	O	1.720172	-0.489979	-0.474499
O18	O	2.220172	0.010021	0.025501
O19	O	1.567301	-0.232861	-0.586332
O20	O	2.067301	0.267139	-0.086332
O21	O	1.428263	-0.379204	-0.296748
O22	O	1.928263	0.120796	0.203252
O23	O	1.257988	-0.379137	-0.467055
O24	O	1.757988	0.120863	0.032945
O25	O	1.420883	-0.489860	-0.773846
O26	O	1.920883	0.010140	-0.273846
O27	O	1.250516	-0.489906	-0.603519
O28	O	1.750516	0.010094	-0.103519
O29	O	1.557440	-0.379055	-0.766438
O30	O	2.057440	0.120945	-0.266438
O31	O	1.539943	-0.636220	-0.484277
O32	O	2.039943	-0.136220	0.015723
O33	O	1.410929	-0.636169	-0.613316
O34	O	1.910929	-0.136169	-0.113316
C35	C	1.216131	-0.434520	-0.535285
C36	C	1.716131	0.065480	-0.035285
C37	C	1.099354	-0.434534	-0.535305
C38	C	1.599354	0.065466	-0.035305
C39	C	1.473247	-0.668928	-0.551010
C40	C	1.973247	-0.168928	-0.051010
C41	C	1.466562	-0.769202	-0.557766
C42	C	1.966562	-0.269202	-0.057766
C43	C	1.040622	-0.492304	-0.606257
C44	C	1.540622	0.007696	-0.106257
C45	C	0.930897	-0.492316	-0.606269
C46	C	1.430897	0.007684	-0.106269
C47	C	0.938645	-0.376785	-0.464369
C48	C	1.438645	0.123215	0.035631
C49	C	1.048368	-0.376769	-0.464363
C50	C	1.548368	0.123231	0.035637
C51	C	1.036148	-0.559008	-0.688179
C52	C	1.536148	-0.059008	-0.188179
C53	C	0.926423	-0.559019	-0.688191
C54	C	1.426423	-0.059019	-0.188191
C55	C	1.588481	-0.957619	-0.436200
C56	C	2.088481	-0.457619	0.063800
C57	C	1.582204	-1.051836	-0.442544
C58	C	2.082204	-0.551836	0.057456
C59	C	1.447735	-1.051852	-0.576803
C60	C	1.947735	-0.551852	-0.076803
C61	C	1.454013	-0.957636	-0.570459
C62	C	1.954013	-0.457636	-0.070459
C63	C	1.524387	-0.910523	-0.500154
C64	C	2.024387	-0.410523	-0.000154
C65	C	1.530658	-0.816305	-0.493805
C66	C	2.030658	-0.316305	0.006195
C67	C	1.396196	-0.816323	-0.628069
C68	C	1.896196	-0.316323	-0.128069
C69	C	1.389919	-0.910539	-0.634413
C70	C	1.889919	-0.410539	-0.134413
C71	C	1.763130	-0.434554	-0.535317
C72	C	2.263130	0.065446	-0.035317
C73	C	1.879906	-0.434561	-0.535324
C74	C	2.379906	0.065439	-0.035324
C75	C	1.489172	-0.434444	-0.809328
C76	C	1.989172	0.065556	-0.309328
C77	C	1.489204	-0.434405	-0.926102
C78	C	1.989204	0.065595	-0.426102
C79	C	1.505039	-0.199229	-0.519553
C80	C	2.005039	0.300771	-0.019553
C81	C	1.511832	-0.098955	-0.512842
C82	C	2.011832	0.401045	-0.012842
C83	C	1.425946	-0.376690	-0.977104
C84	C	1.925946	0.123310	-0.477104
C85	C	1.425979	-0.376663	-1.086826
C86	C	1.925979	0.123337	-0.586826
C87	C	1.552537	-0.492069	-1.094536
C88	C	2.052537	0.007931	-0.594536
C89	C	1.552498	-0.492100	-0.984815
C90	C	2.052498	0.007900	-0.484815
C91	C	1.352882	-0.310059	-0.972654
C92	C	1.852882	0.189941	-0.472654
C93	C	1.352915	-0.310032	-1.082376
C94	C	1.852915	0.189968	-0.582376
C95	C	1.489088	-0.434563	-0.262335
C96	C	1.989088	0.065437	0.237665
C97	C	1.489277	-0.434348	-0.145545
C98	C	1.989277	0.065652	0.354455
H99	H	1.096184	-0.329721	-0.406594
H100	H	1.596184	0.170279	0.093406
H101	H	0.894104	-0.534080	-0.763869
H102	H	1.394104	-0.034080	-0.263869
F103	F	1.663363	-0.907476	-0.361364
F104	F	2.163363	-0.407476	0.138636
H105	H	1.587958	-0.777946	-0.436557
H106	H	2.087958	-0.277946	0.063443
H107	H	1.273933	-0.335041	-1.118081
H108	H	1.773933	0.164959	-0.618081
H109	H	1.344003	-0.777966	-0.680141
H110	H	1.844003	-0.277966	-0.180141
H111	H	0.891923	-0.628873	-0.670947
H112	H	1.391923	-0.128873	-0.170947
H113	H	1.634398	-1.090178	-0.390468
H114	H	2.134398	-0.590178	0.109532
H115	H	1.065694	-0.625343	-0.663346
H116	H	1.565694	-0.125343	-0.163346
F117	F	1.372856	-1.102008	-0.651632
F118	F	1.872856	-0.602008	-0.151632
F119	F	1.315029	-0.960690	-0.709236
F120	F	1.815029	-0.460690	-0.209236
F121	F	1.619813	-0.553537	-0.930540
F122	F	2.119813	-0.053537	-0.430540
H123	H	1.604070	-0.539041	-1.142353
H124	H	2.104070	-0.039041	-0.642353
H125	H	1.379440	-0.240151	-1.107483
H126	H	1.879440	0.259849	-0.607483
F127	F	1.396843	-0.223326	-0.922366
F128	F	1.896843	0.276674	-0.422366
F129	F	1.244856	-0.334516	-0.935369
F130	F	1.744856	0.165484	-0.435369
H131	H	0.897120	-0.329754	-0.406611
H132	H	1.397120	0.170246	0.093389
H133	H	1.067210	-0.540375	-0.768335
H134	H	1.567210	-0.040375	-0.268335
