data_functionalizedCrystal
_audit_creation_method	'MofGen! by Chris Wilmer'
_symmetry_space_group_name_H-M	'P1'
_symmetry_Int_Tables_number	1
_symmetry_cell_setting	triclinic
loop_
_symmetry_equiv_pos_as_xyz
  x,y,z
_cell_length_a	12.759401
_cell_length_b	15.297327
_cell_length_c	12.759393
_cell_angle_alpha	99.641342
_cell_angle_beta	89.982620
_cell_angle_gamma	99.706546
loop_
_atom_site_label
_atom_site_type_symbol
_atom_site_fract_x
_atom_site_fract_y
_atom_site_fract_z
Zn1	Zn	1.533786	-0.359100	-0.666296
Zn2	Zn	1.503239	-0.509988	-0.521002
Zn3	Zn	1.358082	-0.359148	-0.490645
Zn4	Zn	1.327646	-0.509918	-0.696629
O5	O	1.430688	-0.434539	-0.593643
O6	O	1.676753	-0.379125	-0.647032
O7	O	1.483937	-0.490028	-0.369964
O8	O	1.406912	-0.232897	-0.488547
O9	O	1.654310	-0.489982	-0.540285
O10	O	1.536001	-0.232862	-0.617597
O11	O	1.377291	-0.379207	-0.347661
O12	O	1.207026	-0.379139	-0.517960
O13	O	1.355037	-0.489863	-0.839617
O14	O	1.184664	-0.489909	-0.669295
O15	O	1.506488	-0.379057	-0.817331
O16	O	1.454424	-0.636224	-0.569698
O17	O	1.325417	-0.636172	-0.698730
C18	C	1.157724	-0.434522	-0.593625
C19	C	1.040945	-0.434537	-0.593647
C20	C	0.974448	-0.492307	-0.672355
C21	C	0.864722	-0.492319	-0.672369
C22	C	0.887999	-0.376787	-0.514957
C23	C	0.997724	-0.376771	-0.514949
C24	C	1.017669	-0.550072	-0.751053
C25	C	0.951171	-0.607848	-0.829767
C26	C	0.841444	-0.607860	-0.829781
C27	C	0.798216	-0.550095	-0.751081
C28	C	1.383331	-0.668932	-0.640823
C29	C	1.363168	-0.769206	-0.661041
C30	C	1.575233	-1.051845	-0.449495
C31	C	1.594176	-0.957632	-0.430493
C32	C	1.536426	-0.910521	-0.488128
C33	C	1.459728	-0.957632	-0.564769
C34	C	1.440776	-1.051854	-0.583767
C35	C	1.401970	-0.910530	-0.622401
C36	C	1.325272	-0.957641	-0.699041
C37	C	1.306324	-1.051854	-0.718036
C38	C	1.364075	-1.098965	-0.660401
C39	C	1.420922	-0.816308	-0.603403
C40	C	1.286466	-0.816317	-0.737675
C41	C	1.267522	-0.910530	-0.756677
C42	C	1.704718	-0.434556	-0.593661
C43	C	1.821493	-0.434563	-0.593669
C44	C	1.430775	-0.434447	-0.867658
C45	C	1.430812	-0.434408	-0.984427
C46	C	1.478259	-0.199230	-0.546302
C47	C	1.498531	-0.098956	-0.526128
C48	C	1.375312	-0.376692	-1.027680
C49	C	1.375349	-0.376665	-1.137398
C50	C	1.486395	-0.492072	-1.160602
C51	C	1.486351	-0.492103	-1.050886
C52	C	1.319773	-0.318997	-0.961220
C53	C	1.264270	-0.261276	-1.004472
C54	C	1.264307	-0.261250	-1.114191
C55	C	1.319848	-0.318944	-1.180658
C56	C	1.430675	-0.434565	-0.320681
C57	C	1.430893	-0.434350	-0.203862
H58	H	1.483370	-0.777959	-0.541001
C59	C	1.095242	-0.217331	-0.961847
C60	C	1.203214	-0.197869	-0.931416
H61	H	1.057548	-0.178189	-0.916740
H62	H	1.087329	-0.209051	-1.033370
H63	H	1.067620	-0.277953	-0.956049
H64	H	1.230838	-0.137249	-0.937220
H65	H	1.211134	-0.206142	-0.859874
C66	C	0.863071	-0.332667	-0.328260
C67	C	0.840488	-0.313301	-0.428444
H68	H	0.833746	-0.293470	-0.274849
H69	H	0.832846	-0.393262	-0.324976
H70	H	0.937939	-0.324388	-0.317007
H71	H	0.765620	-0.321587	-0.439701
H72	H	0.870709	-0.252692	-0.431731
C73	C	1.263746	-1.233935	-0.760739
C74	C	1.343260	-1.202529	-0.681300
H75	H	1.250907	-1.297871	-0.773646
H76	H	1.200235	-1.212697	-0.738220
H77	H	1.286181	-1.212545	-0.824233
H78	H	1.320822	-1.223913	-0.617803
H79	H	1.406784	-1.223776	-0.703815
H80	H	1.219105	-0.214257	-1.149404
C81	C	1.605816	-1.196274	-0.418956
C82	C	1.638667	-1.103630	-0.386111
H83	H	1.644975	-1.228243	-0.379813
H84	H	1.532115	-1.211748	-0.406675
H85	H	1.618095	-1.211664	-0.492653
H86	H	1.626380	-1.088239	-0.312415
H87	H	1.712385	-1.088151	-0.398383
H88	H	1.239438	-0.777960	-0.784605
C89	C	1.636776	-0.775558	-0.387817
C90	C	1.557257	-0.806961	-0.467252
H91	H	1.649644	-0.711621	-0.374936
H92	H	1.614337	-0.796922	-0.324321
H93	H	1.700283	-0.796823	-0.410333
H94	H	1.493747	-0.785701	-0.444733
H95	H	1.579692	-0.785587	-0.530761
H96	H	0.787305	-0.654897	-0.893879
H97	H	1.319739	-0.319011	-0.871880
H98	H	1.656622	-0.919278	-0.368092
C99	C	1.072067	-0.620513	-0.973597
C100	C	0.998686	-0.671336	-0.916273
H101	H	1.101403	-0.659711	-1.026999
H102	H	1.037205	-0.581262	-1.005961
H103	H	1.127369	-0.586111	-0.926706
H104	H	0.943379	-0.705734	-0.963162
H105	H	1.033549	-0.710604	-0.883907
C106	C	1.596154	-0.606150	-1.172523
C107	C	1.547450	-0.555481	-1.233658
H108	H	1.633844	-0.645298	-1.217626
H109	H	1.644268	-0.566859	-1.121825
H110	H	1.543375	-0.640667	-1.136670
H111	H	1.600230	-0.520959	-1.269505
H112	H	1.499332	-0.594776	-1.284374
H113	H	1.051869	-0.329723	-0.450864
C114	C	1.175326	-1.042398	-0.848855
C115	C	1.222012	-1.103640	-0.802274
H116	H	1.123281	-1.074369	-0.900864
H117	H	1.142544	-1.005710	-0.795650
H118	H	1.228494	-1.005590	-0.881658
H119	H	1.168845	-1.140444	-0.769465
H120	H	1.254795	-1.140343	-0.855488
C121	C	1.424491	-0.295928	-1.333212
C122	C	1.319886	-0.318922	-1.301265
H123	H	1.424514	-0.295920	-1.407669
H124	H	1.454407	-0.237722	-1.296694
H125	H	1.465487	-0.338561	-1.316953
H126	H	1.278891	-0.276286	-1.317517
H127	H	1.289956	-0.377137	-1.337795
H128	H	1.531560	-0.539088	-1.015667
H129	H	1.205073	-0.948901	-0.819078
H130	H	1.107012	-0.550071	-0.751050
H131	H	0.708870	-0.550102	-0.751106
