data_functionalizedCrystal
_audit_creation_method	'MofGen! by Chris Wilmer'
_symmetry_space_group_name_H-M	'P1'
_symmetry_Int_Tables_number	1
_symmetry_cell_setting	triclinic
loop_
_symmetry_equiv_pos_as_xyz
  x,y,z
_cell_length_a	25.639239
_cell_length_b	18.215407
_cell_length_c	18.215399
_cell_angle_alpha	89.982632
_cell_angle_beta	89.969965
_cell_angle_gamma	90.036130
loop_
_atom_site_label
_atom_site_type_symbol
_atom_site_fract_x
_atom_site_fract_y
_atom_site_fract_z
Zn1	Zn	-0.208192	1.125001	-0.416057
Zn2	Zn	0.125141	1.458335	-0.082723
Zn3	Zn	0.458475	1.791668	0.250610
Zn4	Zn	-0.295628	1.124880	-0.292986
Zn5	Zn	0.037705	1.458213	0.040347
Zn6	Zn	0.371039	1.791547	0.373681
Zn7	Zn	-0.208204	1.001934	-0.293009
Zn8	Zn	0.125129	1.335267	0.040324
Zn9	Zn	0.458462	1.668601	0.373657
Zn10	Zn	-0.295594	1.001870	-0.416016
Zn11	Zn	0.037739	1.335203	-0.082683
Zn12	Zn	0.371073	1.668537	0.250650
O13	O	-0.251905	1.063421	-0.354517
O14	O	0.081429	1.396755	-0.021184
O15	O	0.414762	1.730088	0.312150
O16	O	-0.219799	1.227969	-0.399738
O17	O	0.113534	1.561303	-0.066405
O18	O	0.446867	1.894636	0.266928
O19	O	-0.284050	1.108547	-0.190005
O20	O	0.049283	1.441880	0.143329
O21	O	0.382616	1.775214	0.476662
O22	O	-0.135037	1.018336	-0.309359
O23	O	0.198296	1.351670	0.023975
O24	O	0.531629	1.685003	0.357308
O25	O	-0.284038	1.227880	-0.309319
O26	O	0.049295	1.561214	0.024015
O27	O	0.382629	1.894547	0.357348
O28	O	-0.135028	1.108754	-0.399761
O29	O	0.198305	1.442087	-0.066428
O30	O	0.531638	1.775420	0.266906
O31	O	-0.219821	1.018219	-0.190022
O32	O	0.113513	1.351552	0.143311
O33	O	0.446846	1.684886	0.476645
O34	O	-0.219788	0.898941	-0.309319
O35	O	0.113545	1.232275	0.024014
O36	O	0.446879	1.565608	0.357347
O37	O	-0.283981	1.018228	-0.519006
O38	O	0.049353	1.351561	-0.185673
O39	O	0.382686	1.684894	0.147661
O40	O	-0.283993	0.898894	-0.399692
O41	O	0.049340	1.232228	-0.066359
O42	O	0.382674	1.565561	0.266975
O43	O	-0.219767	1.108692	-0.519036
O44	O	0.113567	1.442025	-0.185702
O45	O	0.446900	1.775358	0.147631
O46	O	-0.368789	1.108485	-0.309279
O47	O	-0.035455	1.441818	0.024054
O48	O	0.297878	1.775152	0.357387
O49	O	-0.368764	1.018110	-0.399669
O50	O	-0.035431	1.351444	-0.066336
O51	O	0.297903	1.684777	0.266997
C52	C	-0.251888	0.872215	-0.354504
C53	C	0.081445	1.205548	-0.021171
C54	C	0.414778	1.538882	0.312162
C55	C	-0.251894	0.790416	-0.354516
C56	C	0.081439	1.123750	-0.021183
C57	C	0.414772	1.457083	0.312151
C58	C	-0.218514	0.602268	-0.401672
C59	C	0.114819	0.935601	-0.068339
C60	C	0.448153	1.268934	0.264995
C61	C	-0.218518	0.525409	-0.401674
C62	C	0.114815	0.858742	-0.068341
C63	C	0.448148	1.192076	0.264992
C64	C	-0.285310	0.525327	-0.307375
C65	C	0.048023	0.858660	0.025958
C66	C	0.381357	1.191994	0.359292
C67	C	-0.285302	0.602184	-0.307370
C68	C	0.048031	0.935518	0.025964
C69	C	0.381364	1.268851	0.359297
C70	C	-0.251905	0.640653	-0.354522
C71	C	0.081428	0.973986	-0.021189
C72	C	0.414762	1.307319	0.312145
C73	C	-0.251917	0.486937	-0.354530
C74	C	0.081416	0.820270	-0.021197
C75	C	0.414750	1.153603	0.312136
C76	C	-0.251922	0.403603	-0.354533
C77	C	0.081411	0.736936	-0.021199
C78	C	0.414744	1.070270	0.312134
C79	C	-0.251899	0.723992	-0.354519
C80	C	0.081434	1.057325	-0.021186
C81	C	0.414767	1.390658	0.312148
C82	C	-0.387747	1.063298	-0.354483
C83	C	-0.054414	1.396631	-0.021150
C84	C	0.278920	1.729964	0.312183
C85	C	-0.445861	1.063312	-0.354494
C86	C	-0.112528	1.396645	-0.021160
C87	C	0.220805	1.729979	0.312173
C88	C	-0.806224	1.110602	-0.307531
C89	C	-0.472891	1.443936	0.025802
C90	C	-0.139558	1.777269	0.359135
C91	C	-0.860829	1.110631	-0.307541
C92	C	-0.527495	1.443964	0.025792
C93	C	-0.194162	1.777298	0.359125
O94	O	-0.889066	1.150710	-0.267575
O95	O	-0.555732	1.484044	0.065758
O96	O	-0.222399	1.817377	0.399091
N97	N	-0.888144	1.063551	-0.354566
N98	N	-0.554810	1.396884	-0.021233
N99	N	-0.221477	1.730217	0.312101
C100	C	-0.860851	1.016444	-0.401589
C101	C	-0.527518	1.349778	-0.068256
C102	C	-0.194185	1.683111	0.265078
O103	O	-0.889099	0.976402	-0.441589
O104	O	-0.555765	1.309735	-0.108255
O105	O	-0.222432	1.643069	0.225078
C106	C	-0.806248	1.016420	-0.401582
C107	C	-0.472915	1.349753	-0.068249
C108	C	-0.139581	1.683087	0.265084
C109	C	-0.778936	1.063498	-0.354549
C110	C	-0.445603	1.396831	-0.021216
C111	C	-0.112269	1.730165	0.312117
C112	C	-0.778912	1.157677	-0.260503
C113	C	-0.445579	1.491010	0.072831
C114	C	-0.112246	1.824344	0.406164
C115	C	-0.724312	1.157647	-0.260492
C116	C	-0.390979	1.490981	0.072841
C117	C	-0.057645	1.824314	0.406175
C118	C	-0.697023	1.110543	-0.307510
C119	C	-0.363690	1.443876	0.025823
C120	C	-0.030357	1.777210	0.359157
C121	C	-0.724335	1.063468	-0.354539
C122	C	-0.391002	1.396802	-0.021205
C123	C	-0.057669	1.730135	0.312128
C124	C	-0.778957	0.969318	-0.448609
C125	C	-0.445623	1.302651	-0.115275
C126	C	-0.112290	1.635984	0.218058
C127	C	-0.724350	0.969298	-0.448598
C128	C	-0.391016	1.302631	-0.115265
C129	C	-0.057683	1.635965	0.218068
C130	C	-0.697038	1.016376	-0.401565
C131	C	-0.363704	1.349709	-0.068232
C132	C	-0.030371	1.683043	0.265101
C133	C	-0.642446	1.016334	-0.401546
C134	C	-0.309113	1.349667	-0.068213
C135	C	0.024220	1.683001	0.265121
N136	N	-0.615132	1.063414	-0.354521
N137	N	-0.281798	1.396748	-0.021188
N138	N	0.051535	1.730081	0.312145
C139	C	-0.642420	1.110519	-0.307503
C140	C	-0.309087	1.443852	0.025830
C141	C	0.024247	1.777185	0.359163
C142	C	-0.975522	1.016500	-0.401600
C143	C	-0.642188	1.349833	-0.068267
C144	C	-0.308855	1.683166	0.265066
C145	C	-1.030124	1.016520	-0.401604
C146	C	-0.696791	1.349853	-0.068271
C147	C	-0.363457	1.683186	0.265063
C148	C	-1.030098	1.110707	-0.307557
C149	C	-0.696765	1.444041	0.025777
C150	C	-0.363431	1.777374	0.359110
C151	C	-0.975495	1.110683	-0.307550
C152	C	-0.642161	1.444017	0.025783
C153	C	-0.308828	1.777350	0.359117
C154	C	-0.948207	1.063580	-0.354576
C155	C	-0.614874	1.396913	-0.021242
C156	C	-0.281540	1.730247	0.312091
C157	C	-0.527755	1.110452	-0.307484
C158	C	-0.194422	1.443786	0.025849
C159	C	0.138912	1.777119	0.359182
C160	C	-0.473150	1.110416	-0.307476
C161	C	-0.139816	1.443750	0.025858
C162	C	0.193517	1.777083	0.359191
C163	C	-0.473181	1.016232	-0.401525
C164	C	-0.139847	1.349565	-0.068192
C165	C	0.193486	1.682898	0.265142
C166	C	-0.527781	1.016265	-0.401531
C167	C	-0.194448	1.349598	-0.068198
C168	C	0.138885	1.682931	0.265135
C169	C	-0.555067	1.063381	-0.354508
C170	C	-0.221734	1.396714	-0.021175
C171	C	0.111600	1.730048	0.312158
O172	O	-0.614175	0.976277	-0.441494
O173	O	-0.280841	1.309610	-0.108160
O174	O	0.052492	1.642944	0.225173
O175	O	-0.614166	1.150561	-0.267517
O176	O	-0.280833	1.483894	0.065816
O177	O	0.052501	1.817228	0.399149
C178	C	-0.115532	1.063566	-0.354567
C179	C	0.217802	1.396899	-0.021234
C180	C	0.551135	1.730232	0.312100
C181	C	-0.057417	1.063627	-0.354588
C182	C	0.275916	1.396960	-0.021255
C183	C	0.609249	1.730294	0.312078
C184	C	-0.251869	1.063466	-0.546470
C185	C	0.081465	1.396800	-0.213137
C186	C	0.414798	1.730133	0.120197
C187	C	-0.251853	1.063485	-0.628269
C188	C	0.081480	1.396819	-0.294936
C189	C	0.414814	1.730152	0.038398
C190	C	-0.251921	1.255374	-0.354530
C191	C	0.081412	1.588708	-0.021197
C192	C	0.414746	1.922041	0.312136
C193	C	-0.251928	1.337173	-0.354536
C194	C	0.081405	1.670506	-0.021203
C195	C	0.414739	2.003840	0.312131
C196	C	-0.218386	1.110607	-0.816480
C197	C	0.114948	1.443940	-0.483146
C198	C	0.448281	1.777274	-0.149813
C199	C	-0.218370	1.110616	-0.893339
C200	C	0.114963	1.443949	-0.560005
C201	C	0.448296	1.777282	-0.226672
C202	C	-0.285240	1.016416	-0.893296
C203	C	0.048093	1.349749	-0.559963
C204	C	0.381427	1.683083	-0.226630
C205	C	-0.285252	1.016404	-0.816439
C206	C	0.048081	1.349737	-0.483106
C207	C	0.381415	1.683071	-0.149772
C208	C	-0.251826	1.063504	-0.778033
C209	C	0.081508	1.396837	-0.444699
C210	C	0.414841	1.730170	-0.111366
C211	C	-0.251798	1.063524	-0.931749
C212	C	0.081535	1.396858	-0.598415
C213	C	0.414868	1.730191	-0.265082
C214	C	-0.251782	1.063534	-1.015082
C215	C	0.081551	1.396867	-0.681749
C216	C	0.414885	1.730200	-0.348416
C217	C	-0.251841	1.063494	-0.694694
C218	C	0.081492	1.396827	-0.361360
C219	C	0.414826	1.730160	-0.028027
C220	C	-0.251903	1.063419	-0.163311
C221	C	0.081431	1.396752	0.170022
C222	C	0.414764	1.730086	0.503356
C223	C	-0.251771	1.063543	-0.081512
C224	C	0.081563	1.396876	0.251821
C225	C	0.414896	1.730209	0.585154
H226	H	-0.191327	0.494159	-0.440067
H227	H	0.142006	0.827492	-0.106734
H228	H	0.475340	1.160826	0.226599
H229	H	-0.702078	1.195984	-0.222196
H230	H	-0.368744	1.529318	0.111137
H231	H	-0.035411	1.862651	0.444471
H232	H	-0.191166	1.148956	-0.785212
H233	H	0.142167	1.482290	-0.451878
H234	H	0.475500	1.815623	-0.118545
O235	O	-0.321332	0.483832	-0.256526
O236	O	0.012001	0.817166	0.076808
O237	O	0.345334	1.150499	0.410141
H238	H	-0.312308	0.498563	-0.198788
H239	H	0.021025	0.831897	0.134545
H240	H	0.354358	1.165230	0.467879
O241	O	-0.557245	0.965488	-0.452256
O242	O	-0.223911	1.298821	-0.118922
O243	O	0.109422	1.632155	0.214411
H244	H	-0.529093	0.932731	-0.484950
H245	H	-0.195760	1.266065	-0.151617
H246	H	0.137573	1.599398	0.181716
H247	H	-0.312494	0.633438	-0.268970
H248	H	0.020839	0.966772	0.064363
H249	H	0.354173	1.300105	0.397696
H250	H	-0.450914	1.148753	-0.269173
H251	H	-0.117581	1.482086	0.064160
H252	H	0.215753	1.815419	0.397494
O253	O	-0.557182	1.161263	-0.256762
O254	O	-0.223848	1.494596	0.076571
O255	O	0.109485	1.827929	0.409904
H256	H	-0.529009	1.193982	-0.224057
H257	H	-0.195676	1.527315	0.109276
H258	H	0.137657	1.860649	0.442609
O259	O	-1.059581	0.965738	-0.452327
O260	O	-0.726247	1.299072	-0.118993
O261	O	-0.392914	1.632405	0.214340
H262	H	-1.031426	0.932985	-0.485020
H263	H	-0.698093	1.266319	-0.151687
H264	H	-0.364760	1.599652	0.181647
H265	H	-0.801125	1.196039	-0.222215
H266	H	-0.467792	1.529372	0.111119
H267	H	-0.134458	1.862706	0.444452
H268	H	-0.953260	1.149018	-0.269252
H269	H	-0.619927	1.482352	0.064081
H270	H	-0.286594	1.815685	0.397414
H271	H	-1.052326	1.149065	-0.269275
H272	H	-0.718993	1.482398	0.064059
H273	H	-0.385660	1.815732	0.397392
H274	H	-0.953307	0.978136	-0.439892
H275	H	-0.619974	1.311470	-0.106559
H276	H	-0.286640	1.644803	0.226775
O277	O	-0.321316	0.965595	-0.774956
O278	O	0.012017	1.298928	-0.441623
O279	O	0.345351	1.632262	-0.108290
H280	H	-0.297907	0.928177	-0.739954
H281	H	0.035427	1.261510	-0.406621
H282	H	0.368760	1.594843	-0.073287
O283	O	-0.182486	0.643755	-0.452520
O284	O	0.150847	0.977089	-0.119187
O285	O	0.484180	1.310422	0.214147
H286	H	-0.205914	0.678765	-0.489910
H287	H	0.127420	1.012099	-0.156576
H288	H	0.460753	1.345432	0.176757
O289	O	-0.808407	0.918545	-0.499342
O290	O	-0.475074	1.251878	-0.166009
O291	O	-0.141740	1.585212	0.167324
H292	H	-0.780250	0.885799	-0.532038
H293	H	-0.446916	1.219133	-0.198704
H294	H	-0.113583	1.552466	0.134629
O295	O	-0.694917	0.918483	-0.499311
O296	O	-0.361583	1.251817	-0.165977
O297	O	-0.028250	1.585150	0.167356
H298	H	-0.723086	0.885749	-0.532006
H299	H	-0.389752	1.219083	-0.198673
H300	H	-0.056419	1.552416	0.134660
O301	O	-0.443744	0.965430	-0.452240
O302	O	-0.110410	1.298764	-0.118907
O303	O	0.222923	1.632097	0.214426
H304	H	-0.401187	0.973331	-0.444334
H305	H	-0.067854	1.306664	-0.111000
H306	H	0.265480	1.639997	0.222333
O307	O	-0.321294	0.965622	-0.934723
O308	O	0.012039	1.298956	-0.601389
O309	O	0.345373	1.632289	-0.268056
H310	H	-0.312321	0.907871	-0.919970
H311	H	0.021013	1.241204	-0.586637
H312	H	0.354346	1.574538	-0.253304
H313	H	-0.191139	1.148971	-0.924639
H314	H	0.142194	1.482304	-0.591305
H315	H	0.475527	1.815637	-0.257972
