data_functionalizedCrystal
_audit_creation_method	'MofGen! by Chris Wilmer'
_symmetry_space_group_name_H-M	'P1'
_symmetry_Int_Tables_number	1
_symmetry_cell_setting	triclinic
loop_
_symmetry_equiv_pos_as_xyz
  x,y,z
_cell_length_a	31.640172
_cell_length_b	12.970454
_cell_length_c	12.970454
_cell_angle_alpha	59.999644
_cell_angle_beta	90.004135
_cell_angle_gamma	59.998248
loop_
_atom_site_label
_atom_site_type_symbol
_atom_site_fract_x
_atom_site_fract_y
_atom_site_fract_z
Zr1	Zr	0.407182	1.128396	-0.135173
O2	O	0.339692	1.343509	-0.299821
O3	O	0.427871	0.913299	-0.084699
O4	O	0.427871	1.128391	-0.299791
O5	O	0.339693	1.128416	0.084938
O6	O	0.497428	1.128369	-0.299769
O7	O	0.339692	1.128417	-0.084729
O8	O	0.497428	0.743609	0.084992
O9	O	0.339692	1.513176	-0.299822
O10	O	0.488604	1.001750	-0.063157
O11	O	0.436695	1.001765	0.063447
O12	O	0.436695	1.255008	-0.189796
O13	O	0.384785	1.255024	-0.063192
Zr14	Zr	0.518118	1.128361	0.135463
Zr15	Zr	0.518117	1.128362	-0.135137
Zr16	Zr	0.407182	1.128395	0.135427
Zr17	Zr	0.407182	1.398996	-0.135175
Zr18	Zr	0.518118	0.857761	0.135464
O19	O	0.497428	1.343458	0.084989
O20	O	0.497428	1.343460	-0.299770
O21	O	0.339693	1.343507	0.084937
O22	O	0.585608	0.913249	0.300110
O23	O	0.585607	0.913250	-0.084648
O24	O	0.427872	0.913297	0.300059
O25	O	0.585607	1.128341	-0.084649
O26	O	0.497429	1.128367	0.300080
O27	O	0.427872	1.128388	0.300058
O28	O	0.585607	1.128340	0.085018
O29	O	0.427871	1.513149	-0.299793
O30	O	0.497429	0.743608	0.300082
O31	O	0.585608	0.743581	0.300111
O32	O	0.585607	0.743582	0.085020
O33	O	0.339692	1.513175	-0.084731
O34	O	0.427871	1.513148	-0.084702
O35	O	0.488605	1.001749	0.190085
O36	O	0.540514	1.001734	0.063481
O37	O	0.488604	1.254992	-0.063158
O38	O	0.436695	1.255007	0.063446
C39	C	0.462650	0.789899	0.000146
C40	C	0.462650	0.675023	0.000147
C41	C	0.323886	1.128421	0.000100
C42	C	0.276791	1.128436	0.000084
C43	C	0.011882	0.996167	0.066274
C44	C	-0.165103	0.996141	0.066299
O45	O	-0.164945	0.883711	0.122565
N46	N	-0.214329	1.128339	0.000193
C47	C	-0.219308	1.260552	-0.065917
O48	O	-0.265239	1.372993	-0.122133
C49	C	-0.042324	1.260575	-0.065934
C50	C	0.006902	1.128370	0.000166
C51	C	0.061105	0.863972	0.132370
C52	C	0.105349	0.863979	0.132357
C53	C	0.100369	0.996182	0.066249
C54	C	0.051145	1.128377	0.000154
C55	C	-0.047303	1.392787	-0.132035
C56	C	-0.003052	1.392781	-0.132031
C57	C	0.046174	1.260575	-0.065931
C58	C	0.090408	1.260588	-0.065967
N59	N	0.139634	1.128390	0.000139
C60	C	0.144615	0.996188	0.066247
C61	C	-0.312226	1.260530	-0.065905
C62	C	-0.356472	1.260524	-0.065903
C63	C	-0.302264	0.996114	0.066315
C64	C	-0.258017	0.996121	0.066305
C65	C	-0.263000	1.128333	0.000201
C66	C	0.237527	0.996214	0.066215
C67	C	0.281772	0.996233	0.066192
C68	C	0.227560	1.260643	-0.066020
C69	C	0.183318	1.260624	-0.066003
C70	C	0.188305	1.128398	0.000124
O71	O	0.090289	1.372959	-0.122191
O72	O	0.190550	0.883763	0.122478
C73	C	-0.032362	0.996159	0.066287
C74	C	-0.081585	1.128354	0.000191
C75	C	-0.086565	1.260557	-0.065917
C76	C	-0.125831	1.128349	0.000194
C77	C	-0.120851	0.996146	0.066302
C78	C	-0.071625	0.863949	0.132408
C79	C	-0.027381	0.863956	0.132395
C80	C	-0.135791	1.392754	-0.132023
C81	C	-0.180032	1.392736	-0.132006
C82	C	-0.175052	1.260533	-0.065898
C83	C	0.601413	1.128336	0.000190
C84	C	0.648508	1.128322	0.000205
C85	C	0.462649	1.128380	-0.338335
C86	C	0.462649	1.128381	-0.453211
C87	C	0.462650	1.466858	0.000143
C88	C	0.462650	1.581735	0.000142
C89	C	0.462650	1.128377	0.338624
C90	C	0.462651	1.128376	0.453501
C91	C	0.601413	0.789857	0.000191
C92	C	0.648508	0.674966	0.000207
C93	C	0.462650	0.789898	0.338626
C94	C	0.462651	0.675020	0.453503
C95	C	0.601414	0.789855	0.338671
C96	C	0.648509	0.674963	0.453563
C97	C	0.323886	1.466902	-0.338381
C98	C	0.276791	1.581794	-0.453274
C99	C	0.323886	1.466901	0.000098
C100	C	0.276791	1.581792	0.000082
C101	C	0.462649	1.466860	-0.338336
C102	C	0.462649	1.581737	-0.453214
C103	C	0.643528	0.621020	-0.065900
C104	C	0.687774	0.513082	-0.065910
C105	C	0.737001	0.459085	0.000195
C106	C	0.741980	0.513041	0.066304
C107	C	0.697734	0.620984	0.066306
C108	C	0.697726	0.621001	0.441432
C109	C	0.741981	0.513063	0.549376
C110	C	0.737018	0.459082	0.669449
C111	C	0.687796	0.513055	0.681578
C112	C	0.643542	0.620998	0.573636
C113	C	0.227573	1.635770	-0.441143
C114	C	0.183318	1.743741	-0.549086
C115	C	0.188281	1.797728	-0.669160
C116	C	0.237504	1.743748	-0.681289
C117	C	0.281758	1.635786	-0.573346
C118	C	0.281772	1.635749	0.066178
C119	C	0.237525	1.743716	0.066159
C120	C	0.188299	1.797717	0.000050
C121	C	0.183320	1.743756	-0.066055
C122	C	0.227566	1.635798	-0.066042
H123	H	0.321853	0.888570	0.120023
C124	C	0.139631	1.916463	0.000047
H125	H	0.109598	1.940910	-0.048796
H126	H	0.139635	1.881076	0.084261
H127	H	0.139634	2.000677	-0.035347
C128	C	0.129171	1.803152	-0.138760
H129	H	0.132537	1.755568	-0.178134
H130	H	0.110788	1.785467	-0.081701
H131	H	0.110784	1.905070	-0.201316
H132	H	0.223504	1.591869	-0.119862
H133	H	0.321850	1.591789	0.120020
H134	H	0.683762	0.469088	0.779356
C135	C	-0.203873	0.850696	0.139029
H136	H	-0.207250	0.771967	0.178404
H137	H	-0.185483	0.845189	0.081990
H138	H	-0.185488	0.845202	0.201586
C139	C	0.129170	1.406046	-0.138711
H140	H	0.132543	1.484781	-0.178077
H141	H	0.110773	1.411552	-0.201251
H142	H	0.110793	1.411530	-0.081637
H143	H	-0.220113	1.500402	-0.185845
H144	H	0.773024	0.371190	0.000184
C145	C	0.589405	0.680329	0.586995
H146	H	0.592793	0.632702	0.673969
H147	H	0.571007	0.782241	0.547636
H148	H	0.571021	0.662616	0.547645
H149	H	0.223522	1.591819	-0.343383
H150	H	0.143244	1.787673	-0.539186
C151	C	0.139599	1.916464	-0.787885
H152	H	0.109578	1.940856	-0.763452
H153	H	0.139587	2.000694	-0.836731
H154	H	0.139594	1.881069	-0.836705
H155	H	-0.298215	0.888469	0.120136
H156	H	0.241595	0.888542	0.120063
C157	C	0.222089	1.406054	-0.138798
H158	H	0.255492	1.387113	-0.129341
H159	H	0.203702	1.460326	-0.225749
H160	H	0.203706	1.460426	-0.106196
C161	C	-0.066153	0.718529	0.205132
H162	H	-0.099557	0.737474	0.195673
H163	H	-0.047770	0.664195	0.172507
H164	H	-0.047766	0.664219	0.292098
H165	H	0.012697	0.756300	0.186223
H166	H	0.241539	1.787718	-0.779065
H167	H	0.701796	0.664893	0.120146
C168	C	0.335894	1.576406	-0.586706
H169	H	0.332507	1.624017	-0.673679
H170	H	0.354294	1.594071	-0.547346
H171	H	0.354277	1.474494	-0.547357
H172	H	0.145427	0.756323	0.186177
H173	H	0.241589	1.787633	0.119993
H174	H	0.065169	0.756310	0.186210
H175	H	-0.316291	1.368199	-0.119744
C176	C	-0.410615	1.405950	-0.138621
H177	H	-0.407239	1.484679	-0.177979
H178	H	-0.429008	1.411458	-0.201170
H179	H	-0.428998	1.411444	-0.081560
H180	H	-0.087378	1.500443	-0.185860
C181	C	0.703193	0.680370	0.309363
H182	H	0.669791	0.752381	0.246801
H183	H	0.721577	0.722479	0.299903
H184	H	0.721582	0.602869	0.299903
C185	C	-0.008536	1.538218	-0.204754
H186	H	-0.044191	1.616944	-0.244124
H187	H	0.007601	1.543721	-0.147713
H188	H	0.007591	1.543721	-0.267316
C189	C	-0.141277	1.538185	-0.204756
H190	H	-0.176932	1.616906	-0.244127
H191	H	-0.125142	1.543705	-0.147725
H192	H	-0.125149	1.543682	-0.267317
C193	C	0.589385	0.680406	-0.138629
H194	H	0.592764	0.632819	-0.178009
H195	H	0.570993	0.662720	-0.081594
H196	H	0.570999	0.782323	-0.201184
C197	C	0.796130	0.453622	0.139026
H198	H	0.821764	0.381598	0.129561
H199	H	0.800022	0.531087	0.106406
H200	H	0.800014	0.411487	0.225992
H201	H	0.773057	0.371187	0.757332
C202	C	0.796119	0.453698	0.536012
H203	H	0.792733	0.501293	0.449039
H204	H	0.814512	0.471389	0.575356
H205	H	0.814508	0.351781	0.575379
H206	H	0.683710	0.469165	-0.119744
