data_functionalizedCrystal
_audit_creation_method	'MofGen! by Chris Wilmer'
_symmetry_space_group_name_H-M	'P1'
_symmetry_Int_Tables_number	1
_symmetry_cell_setting	triclinic
loop_
_symmetry_equiv_pos_as_xyz
  x,y,z
_cell_length_a	10.686220
_cell_length_b	16.625539
_cell_length_c	10.686285
_cell_angle_alpha	94.392139
_cell_angle_beta	89.654569
_cell_angle_gamma	94.350309
loop_
_atom_site_label
_atom_site_type_symbol
_atom_site_fract_x
_atom_site_fract_y
_atom_site_fract_z
Zn1	Zn	1.956165	-0.342920	0.352082
Zn2	Zn	2.289498	-0.009586	0.685415
Zn3	Zn	2.622831	0.323747	1.018749
Zn4	Zn	1.972163	-0.197047	0.561874
Zn5	Zn	2.305497	0.136287	0.895207
Zn6	Zn	2.638830	0.469620	1.228541
Zn7	Zn	1.746396	-0.217581	0.368240
Zn8	Zn	2.079729	0.115753	0.701573
Zn9	Zn	2.413063	0.449086	1.034906
Zn10	Zn	1.762490	-0.341319	0.577904
Zn11	Zn	2.095823	-0.007985	0.911237
Zn12	Zn	2.429157	0.325348	1.244570
O13	O	1.859304	-0.274716	0.465025
O14	O	2.192637	0.058617	0.798358
O15	O	2.525970	0.391950	1.131692
O16	O	2.133825	-0.315646	0.366441
O17	O	2.467158	0.017688	0.699774
O18	O	2.800492	0.351021	1.033108
O19	O	1.942175	-0.086937	0.536241
O20	O	2.275508	0.246396	0.869575
O21	O	2.608842	0.579729	1.202908
O22	O	1.760791	-0.243471	0.190553
O23	O	2.094125	0.089863	0.523886
O24	O	2.427458	0.423196	0.857219
O25	O	2.145579	-0.208473	0.520574
O26	O	2.478912	0.124860	0.853908
O27	O	2.812246	0.458193	1.187241
O28	O	1.914907	-0.335557	0.178682
O29	O	2.248241	-0.002223	0.512015
O30	O	2.581574	0.331110	0.845348
O31	O	1.776305	-0.102024	0.393979
O32	O	2.109638	0.231310	0.727312
O33	O	2.442971	0.564643	1.060646
O34	O	1.572993	-0.241918	0.409522
O35	O	1.906326	0.091415	0.742856
O36	O	2.239660	0.424748	1.076189
O37	O	1.788221	-0.454364	0.547894
O38	O	2.121555	-0.121031	0.881228
O39	O	2.454888	0.212303	1.214561
O40	O	1.584817	-0.332828	0.563562
O41	O	1.918150	0.000505	0.896895
O42	O	2.251484	0.333839	1.230228
O43	O	1.930513	-0.455540	0.381984
O44	O	2.263847	-0.122207	0.715318
O45	O	2.597180	0.211126	1.048651
O46	O	1.957781	-0.206921	0.739544
O47	O	2.291114	0.126412	1.072877
O48	O	2.624447	0.459746	1.406211
O49	O	1.803735	-0.312917	0.751321
O50	O	2.137068	0.020416	1.084654
O51	O	2.470401	0.353750	1.417988
C52	C	1.533390	-0.289428	0.490036
C53	C	1.866723	0.043905	0.823369
C54	C	2.200057	0.377239	1.156702
C55	C	1.393965	-0.295739	0.500766
C56	C	1.727298	0.037594	0.834099
C57	C	2.060632	0.370927	1.167432
C58	C	1.859378	-0.485027	0.464925
C59	C	2.192711	-0.151693	0.798258
C60	C	2.526045	0.181640	1.131592
C61	C	1.859410	-0.574648	0.464883
C62	C	2.192743	-0.241315	0.798216
C63	C	2.526076	0.092018	1.131549
C64	C	1.859457	-0.902829	0.464738
C65	C	2.192790	-0.569496	0.798071
C66	C	2.526123	-0.236162	1.131404
C67	C	1.859440	-0.811519	0.464782
C68	C	2.192774	-0.478186	0.798116
C69	C	2.526107	-0.144852	1.131449
C70	C	1.859434	-0.738741	0.464811
C71	C	2.192767	-0.405408	0.798144
C72	C	2.526100	-0.072075	1.131478
C73	C	1.859416	-0.647426	0.464854
C74	C	2.192749	-0.314093	0.798187
C75	C	2.526083	0.019241	1.131521
C76	C	2.186490	-0.259948	0.439917
C77	C	2.519823	0.073386	0.773251
C78	C	2.853156	0.406719	1.106584
C79	C	2.325917	-0.253654	0.429218
C80	C	2.659250	0.079679	0.762551
C81	C	2.992584	0.413013	1.095885
C82	C	1.884274	-0.257533	0.790946
C83	C	2.217608	0.075800	1.124280
C84	C	2.550941	0.409134	1.457613
C85	C	1.895072	-0.250204	0.930368
C86	C	2.228405	0.083130	1.263702
C87	C	2.561738	0.416463	1.597035
C88	C	1.859295	-0.065226	0.465028
C89	C	2.192628	0.268108	0.798361
C90	C	2.525961	0.601441	1.131695
C91	C	1.859479	0.024388	0.464699
C92	C	2.192812	0.357721	0.798032
C93	C	2.526145	0.691054	1.131365
C94	C	1.834270	-0.291983	0.137828
C95	C	2.167603	0.041350	0.471161
C96	C	2.500936	0.374684	0.804495
C97	C	1.823601	-0.299341	-0.001604
C98	C	2.156935	0.033993	0.331729
C99	C	2.490268	0.367326	0.665063
H100	H	1.345554	-0.336597	0.570241
H101	H	1.678888	-0.003263	0.903574
H102	H	2.012221	0.330070	1.236908
H103	H	1.964515	-0.202519	0.978795
H104	H	2.297849	0.130814	1.312129
H105	H	2.631182	0.464147	1.645462
O106	O	1.390019	-0.199532	0.337191
O107	O	1.723353	0.133801	0.670525
O108	O	2.056686	0.467134	1.003858
H109	H	1.493141	-0.202909	0.342910
H110	H	1.826475	0.130425	0.676243
H111	H	2.159808	0.463758	1.009577
O112	O	1.731613	-0.362504	0.934272
O113	O	2.064947	-0.029170	1.267606
O114	O	2.398280	0.304163	1.600939
H115	H	1.737296	-0.358551	0.831154
H116	H	2.070629	-0.025218	1.164488
H117	H	2.403962	0.308116	1.497821
