data_functionalizedCrystal
_audit_creation_method	'MofGen! by Chris Wilmer'
_symmetry_space_group_name_H-M	'P1'
_symmetry_Int_Tables_number	1
_symmetry_cell_setting	triclinic
loop_
_symmetry_equiv_pos_as_xyz
  x,y,z
_cell_length_a	18.101398
_cell_length_b	18.101395
_cell_length_c	18.101389
_cell_angle_alpha	90.016841
_cell_angle_beta	90.024327
_cell_angle_gamma	90.026371
loop_
_atom_site_label
_atom_site_type_symbol
_atom_site_fract_x
_atom_site_fract_y
_atom_site_fract_z
Zn1	Zn	1.132121	-0.295001	0.418847
Zn2	Zn	1.632121	0.204999	0.918847
Zn3	Zn	1.132017	-0.418826	0.295009
Zn4	Zn	1.632017	0.081174	0.795009
Zn5	Zn	1.008280	-0.294993	0.295008
Zn6	Zn	1.508280	0.205007	0.795008
Zn7	Zn	1.008231	-0.418795	0.418797
Zn8	Zn	1.508231	0.081205	0.918797
O9	O	1.070162	-0.356904	0.356915
O10	O	1.570162	0.143096	0.856915
O11	O	1.235740	-0.311443	0.402440
O12	O	1.735740	0.188557	0.902440
O13	O	1.115580	-0.402410	0.191376
O14	O	1.615580	0.097590	0.691376
O15	O	1.024772	-0.191361	0.311456
O16	O	1.524772	0.308639	0.811456
O17	O	1.235664	-0.402417	0.311457
O18	O	1.735664	0.097583	0.811457
O19	O	1.115757	-0.191367	0.402440
O20	O	1.615757	0.308633	0.902440
O21	O	1.024671	-0.311430	0.191375
O22	O	1.524671	0.188570	0.691375
O23	O	0.904641	-0.311399	0.311408
O24	O	1.404641	0.188601	0.811408
O25	O	1.024688	-0.402363	0.522437
O26	O	1.524688	0.097637	1.022437
O27	O	0.904604	-0.402356	0.402355
O28	O	1.404604	0.097644	0.902355
O29	O	1.115710	-0.311412	0.522473
O30	O	1.615710	0.188588	1.022473
O31	O	1.115532	-0.522455	0.311409
O32	O	1.615532	-0.022455	0.811409
O33	O	1.024587	-0.522432	0.402356
O34	O	1.524587	-0.022432	0.902356
C35	C	0.877752	-0.356874	0.356877
C36	C	1.377752	0.143126	0.856877
C37	C	0.795437	-0.356879	0.356878
C38	C	1.295437	0.143121	0.856878
C39	C	0.496347	-0.356925	0.356940
C40	C	0.996347	0.143075	0.856940
C41	C	0.527670	-0.299412	0.299997
C42	C	1.027670	0.200588	0.799997
C43	C	0.613288	-0.299566	0.299754
C44	C	1.113288	0.200434	0.799754
C45	C	0.644729	-0.356901	0.356909
C46	C	1.144729	0.143099	0.856909
C47	C	0.613611	-0.434909	0.335587
C48	C	1.113611	0.065091	0.835587
C49	C	0.527966	-0.434590	0.335191
C50	C	1.027966	0.065410	0.835191
C51	C	0.527961	-0.337109	0.435339
C52	C	1.027961	0.162891	0.935339
C53	C	0.613612	-0.335371	0.434911
C54	C	1.113612	0.164629	0.934911
C55	C	0.728589	-0.356893	0.356893
C56	C	1.228589	0.143107	0.856893
C57	C	0.412487	-0.356939	0.356954
C58	C	0.912487	0.143061	0.856954
C59	C	1.070063	-0.549314	0.356893
C60	C	1.570063	-0.049314	0.856893
C61	C	1.070088	-0.631628	0.356909
C62	C	1.570088	-0.131628	0.856909
C63	C	1.070251	-0.930719	0.356949
C64	C	1.570251	-0.430719	0.856949
C65	C	1.013163	-0.899410	0.414312
C66	C	1.513163	-0.399410	0.914312
C67	C	1.012892	-0.813792	0.414133
C68	C	1.512892	-0.313792	0.914133
C69	C	1.070170	-0.782337	0.356930
C70	C	1.570170	-0.282337	0.856930
C71	C	1.049041	-0.813472	0.278878
C72	C	1.549041	-0.313472	0.778878
C73	C	1.048673	-0.899117	0.279221
C74	C	1.548673	-0.399117	0.779221
C75	C	1.148593	-0.899073	0.376950
C76	C	1.648593	-0.399073	0.876950
C77	C	1.148132	-0.813422	0.378661
C78	C	1.648132	-0.313422	0.878661
C79	C	1.070126	-0.698477	0.356914
C80	C	1.570126	-0.198477	0.856914
C81	C	1.070293	-1.014579	0.356959
C82	C	1.570293	-0.514579	0.856959
C83	C	1.263324	-0.356934	0.356954
C84	C	1.763324	0.143066	0.856954
C85	C	1.345638	-0.356948	0.356971
C86	C	1.845638	0.143052	0.856971
C87	C	1.070205	-0.356885	0.550077
C88	C	1.570205	0.143115	1.050077
C89	C	1.070223	-0.356877	0.632391
C90	C	1.570223	0.143123	1.132391
C91	C	1.070282	-0.163742	0.356953
C92	C	1.570282	0.336258	0.856953
C93	C	1.070333	-0.081428	0.356970
C94	C	1.570333	0.418572	0.856970
C95	C	1.070162	-0.356869	0.164505
C96	C	1.570162	0.143131	0.664505
C97	C	1.070287	-0.356668	0.082191
C98	C	1.570287	0.143332	0.582191
C99	C	1.070266	-0.356738	0.931482
C100	C	1.570266	0.143262	1.431482
C101	C	1.012801	-0.413780	0.900134
C102	C	1.512801	0.086220	1.400134
C103	C	1.012956	-0.414045	0.814516
C104	C	1.512956	0.085955	1.314516
C105	C	1.070244	-0.356807	0.783100
C106	C	1.570244	0.143193	1.283100
C107	C	1.148270	-0.377998	0.814206
C108	C	1.648270	0.122002	1.314206
C109	C	1.147949	-0.378372	0.899851
C110	C	1.647949	0.121628	1.399851
C111	C	1.050385	-0.278379	0.899905
C112	C	1.550385	0.221621	1.399905
C113	C	1.048649	-0.278832	0.814254
C114	C	1.548649	0.221168	1.314254
C115	C	1.070237	-0.356845	0.699240
C116	C	1.570237	0.143155	1.199240
C117	C	1.070279	-0.356702	1.015342
C118	C	1.570279	0.143298	1.515342
H119	H	0.634329	-0.241719	0.313119
H120	H	1.134329	0.258281	0.813119
H121	H	1.191125	-0.919319	0.335170
H122	H	1.691125	-0.419319	0.835170
H123	H	1.167856	-0.920633	0.432895
H124	H	1.667856	-0.420633	0.932895
H125	H	0.507099	-0.241388	0.313215
H126	H	1.007099	0.258612	0.813215
H127	H	1.088449	-0.919830	0.235023
H128	H	1.588449	-0.419830	0.735023
C129	C	0.972493	-0.784587	0.255583
C130	C	1.472493	-0.284587	0.755583
H131	H	0.953309	-0.753561	0.293312
H132	H	1.453309	-0.253561	0.793312
H133	H	0.976923	-0.757245	0.211018
H134	H	1.476923	-0.257245	0.711018
H135	H	0.940015	-0.825140	0.248063
H136	H	1.440015	-0.325140	0.748063
H137	H	1.026082	-0.472127	0.794035
H138	H	1.526082	0.027873	1.294035
H139	H	0.507705	-0.378999	0.477766
H140	H	1.007705	0.121001	0.977766
H141	H	0.507954	-0.451397	0.277877
H142	H	1.007954	0.048603	0.777877
C143	C	1.030724	-0.785348	0.492319
C144	C	1.530724	-0.285348	0.992319
H145	H	1.038198	-0.826136	0.524479
H146	H	1.538198	-0.326136	1.024479
H147	H	1.074247	-0.756047	0.490818
H148	H	1.574247	-0.256047	0.990818
H149	H	0.990707	-0.756324	0.509907
H150	H	1.490707	-0.256324	1.009907
C151	C	0.641116	-0.257836	0.456652
C152	C	1.141116	0.242164	0.956652
H153	H	0.622112	-0.245130	0.503889
H154	H	1.122112	0.254870	1.003889
H155	H	0.693569	-0.257689	0.458304
H156	H	1.193569	0.242311	0.958304
H157	H	0.624632	-0.222856	0.421180
H158	H	1.124632	0.277144	0.921180
H159	H	0.506120	-0.312363	0.242242
H160	H	1.006120	0.187637	0.742242
C161	C	0.642512	-0.387846	0.495297
C162	C	1.142512	0.112154	0.995297
H163	H	0.674072	-0.423734	0.473631
H164	H	1.174072	0.076266	0.973631
H165	H	0.669289	-0.360307	0.531084
H166	H	1.169289	0.139693	1.031084
H167	H	0.601997	-0.411887	0.518421
H168	H	1.101997	0.088113	1.018421
C169	C	0.934798	-0.396121	0.786098
C170	C	1.434798	0.103879	1.286098
H171	H	0.902664	-0.388617	0.826897
H172	H	1.402664	0.111383	1.326897
H173	H	0.936386	-0.352592	0.756841
H174	H	1.436386	0.147408	1.256841
H175	H	0.917117	-0.436108	0.757035
H176	H	1.417117	0.063892	1.257035
H177	H	1.089313	-0.793097	0.234972
H178	H	1.589313	-0.293097	0.734972
H179	H	0.633741	-0.312665	0.241661
H180	H	1.133741	0.187335	0.741661
H181	H	1.192217	-0.338629	0.920590
H182	H	1.692217	0.161371	1.420590
H183	H	1.164065	-0.793071	0.436103
H184	H	1.664065	-0.293071	0.936103
C185	C	1.207668	-0.323644	0.786716
C186	C	1.707668	0.176356	1.286716
H187	H	1.185357	-0.287460	0.755948
H188	H	1.685357	0.212540	1.255948
H189	H	1.230277	-0.300119	0.827841
H190	H	1.730277	0.199881	1.327841
H191	H	1.244011	-0.349822	0.759385
H192	H	1.744011	0.150178	1.259385
H193	H	1.026252	-0.919970	0.472374
H194	H	1.526252	-0.419970	0.972374
H195	H	0.955448	-0.920990	0.401230
H196	H	1.455448	-0.420990	0.901230
C197	C	1.170710	-0.455754	0.926853
C198	C	1.670710	0.044246	1.426853
H199	H	1.180061	-0.486666	0.885480
H200	H	1.680061	0.013334	1.385480
H201	H	1.214139	-0.451997	0.956095
H202	H	1.714139	0.048003	1.456095
H203	H	1.131960	-0.476345	0.955632
H204	H	1.631960	0.023655	1.455632
C205	C	0.934451	-0.786187	0.396224
C206	C	1.434451	-0.286187	0.896224
H207	H	0.902628	-0.827316	0.389024
H208	H	1.402628	-0.327316	0.889024
H209	H	0.916660	-0.757044	0.436071
H210	H	1.416660	-0.257044	0.936071
H211	H	0.935670	-0.757179	0.352513
H212	H	1.435670	-0.257179	0.852513
C213	C	1.171433	-0.454560	0.785252
C214	C	1.671433	0.045440	1.285252
H215	H	1.133664	-0.473713	0.754216
H216	H	1.633664	0.026287	1.254216
H217	H	1.215997	-0.450160	0.757908
H218	H	1.715997	0.049840	1.257908
H219	H	1.178911	-0.487048	0.825777
H220	H	1.678911	0.012952	1.325777
C221	C	1.208631	-0.784507	0.326327
C222	C	1.708631	-0.284507	0.826327
H223	H	1.187038	-0.752961	0.290376
H224	H	1.687038	-0.252961	0.790376
H225	H	1.244345	-0.757714	0.353945
H226	H	1.744345	-0.257714	0.853945
H227	H	1.231823	-0.825018	0.302355
H228	H	1.731823	-0.325018	0.802355
C229	C	0.641125	-0.494353	0.389853
C230	C	1.141125	0.005647	0.889853
H231	H	0.671911	-0.472072	0.426079
H232	H	1.171911	0.027928	0.926079
H233	H	0.600010	-0.516982	0.413331
H234	H	1.100010	-0.016982	0.913331
H235	H	0.668443	-0.530673	0.363623
H236	H	1.168443	-0.030673	0.863623
C237	C	0.974862	-0.252297	0.929063
C238	C	1.474862	0.247703	1.429063
H239	H	0.954746	-0.288958	0.960771
H240	H	1.454746	0.211042	1.460771
H241	H	0.980940	-0.207501	0.955737
H242	H	1.480940	0.292499	1.455737
H243	H	0.942299	-0.244357	0.888669
H244	H	1.442299	0.255643	1.388669
C245	C	0.971086	-0.257235	0.786780
C246	C	1.471086	0.242765	1.286780
H247	H	0.951939	-0.295572	0.756447
H248	H	1.451939	0.204428	1.256447
H249	H	0.939349	-0.249991	0.827928
H250	H	1.439349	0.250009	1.327928
H251	H	0.974123	-0.212821	0.758997
H252	H	1.474123	0.287179	1.258997
H253	H	0.635026	-0.452008	0.278892
H254	H	1.135026	0.047992	0.778892
C255	C	0.499968	-0.494375	0.388839
C256	C	0.999968	0.005625	0.888839
H257	H	0.540938	-0.518762	0.410767
H258	H	1.040938	-0.018762	0.910767
H259	H	0.470859	-0.471976	0.426308
H260	H	0.970859	0.028024	0.926308
H261	H	0.470844	-0.529265	0.362552
H262	H	0.970844	-0.029265	0.862552
C263	C	0.498824	-0.261603	0.461529
C264	C	0.998824	0.238397	0.961529
H265	H	0.467103	-0.241456	0.424890
H266	H	0.967103	0.258544	0.924890
H267	H	0.472171	-0.267710	0.506309
H268	H	0.972171	0.232290	1.006309
H269	H	0.539228	-0.229051	0.469527
H270	H	1.039228	0.270949	0.969527
C271	C	0.971310	-0.926187	0.256342
C272	C	1.471310	-0.426187	0.756342
H273	H	0.940402	-0.884842	0.246929
H274	H	1.440402	-0.384842	0.746929
H275	H	0.975101	-0.955432	0.212927
H276	H	1.475101	-0.455432	0.712927
H277	H	0.950693	-0.954977	0.295067
H278	H	1.450693	-0.454977	0.795067
C279	C	1.101068	-0.218368	0.785373
C280	C	1.601068	0.281632	1.285373
H281	H	1.136973	-0.239985	0.753801
H282	H	1.636973	0.260015	1.253801
H283	H	1.073495	-0.182636	0.758614
H284	H	1.573495	0.317364	1.258614
H285	H	1.125092	-0.195191	0.825894
H286	H	1.625092	0.304809	1.325894
C287	C	1.106916	-0.220963	0.927303
C288	C	1.606916	0.279037	1.427303
H289	H	1.142464	-0.244590	0.957839
H290	H	1.642464	0.255410	1.457839
H291	H	1.130994	-0.199090	0.886134
H292	H	1.630994	0.300910	1.386134
H293	H	1.082163	-0.183795	0.954861
H294	H	1.582163	0.316205	1.454861
C295	C	1.030349	-0.491768	0.929209
C296	C	1.530349	0.008232	1.429209
H297	H	0.995369	-0.525889	0.910008
H298	H	1.495369	-0.025889	1.410008
H299	H	1.078575	-0.505683	0.913930
H300	H	1.578575	-0.005683	1.413930
H301	H	1.027917	-0.491844	0.981634
H302	H	1.527917	0.008156	1.481634
H303	H	0.954768	-0.400655	0.920720
H304	H	1.454768	0.099345	1.420720
