data_functionalizedCrystal
_audit_creation_method	'MofGen! by Chris Wilmer'
_symmetry_space_group_name_H-M	'P1'
_symmetry_Int_Tables_number	1
_symmetry_cell_setting	triclinic
loop_
_symmetry_equiv_pos_as_xyz
  x,y,z
_cell_length_a	25.639242
_cell_length_b	19.805405
_cell_length_c	19.805398
_cell_angle_alpha	90.030326
_cell_angle_beta	89.979057
_cell_angle_gamma	89.978063
loop_
_atom_site_label
_atom_site_type_symbol
_atom_site_fract_x
_atom_site_fract_y
_atom_site_fract_z
Zn1	Zn	0.799263	0.269553	-0.382853
Zn2	Zn	0.799207	0.382743	-0.269661
Zn3	Zn	0.711842	0.269565	-0.269662
Zn4	Zn	0.711804	0.382696	-0.382792
O5	O	0.755529	0.326139	-0.326242
O6	O	0.872421	0.284582	-0.367863
O7	O	0.787611	0.367754	-0.174945
O8	O	0.723478	0.174846	-0.284703
O9	O	0.872380	0.367743	-0.284701
O10	O	0.787706	0.174838	-0.367863
O11	O	0.723423	0.284603	-0.174945
O12	O	0.638671	0.284557	-0.284644
O13	O	0.723413	0.367663	-0.477517
O14	O	0.638643	0.367675	-0.367760
O15	O	0.787669	0.284537	-0.477561
O16	O	0.787574	0.477454	-0.284643
O17	O	0.723359	0.477419	-0.367760
C18	C	0.755470	0.501995	-0.326209
C19	C	0.755493	0.577227	-0.326218
C20	C	0.619686	0.326113	-0.326196
C21	C	0.561572	0.326117	-0.326193
C22	C	0.755543	0.326093	-0.502785
C23	C	0.755549	0.326074	-0.578017
C24	C	0.201204	0.369491	-0.369480
C25	C	0.146599	0.369495	-0.369490
O26	O	0.118358	0.406339	-0.406256
N27	N	0.119290	0.326158	-0.326286
C28	C	0.146588	0.282809	-0.283073
O29	O	0.118345	0.245947	-0.246326
C30	C	0.201191	0.282802	-0.283067
C31	C	0.228498	0.326147	-0.326269
C32	C	0.228510	0.412831	-0.412679
C33	C	0.283111	0.412828	-0.412667
C34	C	0.310405	0.369484	-0.369456
C35	C	0.283098	0.326143	-0.326257
C36	C	0.228488	0.239450	-0.239858
C37	C	0.283095	0.239446	-0.239855
C38	C	0.310401	0.282791	-0.283057
C39	C	0.364992	0.282796	-0.283034
N40	N	0.392302	0.326133	-0.326239
C41	C	0.365008	0.369477	-0.369450
C42	C	0.031917	0.282826	-0.283092
C43	C	-0.022685	0.282836	-0.283094
C44	C	-0.022670	0.369521	-0.369513
C45	C	0.031933	0.369514	-0.369506
C46	C	0.059226	0.326163	-0.326296
C47	C	0.479673	0.369467	-0.369421
C48	C	0.534279	0.369462	-0.369404
C49	C	0.534258	0.282774	-0.282988
C50	C	0.479658	0.282782	-0.283003
C51	C	0.452366	0.326130	-0.326225
O52	O	0.393269	0.245968	-0.246290
O53	O	0.393258	0.406326	-0.406197
C54	C	0.891902	0.326166	-0.326289
C55	C	0.950016	0.326178	-0.326308
C56	C	0.755602	0.149596	-0.326290
C57	C	0.755634	0.074364	-0.326310
C58	C	0.788962	0.612567	-0.282984
C59	C	0.788984	0.683255	-0.282999
C60	C	0.755534	0.718603	-0.326245
C61	C	0.722063	0.683258	-0.369483
C62	C	0.722044	0.612571	-0.369471
C63	C	0.722140	0.968331	-0.369534
C64	C	0.722161	1.039024	-0.369541
C65	C	0.789081	1.039016	-0.283061
C66	C	0.789061	0.968328	-0.283049
C67	C	0.755593	0.932990	-0.326290
C68	C	0.755570	0.856342	-0.326274
C69	C	0.755554	0.795250	-0.326258
C70	C	0.789054	0.369263	-1.039805
C71	C	0.789039	0.369282	-0.969117
C72	C	0.755614	0.325998	-0.933779
C73	C	0.722197	0.282697	-0.969133
C74	C	0.722209	0.282683	-1.039820
C75	C	0.722146	0.282755	-0.684059
C76	C	0.722138	0.282771	-0.613367
C77	C	0.788977	0.369354	-0.613356
C78	C	0.788989	0.369340	-0.684043
C79	C	0.755570	0.326042	-0.719391
C80	C	0.755586	0.326024	-0.796040
C81	C	0.755601	0.326012	-0.857132
C82	C	0.755545	0.326136	-0.150386
C83	C	0.755641	0.325965	-0.075154
H84	H	0.556509	0.404761	-0.404585
H85	H	0.816186	0.404611	-0.584568
H86	H	0.694830	0.712044	-0.404698
H87	H	-0.044902	0.404812	-0.404700
H88	H	0.694923	1.067802	-0.404762
H89	H	0.305314	0.204140	-0.204671
H90	H	0.694917	0.247522	-0.584597
H91	H	0.816199	0.583791	-0.247766
H92	H	0.816275	0.404507	-1.068573
H93	H	0.694934	0.247500	-0.712831
H94	H	0.695001	0.247424	-1.068600
H95	H	0.305339	0.448122	-0.447848
H96	H	0.206293	0.448128	-0.447870
H97	H	0.816209	0.404584	-0.712812
H98	H	0.694791	0.583798	-0.404678
H99	H	0.694979	0.247457	-0.940355
H100	H	0.694888	0.939565	-0.404740
H101	H	-0.044914	0.247547	-0.247908
H102	H	0.054136	0.247525	-0.247900
H103	H	0.816334	1.067797	-0.247855
H104	H	0.457459	0.404764	-0.404618
H105	H	0.816238	0.712026	-0.247793
H106	H	0.206264	0.204156	-0.204676
H107	H	0.054163	0.404809	-0.404686
H108	H	0.457423	0.247488	-0.247823
H109	H	0.556491	0.247487	-0.247805
H110	H	0.816298	0.939551	-0.247832
H111	H	0.816241	0.404548	-0.940339
