data_functionalizedCrystal
_audit_creation_method	'MofGen! by Chris Wilmer'
_symmetry_space_group_name_H-M	'P1'
_symmetry_Int_Tables_number	1
_symmetry_cell_setting	triclinic
loop_
_symmetry_equiv_pos_as_xyz
  x,y,z
_cell_length_a	6.817900
_cell_length_b	12.200863
_cell_length_c	19.453114
_cell_angle_alpha	94.895602
_cell_angle_beta	101.709288
_cell_angle_gamma	107.143441
loop_
_atom_site_label
_atom_site_type_symbol
_atom_site_fract_x
_atom_site_fract_y
_atom_site_fract_z
V1	V	-4.025501	-0.159907	-0.219071
O2	O	-3.993988	0.006455	-0.214827
O3	O	-3.995349	-0.315887	-0.217643
O4	O	-3.968192	-0.157987	-0.314583
O5	O	-4.021333	-0.152538	-0.117216
V6	V	-4.507919	-0.139945	-0.206880
O7	O	-4.289184	-0.203697	-0.245813
O8	O	-4.694434	-0.096155	-0.180137
O9	O	-4.314864	0.016035	-0.208307
O10	O	-4.656830	-0.306307	-0.211123
O11	O	-4.629484	-0.147314	-0.308734
O12	O	-4.342022	-0.141865	-0.111368
C13	C	-3.845078	-0.353895	-0.214206
C14	C	-3.901652	-0.481414	-0.213675
C15	C	-4.005195	-0.714885	-0.212709
C16	C	-3.947568	-0.584965	-0.213247
C17	C	-3.810434	-0.152476	-0.337861
C18	C	-3.844982	-0.151938	-0.415943
C19	C	-4.043668	-0.157443	-0.456203
C20	C	-4.076129	-0.156937	-0.529569
C21	C	-3.909904	-0.150950	-0.562675
C22	C	-3.711187	-0.145437	-0.522406
C23	C	-3.678726	-0.145931	-0.449040
N24	N	-3.857248	-0.211530	-0.681492
N25	N	-3.888099	-0.211063	-0.751187
C26	C	-4.007696	-0.149459	-0.783723
N27	N	-4.095315	-0.088353	-0.743933
N28	N	-4.064470	-0.088825	-0.674232
C29	C	-3.945082	-0.150413	-0.642228
C30	C	-4.241592	-0.154414	-0.903535
C31	C	-4.274043	-0.153902	-0.976902
C32	C	-3.909101	-0.142413	-0.969738
C33	C	-3.876650	-0.142914	-0.896372
C34	C	-4.042906	-0.148921	-0.863275
C35	C	-4.128479	0.054037	-0.211743
C36	C	-4.051142	0.181555	-0.212278
C37	C	-4.163122	-0.147380	-0.088086
C38	C	-4.107813	-0.147912	-0.010003
H39	H	-4.179048	-0.162329	-0.429260
N40	N	-4.420870	-0.160863	-0.867824
H41	H	-4.450601	-0.232803	-0.844395
H42	H	-4.551552	-0.164213	-0.904497
N43	N	-4.488363	-0.159840	-1.020320
H44	H	-4.545015	-0.231364	-1.057773
H45	H	-4.474768	-0.088359	-1.044018
N46	N	-3.729872	-0.136004	-1.005461
H47	H	-3.679559	-0.205073	-0.997979
H48	H	-3.609474	-0.062072	-0.984281
H49	H	-4.237931	-0.161426	-0.562356
H50	H	-3.575846	-0.140559	-0.549365
N51	N	-3.464417	-0.139989	-0.405611
H52	H	-3.364030	-0.136114	-0.437713
H53	H	-3.478053	-0.211425	-0.381867
N54	N	-3.662349	-0.136995	-0.852952
H55	H	-3.675803	-0.208422	-0.829204
H56	H	-3.605795	-0.065422	-0.815541
