data_functionalizedCrystal
_audit_creation_method	'MofGen! by Chris Wilmer'
_symmetry_space_group_name_H-M	'P1'
_symmetry_Int_Tables_number	1
_symmetry_cell_setting	triclinic
loop_
_symmetry_equiv_pos_as_xyz
  x,y,z
_cell_length_a	6.817900
_cell_length_b	11.102188
_cell_length_c	15.301058
_cell_angle_alpha	93.597845
_cell_angle_beta	104.176278
_cell_angle_gamma	108.603875
loop_
_atom_site_label
_atom_site_type_symbol
_atom_site_fract_x
_atom_site_fract_y
_atom_site_fract_z
V1	V	-4.060626	-0.176714	-0.281146
O2	O	-4.020637	0.007591	-0.275794
O3	O	-4.037742	-0.349528	-0.279224
O4	O	-4.015210	-0.174391	-0.403764
O5	O	-4.043325	-0.168758	-0.150392
V6	V	-4.540561	-0.154623	-0.265507
O7	O	-4.329755	-0.225174	-0.315452
O8	O	-4.721629	-0.106163	-0.231201
O9	O	-4.340239	0.018191	-0.267430
O10	O	-4.697947	-0.338928	-0.270859
O11	O	-4.675259	-0.162578	-0.396262
O12	O	-4.362770	-0.156946	-0.142889
C13	C	-3.888853	-0.391644	-0.274788
C14	C	-3.951449	-0.532925	-0.274034
C15	C	-3.935637	-0.580892	-0.191104
C16	C	-3.994476	-0.713641	-0.190398
C17	C	-4.084931	-0.750445	-0.355560
C18	C	-4.026107	-0.617699	-0.356265
C19	C	-3.860111	-0.168238	-0.433651
C20	C	-3.904431	-0.167482	-0.533891
C21	C	-3.983078	-0.283552	-0.593862
C22	C	-4.024729	-0.282840	-0.688048
C23	C	-3.987717	-0.166056	-0.722262
C24	C	-3.909069	-0.049977	-0.662285
C25	C	-3.867434	-0.050691	-0.568100
C26	C	-3.995849	-0.048497	-0.858595
C27	C	-4.037483	-0.047782	-0.952786
C28	C	-4.153144	-0.280646	-0.978543
C29	C	-4.111509	-0.281360	-0.884359
C30	C	-4.032859	-0.165280	-0.824388
C31	C	-4.152470	0.060301	-0.271863
C32	C	-4.069113	0.201580	-0.272623
C33	C	-4.181212	-0.163103	-0.112998
C34	C	-4.116130	-0.163852	-0.012756
H35	H	-4.013207	-0.378651	-0.566012
H36	H	-4.038998	-0.578646	-0.423801
H37	H	-3.981597	-0.752689	-0.122868
O38	O	-4.101015	-0.395703	-0.746174
C39	C	-4.124785	-0.498932	-0.695780
H40	H	-4.014532	-0.463093	-0.623270
H41	H	-4.299360	-0.540416	-0.693767
C42	C	-4.199274	-0.648089	-0.830458
C43	C	-4.063845	-0.604072	-0.741402
H44	H	-4.161694	-0.712947	-0.858600
H45	H	-4.183268	-0.578542	-0.864410
H46	H	-4.344742	-0.682649	-0.828768
H47	H	-3.918384	-0.569498	-0.743093
H48	H	-4.079825	-0.673615	-0.707450
O49	O	-3.863515	-0.498604	-0.111215
C50	C	-4.024428	-0.526031	-0.065076
H51	H	-4.188707	-0.577598	-0.116193
H52	H	-3.991028	-0.590216	-0.012208
C53	C	-3.821635	-0.336291	0.045737
C54	C	-4.023408	-0.399617	-0.017046
H55	H	-3.821002	-0.258315	0.075369
H56	H	-3.713220	-0.317815	0.014655
H57	H	-3.793825	-0.389792	0.089786
H58	H	-4.051203	-0.346123	-0.061099
H59	H	-4.131829	-0.418081	0.014030
O60	O	-4.157385	-0.832971	-0.435350
C61	C	-4.205960	-0.960425	-0.416948
H62	H	-4.111503	-0.960489	-0.344319
H63	H	-4.386029	-1.004677	-0.424623
C64	C	-4.259382	-1.039709	-0.573794
C65	C	-4.143355	-1.039788	-0.484592
H66	H	-4.220775	-1.088667	-0.615522
H67	H	-4.226665	-0.953841	-0.586193
H68	H	-4.409432	-1.076582	-0.580176
H69	H	-3.993311	-1.002901	-0.478207
H70	H	-4.176046	-1.125652	-0.472193
O71	O	-3.791114	0.061940	-0.509718
C72	C	-3.762257	0.036271	-0.419251
H73	H	-3.869894	-0.066097	-0.419055
H74	H	-3.586479	0.047186	-0.387867
C75	C	-3.690586	0.257501	-0.363331
C76	C	-3.822801	0.131774	-0.363089
H77	H	-3.727921	0.316414	-0.328685
H78	H	-3.710019	0.274797	-0.424279
H79	H	-3.544114	0.266579	-0.337179
H80	H	-3.969265	0.122694	-0.389250
H81	H	-3.803394	0.114479	-0.302143
O82	O	-4.229655	-0.393295	-1.036924
C83	C	-4.258434	-0.367628	-1.127390
H84	H	-4.278043	-0.269678	-1.130778
H85	H	-4.111776	-0.367349	-1.150690
C86	C	-4.437412	-0.592585	-1.185995
C87	C	-4.461515	-0.472286	-1.190159
H88	H	-4.562675	-0.657146	-1.224716
H89	H	-4.418016	-0.609880	-1.125047
H90	H	-4.315189	-0.592334	-1.205410
H91	H	-4.583719	-0.472534	-1.170733
H92	H	-4.480936	-0.454995	-1.251105
O93	O	-3.919363	0.064381	-0.800463
C94	C	-3.895666	0.167611	-0.850856
H95	H	-3.878681	0.136194	-0.920175
H96	H	-4.043529	0.197894	-0.860953
C97	C	-3.713844	0.320490	-0.713483
C98	C	-3.692964	0.281907	-0.798620
H99	H	-3.588815	0.390996	-0.681261
H100	H	-3.729816	0.250943	-0.679531
H101	H	-3.837071	0.345717	-0.721910
H102	H	-3.569756	0.256665	-0.790191
H103	H	-3.676967	0.351452	-0.832569
H104	H	-4.141637	-0.376455	-0.856505
H105	H	-4.007398	0.047312	-0.980641
H106	H	-3.878948	0.045110	-0.690149
