data_functionalizedCrystal
_audit_creation_method	'MofGen! by Chris Wilmer'
_symmetry_space_group_name_H-M	'P1'
_symmetry_Int_Tables_number	1
_symmetry_cell_setting	triclinic
loop_
_symmetry_equiv_pos_as_xyz
  x,y,z
_cell_length_a	16.974885
_cell_length_b	16.992695
_cell_length_c	14.048226
_cell_angle_alpha	89.993436
_cell_angle_beta	93.645561
_cell_angle_gamma	87.023153
loop_
_atom_site_label
_atom_site_type_symbol
_atom_site_fract_x
_atom_site_fract_y
_atom_site_fract_z
O1	O	1.055447	0.099901	0.002073
O2	O	0.826048	0.112636	-0.015585
O3	O	0.939828	-0.007873	-0.006820
O4	O	0.941667	0.220410	-0.006693
O5	O	0.939813	-0.007880	0.151501
O6	O	0.826033	0.112629	0.142735
O7	O	1.055432	0.099894	0.160393
Zn8	Zn	0.940730	0.106260	0.176701
Zn9	Zn	0.940750	0.106269	-0.031893
O10	O	0.941652	0.220403	0.151627
C11	C	0.796552	0.112149	0.061305
C12	C	0.708685	0.110699	0.054541
C13	C	0.214090	0.102515	0.007141
C14	C	0.296650	0.103877	0.013509
C15	C	0.337914	0.104560	0.102994
C16	C	0.296613	0.103873	0.186117
C17	C	0.214055	0.102505	0.179748
C18	C	0.584826	0.108645	0.131295
C19	C	0.667390	0.110015	0.137658
C20	C	0.667422	0.110017	-0.034951
C21	C	0.584861	0.108654	-0.041311
C22	C	0.543568	0.107963	0.041811
N23	N	0.422304	0.105954	0.109505
N24	N	0.459180	0.106563	0.035299
C25	C	0.937454	-0.037087	0.072158
C26	C	0.930395	-0.124123	0.071615
C27	C	0.998509	-0.174439	0.076859
C28	C	0.991872	-0.256218	0.076339
C29	C	0.917119	-0.287680	0.070581
C30	C	0.848999	-0.237358	0.065334
C31	C	0.855638	-0.155580	0.065847
C32	C	0.889604	-0.531247	0.068450
C33	C	0.882971	-0.613031	0.067940
C34	C	1.025844	-0.631887	0.078943
C35	C	1.032476	-0.550106	0.079462
C36	C	0.964357	-0.499791	0.074209
N37	N	0.910332	-0.371271	0.070053
N38	N	0.971144	-0.416202	0.074731
C39	C	1.084928	0.100381	0.083501
C40	C	1.172795	0.101830	0.090258
C41	C	0.944026	0.249616	0.072647
C42	C	0.951085	0.336653	0.073185
N43	N	0.940722	0.106253	0.319061
N44	N	0.940764	0.106270	-0.174253
C45	C	0.991122	0.052914	0.372762
C46	C	0.991128	0.052913	0.472420
C47	C	0.940737	0.106257	0.518375
C48	C	0.890331	0.159599	0.464667
C49	C	0.890322	0.159595	0.365010
C50	C	0.890354	0.159604	0.672383
C51	C	0.890364	0.159609	0.772046
C52	C	0.991160	0.052923	0.779792
C53	C	0.991151	0.052919	0.680136
C54	C	0.940746	0.106262	0.626434
H55	H	0.701051	0.110579	-0.102624
O56	O	0.336790	0.104432	0.272989
C57	C	0.434620	0.038063	0.380744
C58	C	0.389192	0.037339	0.282321
H59	H	0.476985	-0.016184	0.388328
H60	H	0.469551	0.093512	0.387760
H61	H	0.390905	0.037376	0.439040
H62	H	0.432852	0.037998	0.223967
H63	H	0.354249	-0.018105	0.275388
O64	O	0.789415	-0.106779	0.060623
C65	C	0.669370	-0.065597	-0.030677
C66	C	0.744327	-0.120920	-0.024864
H67	H	0.632904	-0.076998	-0.099798
H68	H	0.632772	-0.077037	0.032716
H69	H	0.686974	-0.001751	-0.029277
H70	H	0.726794	-0.184785	-0.026292
H71	H	0.780906	-0.109411	-0.088253
H72	H	0.788133	-0.262980	0.060640
H73	H	1.032160	0.009479	0.335352
O74	O	0.841503	0.211454	0.620119
C75	C	0.831432	0.318569	0.506853
C76	C	0.886838	0.259881	0.565973
H77	H	0.868063	0.357749	0.463077
H78	H	0.789807	0.284780	0.456946
H79	H	0.795400	0.356664	0.556830
H80	H	0.922920	0.221772	0.516068
H81	H	0.928410	0.293718	0.615891
O82	O	0.841341	0.211308	0.509409
C83	C	0.734401	0.228056	0.613680
C84	C	0.789843	0.169407	0.563084
H85	H	0.692741	0.194202	0.657072
H86	H	0.770970	0.267199	0.663196
H87	H	0.698412	0.266195	0.558164
H88	H	0.825845	0.131217	0.618532
H89	H	0.753229	0.130319	0.513551
H90	H	1.032166	0.009480	0.516143
H91	H	1.032187	0.009487	0.642719
O92	O	0.174032	0.101738	0.260555
C93	C	0.153379	0.033398	0.406471
C94	C	0.198772	0.034184	0.315005
H95	H	0.173351	-0.021222	0.450510
H96	H	0.165845	0.088473	0.450054
H97	H	0.087287	0.032339	0.386526
H98	H	0.264876	0.035216	0.334864
H99	H	0.186240	-0.020886	0.271446
H100	H	1.032200	0.009489	0.823522
O101	O	0.707356	0.110633	0.224665
C102	C	0.698616	0.110517	0.395198
C103	C	0.653258	0.109796	0.296732
H104	H	0.654896	0.109857	0.453490
H105	H	0.741021	0.056301	0.402843
H106	H	0.733514	0.165988	0.402151
H107	H	0.618314	0.054362	0.289711
H108	H	0.610900	0.164049	0.289130
O109	O	0.823376	-0.482461	0.063228
C110	C	0.703318	-0.441295	-0.028056
C111	C	0.778284	-0.496605	-0.022255
H112	H	0.666849	-0.452699	-0.097172
H113	H	0.666729	-0.452744	0.035342
H114	H	0.720911	-0.377445	-0.026656
H115	H	0.760762	-0.560474	-0.023683
H116	H	0.814855	-0.485088	-0.085648
O117	O	0.841293	0.211337	0.816643
C118	C	0.706718	0.257347	0.836784
C119	C	0.762202	0.198714	0.786226
H120	H	0.642762	0.247173	0.812196
H121	H	0.715321	0.248181	0.917240
H122	H	0.721006	0.320140	0.818295
H123	H	0.747948	0.135898	0.804637
H124	H	0.753589	0.207950	0.705782
H125	H	0.551216	0.108070	0.198980
H126	H	0.180499	0.101964	-0.065727
O127	O	0.336639	0.104573	-0.067325
C128	C	0.327962	0.104378	-0.239200
C129	C	0.282575	0.103612	-0.147728
H130	H	0.284272	0.103585	-0.304229
H131	H	0.362823	0.159871	-0.240901
H132	H	0.370404	0.050185	-0.240182
H133	H	0.240092	0.157767	-0.146686
H134	H	0.247766	0.048084	-0.146063
H135	H	0.551270	0.108097	-0.114180
O136	O	1.071186	-0.144011	0.082412
C137	C	1.212195	-0.171354	0.093314
C138	C	1.129936	-0.205914	0.087013
H139	H	1.259716	-0.221385	0.097056
H140	H	1.218932	-0.133561	0.027560
H141	H	1.218831	-0.133518	0.160066
H142	H	1.123244	-0.243785	0.020301
H143	H	1.123237	-0.243662	0.152814
O144	O	1.057979	-0.305177	0.081554
C145	C	1.133411	-0.408437	0.169401
C146	C	1.058502	-0.353047	0.163603
H147	H	1.133867	-0.447142	0.235742
H148	H	1.133888	-0.447237	0.103220
H149	H	1.187970	-0.371891	0.173561
H150	H	1.003903	-0.389531	0.159473
H151	H	1.058095	-0.314244	0.229783
O152	O	1.105152	-0.519677	0.085020
C153	C	1.246162	-0.547012	0.095952
C154	C	1.163906	-0.581577	0.089629
H155	H	1.293686	-0.597041	0.099700
H156	H	1.252907	-0.509216	0.030204
H157	H	1.252786	-0.509180	0.162709
H158	H	1.157226	-0.619445	0.022913
H159	H	1.157198	-0.619329	0.155424
O160	O	1.091988	-0.680795	0.083866
C161	C	1.167394	-0.784091	0.007670
C162	C	1.092461	-0.728735	0.001969
H163	H	1.167793	-0.822875	-0.058526
H164	H	1.221990	-0.747596	0.011811
H165	H	1.167847	-0.822821	0.073990
H166	H	1.091931	-0.689993	-0.064346
H167	H	1.037899	-0.765276	-0.002121
O168	O	0.810412	-0.643725	0.062392
C169	C	0.736875	-0.761355	0.056678
C170	C	0.819090	-0.726700	0.062983
H171	H	0.743864	-0.828445	0.057134
H172	H	0.702928	-0.740689	0.120334
H173	H	0.702965	-0.740579	-0.012177
H174	H	0.853066	-0.747460	0.131798
H175	H	0.852978	-0.747362	-0.000722
O176	O	0.841451	0.211519	0.312891
C177	C	0.803692	0.347873	0.279516
C178	C	0.859105	0.289157	0.338587
H179	H	0.817934	0.410656	0.300284
H180	H	0.812343	0.338775	0.200385
H181	H	0.739730	0.337648	0.294197
H182	H	0.923089	0.299347	0.323988
H183	H	0.850386	0.298270	0.417700
