data_functionalizedCrystal
_audit_creation_method	'MofGen! by Chris Wilmer'
_symmetry_space_group_name_H-M	'P1'
_symmetry_Int_Tables_number	1
_symmetry_cell_setting	triclinic
loop_
_symmetry_equiv_pos_as_xyz
  x,y,z
_cell_length_a	10.268362
_cell_length_b	11.026607
_cell_length_c	11.026607
_cell_angle_alpha	71.413983
_cell_angle_beta	90.003050
_cell_angle_gamma	89.996278
loop_
_atom_site_label
_atom_site_type_symbol
_atom_site_fract_x
_atom_site_fract_y
_atom_site_fract_z
O1	O	0.108297	-1.726734	0.533625
O2	O	0.608297	-1.226734	1.033625
O3	O	0.108299	-1.360154	0.472861
O4	O	0.608299	-0.860154	0.972861
O5	O	0.108294	-1.513062	0.319953
O6	O	0.608294	-1.013062	0.819953
O7	O	0.108303	-1.573825	0.686533
O8	O	0.608303	-1.073825	1.186533
O9	O	-0.108307	-1.513043	0.319941
O10	O	0.391693	-1.013043	0.819941
O11	O	-0.108302	-1.360135	0.472849
O12	O	0.391698	-0.860135	0.972849
O13	O	-0.108304	-1.726715	0.533613
O14	O	0.391696	-1.226715	1.033613
Cu15	Cu	-0.128080	-1.543423	0.503230
Cu16	Cu	0.371920	-1.043423	1.003230
Cu17	Cu	0.128075	-1.543445	0.503244
Cu18	Cu	0.628075	-1.043445	1.003244
O19	O	-0.108298	-1.573807	0.686521
O20	O	0.391702	-1.073807	1.186521
C21	C	-0.000001	-1.312485	0.461645
C22	C	0.499999	-0.812485	0.961645
C23	C	-0.000000	-1.170471	0.428228
C24	C	0.500000	-0.670471	0.928228
N25	N	-0.308246	-1.543417	0.503221
N26	N	0.191754	-1.043417	1.003221
C27	C	-0.000005	-1.501843	0.272287
C28	C	0.499995	-1.001843	0.772287
C29	C	-0.000000	-1.468426	0.130273
C30	C	0.500000	-0.968426	0.630273
C31	C	-0.573916	-1.543438	0.503240
C32	C	-0.073916	-1.043438	1.003240
C33	C	-0.426078	-1.543423	0.503233
C34	C	0.073922	-1.043423	1.003233
N35	N	0.308241	-1.543460	0.503244
N36	N	0.808241	-1.043460	1.003244
C37	C	-0.000001	-1.774384	0.544828
C38	C	0.499999	-1.274384	1.044828
C39	C	0.000007	-1.916398	0.578245
C40	C	0.500007	-1.416398	1.078245
C41	C	0.000003	-1.116821	0.520498
C42	C	0.500003	-0.616821	1.020498
C43	C	0.000004	-0.970043	0.485962
C44	C	0.500004	-0.470043	0.985962
C45	C	0.000001	-1.560695	0.076624
C46	C	0.500001	-1.060695	0.576624
C47	C	0.000006	-1.526160	-0.070155
C48	C	0.500006	-1.026160	0.429845
C49	C	0.000004	-1.585026	0.734187
C50	C	0.500004	-1.085026	1.234187
C51	C	0.000007	-1.618443	0.876200
C52	C	0.500007	-1.118443	1.376200
H53	H	-0.000002	-1.179555	0.625061
H54	H	0.499998	-0.679555	1.125061
N55	N	-0.000014	-1.699204	0.159710
N56	N	0.499986	-1.199204	0.659710
H57	H	-0.000014	-1.756036	0.103741
H58	H	0.499986	-1.256036	0.603741
H59	H	0.080280	-1.717086	0.215525
H60	H	0.580280	-1.217086	0.715525
H61	H	0.000001	-0.979125	0.682816
H62	H	0.500001	-0.479125	1.182816
H63	H	0.000015	-1.421590	-0.132884
H64	H	0.500015	-0.921590	0.367116
H65	H	0.000105	-1.723013	-0.061072
H66	H	0.500105	-1.223013	0.438928
H67	H	0.000031	-1.107738	0.323666
H68	H	0.500031	-0.607738	0.823666
H69	H	0.000009	-1.363863	0.067540
H70	H	0.500009	-0.863863	0.567540
N71	N	0.000007	-0.886972	0.347443
N72	N	0.500007	-0.386972	0.847443
H73	H	-0.080288	-0.905674	0.303558
H74	H	0.419712	-0.405674	0.803558
H75	H	0.000057	-0.793925	0.342509
H76	H	0.500057	-0.293925	0.842509
