data_functionalizedCrystal
_audit_creation_method	'MofGen! by Chris Wilmer'
_symmetry_space_group_name_H-M	'P1'
_symmetry_Int_Tables_number	1
_symmetry_cell_setting	triclinic
loop_
_symmetry_equiv_pos_as_xyz
  x,y,z
_cell_length_a	27.731988
_cell_length_b	26.210047
_cell_length_c	10.723024
_cell_angle_alpha	89.993881
_cell_angle_beta	83.543115
_cell_angle_gamma	89.997058
loop_
_atom_site_label
_atom_site_type_symbol
_atom_site_fract_x
_atom_site_fract_y
_atom_site_fract_z
O1	O	-0.641870	-0.042286	-0.148092
O2	O	-0.501213	-0.042318	-0.170744
O3	O	-0.574786	-0.042300	0.022294
O4	O	-0.568297	-0.042305	-0.341130
O5	O	-0.574771	0.042558	0.022263
O6	O	-0.501199	0.042540	-0.170775
O7	O	-0.641855	0.042572	-0.148124
Cu8	Cu	-0.571526	0.050304	-0.159452
Cu9	Cu	-0.571543	-0.050051	-0.159415
O10	O	-0.568283	0.042553	-0.341162
C11	C	-0.483195	0.000107	-0.170296
C12	C	-0.429530	0.000095	-0.168898
N13	N	-0.571517	0.120888	-0.159478
C14	C	-0.046314	-0.046139	-0.158753
C15	C	-0.248005	-0.046152	-0.164079
O16	O	-0.274089	-0.085492	-0.164703
N17	N	-0.273222	0.000103	-0.164763
C18	C	-0.248013	0.046365	-0.164106
O19	O	-0.274090	0.085708	-0.164797
C20	C	-0.046323	0.046377	-0.158771
C21	C	-0.021109	0.000119	-0.158101
C22	C	-0.021099	-0.092394	-0.158081
C23	C	0.029321	-0.092390	-0.156756
C24	C	0.054526	-0.046132	-0.156104
C25	C	0.029311	0.000123	-0.156776
C26	C	-0.021116	0.092638	-0.158106
C27	C	0.029310	0.092637	-0.156769
C28	C	0.054524	0.046379	-0.156098
C29	C	0.104937	0.046384	-0.154799
N30	N	0.130154	0.000129	-0.154115
C31	C	0.104948	-0.046129	-0.154768
C32	C	-0.353903	0.046356	-0.166910
C33	C	-0.404325	0.046353	-0.168246
C34	C	-0.404313	-0.046164	-0.168216
C35	C	-0.353890	-0.046161	-0.166889
C36	C	-0.328686	0.000100	-0.166226
C37	C	0.210834	-0.046118	-0.151987
C38	C	0.261259	-0.046110	-0.150667
C39	C	0.261243	0.046407	-0.150691
C40	C	0.210823	0.046399	-0.152017
C41	C	0.185619	0.000133	-0.152661
O42	O	0.131051	0.085704	-0.154160
O43	O	0.131032	-0.085466	-0.154049
C44	C	-0.096734	-0.046143	-0.160078
C45	C	-0.121949	0.000112	-0.160750
C46	C	-0.096743	0.046370	-0.160097
C47	C	-0.172371	0.000109	-0.162086
C48	C	-0.197576	-0.046149	-0.162738
C49	C	-0.172359	-0.092405	-0.162055
C50	C	-0.121939	-0.092401	-0.160730
C51	C	-0.121960	0.092625	-0.160781
C52	C	-0.172380	0.092618	-0.162107
C53	C	-0.197585	0.046360	-0.162759
C54	C	-0.604117	0.473410	-0.073966
C55	C	-0.604128	0.687069	-0.073952
O56	O	-0.631827	0.714698	-0.001248
N57	N	-0.571545	0.713782	-0.159400
C58	C	-0.538955	0.687077	-0.244853
O59	O	-0.511238	0.714700	-0.317524
C60	C	-0.538942	0.473419	-0.244860
C61	C	-0.571531	0.446709	-0.159414
C62	C	-0.636703	0.446700	0.011474
C63	C	-0.636701	0.393288	0.011465
C64	C	-0.604115	0.366587	-0.073983
C65	C	-0.571529	0.393297	-0.159423
C66	C	-0.506350	0.446715	-0.330306
C67	C	-0.506349	0.393298	-0.330298
C68	C	-0.538938	0.366587	-0.244852
C69	C	-0.538942	0.313185	-0.244881
N70	N	-0.571525	0.286472	-0.159432
C71	C	-0.604111	0.313173	-0.073984
C72	C	-0.538964	0.799250	-0.244845
C73	C	-0.538968	0.852664	-0.244845
C74	C	-0.604140	0.852652	-0.073942
C75	C	-0.604139	0.799237	-0.073949
C76	C	-0.571547	0.772537	-0.159397
C77	C	-0.604107	0.201005	-0.074009
C78	C	-0.604104	0.147589	-0.074029
C79	C	-0.538930	0.147605	-0.244927
C80	C	-0.538934	0.201017	-0.244912
C81	C	-0.571524	0.227715	-0.159443
O82	O	-0.511254	0.285523	-0.317537
O83	O	-0.631817	0.285540	-0.001306
C84	C	-0.604118	0.526821	-0.073957
C85	C	-0.571533	0.553532	-0.159397
C86	C	-0.538946	0.526831	-0.244845
C87	C	-0.571537	0.606946	-0.159397
C88	C	-0.604123	0.633647	-0.073948
C89	C	-0.636706	0.606934	0.011500
C90	C	-0.636705	0.553523	0.011492
C91	C	-0.506364	0.553544	-0.330294
C92	C	-0.506368	0.606955	-0.330279
C93	C	-0.538954	0.633656	-0.244830
C94	C	0.340128	0.000144	-0.148583
C95	C	0.286464	0.000148	-0.150015
C96	C	-0.574306	0.000129	0.068758
C97	C	-0.572894	0.000126	0.207253
N98	N	-0.571554	0.879365	-0.159397
C99	C	-0.568762	0.000124	-0.387626
C100	C	-0.570175	0.000122	-0.526121
C101	C	-0.614061	0.000135	0.283962
C102	C	-0.612602	0.000133	0.427105
H103	H	0.281786	-0.083781	-0.150125
C104	C	-0.432055	0.097237	-0.168989
H105	H	-0.409819	0.124784	-0.168395
H106	H	-0.448278	0.099164	-0.242294
H107	H	-0.455172	0.099157	-0.096708
H108	H	-0.512436	0.874408	-0.314436
H109	H	-0.650386	0.000146	0.243664
H110	H	0.190293	0.084066	-0.152588
H111	H	-0.630643	0.125843	-0.004449
C112	C	-0.326184	0.097246	-0.166197
H113	H	-0.348427	0.124790	-0.166809
H114	H	-0.309962	0.099178	-0.092891
H115	H	-0.303067	0.099170	-0.238478
H116	H	-0.479831	0.628699	-0.399870
C117	C	-0.660214	0.000140	0.516135
H118	H	-0.652987	0.000133	0.600662
H119	H	-0.678511	0.029734	0.501336
H120	H	-0.678515	-0.029453	0.501345
H121	H	-0.534930	0.000118	0.407976
C122	C	-0.639981	0.882030	0.020059
H123	H	-0.635309	0.917666	0.007822
H124	H	-0.672285	0.873281	0.007121
H125	H	-0.634448	0.873274	0.103239
C126	C	-0.503115	0.769886	-0.338854
H127	H	-0.483717	0.793450	-0.389745
H128	H	-0.482843	0.749047	-0.294353
H129	H	-0.520675	0.749054	-0.390485
C130	C	-0.672549	0.524148	0.105492
H131	H	-0.691951	0.547706	0.156383
H132	H	-0.692818	0.503312	0.060986
H133	H	-0.654988	0.503310	0.157123
C134	C	0.288970	0.097286	-0.149867
H135	H	0.322608	0.090659	-0.148936
H136	H	0.284169	0.116324	-0.222841
H137	H	0.277242	0.116263	-0.077255
H138	H	-0.101414	-0.130069	-0.160184
C139	C	-0.470507	0.476085	-0.424308
H140	H	-0.451100	0.452526	-0.475184
H141	H	-0.488064	0.496923	-0.475936
H142	H	-0.450235	0.496921	-0.379798
C143	C	-0.523818	0.000112	0.261675
H144	H	-0.498179	0.000103	0.194986
H145	H	-0.521491	0.029701	0.311796
H146	H	-0.521504	-0.029487	0.311800
H147	H	0.049829	0.130310	-0.156240
C148	C	-0.200092	-0.143287	-0.162770
H149	H	-0.233733	-0.136659	-0.163647
H150	H	-0.188383	-0.162297	-0.235332
H151	H	-0.195277	-0.162291	-0.089745
H152	H	-0.192905	0.130290	-0.162664
H153	H	0.190320	-0.083792	-0.152513
H154	H	-0.479808	0.371561	-0.399879
C155	C	-0.672550	0.636310	0.105497
H156	H	-0.691960	0.612756	0.156387
H157	H	-0.654989	0.657143	0.157112
H158	H	-0.692818	0.657150	0.060973
C159	C	0.057052	-0.143273	-0.156004
H160	H	0.090694	-0.136653	-0.155127
H161	H	0.045338	-0.162277	-0.083427
H162	H	0.052237	-0.162279	-0.229014
C163	C	-0.326158	-0.097044	-0.166149
H164	H	-0.348396	-0.124592	-0.166725
H165	H	-0.303039	-0.098967	-0.238415
H166	H	-0.309940	-0.098970	-0.092829
C167	C	-0.048817	-0.143282	-0.158809
H168	H	-0.026571	-0.170824	-0.158227
H169	H	-0.071938	-0.145215	-0.086546
H170	H	-0.065033	-0.145207	-0.232133
H171	H	-0.424844	-0.083830	-0.168751
C172	C	-0.048841	0.143523	-0.158847
H173	H	-0.026602	0.171069	-0.158255
H174	H	-0.065062	0.145451	-0.232156
H175	H	-0.071959	0.145449	-0.086569
C176	C	-0.672543	0.363914	0.105471
H177	H	-0.691944	0.387472	0.156364
H178	H	-0.692813	0.343077	0.060970
H179	H	-0.654980	0.343077	0.157099
C180	C	-0.639957	0.230366	0.020000
H181	H	-0.659363	0.206802	0.070869
H182	H	-0.622405	0.251200	0.071634
H183	H	-0.660228	0.251204	-0.024520
C184	C	-0.503070	0.230399	-0.338853
H185	H	-0.483655	0.206845	-0.389724
H186	H	-0.520603	0.251256	-0.390494
H187	H	-0.482808	0.251216	-0.294266
C188	C	-0.639982	0.769861	0.020049
H189	H	-0.659386	0.793418	0.070940
H190	H	-0.660249	0.749023	-0.024458
H191	H	-0.622420	0.749025	0.071682
H192	H	-0.101443	0.130295	-0.160243
C193	C	-0.503084	0.118228	-0.338905
H194	H	-0.507749	0.082591	-0.326653
H195	H	-0.508600	0.126981	-0.422091
H196	H	-0.470783	0.126980	-0.325922
H197	H	-0.663238	0.468435	0.081062
H198	H	-0.479827	0.531808	-0.399875
