data_functionalizedCrystal
_audit_creation_method	'MofGen! by Chris Wilmer'
_symmetry_space_group_name_H-M	'P1'
_symmetry_Int_Tables_number	1
_symmetry_cell_setting	triclinic
loop_
_symmetry_equiv_pos_as_xyz
  x,y,z
_cell_length_a	15.944499
_cell_length_b	15.944551
_cell_length_c	7.681481
_cell_angle_alpha	84.256492
_cell_angle_beta	95.720167
_cell_angle_gamma	83.488174
loop_
_atom_site_label
_atom_site_type_symbol
_atom_site_fract_x
_atom_site_fract_y
_atom_site_fract_z
O1	O	1.106604	0.116085	-0.146538
O2	O	0.862049	0.129485	-0.146519
O3	O	0.991005	0.000508	-0.146514
O4	O	0.977647	0.245062	-0.146544
O5	O	1.006878	-0.015403	0.146345
O6	O	0.877921	0.113574	0.146339
O7	O	1.122476	0.100174	0.146320
Zn8	Zn	1.002719	0.104348	0.192827
Zn9	Zn	0.981806	0.125311	-0.193026
O10	O	0.993520	0.229151	0.146314
C11	C	0.838691	0.120981	-0.000087
C12	C	0.745443	0.119336	-0.000080
C13	C	0.998387	-0.038741	-0.000084
C14	C	0.996725	-0.131987	-0.000083
C15	C	0.453905	0.194270	-0.000115
C16	C	0.507108	0.163163	-0.144508
C17	C	0.409804	0.113362	-0.000120
C18	C	0.522743	0.147454	0.144227
C19	C	0.574714	0.116301	-0.000097
C20	C	0.461773	0.082239	-0.144632
C21	C	0.477408	0.066534	0.144234
C22	C	0.530592	0.035371	-0.000195
C23	C	0.314803	0.111671	-0.000134
C24	C	0.669713	0.117986	-0.000095
C25	C	0.912817	-0.346827	-0.000101
C26	C	0.959607	-0.415697	0.144293
C27	C	0.993717	-0.302712	-0.000096
C28	C	0.943977	-0.399993	-0.144442
C29	C	0.990805	-0.467623	-0.000117
C30	C	1.040535	-0.370359	0.144417
C31	C	1.024886	-0.354643	-0.144448
C32	C	1.071736	-0.423496	-0.000019
C33	C	0.995392	-0.207710	-0.000083
C34	C	0.989136	-0.562624	-0.000117
C35	C	1.145834	0.108678	-0.000116
C36	C	1.239081	0.110324	-0.000135
C37	C	0.986138	0.268400	-0.000119
C38	C	0.987799	0.361647	-0.000132
N39	N	1.016997	0.090040	0.456162
N40	N	0.967534	0.139612	-0.456361
H41	H	0.420567	0.261423	-0.000263
N42	N	0.892744	-0.416851	-0.297598
N43	N	0.911427	-0.393272	-0.447463
H44	H	0.875240	-0.405174	-0.555626
N45	N	1.059493	-0.321076	-0.297580
N46	N	1.133134	-0.348339	-0.324747
H47	H	1.157571	-0.324632	-0.432909
N48	N	0.904199	0.203087	0.449286
N49	N	0.895350	0.211950	0.284698
H50	H	0.850619	0.256782	0.218049
H51	H	1.138949	-0.456671	0.000057
N52	N	1.080342	0.026567	0.550522
N53	N	1.089194	0.017703	0.715110
H54	H	1.133928	-0.027126	0.781756
N55	N	1.091716	-0.353626	0.297751
N56	N	1.072582	-0.376728	0.447493
H57	H	1.108725	-0.364909	0.555789
N58	N	0.524007	0.214419	-0.297654
N59	N	0.494818	0.291309	-0.323393
H60	H	0.506749	0.327514	-0.431549
H61	H	0.563766	-0.031832	-0.000263
N62	N	0.428397	0.047668	-0.297925
N63	N	0.350908	0.040829	-0.322702
H64	H	0.327333	0.016415	-0.430964
N65	N	0.460479	0.015322	0.297399
N66	N	0.482866	0.034757	0.447218
H67	H	0.470909	-0.001407	0.555407
H68	H	0.549434	0.175057	0.266295
H69	H	0.845676	-0.313515	0.000049
H70	H	0.932006	-0.442431	0.266372
