data_functionalizedCrystal
_audit_creation_method	'MofGen! by Chris Wilmer'
_symmetry_space_group_name_H-M	'P1'
_symmetry_Int_Tables_number	1
_symmetry_cell_setting	triclinic
loop_
_symmetry_equiv_pos_as_xyz
  x,y,z
_cell_length_a	10.654546
_cell_length_b	13.262508
_cell_length_c	9.130313
_cell_angle_alpha	105.917062
_cell_angle_beta	89.998822
_cell_angle_gamma	84.458792
loop_
_atom_site_label
_atom_site_type_symbol
_atom_site_fract_x
_atom_site_fract_y
_atom_site_fract_z
O1	O	1.667071	0.147402	-0.063107
O2	O	1.301519	0.161451	-0.057506
O3	O	1.493491	0.001703	-0.121141
O4	O	1.475099	0.307150	0.000528
O5	O	1.493489	0.001708	0.122459
O6	O	1.301517	0.161456	0.186094
O7	O	1.667069	0.147406	0.180493
Cu8	Cu	1.484293	0.154431	0.205536
Cu9	Cu	1.484295	0.154426	-0.082549
O10	O	1.475097	0.307154	0.244128
C11	C	1.254725	0.160423	0.063884
C12	C	1.115298	0.157339	0.062657
C13	C	1.049812	0.155877	-0.070717
C14	C	0.918806	0.152971	-0.071887
C15	C	0.918785	0.152984	0.193703
C16	C	1.049787	0.155898	0.194874
C17	C	1.049824	0.155865	-0.224056
C18	C	0.918818	0.152959	-0.225225
C19	C	1.492459	-0.037405	-0.014923
C20	C	1.489372	-0.153944	-0.061354
C21	C	1.480660	-0.482452	0.338931
C22	C	1.483550	-0.372957	0.382556
C23	C	1.485006	-0.318198	0.271582
C24	C	1.483571	-0.372945	0.116976
C25	C	1.480670	-0.482450	0.073346
C26	C	1.485017	-0.318197	0.005998
C27	C	1.483582	-0.372944	-0.148608
C28	C	1.480682	-0.482438	-0.192230
C29	C	1.479226	-0.537196	-0.081256
C30	C	1.487917	-0.208692	0.049628
C31	C	1.487928	-0.208691	-0.215956
C32	C	1.485038	-0.318186	-0.259582
C33	C	1.713863	0.148435	0.059100
C34	C	1.853290	0.151519	0.060317
C35	C	1.476129	0.346263	0.137907
C36	C	1.479215	0.462802	0.184328
N37	N	1.484300	0.154434	0.408160
N38	N	1.484298	0.154415	-0.285177
C39	C	1.569327	0.083722	0.456644
C40	C	1.569323	0.083710	0.609976
C41	C	1.399262	0.225131	0.666330
C42	C	1.399260	0.225137	0.512999
C43	C	1.667514	0.002077	0.424111
C44	C	1.667511	0.002064	0.577443
H45	H	0.865429	0.151812	0.301350
C46	C	1.489505	-0.148484	0.219691
N47	N	1.490704	-0.103136	0.347792
H48	H	1.637394	-0.074174	0.594622
H49	H	1.763929	0.020047	0.626221
H50	H	1.103099	0.157100	0.303485
C51	C	0.885810	0.052829	-0.344632
N52	N	0.860948	-0.022587	-0.434563
C53	C	1.489534	-0.148461	-0.338037
N54	N	1.490742	-0.103090	-0.429979
C55	C	0.848428	0.253936	-0.249301
N56	N	0.795409	0.329992	-0.267433
C57	C	1.790522	0.036604	0.373606
N58	N	1.883173	0.062611	0.335565
C59	C	1.476042	-0.657648	-0.129237
N60	N	1.473642	-0.748373	-0.165372
C61	C	1.479042	-0.542691	0.460983
N62	N	1.477819	-0.588065	0.552922
C63	C	1.305821	0.303007	0.459706
N64	N	1.235476	0.361694	0.419581
H65	H	1.487358	-0.229042	0.307112
H66	H	1.074259	0.229976	-0.253407
C67	C	1.305722	0.302898	0.781664
N68	N	1.235265	0.361474	0.868533
H69	H	1.101935	0.081114	-0.301399
H70	H	1.479502	-0.527009	-0.318120
H71	H	1.483868	-0.362776	-0.385465
H72	H	1.646490	-0.078599	0.350355
H73	H	1.484732	-0.328391	0.508436
