data_functionalizedCrystal
_audit_creation_method	'MofGen! by Chris Wilmer'
_symmetry_space_group_name_H-M	'P1'
_symmetry_Int_Tables_number	1
_symmetry_cell_setting	triclinic
loop_
_symmetry_equiv_pos_as_xyz
  x,y,z
_cell_length_a	10.654541
_cell_length_b	27.732048
_cell_length_c	9.730217
_cell_angle_alpha	89.991832
_cell_angle_beta	89.999932
_cell_angle_gamma	83.563292
loop_
_atom_site_label
_atom_site_type_symbol
_atom_site_fract_x
_atom_site_fract_y
_atom_site_fract_z
O1	O	1.664985	0.067880	-0.114265
O2	O	1.299234	0.074348	-0.114278
O3	O	1.493469	0.000788	-0.114245
O4	O	1.470750	0.141440	-0.114298
O5	O	1.493463	0.000787	0.114335
O6	O	1.299228	0.074348	0.114302
O7	O	1.664979	0.067879	0.114316
Zn8	Zn	1.482103	0.071113	0.150601
Zn9	Zn	1.482110	0.071114	-0.150563
O10	O	1.470744	0.141439	0.114282
C11	C	1.252453	0.073873	0.000011
C12	C	1.113069	0.072453	0.000007
C13	C	1.081401	0.160415	-0.000044
C14	C	1.000086	0.203726	-0.000074
C15	C	0.869124	0.202389	-0.000075
C16	C	0.819476	0.157735	-0.000041
C17	C	0.900791	0.114423	-0.000011
C18	C	1.031754	0.115766	-0.000014
C19	C	0.932459	0.026463	0.000049
C20	C	1.063421	0.027799	0.000040
C21	C	0.882811	-0.018191	0.000083
C22	C	0.964126	-0.061504	0.000104
C23	C	1.095095	-0.060164	0.000103
C24	C	1.144736	-0.015512	0.000071
C25	C	1.492989	-0.017222	0.000049
C26	C	1.491553	-0.070886	0.000060
C27	C	1.597293	-0.409043	-0.000006
C28	C	1.591965	-0.610736	-0.000026
O29	O	1.688656	-0.641390	-0.000082
N30	N	1.476791	-0.630576	-0.000029
C31	C	1.362942	-0.599990	-0.000036
O32	O	1.264858	-0.621494	-0.000053
C33	C	1.368271	-0.398299	-0.000026
C34	C	1.483452	-0.378461	-0.000009
C35	C	1.712464	-0.389205	0.000009
C36	C	1.713795	-0.338785	0.000021
C37	C	1.599954	-0.308203	0.000018
C38	C	1.484783	-0.328041	0.000003
C39	C	1.254423	-0.367713	-0.000043
C40	C	1.255766	-0.317288	-0.000044
C41	C	1.370947	-0.297450	-0.000027
C42	C	1.372273	-0.247038	0.000012
N43	N	1.487446	-0.227198	0.000015
C44	C	1.601287	-0.257780	0.000018
C45	C	1.360152	-0.705882	-0.000038
C46	C	1.358819	-0.756305	-0.000038
C47	C	1.587843	-0.767046	-0.000030
C48	C	1.589174	-0.716623	-0.000021
C49	C	1.475325	-0.686041	-0.000035
C50	C	1.604073	-0.151893	0.000045
C51	C	1.605394	-0.101468	0.000063
C52	C	1.376371	-0.090731	0.000049
C53	C	1.375050	-0.141151	0.000038
C54	C	1.488911	-0.171732	0.000032
O55	O	1.275633	-0.216356	0.000053
O56	O	1.699357	-0.236267	0.000005
C57	C	1.595962	-0.459463	-0.000019
C58	C	1.480790	-0.479301	-0.000034
C59	C	1.366950	-0.448719	-0.000037
C60	C	1.479458	-0.529724	-0.000034
C61	C	1.593298	-0.560306	-0.000031
C62	C	1.708472	-0.540466	-0.000028
C63	C	1.709803	-0.490045	-0.000016
C64	C	1.251777	-0.468560	-0.000040
C65	C	1.250455	-0.518981	-0.000051
C66	C	1.364296	-0.549563	-0.000048
C67	C	1.711760	0.068354	0.000024
C68	C	1.851144	0.069774	0.000019
C69	C	1.471224	0.159450	-0.000015
C70	C	1.472660	0.213113	-0.000035
N71	N	1.482107	0.071112	0.356137
N72	N	1.482117	0.071111	-0.356100
C73	C	1.654171	0.005994	0.356157
C74	C	1.740211	-0.026564	0.428107
C75	C	1.740224	-0.026565	0.571987
C76	C	1.654184	0.005996	0.643920
C77	C	1.568144	0.038554	0.571970
C78	C	1.568143	0.038551	0.428087
C79	C	1.396076	0.103669	0.571950
C80	C	1.396067	0.103673	0.428070
C81	C	1.310037	0.136229	0.643883
C82	C	1.224000	0.168790	0.571933
C83	C	1.223992	0.168790	0.428045
C84	C	1.310027	0.136230	0.356120
H85	H	1.161296	-0.095434	0.000133
N86	N	1.833015	-0.061677	0.350520
H87	H	1.887521	-0.082302	0.417934
H88	H	1.785369	-0.083220	0.290834
H89	H	1.807587	-0.322638	0.000030
H90	H	1.810281	-0.053078	0.630569
N91	N	0.781400	0.249098	-0.000112
H92	H	0.726358	0.250501	0.084622
H93	H	0.832796	0.277565	-0.000182
H94	H	1.654190	0.005989	0.761075
H95	H	1.654179	0.005995	0.239003
N96	N	1.713406	-0.695231	-0.000007
H97	H	1.719077	-0.674546	-0.084740
H98	H	1.718986	-0.674579	0.084786
N99	N	1.310041	0.136230	0.799067
H100	H	1.377604	0.110666	0.833735
H101	H	1.327614	0.169155	0.833591
N102	N	1.253604	-0.057733	0.000043
H103	H	1.203311	-0.064149	-0.084698
H104	H	1.203396	-0.064173	0.084827
N105	N	1.131201	0.203902	0.649513
H106	H	1.144258	0.198958	0.751577
H107	H	1.145025	0.238244	0.624360
H108	H	1.680536	-0.791955	-0.000027
H109	H	1.153923	0.195300	0.369471
N110	N	1.285984	-0.014063	0.000078
H111	H	1.323742	-0.031003	0.084829
H112	H	1.323655	-0.031002	-0.084697
H113	H	1.188035	0.161508	-0.000074
N114	N	1.053632	0.251887	-0.000106
H115	H	1.148934	0.246165	-0.000105
H116	H	1.023826	0.270855	-0.084858
N117	N	1.310023	0.136232	0.200937
H118	H	1.377582	0.110666	0.166291
H119	H	1.224804	0.128906	0.166397
H120	H	0.923691	-0.097857	0.000130
H121	H	1.801165	-0.565374	-0.000019
N122	N	0.678223	0.156297	-0.000010
H123	H	0.640450	0.173241	-0.084747
H124	H	0.659206	0.121429	0.000070
N125	N	1.835260	-0.422185	0.000014
H126	H	1.908411	-0.401959	0.000025
H127	H	1.839695	-0.443342	0.084756
N128	N	1.729629	-0.080072	0.000089
H129	H	1.801541	-0.107100	0.000086
H130	H	1.735177	-0.059378	-0.084642
N131	N	1.726877	-0.184872	0.000039
H132	H	1.800030	-0.164647	0.000053
H133	H	1.731314	-0.206032	0.084774
H134	H	0.776174	-0.019277	0.000090
H135	H	1.267437	-0.680986	-0.000050
N136	N	1.234581	-0.777692	-0.000041
H137	H	1.228918	-0.798368	-0.084777
H138	H	1.228984	-0.798352	0.084749
N139	N	1.130191	-0.389102	-0.000044
H140	H	1.058288	-0.362070	-0.000049
H141	H	1.124640	-0.409783	-0.084781
H142	H	1.163054	-0.292390	-0.000058
H143	H	1.803594	-0.473898	-0.000002
N144	N	1.250824	-0.162552	0.000039
H145	H	1.178909	-0.135525	0.000043
H146	H	1.245286	-0.183229	-0.084710
N147	N	1.126216	-0.540374	-0.000046
H148	H	1.054308	-0.513345	-0.000046
H149	H	1.120671	-0.561053	-0.084789
N150	N	1.128985	-0.435579	-0.000045
H151	H	1.055831	-0.455803	-0.000048
H152	H	1.124544	-0.414431	0.084700
