data_functionalizedCrystal
_audit_creation_method	'MofGen! by Chris Wilmer'
_symmetry_space_group_name_H-M	'P1'
_symmetry_Int_Tables_number	1
_symmetry_cell_setting	triclinic
loop_
_symmetry_equiv_pos_as_xyz
  x,y,z
_cell_length_a	20.919309
_cell_length_b	20.919309
_cell_length_c	20.919309
_cell_angle_alpha	60.101124
_cell_angle_beta	90.173912
_cell_angle_gamma	60.099716
loop_
_atom_site_label
_atom_site_type_symbol
_atom_site_fract_x
_atom_site_fract_y
_atom_site_fract_z
Zr1	Zr	0.671047	0.642241	-0.079791
O2	O	0.574397	0.774997	-0.186785
O3	O	0.696808	0.509485	-0.043684
O4	O	0.707153	0.631893	-0.176441
O5	O	0.560291	0.660751	0.046929
O6	O	0.816274	0.623730	-0.172043
O7	O	0.564052	0.652588	-0.054029
O8	O	0.797768	0.404764	0.065434
O9	O	0.578797	0.879717	-0.190548
O10	O	0.793903	0.557997	-0.029000
O11	O	0.709661	0.570180	0.043063
O12	O	0.721841	0.714300	-0.113241
O13	O	0.637600	0.726483	-0.041179
Zr14	Zr	0.839084	0.642240	0.088238
Zr15	Zr	0.845082	0.629222	-0.072778
Zr16	Zr	0.665050	0.655258	0.081225
Zr17	Zr	0.678065	0.809257	-0.085792
Zr18	Zr	0.832067	0.475223	0.094239
O19	O	0.813324	0.774996	0.052132
O20	O	0.821851	0.756486	-0.176813
O21	O	0.565869	0.793506	0.042159
O22	O	0.935735	0.509484	0.195232
O23	O	0.944262	0.490974	-0.033712
O24	O	0.688280	0.527994	0.185260
O25	O	0.949840	0.623730	-0.038482
O26	O	0.802978	0.652588	0.184888
O27	O	0.693858	0.660750	0.180490
O28	O	0.946080	0.631892	0.062476
O29	O	0.717131	0.869369	-0.184973
O30	O	0.793001	0.415111	0.193420
O31	O	0.931335	0.404764	0.198995
O32	O	0.936102	0.394416	0.071008
O33	O	0.574030	0.890064	-0.062561
O34	O	0.712364	0.879716	-0.056986
O35	O	0.788290	0.570180	0.121688
O36	O	0.872532	0.557997	0.049626
O37	O	0.800470	0.714300	-0.034615
O38	O	0.716229	0.726483	0.037447
C39	C	0.746288	0.433328	0.011730
C40	C	0.743309	0.362425	0.014277
C41	C	0.785881	0.322756	-0.022142
C42	C	0.783083	0.256130	-0.019741
C43	C	0.737709	0.229181	0.019075
C44	C	0.695136	0.268853	0.055498
C45	C	0.697939	0.335473	0.053102
C46	C	0.727052	0.028347	0.028197
C47	C	0.724251	-0.038275	0.030589
C48	C	0.812199	-0.050995	-0.044649
C49	C	0.814994	0.015630	-0.047046
C50	C	0.772424	0.055294	-0.010619
C51	C	0.734847	0.161081	0.021528
C52	C	0.775292	0.123387	-0.013068
C53	C	0.537375	0.658524	-0.004549
C54	C	0.463493	0.664051	-0.007527
C55	C	0.466397	0.585061	0.035044
C56	C	0.396974	0.590259	0.032244
C57	C	0.324649	0.674448	-0.013130
C58	C	0.321747	0.753444	-0.055702
C59	C	0.391169	0.748246	-0.052898
C60	C	0.113158	0.694227	-0.023794
C61	C	0.043735	0.699420	-0.026597
C62	C	0.118967	0.536234	0.061351
C63	C	0.188386	0.531042	0.064148
C64	C	0.185479	0.610039	0.021580
C65	C	0.253687	0.679763	-0.015995
C66	C	0.256440	0.604723	0.024449
C67	C	0.972756	0.625956	0.012996
C68	C	1.046638	0.620430	0.015974
C69	C	0.762568	0.625957	-0.197183
C70	C	0.765114	0.620431	-0.265539
C71	C	0.763844	0.851152	-0.003282
C72	C	0.766823	0.922055	-0.005830
C73	C	0.728696	0.699421	-0.341625
C74	C	0.731099	0.694222	-0.405850
C75	C	0.769915	0.610033	-0.393986
C76	C	0.806338	0.531037	-0.317891
C77	C	0.803939	0.536236	-0.253668
C78	C	0.779042	0.590253	-0.585697
C79	C	0.781436	0.585060	-0.649927
C80	C	0.706198	0.748246	-0.737881
C81	C	0.703799	0.753438	-0.673654
C82	C	0.740225	0.674441	-0.597565
C83	C	0.772369	0.604717	-0.459632
C84	C	0.737775	0.679758	-0.531920
C85	C	0.747564	0.658524	0.205630
C86	C	0.745018	0.664050	0.273986
C87	C	0.963979	0.417044	0.020502
C88	C	1.034882	0.340614	0.026027
C89	C	0.738786	0.449611	0.213136
C90	C	0.733261	0.384235	0.284039
C91	C	0.956477	0.433327	0.221909
C92	C	1.024833	0.362424	0.295790
C93	C	0.553655	0.851153	-0.213462
C94	C	0.485298	0.922056	-0.287342
C95	C	0.546153	0.867437	-0.012055
C96	C	0.475250	0.943866	-0.017580
C97	C	0.771346	0.834869	-0.204689
C98	C	0.776871	0.900246	-0.275592
C99	C	1.027135	0.304722	-0.012427
C100	C	1.093751	0.232917	-0.007251
C101	C	1.168111	0.197001	0.036383
C102	C	1.175856	0.232901	0.074838
C103	C	1.109242	0.304709	0.069657
C104	C	0.771709	0.353534	0.358385
C105	C	0.766515	0.292116	0.425012
C106	C	0.722876	0.261395	0.417292
C107	C	0.684423	0.292102	0.342938
C108	C	0.689613	0.353524	0.276313
C109	C	1.100915	0.322767	0.292869
C110	C	1.165151	0.256155	0.362282
C111	C	1.153303	0.229195	0.434614
C112	C	1.077214	0.268859	0.437532
C113	C	1.012980	0.335475	0.368120
C114	C	0.409217	0.961721	-0.284422
C115	C	0.344982	1.028355	-0.353835
C116	C	0.356830	1.055317	-0.426168
C117	C	0.432919	1.015649	-0.429086
C118	C	0.497153	0.949022	-0.359674
C119	C	0.482997	0.979765	0.020867
C120	C	0.416383	1.051587	0.015673
C121	C	0.342023	1.087505	-0.027964
C122	C	0.334278	1.051603	-0.066415
C123	C	0.400891	0.979786	-0.061226
C124	C	0.820516	0.930947	-0.267847
C125	C	0.825723	0.992365	-0.334461
C126	C	0.787279	1.023087	-0.408820
C127	C	0.743632	0.992379	-0.416563
C128	C	0.738431	0.930957	-0.349950
H129	H	0.822825	0.344697	-0.053754
Cl130	Cl	0.629568	0.253471	0.333246
Cl131	Cl	0.162760	0.785598	-0.073036
Cl132	Cl	0.641277	0.392107	0.182853
Cl133	Cl	0.667203	-0.072151	0.079387
Cl134	Cl	0.673538	0.078198	0.073995
Cl135	Cl	0.249336	1.078207	-0.350149
Cl136	Cl	0.576471	0.934631	0.075726
Cl137	Cl	0.677817	0.127185	0.070334
Cl138	Cl	0.276070	1.139078	-0.513423
Cl139	Cl	0.240789	1.096763	-0.121266
H140	H	1.110577	0.344707	0.233980
Cl141	Cl	0.447800	1.049552	-0.520024
Cl142	Cl	0.391138	0.934659	-0.109559
Cl143	Cl	0.347362	0.498889	0.081496
H144	H	1.067578	0.246899	0.496434
H145	H	1.115560	0.333924	0.100977
Cl146	Cl	-0.047191	0.805265	-0.083651
Cl147	Cl	1.234064	0.145445	0.521868
H148	H	0.851822	0.905943	-0.207307
H149	H	0.861263	1.017361	-0.328141
Cl150	Cl	0.679895	0.805265	-0.356550
H151	H	0.559100	0.916726	-0.362060
H152	H	0.706174	0.748304	-0.541576
Cl153	Cl	0.814864	0.253521	0.518475
Cl154	Cl	0.933662	0.349861	-0.067291
Cl155	Cl	0.836587	0.206281	-0.065546
H156	H	0.422705	1.080807	0.046989
H157	H	0.791521	1.073101	-0.463054
H158	H	0.287788	1.145983	-0.032183
Cl159	Cl	0.695299	1.031019	-0.510049
H160	H	0.833594	0.471913	-0.191715
H161	H	1.236409	0.203648	0.110364
H162	H	1.222346	0.138530	0.040596
Cl163	Cl	0.685312	0.793529	-0.501501
H164	H	0.702887	0.905967	-0.356267
H165	H	0.851941	0.037571	-0.078653
H166	H	0.658196	0.246901	0.087107
Cl167	Cl	0.865715	-0.100864	-0.090437
H168	H	1.087429	0.203696	-0.038567
H169	H	0.663270	0.367774	0.082756
Cl170	Cl	1.260797	0.206301	0.358595
Cl171	Cl	0.821158	0.498883	-0.444725
Cl172	Cl	0.855137	0.425198	-0.302976
Cl173	Cl	0.917336	0.385317	0.371805
H174	H	0.399555	0.939773	-0.225533
H175	H	0.672193	0.821994	-0.683322
H176	H	0.525283	0.516505	0.071996
Cl177	Cl	0.832333	0.157266	-0.061861
H178	H	0.247274	0.462485	0.101082
Cl179	Cl	0.400629	0.490952	0.085772
Cl180	Cl	0.122615	0.436931	0.114866
H181	H	0.262854	0.821993	-0.092643
Cl182	Cl	0.109494	0.793538	-0.077311
H183	H	0.388800	0.812569	-0.087554
Cl184	Cl	0.830238	0.479214	-0.635008
Cl185	Cl	0.660410	0.847549	-0.833536
Cl186	Cl	0.716361	0.184176	0.501058
H187	H	0.808703	0.525928	-0.523750
Cl188	Cl	0.826577	0.392139	0.368111
