data_functionalizedCrystal
_audit_creation_method	'MofGen! by Chris Wilmer'
_symmetry_space_group_name_H-M	'P1'
_symmetry_Int_Tables_number	1
_symmetry_cell_setting	triclinic
loop_
_symmetry_equiv_pos_as_xyz
  x,y,z
_cell_length_a	6.817900
_cell_length_b	15.185311
_cell_length_c	14.858572
_cell_angle_alpha	94.808882
_cell_angle_beta	104.524003
_cell_angle_gamma	104.261569
loop_
_atom_site_label
_atom_site_type_symbol
_atom_site_fract_x
_atom_site_fract_y
_atom_site_fract_z
V1	V	-4.042239	-0.126328	-0.290234
O2	O	-4.025442	0.005482	-0.284429
O3	O	-3.997512	-0.249921	-0.288519
O4	O	-3.998827	-0.124643	-0.416692
O5	O	-4.024119	-0.120663	-0.155368
V6	V	-4.524745	-0.110532	-0.274070
O7	O	-4.305729	-0.160979	-0.325691
O8	O	-4.711452	-0.075881	-0.238614
O9	O	-4.346265	0.013062	-0.275785
O10	O	-4.658939	-0.242342	-0.279876
O11	O	-4.660262	-0.116196	-0.408936
O12	O	-4.344951	-0.112216	-0.147612
C13	C	-3.843245	-0.280043	-0.284010
C14	C	-3.887996	-0.381083	-0.283451
C15	C	-4.033279	-0.795170	-0.195919
C16	C	-4.121373	-0.821451	-0.366313
C17	C	-4.079299	-0.726516	-0.366833
C18	C	-4.014216	-0.665904	-0.281895
C19	C	-3.991206	-0.700227	-0.196437
C20	C	-4.102325	-0.692187	-0.452290
C21	C	-4.060253	-0.597247	-0.452814
C22	C	-3.995154	-0.536633	-0.367875
C23	C	-3.972143	-0.570961	-0.282413
C24	C	-3.907059	-0.510349	-0.197475
C25	C	-3.884032	-0.544675	-0.112012
C26	C	-3.926107	-0.639613	-0.111498
C27	C	-3.953080	-0.441695	-0.368389
C28	C	-3.864986	-0.415406	-0.197993
C29	C	-3.844921	-0.120237	-0.447507
C30	C	-3.890735	-0.119677	-0.550888
C31	C	-4.058413	-0.117631	-0.929452
C32	C	-4.011752	-0.118200	-0.824124
C33	C	-3.974576	-0.118655	-0.740174
C34	C	-3.927911	-0.119222	-0.634839
C35	C	-4.163874	0.043178	-0.280292
C36	C	-4.098362	0.144218	-0.280857
C37	C	-4.162198	-0.116626	-0.116793
C38	C	-4.095623	-0.117181	-0.013410
H39	H	-3.971864	-0.413752	-0.437972
C40	C	-3.801197	-0.528214	0.056475
C41	C	-3.812518	-0.478045	-0.018649
H42	H	-3.757066	-0.487076	0.114109
H43	H	-3.702708	-0.562816	0.056119
H44	H	-3.936154	-0.568764	0.050150
H45	H	-3.677556	-0.437500	-0.012328
H46	H	-3.911010	-0.443427	-0.018292
H47	H	-4.174382	-0.870806	-0.435466
C48	C	-3.941955	-0.759641	-0.027541
C49	C	-4.007965	-0.832894	-0.101980
H50	H	-3.926316	-0.782932	0.030452
H51	H	-4.044092	-0.726126	-0.034263
H52	H	-3.810665	-0.720193	-0.028322
H53	H	-4.139263	-0.872339	-0.101204
H54	H	-3.905822	-0.866424	-0.095256
H55	H	-4.155341	-0.741544	-0.521443
C56	C	-4.151542	-0.632771	-0.621192
C57	C	-4.085537	-0.559520	-0.546751
H58	H	-4.167131	-0.609476	-0.679183
H59	H	-4.282831	-0.672209	-0.620425
H60	H	-4.049403	-0.666297	-0.614459
H61	H	-4.187684	-0.525998	-0.553480
H62	H	-3.954230	-0.520067	-0.547520
H63	H	-3.907369	-0.667570	-0.041918
C64	C	-3.938623	-0.297759	-0.104109
C65	C	-3.793447	-0.348780	-0.104627
H66	H	-3.894447	-0.256623	-0.046471
H67	H	-4.073550	-0.338306	-0.110417
H68	H	-3.946298	-0.263733	-0.155082
H69	H	-3.785784	-0.382811	-0.053658
H70	H	-3.658484	-0.308227	-0.098309
