data_functionalizedCrystal
_audit_creation_method	'MofGen! by Chris Wilmer'
_symmetry_space_group_name_H-M	'P1'
_symmetry_Int_Tables_number	1
_symmetry_cell_setting	triclinic
loop_
_symmetry_equiv_pos_as_xyz
  x,y,z
_cell_length_a	19.288864
_cell_length_b	15.944551
_cell_length_c	17.766277
_cell_angle_alpha	89.992686
_cell_angle_beta	89.976791
_cell_angle_gamma	83.317492
loop_
_atom_site_label
_atom_site_type_symbol
_atom_site_fract_x
_atom_site_fract_y
_atom_site_fract_z
O1	O	0.921629	0.104784	-0.062837
O2	O	0.719406	0.118919	-0.062786
O3	O	0.826040	-0.010445	-0.062806
O4	O	0.814995	0.234147	-0.062817
O5	O	0.826021	-0.010451	0.062382
O6	O	0.719387	0.118912	0.062403
O7	O	0.921610	0.104777	0.062351
Cu8	Cu	0.820497	0.111844	0.073808
Cu9	Cu	0.820519	0.111852	-0.074242
O10	O	0.814976	0.234141	0.062372
C11	C	0.693519	0.118461	-0.000185
C12	C	0.616411	0.117095	-0.000165
C13	C	0.571915	0.193000	-0.000181
C14	C	0.499465	0.191717	-0.000189
C15	C	0.471514	0.114526	-0.000197
C16	C	0.516020	0.038611	-0.000178
C17	C	0.588469	0.039896	-0.000162
C18	C	0.363099	0.053847	-0.044079
C19	C	0.290651	0.052565	-0.044099
C20	C	0.248058	0.110560	-0.000242
C21	C	0.277920	0.169850	0.043625
C22	C	0.350369	0.171135	0.043641
C23	C	0.392956	0.113124	-0.000214
C24	C	0.125002	0.185079	-0.000265
C25	C	0.052550	0.183793	-0.000269
C26	C	0.069107	0.030684	-0.000265
C27	C	0.141557	0.031972	-0.000254
C28	C	0.169500	0.109172	-0.000258
C29	C	0.825572	-0.041740	-0.000212
C30	C	0.824197	-0.134981	-0.000211
C31	C	0.754815	-0.349571	-0.000204
C32	C	0.787024	-0.410715	0.061514
C33	C	0.821710	-0.305697	-0.000216
C34	C	0.787059	-0.410692	-0.061912
C35	C	0.819303	-0.470601	-0.000224
C36	C	0.853938	-0.365614	0.061552
C37	C	0.853963	-0.365585	-0.061929
C38	C	0.886222	-0.426712	-0.000197
C39	C	0.823095	-0.210700	-0.000211
C40	C	0.817924	-0.565597	-0.000224
C41	C	0.947497	0.105235	-0.000251
C42	C	1.024605	0.106600	-0.000276
C43	C	0.815444	0.265436	-0.000225
C44	C	0.816819	0.358677	-0.000230
N45	N	0.820486	0.111838	0.177938
N46	N	0.820535	0.111851	-0.178373
C47	C	0.867719	0.054584	0.217316
C48	C	0.867723	0.054580	0.296118
C49	C	0.820501	0.111845	0.335539
C50	C	0.773259	0.169103	0.296151
C51	C	0.773252	0.169100	0.217351
C52	C	0.811404	0.188378	0.460375
C53	C	0.811416	0.188382	0.539173
C54	C	0.820520	0.111855	0.578585
C55	C	0.829626	0.035319	0.539188
C56	C	0.829618	0.035316	0.460387
C57	C	0.820503	0.111854	0.420984
C58	C	0.867759	0.054592	0.703409
C59	C	0.867759	0.054587	0.782212
C60	C	0.773298	0.169117	0.782244
C61	C	0.773295	0.169115	0.703442
C62	C	0.820530	0.111853	0.664029
H63	H	0.016321	0.245606	-0.000277
H64	H	0.882201	-0.345735	0.113786
O65	O	0.042048	-0.044354	-0.000373
C66	C	0.034034	-0.175582	-0.065252
C67	C	0.064740	-0.090636	-0.065219
H68	H	0.052356	-0.213017	-0.117682
H69	H	0.052354	-0.213139	-0.012892
H70	H	-0.025390	-0.163444	-0.065227
H71	H	0.124165	-0.102697	-0.065270
H72	H	0.046365	-0.053106	-0.117574
O73	O	0.913566	-0.001127	0.665126
C74	C	0.954315	-0.147284	0.640966
C75	C	0.902390	-0.084292	0.684367
H76	H	0.945307	-0.214537	0.656519
H77	H	0.946180	-0.137484	0.577879
H78	H	1.009940	-0.136457	0.656410
H79	H	0.846745	-0.095081	0.668986
H80	H	0.910586	-0.094107	0.747444
H81	H	0.804006	0.250702	0.571244
H82	H	0.758722	-0.430717	0.113705
O83	O	0.952531	-0.466496	-0.000042
C84	C	1.062675	-0.488602	0.065138
C85	C	0.987595	-0.443508	0.065062
H86	H	1.091050	-0.470020	0.117761
H87	H	1.061189	-0.559870	0.064688
H88	H	1.091384	-0.469256	0.012984
H89	H	0.958842	-0.462786	0.117207
H90	H	0.989130	-0.372250	0.065472
H91	H	0.493258	-0.024239	-0.000195
H92	H	0.882241	-0.345560	-0.114123
H93	H	0.758764	-0.430657	-0.114093
O94	O	0.688619	-0.309442	-0.000156
C95	C	0.615737	-0.176012	-0.000682
C96	C	0.690736	-0.221349	-0.000757
H97	H	0.617424	-0.104781	-0.001152
H98	H	0.586925	-0.195242	-0.052778
H99	H	0.587337	-0.194458	0.052000
H100	H	0.719196	-0.202926	-0.053404
H101	H	0.719496	-0.202117	0.051374
O102	O	0.802590	0.262800	0.422211
C103	C	0.784514	0.414617	0.430513
C104	C	0.794500	0.330401	0.473826
H105	H	0.777956	0.469294	0.472225
H106	H	0.832146	0.420118	0.393620
H107	H	0.735994	0.416778	0.393622
H108	H	0.842994	0.328182	0.510758
H109	H	0.746832	0.324935	0.510672
O110	O	0.913622	-0.001126	0.179148
C111	C	1.007342	-0.114686	0.187437
C112	C	0.955386	-0.051653	0.230757
H113	H	1.041131	-0.155543	0.229143
H114	H	0.977388	-0.156619	0.150590
H115	H	1.042004	-0.078514	0.150497
H116	H	0.920711	-0.087756	0.267737
H117	H	0.985383	-0.009721	0.267555
O118	O	0.727329	0.224662	0.820493
C119	C	0.606562	0.274288	0.844623
C120	C	0.658549	0.211325	0.801268
H121	H	0.550942	0.263538	0.829084
H122	H	0.614617	0.264458	0.907718
H123	H	0.615648	0.341530	0.829123
H124	H	0.649495	0.144058	0.816705
H125	H	0.650482	0.221229	0.738184
H126	H	0.906187	0.007955	0.328185
O127	O	0.727360	0.224616	0.334525
C128	C	0.632488	0.242788	0.423511
C129	C	0.684445	0.179830	0.380115
H130	H	0.597769	0.206603	0.460369
H131	H	0.662441	0.284650	0.460430
H132	H	0.598757	0.283728	0.381814
H133	H	0.718189	0.138834	0.421758
H134	H	0.654450	0.138026	0.343185
H135	H	0.734788	0.215724	0.185289
H136	H	0.837031	-0.027001	0.428314
H137	H	0.837039	-0.026997	0.571275
H138	H	0.906219	0.007959	0.814274
O139	O	0.727487	0.224857	0.665222
C140	C	0.686762	0.371039	0.641151
C141	C	0.738694	0.308003	0.684467
H142	H	0.695795	0.438276	0.656707
H143	H	0.694866	0.361277	0.578050
H144	H	0.631140	0.360223	0.656668
H145	H	0.794337	0.318781	0.669013
H146	H	0.730529	0.317780	0.747557
H147	H	0.594661	0.255862	-0.000185
H148	H	0.463229	0.253530	-0.000199
H149	H	0.374680	0.219409	0.079362
H150	H	0.147754	0.247939	-0.000257
O151	O	0.236653	0.226273	0.086252
C152	C	0.231681	0.342704	0.173302
C153	C	0.278498	0.278867	0.125054
H154	H	0.265494	0.385231	0.204698
H155	H	0.193391	0.382865	0.135379
H156	H	0.201494	0.307227	0.215590
H157	H	0.308729	0.314276	0.082760
H158	H	0.316744	0.238707	0.163023
O159	O	0.184814	-0.041739	-0.000117
C160	C	0.276217	-0.129126	0.064729
C161	C	0.227256	-0.045622	0.064675
H162	H	0.310553	-0.132284	0.117100
H163	H	0.243833	-0.184553	0.064769
H164	H	0.310544	-0.132333	0.012320
H165	H	0.192919	-0.042332	0.117075
H166	H	0.259681	0.009766	0.064596
O167	O	0.261762	-0.005107	-0.086726
C168	C	0.282034	-0.121282	-0.173757
C169	C	0.314840	-0.056024	-0.125504
H170	H	0.324931	-0.162453	-0.205133
H171	H	0.252519	-0.162640	-0.135841
H172	H	0.244351	-0.087017	-0.216063
H173	H	0.352554	-0.090218	-0.083193
H174	H	0.344312	-0.014668	-0.163466
O175	O	0.404536	-0.002376	-0.086731
C176	C	0.488663	-0.022213	-0.187340
C177	C	0.441781	0.041547	-0.139083
H178	H	0.518776	0.013273	-0.229689
H179	H	0.527008	-0.062304	-0.149425
H180	H	0.454868	-0.064820	-0.218666
H181	H	0.475520	0.084209	-0.107751
H182	H	0.403431	0.081578	-0.177037
H183	H	0.624699	-0.021917	-0.000150
