data_functionalizedCrystal
_audit_creation_method	'MofGen! by Chris Wilmer'
_symmetry_space_group_name_H-M	'P1'
_symmetry_Int_Tables_number	1
_symmetry_cell_setting	triclinic
loop_
_symmetry_equiv_pos_as_xyz
  x,y,z
_cell_length_a	19.288864
_cell_length_b	14.853567
_cell_length_c	18.366186
_cell_angle_alpha	89.997562
_cell_angle_beta	89.977106
_cell_angle_gamma	83.385589
loop_
_atom_site_label
_atom_site_type_symbol
_atom_site_fract_x
_atom_site_fract_y
_atom_site_fract_z
O1	O	0.921732	0.112464	-0.060777
O2	O	1.421732	0.612464	0.439223
O3	O	0.719523	0.127635	-0.060727
O4	O	1.219523	0.627635	0.439273
O5	O	0.826029	-0.011211	-0.060755
O6	O	1.326029	0.488789	0.439245
O7	O	0.815226	0.251310	-0.060748
O8	O	1.315226	0.751310	0.439252
O9	O	0.826011	-0.011217	0.060344
O10	O	1.326011	0.488783	0.560344
O11	O	0.719505	0.127629	0.060373
O12	O	1.219505	0.627629	0.560373
O13	O	0.921714	0.112457	0.060322
O14	O	1.421714	0.612457	0.560322
Zn15	Zn	0.820607	0.120042	0.079575
Zn16	Zn	1.320607	0.620042	0.579575
Zn17	Zn	0.820631	0.120051	-0.079979
Zn18	Zn	1.320631	0.620051	0.420021
O19	O	0.815208	0.251304	0.060351
O20	O	1.315208	0.751304	0.560351
C21	C	0.693636	0.127144	-0.000171
C22	C	1.193636	0.627144	0.499829
C23	C	0.616527	0.125679	-0.000152
C24	C	1.116527	0.625679	0.499848
C25	C	0.825530	-0.044800	-0.000208
C26	C	1.325530	0.455200	0.499792
C27	C	0.824064	-0.144875	-0.000214
C28	C	1.324064	0.355125	0.499786
C29	C	0.572106	0.207147	-0.000161
C30	C	1.072106	0.707147	0.499839
C31	C	0.499654	0.205770	-0.000169
C32	C	0.999654	0.705770	0.499831
C33	C	0.471627	0.122920	-0.000182
C34	C	0.971627	0.622920	0.499818
C35	C	0.516058	0.041441	-0.000169
C36	C	1.016058	0.541441	0.499831
C37	C	0.588508	0.042820	-0.000154
C38	C	1.088508	0.542820	0.499846
C39	C	0.363152	0.057794	-0.042635
C40	C	0.863152	0.557794	0.457365
C41	C	0.290702	0.056418	-0.042655
C42	C	0.790702	0.556418	0.457345
C43	C	0.248167	0.118664	-0.000227
C44	C	0.748167	0.618664	0.499773
C45	C	0.278088	0.182300	0.042212
C46	C	0.778088	0.682300	0.542212
C47	C	0.350538	0.183679	0.042228
C48	C	0.850538	0.683679	0.542228
C49	C	0.393068	0.121416	-0.000199
C50	C	0.893068	0.621416	0.499801
C51	C	0.125185	0.198645	-0.000243
C52	C	0.625185	0.698645	0.499757
C53	C	0.052732	0.197265	-0.000247
C54	C	0.552732	0.697265	0.499753
C55	C	0.069138	0.032933	-0.000254
C56	C	0.569138	0.532933	0.499746
C57	C	0.141589	0.034316	-0.000244
C58	C	0.641589	0.534316	0.499756
C59	C	0.169608	0.117174	-0.000242
C60	C	0.669608	0.617174	0.499758
C61	C	0.754596	-0.557014	-0.000182
C62	C	1.254596	-0.057014	0.499818
C63	C	0.881128	-0.579015	-0.000214
C64	C	1.381128	-0.079015	0.499786
C65	C	0.882507	-0.484989	-0.000219
C66	C	1.382507	0.015011	0.499781
C67	C	0.819930	-0.426971	-0.000204
C68	C	1.319930	0.073029	0.499796
C69	C	0.755974	-0.462979	-0.000185
C70	C	1.255974	0.037021	0.499815
C71	C	0.946462	-0.448973	-0.000231
C72	C	1.446462	0.051027	0.499769
C73	C	0.947844	-0.354942	-0.000235
C74	C	1.447844	0.145058	0.499765
C75	C	0.885266	-0.296923	-0.000225
C76	C	1.385266	0.203077	0.499775
C77	C	0.821307	-0.332936	-0.000207
C78	C	1.321307	0.167064	0.499793
C79	C	0.758730	-0.274918	-0.000192
C80	C	1.258730	0.225082	0.499808
C81	C	0.694770	-0.310930	-0.000179
C82	C	1.194770	0.189070	0.499821
C83	C	0.693396	-0.404960	-0.000176
C84	C	1.193396	0.095040	0.499824
C85	C	0.886641	-0.202893	-0.000228
C86	C	1.386641	0.297107	0.499772
C87	C	0.760107	-0.180883	-0.000194
C88	C	1.260107	0.319117	0.499806
C89	C	0.947601	0.112949	-0.000236
C90	C	1.447601	0.612949	0.499764
C91	C	1.024710	0.114414	-0.000259
C92	C	1.524710	0.614414	0.499741
C93	C	0.815707	0.284893	-0.000198
C94	C	1.315707	0.784893	0.499802
C95	C	0.817174	0.384968	-0.000197
C96	C	1.317174	0.884968	0.499803
N97	N	0.820595	0.120035	0.188466
N98	N	1.320595	0.620035	0.688466
N99	N	0.820647	0.120050	-0.188870
N100	N	1.320647	0.620050	0.311130
C101	C	0.867772	0.058584	0.226553
C102	C	1.367772	0.558584	0.726553
C103	C	0.867776	0.058580	0.302781
C104	C	1.367776	0.558580	0.802781
C105	C	0.820611	0.120043	0.340918
C106	C	1.320611	0.620043	0.840918
C107	C	0.773426	0.181498	0.302822
C108	C	1.273426	0.681498	0.802822
C109	C	0.773418	0.181495	0.226595
C110	C	1.273418	0.681495	0.726595
C111	C	0.811590	0.202186	0.461682
C112	C	1.311590	0.702186	0.961682
C113	C	0.811602	0.202191	0.537907
C114	C	1.311602	0.702191	1.037907
C115	C	0.820631	0.120054	0.576026
C116	C	1.320631	0.620054	1.076026
C117	C	0.829661	0.037908	0.537910
C118	C	1.329661	0.537908	1.037910
C119	C	0.829653	0.037905	0.461684
C120	C	1.329653	0.537905	0.961684
C121	C	0.820614	0.120053	0.423573
C122	C	1.320614	0.620053	0.923573
C123	C	0.867814	0.058594	0.696769
C124	C	1.367814	0.558594	1.196769
C125	C	0.867814	0.058588	0.772998
C126	C	1.367814	0.558588	1.272998
C127	C	0.773467	0.181514	0.773037
C128	C	1.273467	0.681514	1.273037
C129	C	0.773464	0.181512	0.696809
C130	C	1.273464	0.681512	1.196809
C131	C	0.820641	0.120052	0.658679
C132	C	1.320641	0.620052	1.158679
H133	H	0.463479	0.272114	-0.000174
H134	H	0.963479	0.772114	0.499826
H135	H	0.938716	-0.173576	-0.000234
H136	H	1.438716	0.326424	0.499766
O137	O	0.839258	-0.050743	0.420644
O138	O	1.339258	0.449257	0.920644
H139	H	0.792801	-0.056295	0.386006
H140	H	1.292801	0.443705	0.886006
O141	O	0.839394	-0.050693	0.579010
O142	O	1.339394	0.449307	1.079010
H143	H	0.837872	-0.036895	0.638418
H144	H	1.337872	0.463105	1.138418
H145	H	0.046319	-0.034525	-0.000311
H146	H	0.546319	0.465475	0.499689
H147	H	0.735000	0.231536	0.195584
H148	H	1.235000	0.731536	0.695584
O149	O	0.382818	0.252276	0.088028
O150	O	0.882818	0.752276	0.588028
H151	H	0.341075	0.295318	0.117543
H152	H	0.841075	0.795318	0.617543
O153	O	0.232224	0.249441	0.087985
O154	O	0.732224	0.749441	0.587985
H155	H	0.176819	0.237786	0.080855
H156	H	0.676819	0.737786	0.580855
O157	O	0.636424	-0.045055	-0.000142
O158	O	1.136424	0.454945	0.499858
H159	H	0.669856	-0.048354	-0.049491
H160	H	1.169856	0.451646	0.450509
O161	O	0.627280	-0.248345	-0.000156
O162	O	1.127280	0.251655	0.499844
H163	H	0.582572	-0.289177	-0.000140
H164	H	1.082572	0.210823	0.499860
H165	H	0.147999	0.266113	-0.000231
H166	H	0.647999	0.766113	0.499769
O167	O	1.013952	-0.511548	-0.000235
O168	O	1.513952	-0.011548	0.499765
H169	H	1.016365	-0.554911	-0.049594
H170	H	1.516365	-0.054911	0.450406
H171	H	0.709148	-0.133651	-0.000186
H172	H	1.209148	0.366349	0.499814
O173	O	0.685612	-0.595845	-0.000160
O174	O	1.185612	-0.095845	0.499840
H175	H	0.695163	-0.670977	-0.000155
H176	H	1.195163	-0.170977	0.499845
H177	H	0.932075	-0.626258	-0.000220
H178	H	1.432075	-0.126258	0.499780
O179	O	1.016824	-0.316101	-0.000266
O180	O	1.516824	0.183899	0.499734
H181	H	1.060105	-0.372242	-0.000284
H182	H	1.560105	0.127758	0.499716
O183	O	0.801877	0.290785	0.579017
O184	O	1.301877	0.790785	1.079017
H185	H	0.795589	0.347899	0.539707
H186	H	1.295589	0.847899	1.039707
O187	O	0.918645	-0.007712	0.185426
O188	O	1.418645	0.492288	0.685426
H189	H	0.951445	-0.050451	0.224722
H190	H	1.451445	0.449549	0.724722
O191	O	0.722594	0.247811	0.814158
O192	O	1.222594	0.747811	1.314158
H193	H	0.730527	0.237495	0.873563
H194	H	1.230527	0.737495	1.373563
O195	O	0.918668	-0.007692	0.343876
O196	O	1.418668	0.492308	0.843876
H197	H	0.951475	-0.050422	0.304556
H198	H	1.451475	0.449578	0.804556
O199	O	0.624414	-0.443798	-0.000146
O200	O	1.124414	0.056202	0.499854
H201	H	0.633972	-0.518929	-0.000134
H202	H	1.133972	-0.018929	0.499866
H203	H	0.594914	0.274617	-0.000161
H204	H	1.094914	0.774617	0.499839
O205	O	0.801849	0.290777	0.420563
O206	O	1.301849	0.790777	0.920563
H207	H	0.844353	0.331867	0.435156
H208	H	1.344353	0.831867	0.935156
O209	O	0.918686	-0.007701	0.655634
O210	O	1.418686	0.492299	1.155634
H211	H	0.951484	-0.050445	0.694929
H212	H	1.451484	0.449555	1.194929
H213	H	0.016564	0.263609	-0.000250
H214	H	0.516564	0.763609	0.499750
O215	O	0.189508	-0.053554	-0.000240
O216	O	0.689508	0.446446	0.499760
H217	H	0.157849	-0.111398	-0.000255
H218	H	0.657849	0.388602	0.499745
O219	O	0.918707	-0.007684	0.814084
O220	O	1.418707	0.492316	1.314084
H221	H	0.951515	-0.050409	0.774761
H222	H	1.451515	0.449591	1.274761
H223	H	0.266346	0.004605	-0.077214
H224	H	0.766346	0.504605	0.422786
O225	O	0.722588	0.247801	0.655721
O226	O	1.222588	0.747801	1.155721
H227	H	0.689795	0.290546	0.695044
H228	H	1.189795	0.790546	1.195044
H229	H	0.735022	0.231541	0.333877
H230	H	1.235022	0.731541	0.833877
H231	H	0.493234	-0.026016	-0.000190
H232	H	0.993234	0.473984	0.499810
O233	O	0.409028	-0.009342	-0.088404
O234	O	0.909028	0.490658	0.411596
H235	H	0.376051	-0.053811	-0.117926
H236	H	0.876051	0.446189	0.382074
