data_functionalizedCrystal
_audit_creation_method	'MofGen! by Chris Wilmer'
_symmetry_space_group_name_H-M	'P1'
_symmetry_Int_Tables_number	1
_symmetry_cell_setting	triclinic
loop_
_symmetry_equiv_pos_as_xyz
  x,y,z
_cell_length_a	9.065215
_cell_length_b	10.489716
_cell_length_c	9.565339
_cell_angle_alpha	89.994974
_cell_angle_beta	90.003323
_cell_angle_gamma	84.771917
loop_
_atom_site_label
_atom_site_type_symbol
_atom_site_fract_x
_atom_site_fract_y
_atom_site_fract_z
O1	O	1.959481	0.187018	0.116230
O2	O	1.530120	0.202365	0.116235
O3	O	1.754589	0.009127	0.116237
O4	O	1.735012	0.380256	0.116227
O5	O	1.754570	0.009142	-0.116283
O6	O	1.530101	0.202380	-0.116285
O7	O	1.959462	0.187033	-0.116291
Zn8	Zn	1.744778	0.194709	-0.153206
Zn9	Zn	1.744803	0.194689	0.153150
O10	O	1.734992	0.380271	-0.116293
C11	C	1.475131	0.200898	-0.000024
C12	C	1.311310	0.196491	-0.000022
C13	C	1.753109	-0.038403	-0.000019
C14	C	1.748708	-0.180050	-0.000006
C15	C	1.886359	-0.277228	-0.000020
C16	C	1.813631	-0.354858	0.114621
C17	C	1.813580	-0.354807	-0.114625
C18	C	1.676036	-0.255814	0.114731
C19	C	1.676006	-0.255758	-0.114619
C20	C	1.603176	-0.333340	0.000051
C21	C	2.014451	0.188500	-0.000028
C22	C	2.178272	0.192907	-0.000022
C23	C	1.736473	0.427801	-0.000034
C24	C	1.740874	0.569448	-0.000038
N25	N	1.744772	0.194722	-0.362285
C26	C	1.641826	0.284790	-0.546659
C27	C	1.610774	0.169534	-0.453429
C28	C	1.775758	0.309969	-0.453445
C29	C	1.713703	0.079351	-0.546593
C30	C	1.878746	0.219862	-0.546617
C31	C	1.847749	0.104522	-0.453430
N32	N	1.744822	0.194666	0.362229
H33	H	2.006093	-0.252120	0.000095
N34	N	1.599121	-0.198367	-0.243015
H35	H	1.601880	-0.102339	-0.241554
H36	H	1.492770	-0.219866	-0.243882
N37	N	1.678845	-0.049813	-0.600554
H38	H	1.756131	-0.117912	-0.565846
H39	H	1.679016	-0.048902	-0.706134
N40	N	1.890563	-0.412106	-0.243009
H41	H	1.997453	-0.392089	-0.242900
H42	H	1.839562	-0.374622	-0.329528
H43	H	1.483352	-0.358202	0.000114
N44	N	1.526416	0.385602	-0.600889
H45	H	1.425266	0.366416	-0.566990
H46	H	1.528021	0.385370	-0.706463
H47	H	1.497498	0.148243	-0.412486
H48	H	1.934832	0.028247	-0.412755
H49	H	1.991987	0.241195	-0.587585
H50	H	1.801965	0.407459	-0.412555
H51	H	1.617968	-0.212726	0.211759
N52	N	1.890599	-0.412211	0.243006
H53	H	1.997493	-0.392205	0.242924
H54	H	1.886059	-0.508053	0.242429
