data_functionalizedCrystal
_audit_creation_method	'MofGen! by Chris Wilmer'
_symmetry_space_group_name_H-M	'P1'
_symmetry_Int_Tables_number	1
_symmetry_cell_setting	triclinic
loop_
_symmetry_equiv_pos_as_xyz
  x,y,z
_cell_length_a	23.532407
_cell_length_b	15.944551
_cell_length_c	15.021413
_cell_angle_alpha	90.002826
_cell_angle_beta	89.999348
_cell_angle_gamma	96.826292
loop_
_atom_site_label
_atom_site_type_symbol
_atom_site_fract_x
_atom_site_fract_y
_atom_site_fract_z
O1	O	0.073442	-1.113910	-0.073949
O2	O	0.406776	-0.780577	0.259385
O3	O	0.740109	-0.447243	0.592718
O4	O	0.082498	-0.869284	-0.073972
O5	O	0.415831	-0.535951	0.259361
O6	O	0.749164	-0.202617	0.592695
O7	O	-0.004933	-0.998974	-0.073943
O8	O	0.328400	-0.665640	0.259390
O9	O	0.661734	-0.332307	0.592723
O10	O	0.160873	-0.984220	-0.073977
O11	O	0.494206	-0.650887	0.259356
O12	O	0.827540	-0.317554	0.592689
O13	O	-0.004921	-0.998953	0.074121
O14	O	0.328413	-0.665620	0.407454
O15	O	0.661746	-0.332286	0.740788
O16	O	0.082510	-0.869263	0.074092
O17	O	0.415844	-0.535930	0.407426
O18	O	0.749177	-0.202597	0.740759
O19	O	0.073455	-1.113889	0.074116
O20	O	0.406788	-0.780556	0.407449
O21	O	0.740121	-0.447223	0.740782
Zn22	Zn	0.077985	-0.991573	0.097612
Zn23	Zn	0.411318	-0.658240	0.430946
Zn24	Zn	0.744651	-0.324906	0.764279
Zn25	Zn	0.077968	-0.991600	-0.097469
Zn26	Zn	0.411301	-0.658267	0.235865
Zn27	Zn	0.744635	-0.324934	0.569198
O28	O	0.160886	-0.984200	0.074087
O29	O	0.494219	-0.650866	0.407420
O30	O	0.827552	-0.317533	0.740754
C31	C	0.082128	-0.837983	0.000057
C32	C	0.415461	-0.504650	0.333391
C33	C	0.748795	-0.171316	0.666724
C34	C	0.081001	-0.744746	0.000049
C35	C	0.414334	-0.411413	0.333383
C36	C	0.747668	-0.078080	0.666716
C37	C	-0.026144	-0.998588	0.000091
C38	C	0.307189	-0.665254	0.333424
C39	C	0.640522	-0.331921	0.666758
C40	C	-0.089366	-0.997458	0.000098
C41	C	0.243968	-0.664125	0.333431
C42	C	0.577301	-0.330791	0.666765
N43	N	0.077995	-0.991561	0.230750
N44	N	0.411329	-0.658227	0.564083
N45	N	0.744662	-0.324894	0.897417
C46	C	-0.488199	-1.067121	0.000056
C47	C	-0.154866	-0.733788	0.333389
C48	C	0.178468	-0.400454	0.666722
C49	C	-0.547603	-1.066072	0.000049
C50	C	-0.214270	-0.732738	0.333382
C51	C	0.119063	-0.399405	0.666716
O52	O	-0.584098	-1.130650	0.000022
O53	O	-0.250764	-0.797317	0.333355
O54	O	0.082569	-0.463983	0.666689
N55	N	-0.570528	-0.988971	0.000042
N56	N	-0.237195	-0.655638	0.333375
N57	N	0.096139	-0.322305	0.666709
C58	C	-0.534045	-0.912915	0.000033
C59	C	-0.200712	-0.579582	0.333367
C60	C	0.132622	-0.246249	0.666700
O61	O	-0.558999	-0.847239	0.000026
O62	O	-0.225666	-0.513906	0.333359
O63	O	0.107667	-0.180572	0.666693
C64	C	-0.474642	-0.913965	0.000034
C65	C	-0.141309	-0.580632	0.333367
C66	C	0.192025	-0.247299	0.666700
C67	C	-0.451721	-0.991071	0.000049
C68	C	-0.118387	-0.657737	0.333383
C69	C	0.214946	-0.324404	0.666716
C70	C	-0.465277	-1.144220	0.000070
C71	C	-0.131944	-0.810887	0.333404
C72	C	0.201390	-0.477554	0.666737
C73	C	-0.405877	-1.145269	0.000079
C74	C	-0.072543	-0.811936	0.333412
C75	C	0.260790	-0.478603	0.666746
C76	C	-0.369399	-1.069219	0.000073
C77	C	-0.036065	-0.735886	0.333406
C78	C	0.297268	-0.402552	0.666739
C79	C	-0.392320	-0.992120	0.000058
C80	C	-0.058987	-0.658786	0.333391
C81	C	0.274346	-0.325453	0.666725
C82	C	-0.438160	-0.837910	0.000018
C83	C	-0.104827	-0.504577	0.333352
C84	C	0.228507	-0.171243	0.666685
C85	C	-0.378754	-0.838967	0.000018
C86	C	-0.045420	-0.505634	0.333352
C87	C	0.287913	-0.172300	0.666685
C88	C	-0.355832	-0.916072	0.000034
C89	C	-0.022499	-0.582739	0.333367
C90	C	0.310834	-0.249406	0.666701
C91	C	-0.296442	-0.917118	0.000060
C92	C	0.036891	-0.583785	0.333394
C93	C	0.370225	-0.250452	0.666727
N94	N	-0.273517	-0.994219	0.000067
N95	N	0.059816	-0.660886	0.333400
N96	N	0.393150	-0.327552	0.666734
C97	C	-0.309995	-1.070269	0.000073
C98	C	0.023338	-0.736936	0.333407
C99	C	0.356671	-0.403602	0.666740
C100	C	-0.658796	-0.910716	0.000031
C101	C	-0.325463	-0.577382	0.333364
C102	C	0.007870	-0.244049	0.666697
C103	C	-0.718198	-0.909664	0.000037
C104	C	-0.384865	-0.576331	0.333370
C105	C	-0.051531	-0.242998	0.666703
C106	C	-0.731752	-1.062821	0.000050
C107	C	-0.398419	-0.729488	0.333384
C108	C	-0.065086	-0.396155	0.666717
C109	C	-0.672349	-1.063872	0.000051
C110	C	-0.339016	-0.730538	0.333384
C111	C	-0.005682	-0.397205	0.666718
C112	C	-0.635871	-0.987816	0.000037
C113	C	-0.302538	-0.654483	0.333371
C114	C	0.030795	-0.321149	0.666704
C115	C	-0.185250	-1.072466	0.000092
C116	C	0.148083	-0.739133	0.333425
C117	C	0.481417	-0.405800	0.666759
C118	C	-0.125844	-1.073508	0.000104
C119	C	0.207489	-0.740175	0.333437
C120	C	0.540823	-0.406842	0.666771
C121	C	-0.112295	-0.920352	0.000085
C122	C	0.221038	-0.587019	0.333419
C123	C	0.554371	-0.253685	0.666752
C124	C	-0.171696	-0.919309	0.000078
C125	C	0.161637	-0.585976	0.333411
C126	C	0.494971	-0.252643	0.666745
C127	C	-0.208173	-0.995373	0.000078
C128	C	0.125161	-0.662040	0.333411
C129	C	0.458494	-0.328707	0.666745
O130	O	-0.259913	-0.852574	0.000083
O131	O	0.073421	-0.519241	0.333417
O132	O	0.406754	-0.185907	0.666750
O133	O	-0.285033	-1.135935	0.000069
O134	O	0.048300	-0.802601	0.333402
O135	O	0.381634	-0.469268	0.666735
C136	C	0.182097	-0.984586	0.000051
C137	C	0.515430	-0.651252	0.333384
C138	C	0.848764	-0.317919	0.666717
C139	C	0.245318	-0.985715	0.000038
C140	C	0.578652	-0.652382	0.333371
C141	C	0.911985	-0.319049	0.666705
C142	C	0.073824	-1.145190	0.000084
C143	C	0.407158	-0.811857	0.333418
C144	C	0.740491	-0.478524	0.666751
C145	C	0.074951	-1.238427	0.000087
C146	C	0.408285	-0.905094	0.333420
C147	C	0.741618	-0.571760	0.666753
C148	C	0.024113	-0.530369	0.000078
C149	C	0.357447	-0.197036	0.333412
C150	C	0.690780	0.136298	0.666745
C151	C	0.050524	-0.469137	-0.072931
C152	C	0.383857	-0.135803	0.260403
C153	C	0.717191	0.197530	0.593736
C154	C	0.078962	-0.574038	0.000060
C155	C	0.412295	-0.240704	0.333394
C156	C	0.745629	0.092629	0.666727
C157	C	0.050549	-0.469138	0.073049
C158	C	0.383883	-0.135805	0.406382
C159	C	0.717216	0.197528	0.739716
C160	C	0.076989	-0.409142	0.000075
C161	C	0.410322	-0.075808	0.333408
C162	C	0.743655	0.257525	0.666741
C163	C	0.105388	-0.514033	-0.073009
C164	C	0.438721	-0.180700	0.260324
C165	C	0.772054	0.152633	0.593658
C166	C	0.105405	-0.514041	0.073036
C167	C	0.438739	-0.180708	0.406370
C168	C	0.772072	0.152625	0.739703
C169	C	0.131856	-0.452826	0.000010
C170	C	0.465189	-0.119493	0.333343
C171	C	0.798523	0.213841	0.666676
C172	C	0.080097	-0.669030	0.000051
C173	C	0.413431	-0.335697	0.333384
C174	C	0.746764	-0.002364	0.666718
C175	C	0.075858	-0.314150	0.000077
C176	C	0.409191	0.019183	0.333411
C177	C	0.742524	0.352517	0.666744
N178	N	0.077953	-0.991619	-0.230606
N179	N	0.411286	-0.658286	0.102727
N180	N	0.744619	-0.324953	0.436060
C181	C	0.118404	-0.931583	0.470420
C182	C	0.451738	-0.598250	0.803753
C183	C	0.785071	-0.264917	1.137087
C184	C	0.129461	-1.007390	0.529759
C185	C	0.462794	-0.674057	0.863092
C186	C	0.796127	-0.340724	1.196426
C187	C	0.077981	-0.991582	0.412357
C188	C	0.411314	-0.658249	0.745690
C189	C	0.744648	-0.324916	1.079024
C190	C	0.066938	-0.915796	0.529760
C191	C	0.400271	-0.582462	0.863093
C192	C	0.733604	-0.249129	1.196426
C193	C	0.077969	-0.991596	0.587781
C194	C	0.411302	-0.658263	0.921114
C195	C	0.744635	-0.324930	1.254448
C196	C	0.089063	-1.067428	0.470389
C197	C	0.422396	-0.734094	0.803723
C198	C	0.755730	-0.400761	1.137056
C199	C	0.026518	-0.975783	0.470385
C200	C	0.359851	-0.642450	0.803718
C201	C	0.693184	-0.309116	1.137051
C202	C	0.037552	-1.051645	0.529697
C203	C	0.370885	-0.718312	0.863030
C204	C	0.704219	-0.384979	1.196364
C205	C	0.077990	-0.991573	0.311300
C206	C	0.411323	-0.658240	0.644633
C207	C	0.744656	-0.324906	0.977966
C208	C	0.077960	-0.991614	0.688836
C209	C	0.411293	-0.658281	1.022170
C210	C	0.744626	-0.324948	1.355503
H211	H	-0.107185	-1.136300	0.000119
H212	H	0.226148	-0.802966	0.333453
H213	H	0.559481	-0.469633	0.666786
H214	H	-0.214943	-1.134405	0.000089
H215	H	0.118390	-0.801072	0.333422
H216	H	0.451724	-0.467738	0.666755
C217	C	-0.618675	-0.827043	0.000027
C218	C	-0.285342	-0.493709	0.333361
C219	C	0.047992	-0.160376	0.666694
N220	N	-0.588459	-0.764020	0.000024
N221	N	-0.255125	-0.430687	0.333357
N222	N	0.078208	-0.097353	0.666691
C223	C	-0.037391	-0.575887	-0.000006
C224	C	0.295943	-0.242554	0.333327
C225	C	0.629276	0.090779	0.666660
N226	N	-0.083714	-0.610173	-0.000075
N227	N	0.249619	-0.276839	0.333259
N228	N	0.582953	0.056494	0.666592
C229	C	0.019176	-0.442237	-0.156300
C230	C	0.352509	-0.108904	0.177033
C231	C	0.685842	0.224429	0.510366
N232	N	-0.004440	-0.421979	-0.219091
N233	N	0.328894	-0.088645	0.114243
N234	N	0.662227	0.244688	0.447576
C235	C	-0.380672	-1.230092	0.000087
C236	C	-0.047338	-0.896759	0.333420
C237	C	0.285995	-0.563425	0.666754
N238	N	-0.361691	-1.293985	0.000089
N239	N	-0.028358	-0.960652	0.333422
N240	N	0.304975	-0.627318	0.666756
C241	C	-0.743404	-0.824843	0.000030
C242	C	-0.410071	-0.491509	0.333364
C243	C	-0.076738	-0.158176	0.666697
N244	N	-0.762387	-0.760952	0.000020
N245	N	-0.429054	-0.427618	0.333353
N246	N	-0.095721	-0.094285	0.666687
H247	H	-0.494973	-1.206153	0.000072
H248	H	-0.161639	-0.872820	0.333406
H249	H	0.171694	-0.539487	0.666739
H250	H	-0.349056	-0.777032	0.000006
H251	H	-0.015722	-0.443698	0.333339
H252	H	0.317611	-0.110365	0.666673
H253	H	0.128564	-0.533834	-0.134800
H254	H	0.461897	-0.200501	0.198534
H255	H	0.795231	0.132833	0.531867
H256	H	0.177423	-0.419284	-0.000040
H257	H	0.510756	-0.085950	0.333293
H258	H	0.844089	0.247383	0.666626
C259	C	0.136724	-0.540971	0.156415
C260	C	0.470058	-0.207638	0.489748
C261	C	0.803391	0.125695	0.823081
N262	N	0.160309	-0.561258	0.219223
N263	N	0.493643	-0.227925	0.552556
N264	N	0.826976	0.105408	0.885889
C265	C	0.019203	-0.442257	0.156433
C266	C	0.352537	-0.108924	0.489767
C267	C	0.685870	0.224410	0.823100
N268	N	-0.004410	-0.422014	0.219235
N269	N	0.328923	-0.088680	0.552568
N270	N	0.662256	0.244653	0.885902
H271	H	0.152617	-0.880895	0.444393
H272	H	0.485950	-0.547561	0.777727
H273	H	0.819283	-0.214228	1.111060
H274	H	0.172977	-1.020766	0.555839
H275	H	0.506310	-0.687433	0.889172
H276	H	0.839643	-0.354100	1.222505
H277	H	-0.190359	-0.856524	0.000090
H278	H	0.142974	-0.523190	0.333423
H279	H	0.476307	-0.189857	0.666757
H280	H	0.098450	-1.131539	0.444420
H281	H	0.431784	-0.798205	0.777754
H282	H	0.765117	-0.464872	1.111087
H283	H	-0.653691	-1.126658	0.000063
H284	H	-0.320358	-0.793324	0.333396
H285	H	0.012976	-0.459991	0.666730
H286	H	0.003360	-1.102446	0.555561
H287	H	0.336693	-0.769112	0.888894
H288	H	0.670027	-0.435779	1.222227
H289	H	-0.016985	-0.962383	0.444284
H290	H	0.316349	-0.629050	0.777618
H291	H	0.649682	-0.295717	1.110951
H292	H	0.057603	-0.851698	0.555841
H293	H	0.390936	-0.518365	0.889174
H294	H	0.724269	-0.185032	1.222507
H295	H	-0.456812	-0.775123	0.000000
H296	H	-0.123478	-0.441789	0.333334
H297	H	0.209855	-0.108456	0.666667
C298	C	-0.771890	-1.146479	0.000048
C299	C	-0.438557	-0.813145	0.333381
C300	C	-0.105223	-0.479812	0.666715
N301	N	-0.802123	-1.209485	0.000045
N302	N	-0.468790	-0.876152	0.333378
N303	N	-0.135456	-0.542819	0.666711
C304	C	-0.072158	-0.836701	0.000072
C305	C	0.261175	-0.503368	0.333406
C306	C	0.594509	-0.170034	0.666739
N307	N	-0.041925	-0.773694	0.000054
N308	N	0.291408	-0.440361	0.333387
N309	N	0.624742	-0.107028	0.666721
