data_functionalizedCrystal
_audit_creation_method	'MofGen! by Chris Wilmer'
_symmetry_space_group_name_H-M	'P1'
_symmetry_Int_Tables_number	1
_symmetry_cell_setting	triclinic
loop_
_symmetry_equiv_pos_as_xyz
  x,y,z
_cell_length_a	23.532356
_cell_length_b	23.532361
_cell_length_c	17.766277
_cell_angle_alpha	89.994914
_cell_angle_beta	89.998234
_cell_angle_gamma	97.171287
loop_
_atom_site_label
_atom_site_type_symbol
_atom_site_fract_x
_atom_site_fract_y
_atom_site_fract_z
O1	O	-0.069011	0.755268	-0.062506
O2	O	0.430989	1.255268	0.437494
O3	O	-0.079042	0.589399	-0.062522
O4	O	0.420958	1.089399	0.437478
O5	O	0.008908	0.677350	-0.062524
O6	O	0.508908	1.177350	0.437476
O7	O	-0.156961	0.667316	-0.062504
O8	O	0.343039	1.167316	0.437496
O9	O	0.008912	0.677335	0.062664
O10	O	0.508912	1.177335	0.562664
O11	O	-0.079038	0.589384	0.062666
O12	O	0.420962	1.089384	0.562666
O13	O	-0.069007	0.755253	0.062683
O14	O	0.430993	1.255253	0.562683
Cu15	Cu	-0.074022	0.672317	0.074105
Cu16	Cu	0.425978	1.172317	0.574105
Cu17	Cu	-0.074027	0.672335	-0.073945
Cu18	Cu	0.425973	1.172335	0.426055
O19	O	-0.156957	0.667301	0.062685
O20	O	0.343043	1.167301	0.562685
C21	C	-0.078789	0.568175	0.000070
C22	C	0.421211	1.068175	0.500070
C23	C	-0.078034	0.504956	0.000063
C24	C	0.421966	1.004956	0.500063
C25	C	-0.074732	0.231722	-0.068173
C26	C	0.425268	0.731722	0.431827
C27	C	-0.075447	0.291121	-0.068175
C28	C	0.424553	0.791121	0.431825
O29	O	-0.075800	0.321854	-0.126209
O30	O	0.424200	0.821854	0.373791
N31	N	-0.075806	0.320819	0.000066
N32	N	0.424194	0.820819	0.500066
C33	C	-0.075444	0.291114	0.068312
C34	C	0.424556	0.791114	0.568312
O35	O	-0.075814	0.321828	0.126356
O36	O	0.424186	0.821828	0.626356
C37	C	-0.074725	0.231716	0.068313
C38	C	0.425275	0.731716	0.568313
C39	C	-0.074372	0.202021	0.000068
C40	C	0.425628	0.702021	0.500068
C41	C	-0.074379	0.202027	-0.136413
C42	C	0.425621	0.702027	0.363587
C43	C	-0.073665	0.142631	-0.136411
C44	C	0.426335	0.642631	0.363589
C45	C	-0.073305	0.112930	-0.068169
C46	C	0.426695	0.612930	0.431831
C47	C	-0.073658	0.142625	0.000070
C48	C	0.426342	0.642625	0.500070
C49	C	-0.074359	0.202013	0.136559
C50	C	0.425641	0.702013	0.636559
C51	C	-0.073640	0.142611	0.136555
C52	C	0.426360	0.642611	0.636555
C53	C	-0.073287	0.112916	0.068309
C54	C	0.426713	0.612916	0.568309
C55	C	-0.072584	0.053529	0.068314
C56	C	0.427416	0.553529	0.568314
N57	N	-0.072226	0.023832	0.000073
N58	N	0.427774	0.523832	0.500073
C59	C	-0.072586	0.053532	-0.068168
C60	C	0.427414	0.553532	0.431832
C61	C	-0.076953	0.415854	0.068305
C62	C	0.423047	0.915854	0.568305
C63	C	-0.077676	0.475250	0.068305
C64	C	0.422324	0.975250	0.568305
C65	C	-0.077678	0.475254	-0.068183
C66	C	0.422322	0.975254	0.431817
C67	C	-0.076959	0.415856	-0.068182
C68	C	0.423041	0.915856	0.431818
C69	C	-0.076594	0.386157	0.000065
C70	C	0.423406	0.886157	0.500065
C71	C	-0.071087	-0.071203	-0.068159
C72	C	0.428913	0.428797	0.431841
C73	C	-0.070376	-0.130604	-0.068151
C74	C	0.429624	0.369396	0.431849
C75	C	-0.070371	-0.130602	0.068337
C76	C	0.429629	0.369398	0.568337
C77	C	-0.071085	-0.071206	0.068329
C78	C	0.428915	0.428794	0.568329
C79	C	-0.071441	-0.041508	0.000075
C80	C	0.428559	0.458492	0.500075
O81	O	-0.072229	0.022758	0.126319
O82	O	0.427771	0.522758	0.626319
O83	O	-0.072208	0.022812	-0.126202
O84	O	0.427792	0.522812	0.373798
C85	C	-0.178176	0.667560	0.000093
C86	C	0.321824	1.167560	0.500093
C87	C	-0.241394	0.668314	0.000101
C88	C	0.258606	1.168314	0.500101
C89	C	-0.633410	0.673060	-0.068175
C90	C	-0.133410	1.173060	0.431825
C91	C	-0.692809	0.673777	-0.068179
C92	C	-0.192809	1.173777	0.431821
O93	O	-0.723529	0.674175	-0.126214
O94	O	-0.223529	1.174175	0.373786
N95	N	-0.722515	0.674125	0.000061
N96	N	-0.222515	1.174125	0.500061
C97	C	-0.692818	0.673760	0.068309
C98	C	-0.192818	1.173760	0.568309
O99	O	-0.723539	0.674122	0.126352
O100	O	-0.223539	1.174122	0.626352
C101	C	-0.633419	0.673047	0.068312
C102	C	-0.133419	1.173047	0.568312
C103	C	-0.603717	0.672694	0.000067
C104	C	-0.103717	1.172694	0.500067
C105	C	-0.603707	0.672708	-0.136414
C106	C	-0.103707	1.172708	0.363586
C107	C	-0.544312	0.671989	-0.136410
C108	C	-0.044312	1.171989	0.363590
C109	C	-0.514619	0.671623	-0.068167
C110	C	-0.014619	1.171623	0.431833
C111	C	-0.544322	0.671976	0.000071
C112	C	-0.044322	1.171976	0.500071
C113	C	-0.603722	0.672687	0.136559
C114	C	-0.103722	1.172687	0.636559
C115	C	-0.544320	0.671974	0.136555
C116	C	-0.044320	1.171974	0.636555
C117	C	-0.514617	0.671621	0.068311
C118	C	-0.014617	1.171621	0.568311
C119	C	-0.455234	0.670891	0.068318
C120	C	0.044766	1.170891	0.568318
N121	N	-0.425528	0.670544	0.000078
N122	N	0.074472	1.170544	0.500078
C123	C	-0.455221	0.670910	-0.068164
C124	C	0.044779	1.170910	0.431836
C125	C	-0.817559	0.675259	0.068298
C126	C	-0.317559	1.175259	0.568298
C127	C	-0.876957	0.675969	0.068296
C128	C	-0.376957	1.175969	0.568296
C129	C	-0.876944	0.675987	-0.068192
C130	C	-0.376944	1.175987	0.431808
C131	C	-0.817545	0.675273	-0.068189
C132	C	-0.317545	1.175273	0.431811
C133	C	-0.787853	0.674912	0.000058
C134	C	-0.287853	1.174912	0.500058
C135	C	-0.330487	0.669401	-0.068151
C136	C	0.169513	1.169401	0.431849
C137	C	-0.271087	0.668680	-0.068141
C138	C	0.228913	1.168680	0.431859
C139	C	-0.271105	0.668665	0.068346
C140	C	0.228895	1.168665	0.568346
C141	C	-0.330500	0.669383	0.068337
C142	C	0.169500	1.169383	0.568337
C143	C	-0.360189	0.669752	0.000082
C144	C	0.139811	1.169752	0.500082
O145	O	-0.424475	0.670496	0.126323
O146	O	0.075525	1.170496	0.626323
O147	O	-0.424491	0.670555	-0.126198
O148	O	0.075509	1.170555	0.373802
C149	C	0.030127	0.677092	0.000066
C150	C	0.530127	1.177092	0.500066
C151	C	0.093345	0.676338	0.000053
C152	C	0.593345	1.176338	0.500053
C153	C	-0.069260	0.776477	0.000089
C154	C	0.430740	1.276477	0.500089
C155	C	-0.070015	0.839695	0.000091
C156	C	0.429985	1.339695	0.500091
N157	N	-0.074018	0.672308	0.178236
N158	N	0.425982	1.172308	0.678236
N159	N	-0.074027	0.672348	-0.178075
N160	N	0.425973	1.172348	0.321925
C161	C	-0.035093	0.711265	0.217622
C162	C	0.464907	1.211265	0.717622
C163	C	-0.035090	0.711269	0.296423
C164	C	0.464910	1.211269	0.796423
C165	C	-0.074022	0.672320	0.335836
C166	C	0.425978	1.172320	0.835836
C167	C	-0.112951	0.633355	0.296441
C168	C	0.387049	1.133355	0.796441
C169	C	-0.112949	0.633349	0.217640
C170	C	0.387051	1.133349	0.717640
C171	C	-0.125936	0.664555	0.460680
C172	C	0.374064	1.164555	0.960680
C173	C	-0.125939	0.664565	0.539479
C174	C	0.374061	1.164565	1.039479
C175	C	-0.074029	0.672335	0.578882
C176	C	0.425971	1.172335	1.078882
C177	C	-0.022115	0.680108	0.539478
C178	C	0.477885	1.180108	1.039478
C179	C	-0.022112	0.680102	0.460677
C180	C	0.477888	1.180102	0.960677
C181	C	-0.074029	0.672322	0.421282
C182	C	0.425971	1.172322	0.921282
C183	C	-0.035098	0.711298	0.703714
C184	C	0.464902	1.211298	1.203714
C185	C	-0.035094	0.711298	0.782518
C186	C	0.464906	1.211298	1.282518
C187	C	-0.112960	0.633387	0.782533
C188	C	0.387040	1.133387	1.282533
C189	C	-0.112959	0.633385	0.703732
C190	C	0.387041	1.133385	1.203732
C191	C	-0.074028	0.672344	0.664327
C192	C	0.425972	1.172344	1.164327
H193	H	-0.076663	0.391675	0.123883
H194	H	0.423337	0.891675	0.623883
H195	H	-0.793388	0.674960	0.123876
H196	H	-0.293388	1.174960	0.623876
Br197	Br	0.048339	0.690661	0.592943
Br198	Br	0.548339	1.190661	1.092943
H199	H	-0.144649	0.601642	0.328534
H200	H	0.355351	1.101642	0.828534
H201	H	-0.144658	0.601672	0.814623
H202	H	0.355342	1.101672	1.314623
Br203	Br	0.017742	0.764167	0.835975
Br204	Br	0.517742	1.264167	1.335975
Br205	Br	-0.917262	0.676431	0.160916
Br206	Br	-0.417262	1.176431	0.660916
Br207	Br	-0.165779	0.580474	0.164183
Br208	Br	0.334221	1.080474	0.664183
Br209	Br	-0.644019	0.673157	0.229182
Br210	Br	-0.144019	1.173157	0.729182
Br211	Br	-0.069885	-0.170922	0.160946
Br212	Br	0.430115	0.329078	0.660946
Br213	Br	0.017738	0.764168	0.650234
Br214	Br	0.517738	1.264168	1.150234
H215	H	-0.073347	0.118432	0.192130
H216	H	0.426653	0.618432	0.692130
H217	H	-0.246919	0.668365	0.123907
H218	H	0.253081	1.168365	0.623907
Br219	Br	0.017742	0.764134	0.164143
Br220	Br	0.517742	1.264134	0.664143
H221	H	-0.144658	0.601664	0.671661
H222	H	0.355342	1.101664	1.171661
H223	H	-0.070090	-0.154779	-0.123726
H224	H	0.429910	0.345221	0.376274
Br225	Br	-0.196393	0.654023	0.592949
Br226	Br	0.303607	1.154023	1.092949
H227	H	-0.354688	0.669648	0.123906
H228	H	0.145312	1.169648	0.623906
H229	H	-0.168209	0.658217	0.428604
H230	H	0.331791	1.158217	0.928604
Br231	Br	0.017743	0.764143	0.349885
Br232	Br	0.517743	1.264143	0.849885
Br233	Br	-0.074866	0.242324	-0.229039
Br234	Br	0.425134	0.742324	0.270961
H235	H	0.020158	0.686429	0.428597
H236	H	0.520158	1.186429	0.928597
Br237	Br	-0.504026	0.671488	0.229182
Br238	Br	-0.004026	1.171488	0.729182
H239	H	-0.074645	0.226181	0.192132
H240	H	0.425355	0.726181	0.692132
Br241	Br	-0.071573	-0.030906	0.160948
Br242	Br	0.428427	0.469094	0.660948
H243	H	-0.071378	-0.047030	-0.123737
H244	H	0.428622	0.452970	0.376263
H245	H	-0.073375	0.118459	-0.191983
H246	H	0.426625	0.618459	0.308017
H247	H	-0.076672	0.391682	-0.123753
H248	H	0.423328	0.891682	0.376247
H249	H	-0.077971	0.499447	-0.123749
H250	H	0.422029	0.999447	0.376251
H251	H	-0.901131	0.676283	-0.123759
H252	H	-0.401131	1.176283	0.376241
H253	H	-0.077973	0.499421	0.123877
H254	H	0.422027	0.999421	0.623877
H255	H	-0.246906	0.668390	-0.123716
H256	H	0.253094	1.168390	0.376284
H257	H	-0.354653	0.669702	-0.123731
H258	H	0.145347	1.169702	0.376269
H259	H	-0.520133	0.671706	-0.191981
H260	H	-0.020133	1.171706	0.308019
H261	H	-0.627876	0.673007	-0.191988
H262	H	-0.127876	1.173007	0.308012
H263	H	-0.793366	0.674985	-0.123760
H264	H	-0.293366	1.174985	0.376240
