data_functionalizedCrystal
_audit_creation_method	'MofGen! by Chris Wilmer'
_symmetry_space_group_name_H-M	'P1'
_symmetry_Int_Tables_number	1
_symmetry_cell_setting	triclinic
loop_
_symmetry_equiv_pos_as_xyz
  x,y,z
_cell_length_a	16.109302
_cell_length_b	13.330367
_cell_length_c	16.109301
_cell_angle_alpha	90.006067
_cell_angle_beta	83.461631
_cell_angle_gamma	90.009495
loop_
_atom_site_label
_atom_site_type_symbol
_atom_site_fract_x
_atom_site_fract_y
_atom_site_fract_z
O1	O	1.103135	0.083472	0.106869
O2	O	1.603135	0.583472	0.606869
O3	O	0.861073	0.083464	0.120168
O4	O	1.361073	0.583464	0.620168
O5	O	0.988754	0.083458	-0.007512
O6	O	1.488754	0.583458	0.492488
O7	O	0.975455	0.083478	0.234550
O8	O	1.475455	0.583478	0.734550
O9	O	0.988735	-0.083389	-0.007515
O10	O	1.488735	0.416611	0.492485
O11	O	0.861055	-0.083383	0.120165
O12	O	1.361055	0.416617	0.620165
O13	O	1.103117	-0.083375	0.106867
O14	O	1.603117	0.416625	0.606867
Cu15	Cu	0.982084	-0.098614	0.113516
Cu16	Cu	1.482084	0.401386	0.613516
Cu17	Cu	0.982106	0.098702	0.113519
Cu18	Cu	1.482106	0.598702	0.613519
O19	O	0.975436	-0.083369	0.234547
O20	O	1.475436	0.416631	0.734547
C21	C	0.830089	0.000040	0.119628
C22	C	1.330089	0.500040	0.619628
C23	C	0.737794	0.000036	0.118013
C24	C	1.237794	0.500036	0.618013
C25	C	0.525443	-0.090902	0.114276
C26	C	1.025443	0.409098	0.614276
C27	C	0.438723	-0.090899	0.112749
C28	C	0.938723	0.409101	0.612749
C29	C	0.438754	0.091007	0.112757
C30	C	0.938754	0.591007	0.612757
C31	C	0.525473	0.091003	0.114277
C32	C	1.025473	0.591003	0.614277
C33	C	0.568815	0.000045	0.115041
C34	C	1.068815	0.500045	0.615041
C35	C	0.395375	0.000053	0.111994
C36	C	0.895375	0.500053	0.611994
C37	C	0.301350	0.000057	0.110338
C38	C	0.801350	0.500057	0.610338
C39	C	0.662847	0.000040	0.116695
C40	C	1.162847	0.500040	0.616695
N41	N	0.982075	-0.237395	0.113513
N42	N	1.482075	0.262605	0.613513
C43	C	0.925567	-0.710015	0.170034
C44	C	1.425567	-0.210015	0.670034
C45	C	1.038668	-0.709989	0.056998
C46	C	1.538668	-0.209989	0.556998
C47	C	1.038658	-0.604970	0.056995
C48	C	1.538658	-0.104970	0.556995
C49	C	0.982103	-0.552470	0.113514
C50	C	1.482103	-0.052470	0.613514
C51	C	0.925557	-0.604987	0.170035
C52	C	1.425557	-0.104987	0.670035
C53	C	1.095209	-0.552445	0.000481
C54	C	1.595209	-0.052445	0.500481
C55	C	1.095202	-0.447420	0.000477
C56	C	1.595202	0.052580	0.500477
C57	C	1.038642	-0.394918	0.056992
C58	C	1.538642	0.105082	0.556992
C59	C	0.982094	-0.447442	0.113515
C60	C	1.482094	0.052558	0.613515
C61	C	0.925538	-0.394941	0.170033
C62	C	1.425538	0.105059	0.670033
C63	C	0.868985	-0.447463	0.226552
C64	C	1.368985	0.052537	0.726552
C65	C	0.868997	-0.552484	0.226550
C66	C	1.368997	-0.052484	0.726550
C67	C	1.038630	-0.289896	0.056995
C68	C	1.538630	0.210104	0.556995
C69	C	0.925529	-0.289913	0.170034
C70	C	1.425529	0.210087	0.670034
C71	C	1.134101	0.000051	0.107407
C72	C	1.634101	0.500051	0.607407
C73	C	1.226396	0.000061	0.109022
C74	C	1.726396	0.500061	0.609022
C75	C	0.988206	0.000034	-0.038488
C76	C	1.488206	0.500034	0.461512
C77	C	0.986591	0.000032	-0.130784
C78	C	1.486591	0.500032	0.369216
N79	N	0.982122	0.237484	0.113515
N80	N	1.482122	0.737484	0.613515
C81	C	1.058599	0.000051	-0.353056
C82	C	1.558599	0.500051	0.146944
C83	C	1.057074	0.000059	-0.439776
C84	C	1.557074	0.500059	0.060224
C85	C	0.905586	0.000050	-0.419902
C86	C	1.405586	0.500050	0.080098
C87	C	0.907111	0.000049	-0.333184
C88	C	1.407111	0.500049	0.166816
C89	C	0.983620	0.000044	-0.299763
C90	C	1.483620	0.500044	0.200237
C91	C	0.980571	0.000053	-0.473202
C92	C	1.480571	0.500053	0.026798
C93	C	0.978918	0.000062	-0.567228
C94	C	1.478918	0.500062	-0.067228
C95	C	0.985273	0.000037	-0.205731
C96	C	1.485273	0.500037	0.294269
C97	C	0.975984	0.000057	0.265523
C98	C	1.475984	0.500057	0.765523
C99	C	0.977599	0.000065	0.357819
C100	C	1.477599	0.500065	0.857819
H101	H	0.560787	0.165067	0.114898
H102	H	1.060787	0.665067	0.614898
H103	H	0.879471	-0.247173	0.216055
H104	H	1.379471	0.252827	0.716055
H105	H	0.822954	-0.595254	0.272566
H106	H	1.322954	-0.095254	0.772566
O107	O	0.864578	-0.766651	0.231001
O108	O	1.364578	-0.266651	0.731001
H109	H	0.824185	-0.814523	0.195997
H110	H	1.324185	-0.314523	0.695997
O111	O	0.807972	-0.390835	0.287498
O112	O	1.307972	0.109165	0.787498
H113	H	0.817465	-0.308985	0.277993
H114	H	1.317465	0.191015	0.777993
H115	H	1.141250	-0.404663	-0.045544
H116	H	1.641250	0.095337	0.454456
O117	O	1.099666	-0.766607	-0.003959
O118	O	1.599666	-0.266607	0.496041
H119	H	1.090171	-0.848459	0.005534
H120	H	1.590171	-0.348459	0.505534
O121	O	1.156207	-0.609065	-0.060474
O122	O	1.656207	-0.109065	0.439526
H123	H	1.146705	-0.690917	-0.050985
H124	H	1.646705	-0.190917	0.449015
H125	H	1.084679	-0.247137	0.010981
H126	H	1.584679	0.252863	0.510981
H127	H	1.120897	0.000049	-0.325848
H128	H	1.620897	0.500049	0.174152
H129	H	0.560729	-0.164966	0.114898
H130	H	1.060729	0.335034	0.614898
O131	O	1.137944	0.000053	-0.497260
O132	O	1.637944	0.500053	0.002740
H133	H	1.191397	0.000039	-0.459448
H134	H	1.691397	0.500039	0.040552
H135	H	0.843295	0.000052	-0.447124
H136	H	1.343295	0.500052	0.052876
O137	O	0.826234	0.000030	-0.275698
O138	O	1.326234	0.500030	0.224302
H139	H	0.789620	0.068025	-0.287574
H140	H	1.289620	0.568025	0.212426
O141	O	0.391939	-0.188991	0.111932
O142	O	0.891939	0.311009	0.611932
H143	H	0.436648	-0.252235	0.112725
H144	H	0.936648	0.247765	0.612725
H145	H	0.403454	0.165061	0.112135
H146	H	0.903454	0.665061	0.612135
