data_functionalizedCrystal
_audit_creation_method	'MofGen! by Chris Wilmer'
_symmetry_space_group_name_H-M	'P1'
_symmetry_Int_Tables_number	1
_symmetry_cell_setting	triclinic
loop_
_symmetry_equiv_pos_as_xyz
  x,y,z
_cell_length_a	18.050589
_cell_length_b	13.897449
_cell_length_c	13.897441
_cell_angle_alpha	90.018596
_cell_angle_beta	89.973098
_cell_angle_gamma	89.970500
loop_
_atom_site_label
_atom_site_type_symbol
_atom_site_fract_x
_atom_site_fract_y
_atom_site_fract_z
Zn1	Zn	-0.295618	-1.474612	-0.545399
Zn2	Zn	0.037716	-1.141278	-0.212066
Zn3	Zn	0.371049	-0.807945	0.121267
Zn4	Zn	-0.419820	-1.474482	-0.384108
Zn5	Zn	-0.086486	-1.141149	-0.050775
Zn6	Zn	0.246847	-0.807815	0.282558
Zn7	Zn	-0.295651	-1.313307	-0.384118
Zn8	Zn	0.037683	-0.979974	-0.050784
Zn9	Zn	0.371016	-0.646640	0.282549
Zn10	Zn	-0.419773	-1.313253	-0.545361
Zn11	Zn	-0.086440	-0.979920	-0.212028
Zn12	Zn	0.246894	-0.646586	0.121306
O13	O	-0.357715	-1.393913	-0.464747
O14	O	-0.024382	-1.060580	-0.131413
O15	O	0.308951	-0.727247	0.201920
O16	O	-0.312099	-1.609576	-0.524016
O17	O	0.021234	-1.276243	-0.190683
O18	O	0.354568	-0.942909	0.142651
O19	O	-0.403382	-1.453070	-0.249128
O20	O	-0.070049	-1.119737	0.084205
O21	O	0.263285	-0.786403	0.417539
O22	O	-0.191722	-1.334781	-0.405532
O23	O	0.141612	-1.001448	-0.072199
O24	O	0.474945	-0.668114	0.261135
O25	O	-0.403350	-1.609481	-0.405516
O26	O	-0.070016	-1.276148	-0.072183
O27	O	0.263317	-0.942814	0.261150
O28	O	-0.191697	-1.453291	-0.524025
O29	O	0.141636	-1.119958	-0.190692
O30	O	0.474969	-0.786624	0.142642
O31	O	-0.312156	-1.334655	-0.249135
O32	O	0.021178	-1.001322	0.084198
O33	O	0.354511	-0.667989	0.417532
O34	O	-0.312110	-1.178318	-0.405495
O35	O	0.021223	-0.844985	-0.072162
O36	O	0.354556	-0.511651	0.261172
O37	O	-0.403270	-1.334689	-0.680348
O38	O	-0.069937	-1.001356	-0.347015
O39	O	0.263397	-0.668023	-0.013681
O40	O	-0.403302	-1.178278	-0.523960
O41	O	-0.069969	-0.844945	-0.190626
O42	O	0.263364	-0.511612	0.142707
O43	O	-0.312054	-1.453239	-0.680376
O44	O	0.021280	-1.119905	-0.347043
O45	O	0.354613	-0.786572	-0.013709
O46	O	-0.523738	-1.453018	-0.405479
O47	O	-0.190405	-1.119685	-0.072146
O48	O	0.142929	-0.786351	0.261188
O49	O	-0.523704	-1.334564	-0.523951
O50	O	-0.190370	-1.001230	-0.190617
O51	O	0.142963	-0.667897	0.142716
C52	C	-0.357705	-1.143299	-0.464725
C53	C	-0.024372	-0.809966	-0.131391
C54	C	0.308961	-0.476632	0.201942
C55	C	-0.357719	-1.036085	-0.464738
C56	C	-0.024386	-0.702752	-0.131405
C57	C	0.308948	-0.369418	0.201928
C58	C	-0.550667	-1.393797	-0.464731
C59	C	-0.217334	-1.060464	-0.131397
C60	C	0.115999	-0.727130	0.201936
C61	C	-0.633213	-1.393835	-0.464756
C62	C	-0.299880	-1.060502	-0.131423
C63	C	0.033453	-0.727169	0.201911
C64	C	-0.357653	-1.393972	-0.716340
C65	C	-0.024320	-1.060639	-0.383006
C66	C	0.309014	-0.727306	-0.049673
C67	C	-0.357626	-1.393998	-0.823554
C68	C	-0.024293	-1.060664	-0.490220
C69	C	0.309040	-0.727331	-0.156887
C70	C	-0.832672	-1.329483	-0.529158
C71	C	-0.499339	-0.996150	-0.195825
C72	C	-0.166005	-0.662817	0.137508
C73	C	-0.882117	-1.305969	-0.441140
C74	C	-0.548783	-0.972636	-0.107807
C75	C	-0.215450	-0.639303	0.225527
C76	C	-0.784344	-1.393930	-0.464769
C77	C	-0.451010	-1.060597	-0.131435
C78	C	-0.117677	-0.727263	0.201898
C79	C	-0.881981	-1.417491	-0.552797
C80	C	-0.548647	-1.084158	-0.219464
C81	C	-0.215314	-0.750825	0.113869
C82	C	-0.930329	-1.394020	-0.464789
C83	C	-0.596995	-1.060687	-0.131455
C84	C	-0.263662	-0.727353	0.201878
C85	C	-0.832701	-1.370370	-0.376703
C86	C	-0.499368	-1.037037	-0.043370
C87	C	-0.166034	-0.703704	0.289963
C88	C	-0.832560	-1.481933	-0.488420
C89	C	-0.499227	-1.148599	-0.155087
C90	C	-0.165894	-0.815266	0.178246
C91	C	-0.881983	-1.458453	-0.400341
C92	C	-0.548649	-1.125119	-0.067008
C93	C	-0.215316	-0.791786	0.266326
C94	C	-0.700245	-1.393876	-0.464758
C95	C	-0.366912	-1.060543	-0.131425
C96	C	-0.033579	-0.727209	0.201908
C97	C	-1.014425	-1.394074	-0.464789
C98	C	-0.681092	-1.060741	-0.131455
C99	C	-0.347758	-0.727407	0.201878
C100	C	-0.164010	-1.394057	-0.464784
C101	C	0.169324	-1.060723	-0.131451
C102	C	0.502657	-0.727390	0.201883
C103	C	-0.081464	-1.394118	-0.464800
C104	C	0.251870	-1.060784	-0.131466
C105	C	0.585203	-0.727451	0.201867
C106	C	-0.357726	-1.645506	-0.464769
C107	C	-0.024392	-1.312173	-0.131436
C108	C	0.308941	-0.978840	0.201897
C109	C	-0.357730	-1.752720	-0.464779
C110	C	-0.024397	-1.419387	-0.131446
C111	C	0.308936	-1.086054	0.201888
C112	C	-0.357722	-0.839790	-0.464763
C113	C	-0.024388	-0.506457	-0.131430
C114	C	0.308945	-0.173123	0.201903
C115	C	-0.357718	-0.949023	-0.464747
C116	C	-0.024385	-0.615689	-0.131413
C117	C	0.308949	-0.282356	0.201920
C118	C	-0.357605	-1.394017	-0.910624
C119	C	-0.024272	-1.060684	-0.577290
C120	C	0.309061	-0.727351	-0.243957
C121	C	-0.357572	-1.394045	-1.019856
C122	C	-0.024239	-1.060712	-0.686523
C123	C	0.309095	-0.727378	-0.353190
C124	C	-0.357724	-1.393910	-0.214132
C125	C	-0.024390	-1.060577	0.119201
C126	C	0.308943	-0.727243	0.452534
C127	C	-0.357541	-1.394072	-0.106919
C128	C	-0.024208	-1.060739	0.226414
C129	C	0.309126	-0.727405	0.559748
H130	H	-0.811020	-1.274902	-0.583534
H131	H	-0.477686	-0.941569	-0.250200
H132	H	-0.144353	-0.608236	0.083133
Br133	Br	-0.918394	-1.181994	-0.407796
Br134	Br	-0.585061	-0.848660	-0.074463
Br135	Br	-0.251727	-0.515327	0.258871
Br136	Br	-0.796777	-1.337076	-0.252600
Br137	Br	-0.463443	-1.003743	0.080734
Br138	Br	-0.130110	-0.670409	0.414067
H139	H	-0.810779	-1.556295	-0.508449
H140	H	-0.477445	-1.222962	-0.175116
H141	H	-0.144112	-0.889628	0.158218
H142	H	-0.903627	-1.437384	-0.627234
H143	H	-0.570294	-1.104050	-0.293901
H144	H	-0.236961	-0.770717	0.039432
H145	H	-0.903498	-1.512992	-0.345834
H146	H	-0.570164	-1.179658	-0.012501
H147	H	-0.236831	-0.846325	0.320832
