data_functionalizedCrystal
_audit_creation_method	'MofGen! by Chris Wilmer'
_symmetry_space_group_name_H-M	'P1'
_symmetry_Int_Tables_number	1
_symmetry_cell_setting	triclinic
loop_
_symmetry_equiv_pos_as_xyz
  x,y,z
_cell_length_a	17.699083
_cell_length_b	14.853559
_cell_length_c	16.176319
_cell_angle_alpha	89.995393
_cell_angle_beta	89.998611
_cell_angle_gamma	83.457234
loop_
_atom_site_label
_atom_site_type_symbol
_atom_site_fract_x
_atom_site_fract_y
_atom_site_fract_z
O1	O	1.004372	0.114009	-0.068627
O2	O	1.504372	0.614009	0.431373
O3	O	0.784031	0.128842	-0.068653
O4	O	1.284031	0.628842	0.431347
O5	O	0.900091	-0.009827	-0.068638
O6	O	1.400091	0.490173	0.431362
O7	O	0.888313	0.252677	-0.068641
O8	O	1.388313	0.752677	0.431359
O9	O	0.900075	-0.009836	0.068855
O10	O	1.400075	0.490164	0.568855
O11	O	0.784015	0.128833	0.068840
O12	O	1.284015	0.628833	0.568840
O13	O	1.004356	0.114000	0.068867
O14	O	1.504356	0.614000	0.568867
Cu15	Cu	0.894184	0.121416	0.081407
Cu16	Cu	1.394184	0.621416	0.581407
Cu17	Cu	0.894203	0.121426	-0.081194
Cu18	Cu	1.394203	0.621426	0.418806
O19	O	0.888297	0.252668	0.068852
O20	O	1.388297	0.752668	0.568852
C21	C	0.755825	0.128306	0.000090
C22	C	1.255825	0.628306	0.500090
C23	C	0.671803	0.126711	0.000080
C24	C	1.171803	0.626711	0.500080
C25	C	0.623391	0.208107	0.000079
C26	C	1.123391	0.708107	0.500079
C27	C	0.544444	0.206603	0.000090
C28	C	1.044444	0.706603	0.500090
C29	C	0.513910	0.123703	0.000095
C30	C	1.013910	0.623703	0.500095
C31	C	0.562328	0.042301	0.000098
C32	C	1.062328	0.542301	0.500098
C33	C	0.641274	0.043806	0.000094
C34	C	1.141274	0.543806	0.500094
C35	C	0.243949	0.036232	0.000119
C36	C	0.743949	0.536232	0.500119
C37	C	0.164998	0.034734	0.000121
C38	C	0.664998	0.534734	0.500121
C39	C	0.147120	0.199029	0.000115
C40	C	0.647120	0.699029	0.500115
C41	C	0.226065	0.200534	0.000110
C42	C	0.726065	0.700534	0.500110
C43	C	0.274476	0.119133	0.000118
C44	C	0.774476	0.619133	0.500118
C45	C	0.360080	0.120764	0.000108
C46	C	0.860080	0.620764	0.500108
C47	C	0.428308	0.122071	0.000099
C48	C	0.928308	0.622071	0.500099
C49	C	0.899550	-0.043418	0.000107
C50	C	1.399550	0.456582	0.500107
C51	C	0.897954	-0.143496	0.000102
C52	C	1.397954	0.356504	0.500102
C53	C	0.891193	-0.566642	-0.074847
C54	C	1.391193	-0.066642	0.425153
C55	C	0.891176	-0.566646	0.075054
C56	C	1.391176	-0.066646	0.575054
C57	C	0.892681	-0.472618	0.075055
C58	C	1.392681	0.027382	0.575055
C59	C	0.893442	-0.425598	0.000104
C60	C	1.393442	0.074402	0.500104
C61	C	0.892697	-0.472605	-0.074848
C62	C	1.392697	0.027395	0.425152
C63	C	0.893419	-0.425603	0.150005
C64	C	1.393419	0.074397	0.650005
C65	C	0.894924	-0.331569	0.150009
C66	C	1.394924	0.168431	0.650009
C67	C	0.895690	-0.284548	0.075057
C68	C	1.395690	0.215452	0.575057
C69	C	0.894945	-0.331561	0.000102
C70	C	1.394945	0.168439	0.500102
C71	C	0.895706	-0.284540	-0.074849
C72	C	1.395706	0.215460	0.425151
C73	C	0.894967	-0.331553	-0.149804
C74	C	1.394967	0.168447	0.350196
C75	C	0.893463	-0.425583	-0.149800
C76	C	1.393463	0.074417	0.350200
C77	C	0.897194	-0.190517	0.075053
C78	C	1.397194	0.309483	0.575053
C79	C	0.897209	-0.190503	-0.074850
C80	C	1.397209	0.309497	0.425150
C81	C	1.032562	0.114536	0.000122
C82	C	1.532562	0.614536	0.500122
C83	C	1.116584	0.116130	0.000126
C84	C	1.616584	0.616130	0.500126
C85	C	0.888837	0.286260	0.000105
C86	C	1.388837	0.786260	0.500105
C87	C	0.890433	0.386338	0.000104
C88	C	1.390433	0.886338	0.500104
N89	N	0.894176	0.121408	0.195773
N90	N	1.394176	0.621408	0.695773
N91	N	0.894217	0.121427	-0.195559
N92	N	1.394217	0.621427	0.304441
C93	C	0.945583	0.060030	0.239043
C94	C	1.445583	0.560030	0.739043
C95	C	0.945587	0.060029	0.325591
C96	C	1.445587	0.560029	0.825591
C97	C	0.894187	0.121411	0.368865
C98	C	1.394187	0.621411	0.868865
C99	C	0.842775	0.182791	0.325588
C100	C	1.342775	0.682791	0.825588
C101	C	0.842768	0.182787	0.239043
C102	C	1.342768	0.682787	0.739043
C103	C	0.842801	0.182808	0.674617
C104	C	1.342801	0.682808	1.174617
C105	C	0.842813	0.182809	0.761168
C106	C	1.342813	0.682809	1.261168
C107	C	0.945619	0.060050	0.761164
C108	C	1.445619	0.560050	1.261164
C109	C	0.945613	0.060046	0.674619
C110	C	1.445613	0.560046	1.174619
C111	C	0.894198	0.121423	0.631350
C112	C	1.394198	0.621423	1.131350
C113	C	0.894194	0.121422	0.537505
C114	C	1.394194	0.621422	1.037505
C115	C	0.894195	0.121417	0.462708
C116	C	1.394195	0.621417	0.962708
H117	H	0.250921	0.268039	0.000102
H118	H	0.750921	0.768039	0.500102
C119	C	1.002170	-0.007474	0.808768
C120	C	1.502170	0.492526	1.308768
N121	N	1.044764	-0.058331	0.844622
N122	N	1.544764	0.441669	1.344622
H123	H	0.537461	-0.025197	0.000115
H124	H	1.037461	0.474803	0.500115
H125	H	0.890552	-0.604935	0.136075
H126	H	1.390552	-0.104935	0.636075
H127	H	0.890595	-0.604924	-0.135874
H128	H	1.390595	-0.104924	0.364126
C129	C	0.898006	-0.138808	0.157499
C130	C	1.398006	0.361192	0.657499
N131	N	0.898621	-0.099862	0.219602
N132	N	1.398621	0.400138	0.719602
C133	C	0.892570	-0.477329	0.232445
C134	C	1.392570	0.022671	0.732445
N135	N	0.891928	-0.516293	0.294542
N136	N	1.391928	-0.016293	0.794542
H137	H	0.897832	-0.152227	-0.135885
H138	H	1.397832	0.347773	0.364115
C139	C	0.786262	0.250331	0.808769
C140	C	1.286262	0.750331	1.308769
N141	N	0.743669	0.301185	0.844622
N142	N	1.243669	0.801185	1.344622
C143	C	0.895742	-0.279865	0.232461
C144	C	1.395742	0.220135	0.732461
N145	N	0.896361	-0.240921	0.294565
N146	N	1.396361	0.259079	0.794565
H147	H	0.800939	0.232784	0.639394
H148	H	1.300939	0.732784	1.139394
H149	H	0.107693	0.265310	0.000113
H150	H	0.607693	0.765310	0.500113
C151	C	0.297192	-0.053312	0.000122
C152	C	0.797192	0.446688	0.500122
N153	N	0.337297	-0.120761	0.000123
N154	N	0.837297	0.379239	0.500123
H155	H	0.987441	0.010050	0.203815
H156	H	1.487441	0.510050	0.703815
C157	C	0.786228	0.250303	0.373194
C158	C	1.286228	0.750303	0.873194
N159	N	0.743635	0.301154	0.409049
N160	N	1.243635	0.801154	0.909049
C161	C	1.002120	-0.007512	0.373184
C162	C	1.502120	0.492488	0.873184
N163	N	1.044696	-0.058396	0.409032
N164	N	1.544696	0.441604	0.909032
C165	C	0.131413	-0.056467	0.000137
C166	C	0.631413	0.443533	0.500137
N167	N	0.106117	-0.125155	0.000151
N168	N	0.606117	0.374845	0.500151
C169	C	0.892642	-0.477302	-0.232244
C170	C	1.392642	0.022698	0.267756
N171	N	0.892020	-0.516260	-0.294340
N172	N	1.392020	-0.016260	0.205660
H173	H	0.680691	-0.022475	0.000094
H174	H	1.180691	0.477525	0.500094
C175	C	0.786223	0.250314	0.191446
C176	C	1.286223	0.750314	0.691446
N177	N	0.743632	0.301178	0.155596
N178	N	1.243632	0.801178	0.655596
H179	H	0.987469	0.010067	0.639387
H180	H	1.487469	0.510067	1.139387
C181	C	0.895805	-0.279818	-0.232248
C182	C	1.395805	0.220182	0.267752
N183	N	0.896439	-0.240848	-0.294342
N184	N	1.396439	0.259152	0.205658
H185	H	0.648245	0.275613	0.000074
H186	H	1.148245	0.775613	0.500074
H187	H	0.505030	0.272883	0.000088
H188	H	1.005030	0.772883	0.500088
