data_functionalizedCrystal
_audit_creation_method	'MofGen! by Chris Wilmer'
_symmetry_space_group_name_H-M	'P1'
_symmetry_Int_Tables_number	1
_symmetry_cell_setting	triclinic
loop_
_symmetry_equiv_pos_as_xyz
  x,y,z
_cell_length_a	18.215405
_cell_length_b	18.215407
_cell_length_c	18.215399
_cell_angle_alpha	89.982223
_cell_angle_beta	90.030551
_cell_angle_gamma	89.979495
loop_
_atom_site_label
_atom_site_type_symbol
_atom_site_fract_x
_atom_site_fract_y
_atom_site_fract_z
Zn1	Zn	-0.293078	-1.125072	0.416062
Zn2	Zn	0.040255	-0.791739	0.749395
Zn3	Zn	0.373589	-0.458405	1.082729
Zn4	Zn	-0.416149	-1.124980	0.292990
Zn5	Zn	-0.082816	-0.791647	0.626324
Zn6	Zn	0.250518	-0.458314	0.959657
Zn7	Zn	-0.293092	-1.002004	0.293014
Zn8	Zn	0.040242	-0.668671	0.626347
Zn9	Zn	0.373575	-0.335338	0.959681
Zn10	Zn	-0.416098	-1.001970	0.416020
Zn11	Zn	-0.082764	-0.668637	0.749353
Zn12	Zn	0.250569	-0.335304	1.082686
O13	O	-0.354604	-1.063507	0.354521
O14	O	-0.021271	-0.730173	0.687855
O15	O	0.312063	-0.396840	1.021188
O16	O	-0.309419	-1.228044	0.399744
O17	O	0.023914	-0.894711	0.733078
O18	O	0.357247	-0.561377	1.066411
O19	O	-0.399852	-1.108643	0.190009
O20	O	-0.066519	-0.775310	0.523342
O21	O	0.266814	-0.441977	0.856676
O22	O	-0.190105	-1.018382	0.309364
O23	O	0.143228	-0.685049	0.642698
O24	O	0.476561	-0.351716	0.976031
O25	O	-0.399839	-1.227977	0.309324
O26	O	-0.066506	-0.894643	0.642657
O27	O	0.266827	-0.561310	0.975991
O28	O	-0.190095	-1.108799	0.399767
O29	O	0.143238	-0.775466	0.733101
O30	O	0.476571	-0.442133	1.066434
O31	O	-0.309443	-1.018293	0.190026
O32	O	0.023891	-0.684960	0.523360
O33	O	0.357224	-0.351627	0.856693
O34	O	-0.309393	-0.899016	0.309323
O35	O	0.023940	-0.565682	0.642656
O36	O	0.357274	-0.232349	0.975990
O37	O	-0.399752	-1.018324	0.519010
O38	O	-0.066418	-0.684991	0.852343
O39	O	0.266915	-0.351657	1.185676
O40	O	-0.399765	-0.898991	0.399695
O41	O	-0.066432	-0.565657	0.733028
O42	O	0.266902	-0.232324	1.066361
O43	O	-0.309369	-1.108766	0.519041
O44	O	0.023964	-0.775433	0.852374
O45	O	0.357297	-0.442100	1.185707
O46	O	-0.519127	-1.108610	0.309283
O47	O	-0.185793	-0.775277	0.642616
O48	O	0.147540	-0.441943	0.975949
O49	O	-0.519089	-1.018235	0.399672
O50	O	-0.185756	-0.684902	0.733005
O51	O	0.147578	-0.351569	1.066338
C52	C	-0.354575	-0.872300	0.354507
C53	C	-0.021242	-0.538967	0.687841
C54	C	0.312091	-0.205634	1.021174
C55	C	-0.354581	-0.790502	0.354519
C56	C	-0.021247	-0.457168	0.687852
C57	C	0.312086	-0.123835	1.021185
C58	C	-0.307590	-0.602342	0.401673
C59	C	0.025743	-0.269008	0.735007
C60	C	0.359077	0.064325	1.068340
C61	C	-0.307594	-0.525483	0.401675
C62	C	0.025739	-0.192150	0.735009
C63	C	0.359073	0.141184	1.068342
C64	C	-0.401607	-0.525424	0.307375
C65	C	-0.068274	-0.192090	0.640709
C66	C	0.265060	0.141243	0.974042
C67	C	-0.401599	-0.602281	0.307370
C68	C	-0.068265	-0.268948	0.640704
C69	C	0.265068	0.064386	0.974037
C70	C	-0.354591	-0.640738	0.354523
C71	C	-0.021258	-0.307405	0.687857
C72	C	0.312075	0.025929	1.021190
C73	C	-0.354603	-0.487022	0.354530
C74	C	-0.021270	-0.153689	0.687864
C75	C	0.312063	0.179645	1.021197
C76	C	-0.354608	-0.403688	0.354532
C77	C	-0.021275	-0.070355	0.687866
C78	C	0.312059	0.262978	1.021199
C79	C	-0.354586	-0.724077	0.354521
C80	C	-0.021252	-0.390744	0.687854
C81	C	0.312081	-0.057410	1.021188
C82	C	-0.545810	-1.063429	0.354486
C83	C	-0.212477	-0.730096	0.687819
C84	C	0.120856	-0.396762	1.021153
C85	C	-0.627609	-1.063463	0.354496
C86	C	-0.294276	-0.730130	0.687829
C87	C	0.039057	-0.396796	1.021162
C88	C	-0.815798	-1.110632	0.307517
C89	C	-0.482465	-0.777298	0.640850
C90	C	-0.149132	-0.443965	0.974183
C91	C	-0.892657	-1.110665	0.307534
C92	C	-0.559324	-0.777331	0.640868
C93	C	-0.225990	-0.443998	0.974201
C94	C	-0.892658	-1.016476	0.401579
C95	C	-0.559324	-0.683143	0.734913
C96	C	-0.225991	-0.349809	1.068246
C97	C	-0.815800	-1.016447	0.401565
C98	C	-0.482467	-0.683114	0.734898
C99	C	-0.149134	-0.349781	1.068231
C100	C	-0.777373	-1.063524	0.354529
C101	C	-0.444039	-0.730191	0.687862
C102	C	-0.110706	-0.396857	1.021196
C103	C	-0.931089	-1.063586	0.354562
C104	C	-0.597755	-0.730252	0.687895
C105	C	-0.264422	-0.396919	1.021228
C106	C	-1.014422	-1.063621	0.354581
C107	C	-0.681089	-0.730288	0.687915
C108	C	-0.347756	-0.396954	1.021248
C109	C	-0.694034	-1.063490	0.354510
C110	C	-0.360700	-0.730157	0.687844
C111	C	-0.027367	-0.396823	1.021177
C112	C	-0.162651	-1.063605	0.354573
C113	C	0.170682	-0.730271	0.687906
C114	C	0.504016	-0.396938	1.021240
C115	C	-0.080852	-1.063647	0.354595
C116	C	0.252481	-0.730313	0.687928
C117	C	0.585814	-0.396980	1.021262
C118	C	-0.354553	-1.063552	0.546474
C119	C	-0.021220	-0.730218	0.879808
C120	C	0.312113	-0.396885	1.213141
C121	C	-0.354532	-1.063571	0.628273
C122	C	-0.021198	-0.730237	0.961607
C123	C	0.312135	-0.396904	1.294940
C124	C	-0.354625	-0.255460	0.354534
C125	C	-0.021292	0.077874	0.687868
C126	C	0.312041	0.411207	1.021201
C127	C	-0.354614	-0.337259	0.354535
C128	C	-0.021281	-0.003925	0.687869
C129	C	0.312053	0.329408	1.021202
C130	C	-0.354602	-1.063504	0.163315
C131	C	-0.021268	-0.730171	0.496649
C132	C	0.312065	-0.396838	0.829982
C133	C	-0.354416	-1.063628	0.081517
C134	C	-0.021082	-0.730295	0.414850
C135	C	0.312251	-0.396961	0.748183
C136	C	-0.307426	-1.110681	0.816485
C137	C	0.025908	-0.777348	1.149818
C138	C	0.359241	-0.444014	1.483152
C139	C	-0.307404	-1.110690	0.893344
C140	C	0.025929	-0.777356	1.226677
C141	C	0.359262	-0.444023	1.560010
C142	C	-0.401524	-1.016513	0.893300
C143	C	-0.068191	-0.683179	1.226633
C144	C	0.265143	-0.349846	1.559967
C145	C	-0.401541	-1.016501	0.816443
C146	C	-0.068208	-0.683167	1.149776
C147	C	0.265126	-0.349834	1.483109
C148	C	-0.354493	-1.063589	0.778037
C149	C	-0.021160	-0.730256	1.111370
C150	C	0.312174	-0.396922	1.444704
C151	C	-0.354454	-1.063610	0.931753
C152	C	-0.021121	-0.730276	1.265087
C153	C	0.312212	-0.396943	1.598420
C154	C	-0.354432	-1.063619	1.015087
C155	C	-0.021098	-0.730286	1.348420
C156	C	0.312235	-0.396952	1.681754
C157	C	-0.354515	-1.063579	0.694698
C158	C	-0.021181	-0.730246	1.028031
C159	C	0.312152	-0.396912	1.361365
H160	H	-0.269320	-0.494224	0.440069
H161	H	0.064014	-0.160891	0.773402
H162	H	0.397347	0.172443	1.106735
N163	N	-0.452315	-0.965711	0.774970
N164	N	-0.118982	-0.632377	1.108303
N165	N	0.214351	-0.299044	1.441636
H166	H	-0.445184	-0.972848	0.720454
H167	H	-0.111851	-0.639514	1.053787
H168	H	0.221482	-0.306181	1.387120
H169	H	-0.440853	-0.913158	0.788398
H170	H	-0.107520	-0.579825	1.121731
H171	H	0.225813	-0.246491	1.455065
N172	N	-0.452276	-0.965729	0.934714
N173	N	-0.118943	-0.632395	1.268047
N174	N	0.214390	-0.299062	1.601380
H175	H	-0.440840	-0.913152	0.921330
H176	H	-0.107507	-0.579819	1.254663
H177	H	0.225827	-0.246485	1.587996
H178	H	-0.445109	-0.972938	0.989225
H179	H	-0.111776	-0.639605	1.322559
H180	H	0.221557	-0.306272	1.655892
N181	N	-0.452304	-0.483945	0.256517
N182	N	-0.118970	-0.150612	0.589851
N183	N	0.214363	0.182721	0.923184
H184	H	-0.445178	-0.429430	0.263675
H185	H	-0.111845	-0.096096	0.597008
H186	H	0.221488	0.237237	0.930341
H187	H	-0.504877	-0.497370	0.267874
H188	H	-0.171544	-0.164037	0.601207
H189	H	0.161790	0.169297	0.934540
N190	N	-0.774346	-1.161410	0.256796
N191	N	-0.441013	-0.828076	0.590129
N192	N	-0.107679	-0.494743	0.923462
H193	H	-0.787768	-1.150022	0.204205
H194	H	-0.454435	-0.816688	0.537538
H195	H	-0.121102	-0.483355	0.870871
H196	H	-0.787691	-1.213969	0.268344
H197	H	-0.454358	-0.880635	0.601677
H198	H	-0.121024	-0.547302	0.935010
H199	H	-0.923940	-1.149026	0.269253
H200	H	-0.590606	-0.815692	0.602586
H201	H	-0.257273	-0.482359	0.935920
N202	N	-0.934105	-0.965699	0.452305
N203	N	-0.600771	-0.632366	0.785639
N204	N	-0.267438	-0.299032	1.118972
H205	H	-0.988625	-0.972862	0.445180
H206	H	-0.655291	-0.639529	0.778513
H207	H	-0.321958	-0.306195	1.111846
H208	H	-0.920715	-0.913143	0.440798
H209	H	-0.587381	-0.579809	0.774131
H210	H	-0.254048	-0.246476	1.107464
H211	H	-0.439874	-0.633544	0.268971
H212	H	-0.106540	-0.300211	0.602304
H213	H	0.226793	0.033122	0.935638
N214	N	-0.774349	-0.965638	0.452275
N215	N	-0.441016	-0.632304	0.785609
N216	N	-0.107682	-0.298971	1.118942
H217	H	-0.810354	-0.935815	0.482070
H218	H	-0.477020	-0.602482	0.815404
H219	H	-0.143687	-0.269148	1.148737
H220	H	-0.742506	-0.931589	0.422280
H221	H	-0.409173	-0.598256	0.755613
H222	H	-0.075839	-0.264922	1.088946
H223	H	-0.269076	-1.149035	0.924645
H224	H	0.064257	-0.815702	1.257978
H225	H	0.397591	-0.482369	1.591311
N226	N	-0.256891	-0.643822	0.452528
N227	N	0.076442	-0.310489	0.785861
N228	N	0.409775	0.022845	1.119195
H229	H	-0.227116	-0.607832	0.482396
H230	H	0.106217	-0.274499	0.815730
H231	H	0.439550	0.058834	1.149063
H232	H	-0.222794	-0.675709	0.422631
H233	H	0.110540	-0.342376	0.755964
H234	H	0.443873	-0.009042	1.089297
N235	N	-0.256683	-1.161465	0.775060
N236	N	0.076650	-0.828132	1.108393
N237	N	0.409984	-0.494799	1.441727
H238	H	-0.226862	-1.191298	0.811082
H239	H	0.106471	-0.857965	1.144416
H240	H	0.439804	-0.524631	1.477749
H241	H	-0.222630	-1.131520	0.743176
H242	H	0.110704	-0.798187	1.076510
H243	H	0.444037	-0.464854	1.409843
