data_functionalizedCrystal
_audit_creation_method	'MofGen! by Chris Wilmer'
_symmetry_space_group_name_H-M	'P1'
_symmetry_Int_Tables_number	1
_symmetry_cell_setting	triclinic
loop_
_symmetry_equiv_pos_as_xyz
  x,y,z
_cell_length_a	15.944557
_cell_length_b	15.944551
_cell_length_c	13.596369
_cell_angle_alpha	90.001122
_cell_angle_beta	90.000882
_cell_angle_gamma	96.499947
loop_
_atom_site_label
_atom_site_type_symbol
_atom_site_fract_x
_atom_site_fract_y
_atom_site_fract_z
O1	O	-1.114516	0.108360	0.081738
O2	O	-0.614516	0.608360	0.581738
O3	O	-0.869967	0.121710	0.081748
O4	O	-0.369967	0.621710	0.581748
O5	O	-0.998920	-0.007240	0.081749
O6	O	-0.498920	0.492760	0.581749
O7	O	-0.985564	0.237310	0.081738
O8	O	-0.485564	0.737310	0.581738
O9	O	-0.998918	-0.007248	-0.081834
O10	O	-0.498918	0.492752	0.418166
O11	O	-0.869965	0.121702	-0.081835
O12	O	-0.369965	0.621702	0.418165
O13	O	-1.114514	0.108352	-0.081845
O14	O	-0.614514	0.608352	0.418155
Zn15	Zn	-0.992239	0.115026	-0.107812
Zn16	Zn	-0.492239	0.615026	0.392188
Zn17	Zn	-0.992242	0.115036	0.107716
Zn18	Zn	-0.492242	0.615036	0.607716
O19	O	-0.985562	0.237302	-0.081845
O20	O	-0.485562	0.737302	0.418155
C21	C	-0.838672	0.121151	-0.000042
C22	C	-0.338672	0.621151	0.499958
C23	C	-0.745427	0.119487	-0.000038
C24	C	-0.245427	0.619487	0.499962
C25	C	-0.474796	0.034581	-0.000049
C26	C	0.025204	0.534581	0.499951
C27	C	-0.525376	0.075508	-0.080708
C28	C	-0.025376	0.575508	0.419292
C29	C	-0.409785	0.113551	-0.000061
C30	C	0.090215	0.613551	0.499939
C31	C	-0.525359	0.075537	0.080572
C32	C	-0.025359	0.575537	0.580572
C33	C	-0.574697	0.116463	-0.000048
C34	C	-0.074697	0.616463	0.499952
C35	C	-0.459137	0.154457	-0.080785
C36	C	0.040863	0.654457	0.419215
C37	C	-0.459116	0.154474	0.080567
C38	C	0.040884	0.654474	0.580567
C39	C	-0.509664	0.195460	-0.000111
C40	C	-0.009664	0.695460	0.499889
C41	C	-0.314783	0.111871	-0.000069
C42	C	0.185217	0.611871	0.499931
C43	C	-0.669696	0.118149	-0.000046
C44	C	-0.169696	0.618149	0.499954
C45	C	-0.145811	0.108900	-0.000057
C46	C	0.354189	0.608900	0.499943
C47	C	-0.239061	0.110530	-0.000069
C48	C	0.260939	0.610530	0.499931
C49	C	-0.998364	-0.038538	-0.000039
C50	C	-0.498364	0.461462	0.499961
C51	C	-0.996702	-0.131784	-0.000028
C52	C	-0.496702	0.368216	0.499972
C53	C	-0.986117	0.268600	-0.000055
C54	C	-0.486117	0.768600	0.499945
C55	C	-0.987779	0.361846	-0.000059
C56	C	-0.487779	0.861846	0.499941
C57	C	-1.071684	0.576704	-0.000048
C58	C	-0.571684	1.076704	0.499952
C59	C	-1.032720	0.637716	-0.080702
C60	C	-0.532720	1.137716	0.419298
C61	C	-0.990787	0.532572	-0.000051
C62	C	-0.490787	1.032572	0.499949
C63	C	-1.032703	0.637709	0.080578
C64	C	-0.532703	1.137709	0.580578
C65	C	-0.993697	0.697485	-0.000038
C66	C	-0.493697	1.197485	0.499962
C67	C	-0.951801	0.592355	-0.080772
C68	C	-0.451801	1.092355	0.419228
C69	C	-0.951796	0.592342	0.080581
C70	C	-0.451796	1.092342	0.580581
C71	C	-0.912773	0.653336	-0.000093
C72	C	-0.412773	1.153336	0.499907
C73	C	-0.989112	0.437569	-0.000059
C74	C	-0.489112	0.937569	0.499941
C75	C	-0.995366	0.792486	-0.000037
C76	C	-0.495366	1.292486	0.499963
N77	N	-0.992245	0.115038	0.254807
N78	N	-0.492245	0.615038	0.754807
N79	N	-0.992244	0.115018	-0.254904
N80	N	-0.492244	0.615018	0.245096
C81	C	-0.992240	0.115028	0.656098
C82	C	-0.492240	0.615028	1.156098
C83	C	-0.992238	0.115033	0.544447
C84	C	-0.492238	0.615033	1.044447
C85	C	-0.992242	0.115033	0.455456
C86	C	-0.492242	0.615033	0.955456
C87	C	-0.992241	0.115038	0.343798
C88	C	-0.492241	0.615038	0.843798
H89	H	-0.459142	-0.033432	-0.000125
H90	H	0.040858	0.466568	0.499875
N91	N	-0.420985	0.198598	-0.171212
N92	N	0.079015	0.698598	0.328788
H93	H	-0.357818	0.197184	-0.170674
H94	H	0.142182	0.697184	0.329326
H95	H	-0.445760	0.168978	-0.232004
H96	H	0.054240	0.668978	0.267996
N97	N	-1.160623	0.532576	-0.000143
N98	N	-0.660623	1.032576	0.499857
H99	H	-1.202098	0.575986	-0.000814
H100	H	-0.702098	1.075986	0.499186
H101	H	-1.169384	0.495681	-0.060482
H102	H	-0.669384	0.995681	0.439518
N103	N	-0.906515	0.565885	-0.171198
N104	N	-0.406515	1.065885	0.328802
H105	H	-0.855966	0.537171	-0.150745
H106	H	-0.355966	1.037171	0.349255
H107	H	-0.946192	0.525472	-0.211274
H108	H	-0.446192	1.025472	0.288726
H109	H	-1.066935	0.657820	-0.148892
H110	H	-0.566935	1.157820	0.351108
N111	N	-0.530176	0.285622	-0.000174
N112	N	-0.030176	0.785622	0.499826
H113	H	-0.564524	0.295837	-0.060531
H114	H	-0.064524	0.795837	0.439469
H115	H	-0.563643	0.296127	0.060785
H116	H	-0.063643	0.796127	0.560785
H117	H	-0.430171	0.187800	0.148757
H118	H	0.069829	0.687800	0.648757
N119	N	-0.563669	0.031351	0.170892
N120	N	-0.063669	0.531351	0.670892
H121	H	-0.517682	0.009690	0.211568
H122	H	-0.017682	0.509690	0.711568
H123	H	-0.593181	0.072387	0.211229
H124	H	-0.093181	0.572387	0.711229
N125	N	-1.078037	0.664313	0.170906
N126	N	-0.578037	1.164313	0.670906
H127	H	-1.038273	0.704363	0.211326
H128	H	-0.538273	1.204363	0.711326
H129	H	-1.128241	0.693473	0.150257
H130	H	-0.628241	1.193473	0.650257
N131	N	-0.823753	0.697259	-0.000138
N132	N	-0.323753	1.197259	0.499862
H133	H	-0.793314	0.680781	-0.061083
H134	H	-0.293314	1.180781	0.438917
H135	H	-0.825422	0.760388	0.000479
H136	H	-0.325422	1.260388	0.500479
H137	H	-0.554306	0.042153	-0.148895
H138	H	-0.054306	0.542153	0.351105
N139	N	-0.906510	0.565673	0.170905
N140	N	-0.406510	1.065673	0.670905
H141	H	-0.937125	0.581978	0.231800
H142	H	-0.437125	1.081978	0.731800
H143	H	-0.905260	0.502492	0.169791
H144	H	-0.405260	1.002492	0.669791
