data_functionalizedCrystal
_audit_creation_method	'MofGen! by Chris Wilmer'
_symmetry_space_group_name_H-M	'P1'
_symmetry_Int_Tables_number	1
_symmetry_cell_setting	triclinic
loop_
_symmetry_equiv_pos_as_xyz
  x,y,z
_cell_length_a	27.440280
_cell_length_b	14.628931
_cell_length_c	14.628931
_cell_angle_alpha	60.000028
_cell_angle_beta	89.995125
_cell_angle_gamma	59.993894
loop_
_atom_site_label
_atom_site_type_symbol
_atom_site_fract_x
_atom_site_fract_y
_atom_site_fract_z
Zr1	Zr	0.469496	1.000494	-0.119995
O2	O	0.391677	1.191214	-0.265950
O3	O	0.493351	0.809784	-0.075251
O4	O	0.493351	1.000490	-0.265957
O5	O	0.391677	1.000509	0.075187
O6	O	0.573553	1.000475	-0.265962
O7	O	0.391678	1.000509	-0.075245
O8	O	0.573553	0.659338	0.075175
O9	O	0.391677	1.341646	-0.265951
O10	O	0.563379	0.888212	-0.056173
O11	O	0.503525	0.888223	0.056097
O12	O	0.503525	1.112754	-0.168435
O13	O	0.443671	1.112765	-0.056165
Zr14	Zr	0.597409	1.000472	0.119918
Zr15	Zr	0.597409	1.000471	-0.120003
Zr16	Zr	0.469496	1.000495	0.119927
Zr17	Zr	0.469496	1.240416	-0.119995
Zr18	Zr	0.597409	0.760550	0.119918
O19	O	0.573553	1.191182	0.075174
O20	O	0.573553	1.191181	-0.265963
O21	O	0.391677	1.191215	0.075187
O22	O	0.675227	0.809752	0.265873
O23	O	0.675227	0.809751	-0.075264
O24	O	0.493351	0.809785	0.265886
O25	O	0.675227	1.000457	-0.075264
O26	O	0.573553	1.000476	0.265880
O27	O	0.493351	1.000491	0.265885
O28	O	0.675227	1.000457	0.075168
O29	O	0.493351	1.341628	-0.265958
O30	O	0.573553	0.659338	0.265881
O31	O	0.675227	0.659320	0.265874
O32	O	0.675227	0.659319	0.075168
O33	O	0.391677	1.341647	-0.075245
O34	O	0.493351	1.341628	-0.075252
O35	O	0.563379	0.888212	0.168358
O36	O	0.623233	0.888201	0.056088
O37	O	0.563379	1.112743	-0.056173
O38	O	0.503525	1.112755	0.056096
C39	C	0.533452	0.700377	-0.000038
C40	C	0.533453	0.598524	-0.000038
C41	C	0.491462	0.631882	-0.078794
C42	C	0.491462	0.526613	-0.078796
C43	C	0.373453	1.000512	-0.000028
C44	C	0.319150	1.000522	-0.000024
C45	C	-0.017547	1.000454	-0.082914
C46	C	-0.068565	1.000445	-0.082915
O47	O	-0.094940	1.000396	-0.153373
N48	N	-0.094083	1.000447	-0.000042
C49	C	-0.068577	1.000446	0.082843
O50	O	-0.094966	1.000446	0.153334
C51	C	-0.017558	1.000446	0.082848
C52	C	0.007954	1.000457	-0.000037
C53	C	0.007965	1.000463	-0.165791
C54	C	0.058979	1.000475	-0.165792
C55	C	0.084480	1.000477	-0.082915
C56	C	0.058968	1.000468	-0.000037
C57	C	0.007950	1.000435	0.165737
C58	C	0.058973	1.000434	0.165734
C59	C	0.084485	1.000445	0.082849
C60	C	0.135483	1.000482	0.082839
N61	N	0.161001	1.000480	-0.000033
C62	C	0.135500	1.000477	-0.082910
C63	C	-0.175721	1.000444	0.082829
C64	C	-0.226742	1.000453	0.082821
C65	C	-0.226726	1.000450	-0.082936
C66	C	-0.175706	1.000449	-0.082932
C67	C	-0.150203	1.000441	-0.000044
C68	C	0.242632	1.000503	-0.082905
C69	C	0.293649	1.000520	-0.082901
C70	C	0.293630	1.000517	0.082859
C71	C	0.242616	1.000506	0.082852
C72	C	0.217119	1.000495	-0.000036
O73	O	0.161892	1.000526	0.153264
O74	O	0.161900	1.000460	-0.153380
C75	C	0.693452	1.000454	-0.000049
C76	C	0.747754	1.000444	-0.000053
C77	C	0.533452	1.000482	-0.300143
C78	C	0.533452	1.000482	-0.401996
C79	C	0.533452	1.300589	-0.000039
C80	C	0.533452	1.402442	-0.000039
C81	C	0.503761	1.111870	-0.503095
C82	C	0.503760	1.111872	-0.608366
C83	C	0.533452	1.000484	0.300066
C84	C	0.533452	1.000484	0.401919
C85	C	0.693452	0.700348	-0.000049
C86	C	0.747755	0.598485	-0.000052
C87	C	0.533452	0.700378	0.300067
C88	C	0.533452	0.598525	0.401920
C89	C	0.693452	0.700349	0.300056
C90	C	0.747754	0.598486	0.401905
C91	C	0.373452	1.300617	-0.300133
C92	C	0.319150	1.402480	-0.401982
C93	C	0.373452	1.300618	-0.000028
C94	C	0.319150	1.402481	-0.000025
C95	C	0.533452	1.300588	-0.300144
C96	C	0.533452	1.402441	-0.401997
C97	C	0.742013	0.550654	-0.058663
C98	C	0.793031	0.454956	-0.058689
C99	C	0.849790	0.407084	-0.000096
C100	C	0.855531	0.454924	0.058516
C101	C	0.804513	0.550627	0.058535
C102	C	0.804504	0.550644	0.391131
C103	C	0.855531	0.454947	0.486820
C104	C	0.849808	0.407086	0.593282
C105	C	0.793053	0.454937	0.604054
C106	C	0.742027	0.550640	0.508366
C107	C	0.262401	1.450333	-0.391208
C108	C	0.211373	1.546061	-0.486897
C109	C	0.217096	1.593926	-0.593359
C110	C	0.273851	1.546069	-0.604131
C111	C	0.324878	1.450350	-0.508443
C112	C	0.324892	1.450322	0.058576
C113	C	0.273874	1.546046	0.058576
C114	C	0.217114	1.593922	-0.000020
C115	C	0.211373	1.546077	-0.058629
C116	C	0.262391	1.450361	-0.058634
C117	C	0.563144	0.553111	0.503019
C118	C	0.563145	0.447840	0.608290
H119	H	0.455516	0.738374	-0.146223
O120	O	0.448537	0.560359	-0.159080
C121	C	0.416239	0.509926	-0.108254
H122	H	0.444733	0.423673	-0.017733
H123	H	0.373642	0.587700	-0.110159
C124	C	0.365013	0.572225	-0.283621
C125	C	0.400012	0.466280	-0.172444
H126	H	0.355000	0.545307	-0.323218
H127	H	0.386771	0.606207	-0.317865
H128	H	0.329520	0.637028	-0.285193
H129	H	0.435508	0.401487	-0.170873
H130	H	0.378260	0.432286	-0.138201
H131	H	0.891327	0.329156	-0.000120
O132	O	0.593474	0.599603	0.513512
C133	C	0.621091	0.536919	0.627953
H134	H	0.596624	0.497442	0.679087
H135	H	0.669594	0.453837	0.656122
C136	C	0.648843	0.682490	0.583031
C137	C	0.618789	0.634013	0.645834
H138	H	0.647425	0.742379	0.594062
H139	H	0.630239	0.724719	0.505930
H140	H	0.689259	0.613244	0.606512
H141	H	0.578372	0.703256	0.622343
H142	H	0.637386	0.591798	0.722932
O143	O	0.279474	1.592535	-0.707498
C144	C	0.310988	1.647826	-0.719868
H145	H	0.306717	1.676735	-0.659401
H146	H	0.360087	1.574376	-0.700765
C147	C	0.290100	1.732880	-0.915134
C148	C	0.284851	1.768398	-0.840874
H149	H	0.273980	1.807251	-0.989776
H150	H	0.268871	1.695626	-0.906800
H151	H	0.331017	1.671671	-0.899201
H152	H	0.243934	1.829593	-0.856799
H153	H	0.306073	1.805665	-0.849214
H154	H	-0.154937	1.000457	-0.150423
O155	O	0.473381	1.225763	-0.711745
C156	C	0.445788	1.329329	-0.700860
H157	H	0.439569	1.295093	-0.615492
H158	H	0.475065	1.365377	-0.708744
C159	C	0.392138	1.482060	-0.898490
C160	C	0.384495	1.440014	-0.793643
H161	H	0.354331	1.550339	-0.955725
H162	H	0.410729	1.412287	-0.905825
H163	H	0.416538	1.512091	-0.905044
H164	H	0.360102	1.409969	-0.787085
H165	H	0.365898	1.509785	-0.786309
H166	H	0.278560	1.584985	0.106306
H167	H	0.695801	0.589631	-0.106390
H168	H	0.508035	0.441485	0.511280
H169	H	0.165165	1.585010	-0.478105
O170	O	0.503167	0.551920	0.391493
C171	C	0.526135	0.496456	0.332529
H172	H	0.548980	0.539710	0.279603
H173	H	0.559889	0.387466	0.394552
C174	C	0.446709	0.471540	0.320837
C175	C	0.474763	0.524674	0.255825
H176	H	0.415021	0.488940	0.273526
H177	H	0.431236	0.508903	0.360566
H178	H	0.474843	0.380719	0.372519
H179	H	0.446631	0.615495	0.204155
H180	H	0.490230	0.487327	0.216086
O181	O	0.787340	0.408589	-0.115636
C182	C	0.726301	0.471381	-0.167352
H183	H	0.699103	0.510810	-0.121368
H184	H	0.711258	0.554509	-0.258311
C185	C	0.750092	0.325989	-0.219564
C186	C	0.716687	0.374407	-0.163081
H187	H	0.744161	0.266174	-0.216936
H188	H	0.791215	0.283687	-0.184727
H189	H	0.737552	0.395273	-0.295359
H190	H	0.729232	0.305125	-0.087286
H191	H	0.675566	0.416695	-0.197906
H192	H	0.809175	0.589598	0.304453
H193	H	0.569401	0.374048	0.067395
H194	H	0.788402	0.415955	0.690748
H195	H	0.901751	0.415932	0.106220
O196	O	0.318470	1.000295	-0.163326
C197	C	0.335683	0.888944	-0.158081
H198	H	0.342409	0.811107	-0.070670
H199	H	0.299358	0.914113	-0.222339
C200	C	0.386206	0.934055	-0.290985
C201	C	0.394472	0.838451	-0.183623
H202	H	0.422468	0.902910	-0.306745
H203	H	0.374608	1.009077	-0.294523
H204	H	0.355934	0.955021	-0.344521
H205	H	0.424738	0.817498	-0.130088
H206	H	0.406076	0.763424	-0.180077
O207	O	0.576326	0.471526	0.080550
C208	C	0.573527	0.444390	0.186675
H209	H	0.551114	0.537385	0.181764
H210	H	0.546577	0.402110	0.214103
C211	C	0.664677	0.232024	0.278217
C212	C	0.637154	0.346240	0.272187
H213	H	0.703924	0.171477	0.330966
H214	H	0.666562	0.250303	0.206719
H215	H	0.642212	0.196808	0.301069
H216	H	0.659614	0.381463	0.249321
H217	H	0.635274	0.327965	0.343683
O218	O	0.810202	0.596891	0.115582
C219	C	0.871241	0.534126	0.167268
H220	H	0.898442	0.437134	0.178841
H221	H	0.886275	0.596887	0.112352
C222	C	0.847456	0.630933	0.268060
C223	C	0.880864	0.511801	0.282283
H224	H	0.853393	0.617167	0.339005
H225	H	0.806333	0.673224	0.233236
H226	H	0.859988	0.683222	0.222293
H227	H	0.868327	0.459521	0.328037
H228	H	0.921986	0.469501	0.317118
O229	O	0.256726	1.404042	-0.287882
C230	C	0.195691	1.466808	-0.298915
H231	H	0.168485	1.563808	-0.384318
H232	H	0.180651	1.404056	-0.291062
C233	C	0.219503	1.369969	-0.101317
C234	C	0.186088	1.489111	-0.206207
H235	H	0.213579	1.383722	-0.044128
H236	H	0.260624	1.327678	-0.093882
H237	H	0.206965	1.317688	-0.094788
H238	H	0.198631	1.541383	-0.212739
H239	H	0.144969	1.531412	-0.213640
O240	O	0.167464	1.686862	-0.686190
C241	C	0.116151	1.718844	-0.653837
H242	H	0.127873	1.634898	-0.565500
H243	H	0.098973	1.808763	-0.655568
C244	C	0.053071	1.848818	-0.843987
C245	C	0.067467	1.745709	-0.735492
H246	H	0.023039	1.865396	-0.894357
H247	H	0.087641	1.827276	-0.865785
H248	H	0.038759	1.923739	-0.845413
H249	H	0.081785	1.670787	-0.734065
H250	H	0.032898	1.767240	-0.713696
O251	O	0.318419	1.000695	0.163211
C252	C	0.318226	1.112078	0.112484
H253	H	0.315963	1.149211	0.021959
H254	H	0.277779	1.190052	0.114411
C255	C	0.378492	1.032646	0.287937
C256	C	0.375717	1.078248	0.176755
H257	H	0.413953	1.011782	0.327585
H258	H	0.378620	0.957608	0.322115
H259	H	0.344782	1.097633	0.289528
H260	H	0.409422	1.013256	0.175166
H261	H	0.375596	1.153275	0.142579
O262	O	0.910669	0.408610	0.476389
C263	C	0.942055	0.431990	0.528230
H264	H	0.908947	0.515856	0.532666
H265	H	0.972347	0.341654	0.616493
C266	C	1.020804	0.363264	0.454189
C267	C	0.980140	0.466277	0.459628
H268	H	1.044300	0.384408	0.411876
H269	H	0.999661	0.347507	0.419266
H270	H	1.046042	0.287993	0.527746
H271	H	0.954899	0.541540	0.386073
H272	H	1.001281	0.482047	0.494537
O273	O	0.156191	1.592686	-0.115441
C274	C	0.112400	1.687441	-0.102878
H275	H	0.132297	1.671712	-0.023735
H276	H	0.096438	1.787542	-0.178595
C277	C	0.034809	1.696290	-0.190987
C278	C	0.059246	1.676965	-0.093776
H279	H	0.002020	1.689834	-0.185378
H280	H	0.064311	1.632456	-0.199455
H281	H	0.021512	1.779708	-0.254074
H282	H	0.072549	1.593544	-0.030693
H283	H	0.029745	1.740786	-0.085297
H284	H	0.891362	0.329159	0.671189
H285	H	0.221879	1.000491	-0.150399
O286	O	0.083701	1.000414	-0.246353
C287	C	0.050236	1.000438	-0.319506
H288	H	0.024719	0.959733	-0.274848
H289	H	0.017310	1.103592	-0.396567
C290	C	0.123968	0.966098	-0.410495
C291	C	0.092632	0.916094	-0.355641
H292	H	0.150118	0.914076	-0.432789
H293	H	0.146513	0.966087	-0.361213
H294	H	0.096524	1.052060	-0.474705
H295	H	0.120075	0.830141	-0.291425
H296	H	0.070092	0.916089	-0.404913
O297	O	0.686856	0.597280	0.518641
C298	C	0.643039	0.691988	0.411365
H299	H	0.662907	0.733867	0.347909
H300	H	0.627084	0.646194	0.386997
C301	C	0.565486	0.749291	0.490757
C302	C	0.589887	0.800736	0.412820
H303	H	0.532698	0.816370	0.491653
H304	H	0.595006	0.685481	0.563031
H305	H	0.552195	0.711130	0.470440
H306	H	0.603184	0.838881	0.433145
H307	H	0.560368	0.864555	0.340549
H308	H	0.478344	1.207232	-0.511713
H309	H	-0.012793	1.000456	-0.233280
O310	O	0.593419	0.401156	0.711836
C311	C	0.586688	0.306427	0.793892
H312	H	0.544485	0.322235	0.756499
H313	H	0.627045	0.206318	0.823806
C314	C	0.633664	0.297413	0.939555
C315	C	0.581827	0.316836	0.893631
H316	H	0.630668	0.303828	1.001082
H317	H	0.638201	0.361230	0.884274
H318	H	0.667289	0.213989	0.964475
H319	H	0.548204	0.400264	0.868700
H320	H	0.577284	0.253033	0.948911
H321	H	0.371084	1.411389	-0.517229
H322	H	-0.247498	1.000445	-0.150418
O323	O	-0.251434	1.000401	0.163438
C324	C	-0.217989	1.000442	0.236563
H325	H	-0.170769	0.959740	0.232611
H326	H	-0.240067	1.103601	0.210468
C327	C	-0.273416	0.966106	0.361881
C328	C	-0.215417	0.916105	0.357034
H329	H	-0.271831	0.914089	0.436194
H330	H	-0.295950	0.966083	0.312614
H331	H	-0.291807	1.052071	0.340130
H332	H	-0.197029	0.830148	0.378771
H333	H	-0.192880	0.916111	0.406308
H334	H	0.371104	1.411349	0.106300
O335	O	-0.150946	1.000630	0.163196
C336	C	-0.151139	1.112013	0.112482
H337	H	-0.153382	1.149133	0.021966
H338	H	-0.191597	1.189996	0.114382
C339	C	-0.090911	1.032607	0.287961
C340	C	-0.093661	1.078191	0.176791
H341	H	-0.055458	1.011747	0.327632
H342	H	-0.090783	0.957568	0.322131
H343	H	-0.124630	1.097600	0.289529
H344	H	-0.059947	1.013193	0.175224
H345	H	-0.093783	1.153218	0.142623
O346	O	-0.016812	1.000587	0.246231
C347	C	-0.034044	1.111957	0.240968
H348	H	-0.006906	1.149100	0.198822
H349	H	-0.083550	1.189932	0.190515
C350	C	-0.055986	1.032487	0.412070
C351	C	-0.022650	1.078100	0.360313
H352	H	-0.048961	1.011605	0.485686
H353	H	-0.044379	0.957457	0.415614
H354	H	-0.097238	1.097474	0.370014
H355	H	0.018600	1.013107	0.402361
H356	H	-0.034251	1.153118	0.356779
H357	H	0.175577	1.671860	-0.000007
H358	H	0.257707	1.411412	-0.106350
H359	H	0.558874	0.905120	-0.393377
H360	H	0.079737	1.000424	0.233235
H361	H	0.558870	0.905116	-0.511356
H362	H	0.221839	1.000517	0.150335
