data_functionalizedCrystal
_audit_creation_method	'MofGen! by Chris Wilmer'
_symmetry_space_group_name_H-M	'P1'
_symmetry_Int_Tables_number	1
_symmetry_cell_setting	triclinic
loop_
_symmetry_equiv_pos_as_xyz
  x,y,z
_cell_length_a	10.967926
_cell_length_b	14.044220
_cell_length_c	10.065875
_cell_angle_alpha	99.592716
_cell_angle_beta	93.120479
_cell_angle_gamma	88.855190
loop_
_atom_site_label
_atom_site_type_symbol
_atom_site_fract_x
_atom_site_fract_y
_atom_site_fract_z
O1	O	1.630686	0.165922	0.270028
O2	O	1.280933	0.168639	0.187766
O3	O	1.450558	0.029112	0.227675
O4	O	1.461061	0.305449	0.230119
O5	O	1.418224	0.055829	0.447057
O6	O	1.248600	0.195356	0.407147
O7	O	1.598353	0.192639	0.489410
Zn8	Zn	1.418343	0.198240	0.483110
Zn9	Zn	1.460943	0.163038	0.194066
O10	O	1.428728	0.332167	0.449500
C11	C	1.219735	0.179781	0.286865
C12	C	1.085555	0.173165	0.255306
C13	C	1.008984	0.184056	0.354882
C14	C	0.870302	0.177219	0.322267
C15	C	1.429795	0.006993	0.336286
C16	C	1.416086	-0.098717	0.333063
C17	C	1.391025	-0.292267	0.327149
C18	C	1.488257	-0.346462	0.350014
C19	C	1.474313	-0.454160	0.346723
C20	C	1.404967	-0.184559	0.330439
C21	C	1.659551	0.181497	0.390307
C22	C	1.793732	0.188112	0.421858
C23	C	1.449491	0.354284	0.340887
C24	C	1.463202	0.459994	0.344101
N25	N	1.389278	0.222264	0.680377
N26	N	1.490017	0.139007	-0.003199
C27	C	1.450822	0.171391	0.762636
C28	C	1.428463	0.189888	0.914543
H29	H	0.833193	0.162829	0.212864
H30	H	1.320030	0.279509	0.722410
H31	H	1.559260	0.081751	0.954771
Br32	Br	1.234836	-0.349744	0.290401
Br33	Br	1.070831	0.208029	0.537225
Br34	Br	1.313034	0.285305	0.984581
Br35	Br	1.644456	-0.288987	0.386764
H36	H	1.520061	0.114138	0.720603
Br37	Br	0.855569	0.212074	0.604209
H38	H	1.048441	0.158777	0.145910
