data_functionalizedCrystal
_audit_creation_method	'MofGen! by Chris Wilmer'
_symmetry_space_group_name_H-M	'P1'
_symmetry_Int_Tables_number	1
_symmetry_cell_setting	triclinic
loop_
_symmetry_equiv_pos_as_xyz
  x,y,z
_cell_length_a	6.817900
_cell_length_b	11.168129
_cell_length_c	17.110486
_cell_angle_alpha	95.206620
_cell_angle_beta	99.060439
_cell_angle_gamma	108.508637
loop_
_atom_site_label
_atom_site_type_symbol
_atom_site_fract_x
_atom_site_fract_y
_atom_site_fract_z
V1	V	-4.002457	-0.174329	-0.246727
O2	O	-3.964089	0.008764	-0.242023
O3	O	-3.979477	-0.346037	-0.245046
O4	O	-3.931897	-0.171477	-0.354330
O5	O	-4.011999	-0.167004	-0.131983
V6	V	-4.485662	-0.152449	-0.233002
O7	O	-4.264412	-0.222324	-0.276834
O8	O	-4.673905	-0.104453	-0.202895
O9	O	-4.285436	0.019259	-0.234682
O10	O	-4.641428	-0.335542	-0.237706
O11	O	-4.593518	-0.159774	-0.347746
O12	O	-4.333016	-0.155300	-0.125399
C13	C	-3.831379	-0.387901	-0.241156
C14	C	-3.893730	-0.528273	-0.240499
C15	C	-3.770684	-0.165231	-0.380557
C16	C	-3.794445	-0.164036	-0.468523
C17	C	-3.894699	-0.573824	-0.171339
C18	C	-3.959141	-0.718906	-0.170659
C19	C	-3.987828	-0.169777	-0.513881
C20	C	-4.010142	-0.168653	-0.596534
C21	C	-3.839075	-0.161798	-0.633829
C22	C	-3.645675	-0.156053	-0.588464
C23	C	-3.623359	-0.157168	-0.505812
C24	C	-3.897333	-0.158109	-0.883184
C25	C	-3.919666	-0.156998	-0.965843
C26	C	-4.284132	-0.169596	-0.973907
C27	C	-4.261802	-0.170718	-0.891253
C28	C	-4.068402	-0.164966	-0.845895
C29	C	-3.861880	-0.160653	-0.718314
C30	C	-4.045595	-0.166102	-0.761411
C31	C	-4.096877	0.061117	-0.238571
C32	C	-4.013764	0.201488	-0.239233
C33	C	-4.157572	-0.161550	-0.099168
C34	C	-4.113049	-0.162739	-0.011201
H35	H	-3.960064	-0.758144	-0.111447
H36	H	-3.465873	-0.152462	-0.468879
H37	H	-3.722603	-0.155076	-0.748689
H38	H	-4.012822	-0.759282	-0.298447
H39	H	-3.940615	-0.596683	-0.299206
H40	H	-4.127138	-0.175368	-0.483523
N41	N	-4.446314	-0.178105	-0.851033
H42	H	-4.407866	-0.100222	-0.809233
H43	H	-4.482399	-0.257524	-0.824655
H44	H	-3.780350	-0.151412	-0.996205
H45	H	-4.167608	-0.173320	-0.633461
N46	N	-4.230084	-0.173485	-0.721183
H47	H	-4.266237	-0.252853	-0.694754
H48	H	-4.355871	-0.176902	-0.762495
H49	H	-4.441591	-0.174277	-1.010846
H50	H	-3.847832	-0.505415	-0.112633
H51	H	-3.739879	-0.153470	-0.846267
H52	H	-3.506387	-0.150464	-0.618835
