data_functionalizedCrystal
_audit_creation_method	'MofGen! by Chris Wilmer'
_symmetry_space_group_name_H-M	'P1'
_symmetry_Int_Tables_number	1
_symmetry_cell_setting	triclinic
loop_
_symmetry_equiv_pos_as_xyz
  x,y,z
_cell_length_a	14.044202
_cell_length_b	14.044220
_cell_length_c	12.503572
_cell_angle_alpha	86.150791
_cell_angle_beta	93.844866
_cell_angle_gamma	93.190789
loop_
_atom_site_label
_atom_site_type_symbol
_atom_site_fract_x
_atom_site_fract_y
_atom_site_fract_z
O1	O	-1.272121	-0.235257	0.089272
O2	O	-0.938787	0.098077	0.422605
O3	O	-0.605454	0.431410	0.755939
O4	O	-0.995448	-0.226943	0.089286
O5	O	-0.662114	0.106391	0.422619
O6	O	-0.328781	0.439724	0.755953
O7	O	-1.129632	-0.092763	0.089269
O8	O	-0.796299	0.240570	0.422602
O9	O	-0.462965	0.573903	0.755935
O10	O	-1.137936	-0.369436	0.089290
O11	O	-0.804603	-0.036103	0.422623
O12	O	-0.471270	0.297231	0.755956
O13	O	-1.139727	-0.082659	-0.089375
O14	O	-0.806394	0.250674	0.243959
O15	O	-0.473060	0.584008	0.577292
O16	O	-1.005543	-0.216838	-0.089357
O17	O	-0.672209	0.116495	0.243976
O18	O	-0.338876	0.449828	0.577309
O19	O	-1.282216	-0.225152	-0.089371
O20	O	-0.948882	0.108181	0.243962
O21	O	-0.615549	0.441514	0.577296
Cu22	Cu	-1.144801	-0.220073	-0.105676
Cu23	Cu	-0.811468	0.113261	0.227658
Cu24	Cu	-0.478134	0.446594	0.560991
Cu25	Cu	-1.132862	-0.232022	0.105591
Cu26	Cu	-0.799529	0.101311	0.438924
Cu27	Cu	-0.466196	0.434644	0.772257
O28	O	-1.148032	-0.359332	-0.089354
O29	O	-0.814698	-0.025999	0.243980
O30	O	-0.481365	0.307335	0.577313
C31	C	-0.964873	-0.218254	-0.000034
C32	C	-0.631540	0.115080	0.333299
C33	C	-0.298206	0.448413	0.666633
C34	C	-0.858730	-0.207406	-0.000029
C35	C	-0.525396	0.125927	0.333304
C36	C	-0.192063	0.459261	0.666638
C37	C	-0.613272	-0.264504	-0.000035
C38	C	-0.279938	0.068829	0.333298
C39	C	0.053395	0.402163	0.666632
C40	C	-0.664397	-0.187588	-0.000039
C41	C	-0.331064	0.145745	0.333294
C42	C	0.002269	0.479079	0.666628
C43	C	-0.772534	-0.198617	-0.000033
C44	C	-0.439201	0.134716	0.333300
C45	C	-0.105867	0.468049	0.666633
C46	C	-0.505125	-0.253476	-0.000040
C47	C	-0.171792	0.079857	0.333293
C48	C	0.161541	0.413191	0.666626
N49	N	-1.153205	-0.211668	-0.254269
N50	N	-0.819872	0.121665	0.079064
N51	N	-0.486538	0.454998	0.412398
C52	C	-1.131044	-0.052089	-0.000053
C53	C	-0.797710	0.281244	0.333280
C54	C	-0.464377	0.614578	0.666613
C55	C	-1.120199	0.054054	-0.000054
C56	C	-0.786866	0.387387	0.333279
C57	C	-0.453533	0.720721	0.666613
C58	C	-0.312790	-0.233839	-0.000048
C59	C	0.020543	0.099494	0.333285
C60	C	0.353876	0.432827	0.666618
C61	C	-0.418933	-0.244682	-0.000045
C62	C	-0.085600	0.088652	0.333288
C63	C	0.247733	0.421985	0.666622
C64	C	-1.146619	-0.400006	-0.000029
C65	C	-0.813286	-0.066673	0.333304
C66	C	-0.479953	0.266661	0.666637
C67	C	-1.157464	-0.506150	-0.000022
C68	C	-0.824130	-0.172816	0.333312
C69	C	-0.490797	0.160517	0.666645
C70	C	-1.100372	0.248392	-0.000038
C71	C	-0.767039	0.581725	0.333296
C72	C	-0.433705	0.915058	0.666629
C73	C	-1.177287	0.299519	-0.000038
C74	C	-0.843953	0.632852	0.333295
C75	C	-0.510620	0.966186	0.666629
C76	C	-1.166254	0.407655	-0.000029
C77	C	-0.832921	0.740988	0.333304
C78	C	-0.499588	1.074322	0.666638
C79	C	-1.111403	0.140246	-0.000047
C80	C	-0.778069	0.473579	0.333287
C81	C	-0.444736	0.806912	0.666620
N82	N	-1.124465	-0.240420	0.254184
N83	N	-0.791132	0.092913	0.587517
N84	N	-0.457799	0.426247	0.920851
C85	C	-1.112105	-0.252773	0.473301
C86	C	-0.778772	0.080561	0.806634
C87	C	-0.445438	0.413894	1.139968
C88	C	-1.165562	-0.199319	0.526621
C89	C	-0.832229	0.134015	0.859954
C90	C	-0.498896	0.467348	1.193288
C91	C	-1.158685	-0.206192	0.648545
C92	C	-0.825352	0.127142	0.981878
C93	C	-0.492018	0.460475	1.315212
C94	C	-1.118981	-0.245900	0.351366
C95	C	-0.785648	0.087433	0.684699
C96	C	-0.452315	0.420766	1.018032
H97	H	-1.251416	0.262073	0.000030
H98	H	-0.918083	0.595407	0.333364
H99	H	-0.584750	0.928740	0.666697
N100	N	-0.614810	-0.089387	-0.000048
N101	N	-0.281477	0.243946	0.333285
N102	N	0.051856	0.577280	0.666619
H103	H	-0.543470	-0.095323	-0.000048
H104	H	-0.210136	0.238011	0.333285
H105	H	0.123197	0.571344	0.666618
H106	H	-0.630195	-0.057326	0.066179
H107	H	-0.296862	0.276007	0.399512
H108	H	0.036472	0.609341	0.732845
H109	H	-1.026244	0.285831	-0.000031
H110	H	-0.692911	0.619164	0.333302
H111	H	-0.359577	0.952497	0.666635
H112	H	-0.650712	-0.338631	-0.000026
H113	H	-0.317379	-0.005298	0.333307
H114	H	0.015954	0.328035	0.666641
N115	N	-1.044635	-0.320221	0.534109
N116	N	-0.711301	0.013113	0.867442
N117	N	-0.377968	0.346446	1.200775
H118	H	-1.082104	-0.368180	0.580781
H119	H	-0.748770	-0.034847	0.914115
H120	H	-0.415437	0.298486	1.247448
H121	H	-0.996697	-0.282659	0.580699
H122	H	-0.663364	0.050674	0.914032
H123	H	-0.330031	0.384008	1.247365
H124	H	-1.216493	-0.148393	0.480702
H125	H	-0.883159	0.184941	0.814035
H126	H	-0.549826	0.518274	1.147368
