data_functionalizedCrystal
_audit_creation_method	'MofGen! by Chris Wilmer'
_symmetry_space_group_name_H-M	'P1'
_symmetry_Int_Tables_number	1
_symmetry_cell_setting	triclinic
loop_
_symmetry_equiv_pos_as_xyz
  x,y,z
_cell_length_a	21.395362
_cell_length_b	12.759399
_cell_length_c	12.759393
_cell_angle_alpha	89.969094
_cell_angle_beta	90.042133
_cell_angle_gamma	89.969005
loop_
_atom_site_label
_atom_site_type_symbol
_atom_site_fract_x
_atom_site_fract_y
_atom_site_fract_z
Zn1	Zn	0.957916	0.417770	0.594612
Zn2	Zn	1.457916	0.917770	1.094612
Zn3	Zn	0.957850	0.593486	0.418930
Zn4	Zn	1.457850	1.093486	0.918930
Zn5	Zn	0.853134	0.417870	0.418882
Zn6	Zn	1.353134	0.917870	0.918882
Zn7	Zn	0.853129	0.593456	0.594503
Zn8	Zn	1.353129	1.093456	1.094503
O9	O	0.905507	0.505645	0.506732
O10	O	1.405507	1.005645	1.006732
O11	O	1.045585	0.441049	0.571373
O12	O	1.545585	0.941049	1.071373
O13	O	0.943935	0.570244	0.271903
O14	O	1.443935	1.070244	0.771903
O15	O	0.867064	0.270836	0.442218
O16	O	1.367064	0.770836	0.942218
O17	O	1.045537	0.570147	0.442301
O18	O	1.545537	1.070147	0.942301
O19	O	0.944047	0.270762	0.571326
O20	O	1.444047	0.770762	1.071326
O21	O	0.867000	0.441220	0.271867
O22	O	1.367000	0.941220	0.771867
O23	O	0.765456	0.441191	0.442112
O24	O	1.265456	0.941191	0.942112
O25	O	0.867054	0.570097	0.741538
O26	O	1.367054	1.070097	1.241538
O27	O	0.765452	0.570194	0.571140
O28	O	1.265452	1.070194	1.071140
O29	O	0.944041	0.441021	0.741618
O30	O	1.444041	0.941021	1.241618
O31	O	0.943929	0.740503	0.442195
O32	O	1.443929	1.240503	0.942195
O33	O	0.866991	0.740481	0.571187
O34	O	1.366991	1.240481	1.071187
C35	C	0.742720	0.505701	0.506610
C36	C	1.242720	1.005701	1.006610
C37	C	0.673079	0.505750	0.506582
C38	C	1.173079	1.005750	1.006582
C39	C	0.905469	0.778613	0.506708
C40	C	1.405469	1.278613	1.006708
C41	C	0.905510	0.895389	0.506733
C42	C	1.405510	1.395389	1.006733
C43	C	0.905554	0.505545	0.780765
C44	C	1.405554	1.005545	1.280765
C45	C	0.905574	0.505502	0.897542
C46	C	1.405574	1.005502	1.397542
C47	C	0.640380	0.573011	0.573667
C48	C	1.140380	1.073011	1.073667
C49	C	0.574944	0.572985	0.573713
C50	C	1.074944	1.072985	1.073713
C51	C	0.542210	0.505710	0.506657
C52	C	1.042210	1.005710	1.006657
C53	C	0.574917	0.438436	0.439568
C54	C	1.074917	0.938436	0.939568
C55	C	0.640351	0.438456	0.439531
C56	C	1.140351	0.938456	0.939531
C57	C	0.438486	0.497273	0.412075
C58	C	0.938486	0.997273	0.912075
C59	C	0.373053	0.497260	0.412110
C60	C	0.873053	0.997260	0.912110
C61	C	0.340390	0.505641	0.506773
C62	C	0.840390	1.005641	1.006773
C63	C	0.373167	0.514057	0.601404
C64	C	0.873167	1.014057	1.101404
C65	C	0.438601	0.514077	0.601366
C66	C	0.938601	1.014077	1.101366
C67	C	0.471258	0.505680	0.506691
C68	C	0.971258	1.005680	1.006691
C69	C	0.236738	0.572877	0.573914
C70	C	0.736738	1.072877	1.073914
C71	C	0.171302	0.572844	0.573963
C72	C	0.671302	1.072844	1.073963
C73	C	0.171276	0.438301	0.439808
C74	C	0.671276	0.938301	0.939808
C75	C	0.236711	0.438328	0.439769
C76	C	0.736711	0.938328	0.939769
C77	C	0.269438	0.505622	0.506820
C78	C	0.769438	1.005622	1.006820
C79	C	1.068931	0.505590	0.506855
C80	C	1.568931	1.005590	1.006855
C81	C	1.138572	0.505567	0.506907
C82	C	1.638572	1.005567	1.006907
C83	C	0.905563	0.231612	0.506779
C84	C	1.405563	0.731612	1.006779
C85	C	0.905587	0.114835	0.506799
C86	C	1.405587	0.614835	1.006799
C87	C	0.945618	0.950228	0.439643
C88	C	1.445618	1.450228	0.939643
C89	C	0.945658	1.059952	0.439678
C90	C	1.445658	1.559952	0.939678
C91	C	0.865477	1.059989	0.573896
C92	C	1.365477	1.559989	1.073896
C93	C	0.865441	0.950267	0.573865
C94	C	1.365441	1.450267	1.073865
C95	C	0.905497	0.505670	0.233764
C96	C	1.405497	1.005670	0.733764
C97	C	0.905598	0.505417	0.116988
C98	C	1.405598	1.005417	0.616988
C99	C	0.945664	0.438281	0.952447
C100	C	1.445664	0.938281	1.452447
C101	C	0.945675	0.438236	1.062171
C102	C	1.445675	0.938236	1.562171
C103	C	0.865504	0.572641	1.062075
C104	C	1.365504	1.072641	1.562075
C105	C	0.865491	0.572680	0.952353
C106	C	1.365491	1.072680	1.452353
H107	H	0.667022	0.627805	0.628267
H108	H	1.167022	1.127805	1.128267
F109	F	0.136442	0.366695	0.368447
F110	F	0.636442	0.866695	0.868447
F111	F	0.822848	0.644136	1.120418
F112	F	1.322848	1.144136	1.620418
F113	F	0.822834	1.118404	0.645337
F114	F	1.322834	1.618404	1.145337
F115	F	0.822753	0.891901	0.645280
F116	F	1.322753	1.391901	1.145280
F117	F	0.988347	1.118310	0.368274
F118	F	1.488347	1.618310	0.868274
F119	F	0.988323	0.366781	0.894117
F120	F	1.488323	0.866781	1.394117
F121	F	0.988348	0.366697	1.120601
F122	F	1.488348	0.866697	1.620601
F123	F	0.473483	0.523029	0.702076
F124	F	0.973483	1.023029	1.202076
H125	H	0.666974	0.383681	0.384903
H126	H	1.166974	0.883681	0.884903
H127	H	0.346371	0.490415	0.335056
H128	H	0.846371	0.990415	0.835056
H129	H	0.548316	0.627756	0.628345
H130	H	1.048316	1.127756	1.128345
F131	F	0.988264	0.891826	0.368196
F132	F	1.488264	1.391826	0.868196
F133	F	0.271571	0.644491	0.645280
F134	F	0.771571	1.144491	1.145280
H135	H	0.346574	0.520879	0.678488
H136	H	0.846574	1.020879	1.178488
F137	F	0.136501	0.644431	0.645372
F138	F	0.636501	1.144431	1.145372
H139	H	0.832840	0.627418	0.907648
H140	H	1.332840	1.127418	1.407648
F141	F	0.540078	0.366833	0.368207
F142	F	1.040078	0.866833	0.868207
F143	F	0.271513	0.366742	0.368365
F144	F	0.771513	0.866742	0.868365
H145	H	0.465075	0.490444	0.334983
H146	H	0.965075	0.990444	0.834983
