data_functionalizedCrystal
_audit_creation_method	'MofGen! by Chris Wilmer'
_symmetry_space_group_name_H-M	'P1'
_symmetry_Int_Tables_number	1
_symmetry_cell_setting	triclinic
loop_
_symmetry_equiv_pos_as_xyz
  x,y,z
_cell_length_a	17.639617
_cell_length_b	16.120444
_cell_length_c	17.640968
_cell_angle_alpha	97.806502
_cell_angle_beta	109.666032
_cell_angle_gamma	104.620503
loop_
_atom_site_label
_atom_site_type_symbol
_atom_site_fract_x
_atom_site_fract_y
_atom_site_fract_z
Zn1	Zn	1.358807	0.110278	0.716845
Zn2	Zn	1.323832	-0.064503	0.585974
Zn3	Zn	1.190264	0.039621	0.553935
Zn4	Zn	1.213924	-0.064421	0.695853
O5	O	1.271706	0.005244	0.638152
O6	O	1.470699	0.116629	0.721679
O7	O	1.281574	-0.080294	0.467560
O8	O	1.217356	0.165683	0.570922
O9	O	1.445003	-0.011782	0.625528
O10	O	1.341184	0.217594	0.690612
O11	O	1.183442	-0.003795	0.444021
O12	O	1.076870	-0.003716	0.550567
O13	O	1.257682	-0.011643	0.812802
O14	O	1.094253	-0.080156	0.654834
O15	O	1.364127	0.116707	0.828224
O16	O	1.304517	-0.181181	0.605173
O17	O	1.223769	-0.181121	0.685901
C18	C	1.055346	-0.049595	0.596946
C19	C	0.962789	-0.073070	0.579338
C20	C	0.725308	0.183653	0.772118
C21	C	0.638332	0.161569	0.755557
C22	C	0.611572	0.027993	0.655278
C23	C	0.698547	0.050063	0.671833
C24	C	0.755409	0.127895	0.730254
C25	C	0.728648	-0.005694	0.629969
C26	C	0.815615	0.016377	0.646520
C27	C	0.872482	0.094206	0.704936
C28	C	0.842376	0.149966	0.746805
C29	C	0.671784	-0.083522	0.571545
C30	C	0.701885	-0.139280	0.529680
C31	C	0.788855	-0.117212	0.546236
C32	C	0.845721	-0.039383	0.604651
C33	C	0.818960	-0.172973	0.504367
C34	C	0.905928	-0.150901	0.520918
C35	C	0.932688	-0.017312	0.621203
C36	C	1.262941	-0.211396	0.646758
C37	C	1.259274	-0.304050	0.650481
C38	C	1.290974	-0.514944	0.619051
C39	C	1.252595	-0.473676	0.657290
C40	C	1.256312	-0.379287	0.653500
C41	C	1.287258	-0.609341	0.622840
C42	C	1.488912	0.060296	0.679519
C43	C	1.581472	0.083756	0.697147
C44	C	1.317445	0.060423	0.850942
C45	C	1.336936	0.083937	0.941621
C46	C	1.280532	0.222740	0.629535
C47	C	1.284293	0.315424	0.625863
C48	C	1.226196	-0.049648	0.426196
C49	C	1.206876	-0.072886	0.335539
C50	C	1.123972	-0.172855	1.199708
C51	C	1.142305	-0.150745	1.284917
C52	C	1.253136	-0.017105	1.300965
C53	C	1.234810	-0.039201	1.215755
C54	C	1.170228	-0.117078	1.165133
C55	C	1.281065	0.016576	1.181180
C56	C	1.262743	-0.005522	1.095978
C57	C	1.198165	-0.083396	1.045351
C58	C	1.151905	-0.139176	1.079931
C59	C	1.345651	0.094449	1.231804
C60	C	1.391907	0.150226	1.197229
C61	C	1.373581	0.128132	1.112025
C62	C	1.309003	0.050257	1.061398
C63	C	1.419841	0.183911	1.077445
C64	C	1.401519	0.161813	0.992243
C65	C	1.290681	0.028160	0.976196
H66	H	0.930436	-0.196305	0.486828
O67	O	0.987998	0.058327	0.677860
C68	C	1.030486	0.113008	0.638925
H69	H	1.029027	0.070964	0.580694
H70	H	0.997550	0.164008	0.621229
C71	C	1.125153	0.212281	0.770483
C72	C	1.123367	0.160640	0.698965
H73	H	1.182445	0.241666	0.807519
H74	H	1.096526	0.175443	0.796714
H75	H	1.097701	0.254774	0.755725
H76	H	1.150808	0.118142	0.713723
H77	H	1.152000	0.197472	0.672738
O78	O	1.097468	-0.204847	1.318641
C79	C	1.127468	-0.168633	1.404694
H80	H	1.195345	-0.122022	1.427485
H81	H	1.085076	-0.130471	1.417705
C82	C	1.042444	-0.300839	1.422339
C83	C	1.125814	-0.243596	1.450332
H84	H	1.041421	-0.347079	1.450491
H85	H	1.022229	-0.325236	1.364363
H86	H	1.007127	-0.269027	1.433183
H87	H	1.161127	-0.275406	1.439479
H88	H	1.146035	-0.219206	1.508308
O89	O	1.180516	-0.104831	0.962614
C90	C	1.253326	-0.113424	0.950185
H91	H	1.312431	-0.074285	1.007848
H92	H	1.249033	-0.186086	0.938148
C93	C	1.186225	-0.125599	0.804151
C94	C	1.258819	-0.077521	0.874971
H95	H	1.189613	-0.103457	0.757754
H96	H	1.137170	-0.119813	0.812523
H97	H	1.182656	-0.186148	0.794132
H98	H	1.262382	-0.016976	0.884995
H99	H	1.307876	-0.083296	0.866599
H100	H	1.216945	-0.509235	0.692874
O101	O	0.646665	-0.214816	0.472823
C102	C	0.651188	-0.212172	0.394858
H103	H	0.676908	-0.140533	0.392738
H104	H	0.695274	-0.249577	0.384852
C105	C	0.530243	-0.343515	0.328678
C106	C	0.561826	-0.255527	0.326071
H107	H	0.475122	-0.370262	0.286246
H108	H	0.527197	-0.345300	0.381204
H109	H	0.566989	-0.374675	0.320342
H110	H	0.525087	-0.224366	0.334418
H111	H	0.564864	-0.253738	0.273544
H112	H	1.099297	-0.202576	1.038706
O113	O	1.454582	0.225955	1.246305
C114	C	1.435260	0.299050	1.218739
H115	H	1.390015	0.276620	1.150715
H116	H	1.403896	0.328716	1.257429
C117	C	1.573210	0.396669	1.311803
C118	C	1.517645	0.369121	1.228252
H119	H	1.624028	0.439895	1.317673
H120	H	1.586227	0.347425	1.330377
H121	H	1.547063	0.421386	1.344035
H122	H	1.543788	0.344396	1.196023
H123	H	1.504634	0.418363	1.209672
H124	H	1.326621	-0.479389	0.583469
O125	O	0.609037	0.215787	0.796105
C126	C	0.550912	0.244904	0.738022
H127	H	0.563511	0.240141	0.678552
H128	H	0.483352	0.201665	0.723656
C129	C	0.546192	0.347402	0.847359
C130	C	0.561670	0.341559	0.774320
H131	H	0.552824	0.407022	0.869749
H132	H	0.585349	0.327783	0.886491
H133	H	0.489892	0.311365	0.835377
H134	H	0.617972	0.377587	0.786304
H135	H	0.522523	0.361186	0.735190
H136	H	0.565263	-0.035375	0.607710
H137	H	1.238072	-0.035240	0.934971
H138	H	1.071364	-0.236255	1.158483
O139	O	0.780432	0.259305	0.828875
C140	C	0.735222	0.303775	0.862304
H141	H	0.666161	0.282329	0.816979
H142	H	0.738055	0.286841	0.923670
C143	C	0.860124	0.430535	0.932821
C144	C	0.775303	0.404200	0.877148
H145	H	0.884849	0.492482	0.941982
H146	H	0.890584	0.400574	0.910302
H147	H	0.862473	0.416417	0.983953
H148	H	0.772957	0.418309	0.826014
H149	H	0.744844	0.434166	0.899659
H150	H	1.305721	0.046301	1.342193
O151	O	1.363450	0.115767	1.314577
C152	C	1.387731	0.048662	1.350288
H153	H	1.360991	-0.015711	1.300385
H154	H	1.460005	0.068322	1.378625
C155	C	1.385588	0.114824	1.479717
C156	C	1.352739	0.035758	1.418427
H157	H	1.364007	0.106866	1.521752
H158	H	1.369233	0.160036	1.455660
H159	H	1.445815	0.131198	1.503322
H160	H	1.292515	0.019390	1.394816
H161	H	1.369084	-0.009457	1.442482
O162	O	1.482520	0.259636	1.126523
C163	C	1.463207	0.332738	1.098965
H164	H	1.417961	0.310316	1.030941
H165	H	1.431849	0.362407	1.137660
C166	C	1.601164	0.430342	1.192030
C167	C	1.545597	0.402803	1.108480
H168	H	1.651986	0.473564	1.197902
H169	H	1.614175	0.381093	1.210599
H170	H	1.575022	0.455060	1.224266
H171	H	1.571736	0.378076	1.076247
H172	H	1.532593	0.452050	1.089906
H173	H	0.943295	0.112177	0.718408
H174	H	0.888677	0.213342	0.794380
H175	H	0.600968	-0.101476	0.558052
H176	H	1.439183	0.207234	0.964091
H177	H	0.772650	-0.236338	0.456795
