data_functionalizedCrystal
_audit_creation_method	'MofGen! by Chris Wilmer'
_symmetry_space_group_name_H-M	'P1'
_symmetry_Int_Tables_number	1
_symmetry_cell_setting	triclinic
loop_
_symmetry_equiv_pos_as_xyz
  x,y,z
_cell_length_a	10.654554
_cell_length_b	17.019370
_cell_length_c	9.730223
_cell_angle_alpha	93.876900
_cell_angle_beta	90.001137
_cell_angle_gamma	83.939410
loop_
_atom_site_label
_atom_site_type_symbol
_atom_site_fract_x
_atom_site_fract_y
_atom_site_fract_z
O1	O	1.666096	0.110807	-0.101138
O2	O	2.166096	0.610807	0.398862
O3	O	1.300453	0.121359	-0.099902
O4	O	1.800453	0.621359	0.400098
O5	O	1.493474	0.001307	-0.114089
O6	O	1.993474	0.501307	0.385911
O7	O	1.473074	0.230858	-0.086951
O8	O	1.973074	0.730858	0.413049
O9	O	1.493472	0.001310	0.114491
O10	O	1.993472	0.501310	0.614491
O11	O	1.300451	0.121362	0.128678
O12	O	1.800451	0.621362	0.628678
O13	O	1.666094	0.110810	0.127442
O14	O	2.166094	0.610810	0.627442
Zn15	Zn	1.483272	0.116086	0.164352
Zn16	Zn	1.983272	0.616086	0.664352
Zn17	Zn	1.483275	0.116082	-0.136812
Zn18	Zn	1.983275	0.616082	0.363188
O19	O	1.473072	0.230861	0.141629
O20	O	1.973072	0.730861	0.641629
C21	C	1.253666	0.120585	0.014295
C22	C	1.753666	0.620585	0.514295
C23	C	1.114259	0.118264	0.014016
C24	C	1.614259	0.618264	0.514016
C25	C	1.492699	-0.028084	-0.003277
C26	C	1.992699	0.471916	0.496723
C27	C	1.490379	-0.115666	-0.013640
C28	C	1.990379	0.384334	0.486360
C29	C	0.902678	0.186771	0.022127
C30	C	1.402678	0.686771	0.522127
C31	C	1.033665	0.188952	0.022374
C32	C	1.533665	0.688952	0.522374
C33	C	1.063860	0.045391	0.005395
C34	C	1.563860	0.545391	0.505395
C35	C	0.932875	0.043211	0.005139
C36	C	1.432875	0.543211	0.505139
C37	C	0.822090	0.257464	0.030501
C38	C	1.322090	0.757464	0.530501
C39	C	0.872480	0.330337	0.039118
C40	C	1.372480	0.830337	0.539118
C41	C	1.003467	0.332518	0.039366
C42	C	1.503467	0.832518	0.539366
C43	C	1.084065	0.261825	0.030995
C44	C	1.584065	0.761825	0.530995
C45	C	1.489284	-0.156818	0.106084
C46	C	1.989284	0.343182	0.606084
C47	C	1.487112	-0.239111	0.096335
C48	C	1.987112	0.260889	0.596335
C49	C	1.486025	-0.280251	-0.033140
C50	C	1.986025	0.219749	0.466860
C51	C	1.487123	-0.239094	-0.152874
C52	C	1.987123	0.260906	0.347126
C53	C	1.489305	-0.156803	-0.143123
C54	C	1.989305	0.343197	0.356877
C55	C	1.479447	-0.528717	-0.068815
C56	C	1.979447	-0.028717	0.431185
C57	C	1.477262	-0.611014	-0.078556
C58	C	1.977262	-0.111014	0.421444
C59	C	1.477253	-0.611026	0.170653
C60	C	1.977253	-0.111026	0.670653
C61	C	1.479427	-0.528733	0.180392
C62	C	1.979427	-0.028733	0.680392
C63	C	1.480532	-0.487583	0.060659
C64	C	1.980532	0.012417	0.560659
C65	C	1.483801	-0.364368	-0.043109
C66	C	1.983801	0.135632	0.456891
C67	C	1.482765	-0.403469	0.070629
C68	C	1.982765	0.096531	0.570629
C69	C	1.712880	0.111584	0.013242
C70	C	2.212880	0.611584	0.513242
C71	C	1.852287	0.113904	0.013512
C72	C	2.352287	0.613904	0.513512
C73	C	1.473847	0.260253	0.030814
C74	C	1.973847	0.760253	0.530814
C75	C	1.476167	0.347835	0.041168
C76	C	1.976167	0.847835	0.541168
N77	N	1.483279	0.116088	0.369889
N78	N	1.983279	0.616088	0.869889
N79	N	1.483277	0.116074	-0.342350
N80	N	1.983277	0.616074	0.157650
C81	C	1.568770	0.062948	0.435535
C82	C	2.068770	0.562948	0.935535
C83	C	1.568767	0.062938	0.579417
C84	C	2.068767	0.562938	1.079417
C85	C	1.397777	0.169217	0.591994
C86	C	1.897777	0.669217	1.091994
C87	C	1.397775	0.169222	0.448115
C88	C	1.897775	0.669222	0.948115
C89	C	1.654274	0.009814	0.357309
C90	C	2.154274	0.509814	0.857309
C91	C	1.739774	-0.043330	0.422955
C92	C	2.239774	0.456670	0.922955
C93	C	1.739771	-0.043340	0.566836
C94	C	2.239771	0.456660	1.066836
C95	C	1.654268	0.009795	0.645073
C96	C	2.154268	0.509795	1.145073
H97	H	0.806850	0.387892	0.045923
H98	H	1.306850	0.887892	0.545923
H99	H	0.891847	-0.016124	-0.001879
H100	H	1.391847	0.483876	0.498121
H101	H	1.490148	-0.123327	0.211517
H102	H	1.990148	0.376673	0.711517
O103	O	1.654283	0.009821	0.202123
O104	O	2.154283	0.509821	0.702123
H105	H	1.580475	0.055703	0.169616
H106	H	2.080475	0.555703	0.669616
H107	H	1.482913	-0.397872	-0.148528
H108	H	1.982913	0.102128	0.351472
O109	O	1.480621	-0.484348	-0.197961
O110	O	1.980621	0.015652	0.302039
H111	H	1.567173	-0.453425	-0.200275
H112	H	2.067173	0.046575	0.299725
O113	O	1.490469	-0.112414	-0.272256
O114	O	1.990469	0.387586	0.227744
H115	H	1.575595	-0.134769	-0.334658
H116	H	2.075595	0.365231	0.165342
H117	H	1.476364	-0.644506	-0.183996
H118	H	1.976364	-0.144506	0.316004
H119	H	1.486226	-0.272614	0.193827
H120	H	1.986226	0.227386	0.693827
O121	O	1.654270	0.009784	0.800261
O122	O	2.154270	0.509784	1.300261
H123	H	1.580455	0.055658	0.843629
H124	H	2.080455	0.555658	1.343629
O125	O	1.057825	0.411111	0.048671
O126	O	1.557825	0.911111	0.548671
H127	H	0.979778	0.459897	0.054465
H128	H	1.479778	0.959897	0.554465
H129	H	1.129492	-0.012163	-0.001418
H130	H	1.629492	0.487837	0.498582
H131	H	1.328165	0.212478	0.655703
H132	H	1.828165	0.712478	1.155703
O133	O	1.483948	-0.359102	0.210274
O134	O	1.983948	0.140898	0.710274
H135	H	1.397980	-0.368338	0.268930
H136	H	1.897980	0.131662	0.768930
H137	H	1.809381	-0.086595	0.359247
H138	H	2.309381	0.413405	0.859247
H139	H	1.480339	-0.495244	0.285824
H140	H	1.980339	0.004756	0.785824
O141	O	1.225346	0.264174	0.031279
O142	O	1.725346	0.764174	0.531279
H143	H	1.266406	0.233765	-0.065481
H144	H	1.766406	0.733765	0.434519
O145	O	1.305576	0.226540	0.377294
O146	O	1.805576	0.726540	0.877294
H147	H	1.246135	0.263496	0.455860
H148	H	1.746135	0.763496	0.955860
O149	O	1.476096	-0.655409	0.299791
O150	O	1.976096	-0.155409	0.799791
H151	H	1.474414	-0.719544	0.271265
H152	H	1.974414	-0.219544	0.771265
H153	H	0.715432	0.255696	0.030305
H154	H	1.215432	0.755696	0.530305
O155	O	1.485943	-0.283459	-0.292527
O156	O	1.985943	0.216541	0.207473
H157	H	1.484226	-0.347594	-0.279197
H158	H	1.984226	0.152406	0.220803
H159	H	1.809379	-0.086617	0.620283
H160	H	2.309379	0.413383	1.120283
