data_functionalizedCrystal
_audit_creation_method	'MofGen! by Chris Wilmer'
_symmetry_space_group_name_H-M	'P1'
_symmetry_Int_Tables_number	1
_symmetry_cell_setting	triclinic
loop_
_symmetry_equiv_pos_as_xyz
  x,y,z
_cell_length_a	12.594517
_cell_length_b	12.594516
_cell_length_c	19.805399
_cell_angle_alpha	89.979203
_cell_angle_beta	89.988081
_cell_angle_gamma	90.016010
loop_
_atom_site_label
_atom_site_type_symbol
_atom_site_fract_x
_atom_site_fract_y
_atom_site_fract_z
Zn1	Zn	1.627242	-0.423768	-0.382613
Zn2	Zn	1.627140	-0.601762	-0.269438
Zn3	Zn	1.449253	-0.423797	-0.269453
Zn4	Zn	1.449228	-0.601705	-0.382600
O5	O	1.538216	-0.512758	-0.326026
O6	O	1.776174	-0.447391	-0.367600
O7	O	1.603511	-0.578190	-0.174724
O8	O	1.472917	-0.274848	-0.284476
O9	O	1.776099	-0.578162	-0.284451
O10	O	1.603684	-0.274826	-0.367614
O11	O	1.472818	-0.447441	-0.174734
O12	O	1.300304	-0.447386	-0.284463
O13	O	1.472874	-0.578065	-0.477319
O14	O	1.300285	-0.578093	-0.367592
O15	O	1.603660	-0.447336	-0.477328
O16	O	1.603487	-0.750700	-0.284438
O17	O	1.472775	-0.750658	-0.367578
C18	C	1.261675	-0.512737	-0.326028
C19	C	1.143369	-0.512754	-0.326045
C20	C	1.003373	-0.583975	-0.371175
C21	C	1.074148	-0.609873	-0.309402
C22	C	1.074166	-0.486903	-0.387811
C23	C	1.003358	-0.538737	-0.264219
C24	C	1.003370	-0.415722	-0.342670
C25	C	1.074113	-0.441583	-0.280854
C26	C	1.538146	-0.789299	-0.326020
C27	C	1.538213	-0.907604	-0.326039
C28	C	1.467113	-0.976873	-0.371227
C29	C	1.441183	-1.047730	-0.309467
C30	C	1.564240	-1.047547	-0.387810
C31	C	1.512233	-0.976902	-0.264247
C32	C	1.635334	-0.976714	-0.342631
C33	C	1.609442	-1.047538	-0.280829
C34	C	1.815837	-0.512779	-0.326025
C35	C	1.934142	-0.512789	-0.326025
C36	C	1.538275	-0.512691	-0.502569
C37	C	1.538301	-0.512662	-0.577801
C38	C	1.538315	-0.235137	-0.326048
C39	C	1.538357	-0.116832	-0.326057
C40	C	1.606403	-0.444588	-0.613151
C41	C	1.606414	-0.444557	-0.683840
C42	C	1.538327	-0.512607	-0.719177
C43	C	1.470218	-0.580684	-0.683822
C44	C	1.470202	-0.580709	-0.613134
C45	C	1.470278	-0.580585	-0.968895
C46	C	1.470301	-0.580557	-1.039587
C47	C	1.606489	-0.444433	-1.039600
C48	C	1.606474	-0.444458	-0.968913
C49	C	1.538361	-0.512531	-0.933564
C50	C	1.538348	-0.512562	-0.856916
C51	C	1.538344	-0.512582	-0.795824
C52	C	1.538218	-0.512748	-0.150170
C53	C	1.538398	-0.512477	-0.074939
H54	H	1.105236	-0.691946	-0.295327
O55	O	1.343270	-1.084823	-0.292633
C56	C	1.204417	-1.089504	-0.208962
C57	C	1.315301	-1.047407	-0.227942
H58	H	1.181779	-1.059289	-0.156652
H59	H	1.143763	-1.060453	-0.247483
H60	H	1.205652	-1.180012	-0.208684
H61	H	1.314169	-0.956902	-0.228213
H62	H	1.375908	-1.076540	-0.189416
O63	O	1.590380	-1.084748	-0.450086
C64	C	1.620781	-1.238668	-0.519681
C65	C	1.591153	-1.196687	-0.449124
H66	H	1.621437	-1.329174	-0.518923
H67	H	1.560007	-1.209716	-0.558157
H68	H	1.702915	-1.208177	-0.534188
H69	H	1.509044	-1.227159	-0.434554
H70	H	1.651994	-1.225630	-0.410690
H71	H	1.406878	-0.945845	-0.409386
O72	O	0.966191	-0.317810	-0.359361
C73	C	0.862480	-0.166540	-0.324792
C74	C	0.904539	-0.277403	-0.305786
H75	H	0.812607	-0.133847	-0.281493
H76	H	0.932193	-0.110971	-0.334825
H77	H	0.811439	-0.172764	-0.372156
H78	H	0.955564	-0.271281	-0.258412
H79	H	0.834777	-0.332930	-0.295796
H80	H	1.717382	-0.945499	-0.356680
H81	H	0.972386	-0.560717	-0.211961
O82	O	1.404104	-0.646513	-1.073991
C83	C	1.260387	-0.660778	-1.153773
C84	C	1.335294	-0.585967	-1.114864
H85	H	1.204721	-0.611856	-1.186818
H86	H	1.309188	-0.716409	-1.186906
H87	H	1.211749	-0.709461	-1.116355
H88	H	1.383949	-0.537215	-1.152233
H89	H	1.286433	-0.530407	-1.081720
O90	O	1.111326	-0.460977	-0.450153
C91	C	1.216578	-0.515058	-0.545753
C92	C	1.174551	-0.544552	-0.475163
H93	H	1.267723	-0.582602	-0.565989
H94	H	1.146849	-0.501045	-0.581350
H95	H	1.266338	-0.439646	-0.542158
H96	H	1.124808	-0.619977	-0.478694
H97	H	1.244328	-0.558496	-0.439594
O98	O	1.485893	-0.939866	-0.201965
C99	C	1.456332	-0.786118	-0.132072
C100	C	1.486155	-0.827919	-0.202638
H101	H	1.456555	-0.695605	-0.132589
H102	H	1.373831	-0.815927	-0.117832
H103	H	1.516610	-0.815889	-0.093535
H104	H	1.425948	-0.798166	-0.241222
H105	H	1.568681	-0.798119	-0.216820
O106	O	1.681127	-1.084281	-0.235108
C107	C	1.734764	-1.089726	-0.118376
C108	C	1.653499	-1.048062	-0.170083
H109	H	1.712469	-1.060441	-0.065794
H110	H	1.734793	-1.180240	-0.118971
H111	H	1.817247	-1.059280	-0.132099
H112	H	1.570977	-1.078429	-0.156396
H113	H	1.653562	-0.957549	-0.169479
H114	H	1.414777	-0.636087	-0.712599
H115	H	0.972313	-0.644236	-0.409300
O116	O	1.110896	-0.369869	-0.235172
C117	C	1.116303	-0.316110	-0.118470
C118	C	1.074592	-0.397407	-0.170132
H119	H	1.086949	-0.338333	-0.065875
H120	H	1.206817	-0.316131	-0.119066
H121	H	1.085960	-0.233625	-0.132235
H122	H	1.104856	-0.479931	-0.156402
H123	H	0.984079	-0.397293	-0.169526
O124	O	1.672653	-0.378634	-0.578796
C125	C	1.816296	-0.364337	-0.498963
C126	C	1.741355	-0.439158	-0.537837
H127	H	1.871846	-0.413240	-0.465827
H128	H	1.865047	-0.315692	-0.536342
H129	H	1.767413	-0.308672	-0.465903
H130	H	1.790156	-0.494887	-0.570898
H131	H	1.692600	-0.487729	-0.500422
O132	O	1.672799	-0.378409	-1.073910
C133	C	1.853873	-0.326709	-1.095517
C134	C	1.778900	-0.401557	-1.056635
H135	H	1.939670	-0.345382	-1.081554
H136	H	1.842282	-0.338376	-1.152117
H137	H	1.835156	-0.240895	-1.081630
H138	H	1.797570	-0.487400	-1.070466
H139	H	1.790505	-0.389798	-1.000044
O140	O	1.672672	-0.378400	-0.718074
C141	C	1.807721	-0.243347	-0.710628
C142	C	1.732752	-0.318237	-0.671774
H143	H	1.856299	-0.194669	-0.673211
H144	H	1.863432	-0.292159	-0.743702
H145	H	1.758869	-0.187716	-0.743742
H146	H	1.781518	-0.373882	-0.638624
H147	H	1.677038	-0.269359	-0.638742
H148	H	1.414736	-0.636131	-0.584353
O149	O	1.672498	-0.378195	-0.934623
C150	C	1.724251	-0.197148	-0.913058
C151	C	1.649399	-0.272079	-0.951917
H152	H	1.705618	-0.111339	-0.927037
H153	H	1.712544	-0.208758	-0.856454
H154	H	1.810067	-0.215891	-0.926951
H155	H	1.563555	-0.253383	-0.938080
H156	H	1.661198	-0.260456	-1.008511
O157	O	1.404070	-0.646795	-0.934668
C158	C	1.268902	-0.781728	-0.942121
C159	C	1.343862	-0.706825	-0.980971
H160	H	1.220189	-0.830266	-0.979540
H161	H	1.317661	-0.837480	-0.909032
H162	H	1.213308	-0.732828	-0.909021
H163	H	1.399470	-0.755639	-1.014107
H164	H	1.295036	-0.651070	-1.014017
