data_functionalizedCrystal
_audit_creation_method	'MofGen! by Chris Wilmer'
_symmetry_space_group_name_H-M	'P1'
_symmetry_Int_Tables_number	1
_symmetry_cell_setting	triclinic
loop_
_symmetry_equiv_pos_as_xyz
  x,y,z
_cell_length_a	18.426585
_cell_length_b	14.628931
_cell_length_c	14.628931
_cell_angle_alpha	59.999836
_cell_angle_beta	89.999638
_cell_angle_gamma	60.001356
loop_
_atom_site_label
_atom_site_type_symbol
_atom_site_fract_x
_atom_site_fract_y
_atom_site_fract_z
Zr1	Zr	0.699112	1.000616	-0.119985
O2	O	0.583236	1.191315	-0.265942
O3	O	0.734634	0.809912	-0.075241
O4	O	0.734635	1.000618	-0.265947
O5	O	0.583235	1.000610	0.075196
O6	O	0.854060	1.000624	-0.265950
O7	O	0.583236	1.000610	-0.075236
O8	O	0.854060	0.659487	0.075188
O9	O	0.583236	1.341747	-0.265942
O10	O	0.838910	0.888358	-0.056161
O11	O	0.749784	0.888353	0.056108
O12	O	0.749784	1.112884	-0.168424
O13	O	0.660658	1.112879	-0.056156
Zr14	Zr	0.889582	1.000626	0.119931
Zr15	Zr	0.889583	1.000626	-0.119991
Zr16	Zr	0.699112	1.000616	0.119937
Zr17	Zr	0.699112	1.240537	-0.119985
Zr18	Zr	0.889582	0.760704	0.119931
O19	O	0.854060	1.191330	0.075187
O20	O	0.854061	1.191330	-0.265951
O21	O	0.583236	1.191315	0.075196
O22	O	1.005458	0.809927	0.265888
O23	O	1.005459	0.809927	-0.075249
O24	O	0.734634	0.809912	0.265897
O25	O	1.005459	1.000632	-0.075250
O26	O	0.854060	1.000624	0.265893
O27	O	0.734634	1.000618	0.265897
O28	O	1.005459	1.000632	0.075182
O29	O	0.734635	1.341755	-0.265947
O30	O	0.854059	0.659487	0.265893
O31	O	1.005458	0.659495	0.265888
O32	O	1.005458	0.659495	0.075183
O33	O	0.583236	1.341747	-0.075237
O34	O	0.734635	1.341755	-0.075241
O35	O	0.838910	0.888358	0.168370
O36	O	0.928036	0.888362	0.056102
O37	O	0.838910	1.112889	-0.056161
O38	O	0.749784	1.112884	0.056107
C39	C	0.794347	0.700516	-0.000026
C40	C	0.794347	0.598663	-0.000026
C41	C	0.838559	0.553256	-0.055719
C42	C	0.838560	0.447985	-0.055720
C43	C	0.556098	1.000608	-0.000019
C44	C	0.475238	1.000604	-0.000017
C45	C	0.179123	1.000643	-0.000036
C46	C	0.261509	1.000637	-0.000034
C47	C	0.327178	1.000623	-0.000027
C48	C	0.409569	1.000618	-0.000023
C49	C	1.032597	1.000634	-0.000035
C50	C	1.113456	1.000638	-0.000037
C51	C	0.794348	1.000621	-0.300132
C52	C	0.794348	1.000621	-0.401985
C53	C	0.794347	1.300726	-0.000027
C54	C	0.794348	1.402579	-0.000027
C55	C	0.731822	1.000618	-0.447392
C56	C	0.731820	1.000618	-0.552663
C57	C	0.794347	1.000621	0.300078
C58	C	0.794346	1.000621	0.401931
C59	C	1.032596	0.700528	-0.000034
C60	C	1.113456	0.598680	-0.000037
C61	C	0.794346	0.700516	0.300079
C62	C	0.794346	0.598663	0.401932
C63	C	1.032596	0.700528	0.300071
C64	C	1.113455	0.598680	0.401922
C65	C	0.556098	1.300713	-0.300125
C66	C	0.475239	1.402562	-0.401975
C67	C	0.556098	1.300713	-0.000020
C68	C	0.475238	1.402562	-0.000017
C69	C	0.794348	1.300726	-0.300133
C70	C	0.794348	1.402579	-0.401986
C71	C	1.104906	0.550848	-0.058648
C72	C	1.180874	0.455164	-0.058672
C73	C	1.265393	0.407306	-0.000079
C74	C	1.273941	0.455147	0.058534
C75	C	1.197973	0.550836	0.058552
C76	C	1.197959	0.550853	0.391149
C77	C	1.273942	0.455169	0.486839
C78	C	1.265420	0.407306	0.593301
C79	C	1.180908	0.455142	0.604072
C80	C	1.104926	0.550832	0.508383
C81	C	0.390735	1.450400	-0.391203
C82	C	0.314752	1.546114	-0.486893
C83	C	0.323274	1.593982	-0.593355
C84	C	0.407787	1.546140	-0.604126
C85	C	0.483768	1.450434	-0.508436
C86	C	0.483789	1.450404	0.058584
C87	C	0.407820	1.546115	0.058582
C88	C	0.323301	1.593975	-0.000015
C89	C	0.314753	1.546130	-0.058623
C90	C	0.390721	1.450427	-0.058627
C91	C	0.838558	0.553256	0.503031
C92	C	0.838559	0.447985	0.608303
H93	H	0.678288	1.000622	-0.408338
O94	O	0.382286	1.404108	-0.287877
C95	C	0.291401	1.466857	-0.298911
H96	H	0.250889	1.563850	-0.384314
H97	H	0.280816	1.483363	-0.230282
H98	H	0.269005	1.404102	-0.291058
H99	H	1.173897	0.416223	-0.106402
O100	O	0.668070	1.000440	-0.599255
C101	C	0.708390	0.889068	-0.598912
H102	H	0.780268	0.851945	-0.594595
H103	H	0.670671	0.914108	-0.678773
H104	H	0.706835	0.811093	-0.523093
O105	O	1.206091	0.597442	0.287655
C106	C	1.120915	0.692184	0.205491
H107	H	1.070555	0.676460	0.242780
H108	H	1.121761	0.684418	0.131690
H109	H	1.101554	0.792282	0.175560
O110	O	0.232669	1.592736	-0.115710
C111	C	0.222913	1.648071	-0.230105
H112	H	0.271018	1.676803	-0.250877
H113	H	0.151843	1.737434	-0.283097
H114	H	0.237987	1.574724	-0.248844
O115	O	0.565802	1.404194	-0.519064
C116	C	0.575534	1.506329	-0.578085
H117	H	0.507137	1.602057	-0.630868
H118	H	0.615466	1.491929	-0.635007
H119	H	0.611869	1.507588	-0.516108
O120	O	0.749076	0.552281	0.056812
C121	C	0.658238	0.654310	0.013761
H122	H	0.650558	0.750091	-0.029124
H123	H	0.629761	0.639770	0.085110
H124	H	0.620940	0.655572	-0.049513
H125	H	1.342766	0.416168	0.106239
O126	O	1.022793	0.597255	0.518713
C127	C	0.976075	0.573821	0.466906
H128	H	1.005074	0.561928	0.401671
H129	H	0.902953	0.658804	0.424435
H130	H	0.982418	0.481784	0.532715
O131	O	0.232645	1.592771	-0.476472
C132	C	0.185901	1.726867	-0.528315
H133	H	0.235194	1.753074	-0.532738
H134	H	0.143906	1.754348	-0.477543
H135	H	0.140804	1.781612	-0.616584
O136	O	0.883656	0.599864	-0.112766
C137	C	0.849451	0.655314	-0.227184
H138	H	0.815429	0.612053	-0.236837
H139	H	0.906075	0.634429	-0.263090
H140	H	0.799192	0.764296	-0.274146
O141	O	0.749110	0.552114	0.391770
C142	C	0.683838	0.575536	0.443648
H143	H	0.703412	0.587529	0.508794
H144	H	0.678237	0.490502	0.486239
H145	H	0.617085	0.667514	0.377865
O146	O	0.858298	1.000342	-0.551294
C147	C	0.906384	0.888911	-0.440291
H148	H	0.863925	0.851884	-0.407494
H149	H	0.924327	0.913835	-0.385427
H150	H	0.969782	0.810908	-0.438189
H151	H	0.876409	0.408943	-0.103406
H152	H	1.327244	0.329389	-0.000101
O153	O	0.249553	1.686980	-0.686418
C154	C	0.275186	1.718952	-0.782703
H155	H	0.345311	1.692608	-0.760768
H156	H	0.227171	1.827113	-0.850279
H157	H	0.273802	1.662990	-0.814920
O158	O	0.416114	1.592365	-0.707516
C159	C	0.462909	1.490184	-0.719724
H160	H	0.504910	1.394494	-0.633559
H161	H	0.507999	1.504613	-0.770199
H162	H	0.413658	1.488818	-0.765286
O163	O	0.749107	0.449050	0.056878
C164	C	0.708018	0.386360	0.108684
H165	H	0.698760	0.346891	0.062783
H166	H	0.640456	0.458220	0.105508
H167	H	0.751612	0.303278	0.199651
O168	O	0.858257	1.000675	-0.448458
C169	C	0.916410	1.000639	-0.385780
H170	H	0.881033	1.041348	-0.337885
H171	H	0.937626	1.063056	-0.444716
H172	H	0.977593	0.897487	-0.324058
H173	H	1.036093	0.589813	-0.106375
H174	H	1.342749	0.416230	0.478049
O175	O	1.206444	0.597102	0.115600
C176	C	1.297335	0.534353	0.167286
H177	H	1.337838	0.437368	0.178860
H178	H	1.307941	0.517831	0.252425
H179	H	1.319721	0.597117	0.112370
H180	H	1.327296	0.329390	0.671208
H181	H	0.552601	1.411443	0.106308
O182	O	0.249578	1.687059	-0.000038
C183	C	0.249722	1.797769	-0.046654
H184	H	0.320674	1.768859	-0.038704
H185	H	0.221791	1.844070	-0.000118
H186	H	0.206821	1.869902	-0.138831
O187	O	1.172795	0.408454	0.707576
C188	C	1.257985	0.313760	0.789711
H189	H	1.308333	0.271941	0.752387
H190	H	1.257169	0.233225	0.863512
H191	H	1.277340	0.359540	0.819650
H192	H	0.383747	1.411477	-0.106344
O193	O	0.883859	0.401289	0.711742
C194	C	0.974687	0.345905	0.724081
H195	H	0.991179	0.317238	0.663447
H196	H	1.016729	0.256494	0.813591
H197	H	0.989601	0.419194	0.705187
H198	H	0.876406	0.592321	0.511650
O199	O	0.749315	0.449128	0.494498
C200	C	0.809087	0.425721	0.435688
H201	H	0.870332	0.413717	0.472336
H202	H	0.775386	0.510768	0.343605
H203	H	0.829873	0.333754	0.443567
H204	H	0.414798	1.585054	0.106312
