data_functionalizedCrystal
_audit_creation_method	'MofGen! by Chris Wilmer'
_symmetry_space_group_name_H-M	'P1'
_symmetry_Int_Tables_number	1
_symmetry_cell_setting	triclinic
loop_
_symmetry_equiv_pos_as_xyz
  x,y,z
_cell_length_a	8.559649
_cell_length_b	15.455313
_cell_length_c	16.992695
_cell_angle_alpha	87.152573
_cell_angle_beta	99.776556
_cell_angle_gamma	87.695567
loop_
_atom_site_label
_atom_site_type_symbol
_atom_site_fract_x
_atom_site_fract_y
_atom_site_fract_z
O1	O	2.123271	-0.072116	0.030218
O2	O	1.663199	-0.072121	-0.009966
O3	O	1.891390	-0.072112	0.124157
O4	O	1.895080	-0.072125	-0.103905
O5	O	1.878338	0.072150	0.116516
O6	O	1.650147	0.072140	-0.017608
O7	O	2.110219	0.072146	0.022577
Cu8	Cu	1.878991	0.085315	0.001787
Cu9	Cu	1.894427	-0.085291	0.010824
O10	O	1.882028	0.072136	-0.111547
C11	C	1.597532	0.000009	-0.016833
C12	C	1.421310	0.000007	-0.025897
N13	N	1.868146	0.205310	-0.004568
N14	N	1.905284	-0.205286	0.017186
C15	C	2.175886	0.000014	0.029443
C16	C	2.352109	0.000010	0.038508
C17	C	1.880119	0.000019	0.149263
C18	C	1.865961	0.000019	0.235455
C19	C	1.965127	0.250709	0.052396
C20	C	1.956941	0.341516	0.047583
C21	C	1.851780	0.386924	-0.014197
C22	C	1.754787	0.341519	-0.071164
C23	C	1.762967	0.250713	-0.066348
C24	C	1.816471	0.658504	-0.034965
C25	C	1.808303	0.749316	-0.039778
C26	C	2.010455	0.749307	0.078970
C27	C	2.018632	0.658499	0.083778
C28	C	1.921634	0.613102	0.026814
N29	N	1.843413	0.479744	-0.019119
N30	N	1.929994	0.520284	0.031740
C31	C	1.893299	0.000004	-0.136653
C32	C	1.907458	-0.000002	-0.222844
C33	C	2.002568	0.000021	0.293921
C34	C	1.989256	0.000013	0.374907
C35	C	1.839335	0.000008	0.397424
C36	C	1.702718	0.000003	0.338950
C37	C	1.716032	0.000005	0.257967
C38	C	1.784155	-0.000005	0.637699
C39	C	1.770851	-0.000004	0.718689
C40	C	2.057391	0.000004	0.754641
C41	C	2.070691	0.000011	0.673654
C42	C	1.934074	0.000002	0.615188
N43	N	1.825724	0.000002	0.480203
N44	N	1.947687	0.000001	0.532410
H45	H	1.345732	-0.000001	-0.087976
C46	C	1.633884	-0.000005	0.573390
C47	C	1.596860	0.074905	0.508806
C48	C	1.446584	0.074906	0.444490
C49	C	1.333331	-0.000004	0.444758
C50	C	1.370352	-0.074920	0.509344
C51	C	1.520628	-0.074921	0.573660
H52	H	1.680700	0.130362	0.508606
H53	H	1.419180	0.130364	0.396679
H54	H	1.222088	-0.000004	0.397147
H55	H	1.286512	-0.130378	0.509544
H56	H	1.548032	-0.130379	0.621471
H57	H	1.604791	0.000003	0.210363
H58	H	2.124650	0.000030	0.275596
H59	H	2.050768	0.213744	0.102701
H60	H	1.427680	0.000009	0.100583
H61	H	1.580649	-0.000006	0.357290
H62	H	2.035910	0.378479	0.093968
H63	H	1.722663	0.786283	-0.090091
C64	C	2.134302	0.608547	0.151738
C65	C	2.119215	0.621041	0.239527
C66	C	2.234889	0.571087	0.307485
C67	C	2.365649	0.508638	0.287654
C68	C	2.380742	0.496141	0.199861
C69	C	2.265068	0.546096	0.131903
H70	H	2.022413	0.667272	0.254211
H71	H	2.223715	0.580338	0.372476
H72	H	2.451278	0.471659	0.337960
H73	H	2.477544	0.449911	0.185177
H74	H	2.276242	0.536845	0.066913
C75	C	2.117137	0.799243	0.141634
C76	C	2.108149	0.899126	0.136345
C77	C	2.214831	0.949061	0.199014
C78	C	2.330501	0.899113	0.266971
C79	C	2.339494	0.799225	0.272262
C80	C	2.232812	0.749290	0.209593
H81	H	2.022518	0.936105	0.086037
H82	H	2.208173	1.023005	0.195097
H83	H	2.409473	0.936078	0.313363
H84	H	2.425124	0.762245	0.322571
H85	H	2.239469	0.675345	0.213510
C86	C	2.139522	0.000023	0.439223
C87	C	2.176566	-0.074888	0.503805
C88	C	2.326837	-0.074877	0.568123
C89	C	2.440064	0.000046	0.567859
C90	C	2.403023	0.074962	0.503274
C91	C	2.252752	0.074951	0.438956
H92	H	2.092746	-0.130355	0.504003
H93	H	2.354257	-0.130335	0.615933
H94	H	2.551304	0.000054	0.615471
H95	H	2.486843	0.130429	0.503077
H96	H	2.225333	0.130410	0.391147
C97	C	1.639106	0.391463	-0.139124
C98	C	1.630181	0.491346	-0.144462
C99	C	1.514501	0.541287	-0.212426
C100	C	1.407746	0.491344	-0.275053
C101	C	1.416667	0.391456	-0.269718
C102	C	1.532347	0.341515	-0.201753
H103	H	1.709211	0.528321	-0.098100
H104	H	1.507898	0.615231	-0.216375
H105	H	1.322112	0.528313	-0.325364
H106	H	1.337637	0.354481	-0.316080
H107	H	1.538951	0.267571	-0.197804
H108	H	1.737494	0.621549	-0.081349
H109	H	1.683992	0.213751	-0.112733
H110	H	2.192773	0.000015	0.655328
H111	H	2.168616	0.000010	0.802251
H112	H	1.648760	0.000006	0.737017
