data_functionalizedCrystal
_audit_creation_method	'MofGen! by Chris Wilmer'
_symmetry_space_group_name_H-M	'P1'
_symmetry_Int_Tables_number	1
_symmetry_cell_setting	triclinic
loop_
_symmetry_equiv_pos_as_xyz
  x,y,z
_cell_length_a	14.971482
_cell_length_b	8.597304
_cell_length_c	14.048226
_cell_angle_alpha	82.293729
_cell_angle_beta	89.994098
_cell_angle_gamma	84.477641
loop_
_atom_site_label
_atom_site_type_symbol
_atom_site_fract_x
_atom_site_fract_y
_atom_site_fract_z
O1	O	1.188614	0.204505	-0.095917
O2	O	1.688614	0.704505	0.404083
O3	O	0.928413	0.229004	-0.097930
O4	O	1.428413	0.729004	0.402070
O5	O	1.063633	-0.011704	-0.078185
O6	O	1.563633	0.488296	0.421815
O7	O	1.053394	0.445213	-0.115663
O8	O	1.553394	0.945213	0.384337
O9	O	1.063616	-0.011718	0.080138
O10	O	1.563616	0.488282	0.580138
O11	O	0.928396	0.228990	0.060392
O12	O	1.428396	0.728990	0.560392
O13	O	1.188597	0.204491	0.062405
O14	O	1.688597	0.704491	0.562405
Zn15	Zn	1.058494	0.216738	0.086536
Zn16	Zn	1.558494	0.716738	0.586536
Zn17	Zn	1.058516	0.216757	-0.122061
Zn18	Zn	1.558516	0.716757	0.377939
O19	O	1.053377	0.445199	0.042659
O20	O	1.553377	0.945199	0.542659
C21	C	0.895071	0.227902	-0.018680
C22	C	1.395071	0.727902	0.481320
C23	C	0.795747	0.224622	-0.018413
C24	C	1.295747	0.724622	0.481587
C25	C	0.749080	0.223070	0.068017
C26	C	1.249080	0.723070	0.568017
C27	C	0.655757	0.219962	0.068273
C28	C	1.155757	0.719962	0.568273
C29	C	0.609100	0.218419	-0.017903
C30	C	1.109100	0.718419	0.482097
C31	C	0.655773	0.219967	-0.104338
C32	C	1.155773	0.719967	0.395662
C33	C	0.749096	0.223063	-0.104592
C34	C	1.249096	0.723063	0.395408
C35	C	0.461259	0.213518	-0.103803
C36	C	0.961259	0.713518	0.396197
C37	C	0.367929	0.210425	-0.103550
C38	C	0.867929	0.710425	0.396450
C39	C	0.367920	0.210418	0.069062
C40	C	0.867920	0.710418	0.569062
C41	C	0.461242	0.213513	0.068808
C42	C	0.961242	0.713513	0.568808
C43	C	0.507909	0.215064	-0.017629
C44	C	1.007909	0.715064	0.482371
C45	C	1.062524	-0.070185	0.005771
C46	C	1.562524	0.429815	0.505771
C47	C	1.059235	-0.244419	0.020056
C48	C	1.559235	0.255581	0.520056
C49	C	1.221939	0.205592	-0.016847
C50	C	1.721939	0.705592	0.483153
C51	C	1.321263	0.208873	-0.017121
C52	C	1.821263	0.708873	0.482879
C53	C	1.054486	0.503680	-0.041298
C54	C	1.554486	1.003680	0.458702
C55	C	1.057775	0.677914	-0.055590
C56	C	1.557775	1.177914	0.444410
N57	N	1.058486	0.216724	0.228898
N58	N	1.558486	0.716724	0.728898
N59	N	1.058531	0.216758	-0.264422
N60	N	1.558531	0.716758	0.235578
C61	C	1.118381	0.110183	0.287456
C62	C	1.618381	0.610183	0.787456
C63	C	1.118387	0.110182	0.387113
C64	C	1.618387	0.610182	0.887113
C65	C	1.058501	0.216731	0.428211
C66	C	1.558501	0.716731	0.928211
C67	C	0.998600	0.323278	0.369645
C68	C	1.498600	0.823278	0.869645
C69	C	0.998590	0.323270	0.269990
C70	C	1.498590	0.823270	0.769990
C71	C	0.998626	0.323289	0.577359
C72	C	1.498626	0.823289	1.077359
C73	C	0.998636	0.323300	0.677020
C74	C	1.498636	0.823300	1.177020
C75	C	1.118422	0.110201	0.694482
C76	C	1.618422	0.610201	1.194482
C77	C	1.118412	0.110193	0.594827
C78	C	1.618412	0.610193	1.094827
C79	C	1.058512	0.216742	0.536268
C80	C	1.558512	0.716742	1.036268
H81	H	0.329944	0.209170	-0.173722
H82	H	0.829944	0.709170	0.326278
C83	C	1.184254	-0.007060	0.451526
C84	C	1.684254	0.492940	0.951526
N85	N	1.233860	-0.095387	0.500043
N86	N	1.733860	0.404613	1.000043
H87	H	1.059038	-0.255286	-0.131288
H88	H	1.559038	0.244714	0.368712
H89	H	1.057959	-0.311224	0.095759
H90	H	1.557959	0.188776	0.595759
H91	H	0.949871	0.410062	0.710476
H92	H	1.449871	0.910062	1.210476
C93	C	1.184260	-0.007033	0.242259
C94	C	1.684260	0.492967	0.742259
N95	N	1.233879	-0.095329	0.208220
N96	N	1.733879	0.404671	0.708220
C97	C	0.932722	0.440483	0.512947
C98	C	1.432722	0.940483	1.012947
N99	N	0.883085	0.528751	0.464433
N100	N	1.383085	1.028751	0.964433
H101	H	0.499252	0.214782	-0.174189
H102	H	0.999252	0.714782	0.325811
C103	C	0.932708	0.440487	0.205575
C104	C	1.432708	0.940487	0.705575
N105	N	0.883084	0.528779	0.157059
N106	N	1.383084	1.028779	0.657059
C107	C	1.184310	-0.007010	0.758899
C108	C	1.684310	0.492990	1.258899
N109	N	1.233937	-0.095287	0.807422
N110	N	1.733937	0.404713	1.307422
H111	H	0.787061	0.224339	0.138190
H112	H	1.287061	0.724339	0.638190
H113	H	0.949836	0.410027	0.403113
H114	H	1.449836	0.910027	0.903113
C115	C	0.604426	0.218291	0.163349
C116	C	1.104426	0.718291	0.663349
N117	N	0.565763	0.217044	0.234964
N118	N	1.065763	0.717044	0.734964
H119	H	0.499227	0.214780	0.138978
H120	H	0.999227	0.714780	0.638978
H121	H	0.617779	0.218700	-0.174503
H122	H	1.117779	0.718700	0.325497
C123	C	0.316585	0.208700	0.164143
C124	C	0.816585	0.708700	0.664143
N125	N	0.277916	0.207410	0.235756
N126	N	0.777916	0.707410	0.735756
C127	C	0.800428	0.224775	-0.199672
C128	C	1.300428	0.724775	0.300328
N129	N	0.839091	0.226060	-0.271288
N130	N	1.339091	0.726060	0.228712
H131	H	1.167180	0.023441	0.561365
H132	H	1.667180	0.523441	1.061365
