data_functionalizedCrystal
_audit_creation_method	'MofGen! by Chris Wilmer'
_symmetry_space_group_name_H-M	'P1'
_symmetry_Int_Tables_number	1
_symmetry_cell_setting	triclinic
loop_
_symmetry_equiv_pos_as_xyz
  x,y,z
_cell_length_a	10.654562
_cell_length_b	17.699092
_cell_length_c	9.130313
_cell_angle_alpha	90.000444
_cell_angle_beta	89.996930
_cell_angle_gamma	83.888236
loop_
_atom_site_label
_atom_site_type_symbol
_atom_site_fract_x
_atom_site_fract_y
_atom_site_fract_z
O1	O	1.665968	0.106345	-0.121890
O2	O	1.300315	0.116462	-0.121871
O3	O	1.493467	0.001281	-0.121877
O4	O	1.472817	0.221526	-0.121883
O5	O	1.493465	0.001284	0.121721
O6	O	1.300313	0.116465	0.121728
O7	O	1.665966	0.106348	0.121709
Cu8	Cu	1.483139	0.111407	0.143961
Cu9	Cu	1.483142	0.111403	-0.144123
O10	O	1.472814	0.221529	0.121716
C11	C	1.253530	0.115719	-0.000069
C12	C	1.114126	0.113490	-0.000062
C13	C	1.048612	0.112452	0.132712
C14	C	0.917626	0.110364	0.132688
C15	C	0.917679	0.110355	-0.132897
C16	C	1.048664	0.112438	-0.132871
C17	C	1.048580	0.112461	0.286046
C18	C	0.917594	0.110373	0.286021
C19	C	1.492724	-0.026920	-0.000080
C20	C	1.490499	-0.110951	-0.000087
C21	C	1.489458	-0.150427	-0.132874
C22	C	1.487359	-0.229384	-0.132876
C23	C	1.486311	-0.268863	-0.000089
C24	C	1.487348	-0.229382	0.132709
C25	C	1.489438	-0.150426	0.132709
C26	C	1.478919	-0.547801	0.132712
C27	C	1.476833	-0.626762	0.132701
C28	C	1.476840	-0.626758	-0.132873
C29	C	1.478930	-0.547802	-0.132873
C30	C	1.479960	-0.508327	-0.000077
C31	C	1.482234	-0.422714	-0.000076
C32	C	1.484046	-0.354476	-0.000087
C33	C	1.712752	0.107091	-0.000096
C34	C	1.852156	0.109320	-0.000112
C35	C	1.473557	0.249729	-0.000085
C36	C	1.475782	0.333761	-0.000088
N37	N	1.483147	0.111409	0.346584
N38	N	1.483145	0.111395	-0.346745
C39	C	1.568696	0.060424	0.423233
C40	C	1.568692	0.060415	0.576570
C41	C	1.397587	0.162382	0.576595
C42	C	1.397585	0.162387	0.423261
C43	C	1.667486	0.001556	0.423220
C44	C	1.667483	0.001547	0.576556
H45	H	1.095752	0.060157	0.344930
C46	C	1.119693	0.113710	-0.277074
C47	C	1.073563	0.178205	-0.357198
C48	C	1.138975	0.179406	-0.490043
H49	H	1.107974	0.069359	-0.331799
H50	H	1.207083	0.115140	-0.258108
H51	H	0.986195	0.176768	-0.376169
H52	H	1.085283	0.222566	-0.302519
H53	H	1.226365	0.180836	-0.471076
H54	H	1.127251	0.135052	-0.544754
H55	H	1.107693	0.223168	-0.544418
C56	C	1.475420	-0.669564	0.276928
C57	C	1.367902	-0.642428	0.357011
C58	C	1.366549	-0.681844	0.489864
H59	H	1.548870	-0.662034	0.331675
H60	H	1.473962	-0.722244	0.257973
H61	H	1.369371	-0.589761	0.375971
H62	H	1.294435	-0.649958	0.302309
H63	H	1.365091	-0.734524	0.470909
H64	H	1.440004	-0.674311	0.544598
H65	H	1.293594	-0.663443	0.544211
H66	H	1.327924	0.203887	0.639042
H67	H	1.637930	-0.053427	0.624106
H68	H	1.763767	0.014517	0.618168
H69	H	1.327913	0.203897	0.360854
H70	H	1.486517	-0.261522	-0.241005
C71	C	0.879660	0.036746	0.349588
C72	C	0.988047	-0.009907	0.391712
C73	C	0.953148	-0.077733	0.450288
H74	H	0.835080	0.011369	0.277810
H75	H	0.827056	0.047762	0.432551
H76	H	1.040631	-0.020925	0.308759
H77	H	1.032641	0.015446	0.463504
H78	H	0.900544	-0.066716	0.533251
H79	H	0.908567	-0.103102	0.378502
H80	H	1.026682	-0.109392	0.478889
H81	H	1.475994	-0.658908	-0.241003
C82	C	1.479998	-0.505071	-0.277197
C83	C	1.478602	-0.556540	-0.393491
C84	C	1.479563	-0.517203	-0.526464
H85	H	1.553995	-0.479649	-0.282931
H86	H	1.407580	-0.468901	-0.282787
H87	H	1.551013	-0.592696	-0.387903
H88	H	1.404611	-0.581963	-0.387805
H89	H	1.407145	-0.481033	-0.532055
H90	H	1.553561	-0.491783	-0.532183
H91	H	1.478604	-0.552117	-0.605385
H92	H	1.647059	-0.056618	0.381602
C93	C	0.854578	0.180161	0.364297
C94	C	0.883982	0.245738	0.291838
C95	C	0.825887	0.310015	0.363911
H96	H	0.884093	0.180733	0.462418
H97	H	0.765697	0.178714	0.364193
H98	H	0.972844	0.247185	0.291958
H99	H	0.854465	0.245191	0.193722
H100	H	0.737006	0.308568	0.363807
H101	H	0.855407	0.310579	0.462029
H102	H	0.845820	0.354516	0.314750
C103	C	0.846499	0.109374	-0.277038
C104	C	0.757013	0.173185	-0.284831
C105	C	0.691433	0.172313	-0.417602
H106	H	0.804990	0.064553	-0.282707
H107	H	0.904230	0.110332	-0.356155
H108	H	0.699291	0.172220	-0.205736
H109	H	0.798489	0.218016	-0.279187
H110	H	0.749164	0.173271	-0.496719
H111	H	0.649931	0.127490	-0.423260
H112	H	0.630717	0.215611	-0.422913
C113	C	1.479990	-0.504808	0.276734
C114	C	1.482007	-0.427209	0.248329
C115	C	1.482980	-0.387577	0.380972
H116	H	1.552834	-0.523041	0.331397
H117	H	1.406418	-0.512321	0.331310
H118	H	1.555572	-0.419701	0.193775
H119	H	1.409170	-0.408955	0.193687
H120	H	1.409407	-0.395090	0.435548
H121	H	1.555824	-0.405816	0.435625
H122	H	1.484337	-0.334921	0.361717
H123	H	1.077190	0.167659	0.333621
H124	H	1.490319	-0.118289	-0.241005
C125	C	1.486149	-0.272102	0.277035
C126	C	1.487474	-0.220626	0.393325
C127	C	1.486358	-0.259949	0.526301
H128	H	1.558518	-0.308288	0.282761
H129	H	1.412104	-0.297501	0.282637
H130	H	1.561512	-0.195240	0.387725
H131	H	1.415111	-0.184439	0.387647
H132	H	1.412312	-0.285348	0.531904
H133	H	1.558728	-0.296133	0.532012
H134	H	1.487244	-0.225028	0.605220
C135	C	1.490308	-0.107500	0.276831
C136	C	1.383489	-0.054244	0.284594
C137	C	1.384231	-0.014692	0.417347
H138	H	1.564239	-0.082013	0.282491
H139	H	1.489318	-0.142287	0.355964
H140	H	1.384491	-0.019462	0.205483
H141	H	1.309542	-0.079711	0.278960
H142	H	1.383241	-0.049480	0.496480
H143	H	1.458166	0.010790	0.422995
H144	H	1.311751	0.021441	0.422638
H145	H	1.758348	0.019992	0.375656
