data_functionalizedCrystal
_audit_creation_method	'MofGen! by Chris Wilmer'
_symmetry_space_group_name_H-M	'P1'
_symmetry_Int_Tables_number	1
_symmetry_cell_setting	triclinic
loop_
_symmetry_equiv_pos_as_xyz
  x,y,z
_cell_length_a	12.759400
_cell_length_b	21.395362
_cell_length_c	12.759401
_cell_angle_alpha	89.975725
_cell_angle_beta	90.010393
_cell_angle_gamma	89.969436
loop_
_atom_site_label
_atom_site_type_symbol
_atom_site_fract_x
_atom_site_fract_y
_atom_site_fract_z
Zn1	Zn	-0.417979	-0.957807	0.594614
Zn2	Zn	-0.593633	-0.957775	0.418934
Zn3	Zn	-0.418017	-0.853058	0.418884
Zn4	Zn	-0.593665	-0.853021	0.594506
O5	O	-0.505823	-0.905416	0.506735
O6	O	-0.441250	-1.045481	0.571376
O7	O	-0.570339	-0.943887	0.271907
O8	O	-0.270991	-0.866983	0.442219
O9	O	-0.570302	-1.045457	0.442305
O10	O	-0.270963	-0.943941	0.571327
O11	O	-0.441315	-0.866952	0.271870
O12	O	-0.441346	-0.765376	0.442115
O13	O	-0.570357	-0.866919	0.741542
O14	O	-0.570394	-0.765348	0.571144
O15	O	-0.441281	-0.943905	0.741621
O16	O	-0.740658	-0.943850	0.442200
O17	O	-0.740682	-0.866888	0.571192
C18	C	-0.505879	-0.742628	0.506613
C19	C	-0.505928	-0.672987	0.506586
C20	C	-0.778791	-0.905378	0.506713
C21	C	-0.895567	-0.905420	0.506739
C22	C	-0.505819	-0.905411	0.780768
C23	C	-0.505817	-0.905410	0.897545
C24	C	-0.950382	-0.945539	0.439647
C25	C	-1.060106	-0.945577	0.439679
C26	C	-1.060191	-0.865372	0.573898
C27	C	-0.950469	-0.865338	0.573870
C28	C	-0.950334	-0.991842	0.362153
C29	C	-1.060058	-0.991881	0.362186
C30	C	-0.231790	-0.905470	0.506780
C31	C	-0.115013	-0.905493	0.506799
C32	C	-0.505768	-1.068839	0.506858
C33	C	-0.505745	-1.138480	0.506910
C34	C	-0.573212	-0.640276	0.573670
C35	C	-0.573186	-0.574840	0.573717
C36	C	-0.505887	-0.542118	0.506660
C37	C	-0.438590	-0.574837	0.439571
C38	C	-0.438610	-0.640271	0.439534
C39	C	-0.497418	-0.438412	0.412078
C40	C	-0.497405	-0.372979	0.412113
C41	C	-0.505819	-0.340298	0.506777
C42	C	-0.514268	-0.373058	0.601407
C43	C	-0.514288	-0.438492	0.601369
C44	C	-0.505857	-0.471166	0.506694
C45	C	-0.573079	-0.236634	0.573918
C46	C	-0.573046	-0.171197	0.573966
C47	C	-0.438455	-0.171196	0.439811
C48	C	-0.438483	-0.236631	0.439772
C49	C	-0.505800	-0.269346	0.506824
C50	C	-0.438642	-0.865358	0.952394
C51	C	-0.438651	-0.865359	1.062118
C52	C	-0.573014	-0.945469	1.062134
C53	C	-0.573008	-0.945465	0.952412
C54	C	-0.361065	-0.819108	0.952385
C55	C	-0.361075	-0.819109	1.062109
C56	C	-0.505846	-0.905415	1.233767
C57	C	-0.505831	-0.905415	1.116991
H58	H	-0.905839	-0.832675	0.628511
O59	O	-0.366016	-0.539539	0.367243
H60	H	-0.283586	-0.552129	0.385398
O61	O	-0.399683	-0.758042	1.107156
H62	H	-0.420139	-0.725663	1.042305
O63	O	-1.099601	-0.974736	0.254382
H64	H	-1.148012	-0.931730	0.259552
O65	O	-0.645459	-0.988669	0.893260
H66	H	-0.727920	-0.977910	0.914301
H67	H	-0.628026	-0.666908	0.628271
O68	O	-0.645785	-0.539563	0.646071
H69	H	-0.598859	-0.509795	0.699643
H70	H	-0.521117	-0.346450	0.678491
O71	O	-0.253299	-0.836357	1.101606
H72	H	-0.200530	-0.844807	1.033926
O73	O	-0.523378	-0.473829	0.703426
H74	H	-0.529216	-0.440116	0.769263
H75	H	-0.283766	-0.836506	0.918380
O76	O	-0.645666	-0.271927	0.646246
H77	H	-0.692437	-0.238185	0.692918
H78	H	-1.104905	-0.832740	0.628555
H79	H	-0.916366	-0.974487	0.284816
O80	O	-0.389940	-0.754822	0.912894
H81	H	-0.462078	-0.757928	0.864551
O82	O	-0.366042	-0.675560	0.367173
H83	H	-0.413001	-0.705329	0.313631
O84	O	-0.645477	-0.988668	1.121324
H85	H	-0.727935	-0.977896	1.100243
O86	O	-1.105023	-1.052934	0.400926
H87	H	-1.078084	-1.091546	0.349466
O88	O	-0.910749	-1.056090	0.391143
H89	H	-0.978386	-1.087571	0.405370
O90	O	-0.645758	-0.135911	0.646186
H91	H	-0.692626	-0.169656	0.692743
O92	O	-0.365874	-0.135914	0.367473
H93	H	-0.377169	-0.084917	0.378761
H94	H	-0.490532	-0.346310	0.335060
O95	O	-0.365939	-0.271919	0.367388
H96	H	-0.319148	-0.238175	0.320754
H97	H	-0.490562	-0.465015	0.334987
