data_functionalizedCrystal
_audit_creation_method	'MofGen! by Chris Wilmer'
_symmetry_space_group_name_H-M	'P1'
_symmetry_Int_Tables_number	1
_symmetry_cell_setting	triclinic
loop_
_symmetry_equiv_pos_as_xyz
  x,y,z
_cell_length_a	14.519731
_cell_length_b	14.519731
_cell_length_c	9.798715
_cell_angle_alpha	89.995867
_cell_angle_beta	89.996220
_cell_angle_gamma	83.688853
loop_
_atom_site_label
_atom_site_type_symbol
_atom_site_fract_x
_atom_site_fract_y
_atom_site_fract_z
O1	O	1.223864	0.120982	-0.113497
O2	O	0.955391	0.135197	-0.113500
O3	O	1.096735	-0.006147	-0.113486
O4	O	1.082519	0.262326	-0.113511
O5	O	1.096725	-0.006147	0.113496
O6	O	0.955380	0.135197	0.113483
O7	O	1.223853	0.120981	0.113485
Zn8	Zn	1.089615	0.128089	0.149522
Zn9	Zn	1.089629	0.128090	-0.149537
O10	O	1.082509	0.262326	0.113471
C11	C	0.921026	0.134531	-0.000009
C12	C	0.818645	0.132535	-0.000009
C13	C	1.096064	-0.040507	0.000006
C14	C	1.094068	-0.142887	0.000006
C15	C	0.735501	0.130913	-0.000015
C16	C	0.631192	0.128887	-0.000015
C17	C	0.548053	0.127278	-0.000015
C18	C	0.443738	0.125252	-0.000017
C19	C	1.092446	-0.226031	0.000003
C20	C	1.090419	-0.330340	-0.000007
C21	C	1.088811	-0.413479	-0.000016
C22	C	1.086785	-0.517795	-0.000024
C23	C	1.258218	0.121648	-0.000009
C24	C	1.360598	0.123643	-0.000017
C25	C	1.083180	0.296685	-0.000023
C26	C	1.085176	0.399066	-0.000033
N27	N	1.089612	0.128088	0.353622
N28	N	1.089639	0.128083	-0.353636
C29	C	1.148961	0.068482	0.421405
C30	C	1.148976	0.068479	0.578567
H31	H	1.199758	0.017449	0.363087
H32	H	1.199790	0.017450	0.636857
H33	H	1.038809	0.179114	0.411941
H34	H	1.038829	0.179121	0.588082
