data_functionalizedCrystal
_audit_creation_method	'MofGen! by Chris Wilmer'
_symmetry_space_group_name_H-M	'P1'
_symmetry_Int_Tables_number	1
_symmetry_cell_setting	triclinic
loop_
_symmetry_equiv_pos_as_xyz
  x,y,z
_cell_length_a	25.639242
_cell_length_b	18.101395
_cell_length_c	18.101389
_cell_angle_alpha	90.016841
_cell_angle_beta	89.972230
_cell_angle_gamma	89.973368
loop_
_atom_site_label
_atom_site_type_symbol
_atom_site_fract_x
_atom_site_fract_y
_atom_site_fract_z
Zn1	Zn	0.799282	0.294996	-0.418915
Zn2	Zn	1.049282	0.544996	-0.168915
Zn3	Zn	1.299282	0.794996	0.081085
Zn4	Zn	1.549282	1.044996	0.331085
Zn5	Zn	0.799208	0.418821	-0.295077
Zn6	Zn	1.049208	0.668821	-0.045077
Zn7	Zn	1.299208	0.918821	0.204923
Zn8	Zn	1.549208	1.168821	0.454923
Zn9	Zn	0.711849	0.294988	-0.295069
Zn10	Zn	0.961849	0.544988	-0.045069
Zn11	Zn	1.211849	0.794988	0.204931
Zn12	Zn	1.461849	1.044988	0.454931
Zn13	Zn	0.711815	0.418790	-0.418858
Zn14	Zn	0.961815	0.668790	-0.168858
Zn15	Zn	1.211815	0.918790	0.081142
Zn16	Zn	1.461815	1.168790	0.331142
O17	O	0.755538	0.356899	-0.356980
O18	O	1.005538	0.606899	-0.106980
O19	O	1.255538	0.856899	0.143020
O20	O	1.505538	1.106899	0.393020
O21	O	0.872437	0.311437	-0.402515
O22	O	1.122437	0.561437	-0.152515
O23	O	1.372437	0.811437	0.097485
O24	O	1.622437	1.061437	0.347485
O25	O	0.787604	0.402405	-0.191443
O26	O	1.037604	0.652405	0.058557
O27	O	1.287604	0.902405	0.308557
O28	O	1.537604	1.152405	0.558557
O29	O	0.723493	0.191357	-0.311517
O30	O	0.973493	0.441357	-0.061517
O31	O	1.223493	0.691357	0.188483
O32	O	1.473493	0.941357	0.438483
O33	O	0.872383	0.402412	-0.311531
O34	O	1.122383	0.652412	-0.061531
O35	O	1.372383	0.902412	0.188469
O36	O	1.622383	1.152412	0.438469
O37	O	0.787729	0.191362	-0.402507
O38	O	1.037729	0.441362	-0.152507
O39	O	1.287729	0.691362	0.097493
O40	O	1.537729	0.941362	0.347493
O41	O	0.723421	0.311425	-0.191437
O42	O	0.973421	0.561425	0.058563
O43	O	1.223421	0.811425	0.308563
O44	O	1.473421	1.061425	0.558563
O45	O	0.638679	0.311395	-0.311462
O46	O	0.888679	0.561395	-0.061462
O47	O	1.138679	0.811395	0.188538
O48	O	1.388679	1.061395	0.438538
O49	O	0.723433	0.402358	-0.522498
O50	O	0.973433	0.652358	-0.272498
O51	O	1.223433	0.902358	-0.022498
O52	O	1.473433	1.152358	0.227502
O53	O	0.638654	0.402352	-0.402410
O54	O	0.888654	0.652352	-0.152410
O55	O	1.138654	0.902352	0.097590
O56	O	1.388654	1.152352	0.347590
O57	O	0.787695	0.311407	-0.522540
O58	O	1.037695	0.561407	-0.272540
O59	O	1.287695	0.811407	-0.022540
O60	O	1.537695	1.061407	0.227460
O61	O	0.787570	0.522450	-0.311476
O62	O	1.037570	0.772450	-0.061476
O63	O	1.287570	1.022450	0.188524
O64	O	1.537570	1.272450	0.438524
O65	O	0.723362	0.522427	-0.402418
O66	O	0.973362	0.772427	-0.152418
O67	O	1.223362	1.022427	0.097582
O68	O	1.473362	1.272427	0.347582
C69	C	0.619696	0.356870	-0.356929
C70	C	0.869696	0.606870	-0.106929
C71	C	1.119696	0.856870	0.143071
C72	C	1.369696	1.106870	0.393071
C73	C	0.561582	0.356875	-0.356925
C74	C	0.811582	0.606875	-0.106925
C75	C	1.061582	0.856875	0.143075
C76	C	1.311582	1.106875	0.393075
C77	C	0.755468	0.549309	-0.356958
C78	C	1.005468	0.799309	-0.106958
C79	C	1.255468	1.049309	0.143042
C80	C	1.505468	1.299309	0.393042
C81	C	0.755486	0.631624	-0.356973
C82	C	1.005486	0.881624	-0.106973
C83	C	1.255486	1.131624	0.143027
C84	C	1.505486	1.381624	0.393027
C85	C	0.755569	0.356880	-0.550142
C86	C	1.005569	0.606880	-0.300142
C87	C	1.255569	0.856880	-0.050142
C88	C	1.505569	1.106880	0.199858
C89	C	0.755581	0.356872	-0.632456
C90	C	1.005581	0.606872	-0.382456
C91	C	1.255581	0.856872	-0.132456
C92	C	1.505581	1.106872	0.117544
C93	C	0.201214	0.404339	-0.404291
C94	C	0.451214	0.654339	-0.154291
C95	C	0.701214	0.904339	0.095709
C96	C	0.951214	1.154339	0.345709
C97	C	0.146610	0.404344	-0.404303
C98	C	0.396610	0.654344	-0.154303
C99	C	0.646610	0.904344	0.095697
C100	C	0.896610	1.154344	0.345697
O101	O	0.118369	0.444663	-0.444532
O102	O	0.368369	0.694663	-0.194532
O103	O	0.618369	0.944663	0.055468
O104	O	0.868369	1.194663	0.305468
N105	N	0.119299	0.356919	-0.357028
N106	N	0.369299	0.606919	-0.107028
N107	N	0.619299	0.856919	0.142972
N108	N	0.869299	1.106919	0.392972
C109	C	0.146596	0.309482	-0.309744
C110	C	0.396596	0.559482	-0.059744
C111	C	0.646596	0.809482	0.190256
C112	C	0.896596	1.059482	0.440256
O113	O	0.118352	0.269144	-0.269534
O114	O	0.368352	0.519144	-0.019534
O115	O	0.618352	0.769144	0.230466
O116	O	0.868352	1.019144	0.480466
C117	C	0.201199	0.309474	-0.309736
C118	C	0.451199	0.559474	-0.059736
C119	C	0.701199	0.809474	0.190264
C120	C	0.951199	1.059474	0.440264
C121	C	0.228507	0.356907	-0.357009
C122	C	0.478507	0.606907	-0.107009
C123	C	0.728507	0.856907	0.142991
C124	C	0.978507	1.106907	0.392991
C125	C	0.228522	0.451767	-0.451560
C126	C	0.478522	0.701767	-0.201560
C127	C	0.728522	0.951767	0.048440
C128	C	0.978522	1.201767	0.298440
C129	C	0.283123	0.451764	-0.451547
C130	C	0.533123	0.701764	-0.201547
C131	C	0.783123	0.951764	0.048453
C132	C	1.033123	1.201764	0.298453
C133	C	0.310415	0.404332	-0.404265
C134	C	0.560415	0.654332	-0.154265
C135	C	0.810415	0.904332	0.095735
C136	C	1.060415	1.154332	0.345735
C137	C	0.283107	0.356903	-0.356996
C138	C	0.533107	0.606903	-0.106996
C139	C	0.783107	0.856903	0.143004
C140	C	1.033107	1.106903	0.393004
C141	C	0.228495	0.262034	-0.262456
C142	C	0.478495	0.512034	-0.012456
C143	C	0.728495	0.762034	0.237544
C144	C	0.978495	1.012034	0.487544
C145	C	0.283102	0.262030	-0.262453
C146	C	0.533102	0.512030	-0.012453
C147	C	0.783102	0.762030	0.237547
C148	C	1.033102	1.012030	0.487547
C149	C	0.310409	0.309463	-0.309726
C150	C	0.560409	0.559463	-0.059726
C151	C	0.810409	0.809463	0.190274
C152	C	1.060409	1.059463	0.440274
C153	C	0.365001	0.309467	-0.309701
C154	C	0.615001	0.559467	-0.059701
C155	C	0.865001	0.809467	0.190299
C156	C	1.115001	1.059467	0.440299
N157	N	0.392311	0.356892	-0.356976
N158	N	0.642311	0.606892	-0.106976
N159	N	0.892311	0.856892	0.143024
N160	N	1.142311	1.106892	0.393024
C161	C	0.365019	0.404324	-0.404258
C162	C	0.615019	0.654324	-0.154258
C163	C	0.865019	0.904324	0.095742
C164	C	1.115019	1.154324	0.345742
C165	C	0.031925	0.309501	-0.309764
C166	C	0.281925	0.559501	-0.059764
C167	C	0.531925	0.809501	0.190236
C168	C	0.781925	1.059501	0.440236
C169	C	-0.022677	0.309512	-0.309767
C170	C	0.227323	0.559512	-0.059767
C171	C	0.477323	0.809512	0.190233
C172	C	0.727323	1.059512	0.440233
C173	C	-0.022659	0.404373	-0.404327
C174	C	0.227341	0.654373	-0.154327
C175	C	0.477341	0.904373	0.095673
C176	C	0.727341	1.154373	0.345673
C177	C	0.031944	0.404365	-0.404320
C178	C	0.281944	0.654365	-0.154320
C179	C	0.531944	0.904365	0.095680
C180	C	0.781944	1.154365	0.345680
C181	C	0.059236	0.356925	-0.357038
C182	C	0.309236	0.606925	-0.107038
C183	C	0.559236	0.856925	0.142962
C184	C	0.809236	1.106925	0.392962
C185	C	0.479684	0.404313	-0.404227
C186	C	0.729684	0.654313	-0.154227
C187	C	0.979684	0.904313	0.095773
C188	C	1.229684	1.154313	0.345773
C189	C	0.534289	0.404307	-0.404208
C190	C	0.784289	0.654307	-0.154208
C191	C	1.034289	0.904307	0.095792
C192	C	1.284289	1.154307	0.345792
C193	C	0.534266	0.309444	-0.309650
C194	C	0.784266	0.559444	-0.059650
C195	C	1.034266	0.809444	0.190350
C196	C	1.284266	1.059444	0.440350
C197	C	0.479666	0.309452	-0.309667
C198	C	0.729666	0.559452	-0.059667
C199	C	0.979666	0.809452	0.190333
C200	C	1.229666	1.059452	0.440333
C201	C	0.452376	0.356889	-0.356961
C202	C	0.702376	0.606889	-0.106961
C203	C	0.952376	0.856889	0.143039
C204	C	1.202376	1.106889	0.393039
O205	O	0.393276	0.269167	-0.269494
O206	O	0.643276	0.519167	-0.019494
O207	O	0.893276	0.769167	0.230506
O208	O	1.143276	1.019167	0.480506
O209	O	0.393269	0.444648	-0.444467
O210	O	0.643269	0.694648	-0.194467
O211	O	0.893269	0.944648	0.055533
O212	O	1.143269	1.194648	0.305533
C213	C	0.891911	0.356929	-0.357030
C214	C	1.141911	0.606929	-0.107030
C215	C	1.391911	0.856929	0.142970
C216	C	1.641911	1.106929	0.392970
C217	C	0.950025	0.356941	-0.357052
C218	C	1.200025	0.606941	-0.107052
C219	C	1.450025	0.856941	0.142948
C220	C	1.700025	1.106941	0.392948
C221	C	0.755623	0.163737	-0.357018
C222	C	1.005623	0.413737	-0.107018
C223	C	1.255623	0.663737	0.142982
C224	C	1.505623	0.913737	0.392982
C225	C	0.755659	0.081423	-0.357034
C226	C	1.005659	0.331423	-0.107034
C227	C	1.255659	0.581423	0.142966
C228	C	1.505659	0.831423	0.392966
C229	C	0.755601	0.930714	-0.357013
C230	C	1.005601	1.180714	-0.107013
C231	C	1.255601	1.430714	0.142987
C232	C	1.505601	1.680714	0.392987
C233	C	0.715297	0.899406	-0.414373
C234	C	0.965297	1.149406	-0.164373
C235	C	1.215297	1.399406	0.085627
C236	C	1.465297	1.649406	0.335627
C237	C	0.715105	0.813788	-0.414194
C238	C	0.965105	1.063788	-0.164194
C239	C	1.215105	1.313788	0.085806
C240	C	1.465105	1.563788	0.335806
C241	C	0.755544	0.782332	-0.356994
C242	C	1.005544	1.032332	-0.106994
C243	C	1.255544	1.282332	0.143006
C244	C	1.505544	1.532332	0.393006
C245	C	0.740627	0.813467	-0.278941
C246	C	0.990627	1.063467	-0.028941
C247	C	1.240627	1.313467	0.221059
C248	C	1.490627	1.563467	0.471059
C249	C	0.740367	0.899113	-0.279284
C250	C	0.990367	1.149113	-0.029284
C251	C	1.240367	1.399113	0.220716
C252	C	1.490367	1.649113	0.470716
C253	C	0.810911	0.899068	-0.377019
C254	C	1.060911	1.149068	-0.127019
C255	C	1.310911	1.399068	0.122981
C256	C	1.560911	1.649068	0.372981
C257	C	0.810585	0.813417	-0.378730
C258	C	1.060585	1.063417	-0.128730
C259	C	1.310585	1.313417	0.121270
C260	C	1.560585	1.563417	0.371270
C261	C	0.755513	0.698472	-0.356978
C262	C	1.005513	0.948472	-0.106978
C263	C	1.255513	1.198472	0.143022
C264	C	1.505513	1.448472	0.393022
C265	C	0.755631	1.014574	-0.357023
C266	C	1.005631	1.264574	-0.107023
C267	C	1.255631	1.514574	0.142977
C268	C	1.505631	1.764574	0.392977
C269	C	0.755612	0.356733	-0.931547
C270	C	1.005612	0.606733	-0.681547
C271	C	1.255612	0.856733	-0.431547
C272	C	1.505612	1.106733	-0.181547
C273	C	0.715041	0.413775	-0.900195
C274	C	0.965041	0.663775	-0.650195
C275	C	1.215041	0.913775	-0.400195
C276	C	1.465041	1.163775	-0.150195
C277	C	0.715151	0.414040	-0.814577
C278	C	0.965151	0.664040	-0.564577
C279	C	1.215151	0.914040	-0.314577
C280	C	1.465151	1.164040	-0.064577
C281	C	0.755596	0.356802	-0.783164
C282	C	1.005596	0.606802	-0.533164
C283	C	1.255596	0.856802	-0.283164
C284	C	1.505596	1.106802	-0.033164
C285	C	0.810683	0.377992	-0.814275
C286	C	1.060683	0.627992	-0.564275
C287	C	1.310683	0.877992	-0.314275
C288	C	1.560683	1.127992	-0.064275
C289	C	0.810456	0.378367	-0.899920
C290	C	1.060456	0.628367	-0.649920
C291	C	1.310456	0.878367	-0.399920
C292	C	1.560456	1.128367	-0.149920
C293	C	0.741576	0.278374	-0.899968
C294	C	0.991576	0.528374	-0.649968
C295	C	1.241576	0.778374	-0.399968
C296	C	1.491576	1.028374	-0.149968
C297	C	0.740350	0.278827	-0.814317
C298	C	0.990350	0.528827	-0.564317
C299	C	1.240350	0.778827	-0.314317
C300	C	1.490350	1.028827	-0.064317
C301	C	0.755591	0.356840	-0.699305
C302	C	1.005591	0.606840	-0.449305
C303	C	1.255591	0.856840	-0.199305
C304	C	1.505591	1.106840	0.050695
C305	C	0.755621	0.356698	-1.015406
C306	C	1.005621	0.606698	-0.765406
C307	C	1.255621	0.856698	-0.515406
C308	C	1.505621	1.106698	-0.265406
C309	C	0.755538	0.356864	-0.164569
C310	C	1.005538	0.606864	0.085431
C311	C	1.255538	0.856864	0.335431
C312	C	1.505538	1.106864	0.585431
C313	C	0.755627	0.356663	-0.082255
C314	C	1.005627	0.606663	0.167745
C315	C	1.255627	0.856663	0.417745
C316	C	1.505627	1.106663	0.667745
H317	H	0.556521	0.442935	-0.442703
H318	H	0.806521	0.692935	-0.192703
H319	H	1.056521	0.942935	0.057297
H320	H	1.306521	1.192935	0.307297
F321	F	0.777789	0.786838	-0.221554
F322	F	1.027789	1.036838	0.028446
F323	F	1.277789	1.286838	0.278446
F324	F	1.527789	1.536838	0.528446
H325	H	0.724537	0.919965	-0.472435
H326	H	0.974537	1.169965	-0.222435
H327	H	1.224537	1.419965	0.027565
H328	H	1.474537	1.669965	0.277565
H329	H	-0.044891	0.442992	-0.442829
H330	H	0.205109	0.692992	-0.192829
H331	H	0.455109	0.942992	0.057171
H332	H	0.705109	1.192992	0.307171
H333	H	0.700624	0.792075	-0.261692
H334	H	0.950624	1.042075	-0.011692
H335	H	1.200624	1.292075	0.238308
H336	H	1.450624	1.542075	0.488308
H337	H	0.724216	0.471503	-0.921723
H338	H	0.974216	0.721503	-0.671723
H339	H	1.224216	0.971503	-0.421723
H340	H	1.474216	1.221503	-0.171723
H341	H	0.767744	0.234071	-0.792934
H342	H	1.017744	0.484071	-0.542934
H343	H	1.267744	0.734071	-0.292934
H344	H	1.517744	0.984071	-0.042934
H345	H	0.841709	0.338624	-0.920662
H346	H	1.091709	0.588624	-0.670662
H347	H	1.341709	0.838624	-0.420662
H348	H	1.591709	1.088624	-0.170662
F349	F	0.825290	0.786818	-0.453812
F350	F	1.075290	1.036818	-0.203812
F351	F	1.325290	1.286818	0.046188
F352	F	1.575290	1.536818	0.296188
H353	H	0.841723	0.337751	-0.793931
H354	H	1.091723	0.587751	-0.543931
H355	H	1.341723	0.837751	-0.293931
H356	H	1.591723	1.087751	-0.043931
H357	H	0.305352	0.490387	-0.490043
H358	H	0.555352	0.740387	-0.240043
H359	H	0.805352	0.990387	0.009957
H360	H	1.055352	1.240387	0.259957
F361	F	0.661759	0.396703	-0.787078
F362	F	0.911759	0.646703	-0.537078
F363	F	1.161759	0.896703	-0.287078
F364	F	1.411759	1.146703	-0.037078
H365	H	0.842202	0.792001	-0.339998
H366	H	1.092202	1.042001	-0.089998
H367	H	1.342202	1.292001	0.160002
H368	H	1.592202	1.542001	0.410002
F369	F	0.450647	0.454801	-0.454563
F370	F	0.700647	0.704801	-0.204563
F371	F	0.950647	0.954801	0.045437
F372	F	1.200647	1.204801	0.295437
F373	F	0.199483	0.502255	-0.501890
F374	F	0.449483	0.752255	-0.251890
F375	F	0.699483	1.002255	-0.001890
F376	F	0.949483	1.252255	0.248110
H377	H	0.724438	0.792735	-0.472069
H378	H	0.974438	1.042735	-0.222069
H379	H	1.224438	1.292735	0.027931
H380	H	1.474438	1.542735	0.277931
F381	F	0.450602	0.258980	-0.259343
F382	F	0.700602	0.508980	-0.009343
F383	F	0.950602	0.758980	0.240657
F384	F	1.200602	1.008980	0.490657
F385	F	0.312144	0.211535	-0.212130
F386	F	0.562144	0.461535	0.037870
F387	F	0.812144	0.711535	0.287870
F388	F	1.062144	0.961535	0.537870
H389	H	0.822788	0.434665	-0.792836
H390	H	1.072788	0.684665	-0.542836
H391	H	1.322788	0.934665	-0.292836
H392	H	1.572788	1.184665	-0.042836
H393	H	-0.044907	0.270895	-0.271265
H394	H	0.205093	0.520895	-0.021265
H395	H	0.455093	0.770895	0.228735
H396	H	0.705093	1.020895	0.478735
F397	F	0.687521	0.925303	-0.257136
F398	F	0.937521	1.175303	-0.007136
F399	F	1.187521	1.425303	0.242864
F400	F	1.437521	1.675303	0.492864
H401	H	0.206270	0.223411	-0.223960
H402	H	0.456270	0.473411	0.026040
H403	H	0.706270	0.723411	0.276040
H404	H	0.956270	0.973411	0.526040
H405	H	0.702105	0.259070	-0.921550
H406	H	0.952105	0.509070	-0.671550
H407	H	1.202105	0.759070	-0.421550
H408	H	1.452105	1.009070	-0.171550
F409	F	0.850161	0.925542	-0.322422
F410	F	1.100161	1.175542	-0.072422
F411	F	1.350161	1.425542	0.177578
F412	F	1.600161	1.675542	0.427578
H413	H	0.824511	0.920628	-0.432966
H414	H	1.074511	1.170628	-0.182966
H415	H	1.324511	1.420628	0.067034
H416	H	1.574511	1.670628	0.317034
F417	F	0.061002	0.454848	-0.454634
F418	F	0.311002	0.704848	-0.204634
F419	F	0.561002	0.954848	0.045366
F420	F	0.811002	1.204848	0.295366
H421	H	0.674069	0.400650	-0.920777
H422	H	0.924069	0.650650	-0.670777
H423	H	1.174069	0.900650	-0.420777
H424	H	1.424069	1.150650	-0.170777
F425	F	0.727288	0.489950	-0.787805
F426	F	0.977288	0.739950	-0.537805
F427	F	1.227288	0.989950	-0.287805
F428	F	1.477288	1.239950	-0.037805
F429	F	0.687360	0.257942	-0.787745
F430	F	0.937360	0.507942	-0.537745
F431	F	1.187360	0.757942	-0.287745
F432	F	1.437360	1.007942	-0.037745
H433	H	0.771126	0.235875	-0.920245
H434	H	1.021126	0.485875	-0.670245
H435	H	1.271126	0.735875	-0.420245
H436	H	1.521126	0.985875	-0.170245
H437	H	0.054143	0.270870	-0.271256
H438	H	0.304143	0.520870	-0.021256
H439	H	0.554143	0.770870	0.228744
H440	H	0.804143	1.020870	0.478744
H441	H	0.556498	0.270828	-0.271152
H442	H	0.806498	0.520828	-0.021152
H443	H	1.056498	0.770828	0.228848
H444	H	1.306498	1.020828	0.478848
F445	F	0.826009	0.453238	-0.926045
F446	F	1.076009	0.703238	-0.676045
F447	F	1.326009	0.953238	-0.426045
F448	F	1.576009	1.203238	-0.176045
H449	H	0.674549	0.920985	-0.401287
H450	H	0.924549	1.170985	-0.151287
H451	H	1.174549	1.420985	0.098713
H452	H	1.424549	1.670985	0.348713
H453	H	0.674109	0.793358	-0.400941
H454	H	0.924109	1.043358	-0.150941
H455	H	1.174109	1.293358	0.099059
H456	H	1.424109	1.543358	0.349059
H457	H	0.768449	0.919825	-0.235089
H458	H	1.018449	1.169825	0.014911
H459	H	1.268449	1.419825	0.264911
H460	H	1.518449	1.669825	0.514911
