data_functionalizedCrystal
_audit_creation_method	'MofGen! by Chris Wilmer'
_symmetry_space_group_name_H-M	'P1'
_symmetry_Int_Tables_number	1
_symmetry_cell_setting	triclinic
loop_
_symmetry_equiv_pos_as_xyz
  x,y,z
_cell_length_a	10.967953
_cell_length_b	16.974897
_cell_length_c	15.455313
_cell_angle_alpha	83.675220
_cell_angle_beta	104.803889
_cell_angle_gamma	84.839040
loop_
_atom_site_label
_atom_site_type_symbol
_atom_site_fract_x
_atom_site_fract_y
_atom_site_fract_z
O1	O	0.149750	1.055891	-0.123787
O2	O	0.483083	1.389224	0.209546
O3	O	0.816416	1.722558	0.542880
O4	O	0.171459	0.824871	-0.104343
O5	O	0.504792	1.158204	0.228990
O6	O	0.838126	1.491537	0.562323
O7	O	-0.023164	0.947022	-0.141997
O8	O	0.310169	1.280355	0.191337
O9	O	0.643502	1.613689	0.524670
O10	O	0.344373	0.933740	-0.086134
O11	O	0.677706	1.267073	0.247200
O12	O	1.011040	1.600406	0.580533
O13	O	-0.012081	0.940037	0.004412
O14	O	0.321253	1.273370	0.337745
O15	O	0.654586	1.606704	0.671078
O16	O	0.182543	0.817886	0.042065
O17	O	0.515876	1.151219	0.375398
O18	O	0.849210	1.484552	0.708732
O19	O	0.160833	1.048906	0.022622
O20	O	0.494167	1.382239	0.355955
O21	O	0.827500	1.715573	0.689288
Cu22	Cu	0.172700	0.932758	0.045712
Cu23	Cu	0.506034	1.266091	0.379045
Cu24	Cu	0.839367	1.599425	0.712378
Cu25	Cu	0.159592	0.941019	-0.127433
Cu26	Cu	0.492926	1.274352	0.205900
Cu27	Cu	0.826259	1.607685	0.539233
O28	O	0.355457	0.926755	0.060275
O29	O	0.688790	1.260088	0.393608
O30	O	1.022124	1.593421	0.726942
C31	C	0.176378	0.791822	-0.029160
C32	C	0.509711	1.125155	0.304173
C33	C	0.843045	1.458488	0.637507
C34	C	0.174506	0.703753	-0.023265
C35	C	0.507839	1.037086	0.310069
C36	C	0.841173	1.370419	0.643402
C37	C	0.167588	0.666178	-0.100295
C38	C	0.500922	0.999511	0.233038
C39	C	0.834255	1.332844	0.566371
C40	C	0.165851	0.583425	-0.094740
C41	C	0.499184	0.916758	0.238593
C42	C	0.832517	1.250092	0.571927
C43	C	0.171022	0.538250	-0.012155
C44	C	0.504355	0.871583	0.321179
C45	C	0.837688	1.204917	0.654512
C46	C	0.177944	0.575830	0.064882
C47	C	0.511277	0.909164	0.398216
C48	C	0.844611	1.242497	0.731549
C49	C	0.179690	0.658580	0.059328
C50	C	0.513024	0.991914	0.392661
C51	C	0.846357	1.325247	0.725994
C52	C	0.166455	0.290355	0.013017
C53	C	0.499788	0.623688	0.346351
C54	C	0.833121	0.957022	0.679684
C55	C	0.164704	0.207599	0.018566
C56	C	0.498037	0.540933	0.351899
C57	C	0.831370	0.874266	0.685232
C58	C	0.152613	0.215200	-0.141057
C59	C	0.485946	0.548533	0.192276
C60	C	0.819280	0.881867	0.525610
C61	C	0.154352	0.297952	-0.146606
C62	C	0.487686	0.631285	0.186728
C63	C	0.821019	0.964619	0.520061
C64	C	0.161281	0.335525	-0.069568
C65	C	0.494614	0.668858	0.263766
C66	C	0.827948	1.002191	0.597099
N67	N	0.169242	0.453664	-0.006475
N68	N	0.502575	0.786997	0.326858
N69	N	0.835908	1.120331	0.660192
N70	N	0.163070	0.420108	-0.075247
N71	N	0.496403	0.753442	0.258086
N72	N	0.829737	1.086775	0.591420
C73	C	-0.064640	0.943091	-0.075791
C74	C	0.268694	1.276425	0.257543
C75	C	0.602027	1.609758	0.590876
C76	C	-0.204736	0.941776	-0.096643
C77	C	0.128598	1.275109	0.236691
C78	C	0.461931	1.608443	0.570024
C79	C	-0.406250	0.936207	-0.051634
C80	C	-0.072917	1.269541	0.281699
C81	C	0.260417	1.602874	0.615032
C82	C	-0.261454	0.937569	-0.030086
C83	C	0.071879	1.270903	0.303248
C84	C	0.405213	1.604236	0.636581
C85	C	0.396932	0.930685	-0.005933
C86	C	0.730265	1.264019	0.327400
C87	C	1.063599	1.597352	0.660734
C88	C	0.537028	0.932001	0.014913
C89	C	0.870361	1.265334	0.348246
C90	C	1.203694	1.598668	0.681580
C91	C	0.155914	1.081955	-0.052564
C92	C	0.489248	1.415289	0.280769
C93	C	0.822581	1.748622	0.614103
C94	C	0.157786	1.170024	-0.058465
C95	C	0.491119	1.503358	0.274868
C96	C	0.824453	1.836691	0.608202
N97	N	0.181919	0.926954	0.167492
N98	N	0.515252	1.260287	0.500825
N99	N	0.848585	1.593620	0.834159
N100	N	0.150364	0.946829	-0.249216
N101	N	0.483697	1.280163	0.084118
N102	N	0.817030	1.613496	0.417451
C103	C	0.099266	0.978866	0.196893
C104	C	0.432599	1.312199	0.530226
C105	C	0.765933	1.645533	0.863559
C106	C	0.106249	0.974484	0.289052
C107	C	0.439582	1.307817	0.622385
C108	C	0.772916	1.641150	0.955718
C109	C	0.195892	0.918192	0.351809
C110	C	0.529225	1.251526	0.685142
C111	C	0.862559	1.584859	1.018475
C112	C	0.278549	0.866275	0.322402
C113	C	0.611882	1.199608	0.655736
C114	C	0.945215	1.532941	0.989069
C115	C	0.271558	0.870654	0.230244
C116	C	0.604892	1.203987	0.563578
C117	C	0.938225	1.537320	0.896911
C118	C	0.226030	0.899291	0.629220
C119	C	0.559363	1.232624	0.962553
C120	C	0.892697	1.565957	1.295887
C121	C	0.233017	0.894917	0.721383
C122	C	0.566350	1.228250	1.054717
C123	C	0.899683	1.561584	1.388050
C124	C	0.060715	1.003126	0.688026
C125	C	0.394048	1.336459	1.021359
C126	C	0.727381	1.669792	1.354693
C127	C	0.053738	1.007503	0.595868
C128	C	0.387071	1.340836	0.929202
C129	C	0.720404	1.674170	1.262535
C130	C	0.136390	0.955582	0.566469
C131	C	0.469723	1.288916	0.899803
C132	C	0.803056	1.622249	1.233136
N133	N	0.203035	0.913713	0.446011
N134	N	0.536368	1.247047	0.779344
N135	N	0.869701	1.580380	1.112677
N136	N	0.129240	0.960058	0.472268
N137	N	0.462573	1.293392	0.805602
N138	N	0.795907	1.626725	1.138935
H139	H	0.163374	0.702954	-0.167546
H140	H	0.496707	1.036287	0.165787
H141	H	0.830040	1.369621	0.499121
H142	H	-0.263365	0.944372	-0.169575
H143	H	0.069968	1.277705	0.163759
H144	H	0.403302	1.611039	0.497092
Br145	Br	-0.005928	1.044934	0.328955
Br146	Br	0.327405	1.378267	0.662289
Br147	Br	0.660738	1.711600	0.995622
H148	H	-0.006578	1.045396	0.711972
H149	H	0.326755	1.378729	1.045305
H150	H	0.660089	1.712063	1.378638
Br151	Br	0.354691	0.818518	0.806551
Br152	Br	0.688025	1.151852	1.139884
Br153	Br	1.021358	1.485185	1.473218
H154	H	-0.019257	1.053340	0.544772
H155	H	0.314077	1.386673	0.878105
H156	H	0.647410	1.720006	1.211439
Br157	Br	0.338199	0.828831	0.589326
Br158	Br	0.671533	1.162164	0.922659
Br159	Br	1.004866	1.495498	1.255992
H160	H	-0.404339	0.929413	0.087839
H161	H	-0.071005	1.262746	0.421172
H162	H	0.262328	1.596079	0.754506
Br163	Br	-0.022390	1.055271	0.111732
Br164	Br	0.310944	1.388604	0.445065
Br165	Br	0.644277	1.721938	0.778398
H166	H	0.351534	0.820437	0.373504
H167	H	0.684867	1.153770	0.706838
H168	H	1.018200	1.487104	1.040171
H169	H	0.168950	0.170817	0.085826
H170	H	0.502284	0.504150	0.419159
H171	H	0.835617	0.837483	0.752492
Br172	Br	0.156468	0.532433	-0.199286
Br173	Br	0.489801	0.865766	0.134047
Br174	Br	0.823135	1.199099	0.467381
Br175	Br	0.147321	0.359257	-0.258692
Br176	Br	0.480654	0.692590	0.074641
Br177	Br	0.813988	1.025924	0.407975
Br178	Br	-0.503968	0.940544	-0.173190
Br179	Br	-0.170635	1.273877	0.160144
Br180	Br	0.162698	1.607211	0.493477
Br181	Br	-0.163745	0.933257	0.091472
Br182	Br	0.169588	1.266591	0.424805
Br183	Br	0.502921	1.599924	0.758139
Br184	Br	0.383727	0.800193	0.190343
Br185	Br	0.717061	1.133526	0.523676
Br186	Br	1.050394	1.466860	0.857010
Br187	Br	0.143191	0.164206	-0.245606
Br188	Br	0.476525	0.497540	0.087728
Br189	Br	0.809858	0.830873	0.421061
H190	H	0.182162	0.539041	0.132126
H191	H	0.515495	0.872375	0.465460
H192	H	0.848829	1.205708	0.798793
Br193	Br	0.175860	0.341336	0.117570
Br194	Br	0.509193	0.674669	0.450903
Br195	Br	0.842527	1.008002	0.784237
H196	H	0.185329	0.689172	0.122055
H197	H	0.518662	1.022506	0.455389
H198	H	0.851996	1.355839	0.788722
