data_functionalizedCrystal
_audit_creation_method	'MofGen! by Chris Wilmer'
_symmetry_space_group_name_H-M	'P1'
_symmetry_Int_Tables_number	1
_symmetry_cell_setting	triclinic
loop_
_symmetry_equiv_pos_as_xyz
  x,y,z
_cell_length_a	14.421503
_cell_length_b	11.026607
_cell_length_c	11.026607
_cell_angle_alpha	108.586017
_cell_angle_beta	90.007200
_cell_angle_gamma	89.991135
loop_
_atom_site_label
_atom_site_type_symbol
_atom_site_fract_x
_atom_site_fract_y
_atom_site_fract_z
O1	O	0.077109	-1.726737	-0.533608
O2	O	0.077111	-1.360157	-0.472844
O3	O	0.077107	-1.513066	-0.319936
O4	O	0.077113	-1.573829	-0.686516
O5	O	-0.077117	-1.513039	-0.319958
O6	O	-0.077113	-1.360131	-0.472866
O7	O	-0.077114	-1.726711	-0.533630
Cu8	Cu	-0.091195	-1.543419	-0.503250
Cu9	Cu	0.091192	-1.543450	-0.503224
O10	O	-0.077110	-1.573803	-0.686538
C11	C	-0.000001	-1.312485	-0.461645
C12	C	-0.000000	-1.170471	-0.428228
C13	C	-0.000004	-1.501843	-0.272287
C14	C	-0.000000	-1.468426	-0.130273
N15	N	-0.219476	-1.543406	-0.503270
C16	C	-0.469128	-1.472677	-0.573930
C17	C	-0.530931	-1.593227	-0.623818
C18	C	-0.408638	-1.543431	-0.503246
C19	C	-0.530929	-1.422916	-0.453395
C20	C	-0.591359	-1.543445	-0.503224
C21	C	-0.469080	-1.664052	-0.553203
C22	C	-0.469072	-1.493654	-0.382714
C23	C	-0.530847	-1.614277	-0.432571
C24	C	-0.303377	-1.543422	-0.503262
C25	C	-0.696618	-1.543467	-0.503210
N26	N	0.219473	-1.543470	-0.503196
C27	C	-0.000000	-1.774384	-0.544828
C28	C	0.000005	-1.916398	-0.578245
C29	C	0.000002	-1.116821	-0.520498
C30	C	0.000003	-0.970043	-0.485962
C31	C	0.000003	-1.585026	-0.734187
C32	C	0.000005	-1.618443	-0.876200
C33	C	0.000001	-1.560695	-0.076624
C34	C	0.000004	-1.526160	0.070155
H35	H	-0.558102	-1.635342	-0.725742
H36	H	0.000074	-1.723013	0.061072
H37	H	-0.557776	-1.674200	-0.372799
H38	H	-0.441880	-1.451511	-0.280813
N39	N	0.000012	-1.337255	-0.051569
N40	N	0.000019	-1.309386	0.067553
H41	H	0.000029	-1.216744	0.123138
N42	N	-0.000014	-0.995074	-0.709431
N43	N	-0.065029	-1.071806	-0.752037
H44	H	-0.065045	-1.127371	-0.844686
N45	N	-0.000014	-1.091766	-0.297058
N46	N	-0.000020	-0.972645	-0.269189
H47	H	-0.000032	-0.917059	-0.176547
H48	H	-0.442029	-1.412934	-0.633784
N49	N	0.000010	-1.691866	-0.155328
N50	N	0.000012	-1.719735	-0.274450
H51	H	0.000021	-1.812377	-0.330035
N52	N	-0.000008	-1.195490	-0.651681
N53	N	-0.065017	-1.187481	-0.723731
H54	H	-0.065027	-1.243038	-0.816383
N55	N	0.000014	-1.394968	0.148815
N56	N	0.065021	-1.322935	0.140823
H57	H	0.065028	-1.230282	0.196376
H58	H	-0.442026	-1.766022	-0.595476
H59	H	-0.558099	-1.320993	-0.411244
H60	H	0.000025	-0.907314	-0.381393
