data_functionalizedCrystal
_audit_creation_method	'MofGen! by Chris Wilmer'
_symmetry_space_group_name_H-M	'P1'
_symmetry_Int_Tables_number	1
_symmetry_cell_setting	triclinic
loop_
_symmetry_equiv_pos_as_xyz
  x,y,z
_cell_length_a	15.297475
_cell_length_b	25.639239
_cell_length_c	15.296720
_cell_angle_alpha	80.361793
_cell_angle_beta	88.382886
_cell_angle_gamma	80.341033
loop_
_atom_site_label
_atom_site_type_symbol
_atom_site_fract_x
_atom_site_fract_y
_atom_site_fract_z
Zn1	Zn	1.253207	-0.406887	0.726513
Zn2	Zn	1.278434	-0.482168	0.580013
Zn3	Zn	1.132099	-0.377517	0.554760
Zn4	Zn	1.106663	-0.477029	0.701143
O5	O	1.192601	-0.435900	0.640607
O6	O	1.379125	-0.431315	0.728266
O7	O	1.280225	-0.458145	0.454091
O8	O	1.148252	-0.308261	0.577593
O9	O	1.397659	-0.486624	0.620633
O10	O	1.237230	-0.329840	0.703779
O11	O	1.172713	-0.381258	0.435538
O12	O	1.006154	-0.376275	0.552992
O13	O	1.104899	-0.477865	0.827081
O14	O	0.987466	-0.449386	0.660539
O15	O	1.212565	-0.426332	0.845720
O16	O	1.255560	-0.554638	0.596032
O17	O	1.129361	-0.550862	0.685025
C18	C	0.965028	-0.409086	0.601272
C19	C	0.867668	-0.397630	0.584466
C20	C	0.554465	-0.517787	0.760730
C21	C	0.645940	-0.528555	0.776519
C22	C	0.701376	-0.495825	0.728507
C23	C	0.665329	-0.452325	0.664704
C24	C	0.573846	-0.441558	0.648909
C25	C	0.720757	-0.419596	0.616686
C26	C	0.684710	-0.376095	0.552882
C27	C	0.593235	-0.365331	0.537091
C28	C	0.537799	-0.398061	0.585103
C29	C	0.812240	-0.430362	0.632481
C30	C	0.831621	-0.354133	0.520659
C31	C	0.740146	-0.343365	0.504871
C32	C	1.192458	-0.571722	0.640539
C33	C	1.192472	-0.629839	0.640553
C34	C	1.126881	-0.879094	0.686926
C35	C	1.126850	-0.824485	0.686911
O36	O	1.070943	-0.794581	0.726285
N37	N	1.192575	-0.799129	0.640618
C38	C	1.258339	-0.828386	0.594345
O39	O	1.314241	-0.801805	0.554969
C40	C	1.258373	-0.882995	0.594367
C41	C	1.192639	-0.908347	0.640655
C42	C	1.061153	-0.904446	0.733212
C43	C	1.061183	-0.959051	0.733226
C44	C	1.126941	-0.988304	0.686955
C45	C	1.192669	-0.962952	0.640669
C46	C	1.324140	-0.912252	0.548100
C47	C	1.324169	-0.966865	0.548126
C48	C	1.258435	-0.992217	0.594414
C49	C	1.258457	-1.046810	0.594412
N50	N	1.192732	-1.072166	0.640705
C51	C	1.126974	-1.042913	0.686976
C52	C	1.258265	-0.713704	0.594305
C53	C	1.258228	-0.659096	0.594278
C54	C	1.126740	-0.655198	0.686845
C55	C	1.126773	-0.709807	0.686866
C56	C	1.192540	-0.739060	0.640598
C57	C	1.127042	-1.157587	0.687002
C58	C	1.127076	-1.212197	0.687009
C59	C	1.258566	-1.216090	0.594446
C60	C	1.258530	-1.161485	0.594435
C61	C	1.192764	-1.132235	0.640720
O62	O	1.314337	-1.076748	0.555061
O63	O	1.071089	-1.069503	0.726356
C64	C	1.421062	-0.462819	0.680096
C65	C	1.518418	-0.474290	0.696924
C66	C	1.153081	-0.454802	0.869071
C67	C	1.136240	-0.462856	0.966428
C68	C	1.192764	-0.299553	0.640699
C69	C	1.192834	-0.241450	0.640738
C70	C	1.232017	-0.417040	0.413041
C71	C	1.249028	-0.408859	0.315714
C72	C	1.312998	-0.378244	1.279683
C73	C	1.328827	-0.370678	1.188212
C74	C	1.280681	-0.393722	1.132761
C75	C	1.216705	-0.424333	1.168791
C76	C	1.200880	-0.431904	1.260272
C77	C	1.168563	-0.447381	1.113351
C78	C	1.104586	-0.477993	1.149381
C79	C	1.088764	-0.485562	1.240853
C80	C	1.136909	-0.462518	1.296303
C81	C	1.184388	-0.439811	1.021870
C82	C	1.072269	-0.493471	1.002459
C83	C	1.056441	-0.501037	1.093930
H84	H	0.675283	-0.563974	0.828466
H85	H	0.775859	-0.504594	0.741366
H86	H	0.876758	-0.327482	0.481563
H87	H	1.033067	-0.512236	0.957311
H88	H	1.007654	-0.979687	0.770917
H89	H	1.380919	-0.345755	1.158883
H90	H	1.036677	-0.510493	1.270186
H91	H	1.377667	-0.891619	0.510408
H92	H	1.004350	-0.525961	1.123279
H93	H	0.841581	-0.465780	0.684430
H94	H	0.509322	-0.544434	0.799809
H95	H	0.563890	-0.329915	0.485129
H96	H	0.463311	-0.389295	0.572253
H97	H	1.352196	-0.359489	1.324839
H98	H	1.293573	-0.387560	1.058282
H99	H	1.007604	-0.880633	0.770896
H100	H	0.710783	-0.307947	0.452921
H101	H	1.311747	-0.638456	0.556574
H102	H	1.073545	-1.232835	0.724705
H103	H	1.236477	-0.414886	0.992543
H104	H	1.073490	-1.133778	0.724693
H105	H	1.073251	-0.730446	0.724564
H106	H	1.073197	-0.631371	0.724523
H107	H	1.124025	-0.468677	1.370787
H108	H	1.311819	-0.737518	0.556620
H109	H	1.377728	-0.990681	0.510451
H110	H	1.312049	-1.140841	0.556733
H111	H	1.312102	-1.239917	0.556770
