data_functionalizedCrystal
_audit_creation_method	'MofGen! by Chris Wilmer'
_symmetry_space_group_name_H-M	'P1'
_symmetry_Int_Tables_number	1
_symmetry_cell_setting	triclinic
loop_
_symmetry_equiv_pos_as_xyz
  x,y,z
_cell_length_a	15.995300
_cell_length_b	14.519709
_cell_length_c	13.596369
_cell_angle_alpha	90.000208
_cell_angle_beta	89.993087
_cell_angle_gamma	83.575976
loop_
_atom_site_label
_atom_site_type_symbol
_atom_site_fract_x
_atom_site_fract_y
_atom_site_fract_z
O1	O	1.111190	0.118654	-0.081814
O2	O	1.444524	0.451987	0.251520
O3	O	1.777857	0.785320	0.584853
O4	O	0.867431	0.133381	-0.081806
O5	O	1.200765	0.466715	0.251527
O6	O	1.534098	0.800048	0.584861
O7	O	0.995774	-0.008234	-0.081819
O8	O	1.329107	0.325099	0.251514
O9	O	1.662440	0.658433	0.584848
O10	O	0.982848	0.260269	-0.081801
O11	O	1.316181	0.593602	0.251533
O12	O	1.649515	0.926936	0.584866
O13	O	0.995761	-0.008241	0.081764
O14	O	1.329094	0.325092	0.415097
O15	O	1.662428	0.658425	0.748430
O16	O	0.867419	0.133374	0.081777
O17	O	1.200752	0.466707	0.415110
O18	O	1.534085	0.800041	0.748443
O19	O	1.111177	0.118646	0.081769
O20	O	1.444511	0.451979	0.415102
O21	O	1.777844	0.785313	0.748436
Zn22	Zn	0.989296	0.126009	0.107745
Zn23	Zn	1.322629	0.459342	0.441079
Zn24	Zn	1.655963	0.792675	0.774412
Zn25	Zn	0.989313	0.126019	-0.107782
Zn26	Zn	1.322646	0.459352	0.225551
Zn27	Zn	1.655979	0.792685	0.558884
O28	O	0.982835	0.260261	0.081782
O29	O	1.316168	0.593595	0.415115
O30	O	1.649502	0.926928	0.748449
C31	C	0.836229	0.132777	-0.000014
C32	C	1.169562	0.466110	0.333319
C33	C	1.502895	0.799444	0.666653
C34	C	0.743273	0.130976	-0.000012
C35	C	1.076607	0.464309	0.333322
C36	C	1.409940	0.797643	0.666655
C37	C	0.573085	0.127650	-0.000020
C38	C	0.906419	0.460984	0.333314
C39	C	1.239752	0.794317	0.666647
C40	C	0.525770	0.228484	-0.000010
C41	C	0.859104	0.561817	0.333323
C42	C	1.192437	0.895150	0.666656
C43	C	0.429080	0.226644	-0.000384
C44	C	0.762413	0.559977	0.332949
C45	C	1.095746	0.893311	0.666282
C46	C	0.405524	0.124377	-0.000026
C47	C	0.738857	0.457710	0.333307
C48	C	1.072190	0.791044	0.666641
C49	C	0.446589	0.074354	-0.093259
C50	C	0.779922	0.407688	0.240074
C51	C	1.113255	0.741021	0.573408
C52	C	0.543226	0.076906	-0.093335
C53	C	0.876559	0.410239	0.239999
C54	C	1.209893	0.743573	0.573332
C55	C	0.543488	0.075405	0.092696
C56	C	0.876822	0.408738	0.426029
C57	C	1.210155	0.742071	0.759363
C58	C	0.446544	0.075414	0.093919
C59	C	0.779877	0.408747	0.427252
C60	C	1.113211	0.742080	0.760586
C61	C	0.310826	0.122522	-0.000033
C62	C	0.644159	0.455855	0.333300
C63	C	0.977492	0.789189	0.666634
C64	C	0.667784	0.129503	-0.000019
C65	C	1.001117	0.462836	0.333314
C66	C	1.334450	0.796169	0.666647
C67	C	0.995165	-0.042596	-0.000032
C68	C	1.328498	0.290737	0.333301
C69	C	1.661832	0.624070	0.666635
C70	C	0.993360	-0.144974	-0.000045
C71	C	1.326693	0.188359	0.333288
C72	C	1.660026	0.521693	0.666622
C73	C	1.142380	0.119251	-0.000025
C74	C	1.475714	0.452584	0.333308
C75	C	1.809047	0.785917	0.666641
C76	C	1.235336	0.121051	-0.000034
C77	C	1.568669	0.454385	0.333299
C78	C	1.902002	0.787718	0.666633
C79	C	0.983444	0.294624	-0.000007
C80	C	1.316777	0.627957	0.333326
C81	C	1.650111	0.961290	0.666660
C82	C	0.985249	0.397001	-0.000001
C83	C	1.318582	0.730335	0.333333
C84	C	1.651916	1.063668	0.666666
N85	N	0.989291	0.126002	0.254837
N86	N	1.322624	0.459335	0.588170
N87	N	1.655957	0.792668	0.921504
C88	C	0.991895	0.771884	-0.000040
C89	C	1.325228	1.105217	0.333294
C90	C	1.658561	1.438550	0.666627
C91	C	0.990049	0.667580	-0.000029
C92	C	1.323383	1.000913	0.333305
C93	C	1.656716	1.334246	0.666638
C94	C	0.988572	0.584446	-0.000019
C95	C	1.321905	0.917779	0.333314
C96	C	1.655239	1.251113	0.666647
C97	C	0.986726	0.480135	-0.000010
C98	C	1.320059	0.813468	0.333323
C99	C	1.653393	1.146802	0.666657
N100	N	0.989325	0.126019	-0.254874
N101	N	1.322658	0.459352	0.078459
N102	N	1.655992	0.792685	0.411793
C103	C	0.989312	0.126020	0.656128
C104	C	1.322645	0.459353	0.989461
C105	C	1.655978	0.792686	1.322795
C106	C	0.989303	0.126018	0.544477
C107	C	1.322637	0.459351	0.877810
C108	C	1.655970	0.792684	1.211143
C109	C	0.989302	0.126011	0.455486
C110	C	1.322635	0.459345	0.788819
C111	C	1.655968	0.792678	1.122153
C112	C	0.989292	0.126008	0.343828
C113	C	1.322626	0.459341	0.677161
C114	C	1.655959	0.792675	1.010494
H115	H	0.564033	0.108598	0.163384
H116	H	0.897366	0.441932	0.496717
H117	H	1.230699	0.775265	0.830051
Cl118	Cl	0.386178	0.287074	-0.104166
Cl119	Cl	0.719511	0.620407	0.229167
Cl120	Cl	1.052844	0.953741	0.562500
Cl121	Cl	0.402935	0.127387	-0.200782
Cl122	Cl	0.736269	0.460721	0.132552
Cl123	Cl	1.069602	0.794054	0.465885
H124	H	0.545444	0.268405	-0.066763
H125	H	0.878777	0.601738	0.266570
H126	H	1.212111	0.935072	0.599904
H127	H	0.561604	0.112964	-0.163287
H128	H	0.894938	0.446297	0.170047
H129	H	1.228271	0.779630	0.503380
Cl130	Cl	0.592399	-0.039367	0.094088
Cl131	Cl	0.925733	0.293966	0.427421
Cl132	Cl	1.259066	0.627300	0.760755
H133	H	0.400670	0.265950	0.066434
H134	H	0.734003	0.599283	0.399767
H135	H	1.067337	0.932617	0.733101
Cl136	Cl	0.554930	0.291296	0.102765
Cl137	Cl	0.888263	0.624629	0.436098
Cl138	Cl	1.221597	0.957963	0.769431
H139	H	0.419253	0.111943	0.162894
H140	H	0.752587	0.445276	0.496227
H141	H	1.085920	0.778610	0.829561
H142	H	0.431094	0.000854	0.099819
H143	H	0.764427	0.334187	0.433152
H144	H	1.097760	0.667520	0.766486
Cl145	Cl	0.592886	-0.037406	-0.099488
Cl146	Cl	0.926220	0.295927	0.233845
Cl147	Cl	1.259553	0.629260	0.567178
H148	H	0.432377	-0.000789	-0.096469
H149	H	0.765710	0.332545	0.236864
H150	H	1.099043	0.665878	0.570197
