data_functionalizedCrystal
_audit_creation_method	'MofGen! by Chris Wilmer'
_symmetry_space_group_name_H-M	'P1'
_symmetry_Int_Tables_number	1
_symmetry_cell_setting	triclinic
loop_
_symmetry_equiv_pos_as_xyz
  x,y,z
_cell_length_a	19.288872
_cell_length_b	18.366186
_cell_length_c	14.853567
_cell_angle_alpha	90.002438
_cell_angle_beta	83.387101
_cell_angle_gamma	90.008345
loop_
_atom_site_label
_atom_site_type_symbol
_atom_site_fract_x
_atom_site_fract_y
_atom_site_fract_z
O1	O	0.921729	0.060531	0.112496
O2	O	0.719520	0.060535	0.127660
O3	O	0.826026	0.060535	-0.011182
O4	O	0.815223	0.060531	0.251338
O5	O	0.826008	-0.060564	-0.011189
O6	O	0.719502	-0.060565	0.127653
O7	O	0.921711	-0.060568	0.112489
Zn8	Zn	0.820604	-0.079793	0.120070
Zn9	Zn	0.820628	0.079760	0.120079
O10	O	0.815205	-0.060568	0.251332
C11	C	0.693633	-0.000014	0.127168
C12	C	0.616525	-0.000013	0.125700
N13	N	0.820592	-0.188685	0.120064
C14	C	0.947598	-0.000017	0.112982
C15	C	1.024706	-0.000014	0.114450
C16	C	0.825528	-0.000012	-0.044771
C17	C	0.824061	-0.000006	-0.144847
C18	C	1.580314	0.065997	0.125004
C19	C	1.507862	0.065998	0.123633
C20	C	1.471625	-0.000013	0.122940
C21	C	1.507844	-0.066031	0.123641
C22	C	1.580294	-0.066031	0.125021
C23	C	1.362106	-0.050587	0.067949
C24	C	1.289658	-0.050585	0.066563
C25	C	1.248165	-0.000017	0.118688
C26	C	1.279130	0.050561	0.172186
C27	C	1.351580	0.050561	0.173566
C28	C	1.393065	-0.000021	0.121444
C29	C	1.133393	0.065999	0.116507
C30	C	1.060939	0.065998	0.115141
C31	C	1.060923	-0.066033	0.115140
C32	C	1.133375	-0.066030	0.116514
C33	C	1.169606	-0.000012	0.117193
C34	C	0.867769	-0.226785	0.058614
C35	C	0.867773	-0.303013	0.058610
C36	C	0.820608	-0.341137	0.120071
C37	C	0.773423	-0.303028	0.181525
C38	C	0.773415	-0.226802	0.181521
C39	C	0.811587	-0.461899	0.202214
C40	C	0.811600	-0.538124	0.202219
C41	C	0.820628	-0.576245	0.120082
C42	C	0.829658	-0.538132	0.037937
C43	C	0.829650	-0.461905	0.037933
C44	C	0.820611	-0.423792	0.120082
C45	C	0.867811	-0.697000	0.058624
C46	C	0.867811	-0.773229	0.058618
C47	C	0.773464	-0.773243	0.181541
C48	C	0.773461	-0.697015	0.181538
C49	C	0.820638	-0.658898	0.120081
N50	N	0.820644	0.188651	0.120079
C51	C	0.754594	-0.000019	-0.556988
C52	C	0.881125	-0.000021	-0.578984
C53	C	0.882504	-0.000017	-0.484958
C54	C	0.819927	-0.000014	-0.426943
C55	C	0.755971	-0.000017	-0.462953
C56	C	0.946459	-0.000022	-0.448941
C57	C	0.947841	-0.000018	-0.354909
C58	C	0.885263	-0.000011	-0.296892
C59	C	0.821304	-0.000012	-0.332908
C60	C	0.758727	-0.000010	-0.274892
C61	C	0.694768	-0.000007	-0.310906
C62	C	0.693393	-0.000009	-0.404936
C63	C	0.886638	-0.000008	-0.202862
C64	C	0.760105	-0.000008	-0.180857
C65	C	0.815704	-0.000019	0.284921
C66	C	0.817171	-0.000021	0.384996
H67	H	1.478373	0.119753	0.123068
N68	N	0.692608	-0.000020	-0.118288
H69	H	0.703183	-0.000024	-0.053255
H70	H	0.664743	0.044872	-0.129913
H71	H	0.643818	-0.000010	-0.263658
H72	H	0.641321	-0.000007	-0.434267
N73	N	1.172436	-0.137229	0.117244
H74	H	1.223830	-0.127212	0.118222
H75	H	1.154193	-0.166057	0.172876
H76	H	0.702519	-0.000013	-0.586315
N77	N	1.021879	0.137197	0.114385
H78	H	0.986245	0.140148	0.169687
H79	H	1.055874	0.178975	0.114987
N80	N	0.918668	-0.655884	-0.007692
H81	H	0.911503	-0.601813	0.001627
H82	H	0.967958	-0.669187	0.002537
N83	N	0.948616	-0.000035	-0.641552
H84	H	0.938038	-0.000040	-0.706584
H85	H	0.976493	0.044858	-0.629927
N86	N	1.234386	0.105108	0.228409
H87	H	1.248968	0.156070	0.208928
H88	H	1.183806	0.097369	0.219398
N89	N	0.801855	-0.420788	0.290812
H90	H	0.803219	-0.366717	0.278347
H91	H	0.755324	-0.434122	0.325135
N92	N	1.013949	-0.000037	-0.511510
H93	H	1.003370	-0.000037	-0.576542
H94	H	1.041830	0.044852	-0.499882
N95	N	1.016822	-0.000008	-0.316072
H96	H	1.008202	-0.000002	-0.247701
H97	H	1.044205	-0.044901	-0.337307
N98	N	1.021846	-0.137232	0.114403
H99	H	0.970336	-0.127219	0.114689
H100	H	1.039413	-0.165621	0.058134
H101	H	0.735048	-0.665992	0.231580
N102	N	1.384980	0.105108	0.231261
H103	H	1.347706	0.137147	0.264073
H104	H	1.410535	0.078455	0.276936
N105	N	0.955613	-0.000021	-0.164017
H106	H	0.983046	0.044866	-0.185189
H107	H	0.946931	-0.000047	-0.095653
N108	N	1.619349	-0.137234	0.125763
H109	H	1.654983	-0.140178	0.070461
H110	H	1.643790	-0.140133	0.182244
H111	H	0.735019	-0.334073	0.231566
H112	H	1.264452	-0.091765	0.022997
N113	N	0.801856	-0.579229	0.290812
H114	H	0.796124	-0.543515	0.342845
H115	H	0.758874	-0.610865	0.292827
H116	H	1.609809	0.119754	0.125557
H117	H	0.734998	-0.195780	0.231562
H118	H	0.735058	-0.804284	0.231580
N119	N	1.172477	0.137200	0.117244
H120	H	1.138539	0.179019	0.116602
H121	H	1.196964	0.140076	0.173689
N122	N	0.918656	-0.344119	-0.007672
H123	H	0.948540	-0.308405	-0.046606
H124	H	0.949392	-0.375734	0.026752
N125	N	1.406856	-0.105134	0.011729
H126	H	1.376249	-0.137169	-0.022376
H127	H	1.441421	-0.078480	-0.032801
N128	N	1.468764	-0.137230	0.122899
H129	H	1.417254	-0.127219	0.123181
H130	H	1.486335	-0.165619	0.066631
H131	H	0.837009	-0.569168	-0.028947
N132	N	0.918648	-0.185673	-0.007672
H133	H	0.948535	-0.221381	-0.046602
H134	H	0.892019	-0.154058	-0.047446
N135	N	0.839389	-0.420796	-0.050657
H136	H	0.800747	-0.434069	-0.088120
H137	H	0.838032	-0.366738	-0.038112
N138	N	0.918708	-0.814327	-0.007647
H139	H	0.948597	-0.778610	-0.046570
H140	H	0.949436	-0.845936	0.026794
