data_functionalizedCrystal
_audit_creation_method	'MofGen! by Chris Wilmer'
_symmetry_space_group_name_H-M	'P1'
_symmetry_Int_Tables_number	1
_symmetry_cell_setting	triclinic
loop_
_symmetry_equiv_pos_as_xyz
  x,y,z
_cell_length_a	16.109302
_cell_length_b	16.109301
_cell_length_c	14.048226
_cell_angle_alpha	89.992144
_cell_angle_beta	89.991597
_cell_angle_gamma	83.461631
loop_
_atom_site_label
_atom_site_type_symbol
_atom_site_fract_x
_atom_site_fract_y
_atom_site_fract_z
O1	O	1.103134	0.106872	-0.079206
O2	O	0.861072	0.120171	-0.079199
O3	O	0.988752	-0.007510	-0.079193
O4	O	0.975453	0.234552	-0.079212
O5	O	0.988737	-0.007517	0.079128
O6	O	0.861056	0.120163	0.079122
O7	O	1.103118	0.106864	0.079115
Zn8	Zn	0.982085	0.113512	0.104255
Zn9	Zn	0.982105	0.113522	-0.104340
O10	O	0.975438	0.234545	0.079109
C11	C	0.988206	-0.038488	-0.000032
C12	C	0.986591	-0.130784	-0.000031
C13	C	0.830089	0.119628	-0.000038
C14	C	0.737794	0.118013	-0.000035
C15	C	1.058599	-0.353056	-0.000048
C16	C	1.057074	-0.439776	-0.000056
C17	C	0.905586	-0.419902	-0.000048
C18	C	0.907111	-0.333184	-0.000047
C19	C	0.983620	-0.299763	-0.000042
C20	C	0.980571	-0.473202	-0.000051
C21	C	0.978918	-0.567228	-0.000059
C22	C	0.985273	-0.205731	-0.000035
C23	C	0.525445	0.114273	0.086257
C24	C	0.438725	0.112747	0.086254
C25	C	0.438752	0.112759	-0.086357
C26	C	0.525471	0.114280	-0.086352
C27	C	0.568815	0.115041	-0.000043
C28	C	0.395375	0.111994	-0.000050
C29	C	0.301350	0.110338	-0.000054
C30	C	0.662847	0.116695	-0.000038
C31	C	1.134101	0.107407	-0.000049
C32	C	1.226396	0.109022	-0.000058
C33	C	0.975984	0.265523	-0.000054
C34	C	0.977599	0.357819	-0.000062
N35	N	0.982077	0.113505	0.246616
N36	N	0.982119	0.113523	-0.246700
C37	C	1.038632	0.056992	0.296437
C38	C	1.038638	0.056991	0.396094
C39	C	0.982092	0.113509	0.445930
C40	C	0.925531	0.170025	0.396102
C41	C	0.925522	0.170021	0.296446
C42	C	0.925555	0.170031	0.603816
C43	C	0.925565	0.170037	0.703479
C44	C	1.038670	0.057001	0.703465
C45	C	1.038662	0.056997	0.603809
C46	C	0.982102	0.113515	0.553988
H47	H	1.120897	-0.325848	-0.000046
C48	C	1.206965	-0.450704	-0.000049
C49	C	1.139494	-0.498356	-0.000056
H50	H	1.257849	-0.486871	-0.000044
H51	H	1.204415	-0.416462	-0.055255
H52	H	1.204395	-0.416473	0.055166
H53	H	1.142060	-0.532583	-0.055275
H54	H	1.142045	-0.532613	0.055155
C55	C	0.447489	0.112929	-0.256974
C56	C	0.391105	0.111936	-0.181226
H57	H	0.418073	0.112419	-0.315542
H58	H	0.474960	0.161971	-0.253379
H59	H	0.487666	0.065062	-0.253378
H60	H	0.350932	0.159807	-0.184818
H61	H	0.363621	0.062889	-0.184822
C62	C	0.835983	-0.544012	-0.000033
C63	C	0.821490	-0.456642	-0.000039
H64	H	0.784064	-0.566690	-0.000019
H65	H	0.866850	-0.562297	-0.055243
H66	H	0.866855	-0.562303	0.055177
H67	H	0.790624	-0.438351	-0.055253
H68	H	0.790610	-0.438350	0.055177
C69	C	0.812398	0.188032	0.508213
C70	C	0.863375	0.232149	0.450883
H71	H	0.774031	0.226389	0.542036
H72	H	0.782501	0.153422	0.469354
H73	H	0.846093	0.154378	0.552142
H74	H	0.829681	0.265800	0.406949
H75	H	0.893275	0.266774	0.489746
H76	H	0.846050	-0.289790	-0.000045
H77	H	0.403417	0.112122	0.156528
C78	C	0.613651	0.187425	-0.186485
C79	C	0.573152	0.115125	-0.181219
H80	H	0.643092	0.187941	-0.245047
H81	H	0.573468	0.235278	-0.182908
H82	H	0.651873	0.188082	-0.135077
H83	H	0.534926	0.114472	-0.232624
H84	H	0.613341	0.067261	-0.184805
H85	H	1.084681	0.010972	0.255868
H86	H	0.560732	0.114893	0.156536
C87	C	1.150457	-0.054715	0.386070
C88	C	1.100817	-0.005118	0.450857
H89	H	1.188851	-0.093054	0.419880
H90	H	1.115864	-0.084644	0.347224
H91	H	1.180332	-0.020081	0.347179
H92	H	1.070937	-0.039751	0.489745
H93	H	1.135414	0.024814	0.489719
C94	C	0.813732	0.281759	0.306464
C95	C	0.863359	0.232146	0.241679
H96	H	0.775356	0.320114	0.272652
H97	H	0.783843	0.247143	0.345347
H98	H	0.848340	0.311676	0.345318
H99	H	0.828751	0.202224	0.202830
H100	H	0.893250	0.266767	0.202779
H101	H	1.084709	0.010980	0.563233
H102	H	1.084723	0.010983	0.744034
C103	C	0.907478	0.283193	0.815524
C104	C	0.863401	0.232158	0.758253
H105	H	0.869097	0.321547	0.849332
H106	H	0.941156	0.249541	0.859457
H107	H	0.942063	0.313111	0.776620
H108	H	0.828821	0.202235	0.797159
H109	H	0.829709	0.265814	0.714315
H110	H	0.879495	0.216051	0.563255
