data_functionalizedCrystal
_audit_creation_method	'MofGen! by Chris Wilmer'
_symmetry_space_group_name_H-M	'P1'
_symmetry_Int_Tables_number	1
_symmetry_cell_setting	triclinic
loop_
_symmetry_equiv_pos_as_xyz
  x,y,z
_cell_length_a	12.827893
_cell_length_b	13.031981
_cell_length_c	12.827885
_cell_angle_alpha	82.783278
_cell_angle_beta	89.980538
_cell_angle_gamma	97.191988
loop_
_atom_site_label
_atom_site_type_symbol
_atom_site_fract_x
_atom_site_fract_y
_atom_site_fract_z
Zn1	Zn	1.544849	-0.416061	-0.537949
Zn2	Zn	1.522549	-0.590874	-0.340982
Zn3	Zn	1.370083	-0.416113	-0.363216
Zn4	Zn	1.347892	-0.590797	-0.515692
O5	O	1.446343	-0.503461	-0.439460
O6	O	1.688126	-0.439262	-0.511830
O7	O	1.502279	-0.567745	-0.197689
O8	O	1.411887	-0.269841	-0.405013
O9	O	1.671742	-0.567695	-0.367120
O10	O	1.540286	-0.269803	-0.533389
O11	O	1.390263	-0.439349	-0.214023
O12	O	1.220905	-0.439274	-0.383432
O13	O	1.374064	-0.567564	-0.664888
O14	O	1.204601	-0.567614	-0.495456
O15	O	1.518768	-0.439187	-0.681239
O16	O	1.480760	-0.737129	-0.345539
O17	O	1.352440	-0.737072	-0.473897
C18	C	1.174836	-0.503442	-0.439442
C19	C	1.058681	-0.503459	-0.439456
C20	C	1.014989	-0.440018	-0.511148
C21	C	0.894936	-0.440035	-0.511165
C22	C	1.411801	-0.775026	-0.404913
C23	C	1.397119	-0.891202	-0.390169
C24	C	1.454061	-0.942895	-0.447176
C25	C	1.438888	-1.062970	-0.431938
C26	C	1.718911	-0.503481	-0.439478
C27	C	1.835063	-0.503490	-0.439485
C28	C	1.446428	-0.503361	-0.712043
C29	C	1.446464	-0.503318	-0.828201
C30	C	1.481049	-0.230836	-0.474164
C31	C	1.495839	-0.114660	-0.488953
C32	C	1.391057	-0.439771	-0.888071
C33	C	1.391093	-0.439726	-1.008127
C34	C	1.446329	-0.503486	-0.167947
C35	C	1.446532	-0.503234	-0.051826
H36	H	0.872660	-0.557812	-0.378109
C37	C	1.084513	-0.366628	-0.594053
H38	H	1.156081	-0.376250	-0.583170
H39	H	1.075599	-0.296368	-0.587835
H40	H	1.064758	-0.382003	-0.662308
C41	C	0.844144	-0.366658	-0.594084
H42	H	0.770119	-0.376290	-0.583213
H43	H	0.860063	-0.382015	-0.662332
H44	H	0.870902	-0.296390	-0.587848
H45	H	1.555823	-1.070027	-0.549047
C46	C	1.326997	-0.366237	-1.077629
H47	H	1.335419	-0.375856	-1.149201
H48	H	1.351199	-0.295997	-1.068739
H49	H	1.254815	-0.381537	-1.057835
C50	C	1.326939	-0.366316	-0.837254
H51	H	1.335332	-0.375978	-0.763229
H52	H	1.254770	-0.381580	-0.853141
H53	H	1.351175	-0.296063	-0.864033
H54	H	1.378896	-1.107604	-0.371853
C55	C	1.510620	-0.576739	-0.982333
H56	H	1.545411	-0.616573	-1.025325
H57	H	1.464803	-0.622253	-0.933955
H58	H	1.561202	-0.536731	-0.944854
C59	C	0.989161	-0.576852	-0.356550
H60	H	1.032141	-0.616647	-0.311565
H61	H	0.940809	-0.622407	-0.390699
H62	H	0.951657	-0.536775	-0.316221
C63	C	1.535098	-0.882603	-0.528347
H64	H	1.534670	-0.809809	-0.527934
H65	H	1.517537	-0.900402	-0.596305
H66	H	1.603091	-0.900393	-0.510864
C67	C	1.316083	-0.951494	-0.308997
H68	H	1.316520	-1.024289	-0.309400
H69	H	1.248094	-0.933703	-0.326468
H70	H	1.333656	-0.933697	-0.241035
H71	H	1.493926	-0.557690	-0.865826
