data_functionalizedCrystal
_audit_creation_method	'MofGen! by Chris Wilmer'
_symmetry_space_group_name_H-M	'P1'
_symmetry_Int_Tables_number	1
_symmetry_cell_setting	triclinic
loop_
_symmetry_equiv_pos_as_xyz
  x,y,z
_cell_length_a	12.759401
_cell_length_b	25.639240
_cell_length_c	12.759393
_cell_angle_alpha	89.956840
_cell_angle_beta	89.980324
_cell_angle_gamma	90.033185
loop_
_atom_site_label
_atom_site_type_symbol
_atom_site_fract_x
_atom_site_fract_y
_atom_site_fract_z
Zn1	Zn	1.606135	-0.208120	-0.593892
Zn2	Zn	1.605970	-0.295565	-0.418174
Zn3	Zn	1.430433	-0.208146	-0.418231
Zn4	Zn	1.430370	-0.295526	-0.593815
O5	O	1.518227	-0.251839	-0.506028
O6	O	1.753134	-0.219724	-0.570591
O7	O	1.582643	-0.283995	-0.271160
O8	O	1.453836	-0.134977	-0.441590
O9	O	1.753013	-0.283970	-0.441491
O10	O	1.582923	-0.134958	-0.570647
O11	O	1.453676	-0.219769	-0.271202
O12	O	1.283404	-0.219732	-0.441514
O13	O	1.453728	-0.283905	-0.740846
O14	O	1.283357	-0.283930	-0.570515
O15	O	1.582861	-0.219687	-0.740903
O16	O	1.582581	-0.368725	-0.441416
O17	O	1.453568	-0.368697	-0.570459
C18	C	1.245260	-0.251830	-0.506013
C19	C	1.128483	-0.251839	-0.506032
C20	C	1.073684	-0.218447	-0.573358
C21	C	0.963960	-0.218452	-0.573364
C22	C	0.963843	-0.285246	-0.438717
C23	C	1.073565	-0.285238	-0.438705
C24	C	1.518078	-0.387682	-0.505946
C25	C	1.518111	-0.445796	-0.505946
C26	C	1.585476	-0.806110	-0.573349
C27	C	1.585507	-0.860715	-0.573371
O28	O	1.642606	-0.888910	-0.630595
N29	N	1.518373	-0.888078	-0.506129
C30	C	1.451196	-0.860835	-0.438870
O31	O	1.394095	-0.889123	-0.381679
C32	C	1.451160	-0.806231	-0.438855
C33	C	1.518306	-0.778871	-0.506093
C34	C	1.652616	-0.778749	-0.640583
C35	C	1.652586	-0.724149	-0.640560
C36	C	1.585416	-0.696909	-0.573303
C37	C	1.518276	-0.724270	-0.506070
C38	C	1.383979	-0.778989	-0.371601
C39	C	1.383948	-0.724382	-0.371592
C40	C	1.451094	-0.697021	-0.438831
C41	C	1.451077	-0.642430	-0.438790
N42	N	1.518211	-0.615066	-0.506032
C43	C	1.585381	-0.642306	-0.573288
C44	C	1.451274	-0.975505	-0.438909
C45	C	1.451314	-1.030107	-0.438918
C46	C	1.585624	-1.029984	-0.573420
C47	C	1.585589	-0.975380	-0.573405
C48	C	1.518408	-0.948142	-0.506150
C49	C	1.585314	-0.527641	-0.573234
C50	C	1.585281	-0.473035	-0.573202
C51	C	1.450967	-0.473164	-0.438704
C52	C	1.451003	-0.527765	-0.438732
C53	C	1.518180	-0.555002	-0.506005
O54	O	1.394004	-0.614199	-0.381598
O55	O	1.642462	-0.614010	-0.630479
C56	C	1.792260	-0.251849	-0.506043
C57	C	1.909037	-0.251853	-0.506050
C58	C	1.518306	-0.251789	-0.780061
C59	C	1.518339	-0.251768	-0.896838
C60	C	1.518405	-0.115466	-0.506134
C61	C	1.518480	-0.057352	-0.506179
C62	C	1.585584	-0.218324	-0.951731
C63	C	1.585602	-0.218302	-1.061456
C64	C	1.451127	-0.285170	-1.061383
C65	C	1.451105	-0.285190	-0.951661
C66	C	1.518209	-0.251851	-0.233061
C67	C	1.518379	-0.251725	-0.116284
H68	H	1.118183	-0.312430	-0.383875
H69	H	1.396338	-0.312423	-0.906966
H70	H	1.640328	-0.191108	-0.907098
H71	H	1.396648	-1.052380	-0.384154
C72	C	1.659450	-0.945289	-0.647375
N73	N	1.715083	-0.922626	-0.703095
C74	C	0.903423	-0.321986	-0.364668
N75	N	0.857916	-0.349661	-0.308896
H76	H	1.707313	-0.800922	-0.695357
C77	C	1.377369	-0.945547	-0.364914
N78	N	1.321702	-0.922986	-0.309183
H79	H	0.919348	-0.191260	-0.628186
H80	H	1.396389	-0.312383	-1.106034
H81	H	1.639963	-0.450760	-0.627955
C82	C	1.134090	-0.181702	-0.647409
N83	N	1.179585	-0.154023	-0.703184
H84	H	1.640008	-0.549811	-0.628022
H85	H	1.640358	-0.191068	-1.106145
C86	C	1.726456	-0.694059	-0.714524
N87	N	1.782100	-0.671399	-0.770237
H88	H	1.329301	-0.801256	-0.316848
C89	C	1.659505	-1.059958	-0.647412
N90	N	1.715147	-1.082536	-0.703140
H91	H	1.329238	-0.702206	-0.316826
C92	C	1.377080	-0.443190	-0.364730
N93	N	1.321420	-0.420612	-0.309019
C94	C	1.377146	-0.557862	-0.364761
N95	N	1.321507	-0.580528	-0.309052
