data_functionalizedCrystal
_audit_creation_method	'MofGen! by Chris Wilmer'
_symmetry_space_group_name_H-M	'P1'
_symmetry_Int_Tables_number	1
_symmetry_cell_setting	triclinic
loop_
_symmetry_equiv_pos_as_xyz
  x,y,z
_cell_length_a	25.639242
_cell_length_b	16.120484
_cell_length_c	16.120297
_cell_angle_alpha	84.385569
_cell_angle_beta	92.869733
_cell_angle_gamma	87.078463
loop_
_atom_site_label
_atom_site_type_symbol
_atom_site_fract_x
_atom_site_fract_y
_atom_site_fract_z
Zn1	Zn	0.772386	0.356854	-0.489650
Zn2	Zn	1.105719	0.690187	-0.156316
Zn3	Zn	1.439053	1.023521	0.177017
Zn4	Zn	0.772320	0.489544	-0.356960
Zn5	Zn	1.105654	0.822877	-0.023627
Zn6	Zn	1.438987	1.156210	0.309707
Zn7	Zn	0.689623	0.349779	-0.349875
Zn8	Zn	1.022956	0.683112	-0.016541
Zn9	Zn	1.356290	1.016445	0.316792
Zn10	Zn	0.680262	0.496572	-0.496659
Zn11	Zn	1.013595	0.829906	-0.163326
Zn12	Zn	1.346928	1.163239	0.170007
O13	O	0.728648	0.423187	-0.423286
O14	O	1.061981	0.756520	-0.089952
O15	O	1.395314	1.089854	0.243381
O16	O	0.845541	0.374475	-0.472080
O17	O	1.178874	0.707809	-0.138746
O18	O	1.512208	1.041142	0.194587
O19	O	0.765240	0.465101	-0.239059
O20	O	1.098574	0.798434	0.094274
O21	O	1.431907	1.131768	0.427607
O22	O	0.704547	0.233753	-0.362517
O23	O	1.037880	0.567086	-0.029184
O24	O	1.371213	0.900419	0.304149
O25	O	0.845493	0.471962	-0.374593
O26	O	1.178826	0.805295	-0.041260
O27	O	1.512159	1.138628	0.292073
O28	O	0.765353	0.238951	-0.465209
O29	O	1.098686	0.572284	-0.131876
O30	O	1.432019	0.905617	0.201457
O31	O	0.704483	0.362416	-0.233854
O32	O	1.037816	0.695750	0.099480
O33	O	1.371150	1.029083	0.432813
O34	O	0.615218	0.369231	-0.369314
O35	O	0.948551	0.702565	-0.035981
O36	O	1.281884	1.035898	0.297352
O37	O	0.688592	0.483941	-0.612690
O38	O	1.021925	0.817274	-0.279357
O39	O	1.355259	1.150607	0.053976
O40	O	0.608340	0.477080	-0.477156
O41	O	0.941673	0.810413	-0.143823
O42	O	1.275007	1.143747	0.189510
O43	O	0.756276	0.381290	-0.607540
O44	O	1.089609	0.714624	-0.274207
O45	O	1.422942	1.047957	0.059126
O46	O	0.756163	0.607441	-0.381390
O47	O	1.089497	0.940774	-0.048057
O48	O	1.422830	1.274107	0.285276
O49	O	0.688528	0.612605	-0.484027
O50	O	1.021862	0.945938	-0.150693
O51	O	1.355195	1.279271	0.182640
C52	C	0.721336	0.640351	-0.434256
C53	C	1.054670	0.973685	-0.100923
C54	C	1.388003	1.307018	0.232411
C55	C	0.718255	0.733256	-0.438977
C56	C	1.051589	1.066590	-0.105644
C57	C	1.384922	1.399923	0.227689
C58	C	0.592808	0.423151	-0.423228
C59	C	0.926142	0.756485	-0.089894
C60	C	1.259475	1.089818	0.243439
C61	C	0.534694	0.423157	-0.423223
C62	C	0.868027	0.756490	-0.089890
C63	C	1.201361	1.089824	0.243443
C64	C	0.721397	0.434189	-0.641290
C65	C	1.054730	0.767522	-0.307956
C66	C	1.388064	1.100856	0.025377
C67	C	0.718307	0.438877	-0.734190
C68	C	1.051640	0.772211	-0.400857
C69	C	1.384974	1.105544	-0.067523
C70	C	0.170755	0.479431	-0.479393
C71	C	0.504088	0.812764	-0.146060
C72	C	0.837421	1.146097	0.187274
C73	C	0.116150	0.479436	-0.479406
C74	C	0.449483	0.812770	-0.146073
C75	C	0.782816	1.146103	0.187260
O76	O	0.084875	0.527239	-0.527114
O77	O	0.418208	0.860572	-0.193781
O78	O	0.751542	1.193906	0.139553
N79	N	0.092406	0.423213	-0.423342
N80	N	0.425739	0.756546	-0.090008
N81	N	0.759073	1.089880	0.243325
C82	C	0.123271	0.366974	-0.367265
C83	C	0.456604	0.700308	-0.033932
C84	C	0.789937	1.033641	0.299402
O85	O	0.098061	0.319152	-0.319579
O86	O	0.431394	0.652485	0.013754
O87	O	0.764727	0.985818	0.347087
C88	C	0.177874	0.366965	-0.367256
C89	C	0.511208	0.700298	-0.033923
C90	C	0.844541	1.033632	0.299410
C91	C	0.201615	0.423198	-0.423319
C92	C	0.534948	0.756531	-0.089986
C93	C	0.868282	1.089865	0.243347
C94	C	0.194495	0.535658	-0.535452
C95	C	0.527829	0.868992	-0.202119
C96	C	0.861162	1.202325	0.131215
C97	C	0.249097	0.535653	-0.535437
C98	C	0.582430	0.868987	-0.202104
C99	C	0.915763	1.202320	0.131229
C100	C	0.279957	0.479421	-0.479364
C101	C	0.613290	0.812754	-0.146030
C102	C	0.946624	1.146087	0.187303
C103	C	0.256216	0.423193	-0.423305
C104	C	0.589549	0.756526	-0.089971
C105	C	0.922883	1.089860	0.243362
C106	C	0.208738	0.310723	-0.311185
C107	C	0.542071	0.644056	0.022149
C108	C	0.875405	0.977390	0.355482
C109	C	0.263345	0.310718	-0.311181
C110	C	0.596678	0.644052	0.022152
C111	C	0.930012	0.977385	0.355485
C112	C	0.287086	0.366951	-0.367244
C113	C	0.620419	0.700285	-0.033911
C114	C	0.953752	1.033618	0.299423
C115	C	0.341678	0.366955	-0.367216
C116	C	0.675011	0.700289	-0.033883
C117	C	1.008344	1.033622	0.299451
N118	N	0.365421	0.423179	-0.423281
N119	N	0.698754	0.756512	-0.089948
N120	N	1.032088	1.089846	0.243386
C121	C	0.334561	0.479412	-0.479355
C122	C	0.667894	0.812745	-0.146021
C123	C	1.001227	1.146078	0.187312
C124	C	0.008598	0.366997	-0.367289
C125	C	0.341932	0.700330	-0.033956
C126	C	0.675265	1.033663	0.299378
C127	C	-0.046004	0.367009	-0.367293
C128	C	0.287329	0.700343	-0.033960
C129	C	0.620662	1.033676	0.299374
C130	C	-0.053122	0.479471	-0.479436
C131	C	0.280212	0.812804	-0.146102
C132	C	0.613545	1.146137	0.187231
C133	C	0.001482	0.479461	-0.479427
C134	C	0.334816	0.812795	-0.146093
C135	C	0.668149	1.146128	0.187240
C136	C	0.032342	0.423220	-0.423354
C137	C	0.365675	0.756554	-0.090020
C138	C	0.699009	1.089887	0.243313
C139	C	0.449227	0.479397	-0.479319
C140	C	0.782561	0.812731	-0.145986
C141	C	1.115894	1.146064	0.187348
C142	C	0.503834	0.479390	-0.479297
C143	C	0.837167	0.812723	-0.145964
C144	C	1.170500	1.146056	0.187370
C145	C	0.510946	0.366926	-0.367158
C146	C	0.844279	0.700259	-0.033825
C147	C	1.177613	1.033593	0.299509
C148	C	0.456345	0.366936	-0.367177
C149	C	0.789678	0.700269	-0.033843
C150	C	1.123011	1.033603	0.299490
C151	C	0.425486	0.423175	-0.423264
C152	C	0.758820	0.756508	-0.089931
C153	C	1.092153	1.089842	0.243403
O154	O	0.372985	0.319175	-0.319535
O155	O	0.706319	0.652509	0.013798
O156	O	1.039652	0.985842	0.347131
O157	O	0.359778	0.527219	-0.527040
O158	O	0.693111	0.860552	-0.193707
O159	O	1.026444	1.193885	0.139627
C160	C	0.865018	0.423224	-0.423345
C161	C	1.198351	0.756557	-0.090012
C162	C	1.531684	1.089890	0.243322
C163	C	0.923130	0.423239	-0.423370
C164	C	1.256464	0.756573	-0.090037
C165	C	1.589797	1.089906	0.243297
C166	C	0.736001	0.205176	-0.412291
C167	C	1.069335	0.538509	-0.078958
C168	C	1.402668	0.871843	0.254376
C169	C	0.739135	0.112273	-0.407606
C170	C	1.072468	0.445606	-0.074272
C171	C	1.405802	0.778939	0.259061
C172	C	0.712633	0.903356	-0.447614
C173	C	1.045966	1.236689	-0.114281
C174	C	1.379300	1.570022	0.219053
C175	C	0.744756	0.942179	-0.398972
C176	C	1.078089	1.275512	-0.065638
C177	C	1.411422	1.608846	0.267695
C178	C	0.741627	1.036828	-0.403777
C179	C	1.074961	1.370161	-0.070444
C180	C	1.408294	1.703495	0.262890
C181	C	0.715761	0.808698	-0.442809
C182	C	1.049094	1.142031	-0.109476
C183	C	1.382427	1.475365	0.223857
C184	C	0.712647	0.447418	-0.904279
C185	C	1.045981	0.780752	-0.570946
C186	C	1.379314	1.114085	-0.237612
C187	C	0.744760	0.398706	-0.943132
C188	C	1.078093	0.732039	-0.609799
C189	C	1.411426	1.065372	-0.276465
C190	C	0.741610	0.403458	-1.037775
C191	C	1.074944	0.736791	-0.704442
C192	C	1.408277	1.070125	-0.371108
C193	C	0.715796	0.442667	-0.809627
C194	C	1.049129	0.776000	-0.476294
C195	C	1.382462	1.109334	-0.142961
C196	C	0.735902	0.412168	-0.206127
C197	C	1.069236	0.745501	0.127206
C198	C	1.402569	1.078835	0.460540
C199	C	0.739101	0.407244	-0.113215
C200	C	1.072435	0.740578	0.220118
C201	C	1.405768	1.073911	0.553451
H202	H	0.523160	0.525185	-0.524951
H203	H	0.856494	0.858518	-0.191618
H204	H	1.189827	1.191851	0.141716
Br205	Br	0.662882	0.966431	-0.523034
Br206	Br	0.996215	1.299765	-0.189701
Br207	Br	1.329549	1.633098	0.143632
H208	H	0.536082	0.321145	-0.321502
H209	H	0.869416	0.654479	0.011832
H210	H	1.202749	0.987812	0.345165
Br211	Br	-0.078217	0.290703	-0.291192
Br212	Br	0.255117	0.624036	0.042141
Br213	Br	0.588450	0.957369	0.375475
H214	H	0.774616	0.353432	-0.905316
H215	H	1.107950	0.686765	-0.571982
H216	H	1.441283	1.020098	-0.238649
H217	H	0.774606	0.904332	-0.353718
H218	H	1.107939	1.237666	-0.020385
H219	H	1.441273	1.570999	0.312949
H220	H	0.424109	0.525191	-0.524993
H221	H	0.757442	0.858524	-0.191659
H222	H	1.090775	1.191857	0.141674
Br223	Br	0.281307	0.611970	-0.611530
Br224	Br	0.614640	0.945303	-0.278197
Br225	Br	0.947974	1.278637	0.055136
Br226	Br	0.662887	0.522875	-0.967305
Br227	Br	0.996220	0.856208	-0.633972
Br228	Br	1.329554	1.189542	-0.300638
H229	H	0.169374	0.581450	-0.581119
H230	H	0.502707	0.914784	-0.247785
H231	H	0.836041	1.248117	0.085548
Br232	Br	0.033696	0.555780	-0.555515
Br233	Br	0.367029	0.889113	-0.222181
Br234	Br	0.700362	1.222446	0.111152
Br235	Br	0.176533	0.234397	-0.235099
Br236	Br	0.509866	0.567731	0.098235
Br237	Br	0.843200	0.901064	0.431568
Br238	Br	-0.095014	0.555781	-0.555543
Br239	Br	0.238319	0.889114	-0.222210
Br240	Br	0.571653	1.222447	0.111123
Br241	Br	0.050474	0.290667	-0.291178
Br242	Br	0.383808	0.624000	0.042156
Br243	Br	0.717141	0.957333	0.375489
Br244	Br	0.424124	0.290635	-0.291076
Br245	Br	0.757457	0.623968	0.042258
Br246	Br	1.090791	0.957302	0.375591
Br247	Br	0.305223	0.234384	-0.235080
Br248	Br	0.638557	0.567717	0.098253
Br249	Br	0.971890	0.901051	0.431587
