data_functionalizedCrystal
_audit_creation_method	'MofGen! by Chris Wilmer'
_symmetry_space_group_name_H-M	'P1'
_symmetry_Int_Tables_number	1
_symmetry_cell_setting	triclinic
loop_
_symmetry_equiv_pos_as_xyz
  x,y,z
_cell_length_a	19.077068
_cell_length_b	21.395364
_cell_length_c	21.395355
_cell_angle_alpha	90.025298
_cell_angle_beta	92.279051
_cell_angle_gamma	87.656234
loop_
_atom_site_label
_atom_site_type_symbol
_atom_site_fract_x
_atom_site_fract_y
_atom_site_fract_z
Zn1	Zn	-0.279975	-0.947861	-0.364277
Zn2	Zn	-0.397657	-0.943561	-0.263705
Zn3	Zn	-0.280009	-0.843075	-0.259514
Zn4	Zn	-0.397673	-0.838842	-0.368444
O5	O	-0.338828	-0.893335	-0.313985
O6	O	-0.295564	-1.034969	-0.350946
O7	O	-0.382058	-0.930203	-0.175471
O8	O	-0.181512	-0.860546	-0.269913
O9	O	-0.382025	-1.031810	-0.277056
O10	O	-0.181486	-0.937532	-0.346883
O11	O	-0.295623	-0.856376	-0.172392
O12	O	-0.295639	-0.754835	-0.273954
O13	O	-0.382052	-0.853332	-0.455569
O14	O	-0.382086	-0.751725	-0.353984
O15	O	-0.295580	-0.933428	-0.452508
O16	O	-0.496152	-0.926099	-0.281096
O17	O	-0.496164	-0.849162	-0.358048
C18	C	-0.338868	-0.730546	-0.313967
C19	C	-0.338902	-0.660903	-0.313974
C20	C	-0.293957	-0.629855	-0.352513
C21	C	-0.293941	-0.564420	-0.352514
C22	C	-0.338882	-0.530035	-0.313983
C23	C	-0.383830	-0.561092	-0.275437
C24	C	-0.383840	-0.626525	-0.275432
C25	C	-0.402270	-0.424047	-0.311209
C26	C	-0.402261	-0.358615	-0.311218
C27	C	-0.338850	-0.328216	-0.313993
C28	C	-0.275446	-0.363258	-0.316773
C29	C	-0.275456	-0.428692	-0.316768
C30	C	-0.338875	-0.459083	-0.313984
C31	C	-0.293883	-0.226216	-0.352535
C32	C	-0.293866	-0.160780	-0.352532
C33	C	-0.383761	-0.157453	-0.275458
C34	C	-0.383773	-0.222888	-0.275458
C35	C	-0.338835	-0.257265	-0.314000
C36	C	-0.521696	-0.886721	-0.320492
C37	C	-0.599927	-0.883950	-0.323297
C38	C	-0.636651	-0.922735	-0.284584
C39	C	-0.710158	-0.920132	-0.287225
C40	C	-0.746940	-0.878739	-0.328578
C41	C	-0.710211	-0.839952	-0.367296
C42	C	-0.636705	-0.842559	-0.364657
C43	C	-0.966781	-0.866647	-0.340767
C44	C	-1.040291	-0.864041	-0.343401
C45	C	-1.040234	-0.944222	-0.263331
C46	C	-0.966727	-0.946823	-0.260693
C47	C	-0.930004	-0.908038	-0.299413
N48	N	-0.822076	-0.876076	-0.331278
N49	N	-0.854870	-0.910705	-0.296716
C50	C	-0.155247	-0.899991	-0.307466
C51	C	-0.077015	-0.902827	-0.304688
C52	C	-0.338814	-0.893387	-0.477408
C53	C	-0.338808	-0.893409	-0.547049
C54	C	-0.338798	-0.056759	-0.314001
C55	C	-0.338806	-0.126400	-0.314000
C56	C	-0.293780	-0.935114	-0.578169
C57	C	-0.293750	-0.935114	-0.643603
C58	C	-0.338760	-0.893416	-0.677915
C59	C	-0.383791	-0.851704	-0.646788
C60	C	-0.383815	-0.851701	-0.581354
C61	C	-0.402136	-0.886177	-0.783845
C62	C	-0.402113	-0.886185	-0.849278
C63	C	-0.338686	-0.893423	-0.879734
C64	C	-0.275279	-0.900666	-0.844750
C65	C	-0.275303	-0.900663	-0.779316
C66	C	-0.338739	-0.893415	-0.748867
C67	C	-0.293621	-0.935129	-0.981805
C68	C	-0.293590	-0.935125	-1.047241
C69	C	-0.383637	-0.851718	-1.050424
C70	C	-0.383663	-0.851719	-0.984989
C71	C	-0.338655	-0.893428	-0.950684
C72	C	-0.338792	-0.893320	-0.151196
C73	C	-0.338600	-0.893426	-0.081548
H74	H	-0.420375	-0.248167	-0.244078
N75	N	-0.206862	-0.908480	-0.877588
H76	H	-0.216465	-0.907381	-0.924347
H77	H	-0.175406	-0.873389	-0.865009
N78	N	-0.927056	-0.991473	-0.216097
H79	H	-0.896508	-1.021575	-0.240496
H80	H	-0.896646	-0.967060	-0.185956
H81	H	-0.420421	-0.533092	-0.244064
H82	H	-0.453911	-0.448792	-0.308949
H83	H	-0.420441	-0.651804	-0.244048
N84	N	-0.207072	-0.466481	-0.319755
H85	H	-0.200419	-0.493852	-0.281355
H86	H	-0.208127	-0.493577	-0.358420
H87	H	-0.223811	-0.338509	-0.319033
N88	N	-0.749877	-0.795302	-0.411896
H89	H	-0.737049	-0.805466	-0.456212
H90	H	-0.802002	-0.799553	-0.407639
N91	N	-0.245416	-0.263300	-0.394101
H92	H	-0.216935	-0.233699	-0.418513
H93	H	-0.212808	-0.291632	-0.367483
N94	N	-1.079843	-0.986060	-0.221581
H95	H	-1.045388	-1.012678	-0.194985
H96	H	-1.110391	-0.959490	-0.193656
N97	N	-0.206916	-0.908467	-0.741590
H98	H	-0.200338	-0.870535	-0.714191
H99	H	-0.207905	-0.947062	-0.714527
H100	H	-0.256918	-0.969085	-1.072577
N101	N	-1.079966	-0.819394	-0.388005
H102	H	-1.045549	-0.795220	-0.412135
H103	H	-1.110418	-0.843807	-0.418112
H104	H	-0.936887	-0.835065	-0.372293
N105	N	-0.597092	-0.800729	-0.406414
H106	H	-0.631546	-0.774110	-0.433011
H107	H	-0.566644	-0.772825	-0.379791
H108	H	-0.257131	-0.969076	-0.550241
H109	H	-0.257079	-0.969073	-0.668946
N110	N	-0.245079	-0.980110	-0.944798
H111	H	-0.216544	-1.006528	-0.974444
H112	H	-0.212525	-0.955786	-0.916473
N113	N	-0.432237	-0.120378	-0.233898
H114	H	-0.421231	-0.132147	-0.188756
H115	H	-0.425388	-0.074226	-0.239799
H116	H	-0.420279	-0.817761	-1.078360
N117	N	-0.245374	-0.127289	-0.394089
H118	H	-0.216908	-0.158998	-0.418501
H119	H	-0.274061	-0.099099	-0.424065
H120	H	-0.420334	-0.817763	-0.959651
N121	N	-0.245482	-0.666925	-0.394081
H122	H	-0.195177	-0.657367	-0.382632
H123	H	-0.252361	-0.713077	-0.388217
N124	N	-0.596982	-0.967378	-0.239979
H125	H	-0.631403	-0.991555	-0.215857
H126	H	-0.566434	-0.997444	-0.264415
N127	N	-0.749768	-0.961965	-0.245470
H128	H	-0.715313	-0.988579	-0.218870
H129	H	-0.780316	-0.935390	-0.217550
N130	N	-0.470497	-0.878377	-0.887008
H131	H	-0.510681	-0.873783	-0.857787
H132	H	-0.469481	-0.839810	-0.914106
N133	N	-0.470642	-0.320822	-0.308220
H134	H	-0.510813	-0.350007	-0.306452
H135	H	-0.469554	-0.293694	-0.269579
N136	N	-0.470552	-0.878378	-0.750999
H137	H	-0.510715	-0.873799	-0.783088
H138	H	-0.477078	-0.916321	-0.724104
H139	H	-0.420437	-0.817751	-0.674729
N140	N	-0.432373	-0.806710	-0.547784
H141	H	-0.460879	-0.780289	-0.579447
H142	H	-0.464954	-0.831023	-0.521806
H143	H	-0.257337	-0.539135	-0.383896
