data_functionalizedCrystal
_audit_creation_method	'MofGen! by Chris Wilmer'
_symmetry_space_group_name_H-M	'P1'
_symmetry_Int_Tables_number	1
_symmetry_cell_setting	triclinic
loop_
_symmetry_equiv_pos_as_xyz
  x,y,z
_cell_length_a	17.699104
_cell_length_b	11.295483
_cell_length_c	17.699083
_cell_angle_alpha	94.085816
_cell_angle_beta	96.712734
_cell_angle_gamma	94.098192
loop_
_atom_site_label
_atom_site_type_symbol
_atom_site_fract_x
_atom_site_fract_y
_atom_site_fract_z
O1	O	1.009175	0.099051	-0.090679
O2	O	0.788798	0.099049	-0.103115
O3	O	0.905212	0.099040	0.013291
O4	O	0.892761	0.099060	-0.207085
O5	O	0.894987	-0.099010	0.003083
O6	O	0.778573	-0.099001	-0.113323
O7	O	0.998950	-0.098999	-0.100887
Cu8	Cu	0.887828	-0.117083	-0.108038
Cu9	Cu	0.899920	0.117134	-0.095965
O10	O	0.882536	-0.098990	-0.217294
C11	C	0.755489	0.000023	-0.107771
C12	C	0.671472	0.000022	-0.106426
N13	N	0.879329	-0.281819	-0.116528
C14	C	0.146602	0.000040	-0.167169
C15	C	0.225546	0.000044	-0.168428
C16	C	0.274163	0.000037	-0.100093
C17	C	0.243833	0.000039	-0.030494
C18	C	0.164891	0.000044	-0.029236
C19	C	0.562198	0.000020	-0.035568
C20	C	0.641145	0.000012	-0.036832
C21	C	0.622853	0.000020	-0.174761
C22	C	0.543911	0.000025	-0.173502
C23	C	0.513588	0.000033	-0.103903
C24	C	0.427988	0.000032	-0.102539
C25	C	0.359761	0.000030	-0.101457
C26	C	0.969609	-0.531116	-0.026304
C27	C	0.963191	-0.655779	-0.032726
C28	C	0.860072	-0.655811	-0.135790
C29	C	0.866490	-0.531148	-0.129368
C30	C	0.921261	-0.468804	-0.074624
C31	C	0.927682	-0.344139	-0.068206
C32	C	0.824560	-0.344173	-0.171266
C33	C	0.818142	-0.468836	-0.177688
C34	C	1.032259	0.000029	-0.096231
C35	C	1.116277	0.000039	-0.097576
C36	C	0.899653	0.000014	0.036384
C37	C	0.898315	0.000014	0.120402
N38	N	0.908425	0.281869	-0.087468
C39	C	0.888095	0.000038	-0.240386
C40	C	0.889434	0.000047	-0.324404
C41	C	0.966648	0.000013	0.169018
C42	C	0.965386	0.000024	0.247962
C43	C	0.895790	0.000026	0.278288
C44	C	0.827452	0.000031	0.229666
C45	C	0.828715	0.000029	0.150724
C46	C	0.822358	0.000041	0.548030
C47	C	0.821100	0.000039	0.626978
C48	C	0.959028	0.000035	0.645268
C49	C	0.960291	0.000033	0.566326
C50	C	0.891954	0.000044	0.517711
C51	C	0.893323	0.000035	0.432112
C52	C	0.894420	0.000027	0.363886
H53	H	0.107022	0.000037	-0.222816
H54	H	0.785194	-0.293425	-0.210614
H55	H	1.023320	0.000003	0.144333
H56	H	0.773547	-0.519611	-0.222258
N57	N	1.032741	0.000043	0.697700
H58	H	1.059317	-0.073378	0.684179
H59	H	1.021327	0.000095	0.752294
H60	H	0.283424	0.000040	0.025146
H61	H	0.140202	0.000045	0.027435
H62	H	0.250233	0.000056	-0.225097
H63	H	0.770787	0.000041	0.254364
H64	H	1.014210	-0.480355	0.018266
N65	N	0.986755	-0.276892	-0.009167
H66	H	1.016408	-0.335288	0.020470
H67	H	0.960505	-0.225180	0.026921
H68	H	1.002560	-0.706509	0.006622
N69	N	0.755015	0.000037	0.098285
H70	H	0.710734	0.000038	0.129474
H71	H	0.748741	-0.073381	0.061350
N72	N	0.655555	0.000036	-0.249832
H73	H	0.634027	-0.073379	-0.283546
H74	H	0.712939	0.000085	-0.240201
N75	N	0.801010	-0.723081	-0.194830
H76	H	0.810746	-0.701389	-0.247421
H77	H	0.748450	-0.701390	-0.185003
N78	N	1.035354	0.000021	0.533616
H79	H	1.078452	0.000023	0.576394
H80	H	1.042672	0.073439	0.505041
H81	H	1.021029	0.000020	0.287542
H82	H	0.764423	0.000039	0.651666
H83	H	0.766713	0.000049	0.508457
H84	H	0.680729	0.000009	0.018818
N85	N	0.491491	-0.000021	-0.247221
H86	H	0.505018	0.073383	-0.273823
H87	H	0.436892	-0.000081	-0.235823
N88	N	0.529498	0.000020	0.039495
H89	H	0.572277	0.000007	0.082590
H90	H	0.493350	-0.073399	0.039236
