data_functionalizedCrystal
_audit_creation_method	'MofGen! by Chris Wilmer'
_symmetry_space_group_name_H-M	'P1'
_symmetry_Int_Tables_number	1
_symmetry_cell_setting	triclinic
loop_
_symmetry_equiv_pos_as_xyz
  x,y,z
_cell_length_a	6.817900
_cell_length_b	15.301126
_cell_length_c	10.773894
_cell_angle_alpha	96.210204
_cell_angle_beta	96.645922
_cell_angle_gamma	104.177575
loop_
_atom_site_label
_atom_site_type_symbol
_atom_site_fract_x
_atom_site_fract_y
_atom_site_fract_z
V1	V	-3.952252	-0.121442	-0.389313
O2	O	-3.937687	0.009245	-0.381512
O3	O	-3.907641	-0.244078	-0.387026
O4	O	-3.869821	-0.118078	-0.558935
O5	O	-3.975769	-0.117627	-0.208413
V6	V	-4.439799	-0.105987	-0.367630
O7	O	-4.204684	-0.155344	-0.436876
O8	O	-4.637564	-0.072085	-0.320068
O9	O	-4.261203	0.016649	-0.369918
O10	O	-4.571760	-0.236675	-0.375432
O11	O	-4.533678	-0.109802	-0.548531
O12	O	-4.299023	-0.109351	-0.198009
C13	C	-3.754665	-0.274021	-0.380981
C14	C	-3.799251	-0.374269	-0.380241
C15	C	-3.706421	-0.113294	-0.600267
C16	C	-3.720333	-0.111355	-0.738936
C17	C	-4.001183	-0.425904	-0.386130
C18	C	-4.043065	-0.520098	-0.385442
C19	C	-3.883011	-0.562653	-0.378857
C20	C	-3.681062	-0.511010	-0.372972
C21	C	-3.639184	-0.416820	-0.373669
C22	C	-3.768361	-0.707333	-0.371517
C23	C	-3.810240	-0.801530	-0.370818
C24	C	-4.172242	-0.810612	-0.383291
C25	C	-4.130364	-0.716421	-0.383988
C26	C	-3.928417	-0.664785	-0.378100
C27	C	-3.898512	-0.114716	-0.806808
C28	C	-3.912895	-0.112712	-0.950130
C29	C	-4.077522	0.046587	-0.375959
C30	C	-4.012173	0.146834	-0.376707
C31	C	-4.125767	-0.114138	-0.156670
C32	C	-4.091093	-0.116073	-0.018000
H33	H	-4.207495	-0.562136	-0.390240
H34	H	-4.336673	-0.852657	-0.388067
O35	O	-3.743671	-0.107388	-1.007488
C36	C	-3.511670	-0.021809	-1.130143
C37	C	-3.703360	-0.027736	-1.065265
H38	H	-3.478993	0.042594	-1.176850
H39	H	-3.538680	-0.083970	-1.204783
H40	H	-3.375330	-0.019636	-1.056738
H41	H	-3.839789	-0.029881	-1.138577
H42	H	-3.676177	0.034423	-0.990602
H43	H	-4.233007	-0.120437	-0.970011
O44	O	-3.551123	-0.106032	-0.796299
C45	C	-3.319122	-0.020452	-0.918954
C46	C	-3.510811	-0.026380	-0.854076
H47	H	-3.286445	0.043951	-0.965661
H48	H	-3.346132	-0.082614	-0.993594
H49	H	-3.182782	-0.018280	-0.845549
H50	H	-3.647241	-0.028525	-0.927388
H51	H	-3.483628	0.035779	-0.779413
H52	H	-4.260697	-0.681775	-0.389343
O53	O	-3.654961	-0.842987	-0.364605
C54	C	-3.508952	-0.955336	-0.465240
C55	C	-3.684956	-0.908478	-0.472419
H56	H	-3.533120	-1.008281	-0.552408
H57	H	-3.505894	-0.990132	-0.376925
H58	H	-3.357447	-0.902227	-0.461103
H59	H	-3.836553	-0.961529	-0.476604
H60	H	-3.687832	-0.873663	-0.560720
H61	H	-3.550747	-0.545667	-0.367618
O62	O	-4.156523	-0.384487	-0.392689
C63	C	-4.336264	-0.294783	-0.509363
C64	C	-4.160232	-0.341623	-0.502071
H65	H	-4.339348	-0.260132	-0.597805
H66	H	-4.312126	-0.241721	-0.422328
H67	H	-4.487747	-0.347885	-0.513393
H68	H	-4.008672	-0.288588	-0.498081
H69	H	-4.184550	-0.394702	-0.589104
O70	O	-3.572248	-0.657058	-0.365634
C71	C	-3.298008	-0.534161	-0.250523
C72	C	-3.520134	-0.591014	-0.257055
H73	H	-3.255791	-0.480764	-0.162730
H74	H	-3.282883	-0.498906	-0.338209
H75	H	-3.190851	-0.580776	-0.245753
H76	H	-3.627427	-0.544462	-0.261784
H77	H	-3.535093	-0.626279	-0.169371
O78	O	-3.442956	-0.366672	-0.367718
C79	C	-3.103872	-0.318813	-0.248699
C80	C	-3.326041	-0.375623	-0.255257
H81	H	-3.009272	-0.326045	-0.157795
H82	H	-3.101297	-0.244161	-0.250246
H83	H	-3.036538	-0.344228	-0.333263
H84	H	-3.393510	-0.350288	-0.170712
H85	H	-3.328479	-0.450265	-0.253771
H86	H	-4.040406	-0.119070	-0.758810
