data_functionalizedCrystal
_audit_creation_method	'MofGen! by Chris Wilmer'
_symmetry_space_group_name_H-M	'P1'
_symmetry_Int_Tables_number	1
_symmetry_cell_setting	triclinic
loop_
_symmetry_equiv_pos_as_xyz
  x,y,z
_cell_length_a	12.594517
_cell_length_b	12.594516
_cell_length_c	12.594510
_cell_angle_alpha	89.968094
_cell_angle_beta	89.977213
_cell_angle_gamma	90.015853
loop_
_atom_site_label
_atom_site_type_symbol
_atom_site_fract_x
_atom_site_fract_y
_atom_site_fract_z
Zn1	Zn	1.627282	-0.423656	-0.601875
Zn2	Zn	1.627169	-0.601684	-0.423903
Zn3	Zn	1.449282	-0.423719	-0.423904
Zn4	Zn	1.449268	-0.601592	-0.601833
O5	O	1.538250	-0.512663	-0.512879
O6	O	1.776213	-0.447283	-0.578284
O7	O	1.603530	-0.578141	-0.274957
O8	O	1.472947	-0.274765	-0.447530
O9	O	1.776129	-0.578080	-0.447528
O10	O	1.603723	-0.274718	-0.578285
O11	O	1.472837	-0.447391	-0.274958
O12	O	1.300334	-0.447302	-0.447489
O13	O	1.472924	-0.577924	-0.750784
O14	O	1.300324	-0.577985	-0.578213
O15	O	1.603710	-0.447195	-0.750815
O16	O	1.603517	-0.750617	-0.447488
O17	O	1.472814	-0.750550	-0.578212
C18	C	1.261709	-0.512641	-0.512847
C19	C	1.143404	-0.512658	-0.512859
C20	C	1.074125	-0.441482	-0.441894
C21	C	1.003313	-0.538574	-0.415718
C22	C	1.003417	-0.415614	-0.539054
C23	C	1.074150	-0.609800	-0.486632
C24	C	1.074260	-0.486775	-0.610013
C25	C	1.003480	-0.583933	-0.583874
C26	C	1.538180	-0.789204	-0.512868
C27	C	1.538248	-0.907509	-0.512899
C28	C	1.467152	-0.976764	-0.583950
C29	C	1.441216	-1.047639	-0.486827
C30	C	1.564281	-1.047433	-0.610039
C31	C	1.512261	-0.976826	-0.415725
C32	C	1.635371	-0.976613	-0.539002
C33	C	1.609472	-1.047456	-0.441812
C34	C	1.815871	-0.512685	-0.512911
C35	C	1.934177	-0.512694	-0.512924
C36	C	1.538329	-0.512542	-0.790500
C37	C	1.538362	-0.512490	-0.908805
C38	C	1.538349	-0.235042	-0.512912
C39	C	1.538391	-0.116736	-0.512927
C40	C	1.609522	-0.441365	-1.048839
C41	C	1.635509	-0.538486	-0.978022
C42	C	1.512422	-0.415381	-0.978051
C43	C	1.564444	-0.609630	-1.048774
C44	C	1.441312	-0.486459	-1.048809
C45	C	1.467262	-0.583646	-0.978024
C46	C	1.538233	-0.512706	-0.236338
C47	C	1.538406	-0.512458	-0.118033
H48	H	0.972290	-0.333541	-0.561146
N49	N	1.115237	-0.361836	-0.362312
H50	H	1.088402	-0.288695	-0.381318
H51	H	1.089419	-0.381639	-0.288997
H52	H	1.407103	-0.643850	-0.947128
H53	H	1.717420	-0.945395	-0.561104
N54	N	1.593374	-1.088529	-0.718834
H55	H	1.539562	-1.062814	-0.772431
H56	H	1.666176	-1.061576	-0.739001
H57	H	1.669727	-0.381306	-1.079931
N58	N	1.387367	-0.935635	-0.663413
H59	H	1.388355	-0.855447	-0.663316
H60	H	1.406263	-0.962495	-0.736561
H61	H	1.359148	-1.078860	-0.464772
N62	N	1.744242	-0.567647	-0.936822
H63	H	1.797930	-0.513891	-0.962573
H64	H	1.743139	-0.568134	-0.856640
H65	H	1.105446	-0.464830	-0.692122
N66	N	1.593654	-0.718430	-1.089739
H67	H	1.593521	-0.717739	-1.169930
H68	H	1.666723	-0.738179	-1.063287
H69	H	1.490205	-0.945938	-0.333563
N70	N	1.332601	-0.457274	-1.090032
H71	H	1.313051	-0.383879	-1.064353
H72	H	1.333336	-0.458228	-1.170213
H73	H	1.669657	-1.078300	-0.381669
H74	H	1.490464	-0.333270	-0.946982
N75	N	0.962034	-0.567613	-0.306929
H76	H	0.987219	-0.513457	-0.253447
H77	H	0.881861	-0.568702	-0.308186
N78	N	1.115122	-0.718564	-0.457195
H79	H	1.195312	-0.717871	-0.457320
H80	H	1.088610	-0.738223	-0.384088
H81	H	0.972656	-0.644209	-0.643914
