data_functionalizedCrystal
_audit_creation_method	'MofGen! by Chris Wilmer'
_symmetry_space_group_name_H-M	'P1'
_symmetry_Int_Tables_number	1
_symmetry_cell_setting	triclinic
loop_
_symmetry_equiv_pos_as_xyz
  x,y,z
_cell_length_a	19.121063
_cell_length_b	19.077142
_cell_length_c	19.076919
_cell_angle_alpha	90.074357
_cell_angle_beta	85.393653
_cell_angle_gamma	89.737710
loop_
_atom_site_label
_atom_site_type_symbol
_atom_site_fract_x
_atom_site_fract_y
_atom_site_fract_z
Zn1	Zn	-0.339751	-1.043167	0.454345
Zn2	Zn	-0.006417	-0.709834	0.787678
Zn3	Zn	0.326916	-0.376500	1.121011
Zn4	Zn	-0.452662	-1.042788	0.341455
Zn5	Zn	-0.119329	-0.709455	0.674788
Zn6	Zn	0.214004	-0.376121	1.008121
Zn7	Zn	-0.330341	-0.930803	0.331749
Zn8	Zn	0.002992	-0.597470	0.665083
Zn9	Zn	0.336325	-0.264137	0.998416
Zn10	Zn	-0.452237	-0.920629	0.454186
Zn11	Zn	-0.118903	-0.587296	0.787519
Zn12	Zn	0.214430	-0.253962	1.120852
O13	O	-0.393748	-0.984347	0.395434
O14	O	-0.060414	-0.651013	0.728767
O15	O	0.272919	-0.317680	1.062100
O16	O	-0.358844	-1.141265	0.443498
O17	O	-0.025511	-0.807932	0.776831
O18	O	0.307822	-0.474599	1.110164
O19	O	-0.432676	-1.032032	0.241682
O20	O	-0.099343	-0.698699	0.575016
O21	O	0.233990	-0.365366	0.908349
O22	O	-0.233322	-0.950125	0.344017
O23	O	0.100011	-0.616792	0.677350
O24	O	0.433345	-0.283459	1.010683
O25	O	-0.441800	-1.140987	0.360558
O26	O	-0.108467	-0.807654	0.693891
O27	O	0.224867	-0.474320	1.027224
O28	O	-0.240235	-1.032678	0.434087
O29	O	0.093098	-0.699345	0.767420
O30	O	0.426432	-0.366012	1.100754
O31	O	-0.342808	-0.949758	0.234552
O32	O	-0.009475	-0.616424	0.567885
O33	O	0.323859	-0.283091	0.901219
O34	O	-0.342395	-0.831305	0.343863
O35	O	-0.009062	-0.497972	0.677196
O36	O	0.324271	-0.164638	1.010529
O37	O	-0.441075	-0.932784	0.552692
O38	O	-0.107742	-0.599451	0.886025
O39	O	0.225592	-0.266118	1.219358
O40	O	-0.431951	-0.823830	0.433816
O41	O	-0.098618	-0.490496	0.767150
O42	O	0.234715	-0.157163	1.100483
O43	O	-0.358432	-1.022813	0.552808
O44	O	-0.025099	-0.689479	0.886142
O45	O	0.308235	-0.356146	1.219475
O46	O	-0.550873	-1.022167	0.360404
O47	O	-0.217540	-0.688833	0.693737
O48	O	0.115793	-0.355500	1.027071
O49	O	-0.550561	-0.932417	0.443227
O50	O	-0.217227	-0.599084	0.776560
O51	O	0.116106	-0.265750	1.109894
C52	C	-0.386107	-0.802118	0.387770
C53	C	-0.052773	-0.468785	0.721103
C54	C	0.280560	-0.135452	1.054436
C55	C	-0.382855	-0.724159	0.384508
C56	C	-0.049522	-0.390826	0.717842
C57	C	0.283811	-0.057492	1.051175
C58	C	-0.428020	-0.683660	0.429742
C59	C	-0.094686	-0.350326	0.763075
C60	C	0.238647	-0.016993	1.096409
C61	C	-0.424956	-0.610409	0.426681
C62	C	-0.091622	-0.277075	0.760014
C63	C	0.241711	0.056258	1.093347
C64	C	-0.376730	-0.577658	0.378382
C65	C	-0.043397	-0.244325	0.711715
C66	C	0.289937	0.089008	1.045048
C67	C	-0.331561	-0.618163	0.333146
C68	C	0.001773	-0.284829	0.666479
C69	C	0.335106	0.048504	0.999813
C70	C	-0.334622	-0.691412	0.336211
C71	C	-0.001289	-0.358079	0.669545
C72	C	0.332045	-0.024746	1.002878
C73	C	-0.362564	-0.359001	0.364203
C74	C	-0.029231	-0.025668	0.697536
C75	C	0.304102	0.307666	1.030869
C76	C	-0.359508	-0.285746	0.361139
C77	C	-0.026175	0.047587	0.694473
C78	C	0.307159	0.380921	1.027806
C79	C	-0.452902	-0.277997	0.454675
C80	C	-0.119569	0.055336	0.788009
C81	C	0.213764	0.388670	1.121342
C82	C	-0.455962	-0.351248	0.457733
C83	C	-0.122629	-0.017915	0.791067
C84	C	0.210704	0.315418	1.124400
C85	C	-0.410791	-0.391746	0.412500
C86	C	-0.077457	-0.058413	0.745834
C87	C	0.255876	0.274920	1.079167
N88	N	-0.373598	-0.502784	0.375250
N89	N	-0.040265	-0.169451	0.708583
N90	N	0.293068	0.163883	1.041916
N91	N	-0.413919	-0.466619	0.415636
N92	N	-0.080586	-0.133286	0.748969
N93	N	0.252747	0.200047	1.082303
C94	C	-0.576198	-0.976165	0.402867
C95	C	-0.242865	-0.642832	0.736201
C96	C	0.090469	-0.309498	1.069534
C97	C	-0.654255	-0.972728	0.406074
C98	C	-0.320921	-0.639395	0.739407
C99	C	0.012412	-0.306061	1.072741
C100	C	-0.691068	-1.017875	0.364497
C101	C	-0.357735	-0.684541	0.697831
C102	C	-0.024401	-0.351208	1.031164
C103	C	-0.764411	-1.014646	0.367517
C104	C	-0.431077	-0.681313	0.700851
C105	C	-0.097744	-0.347979	1.034184
C106	C	-0.800938	-0.966267	0.412111
C107	C	-0.467605	-0.632934	0.745444
C108	C	-0.134272	-0.299600	1.078777
C109	C	-0.764120	-0.921119	0.453692
C110	C	-0.430787	-0.587785	0.787025
C111	C	-0.097453	-0.254452	1.120358
C112	C	-0.690779	-0.924351	0.450675
C113	C	-0.357445	-0.591018	0.784008
C114	C	-0.024112	-0.257684	1.117342
C115	C	-1.022374	-0.954171	0.423378
C116	C	-0.689041	-0.620838	0.756711
C117	C	-0.355708	-0.287504	1.090045
C118	C	-1.095721	-0.950941	0.426390
C119	C	-0.762387	-0.617607	0.759723
C120	C	-0.429054	-0.284274	1.093057
C121	C	-1.096006	-1.044469	0.340216
C122	C	-0.762673	-0.711136	0.673550
C123	C	-0.429340	-0.377803	1.006883
C124	C	-1.022664	-1.047695	0.337201
C125	C	-0.689330	-0.714361	0.670534
C126	C	-0.355997	-0.381028	1.003867
C127	C	-0.985852	-1.002549	0.378784
C128	C	-0.652518	-0.669215	0.712118
C129	C	-0.319185	-0.335882	1.045451
C130	C	-0.875906	-0.962964	0.415197
C131	C	-0.542573	-0.629631	0.748530
C132	C	-0.209240	-0.296298	1.081864
C133	C	-0.910885	-1.005855	0.375701
C134	C	-0.577552	-0.672522	0.709035
C135	C	-0.244219	-0.339189	1.042368
C136	C	-0.210586	-0.992579	0.387987
C137	C	0.122747	-0.659246	0.721320
C138	C	0.456080	-0.325912	1.054654
C139	C	-0.132534	-0.996087	0.384814
C140	C	0.200799	-0.662754	0.718147
C141	C	0.534133	-0.329420	1.051480
C142	C	-0.400756	-0.976706	0.579000
C143	C	-0.067422	-0.643373	0.912333
C144	C	0.265911	-0.310039	1.245667
C145	C	-0.403742	-0.973450	0.657225
C146	C	-0.070408	-0.640116	0.990559
C147	C	0.262925	-0.306783	1.323892
C148	C	-0.401415	-0.167287	0.403120
C149	C	-0.068082	0.166046	0.736453
C150	C	0.265251	0.499379	1.069786
C151	C	-0.404672	-0.245247	0.406373
C152	C	-0.071339	0.088087	0.739706
C153	C	0.261994	0.421420	1.073040
C154	C	-0.386718	-0.992001	0.212581
C155	C	-0.053385	-0.658667	0.545914
C156	C	0.279948	-0.325334	0.879248
C157	C	-0.383540	-0.995401	0.134354
C158	C	-0.050207	-0.662068	0.467687
C159	C	0.283127	-0.328735	0.801021
C160	C	-0.362119	-1.018791	0.694037
C161	C	-0.028786	-0.685457	1.027371
C162	C	0.304548	-0.352124	1.360704
C163	C	-0.364922	-1.015723	0.767538
C164	C	-0.031588	-0.682389	1.100871
C165	C	0.301745	-0.349056	1.434204
C166	C	-0.409352	-0.967317	0.804225
C167	C	-0.076018	-0.633984	1.137558
C168	C	0.257315	-0.300650	1.470891
C169	C	-0.450976	-0.921971	0.767407
C170	C	-0.117643	-0.588638	1.100741
C171	C	0.215690	-0.255305	1.434074
C172	C	-0.448169	-0.925036	0.693908
C173	C	-0.114836	-0.591703	1.027241
C174	C	0.218497	-0.258370	1.360575
C175	C	-0.422357	-0.953121	1.024037
C176	C	-0.089024	-0.619787	1.357370
C177	C	0.244309	-0.286454	1.690704
C178	C	-0.425163	-0.950061	1.097542
C179	C	-0.091829	-0.616727	1.430875
C180	C	0.241504	-0.283394	1.764208
C181	C	-0.339107	-1.043812	1.097667
C182	C	-0.005774	-0.710478	1.431000
C183	C	0.327560	-0.377145	1.764334
C184	C	-0.336307	-1.046875	1.024166
C185	C	-0.002974	-0.713542	1.357500
C186	C	0.330360	-0.380208	1.690833
C187	C	-0.377929	-1.001527	0.987355
C188	C	-0.044595	-0.668194	1.320689
C189	C	0.288738	-0.334860	1.654022
N190	N	-0.412219	-0.964181	0.879354
N191	N	-0.078886	-0.630848	1.212687
N192	N	0.254447	-0.297515	1.546021
N193	N	-0.375057	-1.004660	0.912227
N194	N	-0.041724	-0.671326	1.245560
N195	N	0.291610	-0.337993	1.578894
H196	H	-0.320229	-0.259083	0.321812
H197	H	0.013105	0.074250	0.655146
H198	H	0.346438	0.407584	0.988479
O199	O	-0.467253	-0.904213	0.984343
O200	O	-0.133919	-0.570879	1.317676
O201	O	0.199414	-0.237546	1.651010
H202	H	-0.457834	-0.914466	0.927070
H203	H	-0.124501	-0.581133	1.260403
H204	H	0.208833	-0.247799	1.593737
H205	H	-0.660806	-0.887589	0.484532
H206	H	-0.327473	-0.554255	0.817865
H207	H	0.005861	-0.220922	1.151198
O208	O	-0.982687	-0.905465	0.468223
O209	O	-0.649354	-0.572131	0.801556
O210	O	-0.316020	-0.238798	1.134890
H211	H	-0.951917	-0.936799	0.504011
H212	H	-0.618584	-0.603466	0.837345
H213	H	-0.285251	-0.270133	1.170678
O214	O	-0.871486	-1.058038	0.327614
O215	O	-0.538152	-0.724704	0.660947
O216	O	-0.204819	-0.391371	0.994280
H217	H	-0.882980	-1.047738	0.272442
H218	H	-0.549646	-0.714405	0.605775
H219	H	-0.216313	-0.381071	0.939109
O220	O	-0.915313	-0.910781	0.463283
O221	O	-0.581980	-0.577447	0.796616
O222	O	-0.248646	-0.244114	1.129949
H223	H	-0.903825	-0.921083	0.518456
H224	H	-0.570491	-0.587750	0.851789
H225	H	-0.237158	-0.254416	1.185122
H226	H	-0.325941	-1.058210	0.664172
H227	H	0.007392	-0.724877	0.997506
H228	H	0.340725	-0.391543	1.330839
H229	H	-0.482056	-0.888108	0.663936
H230	H	-0.148722	-0.554775	0.997269
H231	H	0.184611	-0.221441	1.330603
H232	H	-0.300129	-1.086294	0.994301
H233	H	0.033204	-0.752961	1.327634
H234	H	0.366537	-0.419627	1.660968
O235	O	-0.983271	-1.099870	0.289094
O236	O	-0.649937	-0.766537	0.622428
O237	O	-0.316604	-0.433203	0.955761
H238	H	-0.926086	-1.094525	0.293974
H239	H	-0.592753	-0.761192	0.627307
H240	H	-0.259420	-0.427858	0.960640
O241	O	-0.285910	-0.735099	0.287424
O242	O	0.047424	-0.401766	0.620758
O243	O	0.380757	-0.068433	0.954091
H244	H	-0.317311	-0.768556	0.254247
H245	H	0.016023	-0.435223	0.587580
H246	H	0.349356	-0.101890	0.920914
H247	H	-0.305220	-1.080730	1.127646
H248	H	0.028113	-0.747397	1.460980
H249	H	0.361447	-0.414064	1.794313
O250	O	-0.320033	-1.064629	0.807245
O251	O	0.013300	-0.731296	1.140579
O252	O	0.346633	-0.397963	1.473912
H253	H	-0.288675	-1.098811	0.769387
H254	H	0.044658	-0.765477	1.102721
H255	H	0.377992	-0.432144	1.436054
H256	H	-0.794381	-1.051409	0.333661
H257	H	-0.461048	-0.718075	0.666994
H258	H	-0.127714	-0.384742	1.000328
H259	H	-0.461734	-0.577437	0.463514
H260	H	-0.128401	-0.244104	0.796848
H261	H	0.204933	0.089229	1.130181
O262	O	-0.473081	-0.897845	1.137116
O263	O	-0.139747	-0.564512	1.470449
O264	O	0.193586	-0.231178	1.803782
H265	H	-0.501546	-0.866821	1.099171
H266	H	-0.168213	-0.533487	1.432504
H267	H	0.165120	-0.200154	1.765837
O268	O	-1.135710	-1.093181	0.295388
O269	O	-0.802377	-0.759847	0.628721
O270	O	-0.469043	-0.426514	0.962054
H271	H	-1.192846	-1.082817	0.304985
H272	H	-0.859513	-0.749484	0.638318
H273	H	-0.526180	-0.416150	0.971651
H274	H	-0.487149	-0.882556	0.797284
H275	H	-0.153816	-0.549222	1.130617
H276	H	0.179517	-0.215889	1.463950
O277	O	-0.313867	-0.402677	0.315397
O278	O	0.019466	-0.069344	0.648730
O279	O	0.352799	0.263989	0.982063
H280	H	-0.279832	-0.367595	0.281286
H281	H	0.053501	-0.034262	0.614620
H282	H	0.386834	0.299071	0.947953
H283	H	-0.793867	-0.881730	0.490004
H284	H	-0.460534	-0.548397	0.823337
H285	H	-0.127200	-0.215064	1.156670
O286	O	-0.480032	-0.718983	0.481839
O287	O	-0.146699	-0.385650	0.815172
O288	O	0.186635	-0.052316	1.148506
H289	H	-0.510917	-0.678512	0.512784
H290	H	-0.177584	-0.345179	0.846117
H291	H	0.155750	-0.011846	1.179450
H292	H	-0.489678	-0.245016	0.491503
H293	H	-0.156344	0.088318	0.824836
H294	H	0.176989	0.421651	1.158169
O295	O	-0.507971	-0.386573	0.509833
O296	O	-0.174637	-0.053240	0.843167
O297	O	0.158696	0.280094	1.176500
H298	H	-0.538858	-0.346104	0.540779
H299	H	-0.205524	-0.012771	0.874112
H300	H	0.127809	0.320562	1.207446
H301	H	-1.125460	-0.911552	0.462716
H302	H	-0.792127	-0.578219	0.796049
H303	H	-0.458794	-0.244886	1.129382
O304	O	-0.279561	-0.582844	0.281033
O305	O	0.053773	-0.249511	0.614366
O306	O	0.387106	0.083822	0.947699
H307	H	-0.285030	-0.525105	0.286488
H308	H	0.048303	-0.191772	0.619821
H309	H	0.381637	0.141562	0.953155
H310	H	-0.661332	-1.057267	0.328182
H311	H	-0.327998	-0.723934	0.661515
H312	H	0.005335	-0.390600	0.994849
