data_functionalizedCrystal
_audit_creation_method	'MofGen! by Chris Wilmer'
_symmetry_space_group_name_H-M	'P1'
_symmetry_Int_Tables_number	1
_symmetry_cell_setting	triclinic
loop_
_symmetry_equiv_pos_as_xyz
  x,y,z
_cell_length_a	17.019311
_cell_length_b	17.038272
_cell_length_c	15.072220
_cell_angle_alpha	89.999202
_cell_angle_beta	86.107786
_cell_angle_gamma	87.245400
loop_
_atom_site_label
_atom_site_type_symbol
_atom_site_fract_x
_atom_site_fract_y
_atom_site_fract_z
O1	O	1.053384	0.099621	-0.154265
O2	O	0.824569	0.112316	-0.136785
O3	O	0.937617	-0.007846	-0.145414
O4	O	0.940337	0.219783	-0.145636
O5	O	0.937587	-0.007839	0.002153
O6	O	0.824540	0.112323	0.010783
O7	O	1.053355	0.099627	-0.006698
Zn8	Zn	0.938943	0.105976	0.025472
Zn9	Zn	0.938981	0.105967	-0.168954
O10	O	0.940307	0.219789	0.001932
C11	C	0.795133	0.111837	-0.060753
C12	C	0.707464	0.110391	-0.054056
C13	C	0.211628	0.102236	-0.012142
C14	C	0.294002	0.103595	-0.018437
C15	C	0.335205	0.104265	-0.102025
C16	C	0.294030	0.103584	-0.179323
C17	C	0.211658	0.102230	-0.173027
C18	C	0.583917	0.108356	-0.125058
C19	C	0.666295	0.109707	-0.131348
C20	C	0.666261	0.109720	0.029539
C21	C	0.583888	0.108362	0.035827
C22	C	0.542720	0.107685	-0.041471
C23	C	0.419404	0.105652	-0.108461
C24	C	0.458522	0.106304	-0.035034
C25	C	0.935128	-0.036969	-0.071441
C26	C	0.927748	-0.123755	-0.070878
C27	C	0.995509	-0.173926	-0.076054
C28	C	0.988569	-0.255471	-0.075532
C29	C	0.913868	-0.286843	-0.069828
C30	C	0.846102	-0.236666	-0.064655
C31	C	0.853043	-0.155123	-0.065183
C32	C	0.889350	-0.532581	-0.067967
C33	C	0.882415	-0.614130	-0.067437
C34	C	1.024883	-0.632930	-0.078316
C35	C	1.031816	-0.551384	-0.078838
C36	C	0.964050	-0.501214	-0.073669
C37	C	0.906773	-0.370195	-0.069292
C38	C	0.971146	-0.417864	-0.074212
C39	C	1.082791	0.100106	-0.082731
C40	C	1.170459	0.101553	-0.089434
C41	C	0.942796	0.248912	-0.072043
C42	C	0.950176	0.335699	-0.072612
N43	N	0.938922	0.105982	0.158162
N44	N	0.939008	0.105955	-0.301645
C45	C	0.938980	0.105964	0.517359
C46	C	0.878258	0.170045	0.484388
C47	C	0.878423	0.170279	0.381549
C48	C	0.938950	0.105973	0.339158
C49	C	1.022449	0.123699	0.370069
C50	C	1.022115	0.124155	0.472952
C51	C	0.916924	0.023966	0.481150
C52	C	0.915072	0.024515	0.378428
C53	C	0.938939	0.105976	0.238445
C54	C	0.938997	0.105963	0.618071
H55	H	0.327584	0.104134	-0.247382
O56	O	0.171727	0.101621	0.069126
C57	C	0.225733	0.102497	0.135995
H58	H	0.282851	0.128199	0.108043
H59	H	0.199464	0.140049	0.194258
H60	H	0.238554	0.039954	0.159757
O61	O	0.706226	0.110244	0.104645
C62	C	0.690460	0.042253	0.154806
H63	H	0.670892	-0.005427	0.109242
H64	H	0.746096	0.020431	0.187047
H65	H	0.641644	0.056774	0.208690
O66	O	1.078006	0.069608	0.336598
C67	C	1.135908	0.107657	0.283422
H68	H	1.136096	0.171982	0.304177
H69	H	1.196271	0.077932	0.292486
H70	H	1.122180	0.103823	0.210604
O71	O	0.171788	0.101535	-0.248198
C72	C	0.225815	0.102437	-0.323325
H73	H	0.286131	0.078660	-0.304353
H74	H	0.204481	0.064109	-0.377953
H75	H	0.230520	0.165270	-0.348420
H76	H	1.092646	-0.525847	-0.083482
H77	H	0.550346	0.107799	0.103893
H78	H	1.040714	0.183953	0.495509
H79	H	0.327518	0.104150	0.044503
H80	H	0.699841	0.110259	-0.199419
O81	O	0.544059	0.107653	-0.200231
C82	C	0.598092	0.108547	-0.275354
H83	H	0.658408	0.084780	-0.256370
H84	H	0.576767	0.070206	-0.329975
H85	H	0.602792	0.171375	-0.300463
O86	O	1.068057	-0.143418	-0.081437
C87	C	1.076317	-0.096799	-0.005653
H88	H	1.033793	-0.116036	0.051014
H89	H	1.139392	-0.104193	0.015178
H90	H	1.062445	-0.032472	-0.021871
H91	H	0.845951	-0.395748	-0.064646
H92	H	0.816533	0.159731	0.361067
O93	O	1.077919	0.070487	0.498278
C94	C	1.060733	-0.004755	0.468250
H95	H	1.022414	0.001381	0.409237
H96	H	1.118023	-0.039147	0.446963
H97	H	1.027867	-0.037342	0.524266
O98	O	0.418595	0.105548	0.046210
C99	C	0.443082	0.038193	0.093270
H100	H	0.504359	0.016613	0.065722
H101	H	0.444893	0.053461	0.166720
H102	H	0.399797	-0.009957	0.085421
O103	O	0.459514	0.106403	-0.189605
C104	C	0.502758	0.174872	-0.197737
H105	H	0.513611	0.197648	-0.128727
H106	H	0.561682	0.160600	-0.236270
H107	H	0.467953	0.221732	-0.234789
H108	H	1.043748	-0.296317	-0.079744
O109	O	1.090626	-0.681776	-0.083377
C110	C	1.068487	-0.760476	-0.081666
H111	H	1.006326	-0.763534	-0.104853
H112	H	1.111350	-0.797468	-0.127786
H113	H	1.069882	-0.784065	-0.010980
O114	O	0.895404	0.242288	0.513842
C115	C	0.840492	0.299138	0.483746
H116	H	0.784112	0.269704	0.468693
H117	H	0.826459	0.345818	0.537421
H118	H	0.866504	0.327864	0.420790
H119	H	0.821582	-0.639670	-0.062778
H120	H	0.797864	-0.114274	-0.060968
O121	O	0.896000	0.242810	0.350720
C122	C	0.965218	0.236805	0.293696
H123	H	0.973794	0.174465	0.266084
H124	H	0.959798	0.280050	0.236470
H125	H	1.018033	0.251044	0.332422
H126	H	0.834170	-0.491742	-0.063758
O127	O	1.045138	0.194193	0.337647
C128	C	1.120231	0.209227	0.366048
H129	H	1.152251	0.151362	0.382773
H130	H	1.155797	0.240024	0.310701
H131	H	1.113366	0.248451	0.427634
O132	O	0.845469	0.003749	0.517635
C133	C	0.814313	0.063436	0.576542
H134	H	0.842200	0.121186	0.557848
H135	H	0.747755	0.070385	0.571980
H136	H	0.827790	0.047001	0.647431
H137	H	0.816182	0.159672	0.513892
H138	H	0.785279	-0.262216	-0.060016
H139	H	1.031967	-0.392317	-0.078875
H140	H	0.853622	0.011060	0.358751
O141	O	0.963999	-0.034939	0.343982
C142	C	1.021136	-0.004042	0.283293
H143	H	1.027972	0.060573	0.299253
H144	H	1.079986	-0.037964	0.288768
H145	H	1.001656	-0.009751	0.212784
H146	H	0.961141	-0.023720	0.502093
