data_functionalizedCrystal
_audit_creation_method	'MofGen! by Chris Wilmer'
_symmetry_space_group_name_H-M	'P1'
_symmetry_Int_Tables_number	1
_symmetry_cell_setting	triclinic
loop_
_symmetry_equiv_pos_as_xyz
  x,y,z
_cell_length_a	12.477989
_cell_length_b	21.606444
_cell_length_c	12.477989
_cell_angle_alpha	55.727353
_cell_angle_beta	90.488530
_cell_angle_gamma	64.368266
loop_
_atom_site_label
_atom_site_type_symbol
_atom_site_fract_x
_atom_site_fract_y
_atom_site_fract_z
Zr1	Zr	0.959586	0.766288	-0.218445
O2	O	0.787729	0.895406	-0.390293
O3	O	1.012271	0.637170	-0.165770
O4	O	0.997546	0.783221	-0.405023
O5	O	0.814069	0.735997	0.037694
O6	O	1.163051	0.796578	-0.416636
O7	O	0.802455	0.749355	-0.151040
O8	O	1.189392	0.535320	0.011344
O9	O	0.787728	0.997256	-0.390287
O10	O	1.158254	0.700247	-0.151965
O11	O	1.043406	0.680310	-0.002448
O12	O	1.026069	0.852266	-0.284138
O13	O	0.911222	0.832329	-0.134622
Zr14	Zr	1.242072	0.766288	0.064041
Zr15	Zr	1.223549	0.787591	-0.236967
Zr16	Zr	0.978110	0.744984	0.082563
Zr17	Zr	0.959584	0.928727	-0.218435
Zr18	Zr	1.242074	0.603848	0.064031
O19	O	1.189387	0.895405	0.011366
O20	O	1.163050	0.925696	-0.416629
O21	O	0.814067	0.865115	0.037702
O22	O	1.413929	0.637170	0.235889
O23	O	1.387591	0.667461	-0.192105
O24	O	1.038609	0.606880	0.262225
O25	O	1.387589	0.796578	-0.192097
O26	O	1.204112	0.749354	0.250619
O27	O	1.038607	0.735997	0.262233
O28	O	1.399204	0.783221	-0.003364
O29	O	0.997543	1.014189	-0.405009
O30	O	1.204116	0.518387	0.250605
O31	O	1.413930	0.535320	0.235883
O32	O	1.399207	0.552253	-0.003378
O33	O	0.802452	0.980322	-0.151026
O34	O	1.012266	0.997256	-0.165748
O35	O	1.175589	0.680310	0.129734
O36	O	1.290436	0.700246	-0.019782
O37	O	1.158252	0.852266	-0.151955
O38	O	1.043404	0.832329	-0.002439
C39	C	0.770653	0.739641	-0.054034
C40	C	0.658594	0.730597	-0.046171
C41	C	1.100832	0.563101	-0.077214
C42	C	1.100833	0.494141	-0.077219
C43	C	1.077659	0.792935	-0.453717
C44	C	1.069796	0.801979	-0.581503
C45	C	1.431005	0.792935	-0.100370
C46	C	1.543064	0.801979	-0.108233
C47	C	1.160779	0.472150	-0.155266
C48	C	1.160784	0.407350	-0.155257
C49	C	1.100834	0.364546	-0.077207
C50	C	1.040887	0.386539	0.000850
C51	C	1.040890	0.451334	0.000848
C52	C	1.040873	0.125228	0.000863
C53	C	1.040871	0.060431	0.000856
C54	C	1.160767	0.081244	-0.155242
C55	C	1.160770	0.146039	-0.155245
C56	C	1.100829	0.168023	-0.077182
C57	C	1.100826	0.238285	-0.077191
C58	C	1.100828	0.294289	-0.077205
C59	C	1.100826	0.969475	-0.077189
C60	C	1.100825	1.038434	-0.077185
C61	C	1.123999	0.739641	0.299313
C62	C	1.131862	0.730597	0.427099
C63	C	1.431008	0.589748	-0.100382
C64	C	1.543068	0.529832	-0.108249
C65	C	1.124002	0.536454	0.299301
C66	C	1.131866	0.458450	0.427082
C67	C	1.454178	0.563101	0.276133
C68	C	1.574101	0.494141	0.396052
C69	C	0.747480	0.969475	-0.430537
C70	C	0.627557	1.038435	-0.550455
C71	C	0.770650	0.942828	-0.054022
C72	C	0.658590	1.002743	-0.046155
C73	C	1.077657	0.996122	-0.453705
C74	C	1.069792	1.074126	-0.581486
C75	C	1.526694	0.501696	-0.180955
C76	C	1.631974	0.445409	-0.188374
C77	C	1.753628	0.417254	-0.123079
C78	C	1.770000	0.445396	-0.050372
C79	C	1.664720	0.501687	-0.042961
C80	C	1.204558	0.421818	0.556101
C81	C	1.211944	0.348533	0.676177
C82	C	1.146644	0.311878	0.667231
C83	C	1.073943	0.348517	0.538199
C84	C	1.066551	0.421804	0.418127
C85	C	1.690379	0.472165	0.374320
C86	C	1.803069	0.407380	0.486984
C87	C	1.799479	0.364569	0.621379
C88	C	1.683189	0.386551	0.643108
C89	C	1.570501	0.451339	0.530446
C90	C	0.511279	1.060419	-0.528724
C91	C	0.398589	1.125224	-0.641388
C92	C	0.402180	1.168038	-0.775782
C93	C	0.518470	1.146052	-0.797512
C94	C	0.631157	1.081253	-0.684849
C95	C	0.674964	1.030887	0.026538
C96	C	0.569681	1.087195	0.033924
C97	C	0.448027	1.115352	-0.031375
C98	C	0.431656	1.087207	-0.104077
C99	C	0.536937	1.030905	-0.111470
C100	C	1.135107	1.110758	-0.572496
C101	C	1.127743	1.184043	-0.692551
C102	C	1.055055	1.220698	-0.821593
C103	C	0.989738	1.184059	-0.830580
C104	C	0.997110	1.110772	-0.710528
H105	H	0.529882	0.870011	-0.167391
F106	F	0.754904	1.057858	-0.708000
H107	H	1.257735	0.451654	0.563411
H108	H	1.049062	1.280374	-0.919337
F109	F	1.209184	0.641666	-0.435487
F110	F	0.989185	0.460780	0.280819
H111	H	0.671774	0.662561	0.012975
H112	H	1.209590	0.507002	-0.218831
F113	F	1.397230	0.531653	-0.250461
F114	F	0.804428	1.000933	0.096042
H115	H	1.618619	0.422502	-0.247579
F116	F	1.212476	1.071760	-0.435172
H117	H	0.992072	0.469239	0.064399
H118	H	1.839342	0.371417	-0.129122
H119	H	1.209598	0.389445	-0.218809
F120	F	0.912372	1.223086	-0.967928
F121	F	1.694228	0.517721	0.231296
F122	F	1.224570	0.191595	-0.238323
F123	F	1.446754	0.474716	0.553596
H124	H	1.678070	0.524588	0.016251
F125	F	1.899483	0.415421	0.019118
H126	H	1.271148	0.318711	0.781227
F127	F	1.154523	0.233878	0.795037
H128	H	1.020779	0.318661	0.530936
F129	F	1.224567	0.057839	-0.238319
H130	H	0.992051	0.025579	0.064419
H131	H	0.508332	1.025561	-0.419302
F132	F	0.587132	1.117137	0.111310
F133	F	1.926819	0.383995	0.463829
F134	F	0.977082	0.148613	0.083948
H135	H	0.992082	0.351678	0.064407
H136	H	0.943916	1.080953	-0.717866
F137	F	1.919422	0.295616	0.741273
H138	H	1.680285	0.351685	0.752547
H139	H	0.303913	1.143112	-0.623668
H140	H	0.310413	1.220800	-0.867508
F141	F	0.522271	1.191625	-0.940555
H142	H	0.362312	1.161197	-0.025344
F143	F	0.992464	0.890904	-0.718907
H144	H	1.180931	1.213866	-0.685207
F145	F	0.302173	1.117180	-0.173563
H146	H	0.523588	1.007991	-0.170660
