data_functionalizedCrystal
_audit_creation_method	'MofGen! by Chris Wilmer'
_symmetry_space_group_name_H-M	'P1'
_symmetry_Int_Tables_number	1
_symmetry_cell_setting	triclinic
loop_
_symmetry_equiv_pos_as_xyz
  x,y,z
_cell_length_a	12.759401
_cell_length_b	12.759399
_cell_length_c	12.759393
_cell_angle_alpha	89.969069
_cell_angle_beta	89.981287
_cell_angle_gamma	90.016641
loop_
_atom_site_label
_atom_site_type_symbol
_atom_site_fract_x
_atom_site_fract_y
_atom_site_fract_z
Zn1	Zn	1.606240	-0.418172	-0.594017
Zn2	Zn	1.606137	-0.593888	-0.418336
Zn3	Zn	1.430546	-0.418228	-0.418352
Zn4	Zn	1.430530	-0.593815	-0.593973
O5	O	1.518363	-0.506026	-0.506170
O6	O	1.753248	-0.441489	-0.570724
O7	O	1.582808	-0.570641	-0.271317
O8	O	1.453902	-0.271200	-0.441680
O9	O	1.753172	-0.570586	-0.441652
O10	O	1.582984	-0.271159	-0.570740
O11	O	1.453802	-0.441584	-0.271329
O12	O	1.283523	-0.441513	-0.441637
O13	O	1.453874	-0.570461	-0.741000
O14	O	1.283511	-0.570515	-0.570665
O15	O	1.582968	-0.441418	-0.741032
O16	O	1.582792	-0.740899	-0.441609
O17	O	1.453774	-0.740845	-0.570649
C18	C	1.245396	-0.506013	-0.506149
C19	C	1.128619	-0.506033	-0.506165
C20	C	1.073779	-0.573307	-0.573244
C21	C	0.964054	-0.573311	-0.573265
C22	C	0.964021	-0.438764	-0.439118
C23	C	1.073743	-0.438756	-0.439104
C24	C	0.814153	-0.611009	-0.697125
C25	C	0.759309	-0.678299	-0.764195
C26	C	0.794905	-0.780830	-0.780142
C27	C	0.885344	-0.816092	-0.729004
C28	C	0.940183	-0.748807	-0.661926
C29	C	0.904588	-0.646262	-0.645999
C30	C	1.223646	-0.401068	-0.315242
C31	C	1.278487	-0.333788	-0.248158
C32	C	1.242893	-0.231255	-0.232200
C33	C	1.152450	-0.195998	-0.283320
C34	C	1.097610	-0.263278	-0.350404
C35	C	1.133212	-0.365809	-0.366363
C36	C	1.518299	-0.778993	-0.506146
C37	C	1.518367	-0.895770	-0.506171
C38	C	1.585624	-0.950625	-0.439056
C39	C	1.585691	-1.060349	-0.439091
C40	C	1.451237	-1.060353	-0.573359
C41	C	1.451176	-0.950631	-0.573328
C42	C	1.709701	-1.210225	-0.401704
C43	C	1.776948	-1.265083	-0.334573
C44	C	1.793115	-1.229543	-0.232062
C45	C	1.742019	-1.139145	-0.196662
C46	C	1.674764	-1.084292	-0.263788
C47	C	1.658618	-1.119831	-0.366313
C48	C	1.327164	-0.800754	-0.610705
C49	C	1.259903	-0.745898	-0.677826
C50	C	1.243726	-0.781437	-0.780338
C51	C	1.294803	-0.871838	-0.815734
C52	C	1.362064	-0.926693	-0.748613
C53	C	1.378243	-0.891147	-0.646102
C54	C	1.792396	-0.506040	-0.506191
C55	C	1.909173	-0.506045	-0.506200
C56	C	1.518431	-0.505925	-0.780203
C57	C	1.518460	-0.505882	-0.896980
C58	C	1.518456	-0.231993	-0.506217
C59	C	1.518496	-0.115216	-0.506237
C60	C	1.451264	-0.573043	-0.951827
C61	C	1.451301	-0.573004	-1.061551
C62	C	1.585734	-0.438633	-1.061572
C63	C	1.585702	-0.438678	-0.951849
C64	C	1.413763	-0.696846	-1.211484
C65	C	1.346550	-0.763998	-1.266335
C66	C	1.244020	-0.780136	-1.230719
C67	C	1.208681	-0.729106	-1.140255
C68	C	1.275888	-0.661946	-1.085410
C69	C	1.378434	-0.645828	-1.121024
C70	C	1.623228	-0.314836	-0.801914
C71	C	1.690431	-0.247669	-0.747067
C72	C	1.792964	-0.231521	-0.782681
C73	C	1.828299	-0.282532	-0.873149
C74	C	1.761096	-0.349698	-0.927996
C75	C	1.658564	-0.365849	-0.892375
C76	C	1.518356	-0.506051	-0.233202
C77	C	1.518530	-0.505798	-0.116426
H78	H	0.750244	-0.835618	-0.834753
O79	O	1.028027	-0.783205	-0.612357
C80	C	1.047665	-0.888149	-0.640778
H81	H	1.008498	-0.905576	-0.719147
H82	H	1.014602	-0.942691	-0.578158
C83	C	1.214795	-0.884162	-0.554298
C84	C	1.166696	-0.905563	-0.650556
H85	H	1.288219	-0.894907	-0.560325
H86	H	1.201564	-0.813460	-0.535146
H87	H	1.187231	-0.929616	-0.502124
H88	H	1.194251	-0.860101	-0.702725
H89	H	1.179935	-0.976258	-0.669716
O90	O	1.009801	-0.228847	-0.400023
C91	C	0.990123	-0.123928	-0.371535
H92	H	1.066072	-0.085817	-0.343951
H93	H	0.929988	-0.121812	-0.305468
C94	C	0.853984	-0.110472	-0.500806
C95	C	0.947268	-0.063660	-0.466935
H96	H	0.827544	-0.073295	-0.559651
H97	H	0.867238	-0.181158	-0.519997
H98	H	0.803883	-0.108705	-0.445741
H99	H	0.997370	-0.065439	-0.521995
H100	H	0.934021	0.007028	-0.447756
O101	O	1.118036	-0.096350	-0.267743
C102	C	1.185819	-0.044536	-0.197554
H103	H	1.265853	-0.084208	-0.198676
H104	H	1.151810	-0.048402	-0.115007
C105	C	1.099389	0.119604	-0.229499
C106	C	1.197691	0.070883	-0.230883
H107	H	1.106710	0.190800	-0.250054
H108	H	1.053720	0.084695	-0.276784
H109	H	1.071059	0.116372	-0.160708
H110	H	1.226014	0.074104	-0.299676
H111	H	1.243366	0.105794	-0.183611
O112	O	1.650949	-0.897217	-0.373974
C113	C	1.718755	-0.833662	-0.433831
H114	H	1.681647	-0.817187	-0.513412
H115	H	1.796630	-0.875874	-0.445458
C116	C	1.783332	-0.749706	-0.278266
C117	C	1.737751	-0.729464	-0.376006
H118	H	1.795055	-0.685433	-0.242596
H119	H	1.737653	-0.792527	-0.237938
H120	H	1.848223	-0.784885	-0.287969
H121	H	1.672857	-0.694297	-0.366302
H122	H	1.783420	-0.686634	-0.416331
H123	H	1.755179	-1.110222	-0.113184
O124	O	1.241607	-0.612561	-0.997422
C125	C	1.211576	-0.687823	-0.922233
H126	H	1.253221	-0.765028	-0.939106
H127	H	1.123173	-0.700211	-0.926098
C128	C	1.190789	-0.554182	-0.791367
C129	C	1.241945	-0.649005	-0.812084
H130	H	1.209517	-0.530237	-0.723421
H131	H	1.211017	-0.503475	-0.842023
H132	H	1.117123	-0.564518	-0.794594
H133	H	1.315609	-0.638665	-0.808870
H134	H	1.221729	-0.699709	-0.761424
O135	O	1.296311	-0.166022	-0.167029
C136	C	1.383749	-0.219133	-0.125294
H137	H	1.406224	-0.286571	-0.179381
H138	H	1.363272	-0.251335	-0.044478
C139	C	1.448958	-0.059724	-0.049381
C140	C	1.476568	-0.142547	-0.115817
H141	H	1.506213	-0.012482	-0.043530
H142	H	1.390048	-0.023941	-0.077495
H143	H	1.431893	-0.086572	0.017959
H144	H	1.493620	-0.115699	-0.183158
H145	H	1.535484	-0.178323	-0.087714
H146	H	1.847870	-1.274216	-0.177404
O147	O	1.109026	-0.744585	-1.105720
C148	C	1.055201	-0.648107	-1.104217
H149	H	1.094212	-0.591328	-1.161165
H150	H	1.057647	-0.613939	-1.021714
C151	C	0.892491	-0.735307	-1.067152
C152	C	0.940400	-0.665574	-1.137103
H153	H	0.821675	-0.746081	-1.087433
H154	H	0.928754	-0.800307	-1.068160
H155	H	0.894539	-0.706825	-0.998405
H156	H	0.938363	-0.694062	-1.205846
H157	H	0.904134	-0.600579	-1.136107
O158	O	1.625251	-0.996478	-0.229261
C159	C	1.653911	-0.976887	-0.124372
H160	H	1.732327	-1.016051	-0.107120
H161	H	1.591423	-1.009988	-0.069707
C162	C	1.567389	-0.809769	-0.128137
C163	C	1.663706	-0.857863	-0.106950
H164	H	1.573427	-0.736350	-0.117388
H165	H	1.548077	-0.822969	-0.198801
H166	H	1.515326	-0.837363	-0.082580
H167	H	1.715764	-0.830278	-0.152515
H168	H	1.683028	-0.844656	-0.036293
O169	O	1.385997	-1.113810	-0.638486
C170	C	1.400487	-1.222417	-0.624139
H171	H	1.434950	-1.237439	-0.543094
H172	H	1.456416	-1.253458	-0.686515
C173	C	1.251881	-1.260379	-0.733227
C174	C	1.294201	-1.278830	-0.633682
H175	H	1.186321	-1.295179	-0.739118
H176	H	1.242120	-1.187208	-0.742896
H177	H	1.298499	-1.286247	-0.785196
H178	H	1.247590	-1.252950	-0.581716
H179	H	1.303951	-1.351998	-0.624004
O180	O	1.795597	-0.399202	-1.015837
C181	C	1.900497	-0.370523	-1.035534
H182	H	1.938562	-0.342929	-0.959583
H183	H	1.902574	-0.304408	-1.095636
C184	C	1.914105	-0.499672	-1.171744
C185	C	1.960860	-0.465789	-1.078458
H186	H	1.951340	-0.558435	-1.198226
H187	H	1.843431	-0.518992	-1.158476
H188	H	1.915838	-0.444568	-1.221817
H189	H	1.959114	-0.520889	-1.028382
H190	H	2.031535	-0.446481	-1.091718
H191	H	1.696555	-1.239163	-0.485179
H192	H	1.403658	-1.000300	-0.777443
H193	H	1.189294	-0.834813	-1.275387
O194	O	1.927946	-0.266771	-0.907581
C195	C	1.979676	-0.196533	-0.839787
H196	H	1.939974	-0.197764	-0.759744
H197	H	1.975755	-0.113974	-0.873768
C198	C	2.143875	-0.228159	-0.926265
C199	C	2.095117	-0.229677	-0.827952
H200	H	2.215086	-0.248599	-0.918967
H201	H	2.109024	-0.275476	-0.971942
H202	H	2.140597	-0.159357	-0.954572
H203	H	2.098384	-0.298480	-0.799653
H204	H	2.129972	-0.182372	-0.782270
H205	H	1.118455	-0.628085	-0.627852
H206	H	0.914313	-0.899587	-0.741985
H207	H	0.685674	-0.649579	-0.805832
H208	H	0.785169	-0.527517	-0.684158
H209	H	1.340339	-0.771803	-0.527233
H210	H	0.919328	-0.383991	-0.384518
H211	H	1.847674	-0.176815	-0.738022
H212	H	1.352130	-0.362504	-0.206533
H213	H	1.375333	-0.805546	-1.339992
H214	H	1.252643	-0.484556	-0.328239
H215	H	1.818551	-1.338685	-0.363405
H216	H	1.281631	-0.900774	-0.899208
H217	H	1.188953	-0.736764	-0.834986
H218	H	1.218320	-0.672284	-0.649000
H219	H	1.396505	-0.627759	-0.907155
H220	H	1.497256	-0.683723	-1.240484
H221	H	1.640479	-0.383917	-1.106260
H222	H	1.661649	-0.206126	-0.673409
H223	H	1.539738	-0.327983	-0.772905
