data_functionalizedCrystal
_audit_creation_method	'MofGen! by Chris Wilmer'
_symmetry_space_group_name_H-M	'P1'
_symmetry_Int_Tables_number	1
_symmetry_cell_setting	triclinic
loop_
_symmetry_equiv_pos_as_xyz
  x,y,z
_cell_length_a	11.792241
_cell_length_b	11.792241
_cell_length_c	16.053919
_cell_angle_alpha	92.859914
_cell_angle_beta	92.867278
_cell_angle_gamma	84.193416
loop_
_atom_site_label
_atom_site_type_symbol
_atom_site_fract_x
_atom_site_fract_y
_atom_site_fract_z
O1	O	1.511199	0.159836	0.069347
O2	O	1.180859	0.175870	0.069367
O3	O	1.354045	0.002682	0.069351
O4	O	1.338013	0.333024	0.069364
O5	O	1.345440	-0.005870	-0.069506
O6	O	1.172254	0.167318	-0.069490
O7	O	1.502593	0.151284	-0.069509
Zn8	Zn	1.336057	0.157943	-0.091546
Zn9	Zn	1.347395	0.169211	0.091404
O10	O	1.329407	0.324472	-0.069493
C11	C	1.134266	0.170587	-0.000059
C12	C	1.008252	0.167573	-0.000052
C13	C	0.777539	0.162029	-0.000076
C14	C	0.905925	0.165109	-0.000062
C15	C	1.348735	-0.043885	-0.000077
C16	C	1.345721	-0.169898	-0.000076
C17	C	1.340179	-0.400610	-0.000062
C18	C	1.343258	-0.272225	-0.000070
C19	C	1.549187	0.156567	-0.000081
C20	C	1.675201	0.159581	-0.000083
C21	C	1.334717	0.371039	-0.000063
C22	C	1.337732	0.497053	-0.000059
N23	N	1.328327	0.150253	-0.216404
C24	C	1.288581	0.110302	-0.740026
C25	C	1.293981	0.115725	-0.652621
C26	C	1.365929	0.187747	-0.608929
C27	C	1.432489	0.254341	-0.652648
C28	C	1.427095	0.248911	-0.740051
C29	C	1.389494	0.211416	-0.347526
C30	C	1.394881	0.216844	-0.260116
C31	C	1.256373	0.078226	-0.260095
C32	C	1.250980	0.072807	-0.347501
C33	C	1.317545	0.139396	-0.391211
N34	N	1.371447	0.193296	-0.519587
N35	N	1.312032	0.133841	-0.480552
N36	N	1.355134	0.176893	0.216262
H37	H	1.239789	0.061496	-0.617034
C38	C	1.461950	0.283655	-0.394865
C39	C	1.577438	0.254468	-0.373566
C40	C	1.644220	0.321007	-0.417151
H41	H	1.448596	0.270177	-0.453191
H42	H	1.442277	0.362076	-0.380538
H43	H	1.597105	0.176065	-0.387898
H44	H	1.590827	0.267950	-0.315247
H45	H	1.624546	0.399428	-0.402824
H46	H	1.630856	0.307524	-0.475475
H47	H	1.722585	0.301220	-0.402700
C48	C	1.172843	-0.005505	-0.394790
C49	C	1.115728	-0.062693	-0.337808
C50	C	1.043749	-0.134850	-0.381343
H51	H	1.118695	0.038415	-0.428904
H52	H	1.216918	-0.059598	-0.428854
H53	H	1.071656	-0.008607	-0.303759
H54	H	1.169847	-0.106634	-0.303692
H55	H	1.087823	-0.188943	-0.415407
H56	H	0.989608	-0.090921	-0.415456
H57	H	1.004995	-0.173668	-0.342688
C58	C	1.499400	0.321343	-0.787363
C59	C	1.563542	0.385602	-0.730395
C60	C	1.630157	0.452348	-0.773946
H61	H	1.549342	0.273186	-0.821446
H62	H	1.451127	0.371206	-0.821458
H63	H	1.611810	0.335744	-0.696314
H64	H	1.513628	0.433781	-0.696309
H65	H	1.581884	0.502211	-0.808041
H66	H	1.680093	0.404182	-0.808028
H67	H	1.673678	0.495963	-0.735300
H68	H	1.229987	0.051659	-0.775593
H69	H	1.202180	0.024012	-0.224497
H70	H	1.491077	0.312978	-0.617067
C71	C	1.472921	0.295220	-0.212781
C72	C	1.441020	0.408060	-0.234085
C73	C	1.512887	0.480286	-0.190503
H74	H	1.466656	0.289067	-0.154455
H75	H	1.549582	0.273831	-0.227107
H76	H	1.364378	0.429443	-0.219754
H77	H	1.447291	0.414249	-0.292404
H78	H	1.589548	0.458898	-0.204829
H79	H	1.506616	0.474124	-0.132179
H80	H	1.491259	0.556855	-0.204957
