data_functionalizedCrystal
_audit_creation_method	'MofGen! by Chris Wilmer'
_symmetry_space_group_name_H-M	'P1'
_symmetry_Int_Tables_number	1
_symmetry_cell_setting	triclinic
loop_
_symmetry_equiv_pos_as_xyz
  x,y,z
_cell_length_a	19.288864
_cell_length_b	14.853567
_cell_length_c	17.766277
_cell_angle_alpha	89.997439
_cell_angle_beta	89.976791
_cell_angle_gamma	83.385589
loop_
_atom_site_label
_atom_site_type_symbol
_atom_site_fract_x
_atom_site_fract_y
_atom_site_fract_z
O1	O	0.921733	0.112464	-0.062829
O2	O	0.719523	0.127636	-0.062777
O3	O	0.826029	-0.011211	-0.062807
O4	O	0.815227	0.251310	-0.062800
O5	O	0.826011	-0.011218	0.062382
O6	O	0.719504	0.127629	0.062411
O7	O	0.921714	0.112457	0.062359
Cu8	Cu	0.820607	0.120042	0.073816
Cu9	Cu	0.820630	0.120051	-0.074234
O10	O	0.815208	0.251303	0.062389
C11	C	0.693636	0.127144	-0.000176
C12	C	0.616527	0.125679	-0.000157
C13	C	0.825530	-0.044800	-0.000215
C14	C	0.824064	-0.144875	-0.000221
C15	C	0.572106	0.207147	-0.000166
C16	C	0.499654	0.205770	-0.000175
C17	C	0.471627	0.122920	-0.000188
C18	C	0.516058	0.041441	-0.000175
C19	C	0.588508	0.042820	-0.000159
C20	C	0.363152	0.057794	-0.044075
C21	C	0.290703	0.056418	-0.044095
C22	C	0.248167	0.118664	-0.000234
C23	C	0.278088	0.182300	0.043638
C24	C	0.350538	0.183679	0.043654
C25	C	0.393068	0.121416	-0.000205
C26	C	0.125185	0.198645	-0.000252
C27	C	0.052732	0.197265	-0.000255
C28	C	0.069138	0.032933	-0.000263
C29	C	0.141589	0.034316	-0.000252
C30	C	0.169608	0.117174	-0.000250
C31	C	0.754596	-0.557014	-0.000189
C32	C	0.881128	-0.579015	-0.000221
C33	C	0.882507	-0.484989	-0.000226
C34	C	0.819930	-0.426971	-0.000211
C35	C	0.755974	-0.462979	-0.000191
C36	C	0.946462	-0.448973	-0.000239
C37	C	0.947844	-0.354942	-0.000242
C38	C	0.885266	-0.296923	-0.000233
C39	C	0.821307	-0.332936	-0.000214
C40	C	0.758730	-0.274918	-0.000199
C41	C	0.694770	-0.310930	-0.000185
C42	C	0.693396	-0.404960	-0.000181
C43	C	0.886641	-0.202893	-0.000236
C44	C	0.760107	-0.180883	-0.000201
C45	C	0.947601	0.112949	-0.000243
C46	C	1.024710	0.114414	-0.000268
C47	C	0.815707	0.284893	-0.000205
C48	C	0.817174	0.384968	-0.000204
N49	N	0.820597	0.120036	0.177946
N50	N	0.820646	0.120050	-0.178364
C51	C	0.867773	0.058585	0.217320
C52	C	0.867777	0.058581	0.296122
C53	C	0.820612	0.120043	0.335547
C54	C	0.773427	0.181499	0.296164
C55	C	0.773419	0.181495	0.217363
C56	C	0.811590	0.202186	0.460389
C57	C	0.811602	0.202191	0.539187
C58	C	0.820630	0.120054	0.578593
C59	C	0.829661	0.037908	0.539190
C60	C	0.829653	0.037905	0.460390
C61	C	0.820614	0.120053	0.420992
C62	C	0.867813	0.058593	0.703413
C63	C	0.867813	0.058588	0.782216
C64	C	0.773465	0.181514	0.782256
C65	C	0.773463	0.181511	0.703455
C66	C	0.820640	0.120052	0.664038
H67	H	0.463479	0.272114	-0.000180
C68	C	0.839597	-0.052450	0.582522
H69	H	0.844980	-0.101369	0.547770
H70	H	0.799911	-0.057327	0.613285
H71	H	0.880045	-0.054401	0.613239
H72	H	0.932075	-0.626258	-0.000228
C73	C	0.003868	0.286885	-0.000266
H74	H	0.030935	0.336426	-0.000270
H75	H	-0.024760	0.289767	0.043384
H76	H	-0.024712	0.289758	-0.043933
H77	H	0.999924	-0.325630	-0.000255
H78	H	0.906227	0.008542	0.814275
H79	H	0.938716	-0.173576	-0.000242
C80	C	0.801664	0.292543	0.417050
H81	H	0.796299	0.341464	0.451800
H82	H	0.761222	0.294506	0.386329
H83	H	0.841359	0.297406	0.386291
C84	C	0.919695	-0.009017	0.660047
H85	H	0.912940	-0.000212	0.607477
H86	H	0.912094	-0.069160	0.672969
H87	H	0.966062	0.000621	0.672936
H88	H	0.735059	0.231554	0.814356
H89	H	0.177758	-0.032025	-0.000248
H90	H	0.266347	0.004605	-0.079821
H91	H	0.702522	-0.586339	-0.000180
C92	C	0.721576	0.249118	0.660141
H93	H	0.693489	0.285728	0.694905
H94	H	0.692631	0.216784	0.629418
H95	H	0.746599	0.286566	0.629388
C96	C	0.919659	-0.009027	0.173965
H97	H	0.947752	-0.045632	0.208706
H98	H	0.948598	0.023303	0.143203
H99	H	0.894631	-0.046480	0.143246
C100	C	0.038316	-0.058200	-0.000283
H101	H	-0.011195	-0.047355	-0.000299
H102	H	0.053536	-0.091741	0.043372
H103	H	0.053584	-0.091724	-0.043946
C104	C	0.839575	-0.052445	0.417047
H105	H	0.845049	-0.101365	0.451795
H106	H	0.879955	-0.054350	0.386200
H107	H	0.799830	-0.057366	0.386415
C108	C	0.409934	-0.010674	-0.092332
H109	H	0.381738	-0.048758	-0.118472
H110	H	0.441817	-0.046544	-0.060715
H111	H	0.435099	0.021048	-0.127593
C112	C	0.383450	0.253665	0.091915
H113	H	0.347746	0.290538	0.118041
H114	H	0.408100	0.290606	0.060306
H115	H	0.414803	0.223021	0.127189
H116	H	0.243457	0.232986	0.079354
C117	C	1.015290	-0.512791	-0.000250
H118	H	1.005308	-0.573948	-0.000254
H119	H	1.041502	-0.501904	0.043401
H120	H	1.041520	-0.501903	-0.043916
H121	H	0.709148	-0.133651	-0.000192
C122	C	0.801670	0.292543	0.582527
H123	H	0.802976	0.280783	0.635100
H124	H	0.757892	0.324831	0.569636
H125	H	0.838027	0.327753	0.569588
H126	H	0.594914	0.274617	-0.000166
C127	C	0.721548	0.249108	0.339528
H128	H	0.728314	0.240316	0.392098
H129	H	0.675183	0.239471	0.326642
H130	H	0.729150	0.309254	0.326602
H131	H	0.735002	0.231537	0.185305
C132	C	0.485231	-0.049691	-0.000194
H133	H	0.435720	-0.038845	-0.000214
H134	H	0.500448	-0.083230	0.043462
H135	H	0.500501	-0.083218	-0.043855
H136	H	0.643820	-0.263680	-0.000167
H137	H	0.906195	0.008538	0.328186
C138	C	0.637374	-0.046799	-0.000157
H139	H	0.610308	-0.096341	-0.000171
H140	H	0.665958	-0.049681	0.043501
H141	H	0.665996	-0.049670	-0.043816
H142	H	0.147999	0.266113	-0.000239
C143	C	0.623049	-0.444575	-0.000156
H144	H	0.631192	-0.508884	-0.000146
H145	H	0.597281	-0.424650	-0.043803
H146	H	0.597278	-0.424642	0.043514
