data_functionalizedCrystal
_audit_creation_method	'MofGen! by Chris Wilmer'
_symmetry_space_group_name_H-M	'P1'
_symmetry_Int_Tables_number	1
_symmetry_cell_setting	triclinic
loop_
_symmetry_equiv_pos_as_xyz
  x,y,z
_cell_length_a	12.837943
_cell_length_b	10.489741
_cell_length_c	11.892095
_cell_angle_alpha	93.929268
_cell_angle_beta	85.689438
_cell_angle_gamma	89.684057
loop_
_atom_site_label
_atom_site_type_symbol
_atom_site_fract_x
_atom_site_fract_y
_atom_site_fract_z
O1	O	1.384503	0.324530	-0.093982
O2	O	1.082575	0.308135	-0.093989
O3	O	1.240409	0.131493	-0.093979
O4	O	1.226669	0.501172	-0.093992
O5	O	1.227249	0.146196	0.094028
O6	O	1.069415	0.322838	0.094018
O7	O	1.371343	0.339233	0.094024
Zn8	Zn	1.218290	0.333370	0.123871
Zn9	Zn	1.235629	0.313998	-0.123836
O10	O	1.213509	0.515875	0.094014
C11	C	1.037334	0.309948	0.000014
C12	C	0.922133	0.293430	0.000011
C13	C	1.232791	0.091198	0.000024
C14	C	1.229687	-0.050774	0.000022
C15	C	0.682657	0.492006	0.000020
C16	C	0.574415	0.476492	0.000019
C17	C	0.597406	0.246889	0.000015
C18	C	0.705648	0.262403	0.000016
C19	C	0.748269	0.384966	0.000017
C20	C	0.856513	0.400478	0.000011
C21	C	0.879501	0.170877	0.000015
C22	C	0.771260	0.155363	0.000014
C23	C	1.129262	-0.129987	0.000011
C24	C	1.170213	-0.209630	0.092709
C25	C	1.183212	-0.224098	-0.092650
C26	C	1.270674	-0.128541	0.092796
C27	C	1.283664	-0.143007	-0.092647
C28	C	1.324687	-0.222613	0.000074
C29	C	1.416585	0.337420	0.000019
C30	C	1.531786	0.353937	0.000014
C31	C	1.221127	0.556170	0.000009
C32	C	1.224233	0.698141	0.000004
N33	N	1.206464	0.346591	0.292925
N34	N	1.247463	0.300768	-0.292889
C35	C	1.329751	0.208698	0.529580
C36	C	1.321493	0.217950	0.647922
C37	C	1.181684	0.374338	0.647951
C38	C	1.189943	0.365086	0.529609
C39	C	1.263980	0.282265	0.470428
C40	C	1.272243	0.273021	0.352085
C41	C	1.132429	0.429402	0.352116
C42	C	1.124171	0.438653	0.470457
H43	H	0.891213	0.500275	0.000013
H44	H	1.122235	-0.239197	0.171077
C45	C	1.411189	0.117611	0.464473
H46	H	1.406692	0.122645	0.385521
H47	H	1.397941	0.032544	0.483869
H48	H	1.479186	0.141469	0.483850
C49	C	0.724370	0.020555	0.000007
H50	H	0.650509	0.026643	-0.000001
H51	H	0.742246	-0.018957	0.065564
H52	H	0.751421	-0.029185	-0.065569
C53	C	1.393839	0.137030	0.712991
H54	H	1.378314	0.154391	0.791947
H55	H	1.464542	0.157833	0.693581
H56	H	1.383279	0.048929	0.693599
C57	C	1.348426	-0.103010	-0.198516
H58	H	1.317253	-0.135801	-0.264321
H59	H	1.417505	-0.136125	-0.199183
H60	H	1.350450	-0.012416	-0.197374
C61	C	1.320607	-0.072294	0.198788
H62	H	1.339504	-0.139646	0.242995
H63	H	1.271948	-0.016689	0.242119
H64	H	1.381188	-0.025860	0.176634
C65	C	1.436274	-0.277202	0.000205
H66	H	1.451279	-0.332661	-0.065652
H67	H	1.441585	-0.323505	0.065479
H68	H	1.484789	-0.209146	0.000873
C69	C	0.550509	0.112087	0.000026
H70	H	0.476647	0.118183	0.000024
H71	H	0.568386	0.072586	0.065588
H72	H	0.577550	0.062330	-0.065544
C73	C	1.100187	0.465347	0.713057
H74	H	1.062172	0.507809	0.660882
H75	H	1.134619	0.526680	0.759256
H76	H	1.053458	0.417662	0.759189
C77	C	1.133207	-0.280562	-0.198520
H78	H	1.182072	-0.335620	-0.242176
H79	H	1.113673	-0.213275	-0.242457
H80	H	1.073025	-0.327648	-0.176233
C81	C	1.353682	0.181933	0.286982
H82	H	1.349192	0.186968	0.208029
H83	H	1.340431	0.096866	0.306376
H84	H	1.421678	0.205788	0.306366
H85	H	1.063888	0.506081	0.518656
C86	C	1.060077	0.510333	0.287052
H87	H	1.014809	0.560988	0.339251
H88	H	1.019766	0.455531	0.240891
H89	H	1.101029	0.564435	0.240885
C90	C	0.729545	0.626814	0.000011
H91	H	0.674965	0.688344	0.000014
H92	H	0.775882	0.632507	-0.065551
H93	H	0.766701	0.642767	0.065581
H94	H	0.520997	0.563656	0.000024
C95	C	0.951672	0.053123	0.000012
H96	H	0.910783	-0.022088	0.000002
H97	H	0.989793	0.059522	0.065570
H98	H	0.998958	0.049282	-0.065562
H99	H	1.046687	-0.089432	0.000103
