data_functionalizedCrystal
_audit_creation_method	'MofGen! by Chris Wilmer'
_symmetry_space_group_name_H-M	'P1'
_symmetry_Int_Tables_number	1
_symmetry_cell_setting	triclinic
loop_
_symmetry_equiv_pos_as_xyz
  x,y,z
_cell_length_a	16.109301
_cell_length_b	12.837942
_cell_length_c	14.586319
_cell_angle_alpha	89.996741
_cell_angle_beta	89.999213
_cell_angle_gamma	89.145211
loop_
_atom_site_label
_atom_site_type_symbol
_atom_site_fract_x
_atom_site_fract_y
_atom_site_fract_z
O1	O	1.113716	0.133240	-0.076181
O2	O	0.872971	0.149822	-0.076196
O3	O	0.988005	-0.009370	-0.076183
O4	O	0.998682	0.292432	-0.076194
O5	O	0.987996	-0.009372	0.076298
O6	O	0.872962	0.149819	0.076285
O7	O	1.113707	0.133238	0.076299
Cu8	Cu	0.993333	0.141528	0.090215
Cu9	Cu	0.993344	0.141531	-0.090111
O10	O	0.998673	0.292430	0.076287
C11	C	0.841938	0.149149	0.000043
C12	C	0.749483	0.147135	0.000037
C13	C	0.534343	0.236914	0.000045
C14	C	0.447471	0.235014	0.000051
C15	C	0.452341	0.046138	0.000054
C16	C	0.539211	0.048040	0.000054
C17	C	0.580209	0.143431	0.000045
C18	C	0.406468	0.139629	0.000050
C19	C	0.312278	0.137568	0.000057
C20	C	0.674405	0.145492	0.000040
C21	C	0.984394	-0.047991	0.000056
C22	C	0.973637	-0.163064	0.000054
C23	C	1.102954	-0.404066	0.000043
C24	C	1.092851	-0.512188	0.000041
C25	C	0.943328	-0.487433	0.000041
C26	C	0.953431	-0.379311	0.000043
C27	C	1.033247	-0.337632	0.000046
C28	C	1.043349	-0.229507	0.000054
C29	C	0.893827	-0.204754	0.000048
C30	C	0.883724	-0.312876	0.000046
C31	C	1.144739	0.133911	0.000059
C32	C	1.237195	0.135924	0.000058
C33	C	1.002284	0.331050	0.000045
C34	C	1.013041	0.446124	0.000041
N35	N	0.993332	0.141526	0.217047
N36	N	0.993352	0.141526	-0.216943
C37	C	1.044290	0.071059	0.452059
C38	C	1.044292	0.071057	0.548040
C39	C	0.942388	0.211995	0.548038
C40	C	0.942382	0.211992	0.452059
C41	C	0.993338	0.141525	0.404071
C42	C	0.993346	0.141526	0.596032
C43	C	0.993348	0.141524	0.700099
C44	C	0.993335	0.141526	0.299998
H45	H	0.410130	0.311138	0.000052
H46	H	0.900887	0.269375	0.412985
H47	H	0.900903	0.269370	0.587119
O48	O	0.578567	0.339794	0.000054
H49	H	0.532075	0.404479	0.000067
O50	O	0.588691	-0.052794	0.000061
H51	H	0.573198	-0.098442	-0.062089
O52	O	0.408117	-0.056741	0.000055
H53	H	0.425950	-0.101658	0.062209
O54	O	1.189036	-0.359105	0.000042
H55	H	1.222946	-0.385801	0.062188
H56	H	0.878346	-0.521388	0.000030
O57	O	1.129431	-0.184544	0.000045
H58	H	1.176204	-0.248910	0.000030
H59	H	1.149614	-0.566277	0.000036
H60	H	0.818741	-0.346827	0.000041
H61	H	1.085780	0.013676	0.587108
O62	O	0.818634	-0.133101	0.000048
H63	H	0.839066	-0.050913	0.000045
O64	O	1.099235	-0.004951	0.400296
H65	H	1.134658	-0.053959	0.449794
