data_functionalizedCrystal
_audit_creation_method	'MofGen! by Chris Wilmer'
_symmetry_space_group_name_H-M	'P1'
_symmetry_Int_Tables_number	1
_symmetry_cell_setting	triclinic
loop_
_symmetry_equiv_pos_as_xyz
  x,y,z
_cell_length_a	11.169417
_cell_length_b	17.640280
_cell_length_c	11.169409
_cell_angle_alpha	78.765642
_cell_angle_beta	89.980176
_cell_angle_gamma	78.801822
loop_
_atom_site_label
_atom_site_type_symbol
_atom_site_fract_x
_atom_site_fract_y
_atom_site_fract_z
Zn1	Zn	1.931511	-0.314589	-0.582049
Zn2	Zn	1.971974	-0.446792	-0.340816
Zn3	Zn	1.730812	-0.314638	-0.381369
Zn4	Zn	1.771358	-0.446728	-0.541481
O5	O	1.851414	-0.380687	-0.461429
O6	O	2.104830	-0.332133	-0.550056
O7	O	1.939948	-0.429309	-0.178231
O8	O	1.723532	-0.204024	-0.441939
O9	O	2.134558	-0.429262	-0.372823
O10	O	1.870985	-0.203988	-0.589378
O11	O	1.762767	-0.332215	-0.208025
O12	O	1.568238	-0.332153	-0.402602
O13	O	1.792638	-0.429152	-0.714827
O14	O	1.598028	-0.429199	-0.520235
O15	O	1.910301	-0.332071	-0.744632
O16	O	1.979264	-0.557391	-0.333485
O17	O	1.831873	-0.557344	-0.480912
C18	C	1.539585	-0.380675	-0.461417
C19	C	1.406189	-0.380689	-0.461435
C20	C	1.914392	-0.586047	-0.398422
C21	C	1.941444	-0.673901	-0.371508
C22	C	1.646394	-0.962856	-0.666331
C23	C	1.671816	-1.045408	-0.641003
C24	C	1.825390	-1.045391	-0.487642
C25	C	1.799985	-0.962838	-0.512961
C26	C	1.710485	-0.921576	-0.602306
C27	C	1.864076	-0.921558	-0.448937
C28	C	1.838668	-0.839012	-0.474250
C29	C	1.749170	-0.797745	-0.563589
C30	C	1.685077	-0.839030	-0.627620
C31	C	1.953570	-0.962821	-0.359586
C32	C	2.017661	-0.921542	-0.295561
C33	C	1.992259	-0.838994	-0.320881
C34	C	1.902761	-0.797727	-0.410219
C35	C	2.056352	-0.797709	-0.256849
C36	C	2.030944	-0.715162	-0.282163
C37	C	1.877353	-0.715180	-0.435532
C38	C	2.164460	-0.380699	-0.461441
C39	C	2.297861	-0.380705	-0.461446
C40	C	1.851479	-0.380599	-0.774498
C41	C	1.851507	-0.380562	-0.907910
C42	C	1.788222	-0.174525	-0.524708
C43	C	1.761294	-0.086671	-0.551674
C44	C	1.851400	-0.380717	-0.149595
C45	C	1.851537	-0.380532	-0.016252
H46	H	1.728476	-0.730530	-0.584189
H47	H	1.974257	-1.030036	-0.338982
O48	O	2.104581	-0.961749	-0.208836
C49	C	2.211705	-1.088908	-0.101777
C50	C	2.113264	-1.043475	-0.200052
H51	H	2.218739	-1.154991	-0.094625
H52	H	2.303511	-1.072688	-0.127899
H53	H	2.185681	-1.072670	-0.009983
H54	H	2.139173	-1.059688	-0.291882
H55	H	2.021485	-1.059699	-0.173826
H56	H	2.129214	-0.831316	-0.184097
H57	H	1.612206	-0.805433	-0.700383
O58	O	2.093347	-0.675180	-0.219894
C59	C	2.248306	-0.683867	-0.065040
C60	C	2.177753	-0.729244	-0.135497
H61	H	2.316545	-0.727557	0.003229
H62	H	2.299204	-0.645184	-0.131998
H63	H	2.181324	-0.645256	-0.014132
H64	H	2.244651	-0.767898	-0.186409
H65	H	2.126836	-0.767877	-0.068480
H66	H	1.573523	-0.929259	-0.739094
H67	H	1.804482	-0.681583	-0.508295
O68	O	1.609483	-1.085385	-0.703359
C69	C	1.454415	-1.076688	-0.858108
C70	C	1.524932	-1.031316	-0.787605
H71	H	1.386022	-1.032994	-0.926219
H72	H	1.521300	-1.115257	-0.909166
H73	H	1.403659	-1.115412	-0.791060
H74	H	1.575691	-0.992549	-0.854570
H75	H	1.457988	-0.992798	-0.736529
O76	O	1.912311	-1.085598	-0.400917
C77	C	2.019435	-1.212757	-0.293858
C78	C	1.920993	-1.167325	-0.392132
H79	H	2.026468	-1.278841	-0.286705
H80	H	2.111240	-1.196537	-0.319979
H81	H	1.993410	-1.196519	-0.202063
H82	H	1.946902	-1.183538	-0.483962
H83	H	1.829214	-1.183549	-0.365906
