data_functionalizedCrystal
_audit_creation_method	'MofGen! by Chris Wilmer'
_symmetry_space_group_name_H-M	'P1'
_symmetry_Int_Tables_number	1
_symmetry_cell_setting	triclinic
loop_
_symmetry_equiv_pos_as_xyz
  x,y,z
_cell_length_a	16.992694
_cell_length_b	15.944551
_cell_length_c	15.455313
_cell_angle_alpha	92.664316
_cell_angle_beta	87.142206
_cell_angle_gamma	87.083481
loop_
_atom_site_label
_atom_site_type_symbol
_atom_site_fract_x
_atom_site_fract_y
_atom_site_fract_z
O1	O	1.043832	0.174669	-0.072025
O2	O	0.815548	0.172714	-0.072051
O3	O	0.935924	0.051836	-0.072029
O4	O	0.923457	0.295548	-0.072046
O5	O	0.929040	0.058718	0.072232
O6	O	0.808664	0.179596	0.072210
O7	O	1.036949	0.181551	0.072236
Cu8	Cu	0.922178	0.181202	0.085395
Cu9	Cu	0.930319	0.173063	-0.085210
O10	O	0.916573	0.302430	0.072215
C11	C	0.782894	0.173641	0.000077
C12	C	0.695850	0.166141	0.000067
C13	C	0.931964	0.023948	0.000101
C14	C	0.930413	-0.069402	0.000102
C15	C	0.645613	0.238506	0.000063
C16	C	0.563826	0.231454	0.000075
C17	C	0.532276	0.152037	0.000086
C18	C	0.582519	0.079667	0.000093
C19	C	0.664305	0.086719	0.000087
C20	C	0.288676	0.122807	0.000111
C21	C	0.206884	0.115760	0.000115
C22	C	0.188196	0.267548	0.000099
C23	C	0.269984	0.274593	0.000087
C24	C	0.320220	0.202223	0.000099
N25	N	0.448677	0.144827	0.000096
N26	N	0.403817	0.209434	0.000095
C27	C	0.852089	-0.289513	0.000081
C28	C	0.885066	-0.344697	0.071214
C29	C	0.927606	-0.240317	0.000095
C30	C	0.891871	-0.351465	-0.071016
C31	C	0.924889	-0.405412	0.000084
C32	C	0.960600	-0.294269	0.071287
C33	C	0.967397	-0.301034	-0.071007
C34	C	1.000428	-0.356196	0.000144
C35	C	0.929168	-0.145209	0.000101
C36	C	0.923332	-0.500518	0.000084
C37	C	1.069603	0.180624	0.000107
C38	C	1.156647	0.188124	0.000110
C39	C	0.920532	0.330318	0.000082
C40	C	0.922084	0.423668	0.000076
N41	N	0.916458	0.186926	0.205390
N42	N	0.936045	0.167333	-0.205204
C43	C	0.967616	0.135594	0.250793
C44	C	0.963297	0.139932	0.341600
C45	C	0.907824	0.195606	0.387002
C46	C	0.856661	0.246940	0.341593
C47	C	0.860976	0.242598	0.250787
C48	C	0.889197	0.214325	0.658581
C49	C	0.884887	0.218665	0.749392
C50	C	0.991523	0.111655	0.749393
C51	C	0.995836	0.107321	0.658586
C52	C	0.944671	0.158653	0.613185
N53	N	0.903410	0.200042	0.479822
N54	N	0.949081	0.154211	0.520367
H55	H	0.671294	0.303176	0.000054
O56	O	1.049448	0.052856	0.614585
C57	C	1.009650	-0.004301	0.562370
H58	H	0.949108	0.024651	0.548582
H59	H	1.045391	-0.018954	0.498589
H60	H	1.002269	-0.064818	0.597715
H61	H	0.862790	-0.376554	-0.131158
O62	O	0.712997	0.016337	0.000048
C63	C	0.667615	-0.055271	0.000078
H64	H	0.607874	-0.039353	-0.027231
H65	H	0.699775	-0.108310	-0.041802
H66	H	0.658499	-0.076054	0.069290
O67	O	0.802737	0.300908	0.385792
C68	C	0.751860	0.255156	0.438319
H69	H	0.782442	0.192193	0.451929
H70	H	0.736424	0.292428	0.502169
H71	H	0.695573	0.243849	0.403335
H72	H	1.033179	0.069863	0.786368
H73	H	0.839712	0.264005	0.786355
O74	O	0.995375	-0.264501	0.143049
C75	C	1.073312	-0.299325	0.143234
H76	H	1.094927	-0.319977	0.074140
H77	H	1.113221	-0.250150	0.170146
H78	H	1.074809	-0.356006	0.185564
O79	O	0.515140	0.301833	0.000031
C80	C	0.560523	0.373441	0.000037
H81	H	0.622860	0.354913	-0.027280
H82	H	0.532347	0.422482	-0.041848
H83	H	0.563059	0.400831	0.069243
H84	H	0.850256	-0.364079	0.131345
O85	O	0.839465	0.264276	0.614620
C86	C	0.789570	0.314332	0.674168
H87	H	0.818644	0.320552	0.738890
H88	H	0.778853	0.379349	0.647923
H89	H	0.730865	0.283574	0.683844
O90	O	1.075320	-0.390589	0.000243
C91	C	1.129026	-0.326036	0.000975
H92	H	1.097667	-0.264998	0.028622
H93	H	1.179983	-0.343888	0.042944
H94	H	1.152858	-0.317023	-0.068046
O95	O	1.008783	-0.277914	-0.142832
C96	C	0.972346	-0.307023	-0.217685
H97	H	0.907607	-0.317263	-0.200651
H98	H	0.976725	-0.258430	-0.269301
H99	H	1.003241	-0.368912	-0.243634
O100	O	1.021526	0.081439	0.206827
C101	C	1.065765	0.037077	0.266378
H102	H	1.030541	0.037047	0.331112
H103	H	1.078972	-0.030448	0.240155
H104	H	1.123551	0.068758	0.276023
O105	O	1.013021	0.090195	0.385804
C106	C	1.058902	0.140976	0.438300
H107	H	1.027022	0.205236	0.451891
H108	H	1.068270	0.109812	0.502162
H109	H	1.118514	0.148940	0.403299
O110	O	0.811360	0.292587	0.206719
C111	C	0.823037	0.377662	0.228904
H112	H	0.884625	0.383522	0.253857
H113	H	0.816855	0.416350	0.169179
H114	H	0.777073	0.401910	0.281614
O115	O	0.300496	0.351806	0.000121
C116	C	0.238618	0.414166	0.000098
H117	H	0.181758	0.388195	0.027416
H118	H	0.253721	0.471281	0.041975
H119	H	0.230339	0.433449	-0.069112
O120	O	0.176331	0.038559	0.000012
C121	C	0.205541	-0.009451	-0.074707
H122	H	0.263455	0.016050	-0.099619
H123	H	0.216079	-0.077837	-0.057895
H124	H	0.160708	-0.005391	-0.127027
O125	O	0.139283	0.337760	0.000133
C126	C	0.060332	0.314510	0.000119
H127	H	0.055893	0.249626	0.027435
H128	H	0.021290	0.362297	0.042002
H129	H	0.039972	0.312806	-0.069088
H130	H	0.556825	0.015004	0.000114
O131	O	0.337550	0.052562	-0.000004
C132	C	0.388958	0.048521	-0.074732
H133	H	0.394289	0.114282	-0.099643
H134	H	0.449623	0.022151	-0.057932
H135	H	0.364534	0.005862	-0.127047
O136	O	0.777288	-0.254814	0.000306
C137	C	0.734173	-0.276880	0.075427
H138	H	0.776696	-0.293363	0.127589
H139	H	0.692657	-0.221615	0.100245
H140	H	0.698304	-0.333501	0.059194
