data_functionalizedCrystal
_audit_creation_method	'MofGen! by Chris Wilmer'
_symmetry_space_group_name_H-M	'P1'
_symmetry_Int_Tables_number	1
_symmetry_cell_setting	triclinic
loop_
_symmetry_equiv_pos_as_xyz
  x,y,z
_cell_length_a	14.853567
_cell_length_b	15.500215
_cell_length_c	14.853559
_cell_angle_alpha	93.177227
_cell_angle_beta	83.633192
_cell_angle_gamma	93.176541
loop_
_atom_site_label
_atom_site_type_symbol
_atom_site_fract_x
_atom_site_fract_y
_atom_site_fract_z
O1	O	1.200101	0.071880	0.121444
O2	O	1.700101	0.571880	0.621444
O3	O	0.937642	0.071895	0.135466
O4	O	1.437642	0.571895	0.635466
O5	O	1.075886	0.071886	-0.002775
O6	O	1.575886	0.571886	0.497225
O7	O	1.061857	0.071889	0.259685
O8	O	1.561857	0.571889	0.759685
O9	O	1.068388	-0.072003	-0.010265
O10	O	1.568388	0.427997	0.489735
O11	O	0.930144	-0.071994	0.127977
O12	O	1.430144	0.428006	0.627977
O13	O	1.192603	-0.072008	0.113954
O14	O	1.692603	0.427992	0.613954
Cu15	Cu	1.060688	-0.085139	0.120282
Cu16	Cu	1.560688	0.414861	0.620282
Cu17	Cu	1.069556	0.085026	0.129139
Cu18	Cu	1.569556	0.585026	0.629139
O19	O	1.054358	-0.072000	0.252196
O20	O	1.554358	0.428000	0.752196
C21	C	0.900304	-0.000048	0.131086
C22	C	1.400304	0.499952	0.631086
C23	C	0.800221	-0.000042	0.129183
C24	C	1.300221	0.499958	0.629183
N25	N	1.054458	-0.204825	0.114051
N26	N	1.554458	0.295175	0.614051
C27	C	0.387689	-0.000062	0.039015
C28	C	0.887689	0.499938	0.539015
C29	C	0.366403	-0.000060	0.203249
C30	C	0.866403	0.499940	0.703249
C31	C	0.460437	-0.000057	0.205039
C32	C	0.960437	0.499943	0.705039
C33	C	0.518101	-0.000056	0.123816
C34	C	1.018101	0.499944	0.623816
C35	C	0.481732	-0.000057	0.040803
C36	C	0.981732	0.499943	0.540803
C37	C	0.496814	-0.000047	0.288051
C38	C	0.996814	0.499953	0.788051
C39	C	0.590853	-0.000043	0.289845
C40	C	1.090853	0.499957	0.789845
C41	C	0.648519	-0.000048	0.208621
C42	C	1.148519	0.499952	0.708621
C43	C	0.612144	-0.000050	0.125604
C44	C	1.112144	0.499950	0.625604
C45	C	0.669808	-0.000049	0.044382
C46	C	1.169808	0.499951	0.544382
C47	C	0.633435	-0.000057	-0.038636
C48	C	1.133435	0.499943	0.461364
C49	C	0.539397	-0.000062	-0.040421
C50	C	1.039397	0.499938	0.459579
C51	C	0.742556	-0.000044	0.210405
C52	C	1.242556	0.499956	0.710405
C53	C	0.763851	-0.000044	0.046170
C54	C	1.263851	0.499956	0.546170
C55	C	1.106844	-0.250100	0.166477
C56	C	1.606844	0.249900	0.666477
C57	C	1.102144	-0.340673	0.161759
C58	C	1.602144	0.159327	0.661759
C59	C	1.045053	-0.385969	0.104620
C60	C	1.545053	0.114031	0.604620
C61	C	0.992665	-0.340687	0.052189
C62	C	1.492665	0.159313	0.552189
C63	C	0.997371	-0.250116	0.056902
C64	C	1.497371	0.249884	0.556902
C65	C	1.028112	-0.659436	0.087644
C66	C	1.528112	-0.159436	0.587644
C67	C	1.023408	-0.750014	0.082937
C68	C	1.523408	-0.250014	0.582937
C69	C	1.132888	-0.749993	0.192506
C70	C	1.632888	-0.249993	0.692506
C71	C	1.137585	-0.659420	0.197218
C72	C	1.637585	-0.159420	0.697218
C73	C	1.085201	-0.614147	0.144784
C74	C	1.585201	-0.114147	0.644784
C75	C	1.040245	-0.478549	0.099799
C76	C	1.540245	0.021451	0.599799
C77	C	1.090014	-0.521568	0.149601
C78	C	1.590014	-0.021568	0.649601
C79	C	1.229941	-0.000064	0.118334
C80	C	1.729941	0.499936	0.618334
C81	C	1.330024	-0.000064	0.120238
C82	C	1.830024	0.499936	0.620238
C83	C	1.071503	-0.000056	-0.040109
C84	C	1.571503	0.499944	0.459891
C85	C	1.069602	-0.000052	-0.140193
C86	C	1.569602	0.499948	0.359807
N87	N	1.075794	0.204711	0.135362
N88	N	1.575794	0.704711	0.635362
C89	C	1.065626	0.078383	-0.559285
C90	C	1.565626	0.578383	-0.059285
C91	C	1.057451	-0.078490	-0.567445
C92	C	1.557451	0.421510	-0.067445
C93	C	1.059244	-0.078491	-0.473412
C94	C	1.559244	0.421509	0.026588
C95	C	1.064227	-0.000054	-0.422311
C96	C	1.564227	0.499946	0.077689
C97	C	1.067417	0.078384	-0.465243
C98	C	1.567417	0.578384	0.034757
C99	C	1.056045	-0.156928	-0.430472
C100	C	1.556045	0.343072	0.069528
C101	C	1.057838	-0.156932	-0.336433
C102	C	1.557838	0.343068	0.163567
C103	C	1.062827	-0.078494	-0.285331
C104	C	1.562827	0.421506	0.214669
C105	C	1.066018	-0.000052	-0.328268
C106	C	1.566018	0.499948	0.171732
C107	C	1.071001	0.078385	-0.277167
C108	C	1.571001	0.578385	0.222833
C109	C	1.074198	0.156827	-0.320104
C110	C	1.574198	0.656827	0.179896
C111	C	1.072406	0.156823	-0.414140
C112	C	1.572406	0.656823	0.085860
C113	C	1.064619	-0.078489	-0.191294
C114	C	1.564619	0.421511	0.308706
C115	C	1.072792	0.078387	-0.183125
C116	C	1.572792	0.578387	0.316875
C117	C	1.058742	-0.000055	0.289529
C118	C	1.558742	0.499945	0.789529
C119	C	1.060643	-0.000055	0.389614
C120	C	1.560643	0.499945	0.889614
H121	H	0.810796	-0.000046	-0.019973
H122	H	1.310796	0.499954	0.480027
H123	H	1.076854	0.142261	-0.141525
H124	H	1.576854	0.642261	0.358475
H125	H	1.075008	0.220686	-0.449108
H126	H	1.575008	0.720686	0.050892
N127	N	1.079277	0.236940	-0.267886
N128	N	1.579277	0.736940	0.232114
N129	N	1.080865	0.236921	-0.183925
N130	N	1.580865	0.736921	0.316075
H131	H	1.084450	0.293498	-0.147041
H132	H	1.584450	0.793498	0.352959
H133	H	1.144803	-0.377532	0.204448
H134	H	1.644803	0.122468	0.704448
N135	N	0.628017	-0.000055	0.374632
N136	N	1.128017	0.499945	0.874632
N137	N	0.711979	-0.000062	0.376219
N138	N	1.211979	0.499938	0.876219
H139	H	0.738229	-0.000075	0.436100
H140	H	1.238229	0.499925	0.936100
H141	H	1.184077	-0.622547	0.243744
H142	H	1.684077	-0.122547	0.743744
H143	H	1.175537	-0.786865	0.235195
H144	H	1.675537	-0.286865	0.735195
H145	H	1.068232	0.142249	-0.594249
H146	H	1.568232	0.642249	-0.094249
N147	N	1.165165	-0.203822	0.224831
N148	N	1.665165	0.296178	0.724831
N149	N	1.169363	-0.122956	0.229032
N150	N	1.669363	0.377044	0.729032
H151	H	1.210556	-0.090273	0.270243
H152	H	1.710556	0.409727	0.770243
H153	H	0.976913	-0.786891	0.036408
H154	H	1.476913	-0.286891	0.536408
H155	H	0.985457	-0.622585	0.044947
H156	H	1.485457	-0.122585	0.544947
N157	N	1.054561	-0.237055	-0.292578
N158	N	1.554561	0.262945	0.207422
N159	N	0.988124	-0.289569	-0.297576
N160	N	1.488124	0.210431	0.202424
H161	H	0.985811	-0.346157	-0.266603
H162	H	1.485811	0.153843	0.233397
H163	H	0.680398	-0.000050	-0.104767
H164	H	1.180398	0.499950	0.395233
H165	H	0.946185	-0.377574	0.005661
H166	H	1.446185	0.122426	0.505661
N167	N	0.779697	-0.000045	0.295202
N168	N	1.279697	0.499955	0.795202
N169	N	0.758908	-0.060695	0.346830
N170	N	1.258908	0.439305	0.846830
H171	H	0.785136	-0.060699	0.406723
H172	H	1.285136	0.439301	0.906723
H173	H	0.954712	-0.213253	0.014212
H174	H	1.454712	0.286747	0.514212
N175	N	1.148343	-0.475300	0.207947
N176	N	1.648343	0.024700	0.707947
N177	N	1.210527	-0.424757	0.175472
N178	N	1.710527	0.075243	0.675472
H179	H	1.251723	-0.392071	0.216679
H180	H	1.751723	0.107929	0.716679
H181	H	0.319448	-0.000054	0.269377
H182	H	0.819448	0.499946	0.769377
H183	H	0.993761	-0.515439	0.053277
H184	H	1.493761	-0.015439	0.553277
H185	H	1.053388	-0.142350	-0.609057
H186	H	1.553388	0.357650	-0.109057
H187	H	1.051984	-0.220787	-0.472085
H188	H	1.551984	0.279213	0.027915
N189	N	1.061332	-0.158604	-0.147430
N190	N	1.561332	0.341396	0.352570
N191	N	0.994887	-0.211110	-0.152427
N192	N	1.494887	0.288890	0.347573
H193	H	0.992564	-0.267695	-0.121447
H194	H	1.492564	0.232305	0.378553
N195	N	0.502228	-0.000070	-0.125206
N196	N	1.002228	0.499930	0.374794
N197	N	0.418264	-0.000070	-0.126787
N198	N	0.918264	0.499930	0.373213
H199	H	0.392009	-0.000073	-0.186666
H200	H	0.892009	0.499927	0.313334
H201	H	0.358069	-0.000073	-0.028576
H202	H	0.858069	0.499927	0.471424
N203	N	0.437902	-0.000022	0.371006
N204	N	0.937902	0.499978	0.871006
N205	N	0.353943	-0.000018	0.369394
N206	N	0.853943	0.499982	0.869394
H207	H	0.312331	0.000006	0.427984
H208	H	0.812331	0.500006	0.927984
