data_functionalizedCrystal
_audit_creation_method	'MofGen! by Chris Wilmer'
_symmetry_space_group_name_H-M	'P1'
_symmetry_Int_Tables_number	1
_symmetry_cell_setting	triclinic
loop_
_symmetry_equiv_pos_as_xyz
  x,y,z
_cell_length_a	12.837942
_cell_length_b	10.654562
_cell_length_c	9.130313
_cell_angle_alpha	90.003070
_cell_angle_beta	90.001025
_cell_angle_gamma	89.659522
loop_
_atom_site_label
_atom_site_type_symbol
_atom_site_fract_x
_atom_site_fract_y
_atom_site_fract_z
O1	O	0.145782	1.683733	0.121896
O2	O	0.159651	1.319770	0.121878
O3	O	0.001755	1.493681	0.121877
O4	O	0.303678	1.509822	0.121896
O5	O	0.001760	1.493679	-0.121721
O6	O	0.159656	1.319768	-0.121721
O7	O	0.145786	1.683731	-0.121703
Cu8	Cu	0.152721	1.501750	-0.143954
Cu9	Cu	0.152716	1.501752	0.144129
O10	O	0.303682	1.509820	-0.121703
C11	C	0.158632	1.272860	0.000076
C12	C	0.155577	1.133084	0.000069
C13	C	0.154155	1.067397	-0.132706
C14	C	0.151292	0.936062	-0.132681
C15	C	0.151280	0.936114	0.132904
C16	C	0.154135	1.067446	0.132878
C17	C	0.154166	1.067366	-0.286039
C18	C	0.151304	0.936031	-0.286015
C19	C	-0.036902	1.488227	0.000079
C20	C	-0.152097	1.471965	0.000080
C21	C	-0.391643	1.667469	0.000121
C22	C	-0.499879	1.652195	0.000122
C23	C	-0.476808	1.426144	0.000096
C24	C	-0.368572	1.441418	0.000094
C25	C	-0.325993	1.562084	0.000104
C26	C	-0.217755	1.577357	0.000092
C27	C	-0.194686	1.351307	0.000076
C28	C	-0.302922	1.336033	0.000078
C29	C	0.342340	1.515274	0.000100
C30	C	0.457534	1.531536	0.000108
C31	C	0.146805	1.730641	0.000102
C32	C	0.149860	1.870417	0.000119
N33	N	0.152724	1.501757	-0.346577
C34	C	0.082832	1.578789	-0.423229
C35	C	0.082819	1.578785	-0.576566
C36	C	0.222601	1.424712	-0.576585
C37	C	0.222607	1.424711	-0.423251
C38	C	0.002133	1.667746	-0.423219
C39	C	0.002120	1.667741	-0.576556
N40	N	0.152705	1.501753	0.346752
H41	H	0.150105	0.882655	0.241032
H42	H	0.229834	1.105197	-0.333611
H43	H	-0.356975	1.765720	0.000115
C44	C	-0.014993	0.985316	-0.392484
C45	C	0.049168	0.884927	-0.350263
H46	H	-0.078043	0.953761	-0.432152
H47	H	-0.030131	1.036105	-0.309587
H48	H	0.019679	1.034152	-0.464366
H49	H	0.014499	0.836097	-0.278373
H50	H	0.064304	0.834117	-0.433170
H51	H	0.279510	1.361974	-0.360842
H52	H	0.279497	1.361983	-0.639030
C53	C	0.309681	0.983957	-0.413647
C54	C	0.248104	0.884096	-0.365451
H55	H	0.369442	0.951892	-0.462675
H56	H	0.270499	1.035004	-0.479047
H57	H	0.330878	1.032689	-0.331896
H58	H	0.226901	0.835369	-0.447204
H59	H	0.287294	0.833029	-0.300048
H60	H	0.082466	1.105801	-0.344927
H61	H	-0.511495	1.327902	0.000103
C62	C	-0.511806	1.877169	0.000137
C63	C	-0.572042	1.768037	0.000131
H64	H	-0.556360	1.948686	0.000136
H65	H	-0.469112	1.878422	0.085080
H66	H	-0.469109	1.878418	-0.084817
H67	H	-0.614734	1.766783	0.085092
H68	H	-0.614754	1.766784	-0.084820
C69	C	-0.251435	1.799263	0.000147
C70	C	-0.170949	1.709991	0.000118
H71	H	-0.222539	1.881146	0.000177
H72	H	-0.293169	1.788616	-0.084799
H73	H	-0.293171	1.788581	0.085098
H74	H	-0.129218	1.720667	-0.084839
H75	H	-0.129197	1.720643	0.085073
C76	C	-0.148949	1.723264	-0.281808
C77	C	-0.105509	1.627032	-0.367018
H78	H	-0.215401	1.698124	-0.247118
H79	H	-0.104640	1.740013	-0.200911
H80	H	-0.156282	1.796913	-0.339620
H81	H	-0.098169	1.553385	-0.309203
H82	H	-0.149829	1.610267	-0.447927
C83	C	-0.458598	1.212246	0.000059
C84	C	-0.349731	1.203401	0.000056
H85	H	-0.487491	1.130362	0.000033
H86	H	-0.481065	1.256164	0.085013
H87	H	-0.481068	1.256195	-0.084884
H88	H	-0.327260	1.159460	0.085006
H89	H	-0.327255	1.159465	-0.084906
H90	H	-0.141222	1.265495	0.000051
H91	H	0.027405	1.761687	-0.375655
H92	H	-0.073240	1.629005	-0.624110
H93	H	0.155277	1.120924	0.240995
C94	C	-0.057281	1.844191	-0.717927
C95	C	0.026120	1.800639	-0.632749
H96	H	-0.042465	1.926235	-0.752610
H97	H	-0.067162	1.789494	-0.798829
H98	H	-0.118776	1.846398	-0.660097
H99	H	0.087614	1.798423	-0.690582
H100	H	0.036014	1.855350	-0.551835
