data_functionalizedCrystal
_audit_creation_method	'MofGen! by Chris Wilmer'
_symmetry_space_group_name_H-M	'P1'
_symmetry_Int_Tables_number	1
_symmetry_cell_setting	triclinic
loop_
_symmetry_equiv_pos_as_xyz
  x,y,z
_cell_length_a	12.759401
_cell_length_b	13.031981
_cell_length_c	12.759393
_cell_angle_alpha	82.784016
_cell_angle_beta	89.979541
_cell_angle_gamma	97.193318
loop_
_atom_site_label
_atom_site_type_symbol
_atom_site_fract_x
_atom_site_fract_y
_atom_site_fract_z
Zn1	Zn	1.553154	-0.416031	-0.540845
Zn2	Zn	1.530731	-0.590842	-0.342822
Zn3	Zn	1.377447	-0.416084	-0.365173
Zn4	Zn	1.355138	-0.590770	-0.518468
O5	O	1.454117	-0.503432	-0.441827
O6	O	1.697199	-0.439227	-0.514587
O7	O	1.510350	-0.567712	-0.198759
O8	O	1.419475	-0.269812	-0.407196
O9	O	1.680725	-0.567660	-0.369101
O10	O	1.548566	-0.269772	-0.536261
O11	O	1.397733	-0.439318	-0.215181
O12	O	1.227468	-0.439250	-0.385498
O13	O	1.381453	-0.567539	-0.668464
O14	O	1.211077	-0.567591	-0.498123
O15	O	1.526934	-0.439158	-0.684905
O16	O	1.488718	-0.737098	-0.347402
O17	O	1.359711	-0.737046	-0.476449
C18	C	1.181152	-0.503419	-0.441808
C19	C	1.064372	-0.503439	-0.441821
C20	C	1.419389	-0.774997	-0.407095
C21	C	1.404628	-0.891173	-0.392272
C22	C	1.000991	-0.570368	-0.500346
C23	C	0.891266	-0.570372	-0.500367
C24	C	0.908315	-0.436515	-0.383328
C25	C	1.018038	-0.436506	-0.383315
C26	C	1.461877	-0.942866	-0.449584
C27	C	1.446622	-1.062940	-0.434265
C28	C	1.728149	-0.503445	-0.441847
C29	C	1.844925	-0.503451	-0.441855
C30	C	1.454206	-0.503334	-0.715873
C31	C	1.454244	-0.503293	-0.832655
C32	C	1.489010	-0.230806	-0.476718
C33	C	1.503880	-0.114630	-0.491586
C34	C	1.512921	-0.570070	-0.988712
C35	C	1.512889	-0.570119	-0.878981
C36	C	1.395618	-0.436421	-0.896065
C37	C	1.395645	-0.436377	-1.005792
C38	C	1.454099	-0.503453	-0.168857
C39	C	1.454302	-0.503200	-0.052113
H40	H	1.038712	-0.624866	-0.547989
O41	O	0.822909	-0.642561	-0.563493
H42	H	0.738827	-0.631317	-0.553687
O43	O	1.541765	-0.883743	-0.529602
H44	H	1.581378	-0.939874	-0.569259
H45	H	0.870576	-0.382023	-0.335692
H46	H	1.347905	-0.381923	-1.057416
O47	O	1.332362	-0.364343	-0.846102
H48	H	1.360884	-0.282305	-0.877672
O49	O	1.576177	-0.642145	-1.038677
H50	H	1.522356	-0.695290	-1.081866
H51	H	1.344316	-0.935812	-0.331868
O52	O	1.583791	-1.055513	-0.571591
H53	H	1.623408	-1.111647	-0.611240
O54	O	1.086400	-0.364325	-0.320168
H55	H	1.075832	-0.282313	-0.348800
O56	O	1.576130	-0.642227	-0.810596
H57	H	1.616930	-0.688674	-0.861246
O58	O	1.366740	-1.122050	-0.354227
H59	H	1.367304	-1.207085	-0.354744
