data_functionalizedCrystal
_audit_creation_method	'MofGen! by Chris Wilmer'
_symmetry_space_group_name_H-M	'P1'
_symmetry_Int_Tables_number	1
_symmetry_cell_setting	triclinic
loop_
_symmetry_equiv_pos_as_xyz
  x,y,z
_cell_length_a	8.597340
_cell_length_b	8.597304
_cell_length_c	8.140239
_cell_angle_alpha	82.296592
_cell_angle_beta	97.699378
_cell_angle_gamma	86.359595
loop_
_atom_site_label
_atom_site_type_symbol
_atom_site_fract_x
_atom_site_fract_y
_atom_site_fract_z
O1	O	2.086000	0.234303	0.125499
O2	O	1.629348	0.252277	0.058314
O3	O	1.866661	0.014961	0.125500
O4	O	1.848687	0.471619	0.058313
O5	O	1.866648	0.014958	0.398725
O6	O	1.629335	0.252274	0.331540
O7	O	2.085987	0.234300	0.398725
Zn8	Zn	1.857659	0.243286	0.408513
Zn9	Zn	1.857676	0.243290	0.048526
O10	O	1.848674	0.471616	0.331539
C11	C	1.570841	0.250345	0.186919
C12	C	1.396528	0.244574	0.163061
C13	C	1.864724	-0.043542	0.270117
C14	C	1.858953	-0.217857	0.293965
C15	C	2.144494	0.236232	0.270116
C16	C	2.318806	0.242002	0.293963
C17	C	1.850611	0.530118	0.186918
C18	C	1.856382	0.704434	0.163059
N19	N	1.857658	0.243283	0.654196
N20	N	1.857689	0.243281	-0.197153
H21	H	1.329707	0.242361	0.032724
H22	H	1.858592	-0.228740	0.032730
O23	O	1.398465	0.244354	0.449529
C24	C	1.464474	0.110423	0.732412
C25	C	1.374204	0.107543	0.556300
H26	H	1.444864	-0.000160	0.818795
H27	H	1.595603	0.114657	0.724723
H28	H	1.419691	0.218982	0.784126
H29	H	1.418854	-0.001002	0.504484
H30	H	1.243088	0.103392	0.564096
H31	H	1.856720	-0.284689	0.424299
