data_functionalizedCrystal
_audit_creation_method	'MofGen! by Chris Wilmer'
_symmetry_space_group_name_H-M	'P1'
_symmetry_Int_Tables_number	1
_symmetry_cell_setting	triclinic
loop_
_symmetry_equiv_pos_as_xyz
  x,y,z
_cell_length_a	6.817900
_cell_length_b	16.418049
_cell_length_c	18.024673
_cell_angle_alpha	84.483297
_cell_angle_beta	76.961240
_cell_angle_gamma	103.389670
loop_
_atom_site_label
_atom_site_type_symbol
_atom_site_fract_x
_atom_site_fract_y
_atom_site_fract_z
V1	V	-4.021204	-0.116667	0.237818
O2	O	-4.009300	0.004803	0.233015
O3	O	-3.972300	-0.230559	0.236457
O4	O	-3.970588	-0.115225	0.341417
O5	O	-4.011023	-0.111329	0.127328
V6	V	-4.505184	-0.102096	0.224570
O7	O	-4.281459	-0.148630	0.266878
O8	O	-4.695126	-0.070134	0.195510
O9	O	-4.330881	0.011796	0.225931
O10	O	-4.634485	-0.223567	0.229373
O11	O	-4.632761	-0.107434	0.335060
O12	O	-4.332593	-0.103539	0.120971
C13	C	-3.817250	-0.258313	0.232774
C14	C	-3.858537	-0.351423	0.232352
C15	C	-3.815065	-0.111191	0.366660
C16	C	-3.854962	-0.110766	0.451355
C17	C	-4.135509	-0.569922	0.235206
C18	C	-4.174291	-0.657410	0.234816
C19	C	-3.810237	-0.648841	0.227187
C20	C	-3.771460	-0.561355	0.227583
C21	C	-3.934101	-0.521898	0.231588
C22	C	-4.011660	-0.696871	0.230803
C23	C	-4.053708	-0.791729	0.230380
C24	C	-3.892052	-0.427034	0.232013
C25	C	-4.055716	-0.114763	0.495036
C26	C	-4.093191	-0.114362	0.574616
C27	C	-3.929912	-0.109971	0.610514
C28	C	-3.729140	-0.105971	0.566827
C29	C	-3.691664	-0.106365	0.487248
C30	C	-3.880269	-0.104379	0.887759
C31	C	-3.917762	-0.103987	0.967344
C32	C	-4.281795	-0.112376	0.975127
C33	C	-4.244320	-0.112770	0.895548
C34	C	-4.043550	-0.108766	0.851867
C35	C	-4.002917	-0.109198	0.765578
C36	C	-3.970545	-0.109544	0.696802
C37	C	-4.158421	-0.107570	1.095723
C38	C	-4.118516	-0.107978	1.011026
C39	C	-4.149273	0.039545	0.229612
C40	C	-4.087224	0.132654	0.230039
H41	H	-4.338294	-0.696508	0.237763
N42	N	-4.310935	-0.527370	0.239538
H43	H	-4.329266	-0.499553	0.287340
H44	H	-4.276547	-0.483015	0.192371
H45	H	-3.677825	-0.680978	0.223925
H46	H	-3.716810	-0.101148	0.852208
N47	N	-3.741667	-0.099244	1.006077
H48	H	-3.776091	-0.151085	1.046436
H49	H	-3.608850	-0.096736	0.966290
N50	N	-4.231841	-0.119495	0.456328
H51	H	-4.197433	-0.067657	0.415967
H52	H	-4.251315	-0.172064	0.431048
N53	N	-3.475129	-0.102049	0.440135
H54	H	-3.429035	-0.152334	0.459796
H55	H	-3.476313	-0.102933	0.384287
H56	H	-3.607444	-0.522253	0.224640
H57	H	-4.256659	-0.117612	0.610177
H58	H	-4.377285	-0.116351	0.866325
H59	H	-4.445274	-0.115633	1.010701
H60	H	-3.596195	-0.102390	0.596060
