data_functionalizedCrystal
_audit_creation_method	'MofGen! by Chris Wilmer'
_symmetry_space_group_name_H-M	'P1'
_symmetry_Int_Tables_number	1
_symmetry_cell_setting	triclinic
loop_
_symmetry_equiv_pos_as_xyz
  x,y,z
_cell_length_a	14.519731
_cell_length_b	10.489716
_cell_length_c	12.996460
_cell_angle_alpha	89.997908
_cell_angle_beta	89.994327
_cell_angle_gamma	84.108994
loop_
_atom_site_label
_atom_site_type_symbol
_atom_site_fract_x
_atom_site_fract_y
_atom_site_fract_z
O1	O	1.224758	0.167335	-0.085560
O2	O	1.724758	0.667335	0.414440
O3	O	0.956389	0.186997	-0.085560
O4	O	1.456389	0.686997	0.414440
O5	O	1.096692	-0.008497	-0.085564
O6	O	1.596692	0.491503	0.414436
O7	O	1.084455	0.362829	-0.085556
O8	O	1.584455	0.862829	0.414444
O9	O	1.096677	-0.008508	0.085570
O10	O	1.596677	0.491492	0.585570
O11	O	0.956375	0.186986	0.085574
O12	O	1.456375	0.686986	0.585574
O13	O	1.224743	0.167324	0.085574
O14	O	1.724743	0.667324	0.585574
Cu15	Cu	1.090557	0.177154	0.101200
Cu16	Cu	1.590557	0.677154	0.601200
Cu17	Cu	1.090575	0.177167	-0.101186
Cu18	Cu	1.590575	0.677167	0.398814
O19	O	1.084440	0.362818	0.085578
O20	O	1.584440	0.862818	0.585578
C21	C	0.922018	0.186070	0.000007
C22	C	1.422018	0.686070	0.500007
C23	C	0.819623	0.183310	0.000006
C24	C	1.319623	0.683310	0.500006
C25	C	0.736466	0.181066	0.000002
C26	C	1.236466	0.681066	0.500002
C27	C	0.632142	0.178264	0.000001
C28	C	1.132142	0.678264	0.500001
C29	C	0.548991	0.176039	0.000001
C30	C	1.048991	0.676039	0.500001
C31	C	0.444661	0.173236	-0.000001
C32	C	0.944661	0.673236	0.499999
C33	C	1.095765	-0.056025	0.000000
C34	C	1.595765	0.443975	0.500000
C35	C	1.093014	-0.197628	-0.000009
C36	C	1.593014	0.302372	0.499991
C37	C	1.179052	-0.296189	0.000000
C38	C	1.679052	0.203811	0.500000
C39	C	1.133595	-0.373075	-0.084375
C40	C	1.633595	0.126925	0.415625
C41	C	1.133561	-0.373050	0.084350
C42	C	1.633561	0.126950	0.584350
C43	C	1.047593	-0.272649	-0.084454
C44	C	1.547593	0.227351	0.415546
C45	C	1.047571	-0.272618	0.084346
C46	C	1.547571	0.227382	0.584346
C47	C	1.002051	-0.349454	-0.000050
C48	C	1.502051	0.150546	0.499950
C49	C	1.259115	0.168251	0.000005
C50	C	1.759115	0.668251	0.500005
C51	C	1.361510	0.171012	-0.000001
C52	C	1.861510	0.671012	0.499999
C53	C	1.085367	0.410346	0.000012
C54	C	1.585367	0.910346	0.500012
C55	C	1.088118	0.551949	0.000014
C56	C	1.588118	1.051949	0.500014
N57	N	1.090552	0.177144	0.243547
N58	N	1.590552	0.677144	0.743547
N59	N	1.090588	0.177167	-0.243533
N60	N	1.590588	0.677167	0.256467
C61	C	1.090574	0.177168	0.663361
C62	C	1.590574	0.677168	1.163361
C63	C	1.090565	0.177166	0.546556
C64	C	1.590565	0.677166	1.046556
C65	C	1.090563	0.177157	0.453458
C66	C	1.590563	0.677157	0.953458
C67	C	1.090554	0.177153	0.336645
C68	C	1.590554	0.677153	0.836645
H69	H	1.253891	-0.272285	-0.000085
H70	H	1.753891	0.227715	0.499915
N71	N	1.181677	-0.431136	0.178839
N72	N	1.681677	0.068864	0.678839
H73	H	1.248488	-0.412194	0.178758
H74	H	1.748488	0.087806	0.678758
H75	H	1.149798	-0.393150	0.242517
H76	H	1.649798	0.106850	0.742517
N77	N	1.181706	-0.431200	-0.178861
N78	N	1.681706	0.068800	0.321139
H79	H	1.149901	-0.393253	-0.242593
H80	H	1.649901	0.106747	0.257407
H81	H	1.248514	-0.412258	-0.178707
H82	H	1.748514	0.087742	0.321293
N83	N	0.999513	-0.214801	-0.179048
N84	N	1.499513	0.285199	0.320952
H85	H	1.001714	-0.118879	-0.178488
H86	H	1.501714	0.381121	0.321512
H87	H	1.031774	-0.252358	-0.242653
H88	H	1.531774	0.247642	0.257347
H89	H	0.927156	-0.373112	-0.000095
H90	H	1.427156	0.126888	0.499905
H91	H	1.011277	-0.228730	0.155683
H92	H	1.511277	0.271270	0.655683
