data_functionalizedCrystal
_audit_creation_method	'MofGen! by Chris Wilmer'
_symmetry_space_group_name_H-M	'P1'
_symmetry_Int_Tables_number	1
_symmetry_cell_setting	triclinic
loop_
_symmetry_equiv_pos_as_xyz
  x,y,z
_cell_length_a	14.908979
_cell_length_b	12.759394
_cell_length_c	14.908694
_cell_angle_alpha	93.271327
_cell_angle_beta	89.788511
_cell_angle_gamma	93.315362
loop_
_atom_site_label
_atom_site_type_symbol
_atom_site_fract_x
_atom_site_fract_y
_atom_site_fract_z
Zn1	Zn	1.403976	-0.352654	-0.429193
Zn2	Zn	1.395219	-0.518847	-0.278848
Zn3	Zn	1.244943	-0.353872	-0.287516
Zn4	Zn	1.253601	-0.538986	-0.437822
O5	O	1.324435	-0.441090	-0.358345
O6	O	1.528638	-0.365762	-0.402010
O7	O	1.367996	-0.489044	-0.154175
O8	O	1.266080	-0.206688	-0.306326
O9	O	1.522204	-0.487862	-0.291553
O10	O	1.382921	-0.205793	-0.410415
O11	O	1.257589	-0.367838	-0.160543
O12	O	1.120268	-0.387367	-0.314693
O13	O	1.280837	-0.522187	-0.562500
O14	O	1.126629	-0.523369	-0.425122
O15	O	1.391317	-0.385290	-0.556161
O16	O	1.376392	-0.668541	-0.299920
O17	O	1.272346	-0.683337	-0.416717
C18	C	1.324384	-0.714060	-0.358333
C19	C	1.324446	-0.830834	-0.358353
C20	C	1.090824	-0.457686	-0.371785
C21	C	0.990885	-0.464813	-0.377556
C22	C	0.853356	-0.545762	-0.443081
C23	C	0.947258	-0.539067	-0.437666
C24	C	0.940604	-0.397251	-0.322854
C25	C	0.846702	-0.403946	-0.328269
C26	C	0.803082	-0.478203	-0.388386
C27	C	0.709179	-0.484892	-0.393804
C28	C	0.702527	-0.343082	-0.278988
C29	C	0.796428	-0.336387	-0.273574
C30	C	1.446032	-0.829755	-0.466832
C31	C	1.506853	-0.884075	-0.521077
C32	C	1.506907	-0.993794	-0.521094
C33	C	1.446132	-1.049196	-0.466861
C34	C	1.385311	-0.994876	-0.412616
C35	C	1.385265	-0.885154	-0.412604
C36	C	1.263723	-0.995955	-0.304143
C37	C	1.263671	-0.886236	-0.304120
C38	C	1.202948	-1.051357	-0.249910
C39	C	1.142129	-0.997037	-0.195660
C40	C	1.142078	-0.887311	-0.195645
C41	C	1.202850	-0.831916	-0.249876
C42	C	1.558958	-0.424430	-0.344852
C43	C	1.658898	-0.417330	-0.339103
C44	C	1.338019	-0.455849	-0.592867
C45	C	1.343808	-0.462139	-0.692807
C46	C	1.324511	-0.167053	-0.358375
C47	C	1.324544	-0.050275	-0.358388
C48	C	1.239698	-0.347751	-0.887238
C49	C	1.245134	-0.353657	-0.981140
C50	C	1.360112	-0.479864	-0.974516
C51	C	1.354675	-0.473957	-0.880613
C52	C	1.294468	-0.407897	-0.836978
C53	C	1.289037	-0.401986	-0.743073
C54	C	1.404009	-0.528197	-0.736451
C55	C	1.409445	-0.534104	-0.830353
C56	C	1.310955	-0.426308	-0.124731
C57	C	1.305340	-0.419710	-0.024782
H58	H	0.817840	-0.606216	-0.492038
H59	H	1.202817	-0.742576	-0.249865
C60	C	1.161985	-0.389352	-0.644423
C61	C	1.222857	-0.329380	-0.695103
H62	H	1.121130	-0.344526	-0.614806
H63	H	1.129706	-0.439869	-0.683029
H64	H	1.193838	-0.424321	-0.601052
H65	H	1.191004	-0.294417	-0.738478
H66	H	1.255138	-0.278844	-0.656493
H67	H	1.092546	-0.843090	-0.151476
C68	C	1.126594	-0.223594	-0.903213
C69	C	1.173519	-0.275143	-0.839267
H70	H	1.085733	-0.178775	-0.873597
H71	H	1.167898	-0.182924	-0.937585
H72	H	1.094312	-0.274128	-0.941817
H73	H	1.205806	-0.224609	-0.800668
H74	H	1.132209	-0.315815	-0.804880
H75	H	1.409118	-0.533661	-1.010061
H76	H	1.448609	-0.577169	-0.695519
C77	C	1.094155	-0.591773	-0.480345
C78	C	1.002522	-0.613326	-0.497791
H79	H	1.128270	-0.637626	-0.517462
H80	H	1.110314	-0.520952	-0.492721
H81	H	1.106025	-0.602143	-0.419022
H82	H	0.990650	-0.602949	-0.559114
H83	H	0.986357	-0.684164	-0.485422
H84	H	1.200535	-0.304680	-1.022058
C85	C	0.589947	-0.328220	-0.164113
C86	C	0.647281	-0.268832	-0.218824
H87	H	0.555851	-0.282383	-0.126960
H88	H	0.550515	-0.373369	-0.200688
H89	H	0.624596	-0.369170	-0.127574
H90	H	0.612632	-0.227887	-0.255368
H91	H	0.686718	-0.223665	-0.182245
C92	C	1.468832	-0.599196	-0.971359
C93	C	1.475625	-0.606711	-0.878323
H94	H	1.509695	-0.644017	-1.000969
H95	H	1.409314	-0.619841	-0.990213
H96	H	1.482896	-0.528633	-0.985989
H97	H	1.461554	-0.677273	-0.863691
H98	H	1.535156	-0.586072	-0.859462
H99	H	0.673665	-0.545352	-0.442757
H100	H	0.831957	-0.275932	-0.224626
C101	C	1.039197	-0.367331	-0.195850
C102	C	0.988572	-0.315644	-0.256776
H103	H	1.068816	-0.316950	-0.155061
H104	H	1.000553	-0.413470	-0.163506
H105	H	1.082565	-0.406614	-0.227668
H106	H	0.945198	-0.276367	-0.224959
H107	H	1.027219	-0.269486	-0.289124
C108	C	1.512161	-0.671993	-0.525866
C109	C	1.445976	-0.709150	-0.466813
H110	H	1.512122	-0.597537	-0.525857
H111	H	1.569298	-0.691663	-0.507018
H112	H	1.499937	-0.701570	-0.584776
H113	H	1.458203	-0.679579	-0.407901
H114	H	1.388826	-0.689470	-0.485656
H115	H	1.556425	-1.038022	-0.565274
C116	C	1.559341	-0.856660	-0.670845
C117	C	1.573650	-0.823171	-0.580691
H118	H	1.600573	-0.819057	-0.707648
H119	H	1.568083	-0.929768	-0.678611
H120	H	1.499666	-0.843849	-0.687419
H121	H	1.633323	-0.835989	-0.564114
H122	H	1.564915	-0.750046	-0.572919
C123	C	1.021933	-0.987090	-0.088435
C124	C	1.075328	-1.057934	-0.136056
H125	H	0.980689	-1.024690	-0.051642
H126	H	1.059123	-0.939331	-0.051806
H127	H	0.989763	-0.949214	-0.129565
H128	H	1.107503	-1.095804	-0.094925
H129	H	1.038133	-1.105711	-0.172688
H130	H	1.446175	-1.138536	-0.466887
C131	C	1.185007	-1.215539	-0.336771
C132	C	1.203009	-1.171962	-0.249927
H133	H	1.185051	-1.289995	-0.336777
H134	H	1.127863	-1.195876	-0.355606
H135	H	1.229909	-1.190311	-0.376824
H136	H	1.158103	-1.197184	-0.209875
H137	H	1.260161	-1.191635	-0.231081
