data_functionalizedCrystal
_audit_creation_method	'MofGen! by Chris Wilmer'
_symmetry_space_group_name_H-M	'P1'
_symmetry_Int_Tables_number	1
_symmetry_cell_setting	triclinic
loop_
_symmetry_equiv_pos_as_xyz
  x,y,z
_cell_length_a	15.072220
_cell_length_b	15.995300
_cell_length_c	15.995350
_cell_angle_alpha	96.517909
_cell_angle_beta	90.001101
_cell_angle_gamma	90.006066
loop_
_atom_site_label
_atom_site_type_symbol
_atom_site_fract_x
_atom_site_fract_y
_atom_site_fract_z
O1	O	0.073646	1.111022	-0.107720
O2	O	0.073676	0.867241	-0.121092
O3	O	0.073659	0.995796	0.007483
O4	O	0.073662	0.982468	-0.236295
O5	O	-0.073906	0.995764	0.007476
O6	O	-0.073889	0.867209	-0.121099
O7	O	-0.073920	1.110990	-0.107727
Zn8	Zn	-0.097334	0.989095	-0.114414
Zn9	Zn	0.097090	0.989137	-0.114405
O10	O	-0.073903	0.982436	-0.236302
C11	C	-0.000103	0.836030	-0.120550
C12	C	-0.000091	0.743077	-0.118915
N13	N	-0.230022	0.989072	-0.114420
C14	C	-0.000122	0.995229	0.038674
C15	C	-0.000116	0.993577	0.131624
C16	C	-0.589224	0.989135	-0.114402
C17	C	-0.551608	0.920117	-0.182969
C18	C	-0.448782	0.920275	-0.183219
C19	C	-0.411020	0.989103	-0.114411
C20	C	-0.448322	1.076470	-0.133477
C21	C	-0.551180	1.076083	-0.133964
C22	C	-0.551323	0.971565	-0.026565
C23	C	-0.448459	0.969560	-0.027152
C24	C	-0.310306	0.989091	-0.114415
C25	C	-0.689937	0.989153	-0.114400
N26	N	0.229779	0.989166	-0.114392
C27	C	-0.000139	1.142202	-0.108269
C28	C	-0.000145	1.235154	-0.109904
C29	C	-0.000126	1.405337	-0.112924
C30	C	-0.000128	1.452803	-0.021376
C31	C	0.000216	1.549491	-0.023046
C32	C	-0.000109	1.572894	-0.115896
C33	C	0.083990	1.531767	-0.161311
C34	C	0.084052	1.435134	-0.158995
C35	C	-0.083763	1.434843	-0.160359
C36	C	-0.084860	1.531787	-0.160351
C37	C	-0.000097	1.667589	-0.117580
C38	C	-0.000133	1.310642	-0.111242
C39	C	-0.000120	0.983003	-0.267493
C40	C	-0.000119	0.984655	-0.360443
C41	C	-0.000119	0.987644	0.469370
C42	C	0.000224	0.896090	0.421920
C43	C	-0.000109	0.897743	0.325230
C44	C	-0.000117	0.990587	0.301810
C45	C	-0.084388	1.035727	0.342892
C46	C	-0.084458	1.033427	0.439527
C47	C	0.083351	1.035354	0.439894
C48	C	0.084464	1.035333	0.342948
C49	C	-0.000119	0.992255	0.207113
C50	C	-0.000123	0.985979	0.564068
H51	H	-0.423563	0.855334	-0.171862
H52	H	0.060093	1.433205	0.014867
N53	N	0.076278	1.584438	0.021547
N54	N	0.086406	1.575179	0.097510
H55	H	0.140129	1.599859	0.129007
H56	H	0.147155	1.416819	-0.126258
H57	H	-0.424079	0.905292	-0.012682
H58	H	-0.088287	1.100643	0.471787
H59	H	-0.084575	1.403059	-0.227854
H60	H	-0.059864	0.859647	0.441504
H61	H	-0.575163	1.091566	-0.198022
H62	H	0.146814	1.560134	-0.130149
H63	H	-0.576061	1.129046	-0.085991
H64	H	-0.147446	1.000484	0.457820
H65	H	-0.087528	1.103936	0.328778
H66	H	0.060656	0.859510	0.440448
N67	N	-0.076013	0.852896	0.290268
N68	N	-0.128910	0.820283	0.337288
H69	H	-0.182523	0.788609	0.312597
N70	N	-0.417637	1.142455	-0.072510
N71	N	-0.440646	1.216790	-0.077559
H72	H	-0.418975	1.263392	-0.034500
H73	H	-0.422554	1.092323	-0.196805
N74	N	0.088546	1.394654	-0.243329
N75	N	0.091633	1.437799	-0.303707
H76	H	0.094810	1.409215	-0.363267
N77	N	-0.163048	0.996348	0.307286
N78	N	-0.177262	0.920272	0.313304
H79	H	-0.232814	0.892455	0.288159
N80	N	-0.162914	1.566053	-0.118729
N81	N	-0.216016	1.518799	-0.086686
H82	H	-0.271138	1.542998	-0.057279
N83	N	-0.583887	0.893359	-0.003588
N84	N	-0.635432	0.849619	-0.051678
H85	H	-0.658428	0.794379	-0.035462
N86	N	-0.582693	0.838389	-0.168978
N87	N	-0.627416	0.795839	-0.224248
H88	H	-0.649383	0.738118	-0.214368
H89	H	-0.147530	1.414337	-0.130223
N90	N	0.075674	0.853224	0.289577
N91	N	0.129179	0.820712	0.336098
H92	H	0.182702	0.789265	0.310922
H93	H	0.146806	1.002330	0.315697
H94	H	-0.577447	0.931182	-0.247784
H95	H	0.083911	1.102857	0.471667
N96	N	0.163472	0.997821	0.465670
N97	N	0.160025	0.935445	0.506084
H98	H	0.216606	0.908930	0.524291
N99	N	-0.091537	1.551039	-0.245269
N100	N	-0.033680	1.595564	-0.274540
H101	H	-0.038389	1.609161	-0.334517
N102	N	0.090844	1.120264	0.323674
N103	N	0.032894	1.149330	0.279109
H104	H	0.037395	1.209315	0.265492
H105	H	-0.424169	0.931495	-0.248401
N106	N	-0.416205	1.028525	0.039852
N107	N	-0.364875	1.086172	0.024313
H108	H	-0.342094	1.127822	0.071633
H109	H	-0.575647	1.021897	0.024460
N110	N	-0.075396	1.585186	0.021725
N111	N	-0.128790	1.538696	0.054428
H112	H	-0.182191	1.563902	0.086055
H113	H	-0.060624	1.434574	0.015297
N114	N	0.087650	1.549455	-0.246896
N115	N	0.150332	1.521694	-0.293140
H116	H	0.152917	1.534187	-0.353585
