data_functionalizedCrystal
_audit_creation_method	'MofGen! by Chris Wilmer'
_symmetry_space_group_name_H-M	'P1'
_symmetry_Int_Tables_number	1
_symmetry_cell_setting	triclinic
loop_
_symmetry_equiv_pos_as_xyz
  x,y,z
_cell_length_a	8.597366
_cell_length_b	15.625429
_cell_length_c	7.681481
_cell_angle_alpha	66.294962
_cell_angle_beta	103.474720
_cell_angle_gamma	87.148812
loop_
_atom_site_label
_atom_site_type_symbol
_atom_site_fract_x
_atom_site_fract_y
_atom_site_fract_z
O1	O	2.091616	0.129486	0.088235
O2	O	1.626609	0.144407	0.008156
O3	O	1.880457	0.000635	0.138470
O4	O	1.837769	0.273257	-0.042078
O5	O	1.911704	-0.017101	0.447393
O6	O	1.657856	0.126671	0.317080
O7	O	2.122863	0.111750	0.397158
Zn8	Zn	1.895321	0.116394	0.406167
Zn9	Zn	1.854152	0.139762	-0.000852
O10	O	1.869016	0.255521	0.266845
C11	C	1.582888	0.134925	0.154006
C12	C	1.406061	0.133084	0.128353
C13	C	1.897247	-0.043118	0.315380
C14	C	1.900704	-0.147067	0.382265
C15	C	1.826872	-0.440606	-0.239667
C16	C	1.830120	-0.538284	-0.176761
C17	C	1.864183	-0.557605	0.160005
C18	C	1.860947	-0.459927	0.097130
C19	C	1.842289	-0.401435	-0.102709
C20	C	1.876364	-0.420756	0.234087
C21	C	1.873119	-0.323086	0.171214
C22	C	1.854457	-0.264587	-0.028616
C23	C	1.839044	-0.303765	-0.165582
C24	C	1.895010	-0.479249	0.433923
C25	C	1.910427	-0.440078	0.570880
C26	C	1.907193	-0.342407	0.508011
C27	C	1.888532	-0.283908	0.308180
C28	C	1.922606	-0.303229	0.644976
C29	C	1.919362	-0.205559	0.582103
C30	C	1.885287	-0.186238	0.245307
C31	C	2.166584	0.121232	0.251305
C32	C	2.343410	0.123073	0.276946
C33	C	1.852225	0.299275	0.089931
C34	C	1.848767	0.403225	0.023034
N35	N	1.923430	0.100446	0.683949
N36	N	1.826056	0.155703	-0.278628
H37	H	1.324424	0.140240	-0.018496
H38	H	1.425058	0.115910	0.423809
H39	H	1.726658	0.212105	0.595082
H40	H	1.870109	-0.138611	0.082582
H41	H	1.851799	-0.185057	-0.079807
Br42	Br	2.089135	0.006445	0.894446
H43	H	1.937781	-0.350867	0.807681
H44	H	1.879368	-0.605242	0.322713
H45	H	1.823866	-0.256137	-0.328307
H46	H	1.925612	-0.487715	0.733588
H47	H	1.897634	-0.558776	0.485104
H48	H	1.811694	-0.392979	-0.402392
Br49	Br	1.809178	-0.591441	-0.362659
H50	H	1.931881	-0.173663	0.693621
