data_functionalizedCrystal
_audit_creation_method	'MofGen! by Chris Wilmer'
_symmetry_space_group_name_H-M	'P1'
_symmetry_Int_Tables_number	1
_symmetry_cell_setting	triclinic
loop_
_symmetry_equiv_pos_as_xyz
  x,y,z
_cell_length_a	21.295417
_cell_length_b	21.295411
_cell_length_c	12.594517
_cell_angle_alpha	89.993111
_cell_angle_beta	90.026394
_cell_angle_gamma	89.971282
loop_
_atom_site_label
_atom_site_type_symbol
_atom_site_fract_x
_atom_site_fract_y
_atom_site_fract_z
Zn1	Zn	-0.250706	-0.355751	1.627112
Zn2	Zn	-0.355971	-0.250476	1.626972
Zn3	Zn	-0.250712	-0.250513	1.449130
Zn4	Zn	-0.355934	-0.355726	1.449053
O5	O	-0.303331	-0.303117	1.538067
O6	O	-0.264683	-0.341781	1.776039
O7	O	-0.342026	-0.162392	1.603354
O8	O	-0.162622	-0.264500	1.472830
O9	O	-0.342020	-0.264436	1.775936
O10	O	-0.162618	-0.341817	1.603593
O11	O	-0.264693	-0.162419	1.472695
O12	O	-0.264657	-0.264475	1.300174
O13	O	-0.341957	-0.443818	1.472699
O14	O	-0.341963	-0.341774	1.300117
O15	O	-0.264647	-0.443837	1.603518
O16	O	-0.444055	-0.264412	1.603280
O17	O	-0.444028	-0.341738	1.472564
C18	C	-0.466882	-0.303082	1.537927
C19	C	-0.536851	-0.303088	1.537965
C20	C	-0.303307	-0.303126	1.261526
C21	C	-0.303312	-0.303145	1.143220
C22	C	-0.303297	-0.467307	1.538116
C23	C	-0.303283	-0.537275	1.538137
C24	C	-0.569710	-0.262865	1.606089
C25	C	-0.635453	-0.262879	1.606139
C26	C	-0.668333	-0.303110	1.538046
C27	C	-0.635465	-0.343340	1.469916
C28	C	-0.569724	-0.343329	1.469876
N29	N	-0.771595	-0.307912	1.444934
N30	N	-0.834047	-0.307918	1.444976
C31	C	-0.866408	-0.303146	1.538165
N32	N	-0.833958	-0.298354	1.631313
N33	N	-0.771501	-0.298344	1.631270
C34	C	-0.739618	-0.303126	1.538082
C35	C	-0.970553	-0.262936	1.606349
C36	C	-1.036297	-0.262955	1.606401
C37	C	-1.036308	-0.343412	1.470168
C38	C	-0.970565	-0.343397	1.470126
C39	C	-0.937692	-0.303155	1.538215
C40	C	-0.139140	-0.303165	1.538236
C41	C	-0.069172	-0.303186	1.538308
C42	C	-0.343420	-1.036720	1.606290
C43	C	-0.343440	-0.970977	1.606271
C44	C	-0.303185	-0.938115	1.538237
C45	C	-0.262918	-0.971000	1.470198
C46	C	-0.262903	-1.036742	1.470212
N47	N	-0.248105	-0.834910	1.530107
N48	N	-0.248121	-0.772459	1.530100
C49	C	-0.303227	-0.740040	1.538190
N50	N	-0.358319	-0.772432	1.546308
N51	N	-0.358302	-0.834889	1.546320
C52	C	-0.303196	-0.866829	1.538214
C53	C	-0.343517	-0.635877	1.606199
C54	C	-0.343538	-0.570133	1.606172
C55	C	-0.263010	-0.570157	1.470105
C56	C	-0.262994	-0.635900	1.470126
C57	C	-0.303247	-0.668755	1.538179
C58	C	-0.303319	-0.139565	1.538079
C59	C	-0.303156	-0.069597	1.538264
C60	C	-0.345441	-0.345107	1.073967
C61	C	-0.288048	-0.360597	1.003181
C62	C	-0.360752	-0.287641	1.003207
C63	C	-0.245889	-0.318666	1.073992
C64	C	-0.318631	-0.245683	1.074025
C65	C	-0.261199	-0.261151	1.003271
C66	C	-0.303355	-0.303107	1.815687
C67	C	-0.303365	-0.303103	1.933993
H68	H	-0.542947	-0.230100	1.661534
H69	H	-0.943809	-0.376147	1.414648
Br70	Br	-0.525125	-0.397922	1.377415
Br71	Br	-1.080894	-0.208369	1.698875
H72	H	-0.230235	-0.543402	1.414709
H73	H	-0.197320	-0.331816	1.104955
H74	H	-0.275110	-0.409174	0.972063
Br75	Br	-0.208260	-1.081365	1.377875
Br76	Br	-0.404711	-0.404323	1.125710
H77	H	-0.376294	-0.662629	1.661608
H78	H	-0.376331	-0.543365	1.661561
Br79	Br	-0.201791	-0.201975	0.951853
Br80	Br	-0.208359	-0.680523	1.377781
Br81	Br	-0.398090	-0.926347	1.698594
Br82	Br	-0.925935	-0.208323	1.698749
H83	H	-0.376198	-1.063467	1.661700
H84	H	-0.662213	-0.230126	1.661618
Br85	Br	-1.080923	-0.398018	1.377765
Br86	Br	-0.208285	-0.926403	1.377867
H87	H	-0.331587	-0.197120	1.105166
H88	H	-0.662240	-0.376097	1.414476
Br89	Br	-0.441677	-0.265813	0.951378
