data_functionalizedCrystal
_audit_creation_method	'MofGen! by Chris Wilmer'
_symmetry_space_group_name_H-M	'P1'
_symmetry_Int_Tables_number	1
_symmetry_cell_setting	triclinic
loop_
_symmetry_equiv_pos_as_xyz
  x,y,z
_cell_length_a	14.908571
_cell_length_b	18.050589
_cell_length_c	18.050583
_cell_angle_alpha	89.968090
_cell_angle_beta	86.690916
_cell_angle_gamma	86.724558
loop_
_atom_site_label
_atom_site_type_symbol
_atom_site_fract_x
_atom_site_fract_y
_atom_site_fract_z
Zn1	Zn	1.379121	-0.361211	-0.485330
Zn2	Zn	1.879121	0.138789	0.014670
Zn3	Zn	1.379010	-0.485418	-0.361145
Zn4	Zn	1.879010	0.014582	0.138855
Zn5	Zn	1.228268	-0.354076	-0.354001
Zn6	Zn	1.728268	0.145924	0.145999
Zn7	Zn	1.228208	-0.478184	-0.478142
Zn8	Zn	1.728208	0.021816	0.021858
O9	O	1.303652	-0.419722	-0.419655
O10	O	1.803652	0.080278	0.080345
O11	O	1.505350	-0.383700	-0.474855
O12	O	2.005350	0.116300	0.025145
O13	O	1.358992	-0.468037	-0.256271
O14	O	1.858992	0.031963	0.243729
O15	O	1.248351	-0.251101	-0.371441
O16	O	1.748351	0.248899	0.128559
O17	O	1.505269	-0.474955	-0.383616
O18	O	2.005269	0.025045	0.116384
O19	O	1.359182	-0.256343	-0.467928
O20	O	1.859182	0.243657	0.032072
O21	O	1.248243	-0.371540	-0.251023
O22	O	1.748243	0.128460	0.248977
O23	O	1.102017	-0.364526	-0.364471
O24	O	1.602017	0.135474	0.135529
O25	O	1.248248	-0.462626	-0.583022
O26	O	1.748248	0.037374	-0.083022
O27	O	1.101972	-0.455708	-0.455677
O28	O	1.601972	0.044292	0.044323
O29	O	1.359124	-0.376686	-0.588303
O30	O	1.859124	0.123314	-0.088303
O31	O	1.358934	-0.588380	-0.376646
O32	O	1.858934	-0.088380	0.123354
O33	O	1.248140	-0.583065	-0.462604
O34	O	1.748140	-0.083065	0.037396
C35	C	1.069261	-0.408558	-0.408519
C36	C	1.569261	0.091442	0.091481
C37	C	0.968987	-0.403800	-0.403773
C38	C	1.468987	0.096200	0.096227
C39	C	1.303543	-0.612669	-0.419637
C40	C	1.803543	-0.112669	0.080363
C41	C	1.303579	-0.695217	-0.419658
C42	C	1.803579	-0.195217	0.080342
C43	C	0.780565	-0.489954	-0.489700
C44	C	1.280565	0.010046	0.010300
C45	C	0.686349	-0.485486	-0.485243
C46	C	1.186349	0.014514	0.014757
C47	C	0.686338	-0.390391	-0.390407
C48	C	1.186338	0.109609	0.109593
C49	C	0.780554	-0.394860	-0.394864
C50	C	1.280554	0.105140	0.105136
C51	C	0.827664	-0.444644	-0.444511
C52	C	1.327664	0.055356	0.055489
C53	C	0.921882	-0.449115	-0.448964
C54	C	1.421882	0.050885	0.051036
C55	C	0.921869	-0.354018	-0.354132
C56	C	1.421869	0.145982	0.145868
C57	C	0.827653	-0.349549	-0.349675
C58	C	1.327653	0.150451	0.150325
C59	C	1.243389	-0.891807	-0.466388
C60	C	1.743389	-0.391807	0.033612
C61	C	1.221402	-0.940211	-0.397578
C62	C	1.721402	-0.440211	0.102422
C63	C	1.303668	-0.846351	-0.419672
C64	C	1.803668	-0.346351	0.080328
C65	C	1.325698	-0.945031	-0.488492
C66	C	1.825698	-0.445031	0.011508
C67	C	1.303752	-0.992340	-0.419692
C68	C	1.803752	-0.492340	0.080308
C69	C	1.281638	-0.893666	-0.350825
C70	C	1.781638	-0.393666	0.149175
C71	C	1.385972	-0.898483	-0.441786
C72	C	1.885972	-0.398483	0.058214
C73	C	1.364017	-0.946867	-0.372931
C74	C	1.864017	-0.446867	0.127069
C75	C	1.303617	-0.762251	-0.419662
C76	C	1.803617	-0.262251	0.080338
C77	C	1.303802	-1.076439	-0.419694
C78	C	1.803802	-0.576439	0.080306
C79	C	1.538958	-0.430930	-0.430834
C80	C	2.038958	0.069070	0.069166
C81	C	1.639232	-0.435707	-0.435598
C82	C	2.139232	0.064293	0.064402
C83	C	1.303692	-0.419645	-0.613362
C84	C	1.803692	0.080355	-0.113362
C85	C	1.303709	-0.419612	-0.695909
C86	C	1.803709	0.080388	-0.195909
C87	C	1.303786	-0.226023	-0.419690
C88	C	1.803786	0.273977	0.080310
C89	C	1.303843	-0.143480	-0.419705
C90	C	1.803843	0.356520	0.080295
C91	C	1.364063	-0.372857	-0.898234
C92	C	1.864063	0.127143	-0.398234
C93	C	1.281783	-0.350766	-0.943726
C94	C	1.781783	0.149234	-0.443726
C95	C	1.303745	-0.419601	-0.847041
C96	C	1.803745	0.080399	-0.347041
C97	C	1.386059	-0.441646	-0.948633
C98	C	1.886059	0.058354	-0.448633
C99	C	1.303787	-0.419589	-0.993028
C100	C	1.803787	0.080411	-0.493028
C101	C	1.221421	-0.397473	-0.891444
C102	C	1.721421	0.102527	-0.391444
C103	C	1.325752	-0.488387	-0.896348
C104	C	1.825752	0.011613	-0.396348
C105	C	1.243415	-0.466320	-0.941815
C106	C	1.743415	0.033680	-0.441815
C107	C	1.303722	-0.419606	-0.762942
C108	C	1.803722	0.080394	-0.262942
C109	C	1.303801	-0.419584	-1.077125
C110	C	1.803801	0.080416	-0.577125
C111	C	1.303664	-0.419748	-0.226703
C112	C	1.803664	0.080252	0.273297
C113	C	1.303822	-0.419580	-0.144165
C114	C	1.803822	0.080420	0.355835
H115	H	0.960237	-0.489653	-0.489388
H116	H	1.460237	0.010347	0.010612
H117	H	1.263182	-0.292590	-0.964571
H118	H	1.763182	0.207410	-0.464571
H119	H	0.647964	-0.349855	-0.349992
H120	H	1.147964	0.150145	0.150008
H121	H	1.344298	-0.967558	-0.546685
H122	H	1.844298	-0.467558	-0.046685
C123	C	1.127430	-0.965152	-0.372313
C124	C	1.627430	-0.465152	0.127687
H125	H	1.131576	-0.994325	-0.328690
H126	H	1.631576	-0.494325	0.171310
H127	H	1.104810	-0.993767	-0.410484
H128	H	1.604810	-0.493767	0.089516
H129	H	1.087931	-0.922744	-0.362167
H130	H	1.587931	-0.422744	0.137833
C131	C	0.775827	-0.294796	-0.295064
C132	C	1.275827	0.205204	0.204936
H133	H	0.712969	-0.298627	-0.298877
H134	H	1.212969	0.201373	0.201123
H135	H	0.791292	-0.245642	-0.306739
H136	H	1.291292	0.254358	0.193261
H137	H	0.791238	-0.306353	-0.245876
H138	H	1.291238	0.193647	0.254124
C139	C	1.127381	-0.372182	-0.857810
C140	C	1.627381	0.127818	-0.357810
H141	H	1.127948	-0.372315	-0.805207
H142	H	1.627948	0.127685	-0.305207
H143	H	1.084515	-0.405159	-0.873052
H144	H	1.584515	0.094841	-0.373052
H145	H	1.111672	-0.323456	-0.874412
H146	H	1.611672	0.176544	-0.374412
H147	H	1.262958	-0.871225	-0.292613
H148	H	1.762958	-0.371225	0.207387
C149	C	1.479922	-0.873519	-0.467070
C150	C	1.979922	-0.373519	0.032930
H151	H	1.503021	-0.845676	-0.428545
H152	H	2.003021	-0.345676	0.071455
H153	H	1.475568	-0.843583	-0.510154
H154	H	1.975568	-0.343583	-0.010154
H155	H	1.519144	-0.915903	-0.478102
H156	H	2.019144	-0.415903	0.021898
C157	C	1.432926	-0.979225	-0.319512
C158	C	1.932926	-0.479225	0.180488
H159	H	1.417159	-0.961515	-0.270669
H160	H	1.917159	-0.461515	0.229331
H161	H	1.491187	-0.964278	-0.334795
H162	H	1.991187	-0.464278	0.165205
H163	H	1.432928	-1.031851	-0.320107
H164	H	1.932928	-0.531851	0.179893
C165	C	0.634538	-0.535326	-0.534948
C166	C	1.134538	-0.035326	-0.034948
H167	H	0.571679	-0.525532	-0.525189
H168	H	1.071679	-0.025532	-0.025189
H169	H	0.649954	-0.585944	-0.524729
H170	H	1.149954	-0.085944	-0.024729
H171	H	0.650009	-0.525238	-0.585598
H172	H	1.150009	-0.025238	-0.085598
H173	H	1.414989	-0.333296	-0.878999
H174	H	1.914989	0.166704	-0.378999
H175	H	0.960227	-0.317124	-0.317334
H176	H	1.460227	0.182876	0.182666
C177	C	1.174456	-0.519708	-0.967614
C178	C	1.674456	-0.019708	-0.467614
H179	H	1.116052	-0.503925	-0.947844
H180	H	1.616052	-0.003925	-0.447844
H181	H	1.189575	-0.568407	-0.950646
H182	H	1.689575	-0.068407	-0.450646
H183	H	1.175187	-0.519715	-1.020276
H184	H	1.675187	-0.019715	-0.520276
C185	C	1.350908	-0.566956	-0.868162
C186	C	1.850908	-0.066956	-0.368162
H187	H	1.302739	-0.583668	-0.836919
H188	H	1.802739	-0.083668	-0.336919
H189	H	1.403497	-0.565923	-0.840955
H190	H	1.903497	-0.065923	-0.340955
H191	H	1.361997	-0.599754	-0.909230
H192	H	1.861997	-0.099754	-0.409230
C193	C	1.174429	-0.859262	-0.519669
C194	C	1.674429	-0.359262	-0.019669
H195	H	1.116007	-0.873454	-0.503841
H196	H	1.616007	-0.373454	-0.003841
H197	H	1.189475	-0.877571	-0.568401
H198	H	1.689475	-0.377571	-0.068401
H199	H	1.175251	-0.806675	-0.519623
H200	H	1.675251	-0.306675	-0.019623
C201	C	1.480071	-0.466847	-0.982389
C202	C	1.980071	0.033153	-0.482389
H203	H	1.522836	-0.433586	-0.967527
H204	H	2.022836	0.066414	-0.467527
H205	H	1.479284	-0.467102	-1.034973
H206	H	1.979284	0.032898	-0.534973
H207	H	1.496101	-0.515397	-0.965477
H208	H	1.996101	-0.015397	-0.465477
H209	H	0.818923	-0.530494	-0.530121
H210	H	1.318923	-0.030494	-0.030121
