data_functionalizedCrystal
_audit_creation_method	'MofGen! by Chris Wilmer'
_symmetry_space_group_name_H-M	'P1'
_symmetry_Int_Tables_number	1
_symmetry_cell_setting	triclinic
loop_
_symmetry_equiv_pos_as_xyz
  x,y,z
_cell_length_a	19.377372
_cell_length_b	19.377369
_cell_length_c	14.809374
_cell_angle_alpha	78.442458
_cell_angle_beta	98.664795
_cell_angle_gamma	62.069167
loop_
_atom_site_label
_atom_site_type_symbol
_atom_site_fract_x
_atom_site_fract_y
_atom_site_fract_z
Zr1	Zr	0.435658	0.939043	-0.001441
O2	O	0.313735	1.043134	-0.094366
O3	O	0.485513	0.808620	0.000974
O4	O	0.449039	0.943932	-0.149389
O5	O	0.364786	0.913149	0.204263
O6	O	0.541574	0.977742	-0.163135
O7	O	0.350209	0.907823	0.055997
O8	O	0.606820	0.735694	0.105837
O9	O	0.299541	1.155197	-0.064708
O10	O	0.560757	0.897250	0.023244
O11	O	0.502578	0.875993	0.144152
O12	O	0.459634	1.035305	-0.032881
O13	O	0.401455	1.014048	0.088027
Zr14	Zr	0.606490	1.001461	0.213103
Zr15	Zr	0.583242	0.992967	-0.023364
Zr16	Zr	0.458907	0.947538	0.235026
Zr17	Zr	0.413020	1.117770	0.045859
Zr18	Zr	0.629129	0.822734	0.165803
O19	O	0.556636	1.131884	0.210688
O20	O	0.523579	1.119806	-0.125538
O21	O	0.346792	1.055212	0.241860
O22	O	0.728414	0.897370	0.306028
O23	O	0.695357	0.885292	-0.030198
O24	O	0.518570	0.820698	0.337200
O25	O	0.677363	1.027356	0.007399
O26	O	0.593110	0.996572	0.361051
O27	O	0.500575	0.962762	0.374797
O28	O	0.691940	1.032682	0.155665
O29	O	0.416850	1.198059	-0.082134
O30	O	0.625299	0.742446	0.293797
O31	O	0.742608	0.785308	0.276370
O32	O	0.724129	0.778556	0.088410
O33	O	0.318020	1.161949	0.123252
O34	O	0.435329	1.204811	0.105825
O35	O	0.582515	0.905200	0.244543
O36	O	0.640694	0.926457	0.123635
O37	O	0.539571	1.064512	0.067510
O38	O	0.481392	1.043255	0.188418
C39	C	0.549392	0.746692	0.046666
C40	C	0.559002	0.670818	0.026586
C41	C	0.439089	0.365607	0.276378
C42	C	0.448222	0.294258	0.257574
C43	C	0.508957	0.316458	0.131356
C44	C	0.499833	0.387808	0.150152
C45	C	0.464897	0.412377	0.222663
C46	C	0.525641	0.434578	0.096437
C47	C	0.516514	0.505924	0.115229
C48	C	0.481578	0.530500	0.187735
C49	C	0.455770	0.483723	0.241455
C50	C	0.560571	0.410011	0.023922
C51	C	0.586379	0.456782	-0.029793
C52	C	0.577257	0.528126	-0.010997
C53	C	0.542321	0.552702	0.061509
C54	C	0.603065	0.574904	-0.064717
C55	C	0.593938	0.646250	-0.045925
C56	C	0.533194	0.624048	0.080301
C57	C	0.336470	0.902803	0.133254
C58	C	0.273817	0.879911	0.142561
C59	C	-0.196161	1.164931	0.026684
C60	C	-0.255019	1.143401	0.035438
C61	C	-0.149444	0.999282	0.094028
C62	C	-0.090576	1.020800	0.085283
C63	C	-0.113941	1.103625	0.051609
C64	C	-0.008356	0.959494	0.110209
C65	C	0.050507	0.981010	0.101460
C66	C	0.027150	1.063831	0.067785
C67	C	-0.055078	1.125141	0.042860
C68	C	0.015007	0.876669	0.143876
C69	C	0.097227	0.815364	0.168802
C70	C	0.156092	0.836879	0.160059
C71	C	0.132735	0.919701	0.126384
C72	C	0.238320	0.775570	0.184984
C73	C	0.297183	0.797086	0.176235
C74	C	0.191598	0.941216	0.117635
C75	C	0.705679	1.037702	0.078408
C76	C	0.768331	1.060594	0.069101
C77	C	0.491994	0.959627	-0.189953
C78	C	0.482124	0.956021	-0.290340
C79	C	0.492757	1.193812	0.164996
C80	C	0.483147	1.269686	0.185076
C81	C	0.526171	0.972115	-0.342292
C82	C	0.515972	0.968388	-0.446047
C83	C	0.550155	0.980878	0.401615
C84	C	0.560025	0.984484	0.502002
C85	C	0.733996	0.814142	0.019243
C86	C	0.806259	0.761160	-0.010144
C87	C	0.578472	0.757318	0.342451
C88	C	0.597953	0.685050	0.422757
C89	C	0.763076	0.824767	0.315028
C90	C	0.845210	0.775391	0.386027
C91	C	0.279072	1.115737	-0.103366
C92	C	0.196939	1.165113	-0.174365
C93	C	0.308153	1.126363	0.192419
C94	C	0.235890	1.179345	0.221806
C95	C	0.463677	1.183187	-0.130788
C96	C	0.444196	1.255455	-0.211095
C97	C	0.798468	0.721033	-0.076357
C98	C	0.866358	0.671257	-0.103988
C99	C	0.942040	0.661605	-0.065400
C100	C	0.949830	0.701739	0.000818
C101	C	0.881939	0.751518	0.028442
C102	C	0.648828	0.666358	0.512883
C103	C	0.667129	0.598464	0.588351
C104	C	0.634558	0.549259	0.573690
C105	C	0.583677	0.567956	0.483556
C106	C	0.565372	0.635852	0.408091
C107	C	0.914156	0.763302	0.356256
C108	C	0.991332	0.716919	0.422960
C109	C	0.999561	0.682622	0.519434
C110	C	0.930608	0.694716	0.549206
C111	C	0.853432	0.741102	0.482504
C112	C	0.127992	1.177211	-0.144591
C113	C	0.050813	1.223616	-0.211290
C114	C	0.042583	1.257917	-0.307763
C115	C	0.111538	1.245819	-0.337536
C116	C	0.188714	1.199420	-0.270837
C117	C	0.243679	1.219479	0.288011
C118	C	0.175784	1.269273	0.315622
C119	C	0.100101	1.278928	0.277030
C120	C	0.092312	1.238791	0.210817
C121	C	0.160206	1.189002	0.183203
C122	C	0.476780	1.304641	-0.196406
C123	C	0.458492	1.372540	-0.271858
C124	C	0.407615	1.391255	-0.361996
C125	C	0.375031	1.342062	-0.376685
C126	C	0.393324	1.274161	-0.301236
H127	H	0.504747	0.644053	0.139347
Br128	Br	0.650459	0.541560	-0.163134
Br129	Br	0.556361	0.283111	0.032946
H130	H	0.518207	1.289415	-0.123016
Br131	Br	-0.366610	1.226611	0.001591
H132	H	0.116240	0.747927	0.196216
Br133	Br	0.391686	0.398951	0.374796
Br134	Br	-0.117744	0.886881	0.139722
Br135	Br	0.635477	1.012040	-0.444115
H136	H	0.860001	0.638584	-0.157905
Br137	Br	0.736184	0.573105	0.710664
H138	H	1.047469	0.707078	0.398702
H139	H	0.797298	0.750936	0.506757
H140	H	0.182141	1.301946	0.369539
H141	H	1.011459	0.693873	0.032230
H142	H	0.571437	0.988648	-0.309958
H143	H	-0.032927	0.859154	0.150991
H144	H	0.736848	0.728890	-0.107797
Br145	Br	0.633784	0.423435	-0.128202
Br146	Br	0.628959	0.709731	-0.118827
H147	H	1.062407	0.644852	0.573737
H148	H	0.244851	1.189570	-0.295092
Br149	Br	0.539480	0.501169	0.463674
Br150	Br	0.139139	1.130665	-0.013669
Br151	Br	0.149621	1.134534	0.093353
H152	H	0.997315	0.621069	-0.087901
Br153	Br	-0.227862	1.277338	-0.019000
H154	H	0.436866	0.939479	-0.322672
H155	H	0.907470	0.791221	0.277705
H156	H	0.523948	0.651061	0.334708
H157	H	0.030682	1.246660	0.179401
Br158	Br	0.007967	1.346502	0.314518
Br159	Br	0.941790	0.648164	0.680140
H160	H	0.888295	0.784184	0.082363
H161	H	-0.005323	1.233456	-0.187030
Br162	Br	0.270016	0.663168	0.230665
H163	H	0.485028	1.412588	-0.259879
Br164	Br	0.382795	1.483412	-0.464382
Br165	Br	0.305977	1.367478	-0.499020
Br166	Br	-0.062164	1.320886	-0.398272
Br167	Br	0.440533	0.940812	-0.499922
H168	H	0.675355	0.706415	0.524838
Br169	Br	0.408771	0.713885	0.210054
H170	H	0.104827	1.273753	-0.416092
H171	H	0.649470	0.493976	0.635147
Br172	Br	0.346382	1.206393	0.340397
Br173	Br	0.349087	1.207420	-0.321185
H174	H	0.474143	0.588598	0.203030
H175	H	0.427323	0.503727	0.300501
H176	H	0.427200	0.256179	0.301318
H177	H	0.567995	0.351919	0.008620
Br178	Br	0.107033	1.093035	0.055902
H179	H	0.172573	1.008662	0.090247
Br180	Br	-0.086780	1.237549	-0.002823
