data_functionalizedCrystal
_audit_creation_method	'MofGen! by Chris Wilmer'
_symmetry_space_group_name_H-M	'P1'
_symmetry_Int_Tables_number	1
_symmetry_cell_setting	triclinic
loop_
_symmetry_equiv_pos_as_xyz
  x,y,z
_cell_length_a	19.188930
_cell_length_b	14.853567
_cell_length_c	13.930277
_cell_angle_alpha	90.000757
_cell_angle_beta	90.021094
_cell_angle_gamma	83.389856
loop_
_atom_site_label
_atom_site_type_symbol
_atom_site_fract_x
_atom_site_fract_y
_atom_site_fract_z
O1	O	-0.926523	-0.112552	-0.080132
O2	O	-0.723262	-0.127704	-0.080065
O3	O	-0.830322	0.011132	-0.080103
O4	O	-0.819463	-0.251388	-0.080094
O5	O	-0.830307	0.011135	0.079559
O6	O	-0.723247	-0.127701	0.079597
O7	O	-0.926508	-0.112549	0.079530
Zn8	Zn	-0.824875	-0.120124	0.104913
Zn9	Zn	-0.824895	-0.120128	-0.105448
O10	O	-0.819448	-0.251385	0.079568
C11	C	-0.697242	-0.127211	-0.000225
C12	C	-0.619733	-0.125739	-0.000200
C13	C	-0.829823	0.044720	-0.000275
C14	C	-0.828348	0.144795	-0.000282
C15	C	-0.952528	-0.113041	-0.000311
C16	C	-1.030038	-0.114514	-0.000343
C17	C	-0.575080	-0.207203	-0.000212
C18	C	-0.502252	-0.205819	-0.000223
C19	C	-0.474079	-0.122966	-0.000241
C20	C	-0.518741	-0.041491	-0.000223
C21	C	-0.591568	-0.042878	-0.000203
N22	N	-0.365893	-0.059637	-0.054622
N23	N	-0.296710	-0.058326	-0.054643
C24	C	-0.254657	-0.118785	-0.000300
N25	N	-0.284398	-0.180619	0.054054
N26	N	-0.353588	-0.181933	0.054071
C27	C	-0.395112	-0.121454	-0.000262
C28	C	-0.131035	-0.198755	-0.000322
C29	C	-0.058205	-0.197367	-0.000327
C30	C	-0.074696	-0.033038	-0.000336
C31	C	-0.147524	-0.034427	-0.000322
C32	C	-0.175689	-0.117288	-0.000319
C33	C	-0.819948	-0.284972	-0.000262
C34	C	-0.821422	-0.385048	-0.000261
N35	N	-0.824867	-0.120121	0.248479
C36	C	-0.758520	0.556941	-0.000241
C37	C	-0.885709	0.578929	-0.000283
C38	C	-0.887095	0.484903	-0.000289
C39	C	-0.824193	0.426891	-0.000270
C40	C	-0.759904	0.462906	-0.000244
C41	C	-0.951383	0.448881	-0.000305
C42	C	-0.952772	0.354850	-0.000310
C43	C	-0.889869	0.296836	-0.000298
C44	C	-0.825577	0.332856	-0.000273
C45	C	-0.762675	0.274845	-0.000254
C46	C	-0.698383	0.310862	-0.000236
C47	C	-0.697001	0.404892	-0.000232
C48	C	-0.891251	0.202807	-0.000302
C49	C	-0.764059	0.180809	-0.000257
N50	N	-0.824909	-0.120124	-0.249014
C51	C	-0.777487	-0.181581	0.700766
C52	C	-0.872322	-0.058669	0.700701
C53	C	-0.872314	-0.058666	0.600206
C54	C	-0.824892	-0.120122	0.549985
C55	C	-0.777479	-0.181582	0.600261
C56	C	-0.919731	0.002786	0.549923
C57	C	-0.919725	0.002791	0.449421
C58	C	-0.872300	-0.058662	0.399199
C59	C	-0.824884	-0.120123	0.449480
C60	C	-0.777462	-0.181580	0.399260
C61	C	-0.730042	-0.243037	0.449540
C62	C	-0.730053	-0.243034	0.550038
C63	C	-0.872289	-0.058665	0.298700
C64	C	-0.777454	-0.181580	0.298755
H65	H	-0.598007	-0.274675	-0.000212
O66	O	-0.190804	0.044791	-0.000364
C67	C	-0.199472	0.207927	-0.000317
C68	C	-0.150378	0.118276	-0.000297
H69	H	-0.166808	0.267363	-0.000243
H70	H	-0.233994	0.211447	-0.067142
H71	H	-0.233967	0.211338	0.066494
H72	H	-0.115840	0.114805	-0.067063
H73	H	-0.115904	0.114793	0.066572
O74	O	-0.158284	-0.279320	-0.000267
C75	C	-0.134243	-0.442164	-0.000313
C76	C	-0.103293	-0.350988	-0.000353
H77	H	-0.089798	-0.500131	-0.000403
H78	H	-0.167877	-0.446980	0.066528
H79	H	-0.167974	-0.446874	-0.067109
H80	H	-0.069530	-0.346216	0.066397
H81	H	-0.069700	-0.346211	-0.067238
H82	H	-0.910935	-0.008637	0.741594
O83	O	-0.637262	0.254544	-0.000048
C84	C	-0.528948	0.207001	0.082667
C85	C	-0.598145	0.270822	0.082585
H86	H	-0.497296	0.220153	0.149459
H87	H	-0.540945	0.133593	0.082728
H88	H	-0.497352	0.220055	0.015826
H89	H	-0.629775	0.257850	0.149415
H90	H	-0.586100	0.344209	0.082474
H91	H	-0.712835	0.133582	-0.000245
O92	O	-1.015283	0.320016	-0.000376
C93	C	-1.141293	0.351757	-0.000362
C94	C	-1.070549	0.391328	-0.000306
H95	H	-1.185994	0.409394	-0.000285
H96	H	-1.145175	0.308324	-0.067202
H97	H	-1.145078	0.308247	0.066435
H98	H	-1.066717	0.434879	-0.067058
H99	H	-1.066698	0.434710	0.066578
H100	H	-0.465889	-0.272159	-0.000230
H101	H	-1.002595	0.496120	-0.000312
H102	H	-0.495798	0.025968	-0.000251
O103	O	-0.634613	0.440030	-0.000163
C104	C	-0.576117	0.575147	-0.000181
C105	C	-0.646817	0.535470	-0.000241
H106	H	-0.585959	0.652315	-0.000264
H107	H	-0.545014	0.551298	0.066664
H108	H	-0.545032	0.551191	-0.066973
H109	H	-0.677959	0.559408	0.066505
H110	H	-0.677867	0.559314	-0.067130
H111	H	-0.943596	0.173485	-0.000310
O112	O	-0.683883	-0.302699	0.400857
C113	C	-0.562537	-0.355875	0.370115
C114	C	-0.614731	-0.288274	0.425328
H115	H	-0.506616	-0.344224	0.389864
H116	H	-0.571641	-0.428076	0.389887
H117	H	-0.570719	-0.345330	0.289655
H118	H	-0.606580	-0.298736	0.505801
H119	H	-0.605613	-0.216098	0.405476
H120	H	-0.627925	0.023463	-0.000194
O121	O	-0.731361	-0.241368	0.250123
C122	C	-0.637266	-0.363242	0.260794
C123	C	-0.689438	-0.295596	0.315987
H124	H	-0.603348	-0.407090	0.314021
H125	H	-0.667410	-0.408251	0.213752
H126	H	-0.602382	-0.324412	0.213736
H127	H	-0.724335	-0.334352	0.363097
H128	H	-0.659251	-0.250588	0.362969
O129	O	-0.684065	-0.302700	0.599028
C130	C	-0.642032	-0.357141	0.753884
C131	C	-0.694157	-0.289533	0.698519
H132	H	-0.650163	-0.346506	0.834333
H133	H	-0.651196	-0.429341	0.734186
H134	H	-0.586105	-0.345584	0.734112
H135	H	-0.750104	-0.301007	0.718263
H136	H	-0.684932	-0.217357	0.718222
H137	H	-0.021850	-0.263708	-0.000331
H138	H	-0.936921	0.626167	-0.000291
H139	H	-0.051759	0.034423	-0.000410
O140	O	-0.965727	0.062444	0.598853
C141	C	-1.007792	0.116878	0.753656
C142	C	-0.955652	0.049278	0.698357
H143	H	-0.999674	0.106244	0.834115
H144	H	-0.998631	0.189081	0.733975
H145	H	-1.063713	0.105314	0.733807
H146	H	-0.899711	0.060759	0.718176
H147	H	-0.964875	-0.022901	0.718043
H148	H	-0.706174	0.586271	-0.000231
H149	H	-0.738877	-0.231616	0.741706
O150	O	-0.965808	0.062579	0.400733
C151	C	-1.059899	0.184460	0.411284
C152	C	-1.007740	0.116810	0.466544
H153	H	-1.093825	0.228311	0.464468
H154	H	-1.029745	0.229466	0.364285
H155	H	-1.094777	0.145634	0.364177
H156	H	-0.972849	0.155563	0.513702
H157	H	-1.037938	0.071805	0.513482
O158	O	-0.918373	0.001113	0.250007
C159	C	-1.012474	0.122981	0.260555
C160	C	-0.960309	0.055341	0.315817
H161	H	-1.046403	0.166829	0.313737
H162	H	-0.982325	0.167990	0.213553
H163	H	-1.047348	0.084147	0.213451
H164	H	-0.925422	0.094101	0.362973
H165	H	-0.990501	0.010332	0.362758
