data_functionalizedCrystal
_audit_creation_method	'MofGen! by Chris Wilmer'
_symmetry_space_group_name_H-M	'P1'
_symmetry_Int_Tables_number	1
_symmetry_cell_setting	triclinic
loop_
_symmetry_equiv_pos_as_xyz
  x,y,z
_cell_length_a	15.944551
_cell_length_b	10.654545
_cell_length_c	9.730223
_cell_angle_alpha	90.002833
_cell_angle_beta	90.005352
_cell_angle_gamma	83.990908
loop_
_atom_site_label
_atom_site_type_symbol
_atom_site_fract_x
_atom_site_fract_y
_atom_site_fract_z
O1	O	0.117958	1.666316	0.114279
O2	O	0.129202	1.300691	0.114286
O3	O	0.001363	1.493488	0.114270
O4	O	0.245797	1.473519	0.114295
O5	O	0.001360	1.493476	-0.114310
O6	O	0.129199	1.300679	-0.114294
O7	O	0.117955	1.666304	-0.114300
Zn8	Zn	0.123576	1.483489	-0.150589
Zn9	Zn	0.123581	1.483506	0.150575
O10	O	0.245794	1.473507	-0.114285
C11	C	0.128376	1.253898	-0.000004
C12	C	0.125908	1.114486	-0.000002
C13	C	0.124745	1.048990	-0.124602
C14	C	0.122412	0.918001	-0.124602
C15	C	0.122410	0.918015	0.124608
C16	C	0.124737	1.049003	0.124607
C17	C	-0.029937	1.492653	-0.000020
C18	C	-0.123198	1.490168	-0.000021
C19	C	-0.338779	1.364723	0.000000
C20	C	-0.399462	1.422969	-0.112705
C21	C	-0.293950	1.485672	-0.000010
C22	C	-0.399441	1.423010	0.112657
C23	C	-0.458887	1.481320	0.000006
C24	C	-0.353404	1.543951	-0.112808
C25	C	-0.353377	1.543975	0.112655
C26	C	-0.414042	1.602309	-0.000077
C27	C	-0.198933	1.488175	-0.000021
C28	C	-0.553903	1.478825	0.000007
C29	C	0.277094	1.474342	0.000008
C30	C	0.370355	1.476827	0.000018
C31	C	0.118781	1.713097	-0.000008
C32	C	0.121249	1.852509	-0.000001
N33	N	0.123573	1.483488	-0.356126
C34	C	0.066989	1.568887	-0.428059
C35	C	0.066990	1.568899	-0.571942
C36	C	0.180164	1.398109	-0.571946
C37	C	0.180159	1.398092	-0.428066
N38	N	0.123578	1.483518	0.356111
H39	H	0.121457	0.864682	0.226061
H40	H	-0.333119	1.595059	-0.208196
C41	C	0.242405	1.304151	-0.348934
H42	H	0.276115	1.253307	-0.412384
H43	H	0.211861	1.251874	-0.292824
H44	H	0.277652	1.349327	-0.292790
H45	H	0.125682	1.102332	0.226078
H46	H	-0.306052	1.264330	-0.000111
C47	C	-0.427034	1.353860	-0.241416
H48	H	-0.401020	1.269460	-0.241280
H49	H	-0.410508	1.396008	-0.321449
H50	H	-0.486585	1.353450	-0.240907
H51	H	0.125698	1.102303	-0.226066
H52	H	-0.446620	1.702790	-0.000142
H53	H	0.121465	0.864679	-0.226064
H54	H	-0.332950	1.595093	0.207941
H55	H	-0.419812	1.371843	0.207947
C56	C	0.004740	1.662806	-0.348929
H57	H	-0.028963	1.713660	-0.412382
H58	H	0.035276	1.715075	-0.292780
H59	H	-0.030511	1.617617	-0.292824
C60	C	0.004752	1.662843	-0.651062
H61	H	-0.028943	1.713701	-0.587606
H62	H	-0.030497	1.617684	-0.707208
H63	H	0.035302	1.715124	-0.707170
C64	C	0.242411	1.304193	-0.651084
H65	H	0.234317	1.316443	-0.747077
H66	H	0.232770	1.220380	-0.627529
H67	H	0.298557	1.317839	-0.627482
