data_functionalizedCrystal
_audit_creation_method	'MofGen! by Chris Wilmer'
_symmetry_space_group_name_H-M	'P1'
_symmetry_Int_Tables_number	1
_symmetry_cell_setting	triclinic
loop_
_symmetry_equiv_pos_as_xyz
  x,y,z
_cell_length_a	6.817900
_cell_length_b	11.353959
_cell_length_c	10.943624
_cell_angle_alpha	103.040819
_cell_angle_beta	108.838799
_cell_angle_gamma	107.526623
loop_
_atom_site_label
_atom_site_type_symbol
_atom_site_fract_x
_atom_site_fract_y
_atom_site_fract_z
V1	V	-4.134723	-0.180867	-0.443211
O2	O	-4.072276	0.008727	-0.392926
O3	O	-4.131575	-0.358662	-0.480426
O4	O	-4.112388	-0.178069	-0.618148
O5	O	-4.091596	-0.173117	-0.254251
V6	V	-4.609110	-0.158191	-0.415720
O7	O	-4.416022	-0.230608	-0.503513
O8	O	-4.778008	-0.108450	-0.355418
O9	O	-4.389052	0.019604	-0.378504
O10	O	-4.788954	-0.347784	-0.466005
O11	O	-4.769634	-0.165941	-0.604680
O12	O	-4.408238	-0.160989	-0.240783
C13	C	-3.986741	-0.402005	-0.483820
C14	C	-4.065627	-0.547355	-0.515414
C15	C	-4.040843	-0.594422	-0.413150
C16	C	-4.122375	-0.744649	-0.445802
C17	C	-3.962265	-0.171639	-0.659495
C18	C	-4.025586	-0.170528	-0.802772
C19	C	-3.869621	-0.163048	-0.878238
C20	C	-4.070784	-0.274086	-1.009190
C21	C	-3.937280	-0.057524	-0.927119
C22	C	-4.225971	-0.281671	-0.931871
C23	C	-4.092376	-0.065010	-0.849754
C24	C	-4.293679	-0.176080	-0.980684
C25	C	-4.197229	0.062941	-0.375109
C26	C	-4.097582	0.208289	-0.343523
C27	C	-4.221704	-0.167423	-0.199430
C28	C	-4.137619	-0.168527	-0.056150
H29	H	-3.689850	-0.157686	-0.833584
O30	O	-4.103474	0.052085	-0.758556
H31	H	-4.278161	0.047563	-0.800988
H32	H	-3.815863	0.037184	-0.926591
H33	H	-4.473582	-0.181616	-1.025173
H34	H	-4.016010	-0.720795	-0.231791
H35	H	-3.959276	-0.523502	-0.301426
H36	H	-4.347436	-0.376505	-0.932645
O37	O	-4.173701	-0.641291	-0.663411
H38	H	-4.179472	-0.583962	-0.733356
O39	O	-4.059568	-0.391152	-1.100370
H40	H	-4.004996	-0.449788	-1.038375
O41	O	-4.230441	-0.838570	-0.593810
H42	H	-4.277513	-0.941825	-0.596231
