data_functionalizedCrystal
_audit_creation_method	'MofGen! by Chris Wilmer'
_symmetry_space_group_name_H-M	'P1'
_symmetry_Int_Tables_number	1
_symmetry_cell_setting	triclinic
loop_
_symmetry_equiv_pos_as_xyz
  x,y,z
_cell_length_a	15.944545
_cell_length_b	15.021413
_cell_length_c	10.540539
_cell_angle_alpha	89.993806
_cell_angle_beta	84.010832
_cell_angle_gamma	90.004532
loop_
_atom_site_label
_atom_site_type_symbol
_atom_site_fract_x
_atom_site_fract_y
_atom_site_fract_z
O1	O	1.115508	0.073970	0.163657
O2	O	0.871078	0.073984	0.183849
O3	O	0.998869	0.073976	-0.011029
O4	O	0.987716	0.073979	0.358536
O5	O	0.998849	-0.074089	-0.011002
O6	O	0.871057	-0.074080	0.183877
O7	O	1.115487	-0.074094	0.163685
Zn8	Zn	0.993269	-0.097595	0.173786
Zn9	Zn	0.993296	0.097486	0.173749
O10	O	0.987696	-0.074086	0.358564
C11	C	0.839769	-0.000046	0.183026
C12	C	0.746507	-0.000041	0.180518
N13	N	0.993257	-0.230733	0.173810
C14	C	0.475110	-0.000051	0.052226
C15	C	0.526050	-0.073056	0.114092
C16	C	0.410810	-0.000056	0.171570
C17	C	0.526051	0.072923	0.114096
C18	C	0.575750	-0.000047	0.175960
C19	C	0.460522	-0.073121	0.233404
C20	C	0.460519	0.072924	0.233391
C21	C	0.511427	-0.000099	0.295344
C22	C	0.315793	-0.000062	0.169038
C23	C	0.670764	-0.000047	0.178501
C24	C	0.934157	-0.470412	0.263879
C25	C	1.010204	-0.529751	0.288520
C26	C	0.993278	-0.412340	0.173778
C27	C	0.917252	-0.529743	0.149166
C28	C	0.993292	-0.587764	0.173750
C29	C	1.069364	-0.470372	0.198476
C30	C	0.976361	-0.470359	0.059072
C31	C	1.052464	-0.529671	0.083664
C32	C	0.993269	-0.311283	0.173797
C33	C	0.993310	-0.688819	0.173730
C34	C	1.146797	-0.000062	0.164508
C35	C	1.240058	-0.000061	0.167017
C36	C	0.998023	-0.000055	-0.058307
C37	C	0.995520	-0.000050	-0.199221
N38	N	0.993315	0.230623	0.173715
C39	C	0.899633	0.000288	-0.381339
C40	C	0.902170	-0.000045	-0.234755
C41	C	1.040433	-0.084604	-0.261476
C42	C	1.037247	-0.084675	-0.407977
C43	C	1.039169	0.083701	-0.408553
C44	C	1.040029	0.084819	-0.261583
C45	C	0.988542	-0.000053	0.405841
C46	C	0.991045	-0.000052	0.546755
H47	H	0.458844	-0.000123	-0.050555
H48	H	1.008965	0.147788	-0.439705
H49	H	0.432004	-0.134908	0.283780
H50	H	0.884211	-0.444394	0.340137
H51	H	1.024525	-0.555838	0.385513
H52	H	1.133679	-0.444403	0.219397
C53	C	0.854071	-0.082064	-0.177668
N54	N	0.817843	-0.143844	-0.134671
H55	H	0.554676	0.134640	0.063662
H56	H	0.852951	-0.555825	0.128361
C57	C	0.533193	-0.000157	0.434300
N58	N	0.549589	-0.000206	0.538959
H59	H	1.108987	-0.087752	-0.240057
H60	H	1.102522	-0.555526	0.007451
H61	H	1.004037	-0.147878	-0.435711
H62	H	1.009218	-0.147523	-0.218439
C63	C	0.995676	0.169326	-0.205722
N64	N	0.962261	0.232976	-0.163651
H65	H	0.862765	0.060924	-0.409447
C66	C	0.854419	0.081835	-0.176559
N67	N	0.818447	0.143508	-0.132731
C68	C	1.131980	0.091709	-0.230128
N69	N	1.201242	0.096890	-0.206441
H70	H	1.106596	0.084266	-0.456699
C71	C	0.421824	0.156310	0.301401
N72	N	0.392676	0.219123	0.352616
H73	H	0.962017	-0.444251	-0.037890
C74	C	1.127943	-0.089876	-0.474020
N75	N	1.196254	-0.093800	-0.523758
C76	C	0.564721	-0.156436	0.046016
N77	N	0.593846	-0.219236	-0.005266
C78	C	0.850015	-0.081182	-0.421415
N79	N	0.812649	-0.142553	-0.451590
