data_functionalizedCrystal
_audit_creation_method	'MofGen! by Chris Wilmer'
_symmetry_space_group_name_H-M	'P1'
_symmetry_Int_Tables_number	1
_symmetry_cell_setting	triclinic
loop_
_symmetry_equiv_pos_as_xyz
  x,y,z
_cell_length_a	19.188930
_cell_length_b	19.188925
_cell_length_c	15.500227
_cell_angle_alpha	92.818783
_cell_angle_beta	87.151281
_cell_angle_gamma	83.143665
loop_
_atom_site_label
_atom_site_type_symbol
_atom_site_fract_x
_atom_site_fract_y
_atom_site_fract_z
O1	O	0.929413	0.083904	-0.072223
O2	O	1.262747	0.417237	0.261111
O3	O	1.596080	0.750571	0.594444
O4	O	0.726099	0.095641	-0.072163
O5	O	1.059433	0.428974	0.261170
O6	O	1.392766	0.762308	0.594504
O7	O	0.833625	-0.011883	-0.072190
O8	O	1.166959	0.321450	0.261144
O9	O	1.500292	0.654783	0.594477
O10	O	0.821887	0.191428	-0.072196
O11	O	1.155221	0.524762	0.261137
O12	O	1.488554	0.858095	0.594471
O13	O	0.827100	-0.005384	0.071701
O14	O	1.160434	0.327949	0.405034
O15	O	1.493767	0.661283	0.738367
O16	O	0.719574	0.102140	0.071727
O17	O	1.052908	0.435474	0.405061
O18	O	1.386241	0.768807	0.738394
O19	O	0.922889	0.090403	0.071668
O20	O	1.256222	0.423737	0.405001
O21	O	1.589555	0.757070	0.738334
Cu22	Cu	0.820636	0.096865	0.084836
Cu23	Cu	1.153969	0.430199	0.418169
Cu24	Cu	1.487302	0.763532	0.751502
Cu25	Cu	0.828352	0.089179	-0.085331
Cu26	Cu	1.161685	0.422512	0.248002
Cu27	Cu	1.495019	0.755846	0.581336
O28	O	0.815363	0.197928	0.071694
O29	O	1.148696	0.531261	0.405028
O30	O	1.482029	0.864594	0.738361
C31	C	0.696825	0.098511	-0.000210
C32	C	1.030159	0.431844	0.333123
C33	C	1.363492	0.765178	0.666456
C34	C	0.619320	0.097371	-0.000188
C35	C	0.952653	0.430705	0.333146
C36	C	1.285987	0.764038	0.666479
C37	C	0.574396	0.160462	-0.000203
C38	C	0.907729	0.493795	0.333130
C39	C	1.241062	0.827128	0.666463
C40	C	0.501572	0.159390	-0.000213
C41	C	0.834905	0.492723	0.333121
C42	C	1.168239	0.826056	0.666454
C43	C	0.473677	0.095223	-0.000224
C44	C	0.807011	0.428556	0.333109
C45	C	1.140344	0.761889	0.666443
C46	C	0.518611	0.032124	-0.000204
C47	C	0.851945	0.365458	0.333130
C48	C	1.185278	0.698791	0.666463
C49	C	0.591433	0.033199	-0.000185
C50	C	0.924766	0.366532	0.333148
C51	C	1.258099	0.699865	0.666481
N52	N	0.367920	0.043962	-0.049229
N53	N	0.701254	0.377295	0.284104
N54	N	1.034587	0.710629	0.617437
N55	N	0.298743	0.042946	-0.049248
N56	N	0.632076	0.376279	0.284085
N57	N	0.965409	0.709613	0.617418
C58	C	0.254271	0.091982	-0.000277
C59	C	0.587605	0.425316	0.333057
C60	C	0.920938	0.758649	0.666390
N61	N	0.281590	0.142083	0.048704
N62	N	0.614923	0.475417	0.382037
N63	N	0.948257	0.808750	0.715371
N64	N	0.350774	0.143102	0.048719
N65	N	0.684107	0.476435	0.382052
N66	N	1.017441	0.809768	0.715386
C67	C	0.394716	0.094051	-0.000243
C68	C	0.728049	0.427384	0.333090
C69	C	1.061382	0.760717	0.666424
C70	C	0.130383	0.153914	-0.000301
C71	C	0.463716	0.487248	0.333032
C72	C	0.797049	0.820581	0.666365
C73	C	0.057558	0.152840	-0.000305
C74	C	0.390891	0.486173	0.333028
C75	C	0.724225	0.819507	0.666361
C76	C	0.074599	0.025573	-0.000305
C77	C	0.407933	0.358906	0.333028
C78	C	0.741266	0.692239	0.666362
C79	C	0.147422	0.026649	-0.000292
C80	C	0.480755	0.359983	0.333041
C81	C	0.814089	0.693316	0.666374
C82	C	0.175309	0.090822	-0.000294
C83	C	0.508642	0.424155	0.333039
C84	C	0.841976	0.757489	0.666372
C85	C	0.829983	-0.034645	-0.000245
C86	C	1.163317	0.298689	0.333088
C87	C	1.496650	0.632022	0.666422
C88	C	0.828844	-0.112150	-0.000246
C89	C	1.162178	0.221184	0.333087
C90	C	1.495511	0.554517	0.666420
C91	C	0.884310	-0.673921	-0.000285
C92	C	1.217643	-0.340588	0.333049
C93	C	1.550977	-0.007255	0.666382
C94	C	0.885386	-0.601098	-0.000277
C95	C	1.218720	-0.267765	0.333056
C96	C	1.552053	0.065569	0.666390
C97	C	0.822293	-0.556163	-0.000259
C98	C	1.155627	-0.222829	0.333075
C99	C	1.488960	0.110504	0.666408
C100	C	0.758118	-0.584055	-0.000226
C101	C	1.091452	-0.250722	0.333107
C102	C	1.424785	0.082611	0.666441
C103	C	0.757044	-0.656877	-0.000225
C104	C	1.090377	-0.323544	0.333109
C105	C	1.423710	0.009789	0.666442
N106	N	0.778837	-0.437694	-0.049222
N107	N	1.112171	-0.104360	0.284111
N108	N	1.445504	0.228973	0.617445
N109	N	0.779863	-0.368517	-0.049225
N110	N	1.113196	-0.035183	0.284108
N111	N	1.446529	0.298150	0.617442
C112	C	0.825527	-0.336754	-0.000260
C113	C	1.158861	-0.003420	0.333073
C114	C	1.492194	0.329913	0.666406
N115	N	0.870139	-0.376783	0.048696
N116	N	1.203472	-0.043450	0.382030
N117	N	1.536806	0.289884	0.715363
N118	N	0.869116	-0.445967	0.048695
N119	N	1.202449	-0.112634	0.382029
N120	N	1.535783	0.220700	0.715362
C121	C	0.823452	-0.477198	-0.000259
C122	C	1.156785	-0.143865	0.333074
C123	C	1.490118	0.189468	0.666407
C124	C	0.890865	-0.229905	-0.000279
C125	C	1.224198	0.103428	0.333054
C126	C	1.557531	0.436761	0.666388
C127	C	0.891938	-0.157080	-0.000266
C128	C	1.225271	0.176253	0.333067
C129	C	1.558605	0.509587	0.666401
C130	C	0.764669	-0.140039	-0.000224
C131	C	1.098002	0.193295	0.333110
C132	C	1.431335	0.526628	0.666443
C133	C	0.763597	-0.212863	-0.000228
C134	C	1.096930	0.120471	0.333105
C135	C	1.430264	0.453804	0.666439
C136	C	0.826697	-0.257792	-0.000260
C137	C	1.160030	0.075541	0.333074
C138	C	1.493364	0.408875	0.666407
C139	C	0.952162	0.087533	-0.000287
C140	C	1.285496	0.420867	0.333046
C141	C	1.618829	0.754200	0.666380
C142	C	1.029668	0.088673	-0.000315
C143	C	1.363002	0.422006	0.333018
C144	C	1.696335	0.755339	0.666351
C145	C	0.819005	0.220689	-0.000252
C146	C	1.152338	0.554022	0.333081
C147	C	1.485671	0.887356	0.666414
C148	C	0.820144	0.298193	-0.000257
C149	C	1.153477	0.631527	0.333077
C150	C	1.486811	0.964860	0.666410
N151	N	0.815214	0.102271	0.204522
N152	N	1.148547	0.435604	0.537855
N153	N	1.481880	0.768938	0.871189
N154	N	0.833780	0.083768	-0.205017
N155	N	1.167113	0.417101	0.128316
N156	N	1.500447	0.750435	0.461649
C157	C	0.860792	0.056726	0.249787
C158	C	1.194125	0.390059	0.583121
C159	C	1.527458	0.723392	0.916454
C160	C	0.856697	0.060820	0.340361
C161	C	1.190031	0.394154	0.673695
C162	C	1.523364	0.727487	1.007028
C163	C	0.807028	0.110464	0.385668
C164	C	1.140361	0.443797	0.719001
C165	C	1.473694	0.777131	1.052335
C166	C	0.761445	0.156011	0.340396
C167	C	1.094778	0.489344	0.673730
C168	C	1.428111	0.822678	1.007063
C169	C	0.765536	0.151913	0.249824
C170	C	1.098869	0.485246	0.583158
C171	C	1.432203	0.818579	0.916491
C172	C	0.792288	0.125217	0.659139
C173	C	1.125622	0.458550	0.992472
C174	C	1.458955	0.791883	1.325805
C175	C	0.788202	0.129313	0.749717
C176	C	1.121535	0.462646	1.083051
C177	C	1.454868	0.795980	1.416384
C178	C	0.883454	0.034121	0.749676
C179	C	1.216787	0.367454	1.083009
C180	C	1.550121	0.700788	1.416343
C181	C	0.887544	0.030030	0.659102
C182	C	1.220877	0.363363	0.992435
C183	C	1.554211	0.696696	1.325769
C184	C	0.841959	0.075574	0.613838
C185	C	1.175292	0.408908	0.947171
C186	C	1.508625	0.742241	1.280505
C187	C	0.802843	0.114652	0.478249
C188	C	1.136176	0.447985	0.811582
C189	C	1.469510	0.781319	1.144916
C190	C	0.846140	0.071383	0.521259
C191	C	1.179474	0.404716	0.854592
C192	C	1.512807	0.738049	1.187925
H193	H	0.153089	0.206168	-0.000290
H194	H	0.486422	0.539502	0.333043
H195	H	0.819756	0.872835	0.666376
H196	H	0.628011	-0.018179	-0.000173
H197	H	0.961344	0.315155	0.333160
H198	H	1.294678	0.648488	0.666493
Br199	Br	0.480756	-0.054960	-0.000210
Br200	Br	0.814089	0.278374	0.333123
Br201	Br	1.147423	0.611707	0.666457
Br202	Br	0.720789	0.196696	0.811200
Br203	Br	1.054123	0.530029	1.144533
Br204	Br	1.387456	0.863362	1.477866
Br205	Br	0.208395	-0.058978	-0.000273
Br206	Br	0.541729	0.274355	0.333060
Br207	Br	0.875062	0.607688	0.666393
H208	H	0.051891	-0.026676	-0.000368
H209	H	0.385224	0.306658	0.332965
H210	H	0.718557	0.639991	0.666299
Br211	Br	0.730426	0.187027	0.597714
Br212	Br	1.063759	0.520360	0.931047
Br213	Br	1.397092	0.853693	1.264381
H214	H	0.020980	0.204218	-0.000313
H215	H	0.354314	0.537551	0.333020
H216	H	0.687647	0.870885	0.666354
Br217	Br	0.440591	0.245018	-0.000229
Br218	Br	0.773924	0.578352	0.333105
Br219	Br	1.107258	0.911685	0.666438
Br220	Br	0.954956	-0.037341	0.597613
Br221	Br	1.288289	0.295992	0.930946
Br222	Br	1.621623	0.629325	1.264279
H223	H	0.720999	0.196430	0.377290
H224	H	1.054332	0.529763	0.710624
H225	H	1.387665	0.863096	1.043957
Br226	Br	0.969945	-0.734894	-0.000320
Br227	Br	1.303278	-0.401560	0.333013
Br228	Br	1.636612	-0.068227	0.666347
Br229	Br	0.972475	-0.563243	-0.000301
Br230	Br	1.305808	-0.229909	0.333032
Br231	Br	1.639141	0.103424	0.666366
H232	H	0.728421	0.188999	0.212970
H233	H	1.061754	0.522333	0.546303
H234	H	1.395087	0.855666	0.879637
H235	H	0.893810	0.023734	0.377216
H236	H	1.227144	0.357067	0.710549
H237	H	1.560477	0.690400	1.043883
H238	H	0.597096	0.212716	-0.000207
H239	H	0.930430	0.546049	0.333127
H240	H	1.263763	0.879383	0.666460
Br241	Br	0.676509	-0.250710	-0.000196
Br242	Br	1.009843	0.082623	0.333138
Br243	Br	1.343176	0.415957	0.666471
H244	H	0.901241	0.016304	0.212905
H245	H	1.234574	0.349637	0.546238
H246	H	1.567908	0.682970	0.879571
Br247	Br	0.672491	-0.523073	-0.000193
Br248	Br	1.005824	-0.189740	0.333140
Br249	Br	1.339158	0.143593	0.666474
Br250	Br	0.669954	-0.694724	-0.000186
Br251	Br	1.003287	-0.361391	0.333147
Br252	Br	1.336621	-0.028057	0.666480
H253	H	0.920567	-0.002960	0.786538
H254	H	1.253900	0.330373	1.119871
H255	H	1.587234	0.663707	1.453205
H256	H	0.942245	-0.266489	-0.000304
H257	H	1.275578	0.066844	0.333029
H258	H	1.608911	0.400178	0.666362
Br259	Br	0.979029	-0.119235	-0.000305
Br260	Br	1.312362	0.214098	0.333028
Br261	Br	1.645695	0.547432	0.666361
Br262	Br	0.679040	-0.079062	-0.000183
Br263	Br	1.012373	0.254271	0.333151
Br264	Br	1.345707	0.587604	0.666484
H265	H	0.886579	0.030960	0.484367
H266	H	1.219913	0.364293	0.817701
H267	H	1.553246	0.697627	1.151034
H268	H	0.762402	0.155074	0.515145
H269	H	1.095735	0.488407	0.848479
H270	H	1.429069	0.821741	1.181812
