data_functionalizedCrystal
_audit_creation_method	'MofGen! by Chris Wilmer'
_symmetry_space_group_name_H-M	'P1'
_symmetry_Int_Tables_number	1
_symmetry_cell_setting	triclinic
loop_
_symmetry_equiv_pos_as_xyz
  x,y,z
_cell_length_a	20.875492
_cell_length_b	20.875641
_cell_length_c	18.878441
_cell_angle_alpha	89.998481
_cell_angle_beta	58.305767
_cell_angle_gamma	60.671363
loop_
_atom_site_label
_atom_site_type_symbol
_atom_site_fract_x
_atom_site_fract_y
_atom_site_fract_z
Zr1	Zr	0.783747	0.556813	-0.160606
O2	O	0.916747	0.451356	-0.277087
O3	O	0.645465	0.594025	-0.119489
O4	O	0.786084	0.586983	-0.275070
O5	O	0.776126	0.458397	-0.004935
O6	O	0.793937	0.688413	-0.279633
O7	O	0.776128	0.458398	-0.121506
O8	O	0.542395	0.701009	-0.001327
O9	O	1.027668	0.445801	-0.283241
O10	O	0.710159	0.679690	-0.111894
O11	O	0.704298	0.603994	-0.021493
O12	O	0.869859	0.595704	-0.204670
O13	O	0.863997	0.520007	-0.114269
Zr14	Zr	0.796268	0.718580	0.018033
Zr15	Zr	0.796271	0.718581	-0.167884
Zr16	Zr	0.783745	0.556812	0.025311
Zr17	Zr	0.960654	0.547953	-0.170422
Zr18	Zr	0.619362	0.727440	0.027848
O19	O	0.934550	0.681368	-0.023085
O20	O	0.934554	0.681370	-0.287435
O21	O	0.916743	0.451354	-0.012737
O22	O	0.663269	0.824037	0.134513
O23	O	0.663272	0.824039	-0.129837
O24	O	0.645462	0.594023	0.144861
O25	O	0.803890	0.816996	-0.137639
O26	O	0.793931	0.688410	0.132496
O27	O	0.786079	0.586980	0.137059
O28	O	0.803888	0.816995	-0.021068
O29	O	1.037623	0.574385	-0.289026
O30	O	0.542393	0.701008	0.146453
O31	O	0.552348	0.829592	0.140668
O32	O	0.552350	0.829593	-0.007112
O33	O	1.027666	0.445800	-0.135462
O34	O	1.037621	0.574384	-0.141247
O35	O	0.710157	0.679689	0.062097
O36	O	0.716018	0.755386	-0.028304
O37	O	0.875718	0.671399	-0.121080
O38	O	0.869856	0.595702	-0.030679
C39	C	0.568725	0.648779	-0.059009
C40	C	0.493623	0.652540	-0.054842
C41	C	0.515144	0.595366	-0.117996
C42	C	0.444592	0.598901	-0.114112
C43	C	0.352519	0.659609	-0.047070
C44	C	0.330999	0.716790	0.016087
C45	C	0.401551	0.713256	0.012199
C46	C	0.135424	0.676500	-0.028463
C47	C	0.064871	0.680027	-0.024578
C48	C	0.178470	0.562139	-0.154778
C49	C	0.249017	0.558609	-0.158658
C50	C	0.227492	0.615791	-0.095504
N51	N	0.280402	0.663224	-0.043096
N52	N	0.299609	0.612180	-0.099481
C53	C	0.774342	0.435349	-0.062183
C54	C	0.769026	0.366674	-0.059094
C55	C	0.849887	0.290570	-0.106068
C56	C	0.844886	0.226045	-0.103168
C57	C	0.759023	0.237626	-0.053288
C58	C	0.678155	0.313738	-0.006312
C59	C	0.683157	0.378261	-0.009218
C60	C	0.735124	0.049354	-0.039410
C61	C	0.730128	-0.015177	-0.036505
C62	C	0.896860	-0.102865	-0.133363
C63	C	0.901854	-0.038337	-0.136260
C64	C	0.820987	0.037769	-0.089288
N65	N	0.753909	0.171673	-0.050320
N66	N	0.826102	0.103721	-0.092261
C67	C	1.011291	0.626614	-0.083565
C68	C	1.086392	0.622853	-0.087732
C69	C	0.790011	0.637698	-0.303841
C70	C	0.790012	0.637698	-0.382767
C71	C	0.805673	0.840044	-0.080390
C72	C	0.810990	0.908719	-0.083480
C73	C	0.794340	0.693577	-0.422361
C74	C	0.794332	0.693579	-0.496516
C75	C	0.790004	0.637700	-0.531080
C76	C	0.785674	0.581819	-0.491479
C77	C	0.785674	0.581820	-0.417322
C78	C	0.785675	0.581819	-0.646049
C79	C	0.785676	0.581816	-0.720213
C80	C	0.794333	0.693578	-0.725243
C81	C	0.794334	0.693579	-0.651086
C82	C	0.790005	0.637697	-0.611491
C83	C	0.790004	0.637695	0.161267
C84	C	0.790003	0.637695	0.240194
C85	C	0.584390	0.851127	-0.068113
C86	C	0.514605	0.923563	-0.067035
C87	C	0.568721	0.648778	0.173545
C88	C	0.493619	0.652538	0.256638
C89	C	0.584387	0.851125	0.164441
C90	C	0.514601	0.923561	0.244445
C91	C	0.995629	0.424268	-0.307015
C92	C	1.065415	0.351832	-0.387019
C93	C	0.995625	0.424266	-0.074461
C94	C	1.065410	0.351830	-0.075538
C95	C	1.011294	0.626615	-0.316118
C96	C	1.086397	0.622855	-0.399212
C97	C	0.478775	0.918068	-0.110170
C98	C	0.413214	0.986123	-0.109176
C99	C	0.383480	1.059673	-0.065040
C100	C	0.419317	1.065166	-0.021904
C101	C	0.484881	0.997112	-0.022905
C102	C	0.461408	0.693817	0.339301
C103	C	0.390851	0.697347	0.417383
C104	C	0.352501	0.659603	0.412800
C105	C	0.384718	0.618320	0.330129
C106	C	0.455279	0.614785	0.252049
C107	C	0.484889	0.997097	0.234827
C108	C	0.419328	1.065164	0.309992
C109	C	0.383475	1.059694	0.394773
C110	C	0.413194	0.986149	0.404390
C111	C	0.478758	0.918084	0.329226
C112	C	1.095135	0.278295	-0.377401
C113	C	1.160718	0.210227	-0.452567
C114	C	1.196574	0.215698	-0.537349
C115	C	1.166851	0.289242	-0.546965
C116	C	1.101275	0.357308	-0.471800
C117	C	1.101248	0.357325	-0.032412
C118	C	1.166828	0.289269	-0.033428
C119	C	1.196565	0.215719	-0.077566
C120	C	1.160725	0.210226	-0.120698
C121	C	1.095150	0.278281	-0.119687
C122	C	1.124725	0.660607	-0.394601
C123	C	1.195283	0.657089	-0.472669
C124	C	1.227517	0.615813	-0.555348
C125	C	1.189182	0.578059	-0.559957
C126	C	1.118620	0.581583	-0.481889
H127	H	0.323986	0.509184	-0.213263
Br128	Br	-0.060090	0.762423	0.066413
Br129	Br	0.779790	0.505985	-0.538379
Br130	Br	0.800224	0.769413	-0.375467
H131	H	0.502985	0.858186	-0.146121
Br132	Br	0.966422	0.274843	-0.173759
Br133	Br	0.473804	0.521302	-0.199823
H134	H	0.295047	0.662487	0.476385
Br135	Br	1.046484	0.270849	-0.262349
H136	H	1.087421	0.550836	-0.485656
H137	H	1.184907	0.150351	-0.444720
H138	H	1.249970	0.160268	-0.598545
H139	H	0.364629	0.730967	0.484689
Br140	Br	0.954632	0.122761	-0.166917
Br141	Br	1.215521	0.296653	-0.662033
Br142	Br	0.800213	0.769414	-0.778984
Br143	Br	0.640097	0.512968	-0.208981
H144	H	0.395138	1.125041	0.302146
H145	H	0.384022	0.759814	0.063625
H146	H	0.782149	0.536319	-0.385084
H147	H	0.117886	0.723062	0.022961
Br148	Br	0.332662	0.567100	0.323925
H149	H	1.077077	0.417183	-0.479642
H150	H	1.077041	0.417207	0.003537
H151	H	0.195986	0.515586	-0.206196
H152	H	0.383993	0.981707	0.473429
H153	H	0.256027	0.766222	0.070670
H154	H	0.502941	0.858211	0.337070
H155	H	0.330092	1.115081	-0.064231
H156	H	0.514046	1.001597	0.012226
Br157	Br	1.215452	0.296743	0.025116
Br158	Br	1.018388	-0.054061	-0.203952
H159	H	1.284974	0.612949	-0.618909
Br160	Br	0.779793	0.505980	-0.592312
Br161	Br	0.378950	1.164990	0.037993
Br162	Br	1.006603	-0.206152	-0.197109
Br163	Br	0.294494	1.152077	0.496774
H164	H	1.249960	0.160310	-0.078383
H165	H	0.514071	1.001567	0.165800
Br166	Br	1.201089	0.110401	-0.180594
Br167	Br	0.364590	0.978649	-0.167719
Br168	Br	1.046517	0.270809	-0.178218
Br169	Br	0.613591	0.000544	0.031190
H170	H	0.492625	0.724553	0.343049
Br171	Br	0.625375	0.152633	0.024342
H172	H	1.098491	0.694218	-0.327287
H173	H	1.226488	0.687832	-0.468899
Br174	Br	0.800219	0.769409	-0.604182
H175	H	0.481495	0.581175	0.184745
Br176	Br	0.561624	0.329457	0.061377
H177	H	1.215438	0.544453	-0.627284
H178	H	0.797855	0.739080	-0.528753
Br179	Br	0.779802	0.505976	-0.767115
Br180	Br	0.573412	0.481548	0.054529
