data_functionalizedCrystal
_audit_creation_method	'MofGen! by Chris Wilmer'
_symmetry_space_group_name_H-M	'P1'
_symmetry_Int_Tables_number	1
_symmetry_cell_setting	triclinic
loop_
_symmetry_equiv_pos_as_xyz
  x,y,z
_cell_length_a	10.723023
_cell_length_b	14.044209
_cell_length_c	9.798715
_cell_angle_alpha	90.005839
_cell_angle_beta	89.996770
_cell_angle_gamma	91.172250
loop_
_atom_site_label
_atom_site_type_symbol
_atom_site_fract_x
_atom_site_fract_y
_atom_site_fract_z
O1	O	1.670496	-0.133036	-0.113487
O2	O	2.170496	0.366964	0.386513
O3	O	1.308618	-0.145772	-0.113494
O4	O	1.808618	0.354228	0.386506
O5	O	1.484127	-0.001384	-0.113471
O6	O	1.984127	0.498616	0.386529
O7	O	1.494987	-0.277424	-0.113510
O8	O	1.994987	0.222576	0.386490
O9	O	1.484112	-0.001384	0.113511
O10	O	1.984112	0.498616	0.613511
O11	O	1.308604	-0.145771	0.113488
O12	O	1.808604	0.354229	0.613488
O13	O	1.670482	-0.133036	0.113495
O14	O	2.170482	0.366964	0.613495
Zn15	Zn	1.489541	-0.139404	0.149530
Zn16	Zn	1.989541	0.360596	0.649530
Zn17	Zn	1.489559	-0.139404	-0.149529
Zn18	Zn	1.989559	0.360596	0.350471
O19	O	1.494973	-0.277424	0.113473
O20	O	1.994973	0.222576	0.613473
C21	C	1.262018	-0.144845	-0.000003
C22	C	1.762018	0.355155	0.499997
C23	C	1.123187	-0.142073	-0.000005
C24	C	1.623187	0.357927	0.499995
C25	C	1.061284	-0.140836	0.117578
C26	C	1.561284	0.359164	0.617578
C27	C	0.917794	-0.137971	0.117578
C28	C	1.417794	0.362029	0.617578
C29	C	1.479365	0.033962	0.000022
C30	C	1.979365	0.533962	0.500022
C31	C	1.465181	0.139280	0.000028
C32	C	1.965181	0.639280	0.500028
C33	C	1.439251	0.332110	0.000016
C34	C	1.939251	0.832110	0.500016
C35	C	1.539854	0.389089	0.000016
C36	C	2.039854	0.889089	0.500016
C37	C	1.525426	0.496386	0.000010
C38	C	2.025426	0.996386	0.500010
C39	C	1.453677	0.224802	0.000023
C40	C	1.953677	0.724802	0.500023
C41	C	1.717082	-0.133963	0.000002
C42	C	2.217082	0.366037	0.500002
C43	C	1.855913	-0.136735	-0.000005
C44	C	2.355913	0.363265	0.499995
N45	N	1.489537	-0.139403	0.353630
N46	N	1.989537	0.360597	0.853630
C47	C	1.499738	0.687231	-0.000013
C48	C	1.999738	1.187231	0.499987
C49	C	1.513929	0.581914	0.000004
C50	C	2.013929	1.081914	0.500004
N51	N	1.489572	-0.139398	-0.353628
N52	N	1.989572	0.360602	0.146372
C53	C	1.563201	-0.078511	0.421416
C54	C	2.063201	0.421489	0.921416
C55	C	1.563221	-0.078508	0.578579
C56	C	2.063221	0.421492	1.078579
H57	H	1.069955	-0.141007	-0.100671
H58	H	1.569955	0.358993	0.399329
H59	H	0.864558	-0.136913	0.218245
H60	H	1.364558	0.363087	0.718245
H61	H	1.114516	-0.141894	0.218244
H62	H	1.614516	0.358106	0.718244
C63	C	0.927820	-0.138170	-0.136013
C64	C	1.427820	0.361830	0.363987
N65	N	0.981989	-0.139249	-0.238453
N66	N	1.481989	0.360751	0.261547
H67	H	1.636818	0.357288	-0.000075
H68	H	2.136818	0.857288	0.499925
H69	H	1.626250	-0.026378	0.363102
H70	H	2.126250	0.473622	0.863102
C71	C	1.404348	-0.209826	0.432408
C72	C	1.904348	0.290174	0.932408
N73	N	1.340181	-0.262871	0.491742
N74	N	1.840181	0.237129	0.991742
C75	C	1.308265	0.375070	0.000034
C76	C	1.808265	0.875070	0.500034
N77	N	1.209607	0.407439	0.000058
N78	N	1.709607	0.907439	0.500058
H79	H	1.626294	-0.026379	0.636872
H80	H	2.126294	0.473621	1.136872
H81	H	1.426506	-0.191536	0.588087
H82	H	1.926506	0.308464	1.088087
