data_functionalizedCrystal
_audit_creation_method	'MofGen! by Chris Wilmer'
_symmetry_space_group_name_H-M	'P1'
_symmetry_Int_Tables_number	1
_symmetry_cell_setting	triclinic
loop_
_symmetry_equiv_pos_as_xyz
  x,y,z
_cell_length_a	17.699083
_cell_length_b	27.732048
_cell_length_c	16.176319
_cell_angle_alpha	89.988239
_cell_angle_beta	89.998611
_cell_angle_gamma	82.962835
loop_
_atom_site_label
_atom_site_type_symbol
_atom_site_fract_x
_atom_site_fract_y
_atom_site_fract_z
O1	O	1.003540	0.061127	-0.068640
O2	O	0.783091	0.069080	-0.068668
O3	O	0.900162	-0.005269	-0.068637
O4	O	0.886469	0.135475	-0.068670
O5	O	0.900146	-0.005273	0.068856
O6	O	0.783075	0.069075	0.068825
O7	O	1.003524	0.061122	0.068853
Cu8	Cu	0.893298	0.065098	0.081394
Cu9	Cu	0.893317	0.065104	-0.081208
O10	O	0.886453	0.135471	0.068823
C11	C	0.754889	0.068792	0.000075
C12	C	0.670878	0.067938	0.000065
C13	C	0.621873	0.111579	0.000055
C14	C	0.542936	0.110772	0.000066
C15	C	0.513007	0.066325	0.000081
C16	C	0.562019	0.022680	0.000094
C17	C	0.640954	0.023487	0.000089
C18	C	0.243685	0.019426	0.000115
C19	C	0.164744	0.018623	0.000117
C20	C	0.145667	0.106712	0.000092
C21	C	0.224602	0.107518	0.000087
C22	C	0.273607	0.063874	0.000104
C23	C	0.359199	0.064749	0.000094
C24	C	0.427418	0.065450	0.000085
C25	C	0.899867	-0.023279	0.000112
C26	C	0.899001	-0.076937	0.000118
C27	C	0.962734	-0.415523	0.000084
C28	C	0.959522	-0.617194	0.000072
O29	O	1.017801	-0.648240	0.000043
N30	N	0.890104	-0.636567	0.000064
C31	C	0.821484	-0.605520	0.000053
O32	O	0.762366	-0.626625	0.000038
C33	C	0.824696	-0.403849	0.000059
C34	C	0.894119	-0.384479	0.000076
C35	C	1.032151	-0.396152	0.000100
C36	C	1.032953	-0.345737	0.000107
C37	C	0.964338	-0.314693	0.000099
C38	C	0.894921	-0.334064	0.000083
C39	C	0.756076	-0.372802	0.000043
C40	C	0.756886	-0.322382	0.000042
C41	C	0.826308	-0.303012	0.000059
C42	C	0.827108	-0.252605	0.000083
N43	N	0.896526	-0.233232	0.000091
C44	C	0.965141	-0.264276	0.000099
C45	C	0.819802	-0.711400	0.000052
C46	C	0.818999	-0.761817	0.000052
C47	C	0.957038	-0.773488	0.000069
C48	C	0.957840	-0.723070	0.000075
C49	C	0.889220	-0.692026	0.000060
C50	C	0.966820	-0.158401	0.000115
C51	C	0.967616	-0.107981	0.000126
C52	C	0.829578	-0.096314	0.000105
C53	C	0.828781	-0.146730	0.000098
C54	C	0.897409	-0.177772	0.000101
O55	O	0.768860	-0.221531	0.000102
O56	O	1.024251	-0.243161	0.000096
C57	C	0.961931	-0.465938	0.000077
C58	C	0.892514	-0.485309	0.000061
C59	C	0.823899	-0.454265	0.000053
C60	C	0.891711	-0.535726	0.000061
C61	C	0.960326	-0.566770	0.000069
C62	C	1.029744	-0.547397	0.000077
C63	C	1.030546	-0.496982	0.000085
C64	C	0.754481	-0.473638	0.000045
C65	C	0.753685	-0.524053	0.000038
C66	C	0.822300	-0.555097	0.000046
C67	C	1.031726	0.061410	0.000108
C68	C	1.115737	0.062264	0.000113
C69	C	0.886748	0.153481	0.000072
C70	C	0.887614	0.207139	0.000060
N71	N	0.893290	0.065094	0.195759
N72	N	0.893331	0.065104	-0.195573
C73	C	0.945145	0.032186	0.239037
C74	C	0.945149	0.032185	0.325584
C75	C	0.893301	0.065096	0.368851
C76	C	0.841441	0.098005	0.325568
C77	C	0.841434	0.098003	0.239022
C78	C	0.841467	0.098014	0.674596
C79	C	0.841479	0.098015	0.761147
C80	C	0.945181	0.032197	0.761157
C81	C	0.945174	0.032194	0.674612
C82	C	0.893312	0.065102	0.631336
C83	C	0.893308	0.065102	0.537491
C84	C	0.893309	0.065099	0.462694
H85	H	0.537645	-0.013510	0.000118
O86	O	0.686262	-0.542890	0.000168
C87	C	0.605236	-0.593069	0.071333
C88	C	0.681607	-0.571762	0.071311
H89	H	0.601455	-0.616424	0.128837
H90	H	0.556306	-0.562235	0.071379
H91	H	0.601430	-0.616349	0.013759
H92	H	0.685487	-0.548487	0.128875
H93	H	0.730500	-0.602618	0.071222
O94	O	0.790971	0.129925	0.367560
C95	C	0.659041	0.158369	0.394012
C96	C	0.716115	0.122185	0.346420
H97	H	0.598507	0.152131	0.376925
H98	H	0.667888	0.152719	0.463312
H99	H	0.668480	0.197074	0.376988
H100	H	0.706709	0.083467	0.363375
H101	H	0.707253	0.127878	0.277132
O102	O	1.035124	-0.089246	0.000102
C103	C	1.171954	-0.106152	0.000167
C104	C	1.095560	-0.127432	0.000177
H105	H	1.220836	-0.137015	0.000244
H106	H	1.175841	-0.082849	-0.057384
H107	H	1.175736	-0.082833	0.057697
H108	H	1.091726	-0.150773	-0.057315
H109	H	1.091705	-0.150707	0.057766
H110	H	0.773714	-0.071029	0.000101
H111	H	0.987396	0.005397	0.639386
O112	O	0.995602	0.000206	0.367495
C113	C	1.098452	-0.065086	0.358372
C114	C	1.041362	-0.028889	0.310805
H115	H	1.135453	-0.088626	0.312559
H116	H	1.136064	-0.044264	0.398850
H117	H	1.066062	-0.089191	0.398931
H118	H	1.073690	-0.004775	0.270201
H119	H	1.003751	-0.049741	0.270379
H120	H	0.987408	0.005400	0.796402
O121	O	1.033464	-0.188571	-0.000024
C122	C	1.112678	-0.252272	-0.071217
C123	C	1.037187	-0.218125	-0.071178
H124	H	1.115706	-0.276182	-0.128730
H125	H	1.162454	-0.229783	-0.071256
H126	H	1.115739	-0.276153	-0.013651
H127	H	1.034052	-0.194236	-0.128734
H128	H	0.987447	-0.240642	-0.071096
H129	H	1.014370	-0.707302	0.000088
H130	H	0.105758	0.142249	0.000083
O131	O	1.098051	-0.478249	0.000058
C132	C	1.234880	-0.495165	0.000123
C133	C	1.158481	-0.516439	0.000135
H134	H	1.283757	-0.526032	0.000203
H135	H	1.238771	-0.471865	-0.057430
H136	H	1.238666	-0.471845	0.057651
H137	H	1.154643	-0.539782	-0.057354
H138	H	1.154622	-0.539712	0.057726
O139	O	0.761328	-0.165527	-0.000060
C140	C	0.643095	-0.170938	-0.071296
C141	C	0.719466	-0.149630	-0.071217
H142	H	0.609221	-0.158085	-0.128811
H143	H	0.654263	-0.212307	-0.071360
H144	H	0.609239	-0.158168	-0.013732
H145	H	0.753361	-0.162363	-0.128770
H146	H	0.708245	-0.108264	-0.071110
H147	H	0.646234	0.147773	0.000042
H148	H	0.503039	0.146309	0.000057
H149	H	0.248965	0.143712	0.000071
H150	H	1.085613	-0.572682	0.000087
O151	O	0.690157	-0.292296	0.000065
C152	C	0.553157	-0.286046	-0.000017
C153	C	0.628670	-0.320172	-0.000024
H154	H	0.503425	-0.308569	-0.000106
H155	H	0.550015	-0.262166	0.057539
H156	H	0.550133	-0.262132	-0.057543
H157	H	0.631745	-0.344116	0.057462
H158	H	0.631780	-0.344018	-0.057618
H159	H	0.140380	-0.017574	0.000131
O160	O	0.291248	-0.022982	-0.000021
C161	C	0.331661	-0.098040	-0.071208
C162	C	0.277763	-0.050023	-0.071166
H163	H	0.320767	-0.119921	-0.128714
H164	H	0.393237	-0.089864	-0.071263
H165	H	0.320845	-0.119899	-0.013635
H166	H	0.288511	-0.028141	-0.128729
H167	H	0.216205	-0.058233	-0.071068
H168	H	0.799209	0.124800	0.203786
O169	O	1.100370	-0.326900	0.000258
C170	C	1.181380	-0.276744	0.071462
C171	C	1.105008	-0.298050	0.071409
H172	H	1.185148	-0.253406	0.128972
H173	H	1.230309	-0.307579	0.071516
H174	H	1.185202	-0.253447	0.013894
H175	H	1.101112	-0.321341	0.128967
H176	H	1.056116	-0.267192	0.071312
O177	O	0.791034	0.130001	0.803051
C178	C	0.688190	0.195299	0.793913
C179	C	0.745262	0.159096	0.746355
H180	H	0.651179	0.218839	0.748095
H181	H	0.650586	0.174481	0.834424
H182	H	0.720596	0.219402	0.834438
H183	H	0.712918	0.134984	0.705784
H184	H	0.782865	0.179945	0.705895
H185	H	0.987368	0.005389	0.203814
H186	H	0.698605	-0.448366	0.000036
O187	O	0.791202	0.130007	0.632478
C188	C	0.774312	0.196062	0.534796
C189	C	0.831320	0.159846	0.582429
H190	H	0.806725	0.220203	0.494334
H191	H	0.736746	0.175256	0.494234
H192	H	0.737252	0.219563	0.580611
H193	H	0.868431	0.136336	0.536675
H194	H	0.868832	0.180681	0.623005
O195	O	1.023761	-0.803580	0.000108
C196	C	1.160762	-0.809851	0.000053
C197	C	1.085260	-0.775715	0.000037
H198	H	1.210504	-0.787336	-0.000023
H199	H	1.163886	-0.833747	0.057605
H200	H	1.163787	-0.833748	-0.057477
H201	H	1.082185	-0.751788	0.057527
H202	H	1.082168	-0.751852	-0.057553
O203	O	0.753071	-0.681316	0.000081
C204	C	0.616072	-0.675074	0.000025
C205	C	0.691589	-0.709196	0.000005
H206	H	0.566344	-0.697601	-0.000054
H207	H	0.612935	-0.651195	0.057580
H208	H	0.613035	-0.651161	-0.057501
H209	H	0.694677	-0.733140	0.057492
H210	H	0.694694	-0.733042	-0.057588
O211	O	0.688685	-0.391667	-0.000092
C212	C	0.607645	-0.441763	-0.071388
C213	C	0.684006	-0.420444	-0.071324
H214	H	0.603830	-0.465026	-0.128982
H215	H	0.603779	-0.465115	-0.013893
H216	H	0.558765	-0.410898	-0.071361
H217	H	0.732929	-0.451278	-0.071380
H218	H	0.687805	-0.397079	-0.128815
H219	H	1.088028	-0.421424	0.000103
H220	H	0.680855	-0.012050	0.000096
H221	H	0.762468	-0.777584	0.000053
