data_functionalizedCrystal
_audit_creation_method	'MofGen! by Chris Wilmer'
_symmetry_space_group_name_H-M	'P1'
_symmetry_Int_Tables_number	1
_symmetry_cell_setting	triclinic
loop_
_symmetry_equiv_pos_as_xyz
  x,y,z
_cell_length_a	10.654559
_cell_length_b	8.597304
_cell_length_c	9.730223
_cell_angle_alpha	82.298743
_cell_angle_beta	89.999563
_cell_angle_gamma	84.911587
loop_
_atom_site_label
_atom_site_type_symbol
_atom_site_fract_x
_atom_site_fract_y
_atom_site_fract_z
O1	O	1.668997	0.220525	-0.140404
O2	O	1.303632	0.241514	-0.142890
O3	O	1.493506	0.002633	-0.114601
O4	O	1.479123	0.459407	-0.168694
O5	O	1.493504	0.002639	0.113979
O6	O	1.303629	0.241521	0.085689
O7	O	1.668995	0.220531	0.088175
Zn8	Zn	1.486312	0.231027	0.123224
Zn9	Zn	1.486315	0.231019	-0.177939
O10	O	1.479121	0.459413	0.059885
C11	C	1.256825	0.239973	-0.028418
C12	C	1.117357	0.235353	-0.027871
C13	C	1.065048	0.090361	-0.010697
C14	C	0.934003	0.086030	-0.010194
C15	C	0.907587	0.371696	-0.044036
C16	C	1.038629	0.376025	-0.044548
C17	C	1.080299	-0.074566	0.008847
C18	C	0.949254	-0.078897	0.009350
C19	C	1.491960	-0.055852	0.006612
C20	C	1.487344	-0.230129	0.027242
C21	C	1.715802	0.222072	-0.026300
C22	C	1.855269	0.226692	-0.026856
C23	C	1.480666	0.517898	-0.061331
C24	C	1.485283	0.692175	-0.081970
N25	N	1.486319	0.231031	0.328760
N26	N	1.486317	0.231002	-0.383474
C27	C	1.570418	0.125291	0.413208
C28	C	1.570414	0.125272	0.557093
C29	C	1.402210	0.336748	0.532067
C30	C	1.402208	0.336758	0.388186
C31	C	1.667533	0.003201	0.427657
C32	C	1.667529	0.003182	0.571542
H33	H	0.843471	0.486225	-0.057614
H34	H	1.764183	0.030080	0.607408
N35	N	1.487546	-0.219336	-0.226747
H36	H	1.490602	-0.103202	-0.221468
H37	H	1.564421	-0.259716	-0.276468
H38	H	1.121718	-0.136721	-0.079447
N39	N	1.638287	-0.156603	0.394838
H40	H	1.552665	-0.180520	0.432231
H41	H	1.638351	-0.156548	0.291035
H42	H	1.758919	0.041434	0.378503
H43	H	1.485562	-0.296942	0.136541
H44	H	0.913346	-0.131430	-0.083126
H45	H	1.125675	-0.124389	0.113445
N46	N	1.095052	0.532408	-0.063112
H47	H	1.025291	0.620860	-0.073601
H48	H	1.148851	0.540458	0.020665
N49	N	1.311481	0.450777	0.297103
H50	H	1.258199	0.517747	0.356585
H51	H	1.360392	0.520750	0.229117
N52	N	1.626327	-0.147838	0.648537
H53	H	1.627830	-0.142335	0.751554
H54	H	1.538004	-0.162522	0.618148
N55	N	0.909881	-0.164321	0.146169
H56	H	0.986830	-0.199307	0.206865
H57	H	0.850402	-0.091247	0.193944
H58	H	1.333728	0.422826	0.580468
