data_functionalizedCrystal
_audit_creation_method	'MofGen! by Chris Wilmer'
_symmetry_space_group_name_H-M	'P1'
_symmetry_Int_Tables_number	1
_symmetry_cell_setting	triclinic
loop_
_symmetry_equiv_pos_as_xyz
  x,y,z
_cell_length_a	14.446369
_cell_length_b	14.446369
_cell_length_c	17.917603
_cell_angle_alpha	63.036187
_cell_angle_beta	90.003104
_cell_angle_gamma	59.996355
loop_
_atom_site_label
_atom_site_type_symbol
_atom_site_fract_x
_atom_site_fract_y
_atom_site_fract_z
Zr1	Zr	0.897017	1.002606	-0.093846
O2	O	0.755641	1.182840	-0.208060
O3	O	0.940363	0.813436	-0.058832
O4	O	0.948770	0.989710	-0.208054
O5	O	0.740595	1.019855	0.058869
O6	O	1.101107	0.989702	-0.208049
O7	O	0.747234	1.006566	-0.058839
O8	O	1.086068	0.674380	0.058881
O9	O	0.755634	1.335177	-0.208061
O10	O	1.072529	0.894548	-0.043897
O11	O	0.953888	0.904471	0.043944
O12	O	0.963786	1.112011	-0.131745
O13	O	0.845144	1.121934	-0.043905
Zr14	Zr	1.129389	1.023788	0.093892
Zr15	Zr	1.139977	1.002594	-0.093839
Zr16	Zr	0.886430	1.023800	0.093885
Zr17	Zr	0.897006	1.245566	-0.093847
Zr18	Zr	1.129400	0.780828	0.093893
O19	O	1.086044	1.212958	0.058878
O20	O	1.101098	1.182823	-0.208051
O21	O	0.740586	1.212976	0.058868
O22	O	1.270766	0.843553	0.208106
O23	O	1.285820	0.813418	-0.058822
O24	O	0.925308	0.843571	0.208097
O25	O	1.285812	1.006539	-0.058823
O26	O	1.077636	1.036684	0.208100
O27	O	0.925300	1.036692	0.208096
O28	O	1.279173	1.019827	0.058885
O29	O	0.948755	1.335167	-0.208056
O30	O	1.077652	0.691226	0.208102
O31	O	1.270773	0.691216	0.208107
O32	O	1.279189	0.674370	0.058887
O33	O	0.747218	1.352024	-0.058841
O34	O	0.940339	1.352014	-0.058835
O35	O	1.062621	0.914383	0.131791
O36	O	1.181262	0.904459	0.043951
O37	O	1.072519	1.121923	-0.043898
O38	O	0.953877	1.131846	0.043943
C39	C	1.013217	0.709291	0.000025
C40	C	1.013222	0.606148	0.000025
C41	C	1.088052	0.560607	-0.055385
C42	C	1.087734	0.453654	-0.055683
C43	C	0.891882	0.542429	-0.040102
C44	C	0.892320	0.649757	-0.040519
C45	C	1.058689	0.490122	0.095589
C46	C	1.061172	0.381642	0.095442
C47	C	0.709298	1.013213	0.000014
C48	C	0.606155	1.013218	0.000011
C49	C	0.390889	1.150388	-0.055115
C50	C	0.498138	1.150450	-0.055425
C51	C	0.605114	0.937423	-0.040400
C52	C	0.497368	0.938288	-0.040804
C53	C	0.491037	0.950737	0.095620
C54	C	0.597015	0.953422	0.095470
C55	C	1.317109	1.013181	0.000032
C56	C	1.420252	1.013176	0.000035
C57	C	1.026447	0.986686	-0.234799
C58	C	1.030942	0.977689	-0.314496
C59	C	1.013190	1.317102	0.000021
C60	C	1.013185	1.420245	0.000021
C61	C	1.039176	0.961254	-0.460427
C62	C	0.987234	1.065135	-0.539529
C63	C	0.991815	1.055990	-0.620731
C64	C	1.034596	0.970396	-0.379217
C65	C	0.999960	1.039707	0.234845
C66	C	0.995465	1.048705	0.314542
C67	C	1.317123	0.709276	0.000033
C68	C	1.420270	0.606127	0.000037
C69	C	0.999973	0.735802	0.234847
C70	C	0.995483	0.641657	0.314544
C71	C	1.303879	0.735786	0.234856
C72	C	1.402531	0.641636	0.314556
C73	C	0.722528	1.290608	-0.234810
C74	C	0.623875	1.384758	-0.314510
C75	C	0.709284	1.317118	0.000013
C76	C	0.606137	1.420266	0.000009
C77	C	1.026433	1.290592	-0.234801
C78	C	1.030924	1.384737	-0.314498
C79	C	1.050131	0.602619	0.397834
C80	C	1.045908	0.514174	0.472725
C81	C	0.987042	0.464761	0.464324
C82	C	0.932387	0.503807	0.381026
C83	C	0.936604	0.592257	0.306137
C84	C	1.510800	0.592242	0.306132
C85	C	1.603504	0.503790	0.381011
C86	C	1.587938	0.464727	0.464314
C87	C	1.479658	0.514130	0.472736
C88	C	1.386956	0.602587	0.397857
C89	C	0.515607	1.434164	-0.306086
C90	C	0.422903	1.522646	-0.380965
C91	C	0.438469	1.561714	-0.464268
C92	C	0.546749	1.512304	-0.472690
C93	C	0.639450	1.423831	-0.397811
C94	C	1.089800	1.434123	-0.306069
C95	C	1.094040	1.522570	-0.380946
C96	C	1.039398	1.561637	-0.464251
C97	C	0.980520	1.512242	-0.472678
C98	C	0.976286	1.423790	-0.397802
C99	C	1.635537	0.466024	0.055158
C100	C	1.528282	0.572989	0.055471
C101	C	1.421325	0.483830	0.040448
C102	C	1.529076	0.376491	0.040848
C103	C	1.535389	0.536070	-0.095577
C104	C	1.429407	0.644566	-0.095423
H105	H	0.854825	0.573232	-0.109737
H106	H	0.884459	0.463562	0.374199
C107	C	1.114871	0.656975	0.407092
H108	H	1.146793	0.621062	0.467427
H109	H	1.172577	0.638012	0.379795
H110	H	1.065165	0.745396	0.379781
H111	H	0.335409	1.209728	-0.028146
H112	H	1.663431	0.392699	0.525278
H113	H	0.928338	1.383589	-0.404677
H114	H	1.298802	0.642792	0.404729
H115	H	0.892106	0.624028	0.238321
C116	C	0.498462	1.391219	-0.214463
H117	H	0.420699	1.433339	-0.220182
H118	H	0.532039	1.303237	-0.183335
H119	H	0.532052	1.410624	-0.183351
C120	C	0.994569	0.344790	0.155875
H121	H	1.025383	0.321926	0.213043
H122	H	0.918672	0.413963	0.133509
H123	H	0.998573	0.275733	0.158364
H124	H	1.177765	0.526510	-0.028645
H125	H	1.691662	0.463574	0.374138
C126	C	1.318502	0.508050	-0.011191
H127	H	1.273907	0.593169	-0.057965
H128	H	1.342430	0.454758	-0.034146
H129	H	1.275720	0.491189	0.026681
C130	C	1.106043	0.471229	0.564342
H131	H	1.141720	0.513313	0.558612
H132	H	1.053077	0.490636	0.595466
H133	H	1.160454	0.383237	0.595463
H134	H	0.450988	0.980969	-0.111143
H135	H	0.334746	1.562861	-0.374090
H136	H	0.939321	1.160937	-0.546266
C137	C	1.704458	0.355593	0.149843
H138	H	1.721836	0.384088	0.182713
H139	H	1.662312	0.322642	0.175758
H140	H	1.771759	0.291923	0.149472
C141	C	1.462544	0.471156	0.564369
H142	H	1.384786	0.513244	0.558671
H143	H	1.496145	0.383169	0.595485
H144	H	1.496130	0.490564	0.595480
C145	C	0.321970	1.215376	-0.149800
H146	H	0.311015	1.159250	-0.155868
H147	H	0.251473	1.288058	-0.162833
H148	H	0.360923	1.238890	-0.189115
H149	H	1.177196	0.367454	-0.028797
C150	C	1.103869	0.831838	-0.451319
H151	H	1.135857	0.767857	-0.391010
H152	H	1.054131	0.823931	-0.478673
H153	H	1.161540	0.823880	-0.478653
H154	H	1.531421	0.659280	0.028368
H155	H	1.523495	0.624033	0.238309
H156	H	0.362976	1.633755	-0.525232
H157	H	1.150518	0.294642	0.125418
H158	H	1.587309	0.571828	-0.129336
C159	C	1.158793	1.576904	-0.371661
H160	H	1.190708	1.540982	-0.311322
H161	H	1.216505	1.557932	-0.398950
H162	H	1.109097	1.665325	-0.398969
C163	C	0.920337	1.555300	-0.564313
H164	H	0.884644	1.513242	-0.558618
H165	H	0.865951	1.643288	-0.595378
H166	H	0.973273	1.535937	-0.595472
H167	H	1.504543	0.342296	0.003273
H168	H	0.727605	1.383604	-0.404681
C169	C	1.710488	0.512209	0.018734
H170	H	1.724560	0.503956	-0.030430
H171	H	1.673855	0.597795	0.001378
H172	H	1.779311	0.463344	0.062784
C173	C	0.563863	1.555270	-0.564323
H174	H	0.641620	1.513183	-0.558625
H175	H	0.530263	1.535877	-0.595431
H176	H	0.530275	1.643261	-0.595441
H177	H	1.134297	1.402329	-0.238245
H178	H	1.042853	1.633662	-0.525212
H179	H	0.983616	0.392740	0.525311
C180	C	1.526217	0.533129	0.150724
H181	H	1.590995	0.451420	0.189378
H182	H	1.525091	0.590675	0.163479
H183	H	1.461293	0.532677	0.158085
H184	H	1.575461	0.293673	0.111186
H185	H	1.415264	0.453136	0.110119
C186	C	0.985333	0.529626	0.151622
H187	H	0.927284	0.616379	0.116993
H188	H	0.953555	0.482195	0.172493
H189	H	1.029908	0.514704	0.199940
C190	C	1.432375	0.762223	-0.136217
H191	H	1.428059	0.787827	-0.095253
H192	H	1.500141	0.743511	-0.151032
H193	H	1.370727	0.827936	-0.187530
C194	C	0.530504	0.801859	0.009940
H195	H	0.464939	0.801463	0.010039
H196	H	0.573952	0.759179	-0.017451
H197	H	0.573052	0.760773	0.068542
C198	C	1.326256	0.680262	-0.155438
H199	H	1.275998	0.672260	-0.122936
H200	H	1.289909	0.764456	-0.202980
H201	H	1.349339	0.625794	-0.177359
C202	C	1.501452	0.496294	-0.151349
H203	H	1.530264	0.409525	-0.116599
H204	H	1.422229	0.543628	-0.172095
H205	H	1.530952	0.511163	-0.199750
C206	C	0.613291	0.993636	-0.134521
H207	H	0.617342	1.063269	-0.149331
H208	H	0.678477	0.931836	-0.138296
H209	H	0.549077	1.020511	-0.174008
C210	C	0.842721	0.761794	-0.135501
H211	H	0.842546	0.828248	-0.136592
H212	H	0.886726	0.736704	-0.170425
H213	H	0.768276	0.789562	-0.158079
H214	H	1.057037	0.642489	-0.125461
C215	C	0.493889	1.230088	-0.018816
H216	H	0.426446	1.262699	-0.003624
H217	H	0.555955	1.179291	0.031755
H218	H	0.496616	1.297431	-0.062009
H219	H	0.833819	0.683764	-0.002758
C220	C	1.045371	0.493693	-0.150911
H221	H	1.045032	0.428388	-0.151419
H222	H	0.971655	0.567570	-0.177152
H223	H	1.093297	0.509809	-0.182911
C224	C	1.177242	0.441891	0.140913
H225	H	1.203118	0.371879	0.198489
H226	H	1.226166	0.417331	0.108367
H227	H	1.175576	0.506714	0.143853
C228	C	0.707941	0.800731	0.011242
H229	H	0.752531	0.788645	0.058016
H230	H	0.684018	0.745547	0.034194
H231	H	0.750729	0.783681	-0.026628
H232	H	0.499666	1.198720	-0.125936
C233	C	0.420900	1.017888	0.141228
H234	H	0.465171	0.978754	0.198813
H235	H	0.396496	1.103441	0.108849
H236	H	0.357761	1.012882	0.144167
C237	C	0.594012	1.028178	0.136262
H238	H	0.588472	0.991553	0.194000
H239	H	0.660552	1.026543	0.138234
H240	H	0.531140	1.112565	0.101721
C241	C	0.700583	0.818818	0.155669
H242	H	0.692793	0.785063	0.212871
H243	H	0.707276	0.768251	0.133154
H244	H	0.765591	0.820109	0.158135
C245	C	0.524981	0.814288	0.151397
H246	H	0.567741	0.777051	0.209079
H247	H	0.459717	0.813393	0.153585
H248	H	0.568443	0.768235	0.125934
H249	H	0.833934	0.524297	-0.001665
