data_functionalizedCrystal
_audit_creation_method	'MofGen! by Chris Wilmer'
_symmetry_space_group_name_H-M	'P1'
_symmetry_Int_Tables_number	1
_symmetry_cell_setting	triclinic
loop_
_symmetry_equiv_pos_as_xyz
  x,y,z
_cell_length_a	19.851628
_cell_length_b	14.628931
_cell_length_c	14.628931
_cell_angle_alpha	59.999972
_cell_angle_beta	90.003717
_cell_angle_gamma	59.998289
loop_
_atom_site_label
_atom_site_type_symbol
_atom_site_fract_x
_atom_site_fract_y
_atom_site_fract_z
Zr1	Zr	0.648978	1.000475	-0.119855
O2	O	0.541411	1.191198	-0.265834
O3	O	0.681953	0.809764	-0.075105
O4	O	0.681953	1.000470	-0.265811
O5	O	0.541412	1.000492	0.075304
O6	O	0.792815	1.000452	-0.265792
O7	O	0.541411	1.000492	-0.075128
O8	O	0.792815	0.659315	0.075346
O9	O	0.541411	1.341630	-0.265834
O10	O	0.778751	0.888189	-0.056006
O11	O	0.696017	0.888202	0.056246
O12	O	0.696016	1.112733	-0.168285
O13	O	0.613282	1.112746	-0.056033
Zr14	Zr	0.825790	1.000447	0.120096
Zr15	Zr	0.825790	1.000447	-0.119826
Zr16	Zr	0.648978	1.000475	0.120066
Zr17	Zr	0.648978	1.240397	-0.119856
Zr18	Zr	0.825790	0.760525	0.120096
O19	O	0.792815	1.191158	0.075345
O20	O	0.792815	1.191158	-0.265793
O21	O	0.541412	1.191198	0.075304
O22	O	0.933357	0.809724	0.266074
O23	O	0.933356	0.809724	-0.075063
O24	O	0.681953	0.809764	0.266033
O25	O	0.933357	1.000430	-0.075063
O26	O	0.792815	1.000452	0.266051
O27	O	0.681954	1.000470	0.266033
O28	O	0.933357	1.000430	0.075368
O29	O	0.681953	1.341607	-0.265811
O30	O	0.792815	0.659315	0.266051
O31	O	0.933357	0.659292	0.266075
O32	O	0.933356	0.659292	0.075369
O33	O	0.541412	1.341630	-0.075129
O34	O	0.681953	1.341607	-0.075105
O35	O	0.778752	0.888189	0.168526
O36	O	0.861486	0.888176	0.056274
O37	O	0.778752	1.112720	-0.056006
O38	O	0.696017	1.112733	0.056246
C39	C	0.737384	0.700356	0.000121
C40	C	0.737384	0.598503	0.000121
C41	C	0.516220	1.000496	0.000084
C42	C	0.441158	1.000508	0.000071
C43	C	0.778426	0.553087	-0.055564
C44	C	0.778426	0.447817	-0.055565
C45	C	0.214703	1.122911	-0.061111
C46	C	0.192341	1.061711	-0.105469
C47	C	0.303752	1.000475	0.000103
C48	C	0.192372	1.061682	0.044441
C49	C	0.171020	1.000451	0.000134
C50	C	0.282379	0.939274	-0.044317
C51	C	0.282407	0.939263	0.105652
C52	C	0.260099	0.877974	0.061320
C53	C	0.380214	1.000492	0.000083
C54	C	0.094562	1.000425	0.000152
C55	C	0.958549	1.000426	0.000157
C56	C	1.033610	1.000414	0.000169
C57	C	0.737384	1.000461	-0.299985
C58	C	0.737383	1.000461	-0.401838
C59	C	0.737384	1.300566	0.000120
C60	C	0.737384	1.402419	0.000120
C61	C	0.795426	1.000452	-0.447238
C62	C	0.795427	1.000452	-0.552508
C63	C	0.737385	1.000461	0.300225
C64	C	0.737385	1.000461	0.402078
C65	C	0.958548	0.700320	0.000157
C66	C	1.033609	0.598456	0.000170
C67	C	0.737384	0.700356	0.300226
C68	C	0.737384	0.598503	0.402079
C69	C	0.958549	0.700320	0.300262
C70	C	1.033610	0.598456	0.402128
C71	C	0.516219	1.300601	-0.300022
C72	C	0.441158	1.402466	-0.401887
C73	C	0.516220	1.300601	0.000083
C74	C	0.441159	1.402466	0.000071
C75	C	0.737384	1.300566	-0.299986
C76	C	0.737384	1.402419	-0.401839
C77	C	1.025672	0.550626	-0.058443
C78	C	1.096193	0.454926	-0.058454
C79	C	1.174651	0.407051	0.000156
C80	C	1.182587	0.454891	0.058770
C81	C	1.112066	0.550595	0.058774
C82	C	1.112054	0.550612	0.391371
C83	C	1.182588	0.454912	0.487075
C84	C	1.174678	0.407052	0.593535
C85	C	1.096226	0.454905	0.604290
C86	C	1.025693	0.550609	0.508587
C87	C	0.362714	1.450322	-0.391130
C88	C	0.292180	1.546051	-0.486834
C89	C	0.300090	1.593917	-0.593295
C90	C	0.378542	1.546057	-0.604050
C91	C	0.449075	1.450336	-0.508347
C92	C	0.449096	1.450306	0.058674
C93	C	0.378575	1.546032	0.058658
C94	C	0.300117	1.593910	0.000045
C95	C	0.292181	1.546066	-0.058565
C96	C	0.362702	1.450349	-0.058555
C97	C	0.778426	0.553087	0.503186
C98	C	0.778427	0.447817	0.608458
H99	H	0.813567	0.592132	-0.103232
H100	H	1.232117	0.329123	0.671454
C101	C	0.535393	1.397665	0.123151
N102	N	0.600391	1.358028	0.171712
H103	H	1.089797	0.415922	0.690983
H104	H	0.228308	1.585002	-0.478056
C105	C	0.825898	0.395056	-0.119972
N106	N	0.861655	0.355312	-0.168484
C107	C	0.689912	0.455173	0.064530
N108	N	0.654157	0.494913	0.113046
C109	C	0.222550	1.699197	0.000051
N110	N	0.164130	1.778496	0.000064
H111	H	1.089716	0.415987	-0.106185
C112	C	0.939375	0.603277	-0.122930
N113	N	0.874377	0.642934	-0.171512
C114	C	0.285225	0.738007	0.131251
N115	N	0.304147	0.632587	0.183915
C116	C	0.334848	0.869446	0.226185
N117	N	0.374348	0.816878	0.316967
C118	C	0.939406	0.603224	0.520439
N119	N	0.874416	0.642851	0.529375
C120	C	1.268898	0.402205	0.123245
N121	N	1.333910	0.362512	0.171815
C122	C	1.268878	0.402280	0.475219
N123	N	1.333869	0.362636	0.466286
H124	H	0.356258	1.411355	-0.304453
H125	H	0.385053	1.584971	0.106389
C126	C	0.387230	1.598712	-0.721168
N127	N	0.393771	1.638366	-0.809383
H128	H	0.845120	1.000437	-0.408170
H129	H	0.228292	1.585063	-0.106286
H130	H	0.702249	0.559447	0.047796
C131	C	0.670253	1.000465	-0.454607
N132	N	0.619688	1.000467	-0.494351
H133	H	0.702244	0.559455	0.393453
H134	H	0.512946	1.411373	-0.517119
C135	C	1.120776	0.603248	0.274272
N136	N	1.127352	0.642894	0.186077
C137	C	0.189786	1.262763	-0.131145
N138	N	0.171022	1.368096	-0.183898
H139	H	0.153531	1.113457	-0.194719
H140	H	0.687687	1.000476	-0.558889
C141	C	0.139960	1.131617	0.095089
N142	N	0.100483	1.184300	0.133229
H143	H	0.321074	0.887565	-0.081905
C144	C	0.353957	1.397720	-0.123012
N145	N	0.347364	1.358083	-0.171563
H146	H	0.845117	1.000451	-0.591553
C147	C	0.689925	0.455156	0.480991
N148	N	0.654182	0.494880	0.392730
H149	H	1.232066	0.329122	0.000145
C150	C	0.222493	1.699203	-0.698561
N151	N	0.164044	1.778499	-0.777844
H152	H	1.118541	0.589526	0.106510
H153	H	0.813560	0.592144	0.511812
H154	H	0.813566	0.408759	0.695194
