data_functionalizedCrystal
_audit_creation_method	'MofGen! by Chris Wilmer'
_symmetry_space_group_name_H-M	'P1'
_symmetry_Int_Tables_number	1
_symmetry_cell_setting	triclinic
loop_
_symmetry_equiv_pos_as_xyz
  x,y,z
_cell_length_a	17.699083
_cell_length_b	17.699083
_cell_length_c	16.176319
_cell_angle_alpha	89.992304
_cell_angle_beta	89.998611
_cell_angle_gamma	83.283015
loop_
_atom_site_label
_atom_site_type_symbol
_atom_site_fract_x
_atom_site_fract_y
_atom_site_fract_z
O1	O	1.004079	0.095713	-0.068632
O2	O	1.504079	0.595713	0.431368
O3	O	0.783700	0.108166	-0.068660
O4	O	1.283700	0.608166	0.431340
O5	O	0.900116	-0.008250	-0.068638
O6	O	1.400116	0.491750	0.431362
O7	O	0.887663	0.212129	-0.068654
O8	O	1.387663	0.712129	0.431346
O9	O	0.900100	-0.008257	0.068855
O10	O	1.400100	0.491743	0.568855
O11	O	0.783684	0.108158	0.068834
O12	O	1.283684	0.608158	0.568834
O13	O	1.004063	0.095706	0.068861
O14	O	1.504063	0.595706	0.568861
Cu15	Cu	0.893872	0.101931	0.081401
Cu16	Cu	1.393872	0.601931	0.581401
Cu17	Cu	0.893891	0.101940	-0.081200
Cu18	Cu	1.393891	0.601940	0.418800
O19	O	0.887647	0.212121	0.068839
O20	O	1.387647	0.712121	0.568839
C21	C	0.755495	0.107716	0.000084
C22	C	1.255495	0.607716	0.500084
C23	C	0.671477	0.106377	0.000073
C24	C	1.171477	0.606377	0.500073
C25	C	0.622856	0.174710	0.000069
C26	C	1.122856	0.674710	0.500069
C27	C	0.543913	0.173448	0.000079
C28	C	1.043913	0.673448	0.500079
C29	C	0.513592	0.103852	0.000089
C30	C	1.013592	0.603852	0.500089
C31	C	0.562219	0.035513	0.000096
C32	C	1.062219	0.535513	0.500096
C33	C	0.641161	0.036776	0.000091
C34	C	1.141161	0.536776	0.500091
C35	C	0.243856	0.030418	0.000117
C36	C	0.743856	0.530418	0.500117
C37	C	0.164908	0.029160	0.000120
C38	C	0.664908	0.529160	0.500120
C39	C	0.146608	0.167090	0.000105
C40	C	0.646608	0.667090	0.500105
C41	C	0.225550	0.168353	0.000100
C42	C	0.725550	0.668353	0.500100
C43	C	0.274170	0.100015	0.000112
C44	C	0.774170	0.600015	0.500112
C45	C	0.359769	0.101384	0.000102
C46	C	0.859769	0.601384	0.500102
C47	C	0.427995	0.102481	0.000093
C48	C	0.927995	0.602481	0.500093
C49	C	0.899662	-0.036451	0.000109
C50	C	1.399662	0.463549	0.500109
C51	C	0.898323	-0.120469	0.000109
C52	C	1.398323	0.379531	0.500109
C53	C	0.966656	-0.169090	0.000119
C54	C	1.466656	0.330910	0.500119
C55	C	0.965394	-0.248033	0.000111
C56	C	1.465394	0.251967	0.500111
C57	C	0.895798	-0.278354	0.000100
C58	C	1.395798	0.221646	0.500100
C59	C	0.827459	-0.229727	0.000088
C60	C	1.327459	0.270273	0.500088
C61	C	0.828722	-0.150785	0.000089
C62	C	1.328722	0.349215	0.500089
C63	C	0.822364	-0.548090	0.000080
C64	C	1.322364	-0.048090	0.500080
C65	C	0.821106	-0.627038	0.000081
C66	C	1.321106	-0.127038	0.500081
C67	C	0.959036	-0.645338	0.000102
C68	C	1.459036	-0.145338	0.500102
C69	C	0.960299	-0.566396	0.000104
C70	C	1.460299	-0.066396	0.500104
C71	C	0.891961	-0.517776	0.000087
C72	C	1.391961	-0.017776	0.500087
C73	C	0.893330	-0.432177	0.000094
C74	C	1.393330	0.067823	0.500094
C75	C	0.894427	-0.363951	0.000099
C76	C	1.394427	0.136049	0.500099
C77	C	1.032268	0.096156	0.000116
C78	C	1.532268	0.596156	0.500116
C79	C	1.116286	0.097494	0.000121
C80	C	1.616286	0.597494	0.500121
C81	C	0.888102	0.240322	0.000091
C82	C	1.388102	0.740322	0.500091
C83	C	0.889440	0.324340	0.000085
C84	C	1.389440	0.824340	0.500085
N85	N	0.893864	0.101925	0.195767
N86	N	1.393864	0.601925	0.695767
N87	N	0.893905	0.101941	-0.195565
N88	N	1.393905	0.601941	0.304435
C89	C	0.945429	0.050397	0.239040
C90	C	1.445429	0.550397	0.739040
C91	C	0.945432	0.050396	0.325588
C92	C	1.445432	0.550396	0.825588
C93	C	0.893875	0.101927	0.368859
C94	C	1.393875	0.601927	0.868859
C95	C	0.842305	0.153457	0.325579
C96	C	1.342305	0.653457	0.825579
C97	C	0.842299	0.153454	0.239034
C98	C	1.342299	0.653454	0.739034
C99	C	0.842331	0.153472	0.674608
C100	C	1.342331	0.653472	1.174608
C101	C	0.842344	0.153473	0.761159
C102	C	1.342344	0.653473	1.261159
C103	C	0.945465	0.050414	0.761161
C104	C	1.445465	0.550414	1.261161
C105	C	0.945458	0.050410	0.674616
C106	C	1.445458	0.550410	1.174616
C107	C	0.893886	0.101937	0.631344
C108	C	1.393886	0.601937	1.131344
C109	C	0.893882	0.101937	0.537499
C110	C	1.393882	0.601937	1.037499
C111	C	0.893883	0.101932	0.462702
C112	C	1.393883	0.601932	0.962702
H113	H	0.537526	-0.021154	0.000116
H114	H	1.037526	0.478846	0.500116
O115	O	1.034282	-0.139675	-0.000019
O116	O	1.534282	0.360325	0.499981
C117	C	1.075943	-0.164541	-0.071214
C118	C	1.575943	0.335459	0.428786
H119	H	1.035246	-0.180880	-0.120988
H120	H	1.535246	0.319120	0.379012
H121	H	1.108059	-0.116775	-0.095114
H122	H	1.608059	0.383225	0.404886
H123	H	1.118211	-0.216072	-0.055112
H124	H	1.618211	0.283928	0.444888
O125	O	1.031755	-0.295291	-0.000026
O126	O	1.531755	0.204709	0.499974
C127	C	1.035157	-0.341502	-0.071229
C128	C	1.535157	0.158498	0.428771
H129	H	0.996406	-0.312512	-0.121003
H130	H	1.496406	0.187488	0.378997
H131	H	1.096143	-0.350482	-0.095122
H132	H	1.596143	0.149518	0.404878
H133	H	1.015676	-0.398877	-0.055138
H134	H	1.515676	0.101123	0.444862
H135	H	0.800357	0.195437	0.796390
H136	H	1.300357	0.695437	1.296390
O137	O	0.688286	-0.029673	0.000055
O138	O	1.188286	0.470327	0.500055
C139	C	0.644599	-0.091372	0.000083
C140	C	1.144599	0.408628	0.500083
H141	H	0.585642	-0.072053	-0.025946
H142	H	1.085642	0.427947	0.474054
H143	H	0.673808	-0.139240	-0.039832
H144	H	1.173808	0.360760	0.460168
H145	H	0.639020	-0.112716	0.066048
H146	H	1.139020	0.387284	0.566048
O147	O	0.652181	0.242384	0.000095
O148	O	1.152181	0.742384	0.500095
C149	C	0.592334	0.302425	0.000074
C150	C	1.092334	0.802425	0.500074
H151	H	0.538747	0.281304	0.026109
H152	H	1.038747	0.781304	0.526109
H153	H	0.608742	0.351023	0.039986
H154	H	1.108742	0.851023	0.539986
H155	H	0.581121	0.323500	-0.065890
H156	H	1.081121	0.823500	0.434110
O157	O	1.027858	-0.536854	0.000002
O158	O	1.527858	-0.036854	0.500002
C159	C	1.032728	-0.491747	-0.071217
C160	C	1.532728	0.008253	0.428783
H161	H	0.973040	-0.471972	-0.094962
H162	H	1.473040	0.028028	0.405038
H163	H	1.062803	-0.440109	-0.055200
H164	H	1.562803	0.059891	0.444800
H165	H	1.066280	-0.526681	-0.121077
H166	H	1.566280	-0.026681	0.378923
H167	H	0.770792	-0.254420	0.000073
H168	H	1.270792	0.245580	0.500073
H169	H	0.504328	0.229092	0.000075
H170	H	1.004328	0.729092	0.500075
H171	H	0.773078	-0.111198	0.000081
H172	H	1.273078	0.388802	0.500081
H173	H	1.014680	-0.684934	0.000111
H174	H	1.514680	-0.184934	0.500111
H175	H	0.250232	0.225025	0.000089
H176	H	0.750232	0.725025	0.500089
H177	H	0.107012	0.222734	0.000100
H178	H	0.607012	0.722734	0.500100
O179	O	0.135328	-0.038384	0.000098
O180	O	0.635328	0.461616	0.500098
C181	C	0.055226	-0.024841	0.000116
C182	C	0.555226	0.475159	0.500116
H183	H	0.036583	0.034258	-0.025925
H184	H	0.536583	0.534258	0.474075
H185	H	0.031066	-0.069365	-0.039793
H186	H	0.531066	0.430635	0.460207
H187	H	0.033256	-0.028464	0.066080
H188	H	0.533256	0.471536	0.566080
H189	H	0.764429	-0.651721	0.000074
H190	H	1.264429	-0.151721	0.500074
H191	H	0.800309	0.195412	0.203801
H192	H	1.300309	0.695412	0.703801
H193	H	0.800323	0.195413	0.360816
H194	H	1.300323	0.695413	0.860816
O195	O	0.755913	-0.500975	0.000112
O196	O	1.255913	-0.000975	0.500112
C197	C	0.694218	-0.544668	0.000088
C198	C	1.194218	-0.044668	0.500088
H199	H	0.713539	-0.603627	0.026117
H200	H	1.213539	-0.103627	0.526117
H201	H	0.646345	-0.515467	0.040004
H202	H	1.146345	-0.015467	0.540004
H203	H	0.672881	-0.550242	-0.065876
H204	H	1.172881	-0.050242	0.434124
O205	O	0.995541	0.000266	0.197138
O206	O	1.495541	0.500266	0.697138
C207	C	1.041065	-0.045202	0.253896
C208	C	1.541065	0.454798	0.753896
H209	H	1.010041	-0.046014	0.315592
H210	H	1.510041	0.453986	0.815592
H211	H	1.052724	-0.105662	0.228902
H212	H	1.552724	0.394338	0.728902
H213	H	1.097241	-0.020696	0.263089
H214	H	1.597241	0.479304	0.763089
O215	O	0.995423	0.000269	0.367656
O216	O	1.495423	0.500269	0.867656
C217	C	0.954994	-0.046370	0.417746
C218	C	1.454994	0.453630	0.917746
H219	H	0.895308	-0.047579	0.391677
H220	H	1.395308	0.452421	0.891677
H221	H	0.985993	-0.106566	0.418728
H222	H	1.485993	0.393434	0.918728
H223	H	0.950990	-0.022681	0.483336
H224	H	1.450990	0.477319	0.983336
H225	H	0.987444	0.008451	0.639387
H226	H	1.487444	0.508451	1.139387
O227	O	0.290971	-0.036033	0.000088
O228	O	0.790971	0.463967	0.500088
C229	C	0.247278	-0.097728	0.000116
C230	C	0.747278	0.402272	0.500116
H231	H	0.188324	-0.078405	-0.025917
H232	H	0.688324	0.421595	0.474083
H233	H	0.276486	-0.145599	-0.039795
H234	H	0.776486	0.354401	0.460205
H235	H	0.241693	-0.119068	0.066081
H236	H	0.741693	0.380932	0.566081
O237	O	0.995524	0.000247	0.803108
O238	O	1.495524	0.500247	1.303108
C239	C	0.983348	-0.074661	0.781987
C240	C	1.483348	0.425339	1.281987
H241	H	0.954173	-0.074530	0.719152
H242	H	1.454173	0.425470	1.219152
H243	H	1.040307	-0.112007	0.779027
H244	H	1.540307	0.387993	1.279027
H245	H	0.945722	-0.098020	0.830702
H246	H	1.445722	0.401980	1.330702
H247	H	0.800341	0.195428	0.639382
H248	H	1.300341	0.695428	1.139382
