data_functionalizedCrystal
_audit_creation_method	'MofGen! by Chris Wilmer'
_symmetry_space_group_name_H-M	'P1'
_symmetry_Int_Tables_number	1
_symmetry_cell_setting	triclinic
loop_
_symmetry_equiv_pos_as_xyz
  x,y,z
_cell_length_a	16.992694
_cell_length_b	14.519709
_cell_length_c	16.053802
_cell_angle_alpha	92.569364
_cell_angle_beta	87.249047
_cell_angle_gamma	87.174184
loop_
_atom_site_label
_atom_site_type_symbol
_atom_site_fract_x
_atom_site_fract_y
_atom_site_fract_z
O1	O	1.043963	0.191936	-0.069327
O2	O	0.815676	0.189789	-0.069352
O3	O	0.935872	0.057059	-0.069332
O4	O	0.923768	0.324666	-0.069348
O5	O	0.929256	0.064333	0.069526
O6	O	0.809060	0.197063	0.069506
O7	O	1.037348	0.199210	0.069530
Zn8	Zn	0.922154	0.199291	0.091565
Zn9	Zn	0.930870	0.189708	-0.091386
O10	O	0.917152	0.331940	0.069510
C11	C	0.783152	0.190666	0.000074
C12	C	0.696097	0.182430	0.000065
C13	C	0.932000	0.026296	0.000097
C14	C	0.930309	-0.076207	0.000098
C15	C	0.645968	0.261890	0.000061
C16	C	0.564170	0.254147	0.000073
C17	C	0.532503	0.166943	0.000083
C18	C	0.582638	0.087478	0.000089
C19	C	0.664434	0.095222	0.000083
C20	C	0.288859	0.134847	0.000107
C21	C	0.207056	0.127109	0.000111
C22	C	0.188594	0.293779	0.000095
C23	C	0.270393	0.301515	0.000084
C24	C	0.320520	0.222050	0.000095
N25	N	0.448892	0.159027	0.000092
N26	N	0.404129	0.229968	0.000092
C27	C	0.924087	-0.451551	0.000075
C28	C	0.925815	-0.347118	0.000082
C29	C	0.927198	-0.263882	0.000087
C30	C	0.928926	-0.159443	0.000092
C31	C	1.069872	0.198333	0.000103
C32	C	1.156927	0.206569	0.000106
C33	C	0.921024	0.362703	0.000079
C34	C	0.922715	0.465206	0.000073
N35	N	0.916210	0.205832	0.216424
N36	N	0.936820	0.183161	-0.216246
C37	C	0.967373	0.149377	0.260127
C38	C	0.963222	0.153962	0.347533
C39	C	0.907913	0.215006	0.391235
C40	C	0.856746	0.271462	0.347526
C41	C	0.860893	0.266872	0.260121
C42	C	0.889799	0.235027	0.652641
C43	C	0.885658	0.239615	0.740052
C44	C	0.992134	0.122113	0.740053
C45	C	0.996279	0.117533	0.652646
C46	C	0.945109	0.173985	0.608945
N47	N	0.903672	0.219695	0.480578
N48	N	0.949347	0.169291	0.519604
H49	H	0.671745	0.332900	0.000052
H50	H	0.819230	0.312842	0.224539
H51	H	0.848135	0.280995	0.617067
H52	H	1.004882	0.107992	0.383115
H53	H	0.147771	0.358475	0.000088
H54	H	0.523358	0.318852	0.000068
C55	C	1.047551	0.060704	0.787548
C56	C	1.003319	0.003757	0.837723
C57	C	1.054341	-0.052839	0.881480
H58	H	1.078639	0.097994	0.821704
H59	H	1.081072	0.023636	0.749031
H60	H	0.969812	0.040821	0.876236
H61	H	0.972233	-0.033552	0.803588
H62	H	1.087862	-0.089907	0.842963
H63	H	1.085426	-0.015541	0.915631
H64	H	1.024338	-0.091490	0.915523
H65	H	0.811708	0.321162	0.383113
C66	C	0.304618	0.396280	0.000121
C67	C	0.243207	0.464214	0.000142
C68	C	0.274705	0.551523	0.000184
H69	H	0.338431	0.400360	-0.048291
H70	H	0.333820	0.405350	0.048561
H71	H	0.214018	0.455148	-0.048293
H72	H	0.209389	0.460165	0.048550
H73	H	0.303906	0.560593	0.048624
H74	H	0.308517	0.555593	-0.048228
H75	H	0.233043	0.597627	0.000207
C76	C	0.172823	0.032344	0.000163
C77	C	0.234228	-0.035591	0.000192
C78	C	0.202722	-0.122892	0.000248
H79	H	0.143612	0.023194	-0.048247
H80	H	0.139015	0.028353	0.048605
H81	H	0.268022	-0.031602	-0.048245
H82	H	0.263444	-0.026471	0.048599
H83	H	0.168914	-0.126884	0.048689
H84	H	0.173511	-0.132033	-0.048163
H85	H	0.244379	-0.168996	0.000275
H86	H	0.556847	0.016475	0.000110
C87	C	0.343372	0.048640	-0.000023
C88	C	0.394277	0.044483	-0.071454
C89	C	0.444515	-0.034917	-0.071599
H90	H	0.312892	-0.004471	-0.000063
H91	H	0.373413	0.050720	0.048373
H92	H	0.364239	0.042395	-0.119838
H93	H	0.424774	0.097574	-0.071429
H94	H	0.474555	-0.032837	-0.023203
H95	H	0.414029	-0.088021	-0.071638
H96	H	0.479064	-0.037744	-0.120060
H97	H	0.705249	0.030517	0.000086
H98	H	0.840616	0.289328	0.775630
H99	H	1.041316	0.067826	0.617066
C100	C	1.027452	0.083007	0.212834
C101	C	1.071354	0.034530	0.269819
C102	C	1.126698	-0.026631	0.226287
H103	H	1.061833	0.116719	0.178724
H104	H	1.000828	0.040675	0.178766
H105	H	1.097976	0.076856	0.303873
H106	H	1.036994	0.000800	0.303931
H107	H	1.100074	-0.068962	0.192219
H108	H	1.161073	0.007089	0.192179
H109	H	1.156487	-0.059535	0.264945
