data_functionalizedCrystal
_audit_creation_method	'MofGen! by Chris Wilmer'
_symmetry_space_group_name_H-M	'P1'
_symmetry_Int_Tables_number	1
_symmetry_cell_setting	triclinic
loop_
_symmetry_equiv_pos_as_xyz
  x,y,z
_cell_length_a	14.908571
_cell_length_b	16.120444
_cell_length_c	14.908308
_cell_angle_alpha	84.013251
_cell_angle_beta	89.824947
_cell_angle_gamma	89.788391
loop_
_atom_site_label
_atom_site_type_symbol
_atom_site_fract_x
_atom_site_fract_y
_atom_site_fract_z
Zn1	Zn	1.320089	-0.434924	0.609966
Zn2	Zn	1.321029	-0.566746	0.466391
Zn3	Zn	1.179332	-0.418916	0.450140
Zn4	Zn	1.162114	-0.565756	0.607991
O5	O	1.245641	-0.496586	0.533622
O6	O	1.445627	-0.459524	0.598548
O7	O	1.309832	-0.540851	0.338087
O8	O	1.204815	-0.304419	0.465366
O9	O	1.446318	-0.556373	0.493063
O10	O	1.308229	-0.316180	0.582790
O11	O	1.205727	-0.432242	0.326147
O12	O	1.051634	-0.431281	0.463452
O13	O	1.175471	-0.554686	0.734401
O14	O	1.038984	-0.539164	0.579424
O15	O	1.291534	-0.458564	0.735852
O16	O	1.293136	-0.683236	0.491149
O17	O	1.176382	-0.682508	0.595182
C18	C	1.012791	-0.483379	0.519461
C19	C	0.913174	-0.477750	0.513425
C20	C	0.712859	-0.579668	0.622700
C21	C	0.619260	-0.574382	0.617032
C22	C	0.632375	-0.461888	0.496427
C23	C	0.725974	-0.467174	0.502095
C24	C	0.766213	-0.526067	0.565232
C25	C	0.859814	-0.531357	0.570895
C26	C	0.872926	-0.418859	0.450295
C27	C	0.779327	-0.413573	0.444627
C28	C	1.233016	-0.713113	0.544736
C29	C	1.227696	-0.805750	0.549525
C30	C	1.273450	-1.016974	0.508982
C31	C	1.217997	-0.975356	0.558281
C32	C	1.223395	-0.880979	0.553408
C33	C	1.268053	-1.111360	0.513854
C34	C	1.479400	-0.509845	0.547839
C35	C	1.579014	-0.515495	0.553897
C36	C	1.231477	-0.508300	0.768750
C37	C	1.225441	-0.513292	0.868948
C38	C	1.258338	-0.279215	0.522486
C39	C	1.263749	-0.186585	0.517740
C40	C	1.259805	-0.484860	0.299408
C41	C	1.266028	-0.479643	0.199210
C42	C	1.334954	-0.422562	1.058741
C43	C	1.329286	-0.427249	1.152885
C44	C	1.208432	-0.527350	1.151383
C45	C	1.214101	-0.522663	1.057238
C46	C	1.277364	-0.470267	1.010921
C47	C	1.283036	-0.465585	0.916775
C48	C	1.162179	-0.565681	0.915273
C49	C	1.156511	-0.570368	1.009418
H50	H	0.746551	-0.365623	0.393225
C51	C	1.098827	-0.618161	0.862663
N52	N	1.051113	-0.657690	0.823037
H53	H	1.166469	-1.010605	0.604146
C54	C	1.343051	-0.969355	0.447016
N55	N	1.395470	-0.933478	0.400340
C56	C	1.392641	-0.374771	1.205485
N57	N	1.440363	-0.335243	1.245102
C58	C	0.560575	-0.633353	0.680245
N59	N	0.516372	-0.677774	0.727858
H60	H	1.334550	-0.422923	0.879065
H61	H	1.386470	-0.379904	1.021029
C62	C	1.138827	-0.584958	1.202346
N63	N	1.086394	-0.628343	1.240732
C64	C	1.086918	-0.627994	1.060377
N65	N	1.034499	-0.671398	1.098759
H66	H	0.892574	-0.579312	0.622304
C67	C	0.757124	-0.644453	0.692147
N68	N	0.790463	-0.693249	0.744458
H69	H	0.916377	-0.375215	0.403499
C70	C	0.588095	-0.397104	0.426990
N71	N	0.554742	-0.348306	0.374691
