data_functionalizedCrystal
_audit_creation_method	'MofGen! by Chris Wilmer'
_symmetry_space_group_name_H-M	'P1'
_symmetry_Int_Tables_number	1
_symmetry_cell_setting	triclinic
loop_
_symmetry_equiv_pos_as_xyz
  x,y,z
_cell_length_a	15.298068
_cell_length_b	25.639239
_cell_length_c	15.296720
_cell_angle_alpha	80.361793
_cell_angle_beta	91.645182
_cell_angle_gamma	99.698099
loop_
_atom_site_label
_atom_site_type_symbol
_atom_site_fract_x
_atom_site_fract_y
_atom_site_fract_z
Zn1	Zn	1.253305	-0.155542	0.727332
Zn2	Zn	1.278533	-0.225763	0.580848
Zn3	Zn	1.132187	-0.150461	0.555499
Zn4	Zn	1.106749	-0.255075	0.701865
O5	O	1.192693	-0.196710	0.641386
O6	O	1.379232	-0.154716	0.729167
O7	O	1.280325	-0.201381	0.454927
O8	O	1.148341	-0.077966	0.578343
O9	O	1.397767	-0.206307	0.621546
O10	O	1.237326	-0.081699	0.704587
O11	O	1.172804	-0.146057	0.436303
O12	O	1.006232	-0.174479	0.553649
O13	O	1.104985	-0.256265	0.827802
O14	O	0.987542	-0.251338	0.661183
O15	O	1.212659	-0.183138	0.846512
O16	O	1.255658	-0.302820	0.596852
O17	O	1.129449	-0.324356	0.685763
C18	C	0.965103	-0.215539	0.601903
C19	C	0.867736	-0.223609	0.585032
C20	C	0.554612	-0.139164	0.761964
C21	C	0.646093	-0.131584	0.777819
C22	C	0.701508	-0.154589	0.729624
C23	C	0.665433	-0.185176	0.665570
C24	C	0.573943	-0.192761	0.649718
C25	C	0.720839	-0.208186	0.617378
C26	C	0.684764	-0.238773	0.553324
C27	C	0.593282	-0.246355	0.537475
C28	C	0.537867	-0.223350	0.585670
C29	C	0.812329	-0.200602	0.633230
C30	C	0.831660	-0.254198	0.520984
C31	C	0.740179	-0.261778	0.505129
C32	C	1.192551	-0.332560	0.641318
C33	C	1.192565	-0.390674	0.641332
C34	C	1.126969	-0.653085	0.687662
C35	C	1.126938	-0.598482	0.687647
O36	O	1.071027	-0.579791	0.726984
N37	N	1.192667	-0.559944	0.641397
C38	C	1.258437	-0.576012	0.595167
O39	O	1.314343	-0.538219	0.555827
C40	C	1.258471	-0.630614	0.595189
C41	C	1.192732	-0.669149	0.641434
C42	C	1.061235	-0.691619	0.733905
C43	C	1.061265	-0.746218	0.733919
C44	C	1.127029	-0.762283	0.687691
C45	C	1.192762	-0.723748	0.641448
C46	C	1.324243	-0.646680	0.548965
C47	C	1.324272	-0.701287	0.548991
C48	C	1.258533	-0.739823	0.595236
C49	C	1.258555	-0.794411	0.595234
N50	N	1.192825	-0.832949	0.641484
C51	C	1.127062	-0.816885	0.687712
C52	C	1.258363	-0.461345	0.595127
C53	C	1.258326	-0.406743	0.595099
C54	C	1.126828	-0.429217	0.687581
C55	C	1.126861	-0.483819	0.687602
C56	C	1.192633	-0.499882	0.641377
C57	C	1.127130	-0.931546	0.687738
C58	C	1.127163	-0.986148	0.687745
C59	C	1.258664	-0.963670	0.595268
C60	C	1.258628	-0.909072	0.595257
C61	C	1.192857	-0.893012	0.641499
O62	O	1.314440	-0.813142	0.555920
O63	O	1.071173	-0.854683	0.727055
C64	C	1.421172	-0.177808	0.681024
C65	C	1.518536	-0.169754	0.697916
C66	C	1.153171	-0.223538	0.869824
C67	C	1.136328	-0.234970	0.967170
C68	C	1.192857	-0.060330	0.641478
C69	C	1.192927	-0.002213	0.641517
C70	C	1.232113	-0.169945	0.413846
C71	C	1.249125	-0.158351	0.316529
C72	C	1.313101	-0.114907	1.280540
C73	C	1.328930	-0.104166	1.189080
C74	C	1.280781	-0.136866	1.133598
C75	C	1.216800	-0.180309	1.169586
C76	C	1.200973	-0.191053	1.261057
C77	C	1.168654	-0.213012	1.114114
C78	C	1.104672	-0.256455	1.150102
C79	C	1.088848	-0.267198	1.241564
C80	C	1.136998	-0.234498	1.297046
C81	C	1.184480	-0.202268	1.022643
C82	C	1.072353	-0.278414	1.003159
C83	C	1.056523	-0.289155	1.094620
H84	H	0.509484	-0.120440	0.801202
H85	H	1.004428	-0.324527	1.123935
Br86	Br	1.413474	-0.594396	0.486209
Br87	Br	1.115520	-0.249075	1.421178
H88	H	1.293673	-0.128118	1.059127
Br89	Br	0.691210	-0.303287	0.418200
H90	H	1.377835	-0.714361	0.511351
H91	H	1.312152	-0.877694	0.557589
Br92	Br	0.972054	-0.798509	0.796700
H93	H	1.036758	-0.302575	1.270863
H94	H	0.463374	-0.229524	0.572770
H95	H	0.563912	-0.271266	0.485324
H96	H	0.876779	-0.272934	0.481744
Br97	Br	0.971975	-0.669830	0.796654
Br98	Br	1.037640	-0.536112	0.750365
H99	H	1.311922	-0.474417	0.557477
Br100	Br	1.007011	-0.322800	0.927871
H101	H	1.352302	-0.088290	1.325722
H102	H	1.381026	-0.068796	1.159785
Br103	Br	0.825663	-0.144301	0.751142
Br104	Br	1.037939	-1.038444	0.750509
Br105	Br	0.695044	-0.090079	0.864751
H106	H	1.236574	-0.166896	0.993351
Br107	Br	1.037868	-0.909759	0.750495
Br108	Br	1.347536	-0.354451	0.532320
Br109	Br	1.037573	-0.407405	0.750315
H110	H	1.312204	-0.976759	0.557627
H111	H	0.841692	-0.175697	0.685382
