data_functionalizedCrystal
_audit_creation_method	'MofGen! by Chris Wilmer'
_symmetry_space_group_name_H-M	'P1'
_symmetry_Int_Tables_number	1
_symmetry_cell_setting	triclinic
loop_
_symmetry_equiv_pos_as_xyz
  x,y,z
_cell_length_a	14.519709
_cell_length_b	10.654550
_cell_length_c	9.130313
_cell_angle_alpha	89.999724
_cell_angle_beta	89.998324
_cell_angle_gamma	95.917463
loop_
_atom_site_label
_atom_site_type_symbol
_atom_site_fract_x
_atom_site_fract_y
_atom_site_fract_z
O1	O	-0.129532	1.666594	-0.121668
O2	O	0.370468	2.166594	0.378332
O3	O	-0.141873	1.300997	-0.121693
O4	O	0.358127	1.800997	0.378307
O5	O	-0.001515	1.493489	-0.121693
O6	O	0.498485	1.993489	0.378307
O7	O	-0.269891	1.474102	-0.121668
O8	O	0.230109	1.974102	0.378332
O9	O	-0.001510	1.493476	0.121906
O10	O	0.498490	1.993476	0.621906
O11	O	-0.141869	1.300984	0.121906
O12	O	0.358131	1.800984	0.621906
O13	O	-0.129528	1.666581	0.121931
O14	O	0.370472	2.166581	0.621931
Cu15	Cu	-0.135698	1.483781	0.144161
Cu16	Cu	0.364302	1.983781	0.644161
Cu17	Cu	-0.135703	1.483797	-0.143923
Cu18	Cu	0.364297	1.983797	0.356077
O19	O	-0.269887	1.474089	0.121931
O20	O	0.230113	1.974089	0.621931
C21	C	-0.140965	1.254201	0.000103
C22	C	0.359035	1.754201	0.500103
C23	C	-0.138254	1.114784	0.000093
C24	C	0.361746	1.614784	0.500093
C25	C	-0.220895	1.034504	0.000105
C26	C	0.279105	1.534504	0.500105
C27	C	-0.218342	0.903507	0.000130
C28	C	0.281658	1.403507	0.500130
C29	C	-0.050500	0.933084	0.000125
C30	C	0.449500	1.433084	0.500125
C31	C	-0.053054	1.064078	0.000110
C32	C	0.446946	1.564078	0.500110
C33	C	-0.304253	1.474999	0.000135
C34	C	0.195747	1.974999	0.500135
C35	C	-0.406649	1.477706	0.000145
C36	C	0.093351	1.977706	0.500145
C37	C	-0.781596	1.487674	0.000088
C38	C	-0.281596	1.987674	0.500088
C39	C	-0.677274	1.484906	0.000104
C40	C	-0.177274	1.984906	0.500104
C41	C	-0.594126	1.482690	0.000118
C42	C	-0.094126	1.982690	0.500118
C43	C	-0.489797	1.479922	0.000132
C44	C	0.010203	1.979922	0.500132
C45	C	0.032852	1.492579	0.000100
C46	C	0.532852	1.992579	0.500100
C47	C	0.135247	1.489871	0.000080
C48	C	0.635247	1.989871	0.500080
C49	C	-0.130436	1.713377	0.000132
C50	C	0.369564	2.213377	0.500132
C51	C	-0.133147	1.852794	0.000133
C52	C	0.366853	2.352794	0.500133
N53	N	-0.135694	1.483779	0.346784
N54	N	0.364306	1.983779	0.846784
N55	N	-0.135700	1.483808	-0.346545
N56	N	0.364300	1.983808	0.153455
C57	C	-0.073570	1.569043	0.423435
C58	C	0.426430	2.069043	0.923435
C59	C	-0.073570	1.569055	0.576772
C60	C	0.426430	2.069055	1.076772
C61	C	-0.197827	1.398535	0.576792
C62	C	0.302173	1.898535	1.076792
C63	C	-0.197822	1.398518	0.423458
C64	C	0.302178	1.898518	0.923458
H65	H	0.018867	0.891783	0.000148
H66	H	0.518867	1.391783	0.500148
F67	F	-0.306300	0.818072	0.000145
F68	F	0.193700	1.318072	0.500145
H69	H	0.014247	1.129446	0.000105
H70	H	0.514247	1.629446	0.500105
F71	F	-0.263947	1.307802	0.658404
F72	F	0.236053	1.807802	1.158404
H73	H	-0.022982	1.638483	0.639178
H74	H	0.477018	2.138483	1.139178
F75	F	-0.007446	1.659783	0.341839
F76	F	0.492554	2.159783	0.841839
H77	H	-0.290270	1.075783	0.000101
H78	H	0.209730	1.575783	0.500101
F79	F	-0.263943	1.307759	0.341873
F80	F	0.236057	1.807759	0.841873
