data_functionalizedCrystal
_audit_creation_method	'MofGen! by Chris Wilmer'
_symmetry_space_group_name_H-M	'P1'
_symmetry_Int_Tables_number	1
_symmetry_cell_setting	triclinic
loop_
_symmetry_equiv_pos_as_xyz
  x,y,z
_cell_length_a	19.121073
_cell_length_b	19.121321
_cell_length_c	12.827885
_cell_angle_alpha	87.580249
_cell_angle_beta	87.598258
_cell_angle_gamma	89.931363
loop_
_atom_site_label
_atom_site_type_symbol
_atom_site_fract_x
_atom_site_fract_y
_atom_site_fract_z
Zn1	Zn	-0.324722	1.059813	0.544113
Zn2	Zn	0.175278	1.559813	1.044113
Zn3	Zn	-0.441972	1.054712	0.377110
Zn4	Zn	0.058028	1.554712	0.877110
Zn5	Zn	-0.319763	0.942576	0.376514
Zn6	Zn	0.180237	1.442576	0.876514
Zn7	Zn	-0.436928	0.937540	0.558927
Zn8	Zn	0.063072	1.437540	1.058927
O9	O	-0.380846	0.998661	0.464166
O10	O	0.119154	1.498661	0.964166
O11	O	-0.344462	1.157238	0.516010
O12	O	0.155538	1.657238	1.016010
O13	O	-0.425795	1.039810	0.230798
O14	O	0.074205	1.539810	0.730798
O15	O	-0.222317	0.962370	0.392298
O16	O	0.277683	1.462370	0.892298
O17	O	-0.430605	1.153490	0.393313
O18	O	0.069395	1.653490	0.893313
O19	O	-0.225961	1.048504	0.515432
O20	O	0.274039	1.548504	1.015432
O21	O	-0.336009	0.957424	0.230361
O22	O	0.163991	1.457424	0.730361
O23	O	-0.331119	0.843807	0.406662
O24	O	0.168881	1.343807	0.906662
O25	O	-0.422009	0.953787	0.703194
O26	O	0.077991	1.453787	1.203194
O27	O	-0.417200	0.840107	0.540680
O28	O	0.082800	1.340107	1.040680
O29	O	-0.339572	1.043621	0.692311
O30	O	0.160428	1.543621	1.192311
O31	O	-0.539406	1.034927	0.407677
O32	O	-0.039406	1.534927	0.907677
O33	O	-0.535701	0.948841	0.541258
O34	O	-0.035701	1.448841	1.041258
C35	C	-0.373074	0.816521	0.475215
C36	C	0.126926	1.316521	0.975215
C37	C	-0.369766	0.738600	0.479967
C38	C	0.130234	1.238600	0.979967
C39	C	-0.348756	0.297995	0.510102
C40	C	0.151244	0.797995	1.010102
C41	C	-0.351877	0.371209	0.505632
C42	C	0.148123	0.871209	1.005632
C43	C	-0.398213	0.405859	0.439401
C44	C	0.101787	0.905859	0.939401
C45	C	-0.441437	0.367291	0.377646
C46	C	0.058563	0.867291	0.877646
C47	C	-0.438319	0.294078	0.382122
C48	C	0.061681	0.794078	0.882122
C49	C	-0.409872	0.626818	0.422688
C50	C	0.090128	1.126818	0.922688
C51	C	-0.412985	0.700037	0.418214
C52	C	0.087015	1.200037	0.918214
C53	C	-0.323426	0.703950	0.546202
C54	C	0.176574	1.203950	1.046202
C55	C	-0.320309	0.630735	0.550668
C56	C	0.179691	1.130735	1.050668
C57	C	-0.363534	0.592173	0.488916
C58	C	0.136466	1.092173	0.988916
C59	C	-0.401403	0.480696	0.434828
C60	C	0.098597	0.980696	0.934828
C61	C	-0.360348	0.517337	0.493496
C62	C	0.139652	1.017337	0.993496
C63	C	-0.562991	0.990803	0.476161
C64	C	-0.062991	1.490803	0.976161
C65	C	-0.640916	0.987506	0.481323
C66	C	-0.140916	1.487506	0.981323
C67	C	-1.081551	0.966630	0.514090
C68	C	-0.581551	1.466630	1.014090
C69	C	-1.008332	0.969728	0.509227
C70	C	-0.508332	1.469728	1.009227
C71	C	-0.973632	1.016131	0.437294
C72	C	-0.473632	1.516131	0.937294
C73	C	-1.012155	1.059443	0.370225
C74	C	-0.512155	1.559443	0.870225
C75	C	-1.085373	1.056348	0.375093
C76	C	-0.585373	1.556348	0.875093
C77	C	-0.752657	1.027723	0.419123
C78	C	-0.252657	1.527723	0.919123
C79	C	-0.679434	1.030814	0.414258
C80	C	-0.179434	1.530814	0.914258
C81	C	-0.675616	0.941098	0.553262
C82	C	-0.175616	1.441098	1.053262
C83	C	-0.748835	0.938004	0.558119
C84	C	-0.248835	1.438004	1.058119
C85	C	-0.787352	0.981320	0.491055
C86	C	-0.287352	1.481320	0.991055
C87	C	-0.898791	1.019297	0.432320
C88	C	-0.398791	1.519297	0.932320
C89	C	-0.862193	0.978156	0.496034
C90	C	-0.362193	1.478156	0.996034
C91	C	-0.197991	1.006568	0.452146
C92	C	0.302009	1.506568	0.952146
C93	C	-0.120069	1.009938	0.447024
C94	C	0.379931	1.509938	0.947024
C95	C	-0.380781	0.998711	0.736729
C96	C	0.119219	1.498711	1.236729
C97	C	-0.380753	0.998733	0.852879
C98	C	0.119247	1.498733	1.352879
C99	C	-0.388649	1.181512	0.453075
C100	C	0.111351	1.681512	0.953075
C101	C	-0.391974	1.259432	0.448349
C102	C	0.108026	1.759432	0.948349
C103	C	-0.380862	0.998653	0.192658
C104	C	0.119138	1.498653	0.692658
C105	C	-0.380699	0.998775	0.076487
C106	C	0.119301	1.498775	0.576487
C107	C	-0.339952	1.043190	0.899278
C108	C	0.160048	1.543190	1.399278
C109	C	-0.339923	1.043213	1.019325
C110	C	0.160077	1.543213	1.519325
H111	H	-0.450720	0.728247	0.364280
H112	H	0.049280	1.228247	0.864280
H113	H	-0.777082	0.900210	0.616684
H114	H	-0.277082	1.400210	1.116684
H115	H	-0.479168	0.395509	0.323724
H116	H	0.020832	0.895509	0.823724
H117	H	-0.976971	0.934464	0.563838
H118	H	-0.476971	1.434464	1.063838
N119	N	-0.279268	0.743341	0.609266
N120	N	0.220732	1.243341	1.109266
N121	N	-0.236302	0.786108	0.567169
N122	N	0.263698	1.286108	1.067169
H123	H	-0.205114	0.813928	0.611711
H124	H	0.294886	1.313928	1.111711
H125	H	-0.415634	0.960714	1.036572
H126	H	0.084366	1.460714	1.536572
H127	H	-1.116734	1.091616	0.320484
H128	H	-0.616734	1.591616	0.820484
N129	N	-0.636261	0.896860	0.621754
N130	N	-0.136261	1.396860	1.121754
N131	N	-0.570889	0.899626	0.617401
N132	N	-0.070889	1.399626	1.117401
H133	H	-0.543093	0.868383	0.665778
H134	H	-0.043093	1.368383	1.165778
H135	H	-0.651185	1.068602	0.355677
H136	H	-0.151185	1.568602	0.855677
N137	N	-0.792011	1.071961	0.350633
N138	N	-0.292011	1.571961	0.850633
N139	N	-0.834707	1.114895	0.387459
N140	N	-0.334707	1.614895	0.887459
H141	H	-0.862506	1.146138	0.339088
H142	H	-0.362506	1.646138	0.839088
N143	N	-0.424536	0.950993	0.914531
N144	N	0.075464	1.450993	1.414531
N145	N	-0.397907	0.907439	0.976534
N146	N	0.102093	1.407439	1.476534
H147	H	-0.428828	0.873720	1.020076
H148	H	0.071172	1.373720	1.520076
H149	H	-0.870532	1.057078	0.373748
H150	H	-0.370532	1.557078	0.873748
N151	N	-1.116981	0.919219	0.587566
N152	N	-0.616981	1.419219	1.087566
N153	N	-1.082578	0.880555	0.647439
N154	N	-0.582578	1.380555	1.147439
H155	H	-1.107598	0.847070	0.699336
H156	H	-0.607598	1.347070	1.199336
N157	N	-0.301421	0.262615	0.577765
N158	N	0.198579	0.762615	1.077765
N159	N	-0.262843	0.297058	0.632905
N160	N	0.237157	0.797058	1.132905
H161	H	-0.229415	0.272073	0.680700
H162	H	0.270585	0.772073	1.180700
N163	N	-0.296088	1.090963	1.069380
N164	N	0.203912	1.590963	1.569380
N165	N	-0.257750	1.132738	1.015691
N166	N	0.242250	1.632738	1.515691
H167	H	-0.226789	1.166462	1.051043
H168	H	0.273211	1.666462	1.551043
H169	H	-0.473513	0.262680	0.331838
H170	H	0.026487	0.762680	0.831838
N171	N	-0.296146	1.090918	0.837643
N172	N	0.203854	1.590918	1.337643
N173	N	-0.231249	1.089074	0.845783
N174	N	0.268751	1.589074	1.345783
H175	H	-0.200308	1.122782	0.802256
H176	H	0.299692	1.622782	1.302256
H177	H	-0.322623	0.489122	0.547424
H178	H	0.177377	0.989122	1.047424
N179	N	-0.307719	0.410586	0.568713
N180	N	0.192281	0.910586	1.068713
N181	N	-0.242675	0.405196	0.558182
N182	N	0.257325	0.905196	1.058182
H183	H	-0.211486	0.433004	0.602739
H184	H	0.288514	0.933004	1.102739
N185	N	-0.272959	0.595367	0.618320
N186	N	0.227041	1.095367	1.118320
N187	N	-0.278016	0.603380	0.714546
N188	N	0.221984	1.103380	1.214546
H189	H	-0.244566	0.578407	0.762318
H190	H	0.255434	1.078407	1.262318
N191	N	-0.454031	0.587445	0.359609
N192	N	0.045969	1.087445	0.859609
N193	N	-0.495399	0.618394	0.300481
N194	N	0.004601	1.118394	0.800481
H195	H	-0.526590	0.590584	0.255929
H196	H	-0.026590	1.090584	0.755929
H197	H	-0.439128	0.508917	0.380899
H198	H	0.060872	1.008917	0.880899
N199	N	-0.976702	1.106848	0.296765
N200	N	-0.476702	1.606848	0.796765
N201	N	-0.911330	1.109609	0.292430
N202	N	-0.411330	1.609609	0.792430
H203	H	-0.886291	1.143090	0.240547
H204	H	-0.386291	1.643090	0.740547
N205	N	-0.897646	0.930757	0.569496
N206	N	-0.397646	1.430757	1.069496
N207	N	-0.936665	0.884375	0.538092
N208	N	-0.436665	1.384375	1.038092
H209	H	-0.961711	0.850896	0.589971
H210	H	-0.461711	1.350896	1.089971
