data_functionalizedCrystal
_audit_creation_method	'MofGen! by Chris Wilmer'
_symmetry_space_group_name_H-M	'P1'
_symmetry_Int_Tables_number	1
_symmetry_cell_setting	triclinic
loop_
_symmetry_equiv_pos_as_xyz
  x,y,z
_cell_length_a	16.959455
_cell_length_b	18.050590
_cell_length_c	16.959447
_cell_angle_alpha	89.968225
_cell_angle_beta	89.983277
_cell_angle_gamma	90.017500
loop_
_atom_site_label
_atom_site_type_symbol
_atom_site_fract_x
_atom_site_fract_y
_atom_site_fract_z
Zn1	Zn	1.208392	-0.295666	-0.446951
Zn2	Zn	1.208318	-0.419867	-0.314769
Zn3	Zn	1.076221	-0.295693	-0.314783
Zn4	Zn	1.076189	-0.419816	-0.446902
O5	O	1.142280	-0.357761	-0.380852
O6	O	1.318993	-0.312151	-0.429432
O7	O	1.190777	-0.403428	-0.204160
O8	O	1.093798	-0.191765	-0.332342
O9	O	1.318939	-0.403401	-0.332318
O10	O	1.190904	-0.191745	-0.429445
O11	O	1.093726	-0.312198	-0.204171
O12	O	0.965606	-0.312149	-0.332295
O13	O	1.093743	-0.403314	-0.557520
O14	O	0.965582	-0.403341	-0.429362
O15	O	1.190873	-0.312101	-0.557556
O16	O	1.190747	-0.523785	-0.332271
O17	O	1.093672	-0.523747	-0.429349
C18	C	0.936914	-0.357743	-0.380825
C19	C	0.849057	-0.357753	-0.380832
C20	C	0.807772	-0.310206	-0.330375
C21	C	0.807789	-0.405306	-0.431301
C22	C	0.725243	-0.405315	-0.431313
C23	C	0.683958	-0.357767	-0.380856
C24	C	0.725218	-0.310211	-0.330386
C25	C	0.683976	-0.452864	-0.481787
C26	C	0.601425	-0.452874	-0.481801
C27	C	0.560138	-0.405330	-0.431339
C28	C	0.601404	-0.357773	-0.380867
C29	C	0.560119	-0.310225	-0.330410
C30	C	0.601383	-0.262671	-0.279933
C31	C	0.683931	-0.262667	-0.279924
C32	C	0.477590	-0.405334	-0.431348
C33	C	0.477565	-0.310231	-0.330421
C34	C	1.142219	-0.550713	-0.380820
C35	C	1.142265	-0.633258	-0.380833
C36	C	1.195165	-0.832702	-0.328116
C37	C	1.214468	-0.882031	-0.400257
C38	C	1.142310	-0.784389	-0.380865
C39	C	1.123088	-0.882141	-0.308756
C40	C	1.142355	-0.930374	-0.380889
C41	C	1.161650	-0.832630	-0.453044
C42	C	1.070237	-0.832736	-0.361494
C43	C	1.089513	-0.882043	-0.433685
C44	C	1.142287	-0.700290	-0.380850
C45	C	1.142379	-1.014470	-0.380912
C46	C	1.348448	-0.357779	-0.380879
C47	C	1.436305	-0.357787	-0.380891
C48	C	1.142313	-0.357699	-0.587020
C49	C	1.142327	-0.357673	-0.674877
C50	C	1.142362	-0.164055	-0.380901
C51	C	1.142398	-0.081509	-0.380921
C52	C	1.091850	-0.405085	-1.046336
C53	C	1.192992	-0.310104	-1.046369
C54	C	1.192971	-0.310120	-0.963823
C55	C	1.142390	-0.357620	-0.922530
C56	C	1.091830	-0.405104	-0.963783
C57	C	1.243536	-0.262642	-0.922564
C58	C	1.243518	-0.262657	-0.840013
C59	C	1.192932	-0.310153	-0.798718
C60	C	1.142369	-0.357638	-0.839976
C61	C	1.091788	-0.405138	-0.798683
C62	C	1.041220	-0.452620	-0.839940
C63	C	1.041244	-0.452600	-0.922488
C64	C	1.192908	-0.310173	-0.716170
C65	C	1.091767	-0.405157	-0.716130
C66	C	1.142293	-0.357768	-0.175485
C67	C	1.142432	-0.357585	-0.087629
H68	H	0.443996	-0.444047	-0.472450
N69	N	0.559207	-0.214091	-0.228407
N70	N	0.513174	-0.166801	-0.256320
H71	H	0.483384	-0.132491	-0.219931
H72	H	1.177867	-0.810975	-0.514088
N73	N	1.040086	-0.453676	-0.673965
N74	N	0.994943	-0.496061	-0.710812
H75	H	0.958442	-0.530328	-0.681034
N76	N	1.033467	-0.909044	-0.489726
N77	N	1.040651	-0.893008	-0.561077
H78	H	1.001072	-0.912078	-0.600659
N79	N	1.295150	-0.214150	-0.797862
N80	N	1.295119	-0.214165	-0.724158
H81	H	1.331581	-0.179904	-0.694387
H82	H	1.234081	-0.271516	-0.682582
H83	H	1.000077	-0.491260	-0.956087
H84	H	1.050677	-0.443741	-1.079931
N85	N	0.993772	-0.805555	-0.340887
N86	N	0.964386	-0.821412	-0.275416
H87	H	0.910382	-0.802215	-0.260854
N88	N	1.251259	-0.805529	-0.272216
N89	N	1.322638	-0.821333	-0.279551
H90	H	1.362257	-0.802142	-0.240074
N91	N	0.726069	-0.214075	-0.228380
N92	N	0.689202	-0.171619	-0.183338
H93	H	0.718963	-0.137296	-0.146939
N94	N	0.435409	-0.261650	-0.278880
N95	N	0.444656	-0.193128	-0.284245
H96	H	0.414884	-0.158816	-0.247844
N97	N	0.849928	-0.261642	-0.278816
N98	N	0.923632	-0.261645	-0.278804
H99	H	0.953407	-0.227347	-0.242390
N100	N	1.102675	-0.909420	-0.232240
N101	N	1.144656	-0.893615	-0.174061
H102	H	1.130246	-0.912878	-0.120020
H103	H	0.841408	-0.444014	-0.472385
H104	H	1.000040	-0.491298	-0.806308
N105	N	0.559291	-0.501450	-0.533365
N106	N	0.596163	-0.543897	-0.578414
H107	H	0.566406	-0.578206	-0.614831
N108	N	0.726158	-0.501412	-0.533333
N109	N	0.799862	-0.501396	-0.533316
H110	H	0.829658	-0.535682	-0.569724
H111	H	1.275438	-0.903687	-0.416657
H112	H	1.234177	-0.271436	-1.079994
H113	H	1.284721	-0.223975	-0.956190
