data_functionalizedCrystal
_audit_creation_method	'MofGen! by Chris Wilmer'
_symmetry_space_group_name_H-M	'P1'
_symmetry_Int_Tables_number	1
_symmetry_cell_setting	triclinic
loop_
_symmetry_equiv_pos_as_xyz
  x,y,z
_cell_length_a	21.295418
_cell_length_b	18.050589
_cell_length_c	18.050582
_cell_angle_alpha	90.018205
_cell_angle_beta	89.965893
_cell_angle_gamma	89.955964
loop_
_atom_site_label
_atom_site_type_symbol
_atom_site_fract_x
_atom_site_fract_y
_atom_site_fract_z
Zn1	Zn	0.962306	0.295393	-0.420315
Zn2	Zn	1.462306	0.795393	0.079685
Zn3	Zn	0.962230	0.419576	-0.296135
Zn4	Zn	1.462230	0.919576	0.203865
Zn5	Zn	0.857047	0.295439	-0.296098
Zn6	Zn	1.357047	0.795439	0.203902
Zn7	Zn	0.857003	0.419580	-0.420242
Zn8	Zn	1.357003	0.919580	0.079758
O9	O	0.909646	0.357497	-0.358197
O10	O	1.409646	0.857497	0.141803
O11	O	1.050385	0.311846	-0.403889
O12	O	1.550385	0.811846	0.096111
O13	O	0.948264	0.403127	-0.192205
O14	O	1.448264	0.903127	0.307795
O15	O	0.871060	0.191508	-0.312591
O16	O	1.371060	0.691508	0.187409
O17	O	1.050330	0.403083	-0.312654
O18	O	1.550330	0.903083	0.187346
O19	O	0.948393	0.191475	-0.403853
O20	O	1.448393	0.691475	0.096147
O21	O	0.870986	0.311924	-0.192178
O22	O	1.370986	0.811924	0.307822
O23	O	0.768952	0.311927	-0.312520
O24	O	1.268952	0.811927	0.187480
O25	O	0.870985	0.403089	-0.524176
O26	O	1.370985	0.903089	-0.024176
O27	O	0.768919	0.403133	-0.403727
O28	O	1.268919	0.903133	0.096273
O29	O	0.948350	0.311849	-0.524230
O30	O	1.448350	0.811849	-0.024230
O31	O	0.948221	0.523502	-0.312582
O32	O	1.448221	1.023502	0.187418
O33	O	0.870911	0.523504	-0.403763
O34	O	1.370911	1.023504	0.096237
C35	C	0.909570	0.550449	-0.358185
C36	C	1.409570	1.050449	0.141815
C37	C	0.909596	0.632995	-0.358205
C38	C	1.409596	1.132995	0.141795
C39	C	0.746095	0.357536	-0.358112
C40	C	1.246095	0.857536	0.141888
C41	C	0.676127	0.357571	-0.358093
C42	C	1.176127	0.857571	0.141907
C43	C	0.909671	0.357464	-0.551903
C44	C	1.409671	0.857464	-0.051903
C45	C	0.909682	0.357450	-0.634449
C46	C	1.409682	0.857450	-0.134449
C47	C	0.643260	0.405125	-0.405514
C48	C	1.143260	0.905125	0.094486
C49	C	0.577517	0.405106	-0.405547
C50	C	1.077517	0.905106	0.094453
C51	C	0.544644	0.357542	-0.358146
C52	C	1.044644	0.857542	0.141854
C53	C	0.577519	0.309979	-0.310722
C54	C	1.077519	0.809979	0.189278
C55	C	0.643260	0.309993	-0.310695
C56	C	1.143260	0.809993	0.189305
N57	N	0.441377	0.351735	-0.293191
N58	N	0.941377	0.851735	0.206809
N59	N	0.378926	0.351726	-0.293218
N60	N	0.878926	0.851726	0.206782
C61	C	0.346570	0.357495	-0.358225
C62	C	0.846570	0.857495	0.141775
N63	N	0.379024	0.363288	-0.423205
N64	N	0.879024	0.863288	0.076795
N65	N	0.441481	0.363301	-0.423177
N66	N	0.941481	0.863301	0.076823
C67	C	0.473359	0.357521	-0.358170
C68	C	0.973359	0.857521	0.141830
C69	C	0.242417	0.405031	-0.405686
C70	C	0.742417	0.905031	0.094314
C71	C	0.176673	0.405008	-0.405721
C72	C	0.676673	0.905008	0.094279
C73	C	0.176677	0.309884	-0.310889
C74	C	0.676677	0.809884	0.189111
C75	C	0.242419	0.309904	-0.310861
C76	C	0.742419	0.809904	0.189139
C77	C	0.275285	0.357481	-0.358259
C78	C	0.775285	0.857481	0.141741
C79	C	1.073837	0.357459	-0.358284
C80	C	1.573837	0.857459	0.141716
C81	C	1.143805	0.357442	-0.358320
C82	C	1.643805	0.857442	0.141680
C83	C	0.909740	0.163792	-0.358226
C84	C	1.409740	0.663792	0.141774
C85	C	0.909780	0.081246	-0.358238
C86	C	1.409780	0.581246	0.141762
C87	C	0.867596	0.832474	-0.407771
C88	C	1.367596	1.332474	0.092229
C89	C	0.852255	0.881913	-0.339998
C90	C	1.352255	1.381913	0.160002
C91	C	0.909657	0.784125	-0.358214
C92	C	1.409657	1.284125	0.141786
C93	C	0.925029	0.881768	-0.425995
C94	C	1.425029	1.381768	0.074005
C95	C	0.909716	0.930111	-0.358230
C96	C	1.409716	1.430111	0.141770
C97	C	0.894287	0.832477	-0.290405
C98	C	1.394287	1.332477	0.209595
C99	C	0.967087	0.832328	-0.376448
C100	C	1.467087	1.332328	0.123552
C101	C	0.951768	0.881745	-0.308628
C102	C	1.451768	1.381745	0.191372
C103	C	0.909622	0.700027	-0.358206
C104	C	1.409622	1.200027	0.141794
C105	C	0.909751	1.014207	-0.358230
C106	C	1.409751	1.514207	0.141770
C107	C	0.867642	0.406999	-0.833870
C108	C	1.367642	0.906999	-0.333870
C109	C	0.925074	0.425133	-0.883286
C110	C	1.425074	0.925133	-0.383286
C111	C	0.909713	0.357394	-0.785579
C112	C	1.409713	0.857394	-0.285579
C113	C	0.852313	0.339238	-0.883246
C114	C	1.352313	0.839238	-0.383246
C115	C	0.909738	0.357340	-0.931565
C116	C	1.409738	0.857340	-0.431565
C117	C	0.967174	0.375564	-0.833908
C118	C	1.467174	0.875564	-0.333908
C119	C	0.894375	0.289637	-0.833863
C120	C	1.394375	0.789637	-0.333863
C121	C	0.951846	0.307746	-0.883256
C122	C	1.451846	0.807746	-0.383256
C123	C	0.909697	0.357426	-0.701481
C124	C	1.409697	0.857426	-0.201481
C125	C	0.909759	0.357307	-1.015661
C126	C	1.409759	0.857307	-0.515661
C127	C	0.909658	0.357476	-0.165245
C128	C	1.409658	0.857476	0.334755
C129	C	0.909770	0.357281	-0.082700
C130	C	1.409770	0.857281	0.417300
H131	H	0.670015	0.443865	-0.444110
H132	H	1.170015	0.943865	0.055890
H133	H	0.881370	0.232376	-0.812138
H134	H	1.381370	0.732376	-0.312138
H135	H	0.831973	0.810839	-0.449621
H136	H	1.331973	1.310839	0.050379
H137	H	0.938062	0.482411	-0.904994
H138	H	1.438062	0.982411	-0.404994
C139	C	0.999852	0.910796	-0.251956
C140	C	1.499852	1.410796	0.248044
C141	C	1.069704	0.890026	-0.259638
C142	C	1.569704	1.390026	0.240362
C143	C	1.117782	0.919079	-0.202962
C144	C	1.617782	1.419079	0.297038
C145	C	1.096008	0.968903	-0.138605
C146	C	1.596008	1.468903	0.361395
C147	C	1.026152	0.989675	-0.130921
C148	C	1.526152	1.489675	0.369079
C149	C	0.978074	0.960622	-0.187596
C150	C	1.478074	1.460622	0.312404
H151	H	1.085825	0.853141	-0.307282
H152	H	1.585825	1.353141	0.192718
H153	H	1.169494	0.903702	-0.208651
H154	H	1.669494	1.403702	0.291349
H155	H	1.131598	0.990410	-0.096650
H156	H	1.631598	1.490410	0.403350
H157	H	1.010031	1.026560	-0.083277
H158	H	1.510031	1.526560	0.416723
H159	H	0.926363	0.975999	-0.181907
H160	H	1.426363	1.475999	0.318093
H161	H	1.015741	0.390962	-0.812325
H162	H	1.515741	0.890962	-0.312325
C163	C	0.876676	0.803356	-0.212953
C164	C	1.376676	1.303356	0.287047
C165	C	0.862375	0.858238	-0.149815
C166	C	1.362375	1.358238	0.350185
C167	C	0.844761	0.829115	-0.072366
C168	C	1.344761	1.329115	0.427634
C169	C	0.841449	0.745110	-0.058054
C170	C	1.341449	1.245110	0.441946
C171	C	0.855750	0.690223	-0.121194
C172	C	1.355750	1.190223	0.378806
C173	C	0.873363	0.719346	-0.198643
C174	C	1.373363	1.219346	0.301357
H175	H	0.864827	0.920428	-0.160408
H176	H	1.364827	1.420428	0.339592
H177	H	0.834175	0.869746	-0.025626
H178	H	1.334175	1.369746	0.474374
H179	H	0.828410	0.723551	-0.000722
H180	H	1.328410	1.223551	0.499278
H181	H	0.853298	0.628033	-0.110601
H182	H	1.353298	1.128033	0.389399
H183	H	0.883950	0.678714	-0.245383
H184	H	1.383950	1.178714	0.254617
C185	C	0.999976	0.251052	-0.912385
C186	C	1.499976	0.751052	-0.412385
C187	C	1.069973	0.259415	-0.892744
C188	C	1.569973	0.759415	-0.392744
C189	C	1.118105	0.202728	-0.921879
C190	C	1.618105	0.702728	-0.421879
C191	C	1.096240	0.137678	-0.970655
C192	C	1.596240	0.637678	-0.470655
C193	C	1.026239	0.129312	-0.990299
C194	C	1.526239	0.629312	-0.490299
C195	C	0.978107	0.185999	-0.961164
C196	C	1.478107	0.685999	-0.461164
H197	H	1.086162	0.307571	-0.856634
H198	H	1.586162	0.807571	-0.356634
H199	H	1.169925	0.208922	-0.907337
H200	H	1.669925	0.708922	-0.407337
H201	H	1.131870	0.095715	-0.992223
H202	H	1.631870	0.595715	-0.492223
H203	H	1.010050	0.081156	-1.026409
H204	H	1.510050	0.581156	-0.526409
H205	H	0.926288	0.179806	-0.975706
H206	H	1.426288	0.679806	-0.475706
H207	H	0.803760	0.323905	-0.904919
H208	H	1.303760	0.823905	-0.404919
H209	H	1.015615	0.810534	-0.391889
H210	H	1.515615	1.310534	0.108111
C211	C	0.278574	0.257604	-0.258683
C212	C	0.778574	0.757604	0.241317
C213	C	0.269609	0.173184	-0.264880
C214	C	0.769609	0.673184	0.235120
C215	C	0.305763	0.120880	-0.212698
C216	C	0.805763	0.620880	0.287302
C217	C	0.350882	0.152997	-0.154319
C218	C	0.850882	0.652997	0.345681
C219	C	0.359849	0.237422	-0.148120
C220	C	0.859849	0.737422	0.351880
C221	C	0.323696	0.289725	-0.200302
C222	C	0.823696	0.789725	0.299698
H223	H	0.236207	0.149405	-0.308097
H224	H	0.736207	0.649405	0.191903
H225	H	0.299124	0.058384	-0.217287
H226	H	0.799124	0.558384	0.282713
H227	H	0.377645	0.114279	-0.115691
H228	H	0.877645	0.614279	0.384309
H229	H	0.393251	0.261200	-0.104902
H230	H	0.893251	0.761200	0.395098
H231	H	0.330334	0.352221	-0.195712
H232	H	0.830334	0.852221	0.304288
H233	H	0.550752	0.443830	-0.444166
H234	H	1.050752	0.943830	0.055834
H235	H	0.938006	0.903420	-0.483311
H236	H	1.438006	1.403420	0.016689
H237	H	0.832098	0.449003	-0.812187
H238	H	1.332098	0.949003	-0.312187
H239	H	0.670020	0.271267	-0.272079
H240	H	1.170020	0.771267	0.227921
C241	C	0.140518	0.457322	-0.457888
C242	C	0.640518	0.957322	0.042112
C243	C	0.095247	0.515567	-0.425623
C244	C	0.595247	1.015567	0.074377
C245	C	0.059091	0.567884	-0.477790
C246	C	0.559091	1.067884	0.022210
C247	C	0.068207	0.561954	-0.562222
C248	C	0.568207	1.061954	-0.062222
C249	C	0.113480	0.503706	-0.594492
C250	C	0.613480	1.003706	-0.094492
C251	C	0.149636	0.451390	-0.542325
C252	C	0.649636	0.951390	-0.042325
H253	H	0.088497	0.519959	-0.363117
H254	H	0.588497	1.019959	0.136883
H255	H	0.025577	0.611003	-0.453901
H256	H	0.525577	1.111003	0.046099
H257	H	0.041443	0.600682	-0.600840
H258	H	0.541443	1.100682	-0.100840
H259	H	0.120230	0.499315	-0.656998
H260	H	0.620230	0.999315	-0.156998
H261	H	0.183150	0.408271	-0.566213
H262	H	0.683150	0.908271	-0.066213
H263	H	0.550750	0.271251	-0.272129
H264	H	1.050750	0.771251	0.227871
H265	H	0.269178	0.443768	-0.444284
H266	H	0.769178	0.943768	0.055716
H267	H	0.803716	0.903709	-0.324590
H268	H	1.303716	1.403709	0.175410
C269	C	0.140525	0.257560	-0.258748
C270	C	0.640525	0.757560	0.241252
C271	C	0.068212	0.257540	-0.258775
C272	C	0.568212	0.757540	0.241225
C273	C	0.032056	0.205212	-0.206635
C274	C	0.532056	0.705212	0.293365
C275	C	0.068214	0.152904	-0.154468
C276	C	0.568214	0.652904	0.345532
C277	C	0.140531	0.152922	-0.154438
C278	C	0.640531	0.652922	0.345562
C279	C	0.176686	0.205251	-0.206578
C280	C	0.676686	0.705251	0.293422
H281	H	0.041442	0.296263	-0.297394
H282	H	0.541442	0.796263	0.202606
H283	H	-0.021477	0.205198	-0.206657
H284	H	0.478523	0.705198	0.293343
H285	H	0.041450	0.114167	-0.115870
H286	H	0.541450	0.614167	0.384130
H287	H	0.167300	0.114199	-0.115819
H288	H	0.667300	0.614199	0.384181
H289	H	0.230220	0.205264	-0.206556
H290	H	0.730220	0.705264	0.293444
