data_functionalizedCrystal
_audit_creation_method	'MofGen! by Chris Wilmer'
_symmetry_space_group_name_H-M	'P1'
_symmetry_Int_Tables_number	1
_symmetry_cell_setting	triclinic
loop_
_symmetry_equiv_pos_as_xyz
  x,y,z
_cell_length_a	14.908183
_cell_length_b	18.101398
_cell_length_c	14.908308
_cell_angle_alpha	86.717290
_cell_angle_beta	89.779152
_cell_angle_gamma	86.686603
loop_
_atom_site_label
_atom_site_type_symbol
_atom_site_fract_x
_atom_site_fract_y
_atom_site_fract_z
Zn1	Zn	-0.387346	-1.090733	-0.487620
Zn2	Zn	-0.529056	-1.091479	-0.328583
Zn3	Zn	-0.378703	-0.974425	-0.337289
Zn4	Zn	-0.537669	-0.960163	-0.478907
O5	O	-0.458193	-1.029200	-0.408100
O6	O	-0.406157	-1.194465	-0.466526
O7	O	-0.501889	-1.082233	-0.203913
O8	O	-0.254015	-0.995510	-0.364521
O9	O	-0.510271	-1.195013	-0.349682
O10	O	-0.260366	-1.080961	-0.474969
O11	O	-0.391425	-0.996233	-0.210309
O12	O	-0.399777	-0.868901	-0.356072
O13	O	-0.524950	-0.971202	-0.605887
O14	O	-0.516568	-0.858422	-0.460118
O15	O	-0.414509	-1.067132	-0.612289
O16	O	-0.656032	-1.068403	-0.341233
O17	O	-0.662360	-0.971926	-0.451676
C18	C	-0.458170	-0.836791	-0.408095
C19	C	-0.458183	-0.754475	-0.408113
C20	C	-0.458201	-0.603766	-0.408110
C21	C	-0.531784	-0.565845	-0.473459
C22	C	-0.532055	-0.480225	-0.473237
C23	C	-0.458219	-0.455383	-0.408109
C24	C	-0.478036	-0.490066	-0.311776
C25	C	-0.478554	-0.575669	-0.312149
C26	C	-0.364580	-0.575233	-0.438276
C27	C	-0.365222	-0.489455	-0.440335
C28	C	-0.458227	-0.371523	-0.408103
C29	C	-0.458194	-0.687626	-0.408110
C30	C	-0.691825	-1.018717	-0.394584
C31	C	-0.791775	-1.014298	-0.388832
C32	C	-0.929416	-0.963622	-0.323173
C33	C	-0.835504	-0.967771	-0.328576
C34	C	-0.841965	-1.056678	-0.443691
C35	C	-0.935877	-1.052530	-0.438288
C36	C	-0.979599	-1.006001	-0.378026
C37	C	-1.073513	-1.001856	-0.372620
C38	C	-1.079972	-1.090759	-0.487738
C39	C	-0.986060	-1.094908	-0.493141
C40	C	-0.223651	-1.039743	-0.421688
C41	C	-0.123703	-1.044236	-0.427479
C42	C	-0.471654	-1.017493	-0.642626
C43	C	-0.477390	-1.012504	-0.742566
C44	C	-0.458220	-0.222360	-0.408105
C45	C	-0.458237	-0.304674	-0.408106
C46	C	-0.373146	-1.103020	-0.937035
C47	C	-0.378532	-1.098335	-1.030939
C48	C	-0.493545	-0.998446	-1.024279
C49	C	-0.488158	-1.003131	-0.930376
C50	C	-0.427958	-1.055421	-0.886757
C51	C	-0.422576	-1.060109	-0.792851
C52	C	-0.537583	-0.960217	-0.786194
C53	C	-0.542970	-0.955532	-0.880097
C54	C	-0.444720	-1.040907	-0.174490
C55	C	-0.438731	-1.046051	-0.074564
H56	H	-0.426956	-0.601244	-0.261493
H57	H	-0.582218	-0.921459	-0.745247
H58	H	-0.806354	-1.094555	-0.492760
H59	H	-0.542557	-0.955874	-1.059810
C60	C	-0.625128	-0.591762	-0.446161
H61	H	-0.669190	-0.568595	-0.485988
H62	H	-0.638362	-0.578655	-0.386551
H63	H	-0.625419	-0.644034	-0.449119
C64	C	-0.570768	-0.599853	-0.278563
H65	H	-0.607562	-0.557372	-0.264825
H66	H	-0.562928	-0.631929	-0.226145
H67	H	-0.598714	-0.625167	-0.324016
H68	H	-0.545519	-0.466595	-0.286596
C69	C	-0.977513	-0.912446	-0.256889
H70	H	-0.934175	-0.887798	-0.224996
H71	H	-1.011891	-0.941137	-0.215638
H72	H	-1.016138	-0.876816	-0.289149
C73	C	-0.609188	-0.898021	-0.928083
H74	H	-0.604551	-0.902050	-0.991209
H75	H	-0.595149	-0.849620	-0.913455
H76	H	-0.668726	-0.906923	-0.909195
C77	C	-0.407543	-0.469121	-0.243864
H78	H	-0.365301	-0.438963	-0.273729
H79	H	-0.377292	-0.512889	-0.218241
H80	H	-0.436551	-0.442573	-0.197732
H81	H	-1.120841	-1.125269	-0.532402
H82	H	-0.520335	-0.456406	-0.544483
C83	C	-0.338687	-0.601193	-0.531981
H84	H	-0.384736	-0.629682	-0.553583
H85	H	-0.283862	-0.630661	-0.528104
H86	H	-0.331520	-0.559236	-0.572081
C87	C	-0.780305	-0.921157	-0.268235
H88	H	-0.819798	-0.892858	-0.231570
H89	H	-0.745660	-0.888770	-0.304701
H90	H	-0.741412	-0.953091	-0.231191
H91	H	-0.950451	-1.132789	-0.542207
H92	H	-0.373559	-1.102686	-0.757339
H93	H	-0.520261	-0.583623	-0.544913
H94	H	-0.324132	-1.145600	-0.901520
H95	H	-0.601543	-0.457392	-0.452798
C96	C	-0.344878	-0.458453	-0.536138
H97	H	-0.392850	-0.424882	-0.556419
H98	H	-0.338510	-0.498070	-0.575225
H99	H	-0.290724	-0.433263	-0.535869
H100	H	-0.333896	-1.137094	-1.071872
H101	H	-0.307944	-0.472846	-0.396687
H102	H	-0.309829	-0.600346	-0.390751
C103	C	-1.121607	-0.950674	-0.306340
H104	H	-1.078266	-0.926023	-0.274453
H105	H	-1.155983	-0.979360	-0.265082
H106	H	-1.160232	-0.915047	-0.338604
