data_functionalizedCrystal
_audit_creation_method	'MofGen! by Chris Wilmer'
_symmetry_space_group_name_H-M	'P1'
_symmetry_Int_Tables_number	1
_symmetry_cell_setting	triclinic
loop_
_symmetry_equiv_pos_as_xyz
  x,y,z
_cell_length_a	12.759400
_cell_length_b	18.215407
_cell_length_c	18.215399
_cell_angle_alpha	90.019833
_cell_angle_beta	90.024546
_cell_angle_gamma	90.015132
loop_
_atom_site_label
_atom_site_type_symbol
_atom_site_fract_x
_atom_site_fract_y
_atom_site_fract_z
Zn1	Zn	-0.418265	1.125124	0.416133
Zn2	Zn	-0.084931	1.458457	0.749467
Zn3	Zn	0.248402	1.791791	1.082800
Zn4	Zn	-0.593962	1.125054	0.293074
Zn5	Zn	-0.260629	1.458388	0.626408
Zn6	Zn	0.072705	1.791721	0.959741
Zn7	Zn	-0.418299	1.002057	0.293081
Zn8	Zn	-0.084966	1.335390	0.626414
Zn9	Zn	0.248368	1.668723	0.959747
Zn10	Zn	-0.593903	1.002044	0.416099
Zn11	Zn	-0.260570	1.335378	0.749433
Zn12	Zn	0.072763	1.668711	1.082766
O13	O	-0.506107	1.063570	0.354597
O14	O	-0.172774	1.396903	0.687930
O15	O	0.160560	1.730237	1.021264
O16	O	-0.441581	1.228099	0.399821
O17	O	-0.108248	1.561432	0.733154
O18	O	0.225085	1.894766	1.066488
O19	O	-0.570699	1.108714	0.190091
O20	O	-0.237365	1.442048	0.523424
O21	O	0.095968	1.775381	0.856758
O22	O	-0.271273	1.018416	0.309421
O23	O	0.062060	1.351749	0.642754
O24	O	0.395393	1.685083	0.976087
O25	O	-0.570665	1.228048	0.309410
O26	O	-0.237332	1.561381	0.642743
O27	O	0.096001	1.894715	0.976077
O28	O	-0.271248	1.108833	0.399827
O29	O	0.062085	1.442167	0.733160
O30	O	0.395419	1.775500	1.066494
O31	O	-0.441640	1.018349	0.190096
O32	O	-0.108306	1.351682	0.523429
O33	O	0.225027	1.685015	0.856762
O34	O	-0.441583	0.899071	0.309388
O35	O	-0.108250	1.232404	0.642721
O36	O	0.225084	1.565737	0.976054
O37	O	-0.570566	1.018395	0.519088
O38	O	-0.237232	1.351729	0.852421
O39	O	0.096101	1.685062	1.185755
O40	O	-0.570599	0.899062	0.399769
O41	O	-0.237266	1.232395	0.733102
O42	O	0.096068	1.565729	1.066436
O43	O	-0.441525	1.108821	0.519113
O44	O	-0.108191	1.442155	0.852446
O45	O	0.225142	1.775488	1.185780
O46	O	-0.740975	1.108703	0.309377
O47	O	-0.407642	1.442036	0.642710
O48	O	-0.074308	1.775369	0.976044
O49	O	-0.740932	1.018328	0.399763
O50	O	-0.407599	1.351661	0.733096
O51	O	-0.074265	1.684994	1.066429
C52	C	-0.506089	0.872364	0.354576
C53	C	-0.172756	1.205697	0.687909
C54	C	0.160577	1.539030	1.021242
C55	C	-0.506107	0.790565	0.354584
C56	C	-0.172773	1.123898	0.687918
C57	C	0.160560	1.457231	1.021251
C58	C	-0.573391	0.602385	0.401587
C59	C	-0.240058	0.935719	0.734920
C60	C	0.093276	1.269052	1.068253
C61	C	-0.573394	0.525527	0.401596
C62	C	-0.240061	0.858860	0.734929
C63	C	0.093272	1.192193	1.068262
C64	C	-0.438842	0.525506	0.307623
C65	C	-0.105509	0.858840	0.640957
C66	C	0.227824	1.192173	0.974290
C67	C	-0.438835	0.602364	0.307618
C68	C	-0.105501	0.935697	0.640952
C69	C	0.227832	1.269030	0.974285
C70	C	-0.506115	0.640801	0.354599
C71	C	-0.172782	0.974135	0.687932
C72	C	0.160552	1.307468	1.021266
C73	C	-0.506126	0.487085	0.354613
C74	C	-0.172793	0.820419	0.687946
C75	C	0.160541	1.153752	1.021280
C76	C	-0.506129	0.403752	0.354623
C77	C	-0.172796	0.737085	0.687956
C78	C	0.160538	1.070418	1.021289
C79	C	-0.506111	0.724140	0.354590
C80	C	-0.172777	1.057474	0.687924
C81	C	0.160556	1.390807	1.021257
C82	C	-0.779075	1.063526	0.354582
C83	C	-0.445741	1.396860	0.687915
C84	C	-0.112408	1.730193	1.021248
C85	C	-0.895851	1.063575	0.354600
C86	C	-0.562518	1.396908	0.687933
C87	C	-0.229184	1.730242	1.021266
C88	C	-0.950701	1.110685	0.307588
C89	C	-0.617367	1.444019	0.640921
C90	C	-0.284034	1.777352	0.974254
C91	C	-1.060425	1.110731	0.307610
C92	C	-0.727091	1.444064	0.640944
C93	C	-0.393758	1.777397	0.974277
C94	C	-1.060440	1.016549	0.401659
C95	C	-0.727107	1.349882	0.734992
C96	C	-0.393773	1.683215	1.068326
C97	C	-0.950718	1.016508	0.401639
C98	C	-0.617385	1.349841	0.734973
C99	C	-0.284051	1.683174	1.068306
C100	C	-0.895834	1.157753	0.260548
C101	C	-0.562500	1.491086	0.593881
C102	C	-0.229167	1.824419	0.927215
C103	C	-0.950683	1.204866	0.213532
C104	C	-0.617350	1.538200	0.546865
C105	C	-0.284017	1.871533	0.880198
C106	C	-1.060407	1.204911	0.213554
C107	C	-0.727074	1.538245	0.546888
C108	C	-0.393741	1.871578	0.880221
C109	C	-1.115282	1.157843	0.260593
C110	C	-0.781949	1.491176	0.593927
C111	C	-0.448615	1.824510	0.927260
C112	C	-0.232074	1.063634	0.354628
C113	C	0.101259	1.396967	0.687962
C114	C	0.434593	1.730300	1.021295
C115	C	-0.115297	1.063661	0.354642
C116	C	0.218036	1.396994	0.687975
C117	C	0.551369	1.730328	1.021308
C118	C	-0.506126	1.255523	0.354618
C119	C	-0.172793	1.588856	0.687952
C120	C	0.160541	1.922189	1.021285
C121	C	-0.506134	1.337322	0.354628
C122	C	-0.172801	1.670655	0.687961
C123	C	0.160533	2.003988	1.021294
C124	C	-0.506035	1.063615	0.546550
C125	C	-0.172701	1.396948	0.879883
C126	C	0.160632	1.730281	1.213217
C127	C	-0.506004	1.063634	0.628349
C128	C	-0.172671	1.396967	0.961682
C129	C	0.160663	1.730301	1.295015
C130	C	-0.506103	1.063568	0.163391
C131	C	-0.172770	1.396901	0.496724
C132	C	0.160563	1.730234	0.830057
C133	C	-0.505838	1.063691	0.081592
C134	C	-0.172505	1.397024	0.414925
C135	C	0.160828	1.730358	0.748259
C136	C	-0.438749	1.110736	0.816557
C137	C	-0.105416	1.444069	1.149890
C138	C	0.227917	1.777402	1.483224
C139	C	-0.438719	1.110744	0.893416
C140	C	-0.105385	1.444078	1.226749
C141	C	0.227948	1.777411	1.560083
C142	C	-0.573096	1.016584	0.893379
C143	C	-0.239763	1.349917	1.226712
C144	C	0.093571	1.683251	1.560045
C145	C	-0.573120	1.016572	0.816521
C146	C	-0.239787	1.349905	1.149854
C147	C	0.093546	1.683239	1.483188
C148	C	-0.505949	1.063652	0.778112
C149	C	-0.172615	1.396985	1.111446
C150	C	0.160718	1.730319	1.444779
C151	C	-0.505894	1.063673	0.931829
C152	C	-0.172560	1.397006	1.265162
C153	C	0.160773	1.730339	1.598495
C154	C	-0.505861	1.063682	1.015162
C155	C	-0.172528	1.397015	1.348496
C156	C	0.160806	1.730349	1.681829
C157	C	-0.505980	1.063642	0.694773
C158	C	-0.172646	1.396976	1.028107
C159	C	0.160687	1.730309	1.361440
H160	H	-0.628172	0.633679	0.439843
H161	H	-0.294839	0.967012	0.773176
H162	H	0.038494	1.300346	1.106510
N163	N	-0.645594	0.965771	0.775060
N164	N	-0.312261	1.299105	1.108394
N165	N	0.021072	1.632438	1.441727
H166	H	-0.720661	0.977179	0.788423
H167	H	-0.387328	1.310512	1.121756
H168	H	-0.053995	1.643846	1.455090
H169	H	-0.635328	0.972921	0.720556
H170	H	-0.301994	1.306254	1.053889
H171	H	0.031339	1.639587	1.387222
H172	H	-0.628176	0.494252	0.439859
H173	H	-0.294842	0.827585	0.773192
H174	H	0.038491	1.160919	1.106526
N175	N	-0.891541	0.965699	0.452340
N176	N	-0.558208	1.299032	0.785674
N177	N	-0.224874	1.632365	1.119007
H178	H	-0.910569	0.977105	0.504937
H179	H	-0.577235	1.310439	0.838270
H180	H	-0.243902	1.643772	1.171604
H181	H	-0.910722	0.913149	0.440806
H182	H	-0.577389	1.246482	0.774139
H183	H	-0.244056	1.579815	1.107472
H184	H	-0.384044	0.633643	0.269355
H185	H	-0.050710	0.966976	0.602688
H186	H	0.282623	1.300309	0.936022
N187	N	-0.366248	1.161535	0.934879
N188	N	-0.032914	1.494868	1.268213
N189	N	0.300419	1.828202	1.601546
H190	H	-0.376420	1.154400	0.989397
H191	H	-0.043086	1.487733	1.322730
H192	H	0.290247	1.821066	1.656063
H193	H	-0.291217	1.150098	0.921451
H194	H	0.042116	1.483431	1.254785
H195	H	0.375450	1.816765	1.588118
N196	N	-0.366303	1.161511	0.775129
N197	N	-0.032969	1.494844	1.108462
N198	N	0.300364	1.828178	1.441795
H199	H	-0.323727	1.191338	0.811149
H200	H	0.009607	1.524672	1.144482
H201	H	0.342940	1.858005	1.477816
H202	H	-0.317692	1.131560	0.743240
H203	H	0.015642	1.464893	1.076574
H204	H	0.348975	1.798227	1.409907
N205	N	-0.645526	0.965805	0.934817
N206	N	-0.312193	1.299139	1.268151
N207	N	0.021141	1.632472	1.601484
H208	H	-0.694205	0.995703	0.966708
H209	H	-0.360872	1.329036	1.300041
H210	H	-0.027539	1.662370	1.633375
H211	H	-0.688030	0.935977	0.898760
H212	H	-0.354697	1.269311	1.232093
H213	H	-0.021364	1.602644	1.565426
N214	N	-0.366306	0.484049	0.256934
N215	N	-0.032973	0.817382	0.590267
N216	N	0.300360	1.150715	0.923601
H217	H	-0.376529	0.429530	0.264058
H218	H	-0.043196	0.762864	0.597392
H219	H	0.290137	1.096197	0.930725
H220	H	-0.382590	0.497471	0.204361
H221	H	-0.049257	0.830804	0.537695
H222	H	0.284076	1.164138	0.871028
N223	N	-0.777490	1.157699	0.260519
N224	N	-0.444157	1.491032	0.593853
N225	N	-0.110824	1.824366	0.927186
H226	H	-0.751053	1.194662	0.223587
H227	H	-0.417720	1.527996	0.556920
H228	H	-0.084386	1.861329	0.890254
H229	H	-0.751072	1.171168	0.311034
H230	H	-0.417739	1.504501	0.644368
H231	H	-0.084405	1.837834	0.977701
H232	H	-0.905999	1.243192	0.175238
H233	H	-0.572666	1.576526	0.508571
H234	H	-0.239332	1.909859	0.841905
N235	N	-1.119576	1.255724	0.162852
N236	N	-0.786243	1.589057	0.496185
N237	N	-0.452910	1.922390	0.829519
H238	H	-1.100407	1.308293	0.174322
H239	H	-0.767074	1.641626	0.507655
H240	H	-0.433740	1.974959	0.840988
H241	H	-1.100526	1.244250	0.110276
H242	H	-0.767193	1.577583	0.443610
H243	H	-0.433860	1.910916	0.776943
N244	N	-1.233627	1.157897	0.260627
N245	N	-0.900294	1.491230	0.593960
N246	N	-0.566960	1.824564	0.927294
H247	H	-1.260051	1.194887	0.223710
H248	H	-0.926717	1.528220	0.557043
H249	H	-0.593384	1.861553	0.890376
H250	H	-1.260051	1.107406	0.247082
H251	H	-0.926718	1.440740	0.580415
H252	H	-0.593384	1.774073	0.913748
H253	H	-1.105127	0.978227	0.439955
H254	H	-0.771794	1.311560	0.773288
H255	H	-0.438461	1.644894	1.106622
