data_functionalizedCrystal
_audit_creation_method	'MofGen! by Chris Wilmer'
_symmetry_space_group_name_H-M	'P1'
_symmetry_Int_Tables_number	1
_symmetry_cell_setting	triclinic
loop_
_symmetry_equiv_pos_as_xyz
  x,y,z
_cell_length_a	25.639239
_cell_length_b	16.959455
_cell_length_c	25.639233
_cell_angle_alpha	90.012273
_cell_angle_beta	89.981253
_cell_angle_gamma	89.964367
loop_
_atom_site_label
_atom_site_type_symbol
_atom_site_fract_x
_atom_site_fract_y
_atom_site_fract_z
Zn1	Zn	-0.208257	-1.208265	-0.295604
Zn2	Zn	-0.295676	-1.208150	-0.208169
Zn3	Zn	-0.208252	-1.076099	-0.208183
Zn4	Zn	-0.295659	-1.076016	-0.295574
O5	O	-0.251961	-1.142132	-0.251882
O6	O	-0.219863	-1.318861	-0.284012
O7	O	-0.284084	-1.190619	-0.135005
O8	O	-0.135087	-1.093714	-0.219799
O9	O	-0.284089	-1.318776	-0.219774
O10	O	-0.135091	-1.190816	-0.284027
O11	O	-0.219853	-1.093602	-0.135016
O12	O	-0.219837	-0.965477	-0.219769
O13	O	-0.284060	-1.093573	-0.368743
O14	O	-0.284054	-0.965416	-0.283974
O15	O	-0.219846	-1.190736	-0.368765
O16	O	-0.368839	-1.190539	-0.219744
O17	O	-0.368826	-1.093460	-0.283960
C18	C	-0.387803	-1.141999	-0.251859
C19	C	-0.445917	-1.142015	-0.251866
C20	C	-0.251943	-0.936766	-0.251870
C21	C	-0.251949	-0.848910	-0.251878
C22	C	-0.251952	-1.142158	-0.388255
C23	C	-0.251948	-1.142169	-0.446370
C24	C	-0.806274	-1.192813	-0.218502
C25	C	-0.860879	-1.192844	-0.218509
O26	O	-0.889110	-1.235896	-0.190116
N27	N	-0.888200	-1.142271	-0.251917
C28	C	-0.860914	-1.091671	-0.285324
O29	O	-0.889166	-1.048658	-0.313741
C30	C	-0.806310	-1.091645	-0.285319
C31	C	-0.778992	-1.142215	-0.251905
C32	C	-0.778956	-1.243379	-0.185091
C33	C	-0.724356	-1.243348	-0.185084
C34	C	-0.697073	-1.192749	-0.218487
C35	C	-0.724392	-1.142183	-0.251898
C36	C	-0.779025	-1.041049	-0.318728
C37	C	-0.724418	-1.041027	-0.318721
C38	C	-0.697100	-1.091597	-0.285307
C39	C	-0.642509	-1.091553	-0.285294
N40	N	-0.615188	-1.142125	-0.251886
C41	C	-0.642470	-1.192723	-0.218482
C42	C	-0.975584	-1.091730	-0.285332
C43	C	-1.030187	-1.091752	-0.285335
C44	C	-1.030148	-1.192926	-0.218520
C45	C	-0.975545	-1.192900	-0.218515
C46	C	-0.948263	-1.142303	-0.251924
C47	C	-0.527805	-1.192652	-0.218469
C48	C	-0.473200	-1.192613	-0.218463
C49	C	-0.473243	-1.091442	-0.285279
C50	C	-0.527844	-1.091478	-0.285283
C51	C	-0.555123	-1.142089	-0.251876
O52	O	-0.614243	-1.048524	-0.313674
O53	O	-0.614211	-1.235736	-0.190075
C54	C	-0.115588	-1.142287	-0.251918
C55	C	-0.057474	-1.142353	-0.251933
C56	C	-0.251978	-1.348301	-0.251895
C57	C	-0.251986	-1.436157	-0.251900
C58	C	-0.218495	-0.477441	-0.218521
C59	C	-0.285469	-0.477427	-0.285274
C60	C	-0.285462	-0.559972	-0.285271
C61	C	-0.251971	-0.601257	-0.251892
C62	C	-0.218488	-0.559995	-0.218515
C63	C	-0.318948	-0.601240	-0.318643
C64	C	-0.318942	-0.683791	-0.318641
C65	C	-0.285449	-0.725077	-0.285263
C66	C	-0.251964	-0.683810	-0.251886
C67	C	-0.218473	-0.725094	-0.218507
C68	C	-0.184985	-0.683829	-0.185132
C69	C	-0.184994	-0.601280	-0.185138
C70	C	-0.285439	-0.807625	-0.285257
C71	C	-0.218465	-0.807648	-0.218501
C72	C	-0.218412	-1.192826	-0.806750
C73	C	-0.218398	-1.192836	-0.861354
O74	O	-0.189947	-1.235842	-0.889606
N75	N	-0.251825	-1.142256	-0.888652
C76	C	-0.285265	-1.091657	-0.861343
O77	O	-0.313696	-1.048636	-0.889576
C78	C	-0.285277	-1.091644	-0.806740
C79	C	-0.251851	-1.142233	-0.779445
C80	C	-0.184989	-1.243410	-0.779455
C81	C	-0.185004	-1.243401	-0.724855
C82	C	-0.218443	-1.192808	-0.697549
C83	C	-0.251866	-1.142224	-0.724844
C84	C	-0.318714	-1.041042	-0.779431
C85	C	-0.318722	-1.041033	-0.724824
C86	C	-0.285296	-1.091622	-0.697529
C87	C	-0.285320	-1.091622	-0.642938
N88	N	-0.251893	-1.142202	-0.615640
C89	C	-0.218454	-1.192795	-0.642946
C90	C	-0.285238	-1.091688	-0.976014
C91	C	-0.285230	-1.091705	-1.030616
C92	C	-0.218361	-1.192882	-1.030624
C93	C	-0.218373	-1.192869	-0.976020
C94	C	-0.251811	-1.142268	-0.948716
C95	C	-0.218489	-1.192773	-0.528281
C96	C	-0.218509	-1.192762	-0.473675
C97	C	-0.285375	-1.091582	-0.473672
C98	C	-0.285357	-1.091595	-0.528273
C99	C	-0.251910	-1.142194	-0.555576
O100	O	-0.313755	-1.048635	-0.614652
O101	O	-0.190023	-1.235802	-0.614706
C102	C	-0.251932	-1.142152	-0.116040
C103	C	-0.251789	-1.142295	-0.057926
H104	H	-0.450959	-1.233793	-0.191251
H105	H	-0.550087	-1.050302	-0.312493
Cl106	Cl	-1.064523	-1.028166	-0.327336
Cl107	Cl	-0.142887	-0.735739	-0.143168
Cl108	Cl	-0.327381	-1.028002	-0.562587
Cl109	Cl	-1.064456	-1.256535	-0.176526
Cl110	Cl	-0.142900	-0.549400	-0.143185
H111	H	-0.191133	-1.234076	-1.052866
H112	H	-0.191252	-1.233972	-0.550504
H113	H	-0.801164	-1.284587	-0.157890
H114	H	-0.345946	-0.999818	-0.702595
H115	H	-0.312706	-0.841220	-0.312429
H116	H	-0.346218	-0.567621	-0.345815
Cl117	Cl	-0.690021	-1.306937	-0.143083
H118	H	-0.191229	-0.443839	-0.191349
Cl119	Cl	-0.941207	-1.256477	-0.176509
H120	H	-0.157756	-1.284609	-0.801682
Cl121	Cl	-0.176349	-1.256466	-0.941712
H122	H	-0.312454	-1.050519	-1.052835
H123	H	-0.312739	-0.443808	-0.312447
Cl124	Cl	-0.438935	-1.027841	-0.327272
Cl125	Cl	-0.361039	-0.735660	-0.360598
H126	H	-0.191289	-1.233960	-0.451454
Cl127	Cl	-0.142977	-1.306996	-0.690549
Cl128	Cl	-0.176357	-0.859541	-0.176539
H129	H	-0.345932	-0.999847	-0.801645
Cl130	Cl	-0.327408	-1.027980	-0.439335
H131	H	-0.312470	-1.050482	-0.953785
H132	H	-0.550010	-1.233866	-0.191267
Cl133	Cl	-0.941293	-1.028109	-0.327332
H134	H	-0.801258	-0.999865	-0.345935
H135	H	-0.702208	-0.999826	-0.345928
