data_functionalizedCrystal
_audit_creation_method	'MofGen! by Chris Wilmer'
_symmetry_space_group_name_H-M	'P1'
_symmetry_Int_Tables_number	1
_symmetry_cell_setting	triclinic
loop_
_symmetry_equiv_pos_as_xyz
  x,y,z
_cell_length_a	13.262522
_cell_length_b	13.339070
_cell_length_c	12.376897
_cell_angle_alpha	80.988424
_cell_angle_beta	92.993751
_cell_angle_gamma	99.428816
loop_
_atom_site_label
_atom_site_type_symbol
_atom_site_fract_x
_atom_site_fract_y
_atom_site_fract_z
O1	O	1.310714	0.044355	0.496926
O2	O	1.030541	0.075147	0.410799
O3	O	1.138473	-0.085826	0.443975
O4	O	1.202781	0.205328	0.463751
O5	O	1.181275	-0.053441	0.269135
O6	O	1.073342	0.107533	0.235959
O7	O	1.353515	0.076740	0.322086
Zn8	Zn	1.220224	0.097278	0.251263
Zn9	Zn	1.163832	0.054609	0.481623
O10	O	1.245583	0.237714	0.288910
C11	C	1.015350	0.092593	0.312131
C12	C	0.906315	0.096314	0.278613
C13	C	0.878431	0.115718	0.167555
C14	C	0.775988	0.119206	0.136054
C15	C	0.701421	0.103298	0.215608
C16	C	0.729306	0.083901	0.326669
C17	C	0.831758	0.080405	0.358172
C18	C	0.654748	0.067985	0.406226
C19	C	0.682633	0.048588	0.517286
C20	C	0.785075	0.045093	0.548785
C21	C	0.859642	0.061000	0.469230
C22	C	0.552296	0.071481	0.374722
C23	C	0.505623	0.036168	0.565340
C24	C	0.608066	0.032680	0.596841
C25	C	1.149010	-0.106753	0.353217
C26	C	1.116629	-0.217358	0.343267
C27	C	1.368402	-0.595352	0.420664
C28	C	1.398831	-0.491432	0.430007
C29	C	1.328283	-0.422909	0.408323
C30	C	1.227301	-0.458314	0.377294
C31	C	1.196872	-0.562242	0.367941
C32	C	1.156752	-0.389800	0.355601
C33	C	1.055771	-0.425205	0.324572
C34	C	1.025346	-0.529123	0.315221
C35	C	1.095894	-0.597647	0.336905
C36	C	1.187182	-0.285872	0.364953
C37	C	1.015651	-0.252762	0.312231
C38	C	0.985223	-0.356682	0.302888
C39	C	1.368705	0.059294	0.420757
C40	C	1.477738	0.055572	0.454282
C41	C	1.235045	0.258640	0.379671
C42	C	1.267425	0.369244	0.389627
N43	N	1.258717	0.126398	0.094051
C44	C	1.035951	-0.042121	-0.329490
C45	C	1.008993	-0.062503	-0.219446
C46	C	1.071421	-0.015279	-0.141067
C47	C	1.160813	0.052330	-0.172741
C48	C	1.187778	0.072708	-0.282794
C49	C	1.223249	0.099550	-0.094372
C50	C	1.312640	0.167159	-0.126046
C51	C	1.339600	0.187534	-0.236089
C52	C	1.277171	0.140310	-0.314468
C53	C	1.196284	0.079171	0.015682
C54	C	1.348111	0.194000	0.062377
C55	C	1.375069	0.214383	-0.047667
N56	N	1.125344	0.025481	0.638836
H57	H	0.618009	0.106141	0.189954
H58	H	1.299113	0.156907	-0.404078
O59	O	1.471485	0.287299	-0.081831
H60	H	1.538460	0.257642	-0.038504
O61	O	0.425200	0.018982	0.651150
H62	H	0.461796	0.004881	0.733667
O63	O	1.063084	-0.709736	0.326825
H64	H	1.000601	-0.743191	0.384249
O65	O	0.815147	0.024163	0.668571
H66	H	0.850722	-0.046663	0.684413
H67	H	0.753290	0.134986	0.045628
O68	O	0.916433	-0.567309	0.281745
H69	H	0.915914	-0.600656	0.204954
O70	O	1.507737	-0.453241	0.463473
H71	H	1.508256	-0.419873	0.540251
O72	O	1.415447	0.244951	0.146901
H73	H	1.442536	0.185137	0.209168
O74	O	0.522102	0.092719	0.255006
H75	H	0.466480	0.026920	0.232838
O76	O	0.958850	0.132877	0.081756
H77	H	1.034771	0.127193	0.122324
H78	H	0.943062	0.058165	0.494873
H79	H	1.353064	-0.338294	0.415932
O80	O	1.444490	-0.669250	0.444038
H81	H	1.406364	-0.747461	0.432322
H82	H	1.123500	0.024124	0.041459
H83	H	0.630785	0.016886	0.687268
O84	O	0.876313	-0.394868	0.269403
H85	H	0.867015	-0.478640	0.266534
O86	O	1.296086	-0.247697	0.398439
H87	H	1.348817	-0.262394	0.338030
O88	O	1.436017	0.260448	-0.270259
H89	H	1.474895	0.289870	-0.197275
H90	H	0.958206	-0.196969	0.294569
H91	H	1.049466	-0.031879	-0.051466
H92	H	0.936212	-0.117553	-0.193664
H93	H	0.985136	-0.080570	-0.393312
