data_functionalizedCrystal
_audit_creation_method	'MofGen! by Chris Wilmer'
_symmetry_space_group_name_H-M	'P1'
_symmetry_Int_Tables_number	1
_symmetry_cell_setting	triclinic
loop_
_symmetry_equiv_pos_as_xyz
  x,y,z
_cell_length_a	10.967926
_cell_length_b	14.044220
_cell_length_c	10.065875
_cell_angle_alpha	99.592716
_cell_angle_beta	93.120479
_cell_angle_gamma	88.855190
loop_
_atom_site_label
_atom_site_type_symbol
_atom_site_fract_x
_atom_site_fract_y
_atom_site_fract_z
O1	O	1.630686	0.165922	0.270028
O2	O	1.280933	0.168639	0.187766
O3	O	1.450558	0.029112	0.227675
O4	O	1.461061	0.305449	0.230119
O5	O	1.418224	0.055829	0.447057
O6	O	1.248600	0.195356	0.407147
O7	O	1.598353	0.192639	0.489410
Zn8	Zn	1.418343	0.198240	0.483110
Zn9	Zn	1.460943	0.163038	0.194066
O10	O	1.428728	0.332167	0.449500
C11	C	1.219735	0.179781	0.286865
C12	C	1.085555	0.173165	0.255306
C13	C	1.008984	0.184056	0.354882
C14	C	0.870302	0.177219	0.322267
C15	C	1.429795	0.006993	0.336286
C16	C	1.416086	-0.098717	0.333063
C17	C	1.391025	-0.292267	0.327149
C18	C	1.488257	-0.346462	0.350014
C19	C	1.474313	-0.454160	0.346723
C20	C	1.404967	-0.184559	0.330439
C21	C	1.659551	0.181497	0.390307
C22	C	1.793732	0.188112	0.421858
C23	C	1.449491	0.354284	0.340887
C24	C	1.463202	0.459994	0.344101
N25	N	1.389278	0.222264	0.680377
N26	N	1.490017	0.139007	-0.003199
C27	C	1.450822	0.171391	0.762636
C28	C	1.428463	0.189888	0.914543
H29	H	1.046099	0.198437	0.464279
N30	N	0.823759	0.159189	0.185018
N31	N	0.845610	0.216761	0.107286
H32	H	0.812738	0.204029	0.010355
N33	N	0.840267	0.206176	0.559108
N34	N	0.810543	0.281876	0.634978
H35	H	0.843408	0.294635	0.731910
N36	N	1.605829	-0.303220	0.377700
N37	N	1.697250	-0.354111	0.399213
H38	H	1.780283	-0.323568	0.418772
H39	H	1.048441	0.158777	0.145910
N40	N	1.302395	0.294079	0.733072
N41	N	1.192930	0.287169	0.691493
H42	H	1.131564	0.337890	0.728704
H43	H	1.559260	0.081751	0.954771
H44	H	1.297318	-0.326751	0.305106
H45	H	1.520061	0.114138	0.720603
H46	H	1.359210	0.247137	0.956570
