data_functionalizedCrystal
_audit_creation_method	'MofGen! by Chris Wilmer'
_symmetry_space_group_name_H-M	'P1'
_symmetry_Int_Tables_number	1
_symmetry_cell_setting	triclinic
loop_
_symmetry_equiv_pos_as_xyz
  x,y,z
_cell_length_a	10.489741
_cell_length_b	16.176319
_cell_length_c	17.699092
_cell_angle_alpha	89.994879
_cell_angle_beta	83.912771
_cell_angle_gamma	89.995299
loop_
_atom_site_label
_atom_site_type_symbol
_atom_site_fract_x
_atom_site_fract_y
_atom_site_fract_z
O1	O	1.692080	-0.068692	0.106782
O2	O	2.192080	0.431308	0.606782
O3	O	1.320699	-0.068705	0.116805
O4	O	1.820699	0.431295	0.616805
O5	O	1.516876	-0.068696	0.001673
O6	O	2.016876	0.431304	0.501673
O7	O	1.495902	-0.068701	0.221913
O8	O	1.995902	0.431299	0.721913
O9	O	1.516849	0.068797	0.001665
O10	O	2.016849	0.568797	0.501665
O11	O	1.320672	0.068789	0.116797
O12	O	1.820672	0.568789	0.616797
O13	O	1.692053	0.068801	0.106774
O14	O	2.192053	0.568801	0.606774
Cu15	Cu	1.506360	0.081349	0.111785
Cu16	Cu	2.006360	0.581349	0.611785
Cu17	Cu	1.506392	-0.081253	0.111794
Cu18	Cu	2.006392	0.418747	0.611794
O19	O	1.495875	0.068793	0.221906
O20	O	1.995875	0.568793	0.721906
C21	C	1.273168	0.000040	0.116044
C22	C	1.773168	0.500040	0.616044
C23	C	1.131580	0.000036	0.113779
C24	C	1.631580	0.500036	0.613779
N25	N	1.506347	0.195714	0.111778
N26	N	2.006347	0.695714	0.611778
N27	N	1.506415	-0.195618	0.111795
N28	N	2.006415	0.304382	0.611795
C29	C	1.064797	0.000045	0.040524
C30	C	1.564797	0.500045	0.540524
C31	C	0.972043	-0.067746	0.075133
C32	C	1.472043	0.432254	0.575133
C33	C	0.972050	0.067812	0.075143
C34	C	1.472050	0.567812	0.575143
C35	C	1.040690	-0.067811	0.148418
C36	C	1.540690	0.432189	0.648418
C37	C	1.040707	0.067808	0.148418
C38	C	1.540707	0.567808	0.648418
C39	C	0.947979	0.000001	0.183079
C40	C	1.447979	0.500001	0.683079
C41	C	1.739584	0.000054	0.107535
C42	C	2.239584	0.500054	0.607535
C43	C	1.881172	0.000054	0.109800
C44	C	2.381172	0.500054	0.609800
C45	C	1.516110	0.000049	-0.026533
C46	C	2.016110	0.500049	0.473467
C47	C	1.513850	0.000045	-0.110565
C48	C	2.013850	0.500045	0.389435
C49	C	1.593240	0.238982	0.060819
C50	C	2.093240	0.738982	0.560819
C51	C	1.593247	0.325529	0.060818
C52	C	2.093247	0.825529	0.560818
C53	C	1.506365	0.368807	0.111781
C54	C	2.006365	0.868807	0.611781
C55	C	1.419462	0.325533	0.162742
C56	C	1.919462	0.825533	0.662742
C57	C	1.419451	0.238987	0.162739
C58	C	1.919451	0.738987	0.662739
C59	C	1.419506	0.674561	0.162757
C60	C	1.919506	1.174561	0.662757
C61	C	1.419527	0.761113	0.162758
C62	C	1.919527	1.261113	0.662758
C63	C	1.593302	0.761103	0.060836
C64	C	2.093302	1.261103	0.560836
C65	C	1.593291	0.674558	0.060833
C66	C	2.093291	1.174558	0.560833
C67	C	1.506384	0.631291	0.111791
C68	C	2.006384	1.131291	0.611791
C69	C	1.506376	0.537447	0.111791
C70	C	2.006376	1.037447	0.611791
C71	C	1.506378	0.462649	0.111786
C72	C	2.006378	0.962649	0.611786
C73	C	1.512805	-0.074903	-0.150035
C74	C	2.012805	0.425097	0.349965
C75	C	1.510674	-0.074904	-0.228992
C76	C	2.010674	0.425096	0.271008
C77	C	1.509595	0.000044	-0.268478
C78	C	2.009595	0.500044	0.231522
C79	C	1.510636	0.074998	-0.229002
C80	C	2.010636	0.574998	0.270998
C81	C	1.512758	0.074999	-0.150046
C82	C	2.012758	0.574999	0.349954
C83	C	1.502074	0.074999	-0.547423
C84	C	2.002074	0.574999	-0.047423
C85	C	1.499956	0.074993	-0.626385
C86	C	1.999956	0.574993	-0.126385
C87	C	1.499990	-0.074904	-0.626369
C88	C	1.999990	0.425096	-0.126369
C89	C	1.502112	-0.074903	-0.547413
C90	C	2.002112	0.425097	-0.047413
C91	C	1.503146	0.000050	-0.507944
C92	C	2.003146	0.500050	-0.007944
C93	C	1.505455	0.000051	-0.422329
C94	C	2.005455	0.500051	0.077671
C95	C	1.507296	0.000045	-0.354092
C96	C	2.007296	0.500045	0.145908
C97	C	1.496642	0.000046	0.250111
C98	C	1.996642	0.500046	0.750111
C99	C	1.498902	0.000044	0.334144
C100	C	1.998902	0.500044	0.834144
H101	H	1.115603	-0.000039	-0.019696
H102	H	1.615603	0.499961	0.480304
F103	F	0.881913	-0.000047	0.261874
F104	F	1.381913	0.499953	0.761874
H105	H	1.348715	0.360774	0.204235
H106	H	1.848715	0.860774	0.704235
H107	H	1.509829	-0.135935	-0.261126
H108	H	2.009829	0.364065	0.238874
F109	F	1.327049	0.807170	0.217001
F110	F	1.827049	1.307170	0.717001
F111	F	1.685793	0.807157	0.006599
F112	F	2.185793	1.307157	0.506599
H113	H	1.348746	0.639340	0.204250
H114	H	1.848746	1.139340	0.704250
H115	H	1.071168	0.125122	0.179385
H116	H	1.571168	0.625122	0.679385
F117	F	1.685727	0.371579	0.006581
F118	F	2.185727	0.871579	0.506581
H119	H	1.502996	-0.135934	-0.515268
H120	H	2.002996	0.364066	-0.015268
F121	F	0.932272	-0.142658	0.034626
F122	F	1.432272	0.357342	0.534626
F123	F	1.503158	0.154772	-0.505425
F124	F	2.003158	0.654772	-0.005425
F125	F	1.080244	-0.142806	0.188904
F126	F	1.580244	0.357194	0.688904
H127	H	0.941635	0.125124	0.044131
H128	H	1.441635	0.625124	0.544131
H129	H	1.663995	0.203751	0.019323
H130	H	2.163995	0.703751	0.519323
H131	H	1.499142	-0.135935	-0.658515
H132	H	1.999142	0.364065	-0.158515
H133	H	1.499074	0.136029	-0.658532
H134	H	1.999074	0.636029	-0.158532
F135	F	1.326962	0.192940	0.216975
F136	F	1.826962	0.692940	0.716975
F137	F	1.685765	0.628502	0.006595
F138	F	2.185765	1.128502	0.506595
H139	H	1.513690	-0.135935	-0.117892
H140	H	2.013690	0.364065	0.382108
F141	F	1.509474	0.154764	-0.271027
F142	F	2.009474	0.654764	0.228973
F143	F	1.513868	0.154769	-0.108039
F144	F	2.013868	0.654769	0.391961
