data_functionalizedCrystal
_audit_creation_method	'MofGen! by Chris Wilmer'
_symmetry_space_group_name_H-M	'P1'
_symmetry_Int_Tables_number	1
_symmetry_cell_setting	triclinic
loop_
_symmetry_equiv_pos_as_xyz
  x,y,z
_cell_length_a	10.654550
_cell_length_b	16.109301
_cell_length_c	9.130313
_cell_angle_alpha	89.997330
_cell_angle_beta	89.996220
_cell_angle_gamma	83.973192
loop_
_atom_site_label
_atom_site_type_symbol
_atom_site_fract_x
_atom_site_fract_y
_atom_site_fract_z
O1	O	1.666250	0.116770	-0.121925
O2	O	1.300621	0.127896	-0.121902
O3	O	1.493479	0.001362	-0.121899
O4	O	1.473391	0.243304	-0.121928
O5	O	1.493477	0.001365	0.121700
O6	O	1.300618	0.127899	0.121697
O7	O	1.666248	0.116774	0.121674
Cu8	Cu	1.483433	0.122337	0.143928
Cu9	Cu	1.483435	0.122333	-0.144156
O10	O	1.473389	0.243308	0.121671
C11	C	1.253832	0.127080	-0.000099
C12	C	1.114422	0.124636	-0.000090
C13	C	1.033926	0.199138	-0.000120
C14	C	0.902936	0.196836	-0.000145
C15	C	0.932952	0.045526	-0.000116
C16	C	1.063939	0.047828	-0.000081
C17	C	1.016595	0.286496	-0.000143
C18	C	0.885606	0.284194	-0.000168
C19	C	1.492665	-0.029616	-0.000099
C20	C	1.490225	-0.121926	-0.000097
C21	C	1.598991	-0.343552	-0.000127
C22	C	1.596689	-0.430286	-0.000139
C23	C	1.367868	-0.411772	-0.000119
C24	C	1.370172	-0.325040	-0.000117
C25	C	1.485737	-0.290932	-0.000114
C26	C	1.481131	-0.464399	-0.000127
C27	C	1.478634	-0.558440	-0.000140
C28	C	1.488234	-0.196885	-0.000104
C29	C	1.713036	0.117589	-0.000132
C30	C	1.852446	0.120033	-0.000151
C31	C	1.474204	0.274286	-0.000132
C32	C	1.476643	0.366595	-0.000144
N33	N	1.483440	0.122339	0.346551
N34	N	1.483438	0.122324	-0.346779
C35	C	1.568859	0.066329	0.423204
C36	C	1.568856	0.066319	0.576541
C37	C	1.398010	0.178336	0.576558
C38	C	1.398008	0.178342	0.423223
C39	C	1.667500	0.001659	0.423195
C40	C	1.667497	0.001649	0.576532
H41	H	1.051874	0.314310	-0.105318
C42	C	1.180590	0.225805	0.623791
C43	C	1.304108	0.239892	0.660846
H44	H	1.122620	0.263804	0.675834
H45	H	1.168375	0.233831	0.521513
H46	H	1.167003	0.170226	0.648920
H47	H	1.317698	0.295468	0.635707
H48	H	1.316328	0.231872	0.763146
H49	H	1.277941	-0.282194	-0.000111
C50	C	1.505235	-0.090694	0.593351
C51	C	1.627451	-0.079886	0.640721
H52	H	1.480526	-0.141035	0.632968
H53	H	1.448419	-0.044945	0.625514
H54	H	1.503883	-0.093447	0.489441
H55	H	1.628800	-0.077127	0.744631
H56	H	1.684282	-0.125647	0.608566
C57	C	1.823096	-0.439868	-0.000136
C58	C	1.721182	-0.488126	-0.000143
H59	H	1.899954	-0.475578	-0.000131
H60	H	1.819237	-0.405653	-0.085077
H61	H	1.819221	-0.405656	0.084820
H62	H	1.725051	-0.522334	-0.085106
H63	H	1.725043	-0.522356	0.084806
C64	C	1.805299	0.110021	0.406408
C65	C	1.790227	0.029002	0.359001
H66	H	1.881070	0.126903	0.366791
H67	H	1.735620	0.147172	0.374269
H68	H	1.809451	0.110929	0.510317
H69	H	1.786065	0.028095	0.255091
H70	H	1.859924	-0.008159	0.391131
H71	H	0.843427	0.317108	-0.102126
C72	C	1.851075	-0.045958	0.717902
C73	C	1.797516	0.020877	0.632722
H74	H	1.931342	-0.034087	0.752584
H75	H	1.797564	-0.053874	0.798806
H76	H	1.860662	-0.095236	0.660074
H77	H	1.787920	0.070154	0.690554
H78	H	1.851039	0.028803	0.551807
C79	C	1.529827	-0.075920	0.281824
C80	C	1.639700	-0.084601	0.367013
H81	H	1.512666	-0.129171	0.247137
H82	H	1.461029	-0.052295	0.339637
H83	H	1.541283	-0.040417	0.200910
H84	H	1.628240	-0.120099	0.447933
H85	H	1.708514	-0.108238	0.309198
C86	C	0.916232	0.345593	0.235052
C87	C	0.823452	0.319837	0.141791
H88	H	0.877856	0.367600	0.322685
H89	H	0.975610	0.299238	0.257893
H90	H	0.958138	0.387421	0.187830
H91	H	0.781552	0.278005	0.189009
H92	H	0.764053	0.366198	0.118951
H93	H	1.328442	0.223942	0.360814
C94	C	1.262735	-0.536507	-0.000093
C95	C	1.240844	-0.449267	-0.000101
H96	H	1.184312	-0.559651	-0.000069
H97	H	1.309351	-0.554518	-0.085043
H98	H	1.309373	-0.554517	0.084855
H99	H	1.194214	-0.431257	-0.085054
H100	H	1.194208	-0.431248	0.084858
H101	H	1.693091	-0.315785	-0.000127
H102	H	1.129476	-0.012838	-0.000035
H103	H	0.891833	-0.017009	-0.000131
H104	H	1.045462	0.320663	0.101804
