data_functionalizedCrystal
_audit_creation_method	'MofGen! by Chris Wilmer'
_symmetry_space_group_name_H-M	'P1'
_symmetry_Int_Tables_number	1
_symmetry_cell_setting	triclinic
loop_
_symmetry_equiv_pos_as_xyz
  x,y,z
_cell_length_a	14.853558
_cell_length_b	14.519731
_cell_length_c	13.596369
_cell_angle_alpha	89.998627
_cell_angle_beta	89.994596
_cell_angle_gamma	83.659993
loop_
_atom_site_label
_atom_site_type_symbol
_atom_site_fract_x
_atom_site_fract_y
_atom_site_fract_z
O1	O	1.196428	0.120357	-0.081782
O2	O	0.933974	0.134709	-0.081786
O3	O	1.072150	-0.006707	-0.081775
O4	O	1.058253	0.261773	-0.081793
O5	O	1.072133	-0.006699	0.081808
O6	O	0.933957	0.134717	0.081796
O7	O	1.196411	0.120365	0.081801
Zn8	Zn	1.065181	0.127542	0.107771
Zn9	Zn	1.065204	0.127532	-0.107756
O10	O	1.058236	0.261781	0.081790
C11	C	0.900377	0.134064	0.000004
C12	C	0.800291	0.132120	0.000003
C13	C	0.753280	0.131204	-0.089170
C14	C	0.753260	0.131202	0.089175
C15	C	0.659225	0.129370	0.089176
C16	C	0.612214	0.128454	0.000004
C17	C	0.659237	0.129370	-0.089171
C18	C	0.612196	0.128445	0.178349
C19	C	0.518156	0.126613	0.178354
C20	C	0.471142	0.125703	0.089181
C21	C	0.518171	0.126620	0.000003
C22	C	0.471160	0.125704	-0.089170
C23	C	0.518186	0.126627	-0.178349
C24	C	0.612223	0.128460	-0.178345
C25	C	0.377105	0.123870	0.089176
C26	C	0.377117	0.123869	-0.089171
C27	C	1.071490	-0.041062	0.000017
C28	C	1.069539	-0.143442	0.000017
C29	C	1.067953	-0.226585	0.000015
C30	C	1.065972	-0.330893	0.000007
C31	C	1.064400	-0.414031	0.000001
C32	C	1.062419	-0.518346	-0.000005
C33	C	1.230009	0.121010	0.000008
C34	C	1.330094	0.122954	0.000003
C35	C	1.058895	0.296136	-0.000004
C36	C	1.060847	0.398516	-0.000011
N37	N	1.065173	0.127549	0.254863
N38	N	1.065220	0.127518	-0.254848
C39	C	1.065177	0.127551	0.343861
C40	C	1.065186	0.127544	0.455512
C41	C	1.065198	0.127534	0.544503
C42	C	1.065208	0.127529	0.656161
H43	H	0.338819	0.123127	0.161784
H44	H	0.338846	0.123129	-0.161787
H45	H	0.479876	0.125860	0.250969
H46	H	0.791543	0.131940	0.161775
Cl47	Cl	0.459078	0.125454	-0.290447
Cl48	Cl	0.671349	0.129608	-0.290444
Cl49	Cl	0.812395	0.132365	-0.201275
H50	H	0.650481	0.129183	0.250949
