data_functionalizedCrystal
_audit_creation_method	'MofGen! by Chris Wilmer'
_symmetry_space_group_name_H-M	'P1'
_symmetry_Int_Tables_number	1
_symmetry_cell_setting	triclinic
loop_
_symmetry_equiv_pos_as_xyz
  x,y,z
_cell_length_a	16.625548
_cell_length_b	12.645330
_cell_length_c	16.625539
_cell_angle_alpha	90.024251
_cell_angle_beta	90.020568
_cell_angle_gamma	90.018760
loop_
_atom_site_label
_atom_site_type_symbol
_atom_site_fract_x
_atom_site_fract_y
_atom_site_fract_z
Zn1	Zn	1.232707	-0.422007	0.455932
Zn2	Zn	1.732707	0.077993	0.955932
Zn3	Zn	1.232622	-0.599293	0.321109
Zn4	Zn	1.732622	-0.099293	0.821109
Zn5	Zn	1.097869	-0.422048	0.321113
Zn6	Zn	1.597869	0.077952	0.821113
Zn7	Zn	1.097851	-0.599232	0.455899
Zn8	Zn	1.597851	-0.099232	0.955899
O9	O	1.165262	-0.510645	0.388513
O10	O	1.665262	-0.010645	0.888513
O11	O	1.345528	-0.445533	0.438060
O12	O	1.845528	0.054467	0.938060
O13	O	1.214718	-0.575824	0.208277
O14	O	1.714718	-0.075824	0.708277
O15	O	1.115799	-0.273695	0.339012
O16	O	1.615799	0.226305	0.839012
O17	O	1.345465	-0.575784	0.339006
O18	O	1.845465	-0.075784	0.839006
O19	O	1.214864	-0.273665	0.438064
O20	O	1.714864	0.226335	0.938064
O21	O	1.115716	-0.445602	0.208280
O22	O	1.615716	0.054398	0.708280
O23	O	0.985034	-0.445543	0.338980
O24	O	1.485034	0.054457	0.838980
O25	O	1.115768	-0.575681	0.568736
O26	O	1.615768	-0.075681	1.068736
O27	O	0.985021	-0.575720	0.438007
O28	O	1.485021	-0.075720	0.938007
O29	O	1.214846	-0.445474	0.568760
O30	O	1.714846	0.054526	1.068760
O31	O	1.214701	-0.747632	0.338973
O32	O	1.714701	-0.247632	0.838973
O33	O	1.115685	-0.747588	0.438003
O34	O	1.615685	-0.247588	0.938003
C35	C	0.955771	-0.510630	0.388491
C36	C	1.455771	-0.010630	0.888491
C37	C	0.866150	-0.510649	0.388500
C38	C	1.366150	-0.010649	0.888500
C39	C	0.537975	-0.510656	0.388534
C40	C	1.037975	-0.010656	0.888534
C41	C	0.629283	-0.510651	0.388522
C42	C	1.129283	-0.010651	0.888522
C43	C	0.702059	-0.510653	0.388517
C44	C	1.202059	-0.010653	0.888517
C45	C	0.793374	-0.510647	0.388506
C46	C	1.293374	-0.010647	0.888506
C47	C	1.165203	-0.786075	0.388502
C48	C	1.665203	-0.286075	0.888502
C49	C	1.165252	-0.903905	0.388524
C50	C	1.665252	-0.403905	0.888524
C51	C	1.103218	-1.071485	0.451015
C52	C	1.603218	-0.571485	0.951015
C53	C	1.102901	-0.948925	0.450815
C54	C	1.602901	-0.448925	0.950815
C55	C	1.142250	-0.948498	0.303549
C56	C	1.642250	-0.448498	0.803549
C57	C	1.141872	-1.071097	0.303928
C58	C	1.641872	-0.571097	0.803928
C59	C	1.250667	-1.070992	0.410318
C60	C	1.750667	-0.570992	0.910318
C61	C	1.250144	-0.948386	0.412177
C62	C	1.750144	-0.448386	0.912177
C63	C	1.375571	-0.510661	0.388536
C64	C	1.875571	-0.010661	0.888536
C65	C	1.465192	-0.510668	0.388546
C66	C	1.965192	-0.010668	0.888546
C67	C	1.165315	-0.510566	0.598822
C68	C	1.665315	-0.010566	1.098822
C69	C	1.165337	-0.510533	0.688443
C70	C	1.665337	-0.010533	1.188443
C71	C	1.165343	-0.234140	0.388542
C72	C	1.665343	0.265860	0.888542
C73	C	1.165378	-0.116310	0.388554
C74	C	1.665378	0.383690	0.888554
C75	C	1.165256	-0.510647	0.179022
C76	C	1.665256	-0.010647	0.679022
C77	C	1.165390	-0.510382	0.089402
C78	C	1.665390	-0.010382	0.589402
C79	C	1.165374	-0.510414	1.016619
C80	C	1.665374	-0.010414	1.516619
C81	C	1.165362	-0.510450	0.925311
C82	C	1.665362	-0.010450	1.425311
C83	C	1.165356	-0.510474	0.852534
C84	C	1.665356	-0.010474	1.352534
C85	C	1.165343	-0.510509	0.761220
C86	C	1.665343	-0.010509	1.261220
H87	H	1.117292	-0.918772	0.513823
H88	H	1.617292	-0.418772	1.013823
H89	H	1.186089	-0.919338	0.255739
H90	H	1.686089	-0.419338	0.755739
C91	C	1.200371	-1.111170	0.238915
C92	C	1.700371	-0.611170	0.738915
H93	H	1.200540	-1.186299	0.238711
H94	H	1.700540	-0.686299	0.738711
H95	H	1.183652	-1.085985	0.187752
H96	H	1.683652	-0.585985	0.687752
H97	H	1.253017	-1.085959	0.250186
H98	H	1.753017	-0.585959	0.750186
H99	H	1.079525	-1.099789	0.285491
H100	H	1.579525	-0.599789	0.785491
H101	H	1.080553	-0.917888	0.284778
H102	H	1.580553	-0.417888	0.784778
C103	C	1.279013	-1.112651	0.492604
C104	C	1.779013	-0.612651	0.992604
H105	H	1.239091	-1.158075	0.514458
H106	H	1.739091	-0.658075	1.014458
H107	H	1.327800	-1.150776	0.486079
H108	H	1.827800	-0.650776	0.986079
H109	H	1.287615	-1.054794	0.528051
H110	H	1.787615	-0.554794	1.028051
H111	H	1.117477	-1.100897	0.514231
H112	H	1.617477	-0.600897	1.014231
C113	C	1.316008	-0.906985	0.355199
C114	C	1.816008	-0.406985	0.855199
H115	H	1.366611	-0.935110	0.370903
H116	H	1.866611	-0.435110	0.870903
H117	H	1.304228	-0.928321	0.301684
H118	H	1.804228	-0.428321	0.801684
H119	H	1.317825	-0.831976	0.357866
H120	H	1.817825	-0.331976	0.857866
H121	H	1.267490	-0.919236	0.474714
H122	H	1.767490	-0.419236	0.974714
C123	C	1.313212	-1.110044	0.348809
C124	C	1.813212	-0.610044	0.848809
H125	H	1.287519	-1.153767	0.310058
H126	H	1.787519	-0.653767	0.810058
H127	H	1.336968	-1.051021	0.322652
H128	H	1.836968	-0.551021	0.822652
H129	H	1.353721	-1.149429	0.375756
H130	H	1.853721	-0.649429	0.875756
H131	H	1.040384	-1.102387	0.436781
H132	H	1.540384	-0.602387	0.936781
H133	H	1.039671	-0.919692	0.436396
H134	H	1.539671	-0.419692	0.936396
