data_functionalizedCrystal
_audit_creation_method	'MofGen! by Chris Wilmer'
_symmetry_space_group_name_H-M	'P1'
_symmetry_Int_Tables_number	1
_symmetry_cell_setting	triclinic
loop_
_symmetry_equiv_pos_as_xyz
  x,y,z
_cell_length_a	12.759401
_cell_length_b	16.120484
_cell_length_c	12.759393
_cell_angle_alpha	92.864008
_cell_angle_beta	89.979062
_cell_angle_gamma	92.926992
loop_
_atom_site_label
_atom_site_type_symbol
_atom_site_fract_x
_atom_site_fract_y
_atom_site_fract_z
Zn1	Zn	1.584985	-0.331832	-0.615183
Zn2	Zn	1.575933	-0.471268	-0.448395
Zn3	Zn	1.409280	-0.331877	-0.439521
Zn4	Zn	1.400336	-0.471209	-0.624029
O5	O	1.492634	-0.401546	-0.531782
O6	O	1.730804	-0.350334	-0.593070
O7	O	1.553781	-0.452820	-0.300200
O8	O	1.440119	-0.215205	-0.455406
O9	O	1.724154	-0.452777	-0.470532
O10	O	1.569208	-0.215173	-0.584465
O11	O	1.431342	-0.350410	-0.293680
O12	O	1.261073	-0.350354	-0.463984
O13	O	1.424875	-0.452678	-0.769874
O14	O	1.254502	-0.452721	-0.599541
O15	O	1.560535	-0.350278	-0.763375
O16	O	1.545108	-0.587925	-0.479110
O17	O	1.416098	-0.587883	-0.608147
C18	C	1.219667	-0.401536	-0.531760
C19	C	1.102889	-0.401552	-0.531777
C20	C	1.044628	-0.454936	-0.602261
C21	C	0.934904	-0.454939	-0.602282
C22	C	0.941712	-0.348172	-0.461326
C23	C	1.051434	-0.348166	-0.461311
C24	C	0.783089	-0.484854	-0.728051
C25	C	0.724823	-0.538250	-0.798527
C26	C	0.755203	-0.619612	-0.819663
C27	C	0.843846	-0.647593	-0.770310
C28	C	0.902106	-0.594200	-0.699827
C29	C	0.871728	-0.512828	-0.678709
C30	C	1.203250	-0.318259	-0.335542
C31	C	1.261512	-0.264871	-0.265053
C32	C	1.231134	-0.183508	-0.243905
C33	C	1.142488	-0.155530	-0.293240
C34	C	1.084226	-0.208919	-0.363729
C35	C	1.114611	-0.290280	-0.384878
C36	C	1.478679	-0.618154	-0.545574
C37	C	1.472805	-0.710820	-0.551509
C38	C	1.462088	-0.880481	-0.562368
C39	C	1.523367	-0.921772	-0.501213
C40	C	1.517404	-1.016177	-0.507255
C41	C	1.468050	-0.786067	-0.556327
C42	C	1.766666	-0.401557	-0.531804
C43	C	1.883442	-0.401562	-0.531814
C44	C	1.492717	-0.401466	-0.805810
C45	C	1.492753	-0.401432	-0.922585
C46	C	1.506671	-0.184093	-0.517959
C47	C	1.512653	-0.091427	-0.512068
C48	C	1.563397	-0.348104	-0.974064
C49	C	1.563417	-0.348068	-1.083786
C50	C	1.422146	-0.454696	-1.090540
C51	C	1.422122	-0.454727	-0.980820
C52	C	1.607337	-0.249705	-1.227491
C53	C	1.677997	-0.196384	-1.278974
C54	C	1.781330	-0.183600	-1.242567
C55	C	1.814023	-0.224149	-1.154680
C56	C	1.743368	-0.277476	-1.103203
C57	C	1.640022	-0.290244	-1.139607
C58	C	1.378212	-0.553091	-0.837113
C59	C	1.307561	-0.606423	-0.785634
C60	C	1.204226	-0.619216	-0.822039
C61	C	1.171536	-0.578681	-0.909931
C62	C	1.242187	-0.525350	-0.961410
C63	C	1.345521	-0.512556	-0.924997
C64	C	1.492614	-0.401566	-0.258816
C65	C	1.492797	-0.401365	-0.142027
H66	H	0.868566	-0.713849	-0.787517
H67	H	1.146707	-0.662650	-0.780121
O68	O	0.638840	-0.510982	-0.846587
C69	C	0.668622	-0.442215	-0.905962
H70	H	0.755621	-0.443840	-0.925877
H71	H	0.620684	-0.444994	-0.981550
H72	H	0.653643	-0.382206	-0.858475
O73	O	1.394014	-0.922792	-0.630176
C74	C	1.290620	-0.901698	-0.605773
H75	H	1.292379	-0.838473	-0.561422
H76	H	1.243641	-0.898819	-0.681371
H77	H	1.252233	-0.950744	-0.554796
H78	H	1.086519	-0.498404	-0.659642
O79	O	0.753734	-0.405760	-0.707632
C80	C	0.835623	-0.349152	-0.735719
H81	H	0.887993	-0.380574	-0.796505
H82	H	0.801018	-0.292656	-0.770230
H83	H	0.884074	-0.328452	-0.663135
H84	H	1.087394	-0.589101	-0.939576
O85	O	1.775272	-0.316769	-1.017821
C86	C	1.881642	-0.294075	-0.996743
H87	H	1.902999	-0.231864	-1.032009
H88	H	1.894874	-0.288315	-0.908267
H89	H	1.933064	-0.343693	-1.032908
H90	H	0.707755	-0.663087	-0.877047
O91	O	1.646055	-0.157028	-1.364297
C92	C	1.539698	-0.179750	-1.385402
H93	H	1.500194	-0.201698	-1.310834
H94	H	1.498634	-0.123756	-1.413596
H95	H	1.534262	-0.232166	-1.448840
O96	O	1.347521	-0.292042	-0.216938
C97	C	1.333028	-0.286863	-0.107298
H98	H	1.245533	-0.287643	-0.089015
H99	H	1.368967	-0.342137	-0.071173
H100	H	1.372865	-0.226624	-0.073047
H101	H	1.523194	-0.260103	-1.257136
H102	H	1.227999	-0.384509	-0.352764
H103	H	0.974276	-0.616982	-0.659644
O104	O	1.631894	-0.296210	-0.917534
C105	C	1.614315	-0.213112	-0.939085
H106	H	1.530661	-0.208894	-0.968962
H107	H	1.626009	-0.171942	-0.864315
H108	H	1.672060	-0.191305	-1.001400
H109	H	0.899804	-0.304708	-0.403953
O110	O	1.914432	-0.211615	-1.119432
C111	C	1.969790	-0.155870	-1.183728
H112	H	1.911910	-0.116525	-1.224511
H113	H	2.026161	-0.113596	-1.133467
H114	H	2.016063	-0.192410	-1.245196
H115	H	1.334190	-0.639435	-0.714076
H116	H	1.215562	-0.492345	-1.032977
O117	O	0.998172	-0.181597	-0.411606
C118	C	0.983831	-0.098341	-0.377808
H119	H	1.061719	-0.068098	-0.348295
H120	H	0.954379	-0.062939	-0.446169
H121	H	0.923802	-0.096661	-0.311633
O122	O	1.591386	-0.879496	-0.433306
C123	C	1.647169	-0.936481	-0.377608
H124	H	1.646949	-0.998548	-0.424540
H125	H	1.731517	-0.911185	-0.364876
H126	H	1.608152	-0.945787	-0.298369
H127	H	1.364643	-0.498088	-1.137969
O128	O	1.478579	-0.540802	-0.801655
C129	C	1.492282	-0.588015	-0.713043
H130	H	1.431042	-0.642081	-0.714207
H131	H	1.574176	-0.613203	-0.714619
H132	H	1.482711	-0.546942	-0.638649
O133	O	1.113144	-0.076457	-0.272620
C134	C	1.183560	-0.035340	-0.199808
H135	H	1.261576	-0.066822	-0.202938
H136	H	1.196695	0.032458	-0.220155
H137	H	1.149351	-0.038408	-0.117457
O138	O	1.849829	-0.131762	-1.292682
C139	C	1.798830	-0.098743	-1.378082
H140	H	1.710524	-0.101463	-1.363945
H141	H	1.828064	-0.031359	-1.386183
H142	H	1.816662	-0.136706	-1.453171
H143	H	1.278576	-0.140042	-0.186498
