data_functionalizedCrystal
_audit_creation_method	'MofGen! by Chris Wilmer'
_symmetry_space_group_name_H-M	'P1'
_symmetry_Int_Tables_number	1
_symmetry_cell_setting	triclinic
loop_
_symmetry_equiv_pos_as_xyz
  x,y,z
_cell_length_a	16.109301
_cell_length_b	10.654550
_cell_length_c	14.586319
_cell_angle_alpha	89.997374
_cell_angle_beta	89.999213
_cell_angle_gamma	83.973192
loop_
_atom_site_label
_atom_site_type_symbol
_atom_site_fract_x
_atom_site_fract_y
_atom_site_fract_z
O1	O	1.104091	0.161419	-0.076180
O2	O	0.862148	0.181507	-0.076194
O3	O	0.988682	-0.011352	-0.076183
O4	O	0.977557	0.354278	-0.076191
O5	O	0.988673	-0.011354	0.076297
O6	O	0.862139	0.181504	0.076287
O7	O	1.104082	0.161416	0.076301
Cu8	Cu	0.983110	0.171460	0.090216
Cu9	Cu	0.983120	0.171463	-0.090110
O10	O	0.977548	0.354275	0.076290
C11	C	0.831164	0.180692	0.000044
C12	C	0.738854	0.178253	0.000039
C13	C	0.517228	0.287019	0.000047
C14	C	0.430494	0.284717	0.000053
C15	C	0.449008	0.055896	0.000054
C16	C	0.535741	0.058199	0.000055
C17	C	0.569848	0.173764	0.000047
C18	C	0.396382	0.169159	0.000052
C19	C	0.302341	0.166662	0.000058
C20	C	0.663895	0.176262	0.000042
C21	C	0.987861	-0.058140	0.000056
C22	C	0.985417	-0.197550	0.000053
C23	C	1.059918	-0.278046	0.000060
C24	C	1.057616	-0.409036	0.000053
C25	C	0.906306	-0.379020	0.000036
C26	C	0.908608	-0.248033	0.000036
C27	C	1.136726	-0.227564	0.000076
C28	C	1.211233	-0.308061	0.000084
C29	C	1.208932	-0.439051	0.000078
C30	C	1.132123	-0.489543	0.000063
C31	C	1.135066	0.162231	0.000060
C32	C	1.227376	0.164671	0.000060
C33	C	0.978369	0.401063	0.000049
C34	C	0.980813	0.540473	0.000046
N35	N	0.983108	0.171457	0.217048
N36	N	0.983128	0.171457	-0.216942
C37	C	1.039156	0.086088	0.452059
C38	C	1.039159	0.086084	0.548041
C39	C	0.927074	0.256830	0.548040
C40	C	0.927068	0.256826	0.452061
C41	C	0.983114	0.171456	0.404073
C42	C	0.983122	0.171457	0.596034
C43	C	0.983124	0.171455	0.700101
C44	C	0.983111	0.171457	0.299999
H45	H	0.421227	-0.038193	0.000066
H46	H	0.881428	0.326344	0.412988
O47	O	0.831771	-0.428274	0.000070
C48	C	0.845715	-0.561148	0.000050
H49	H	0.910417	-0.591933	0.028922
H50	H	0.841481	-0.597606	-0.073103
C51	C	0.699796	-0.577644	0.024383
C52	C	0.779262	-0.615456	0.059851
H53	H	0.658803	-0.611145	0.061267
H54	H	0.690400	-0.488124	0.024393
H55	H	0.696279	-0.608029	-0.036577
H56	H	0.782781	-0.585057	0.120805
H57	H	0.788657	-0.704972	0.059853
O58	O	1.285912	-0.259228	0.000052
C59	C	1.351176	-0.358370	0.000075
H60	H	1.327357	-0.447339	-0.028797
H61	H	1.374189	-0.376923	0.073229
C62	C	1.452808	-0.212148	-0.024257
C63	C	1.423555	-0.321419	-0.059725
H64	H	1.497458	-0.189354	-0.061140
H65	H	1.408840	-0.145353	-0.024269
H66	H	1.471980	-0.227623	0.036704
H67	H	1.404375	-0.305937	-0.120680
H68	H	1.467522	-0.388211	-0.059724
O69	O	0.586946	-0.051740	-0.000071
C70	C	0.637657	-0.057260	-0.079052
H71	H	0.642610	0.042421	-0.105380
H72	H	0.608802	-0.114605	-0.134352
C73	C	0.719253	-0.242907	-0.022726
C74	C	0.725343	-0.120476	-0.055058
H75	H	0.773341	-0.281906	-0.007927
H76	H	0.685087	-0.239192	0.030484
H77	H	0.695204	-0.290679	-0.068814
H78	H	0.749381	-0.072702	-0.008965
H79	H	0.759516	-0.124184	-0.108260
H80	H	0.847943	-0.182490	0.000031
O81	O	1.093485	0.003036	0.594695
C82	C	1.048522	-0.074444	0.650236
H83	H	0.982944	-0.076595	0.621317
H84	H	1.044394	-0.035144	0.722977
C85	C	1.174111	-0.206617	0.687229
C86	C	1.093569	-0.209268	0.651706
H87	H	1.201900	-0.289782	0.688140
H88	H	1.204405	-0.154416	0.649813
H89	H	1.170660	-0.173862	0.747843
H90	H	1.097022	-0.242008	0.591089
H91	H	1.063277	-0.261479	0.689112
H92	H	1.138609	-0.120907	0.000084
H93	H	1.130255	-0.596205	0.000048
O94	O	1.093622	0.003034	0.405585
C95	C	1.143100	-0.072294	0.468526
H96	H	1.109009	-0.073721	0.536946
H97	H	1.205095	-0.031494	0.478726
C98	C	1.201322	-0.206014	0.347041
C99	C	1.159448	-0.207775	0.431074
H100	H	1.211410	-0.289584	0.323938
H101	H	1.167991	-0.155262	0.304636
H102	H	1.252980	-0.172008	0.355553
H103	H	1.107786	-0.241766	0.422559
H104	H	1.192771	-0.258537	0.473477
O105	O	0.872604	0.339587	0.594761
C106	C	0.820919	0.272312	0.650274
H107	H	0.853466	0.174056	0.664653
H108	H	0.759422	0.263755	0.613293
C109	C	0.763593	0.463793	0.723782
C110	C	0.803571	0.343116	0.741449
H111	H	0.752888	0.507469	0.780022
H112	H	0.798411	0.509119	0.686380
H113	H	0.712350	0.456644	0.692963
H114	H	0.854817	0.350266	0.772258
H115	H	0.768760	0.297793	0.778859
H116	H	0.387654	0.376940	0.000056
H117	H	0.544995	0.381119	0.000048
H118	H	1.269599	-0.504589	0.000075
