data_functionalizedCrystal
_audit_creation_method	'MofGen! by Chris Wilmer'
_symmetry_space_group_name_H-M	'P1'
_symmetry_Int_Tables_number	1
_symmetry_cell_setting	triclinic
loop_
_symmetry_equiv_pos_as_xyz
  x,y,z
_cell_length_a	23.532407
_cell_length_b	10.654541
_cell_length_c	9.730217
_cell_angle_alpha	90.000068
_cell_angle_beta	89.992119
_cell_angle_gamma	96.333697
loop_
_atom_site_label
_atom_site_type_symbol
_atom_site_fract_x
_atom_site_fract_y
_atom_site_fract_z
O1	O	0.079977	-1.665305	-0.114264
O2	O	0.087599	-1.299584	-0.114277
O3	O	0.000928	-1.493473	-0.114245
O4	O	0.166648	-1.471416	-0.114296
O5	O	0.000928	-1.493467	0.114335
O6	O	0.087598	-1.299578	0.114303
O7	O	0.079977	-1.665299	0.114317
Zn8	Zn	0.083787	-1.482437	0.150602
Zn9	Zn	0.083788	-1.482445	-0.150562
O10	O	0.166647	-1.471410	0.114284
C11	C	0.087039	-1.252801	0.000012
C12	C	0.085366	-1.113410	0.000008
C13	C	-0.020292	-1.492908	0.000049
C14	C	-0.083520	-1.491219	0.000059
C15	C	0.080536	-1.712082	0.000025
C16	C	0.082210	-1.851472	0.000020
C17	C	-0.481945	-1.595367	-0.000012
C18	C	-0.541355	-1.593798	-0.000023
O19	O	-0.577471	-1.690344	-0.000070
N20	N	-0.564732	-1.478531	-0.000026
C21	C	-0.528695	-1.364826	-0.000033
O22	O	-0.554034	-1.266639	-0.000038
C23	C	-0.469285	-1.366396	-0.000032
C24	C	-0.445912	-1.481670	-0.000015
C25	C	-0.458571	-1.710632	0.000003
C26	C	-0.399164	-1.712200	0.000017
C27	C	-0.363132	-1.598503	0.000014
C28	C	-0.386506	-1.483238	-0.000002
C29	C	-0.433249	-1.252692	-0.000049
C30	C	-0.373836	-1.254272	-0.000049
C31	C	-0.350463	-1.369546	-0.000032
C32	C	-0.291067	-1.371110	0.000009
N33	N	-0.267690	-1.486377	0.000012
C34	C	-0.303723	-1.600073	0.000015
C35	C	-0.653459	-1.361537	-0.000036
C36	C	-0.712867	-1.359966	-0.000027
C37	C	-0.725523	-1.588939	-0.000020
C38	C	-0.666114	-1.590509	-0.000019
C39	C	-0.630082	-1.476804	-0.000033
C40	C	-0.178964	-1.603358	0.000043
C41	C	-0.119552	-1.604916	0.000062
C42	C	-0.106901	-1.375944	0.000047
C43	C	-0.166308	-1.374385	0.000036
C44	C	-0.202339	-1.488102	0.000029
O45	O	-0.254916	-1.274615	0.000050
O46	O	-0.278375	-1.698244	0.000002
C47	C	0.187867	-1.471975	-0.000012
C48	C	0.251096	-1.473663	-0.000032
N49	N	0.083786	-1.482441	0.356138
C50	C	0.189004	-1.082156	-0.000042
C51	C	0.240035	-1.001045	-0.000071
C52	C	0.238459	-0.870077	-0.000072
C53	C	0.185847	-0.820218	-0.000039
C54	C	0.134816	-0.901329	-0.000009
C55	C	0.136398	-1.032299	-0.000013
C56	C	0.031179	-0.932583	0.000050
C57	C	0.032754	-1.063552	0.000041
C58	C	-0.021433	-0.882725	0.000083
C59	C	-0.072465	-0.963837	0.000103
C60	C	-0.070887	-1.094812	0.000102
C61	C	-0.018277	-1.144663	0.000071
N62	N	0.083785	-1.482451	-0.356099
C63	C	0.007062	-1.654199	0.356158
C64	C	-0.031299	-1.740086	0.428107
C65	C	-0.031299	-1.740099	0.571987
C66	C	0.007064	-1.654213	0.643920
C67	C	0.045425	-1.568326	0.571971
C68	C	0.045422	-1.568325	0.428088
C69	C	0.122146	-1.396564	0.571952
C70	C	0.122150	-1.396555	0.428072
C71	C	0.160509	-1.310678	0.643885
C72	C	0.198873	-1.224795	0.571936
C73	C	0.198872	-1.224787	0.428047
C74	C	0.160510	-1.310668	0.356122
H75	H	-0.100525	-1.698790	0.000079
H76	H	0.230108	-1.154843	0.369473
F77	F	0.007065	-1.654208	0.203028
H78	H	-0.487903	-1.803222	0.000001
F79	F	0.160508	-1.310672	0.202992
F80	F	0.239694	-1.133392	0.648498
F81	F	-0.217303	-1.724389	0.000036
H82	H	0.280013	-0.804035	-0.000087
H83	H	-0.062535	-1.810011	0.369526
F84	F	-0.016593	-1.284049	0.000062
H85	H	0.184568	-0.713576	-0.000023
F86	F	-0.374297	-1.834891	0.000005
F87	F	-0.615115	-1.240509	-0.000039
H88	H	-0.115298	-0.923230	0.000129
H89	H	-0.344501	-1.161677	-0.000062
F90	F	-0.125202	-1.181128	0.000144
H91	H	0.007057	-1.654218	0.761075
F92	F	-0.072129	-1.831503	0.648561
H93	H	0.160505	-1.310687	0.761040
H94	H	-0.022713	-0.776083	0.000090
H95	H	-0.647088	-1.684375	-0.000006
F96	F	0.296026	-1.054116	-0.000107
H97	H	-0.185339	-1.280520	0.000060
F98	F	-0.763882	-1.709946	-0.000024
H99	H	-0.731892	-1.266098	-0.000018
H100	H	-0.452269	-1.158824	-0.000071
H101	H	-0.077553	-1.283375	0.000050
H102	H	0.190293	-1.188795	-0.000071
