data_functionalizedCrystal
_audit_creation_method	'MofGen! by Chris Wilmer'
_symmetry_space_group_name_H-M	'P1'
_symmetry_Int_Tables_number	1
_symmetry_cell_setting	triclinic
loop_
_symmetry_equiv_pos_as_xyz
  x,y,z
_cell_length_a	13.032831
_cell_length_b	12.594516
_cell_length_c	13.032268
_cell_angle_alpha	97.152436
_cell_angle_beta	90.886977
_cell_angle_gamma	82.821304
loop_
_atom_site_label
_atom_site_type_symbol
_atom_site_fract_x
_atom_site_fract_y
_atom_site_fract_z
Zn1	Zn	1.498496	-0.718822	-0.780872
Zn2	Zn	1.520242	-0.877407	-0.608900
Zn3	Zn	1.348353	-0.674358	-0.587111
Zn4	Zn	1.326490	-0.871652	-0.759025
O5	O	1.423395	-0.785560	-0.683977
O6	O	1.645302	-0.760876	-0.776322
O7	O	1.515691	-0.834272	-0.462092
O8	O	1.368319	-0.531320	-0.612838
O9	O	1.661279	-0.877387	-0.649975
O10	O	1.478628	-0.563987	-0.755193
O11	O	1.389406	-0.685093	-0.446084
O12	O	1.201532	-0.679512	-0.591654
O13	O	1.331056	-0.867579	-0.905841
O14	O	1.185469	-0.824463	-0.717958
O15	O	1.457428	-0.755295	-0.921892
O16	O	1.494491	-1.025580	-0.628791
O17	O	1.352143	-1.021351	-0.739087
C18	C	1.156183	-0.746539	-0.650071
C19	C	1.041866	-0.729875	-0.635591
C20	C	1.423329	-1.062090	-0.683958
C21	C	1.423391	-1.180408	-0.683997
C22	C	0.982991	-0.794257	-0.691535
C23	C	0.864838	-0.777035	-0.676569
C24	C	1.345967	-1.247394	-0.743938
C25	C	1.332833	-1.304009	-0.646920
C26	C	1.436617	-1.334607	-0.781043
C27	C	1.410213	-1.235453	-0.586923
C28	C	1.514033	-1.266057	-0.721115
C29	C	1.500943	-1.322639	-0.624037
C30	C	1.691651	-0.824733	-0.718016
C31	C	1.805965	-0.841426	-0.732521
C32	C	1.389378	-0.815755	-0.952226
C33	C	1.374882	-0.828622	-1.066537
C34	C	1.423487	-0.507956	-0.684022
C35	C	1.423526	-0.389658	-0.684041
C36	C	1.430945	-0.778803	-1.125443
C37	C	1.415964	-0.792101	-1.243590
C38	C	1.457340	-0.755414	-0.416779
C39	C	1.472035	-0.742276	-0.302494
H40	H	1.020059	-0.862124	-0.750512
H41	H	1.356864	-0.844593	-1.280621
C42	C	1.395042	-1.177417	-0.476032
H43	H	1.395047	-1.102074	-0.476698
H44	H	1.449783	-1.203755	-0.433388
H45	H	1.330915	-1.190602	-0.449607
C46	C	1.257397	-1.202824	-0.812281
H47	H	1.193095	-1.215385	-0.785755
H48	H	1.266111	-1.238054	-0.880952
H49	H	1.258334	-1.127521	-0.812277
C50	C	0.814777	-0.685338	-0.596899
H51	H	0.741933	-0.685794	-0.597289
H52	H	0.830425	-0.618099	-0.614275
H53	H	0.841079	-0.695565	-0.529973
C54	C	0.856026	-0.933140	-0.812176
H55	H	0.928872	-0.932699	-0.811773
H56	H	0.829729	-0.922942	-0.879104
H57	H	0.840374	-1.000372	-0.794770
C58	C	0.991800	-0.638182	-0.555924
H59	H	0.918956	-0.638639	-0.556314
H60	H	1.007448	-0.570943	-0.573301
H61	H	1.018102	-0.648409	-0.488998
H62	H	1.531123	-0.689768	-1.265462
C63	C	1.229366	-1.327271	-0.604528
H64	H	1.174375	-1.301471	-0.647176
H65	H	1.219484	-1.291909	-0.536015
H66	H	1.230399	-1.402792	-0.604263
H67	H	1.315786	-0.881111	-1.103573
C68	C	1.589479	-1.366915	-0.555499
H69	H	1.579956	-1.332460	-0.486616
H70	H	1.653692	-1.353172	-0.581256
H71	H	1.589391	-1.442435	-0.556326
C72	C	1.451701	-1.392757	-0.891899
H73	H	1.513011	-1.442531	-0.895010
H74	H	1.457316	-1.341273	-0.938303
H75	H	1.394088	-1.430343	-0.910774
H76	H	1.590601	-1.248822	-0.752521
H77	H	1.490030	-0.726303	-1.088406
