data_functionalizedCrystal
_audit_creation_method	'MofGen! by Chris Wilmer'
_symmetry_space_group_name_H-M	'P1'
_symmetry_Int_Tables_number	1
_symmetry_cell_setting	triclinic
loop_
_symmetry_equiv_pos_as_xyz
  x,y,z
_cell_length_a	12.827893
_cell_length_b	13.032721
_cell_length_c	12.827885
_cell_angle_alpha	82.850965
_cell_angle_beta	90.019272
_cell_angle_gamma	97.204267
loop_
_atom_site_label
_atom_site_type_symbol
_atom_site_fract_x
_atom_site_fract_y
_atom_site_fract_z
Zn1	Zn	1.544798	-0.415987	0.643644
Zn2	Zn	1.522478	-0.590766	0.491086
Zn3	Zn	1.370033	-0.416038	0.468924
Zn4	Zn	1.347821	-0.590688	0.665776
O5	O	1.446282	-0.503370	0.567357
O6	O	1.688072	-0.439183	0.623419
O7	O	1.502211	-0.567642	0.341917
O8	O	1.411853	-0.269794	0.473563
O9	O	1.671673	-0.567593	0.511336
O10	O	1.540252	-0.269756	0.601929
O11	O	1.390210	-0.439270	0.325634
O12	O	1.220852	-0.439194	0.495024
O13	O	1.373995	-0.567460	0.809070
O14	O	1.204532	-0.567509	0.639651
O15	O	1.518714	-0.439108	0.792809
O16	O	1.480672	-0.736993	0.532797
O17	O	1.352352	-0.736936	0.661141
C18	C	1.174775	-0.503350	0.567335
C19	C	1.058620	-0.503366	0.567353
C20	C	0.998775	-0.566960	0.638834
C21	C	0.878722	-0.566978	0.638854
C22	C	1.411708	-0.774882	0.601798
C23	C	1.397013	-0.891037	0.616567
C24	C	1.454008	-0.942815	0.559696
C25	C	1.438821	-1.062867	0.574959
C26	C	1.718850	-0.503391	0.567381
C27	C	1.835002	-0.503400	0.567391
C28	C	1.446366	-0.503270	0.839915
C29	C	1.446402	-0.503227	0.956063
C30	C	1.481020	-0.230797	0.532805
C31	C	1.495823	-0.114643	0.518081
C32	C	1.446269	-0.503394	0.295851
C33	C	1.446473	-0.503143	0.179666
C34	C	1.518022	-0.439702	0.999800
C35	C	1.518061	-0.439656	1.119844
H36	H	1.036418	-0.621387	0.700019
C37	C	1.600901	-0.366178	1.170688
C38	C	1.683824	-0.292639	1.101481
C39	C	1.766667	-0.219159	1.152326
C40	C	1.766588	-0.219218	1.272379
C41	C	1.683662	-0.292760	1.341594
C42	C	1.600818	-0.366240	1.290748
H43	H	1.683885	-0.292593	1.012604
H44	H	1.828054	-0.164718	1.101088
H45	H	1.827913	-0.164823	1.310018
H46	H	1.683600	-0.292806	1.430470
H47	H	1.539431	-0.420681	1.341986
C48	C	1.315901	-0.951206	0.697611
C49	C	1.326246	-0.936205	0.814523
C50	C	1.245132	-0.996372	0.895569
C51	C	1.153672	-1.071539	0.859703
C52	C	1.143323	-1.086543	0.742784
C53	C	1.224437	-1.026376	0.661738
H54	H	1.393953	-0.880559	0.841079
H55	H	1.252794	-0.985264	0.982120
H56	H	1.093627	-1.116077	0.919698
H57	H	1.075616	-1.142189	0.716229
H58	H	1.216776	-1.037484	0.575188
H59	H	0.827287	-0.621426	0.700049
C60	C	1.535121	-0.882649	0.478652
C61	C	1.652056	-0.897449	0.489155
C62	C	1.733172	-0.837286	0.408109
C63	C	1.697353	-0.762324	0.316560
C64	C	1.580413	-0.747521	0.306053
C65	C	1.499297	-0.807683	0.387100
H66	H	1.678575	-0.952943	0.556928
H67	H	1.819739	-0.848245	0.415887
H68	H	1.757401	-0.717789	0.256564
H69	H	1.553893	-0.692026	0.238280
H70	H	1.412730	-0.796724	0.379322
C71	C	1.600824	-0.366273	0.930333
C72	C	1.565899	-0.284322	0.844877
C73	C	1.648705	-0.210892	0.775412
C74	C	1.766435	-0.219412	0.791404
C75	C	1.801365	-0.301366	0.876864
C76	C	1.718560	-0.374796	0.946329
H77	H	1.478743	-0.278012	0.833035
H78	H	1.622846	-0.150224	0.712149
H79	H	1.827732	-0.165055	0.739983
H80	H	1.888521	-0.307676	0.888706
H81	H	1.744418	-0.435464	1.009592
H82	H	0.886429	-0.448956	0.506187
C83	C	1.357704	-1.123032	0.656007
C84	C	1.368050	-1.108032	0.772920
C85	C	1.286936	-1.168198	0.853966
C86	C	1.195476	-1.243365	0.818099
C87	C	1.185127	-1.258369	0.701181
C88	C	1.266241	-1.198203	0.620135
H89	H	1.435757	-1.052386	0.799476
H90	H	1.294597	-1.157091	0.940517
H91	H	1.135430	-1.287904	0.878094
H92	H	1.117419	-1.314015	0.674625
H93	H	1.258579	-1.209310	0.533584
C94	C	1.363629	-0.576623	1.128830
C95	C	1.287409	-0.531295	1.048017
C96	C	1.204565	-0.604775	0.997171
C97	C	1.197941	-0.723583	1.027139
C98	C	1.274163	-0.768917	1.107957
C99	C	1.357007	-0.695437	1.158802
H100	H	1.292310	-0.443340	1.025829
H101	H	1.148140	-0.571215	0.937345
H102	H	1.136615	-0.777977	0.989501
H103	H	1.269262	-0.856872	1.130145
H104	H	1.413432	-0.728997	1.218628
H105	H	1.020978	-0.448931	0.506175
H106	H	1.555870	-1.070100	0.458092
H107	H	1.385108	-0.557572	1.007490
