data_functionalizedCrystal
_audit_creation_method	'MofGen! by Chris Wilmer'
_symmetry_space_group_name_H-M	'P1'
_symmetry_Int_Tables_number	1
_symmetry_cell_setting	triclinic
loop_
_symmetry_equiv_pos_as_xyz
  x,y,z
_cell_length_a	29.839131
_cell_length_b	10.685972
_cell_length_c	10.686551
_cell_angle_alpha	81.590232
_cell_angle_beta	94.410099
_cell_angle_gamma	85.594303
loop_
_atom_site_label
_atom_site_type_symbol
_atom_site_fract_x
_atom_site_fract_y
_atom_site_fract_z
Zn1	Zn	-0.100722	-1.995658	0.866710
Zn2	Zn	-0.182112	-1.979127	0.654413
Zn3	Zn	-0.113224	-1.767068	0.638164
Zn4	Zn	-0.182066	-1.783250	0.850318
O5	O	-0.144531	-1.881276	0.752401
O6	O	-0.106306	-2.171106	0.852208
O7	O	-0.178225	-1.937306	0.474623
O8	O	-0.048693	-1.797537	0.668541
O9	O	-0.166103	-2.158961	0.696235
O10	O	-0.039508	-1.965481	0.836453
O11	O	-0.127613	-1.781507	0.462685
O12	O	-0.127569	-1.591574	0.652647
O13	O	-0.166025	-1.825117	1.030127
O14	O	-0.178147	-1.603463	0.808516
O15	O	-0.106261	-1.981172	1.042170
O16	O	-0.244979	-1.952998	0.680340
O17	O	-0.244945	-1.809088	0.824271
C18	C	-0.154210	-1.551458	0.727040
C19	C	-0.158361	-1.410363	0.716220
C20	C	-0.261262	-1.881042	0.752321
C21	C	-0.311196	-1.881061	0.752338
C22	C	-0.620829	-1.956366	0.677586
C23	C	-0.808496	-1.956527	0.677648
O24	O	-0.832758	-2.020368	0.614029
N25	N	-0.831963	-1.881546	0.752517
C26	C	-0.808510	-1.806527	0.827383
O27	O	-0.832776	-1.742765	0.891076
C28	C	-0.620843	-1.806374	0.827328
C29	C	-0.597379	-1.881350	0.752444
C30	C	-0.597364	-2.031337	0.602709
C31	C	-0.550451	-2.031291	0.602689
C32	C	-0.527001	-1.956274	0.677547
C33	C	-0.550466	-1.881303	0.752424
C34	C	-0.597391	-1.731362	0.902200
C35	C	-0.550471	-1.731333	0.902182
C36	C	-0.527007	-1.806309	0.827298
C37	C	-0.480102	-1.806241	0.827261
N38	N	-0.456635	-1.881221	0.752392
C39	C	-0.480085	-1.956238	0.677534
C40	C	-0.907038	-1.806610	0.827405
C41	C	-0.953954	-1.806647	0.827417
C42	C	-0.953937	-1.956649	0.677683
C43	C	-0.907020	-1.956605	0.677665
C44	C	-0.883570	-1.881591	0.752535
C45	C	-0.381563	-1.956134	0.677498
C46	C	-0.334645	-1.956078	0.677480
C47	C	-0.334667	-1.806081	0.827219
C48	C	-0.381580	-1.806132	0.827232
C49	C	-0.405027	-1.881169	0.752367
O50	O	-0.455810	-1.742443	0.890857
O51	O	-0.455810	-2.020011	0.613873
C52	C	-0.667742	-1.956412	0.677606
C53	C	-0.691206	-1.881442	0.752483
C54	C	-0.667757	-1.806425	0.827341
C55	C	-0.738123	-1.881478	0.752496
C56	C	-0.761572	-1.956495	0.677638
C57	C	-0.738105	-2.031475	0.602769
C58	C	-0.691192	-2.031429	0.602749
C59	C	-0.691224	-1.731445	0.902210
C60	C	-0.738138	-1.731496	0.902223
C61	C	-0.761587	-1.806513	0.827365
C62	C	-0.027342	-1.881547	0.752513
C63	C	0.022597	-1.881663	0.752560
C64	C	-0.134743	-1.906794	1.083495
C65	C	-0.130572	-1.917668	1.224588
C66	C	-0.134812	-1.212381	0.777856
C67	C	-0.130663	-1.353477	0.788689
C68	C	-0.154246	-1.855930	0.422601
C69	C	-0.158284	-1.845302	0.281528
H70	H	-0.185250	-1.351116	0.645889
H71	H	-0.185200	-1.775030	1.222338
H72	H	-0.103772	-1.412716	0.859007
C73	C	-0.094693	-2.011258	1.303727
C74	C	-0.097538	-2.003773	1.432629
C75	C	-0.064490	-2.089953	1.505568
H76	H	-0.099362	-2.094949	1.288770
H77	H	-0.065673	-1.991085	1.280732
H78	H	-0.126551	-2.023954	1.455616
H79	H	-0.092864	-1.920102	1.447625
H80	H	-0.035470	-2.069780	1.482573
H81	H	-0.069162	-2.173638	1.490601
H82	H	-0.066413	-2.084878	1.593035
H83	H	-0.315567	-1.744999	0.888163
C84	C	-0.309249	-2.037622	0.596138
C85	C	-0.339829	-2.103354	0.530617
C86	C	-0.316451	-2.178496	0.455691
H87	H	-0.294031	-1.984960	0.536948
H88	H	-0.287868	-2.096690	0.648960
H89	H	-0.361202	-2.044293	0.477800
H90	H	-0.355047	-2.156039	0.589777
H91	H	-0.295070	-2.237563	0.508512
H92	H	-0.301235	-2.125824	0.396507
H93	H	-0.337196	-2.223112	0.411235
H94	H	-0.531349	-2.092346	0.541716
C95	C	-0.407022	-2.037792	0.596449
C96	C	-0.429387	-2.124703	0.674656
C97	C	-0.452837	-2.199961	0.600041
H98	H	-0.428446	-1.985198	0.537350
H99	H	-0.386330	-2.082504	0.551896
H100	H	-0.450077	-2.079995	0.719187
H101	H	-0.407974	-2.177325	0.733754
H102	H	-0.432146	-2.244673	0.555488
H103	H	-0.474259	-2.147356	0.540945
H104	H	-0.468011	-2.258946	0.653094
H105	H	-0.616452	-2.092431	0.541752
H106	H	-0.887918	-2.017657	0.616689
H107	H	-0.973037	-2.017730	0.616732
H108	H	-0.887948	-1.745522	0.888375
C109	C	-0.979343	-1.725195	0.908845
C110	C	-0.948758	-1.659524	0.974421
C111	C	-0.972127	-1.584496	1.049466
H112	H	-1.000732	-1.666086	0.856137
H113	H	-0.994548	-1.777967	0.967999
H114	H	-0.933560	-1.606757	0.915275
H115	H	-0.927368	-1.718601	1.027153
H116	H	-0.987332	-1.637267	1.108620
H117	H	-0.993515	-1.525395	0.996748
H118	H	-0.951378	-1.539938	1.093977
H119	H	-0.616488	-1.670303	0.963172
H120	H	-0.531381	-1.670250	0.963155
C121	C	-0.407110	-1.724936	0.908612
C122	C	-0.429496	-1.803050	0.995547
C123	C	-0.453019	-1.728304	1.070533
H124	H	-0.386473	-1.680226	0.953307
H125	H	-0.428526	-1.665962	0.855805
H126	H	-0.408082	-1.862000	1.048348
H127	H	-0.450139	-1.847759	0.950886
H128	H	-0.474435	-1.669331	1.017726
H129	H	-0.432379	-1.683598	1.115220
H130	H	-0.468214	-1.781292	1.129519
C131	C	-0.665798	-2.112975	0.521414
C132	C	-0.696383	-2.178698	0.455896
C133	C	-0.673009	-2.253849	0.380970
H134	H	-0.650579	-2.060320	0.462221
H135	H	-0.644419	-2.172049	0.574235
H136	H	-0.717754	-2.119632	0.403079
H137	H	-0.711603	-2.231376	0.515058
H138	H	-0.651630	-2.312923	0.433791
H139	H	-0.657791	-2.201185	0.321784
H140	H	-0.693756	-2.298460	0.336516
C141	C	-0.763647	-2.112927	0.521670
C142	C	-0.809752	-2.096949	0.537768
C143	C	-0.833295	-2.171993	0.463122
H144	H	-0.759105	-2.087956	0.434880
H145	H	-0.752887	-2.199654	0.546924
H146	H	-0.820508	-2.010240	0.512506
H147	H	-0.814308	-2.121928	0.624541
H148	H	-0.822535	-2.258720	0.488376
H149	H	-0.828749	-2.147015	0.376337
H150	H	-0.864579	-2.161171	0.474043
C151	C	-0.763575	-1.650260	0.983758
C152	C	-0.747614	-1.687509	1.111485
C153	C	-0.771037	-1.612728	1.186640
H154	H	-0.758991	-1.563505	0.958723
H155	H	-0.794877	-1.661042	0.973148
H156	H	-0.716319	-1.676716	1.122088
H157	H	-0.752198	-1.774252	1.136559
H158	H	-0.802339	-1.623509	1.176030
H159	H	-0.766452	-1.525976	1.161594
H160	H	-0.760214	-1.637998	1.273312
C161	C	-0.665736	-1.650208	0.983657
C162	C	-0.634254	-1.728252	1.070623
C163	C	-0.610773	-1.653452	1.145683
H164	H	-0.650482	-1.591156	0.930942
H165	H	-0.686418	-1.605594	1.028319
H166	H	-0.613574	-1.772845	1.025965
H167	H	-0.649495	-1.787304	1.123366
H168	H	-0.631455	-1.608837	1.190344
H169	H	-0.595522	-1.594402	1.092958
H170	H	-0.589412	-1.706394	1.204705
