data_functionalizedCrystal
_audit_creation_method	'MofGen! by Chris Wilmer'
_symmetry_space_group_name_H-M	'P1'
_symmetry_Int_Tables_number	1
_symmetry_cell_setting	triclinic
loop_
_symmetry_equiv_pos_as_xyz
  x,y,z
_cell_length_a	15.995300
_cell_length_b	15.072220
_cell_length_c	15.995350
_cell_angle_alpha	89.992853
_cell_angle_beta	96.517909
_cell_angle_gamma	90.005543
loop_
_atom_site_label
_atom_site_type_symbol
_atom_site_fract_x
_atom_site_fract_y
_atom_site_fract_z
O1	O	1.111010	0.073811	-0.107732
O2	O	0.867229	0.073805	-0.121103
O3	O	0.995784	0.073807	0.007471
O4	O	0.982456	0.073808	-0.236306
O5	O	0.995775	-0.073758	0.007487
O6	O	0.867221	-0.073760	-0.121088
O7	O	1.111002	-0.073755	-0.107716
Zn8	Zn	0.989110	-0.097187	-0.114399
Zn9	Zn	0.989121	0.097237	-0.114420
O10	O	0.982448	-0.073757	-0.236291
C11	C	0.836030	0.000021	-0.120550
C12	C	0.743077	0.000019	-0.118915
N13	N	0.989109	-0.229875	-0.114385
C14	C	0.572894	0.000026	-0.115896
C15	C	0.525428	0.000025	-0.207443
C16	C	0.428740	0.000362	-0.205773
C17	C	0.405337	0.000032	-0.112924
C18	C	0.446475	0.084132	-0.067512
C19	C	0.543108	0.084201	-0.069829
C20	C	0.543378	-0.083614	-0.068456
C21	C	0.446434	-0.084717	-0.068464
C22	C	0.310642	0.000038	-0.111239
C23	C	0.667590	0.000026	-0.117577
C24	C	0.989122	-0.589077	-0.114413
C25	C	1.058132	-0.551441	-0.045845
C26	C	1.057952	-0.448616	-0.045592
C27	C	0.989116	-0.410873	-0.114399
C28	C	0.901757	-0.448218	-0.095334
C29	C	0.902166	-0.551076	-0.094850
C30	C	1.006684	-0.551153	-0.202249
C31	C	1.008667	-0.448288	-0.201660
C32	C	0.989107	-0.310160	-0.114393
C33	C	0.989125	-0.689790	-0.114418
C34	C	1.142202	0.000031	-0.108269
C35	C	1.235154	0.000039	-0.109904
C36	C	0.995229	0.000026	0.038674
C37	C	0.993577	0.000031	0.131624
N38	N	0.989129	0.229926	-0.114428
C39	C	0.983003	0.000026	-0.267493
C40	C	0.984655	0.000027	-0.360443
C41	C	0.987644	0.000028	0.469370
C42	C	0.896090	0.000357	0.421920
C43	C	0.897743	0.000024	0.325230
C44	C	0.990587	0.000030	0.301810
C45	C	1.035740	-0.084234	0.342905
C46	C	1.033440	-0.084305	0.439540
C47	C	1.035341	0.083504	0.439881
C48	C	1.035319	0.084618	0.342936
C49	C	0.992255	0.000028	0.207113
C50	C	0.985979	0.000024	0.564068
H51	H	0.400274	-0.059911	-0.241456
F52	F	1.123571	0.084252	0.481411
F53	F	1.121296	-0.089306	0.481710
H54	H	0.862249	0.060428	0.296795
F55	F	0.994741	-0.166203	0.305812
F56	F	0.584930	-0.084683	0.019762
F57	F	0.551059	0.078735	-0.254825
H58	H	0.859501	0.060784	0.440439
F59	F	0.550005	-0.078485	-0.255703
F60	F	0.585294	0.088892	0.018036
F61	F	0.392342	0.079622	-0.252227
F62	F	0.570168	-0.166959	-0.107842
F63	F	0.410694	-0.166044	-0.111807
H64	H	1.005411	0.147372	0.460409
H65	H	0.561431	0.147305	-0.102570
H66	H	1.103026	0.089710	0.327585
F67	F	0.848345	-0.077973	0.447811
H68	H	0.431095	-0.090045	-0.000770
H69	H	1.002307	0.146954	0.315674
H70	H	0.862004	-0.060485	0.297365
F71	F	0.428047	0.087915	0.021661
H72	H	0.961660	-0.422594	-0.255073
H73	H	1.123288	-0.576169	-0.057012
H74	H	0.956360	-0.575496	-0.253275
H75	H	0.418093	0.146956	-0.098658
H76	H	1.122890	-0.423365	-0.056942
F77	F	0.881027	-0.414563	-0.012560
H78	H	1.047075	-0.577300	0.018969
H79	H	0.849167	-0.423772	-0.143947
H80	H	1.046731	-0.424019	0.019592
H81	H	1.000507	-0.147298	0.457842
H82	H	1.103950	-0.087364	0.328792
F83	F	0.881935	-0.582449	-0.011123
H84	H	0.849271	-0.575974	-0.142894
F85	F	1.088172	-0.585040	-0.226201
H86	H	1.072931	-0.423880	-0.216127
