data_functionalizedCrystal
_audit_creation_method	'MofGen! by Chris Wilmer'
_symmetry_space_group_name_H-M	'P1'
_symmetry_Int_Tables_number	1
_symmetry_cell_setting	triclinic
loop_
_symmetry_equiv_pos_as_xyz
  x,y,z
_cell_length_a	18.050591
_cell_length_b	29.839131
_cell_length_c	18.050582
_cell_angle_alpha	90.033130
_cell_angle_beta	90.020922
_cell_angle_gamma	90.031233
loop_
_atom_site_label
_atom_site_type_symbol
_atom_site_fract_x
_atom_site_fract_y
_atom_site_fract_z
Zn1	Zn	1.135256	-0.178930	0.419977
Zn2	Zn	1.135152	-0.254052	0.295764
Zn3	Zn	1.011076	-0.178932	0.295788
Zn4	Zn	1.011008	-0.254028	0.419899
O5	O	1.073123	-0.216485	0.357857
O6	O	1.239167	-0.188904	0.403522
O7	O	1.118677	-0.244098	0.191843
O8	O	1.027620	-0.116064	0.312304
O9	O	1.239090	-0.244096	0.312263
O10	O	1.118855	-0.116063	0.403545
O11	O	1.027519	-0.188907	0.191860
O12	O	0.907142	-0.188884	0.312229
O13	O	1.027506	-0.244056	0.523834
O14	O	0.907093	-0.244057	0.403413
O15	O	1.118790	-0.188881	0.523891
O16	O	1.118612	-0.316916	0.312188
O17	O	1.027404	-0.316898	0.403390
C18	C	0.880171	-0.216469	0.357816
C19	C	0.797625	-0.216472	0.357816
C20	C	0.598180	-0.186434	0.308344
C21	C	0.548752	-0.227410	0.290056
C22	C	0.646495	-0.216486	0.357850
C23	C	0.548841	-0.175525	0.376136
C24	C	0.500510	-0.216495	0.357881
C25	C	0.598154	-0.257483	0.339526
C26	C	0.598248	-0.205570	0.425638
C27	C	0.548842	-0.246574	0.407375
C28	C	0.730593	-0.216480	0.357830
C29	C	0.416413	-0.216506	0.357901
C30	C	1.073010	-0.333208	0.357794
C31	C	1.073029	-0.383142	0.357793
C32	C	1.120619	-0.692750	0.405434
C33	C	1.120699	-0.880423	0.405479
O34	O	1.161051	-0.904658	0.445939
N35	N	1.073249	-0.903927	0.357940
C36	C	1.025772	-0.880510	0.310389
O37	O	0.985409	-0.904808	0.269961
C38	C	1.025688	-0.692838	0.310349
C39	C	1.073147	-0.669337	0.357886
C40	C	1.168073	-0.669248	0.452968
C41	C	1.168055	-0.622333	0.452953
C42	C	1.120583	-0.598919	0.405405
C43	C	1.073129	-0.622421	0.357871
C44	C	0.978208	-0.669422	0.262803
C45	C	0.978190	-0.622501	0.262799
C46	C	1.025648	-0.598999	0.310335
C47	C	1.025639	-0.552092	0.310309
N48	N	1.073089	-0.528588	0.357848
C49	C	1.120561	-0.552001	0.405396
C50	C	1.025820	-0.979041	0.310413
C51	C	1.025842	-1.025959	0.310422
C52	C	1.120769	-1.025868	0.405512
C53	C	1.120750	-0.978950	0.405499
C54	C	1.073271	-0.955537	0.357952
C55	C	1.120521	-0.453476	0.405362
C56	C	1.120501	-0.406556	0.405341
C57	C	1.025572	-0.406651	0.310253
C58	C	1.025594	-0.453566	0.310271
C59	C	1.073071	-0.476977	0.357831
O60	O	0.985303	-0.527828	0.269876
O61	O	1.160907	-0.527695	0.445830
C62	C	1.120637	-0.739666	0.405448
C63	C	1.073182	-0.763167	0.357915
C64	C	1.025710	-0.739754	0.310367
C65	C	1.073204	-0.810085	0.357924
C66	C	1.120676	-0.833499	0.405472
C67	C	1.168126	-0.809995	0.453011
C68	C	1.168108	-0.763079	0.452997
C69	C	0.978260	-0.763258	0.262828
C70	C	0.978282	-0.810173	0.262845
C71	C	1.025754	-0.833587	0.310394
C72	C	1.266829	-0.216502	0.357899
C73	C	1.349374	-0.216510	0.357916
C74	C	1.073152	-0.216465	0.551563
C75	C	1.073164	-0.216457	0.634109
C76	C	1.073257	-0.099307	0.357936
C77	C	1.073314	-0.049373	0.357970
C78	C	1.073137	-0.216473	0.164905
C79	C	1.073268	-0.216355	0.082360
C80	C	1.023562	-0.246420	0.833528
C81	C	1.091315	-0.257404	0.882924
C82	C	1.073201	-0.216423	0.785239
C83	C	1.005485	-0.205426	0.882926
C84	C	1.073231	-0.216390	0.931224
C85	C	1.140990	-0.227429	0.833547
C86	C	1.055114	-0.175431	0.833545
C87	C	1.122914	-0.186400	0.882918
C88	C	1.073183	-0.216442	0.701141
C89	C	1.073256	-0.216371	1.015321
H90	H	0.527140	-0.140885	0.391565
H91	H	0.527315	-0.272021	0.449253
O92	O	0.624175	-0.194456	0.493970
C93	C	0.599080	-0.151223	0.513028
H94	H	0.585191	-0.131798	0.460468
H95	H	0.644321	-0.132820	0.544968
H96	H	0.547438	-0.154092	0.549060
O97	O	0.623845	-0.298854	0.321129
C98	C	0.598103	-0.330508	0.373070
H99	H	0.583990	-0.312784	0.427216
H100	H	0.643040	-0.356576	0.383560
H101	H	0.546464	-0.347759	0.350435
H102	H	0.939602	-0.744198	0.224109
O103	O	1.166626	-0.383796	0.451593
C104	C	1.208539	-0.414527	0.493550
H105	H	1.178129	-0.447984	0.496096
H106	H	1.216416	-0.400942	0.552069
H107	H	1.264963	-0.419503	0.466415
O108	O	1.109482	-0.298738	0.908896
C109	C	1.051121	-0.315365	0.952920
H110	H	1.016594	-0.286189	0.974579
H111	H	1.074948	-0.334932	1.001632
H112	H	1.014628	-0.338418	0.918150
O113	O	1.166679	-0.476261	0.451457
C114	C	1.214702	-0.503387	0.409238
H115	H	1.188549	-0.510463	0.352935
H116	H	1.224659	-0.536357	0.439516
H117	H	1.269730	-0.485278	0.401122
H118	H	0.527012	-0.236650	0.232742
H119	H	0.986923	-0.387580	0.271538
H120	H	1.206754	-0.743947	0.491706
H121	H	1.206730	-0.688307	0.491691
H122	H	1.164953	-0.161018	0.904466
O123	O	0.932059	-0.692292	0.216735
C124	C	0.884062	-0.719421	0.258983
H125	H	0.910232	-0.726422	0.315283
H126	H	0.874118	-0.752428	0.228727
H127	H	0.829024	-0.701353	0.267100
H128	H	0.948207	-0.196138	0.904617
O129	O	0.623942	-0.156092	0.258398
C130	C	0.597753	-0.113039	0.277084
H131	H	0.545415	-0.116272	0.312005
H132	H	0.584655	-0.093616	0.224318
H133	H	0.642011	-0.094415	0.310039
H134	H	1.206698	-0.603200	0.491664
H135	H	1.206782	-0.829066	0.491724
O136	O	1.166869	-0.956191	0.451752
C137	C	1.208784	-0.986924	0.493702
H138	H	1.178377	-1.020382	0.496240
H139	H	1.216659	-0.973344	0.552224
H140	H	1.265209	-0.991896	0.466567
O141	O	1.166774	-1.048637	0.451784
C142	C	1.124460	-1.075784	0.499689
H143	H	1.065962	-1.061667	0.504206
H144	H	1.151273	-1.076284	0.556874
H145	H	1.121929	-1.111352	0.476727
H146	H	1.198285	-0.236756	0.811948
O147	O	1.036867	-0.134126	0.807517
C148	C	1.037759	-0.134633	0.729416
H149	H	1.074848	-0.163046	0.709279
H150	H	1.060077	-0.101311	0.708063
H151	H	0.979073	-0.139951	0.707751
O152	O	0.973437	-0.276692	0.807740
C153	C	0.902255	-0.265464	0.833963
H154	H	0.907580	-0.244329	0.886328
H155	H	0.870186	-0.297418	0.847029
H156	H	0.871440	-0.245567	0.789739
O157	O	0.979677	-1.048716	0.264215
C158	C	0.937788	-1.017984	0.222237
H159	H	0.935187	-0.984529	0.252651
H160	H	0.879284	-1.031569	0.214257
H161	H	0.965018	-1.013004	0.165861
H162	H	0.939524	-0.603441	0.224081
H163	H	0.987156	-0.959981	0.271692
O164	O	0.979428	-0.476329	0.264067
C165	C	0.937541	-0.445600	0.222082
H166	H	0.934944	-0.412142	0.252485
H167	H	0.879036	-0.459184	0.214106
H168	H	0.964772	-0.440627	0.165704
H169	H	0.939637	-0.829305	0.224128
