data_functionalizedCrystal
_audit_creation_method	'MofGen! by Chris Wilmer'
_symmetry_space_group_name_H-M	'P1'
_symmetry_Int_Tables_number	1
_symmetry_cell_setting	triclinic
loop_
_symmetry_equiv_pos_as_xyz
  x,y,z
_cell_length_a	14.044220
_cell_length_b	17.699104
_cell_length_c	12.503552
_cell_angle_alpha	86.482801
_cell_angle_beta	93.839943
_cell_angle_gamma	88.240197
loop_
_atom_site_label
_atom_site_type_symbol
_atom_site_fract_x
_atom_site_fract_y
_atom_site_fract_z
O1	O	0.114453	1.016340	-0.089346
O2	O	0.614453	1.516340	0.410654
O3	O	0.130025	0.797038	-0.089344
O4	O	0.630025	1.297038	0.410656
O5	O	-0.015738	0.903396	-0.089334
O6	O	0.484262	1.403396	0.410666
O7	O	0.260216	0.909981	-0.089355
O8	O	0.760216	1.409981	0.410645
O9	O	-0.004766	0.895388	0.089308
O10	O	0.495234	1.395388	0.589308
O11	O	0.140997	0.789029	0.089298
O12	O	0.640997	1.289029	0.589298
O13	O	0.125425	1.008332	0.089296
O14	O	0.625425	1.508332	0.589296
Cu15	Cu	0.134213	0.897949	0.105609
Cu16	Cu	0.634213	1.397949	0.605609
Cu17	Cu	0.121237	0.907420	-0.105656
Cu18	Cu	0.621237	1.407420	0.394344
O19	O	0.271188	0.901973	0.089286
O20	O	0.771188	1.401973	0.589286
C21	C	0.134950	0.764798	-0.000022
C22	C	0.634950	1.264798	0.499978
C23	C	0.133266	0.680665	-0.000021
C24	C	0.633266	1.180665	0.499979
C25	C	0.209328	0.161041	-0.000038
C26	C	0.709328	0.661041	0.499962
C27	C	0.210904	0.240094	-0.000041
C28	C	0.710904	0.740094	0.499959
C29	C	0.125336	0.282808	-0.000035
C30	C	0.625336	0.782808	0.499965
C31	C	0.038185	0.246467	-0.000035
C32	C	0.538185	0.746467	0.499965
C33	C	0.036609	0.167416	-0.000040
C34	C	0.536609	0.667416	0.499960
C35	C	0.044538	0.565270	-0.000019
C36	C	0.544538	1.065270	0.499981
C37	C	0.046121	0.644326	-0.000011
C38	C	0.546121	1.144326	0.499989
C39	C	0.218834	0.637948	-0.000020
C40	C	0.718834	1.137948	0.499980
C41	C	0.217258	0.558897	-0.000025
C42	C	0.717258	1.058897	0.499975
C43	C	0.130107	0.522563	-0.000031
C44	C	0.630107	1.022563	0.499969
C45	C	0.128399	0.436845	-0.000030
C46	C	0.628399	0.936845	0.499970
C47	C	0.127044	0.368525	-0.000028
C48	C	0.627044	0.868525	0.499972
C49	C	-0.045560	0.896511	-0.000013
C50	C	0.454440	1.396511	0.499987
C51	C	-0.150766	0.887915	-0.000011
C52	C	0.349234	1.387915	0.499989
C53	C	-0.343394	0.872200	-0.000027
C54	C	0.156606	1.372200	0.499973
C55	C	-0.401162	0.933166	-0.000030
C56	C	0.098838	1.433166	0.499970
C57	C	-0.508347	0.924422	-0.000039
C58	C	-0.008347	1.424422	0.499961
C59	C	-0.236199	0.880943	-0.000018
C60	C	0.263801	1.380943	0.499982
C61	C	0.301010	0.908859	-0.000037
C62	C	0.801010	1.408859	0.499963
C63	C	0.406216	0.917455	-0.000046
C64	C	0.906216	1.417455	0.499954
C65	C	0.120500	1.040571	-0.000028
C66	C	0.620500	1.540571	0.499972
C67	C	0.122184	1.124705	-0.000036
C68	C	0.622184	1.624705	0.499964
N69	N	0.143338	0.891294	0.254201
N70	N	0.643338	1.391294	0.754201
N71	N	0.112104	0.914081	-0.254248
N72	N	0.612104	1.414081	0.245752
C73	C	0.098677	0.923868	0.526637
C74	C	0.598677	1.423868	1.026637
C75	C	0.156763	0.881509	0.473309
C76	C	0.656763	1.381509	0.973309
C77	C	0.149291	0.886955	0.351386
C78	C	0.649291	1.386955	0.851386
C79	C	0.106147	0.918423	0.648571
C80	C	0.606147	1.418423	1.148571
H81	H	-0.026425	0.535697	-0.000021
H82	H	0.473575	1.035697	0.499979
N83	N	0.312832	0.677141	-0.000039
N84	N	0.812832	1.177141	0.499961
H85	H	0.366799	0.638085	-0.000041
H86	H	0.866799	1.138085	0.499959
H87	H	0.321319	0.706833	0.066184
H88	H	0.821319	1.206833	0.566184
H89	H	0.279008	0.126268	-0.000036
H90	H	0.779008	0.626268	0.499964
N91	N	-0.360050	1.011002	-0.000004
N92	N	0.139950	1.511002	0.499996
H93	H	-0.413539	1.050472	-0.000003
H94	H	0.086461	1.550472	0.499997
H95	H	-0.323576	1.020250	-0.066222
H96	H	0.176424	1.520250	0.433778
H97	H	-0.031487	0.281252	-0.000036
H98	H	0.468513	0.781252	0.499964
N99	N	-0.384501	0.794367	-0.000027
N100	N	0.115499	1.294367	0.499973
H101	H	-0.456354	0.799076	-0.000030
H102	H	0.043646	1.299076	0.499970
H103	H	-0.358220	0.763016	0.066203
H104	H	0.141780	1.263016	0.566203
H105	H	0.043342	0.964219	0.480730
H106	H	0.543342	1.464219	0.980730
N107	N	0.230069	0.828055	0.534113
N108	N	0.730069	1.328055	1.034113
H109	H	0.225087	0.831691	0.613854
H110	H	0.725087	1.331691	1.113854
H111	H	0.296094	0.842234	0.514517
H112	H	0.796094	1.342234	1.014517
H113	H	0.281865	0.269676	-0.000053
H114	H	0.781865	0.769676	0.499947
H115	H	-0.023563	0.679103	-0.000008
H116	H	0.476437	1.179103	0.499992
N117	N	0.309552	0.512824	0.000034
N118	N	0.809552	1.012824	0.500034
H119	H	0.365000	0.547838	0.000050
H120	H	0.865000	1.047838	0.500050
H121	H	0.308629	0.482838	-0.066174
H122	H	0.808629	0.982838	0.433826
H123	H	-0.034353	0.137832	-0.000040
H124	H	0.465647	0.637832	0.499960
