data_functionalizedCrystal
_audit_creation_method	'MofGen! by Chris Wilmer'
_symmetry_space_group_name_H-M	'P1'
_symmetry_Int_Tables_number	1
_symmetry_cell_setting	triclinic
loop_
_symmetry_equiv_pos_as_xyz
  x,y,z
_cell_length_a	15.995350
_cell_length_b	17.038272
_cell_length_c	14.472310
_cell_angle_alpha	89.999298
_cell_angle_beta	89.990621
_cell_angle_gamma	87.301966
loop_
_atom_site_label
_atom_site_type_symbol
_atom_site_fract_x
_atom_site_fract_y
_atom_site_fract_z
O1	O	1.118175	0.100774	-0.076763
O2	O	0.875286	0.113219	-0.076782
O3	O	0.995287	-0.006819	-0.076766
O4	O	0.998174	0.220812	-0.076780
O5	O	0.995254	-0.006812	0.076916
O6	O	0.875253	0.113226	0.076900
O7	O	1.118142	0.100781	0.076919
Cu8	Cu	0.996695	0.107004	0.090942
Cu9	Cu	0.996733	0.106996	-0.090805
O10	O	0.998141	0.220819	0.076902
C11	C	0.844038	0.112708	0.000056
C12	C	0.750978	0.111165	0.000049
C13	C	0.412836	0.105626	0.000069
C14	C	0.454180	0.020137	0.000417
C15	C	0.550981	0.021680	0.000064
C16	C	0.580592	0.108374	0.000060
C17	C	0.542527	0.150536	-0.087699
C18	C	0.445739	0.148388	-0.087766
C19	C	0.445488	0.150162	0.086999
C20	C	0.542432	0.150142	0.088152
C21	C	0.675401	0.109931	0.000051
C22	C	0.318027	0.104071	0.000071
C23	C	0.992645	-0.035945	0.000075
C24	C	0.984810	-0.122740	0.000074
C25	C	1.056739	-0.172836	0.000081
C26	C	1.049373	-0.254389	0.000072
C27	C	0.970077	-0.285843	0.000062
C28	C	0.898143	-0.235740	0.000053
C29	C	0.905510	-0.154189	0.000056
C30	C	0.944051	-0.531607	0.000047
C31	C	0.936689	-0.613164	0.000048
C32	C	1.087920	-0.631807	0.000065
C33	C	1.095280	-0.550254	0.000073
C34	C	1.023346	-0.500158	0.000059
C35	C	0.962546	-0.369202	0.000056
C36	C	1.030878	-0.416801	0.000059
C37	C	1.149390	0.101292	0.000078
C38	C	1.242450	0.102834	0.000079
C39	C	1.000784	0.249944	0.000059
C40	C	1.008618	0.336739	0.000054
N41	N	0.996674	0.107009	0.218773
N42	N	0.996761	0.106984	-0.218636
C43	C	0.996732	0.106993	0.592864
C44	C	0.932276	0.171007	0.553689
C45	C	0.932452	0.171241	0.446601
C46	C	0.996702	0.107001	0.407273
C47	C	1.085336	0.124819	0.446115
C48	C	1.084981	0.125274	0.553237
C49	C	0.973320	0.024970	0.553397
C50	C	0.971356	0.025517	0.446269
C51	C	0.996691	0.107004	0.302385
C52	C	0.996749	0.106991	0.697752
H53	H	0.418217	0.213193	0.087589
N54	N	1.176285	-0.518140	0.000083
N55	N	1.240502	-0.562879	0.000088
H56	H	1.297715	-0.540199	0.000097
H57	H	1.105401	0.183955	0.419276
H58	H	1.107945	-0.295174	0.000079
N59	N	0.889520	0.008557	0.414438
N60	N	0.828323	0.053846	0.433987
H61	H	0.770525	0.041872	0.411502
N62	N	0.417207	0.115117	0.170451
N63	N	0.340567	0.111866	0.185944
H64	H	0.320591	0.087109	0.244878
N65	N	1.032204	-0.034785	0.585183
N66	N	1.091178	-0.017149	0.636677
H67	H	1.132768	-0.059345	0.659132
H68	H	1.095440	-0.391187	0.000046
H69	H	0.885477	-0.490828	0.000036
H70	H	1.121310	-0.147233	0.000094
N71	N	0.881543	-0.401321	0.000074
N72	N	0.817321	-0.356587	0.000085
H73	H	0.760112	-0.379272	0.000101
H74	H	1.014806	-0.024352	0.419501
N75	N	0.582969	-0.020191	-0.078981
N76	N	0.568634	-0.091149	-0.089246
H77	H	0.591224	-0.120723	-0.145076
N78	N	0.573921	0.111515	0.169593
N79	N	0.624282	0.053441	0.162854
H80	H	0.646526	0.026158	0.220370
H81	H	1.134751	0.080487	0.579149
N82	N	0.583659	-0.019905	0.078981
N83	N	0.534966	-0.050273	0.134704
H84	H	0.558041	-0.079650	0.190439
H85	H	0.872114	-0.638770	0.000055
N86	N	0.951920	0.247613	0.414446
N87	N	0.965428	0.300905	0.471119
H88	H	0.979165	0.354851	0.448412
N89	N	0.893588	0.003479	0.587296
N90	N	0.864448	-0.060178	0.563243
H91	H	0.808134	-0.075350	0.587184
H92	H	1.134688	0.079434	0.420639
H93	H	0.833579	-0.261356	0.000039
N94	N	0.410891	0.227122	-0.092803
N95	N	0.364735	0.247598	-0.159069
H96	H	0.340128	0.303203	-0.162636
H97	H	0.846938	-0.113400	0.000050
N98	N	0.427924	-0.022697	0.079416
N99	N	0.378428	0.009276	0.136381
H100	H	0.359900	-0.020967	0.192193
N101	N	0.426557	-0.022545	-0.078078
N102	N	0.350399	-0.033240	-0.088857
H103	H	0.330884	-0.063382	-0.144295
N104	N	0.420048	0.109811	-0.170063
N105	N	0.473587	0.084657	-0.227047
H106	H	0.455448	0.057410	-0.285171
H107	H	0.561190	0.214227	-0.090966
H108	H	0.562300	0.213362	0.093450
N109	N	1.109752	0.200316	0.584558
N110	N	1.127180	0.251989	0.527303
H111	H	1.144676	0.304990	0.549419
N112	N	0.575536	0.113826	-0.169642
N113	N	0.652578	0.111594	-0.184604
H114	H	0.675894	0.085673	-0.242478
N115	N	0.849947	0.158304	0.413667
N116	N	0.791835	0.149030	0.469797
H117	H	0.733529	0.140040	0.446543
H118	H	0.866382	0.160566	0.579472
N119	N	1.161385	-0.682990	0.000081
N120	N	1.154802	-0.755802	0.000080
H121	H	1.206689	-0.791951	0.000090
H122	H	0.947652	0.231532	0.580596
