data_functionalizedCrystal
_audit_creation_method	'MofGen! by Chris Wilmer'
_symmetry_space_group_name_H-M	'P1'
_symmetry_Int_Tables_number	1
_symmetry_cell_setting	triclinic
loop_
_symmetry_equiv_pos_as_xyz
  x,y,z
_cell_length_a	16.625547
_cell_length_b	19.120786
_cell_length_c	16.625539
_cell_angle_alpha	87.530339
_cell_angle_beta	89.978691
_cell_angle_gamma	92.464876
loop_
_atom_site_label
_atom_site_type_symbol
_atom_site_fract_x
_atom_site_fract_y
_atom_site_fract_z
Zn1	Zn	1.218941	-0.279643	-0.442285
Zn2	Zn	1.718941	0.220357	0.057715
Zn3	Zn	1.213094	-0.397103	-0.301692
Zn4	Zn	1.713094	0.102897	0.198308
Zn5	Zn	1.084110	-0.279664	-0.307455
Zn6	Zn	1.584110	0.220336	0.192545
Zn7	Zn	1.078316	-0.397064	-0.436473
Zn8	Zn	1.578316	0.102936	0.063527
O9	O	1.148615	-0.338369	-0.371976
O10	O	1.648615	0.161631	0.128024
O11	O	1.330998	-0.295232	-0.423656
O12	O	1.830998	0.204768	0.076344
O13	O	1.195961	-0.381550	-0.189623
O14	O	1.695961	0.118450	0.310377
O15	O	1.106868	-0.181371	-0.330185
O16	O	1.606868	0.318629	0.169815
O17	O	1.326701	-0.381530	-0.320362
O18	O	1.826701	0.118470	0.179638
O19	O	1.205928	-0.181355	-0.429244
O20	O	1.705928	0.318645	0.070756
O21	O	1.101198	-0.295267	-0.193857
O22	O	1.601198	0.204733	0.306143
O23	O	0.970510	-0.295229	-0.324549
O24	O	1.470510	0.204771	0.175451
O25	O	1.096993	-0.381463	-0.550078
O26	O	1.596993	0.118537	-0.050078
O27	O	0.966253	-0.381483	-0.419338
O28	O	1.466253	0.118517	0.080662
O29	O	1.200310	-0.295194	-0.554348
O30	O	1.700310	0.204806	-0.054348
O31	O	1.190343	-0.495388	-0.314727
O32	O	1.690343	0.004612	0.185273
O33	O	1.091323	-0.495360	-0.413750
O34	O	1.591323	0.004640	0.086250
C35	C	0.939125	-0.338355	-0.371939
C36	C	1.439125	0.161645	0.128061
C37	C	0.849504	-0.338366	-0.371941
C38	C	1.349504	0.161634	0.128059
C39	C	0.776721	-0.338367	-0.371951
C40	C	1.276721	0.161633	0.128049
C41	C	0.685412	-0.338371	-0.371971
C42	C	1.185412	0.161629	0.128029
C43	C	0.612636	-0.338378	-0.371991
C44	C	1.112636	0.161622	0.128009
C45	C	0.521321	-0.338382	-0.372010
C46	C	1.021321	0.161618	0.127990
C47	C	1.139591	-0.520860	-0.363000
C48	C	1.639591	-0.020860	0.137000
C49	C	1.135805	-0.598930	-0.359187
C50	C	1.635805	-0.098930	0.140813
C51	C	1.185562	-0.635540	-0.409012
C52	C	1.685562	-0.135540	0.090988
C53	C	1.182001	-0.708895	-0.405430
C54	C	1.682001	-0.208895	0.094570
C55	C	1.128686	-0.745640	-0.352019
C56	C	1.628686	-0.245640	0.147981
C57	C	1.078922	-0.709025	-0.302191
C58	C	1.578922	-0.209025	0.197809
C59	C	1.082480	-0.635671	-0.305778
C60	C	1.582480	-0.135671	0.194222
C61	C	1.115361	-0.967126	-0.338612
C62	C	1.615361	-0.467126	0.161388
C63	C	1.111809	-1.040485	-0.335028
C64	C	1.611809	-0.540485	0.164972
C65	C	1.214887	-1.040350	-0.438268
C66	C	1.714887	-0.540350	0.061732
C67	C	1.218443	-0.966994	-0.441846
C68	C	1.718443	-0.466994	0.058154
C69	C	1.168677	-0.930386	-0.392022
C70	C	1.668677	-0.430386	0.107978
C71	C	1.125046	-0.820621	-0.348355
C72	C	1.625046	-0.320621	0.151645
C73	C	1.172314	-0.855406	-0.395691
C74	C	1.672314	-0.355406	0.104309
C75	C	1.358924	-0.338383	-0.372014
C76	C	1.858924	0.161617	0.127986
C77	C	1.448544	-0.338389	-0.372031
C78	C	1.948544	0.161611	0.127969
C79	C	1.148657	-0.338322	-0.582288
C80	C	1.648657	0.161678	-0.082288
C81	C	1.148675	-0.338302	-0.671910
C82	C	1.648675	0.161698	-0.171910
C83	C	1.157697	-0.155165	-0.381006
C84	C	1.657697	0.344835	0.118994
C85	C	1.161567	-0.077094	-0.384853
C86	C	1.661567	0.422906	0.115147
C87	C	1.148689	-0.338287	-0.744693
C88	C	1.648689	0.161713	-0.244693
C89	C	1.148709	-0.338261	-0.836003
C90	C	1.648709	0.161739	-0.336003
C91	C	1.148729	-0.338236	-0.908781
C92	C	1.648729	0.161764	-0.408781
C93	C	1.148751	-0.338211	-1.000096
C94	C	1.648751	0.161789	-0.500096
C95	C	1.148623	-0.338364	-0.162486
C96	C	1.648623	0.161636	0.337514
C97	C	1.148771	-0.338186	-0.072874
C98	C	1.648771	0.161814	0.427126
H99	H	1.228981	-0.605627	-0.452502
H100	H	1.728981	-0.105627	0.047498
F101	F	1.062389	-0.928174	-0.285590
F102	F	1.562389	-0.428174	0.214410
F103	F	1.234951	-0.747854	-0.458470
F104	F	1.734951	-0.247854	0.041530
F105	F	1.229050	-0.816298	-0.452538
F106	F	1.729050	-0.316298	0.047462
F107	F	1.055063	-1.079590	-0.278175
F108	F	1.555063	-0.579590	0.221825
F109	F	1.022173	-0.748134	-0.245354
F110	F	1.522173	-0.248134	0.254646
H111	H	1.081639	-0.850547	-0.304865
H112	H	1.581639	-0.350547	0.195135
F113	F	1.267845	-1.079316	-0.491293
F114	F	1.767845	-0.579316	0.008707
F115	F	1.275188	-0.927893	-0.498695
F116	F	1.775188	-0.427893	0.001305
H117	H	1.041961	-0.605865	-0.265206
H118	H	1.541961	-0.105865	0.234794
