data_functionalizedCrystal
_audit_creation_method	'MofGen! by Chris Wilmer'
_symmetry_space_group_name_H-M	'P1'
_symmetry_Int_Tables_number	1
_symmetry_cell_setting	triclinic
loop_
_symmetry_equiv_pos_as_xyz
  x,y,z
_cell_length_a	12.811445
_cell_length_b	12.811415
_cell_length_c	7.088929
_cell_angle_alpha	78.355812
_cell_angle_beta	90.842853
_cell_angle_gamma	83.528277
loop_
_atom_site_label
_atom_site_type_symbol
_atom_site_fract_x
_atom_site_fract_y
_atom_site_fract_z
O1	O	1.364611	0.170130	-0.425063
O2	O	1.062488	0.182097	-0.374763
O3	O	1.222933	0.021654	-0.374751
O4	O	1.204166	0.330572	-0.425075
O5	O	1.244375	0.000163	-0.056766
O6	O	1.083930	0.160606	-0.056778
O7	O	1.386053	0.148639	-0.107078
Cu8	Cu	1.236950	0.152660	-0.052893
Cu9	Cu	1.211592	0.178076	-0.428948
O10	O	1.225608	0.309082	-0.107090
C11	C	1.034569	0.170021	-0.208841
C12	C	0.919433	0.166043	-0.188191
C13	C	0.679697	0.182021	-0.496095
C14	C	0.571516	0.178284	-0.476701
C15	C	0.594887	0.154842	-0.130013
C16	C	0.703068	0.158578	-0.149407
C17	C	0.745469	0.172166	-0.332454
C18	C	0.853653	0.175895	-0.351844
C19	C	0.877021	0.152460	-0.005159
C20	C	0.768840	0.148724	0.014235
C21	C	1.233260	-0.028667	-0.208831
C22	C	1.232073	-0.146592	-0.188185
C23	C	1.206445	-0.344742	-0.496094
C24	C	1.205329	-0.455542	-0.476704
C25	C	1.228718	-0.478993	-0.130018
C26	C	1.229834	-0.368193	-0.149407
C27	C	1.218699	-0.301071	-0.332451
C28	C	1.219822	-0.190270	-0.351840
C29	C	1.243203	-0.213722	-0.005154
C30	C	1.242087	-0.324522	0.014235
C31	C	1.413972	0.160716	-0.273004
C32	C	1.529107	0.164694	-0.293666
C33	C	1.215281	0.359403	-0.273014
C34	C	1.216467	0.477329	-0.293673
N35	N	1.254793	0.134784	0.211602
N36	N	1.193757	0.195944	-0.693443
H37	H	0.714221	0.193079	-0.645138
F38	F	1.207975	-0.118835	-0.546649
H39	H	1.130501	0.259323	0.224885
F40	F	1.253929	-0.395968	0.209035
F41	F	0.501519	0.188776	-0.650872
F42	F	1.192285	-0.502015	-0.650875
H43	H	0.734301	0.137665	0.163265
H44	H	1.318060	0.071408	0.293281
H45	H	1.253185	-0.178155	0.128095
H46	H	1.237775	-0.533661	0.019009
F47	F	0.898778	0.190352	-0.546655
H48	H	0.930585	0.144434	0.128090
F49	F	0.549740	0.140398	0.064779
F50	F	1.194608	-0.273305	-0.690901
