data_functionalizedCrystal
_audit_creation_method	'MofGen! by Chris Wilmer'
_symmetry_space_group_name_H-M	'P1'
_symmetry_Int_Tables_number	1
_symmetry_cell_setting	triclinic
loop_
_symmetry_equiv_pos_as_xyz
  x,y,z
_cell_length_a	31.640172
_cell_length_b	21.606444
_cell_length_c	21.606444
_cell_angle_alpha	59.990220
_cell_angle_beta	89.993721
_cell_angle_gamma	59.996615
loop_
_atom_site_label
_atom_site_type_symbol
_atom_site_fract_x
_atom_site_fract_y
_atom_site_fract_z
Zr1	Zr	0.407180	0.677450	-0.081359
O2	O	0.339692	0.806593	-0.180203
O3	O	0.427868	0.548316	-0.051043
O4	O	0.427870	0.677450	-0.180186
O5	O	0.339691	0.677457	0.050793
O6	O	0.497426	0.677439	-0.180190
O7	O	0.339691	0.677460	-0.051060
O8	O	0.497424	0.446443	0.050823
O9	O	0.339693	0.908453	-0.180220
O10	O	0.488601	0.601420	-0.038135
O11	O	0.436692	0.601426	0.037880
O12	O	0.436693	0.753464	-0.114170
O13	O	0.384784	0.753470	-0.038155
Zr14	Zr	0.518114	0.677430	0.081078
Zr15	Zr	0.518114	0.677434	-0.081366
Zr16	Zr	0.407179	0.677447	0.081085
Zr17	Zr	0.407181	0.839906	-0.081386
Zr18	Zr	0.518113	0.514975	0.081105
O19	O	0.497425	0.806564	0.050762
O20	O	0.497426	0.806569	-0.180212
O21	O	0.339691	0.806588	0.050772
O22	O	0.585602	0.548287	0.179922
O23	O	0.585603	0.548293	-0.051053
O24	O	0.427868	0.548311	0.179931
O25	O	0.585603	0.677423	-0.051074
O26	O	0.497424	0.677431	0.179905
O27	O	0.427868	0.677441	0.179909
O28	O	0.585603	0.677420	0.050779
O29	O	0.427870	0.908440	-0.180225
O30	O	0.497423	0.446440	0.179944
O31	O	0.585601	0.446427	0.179939
O32	O	0.585602	0.446430	0.050817
O33	O	0.339692	0.908450	-0.051099
O34	O	0.427870	0.908437	-0.051104
O35	O	0.488601	0.601416	0.113888
O36	O	0.540510	0.601410	0.037873
O37	O	0.488602	0.753454	-0.038161
O38	O	0.436692	0.753460	0.037854
C39	C	0.462646	0.474233	-0.000107
C40	C	0.462646	0.405267	-0.000095
C41	C	0.424326	0.429009	-0.056220
C42	C	0.424327	0.364220	-0.056236
C43	C	0.462647	0.275689	-0.000123
C44	C	0.500971	0.251947	0.056006
C45	C	0.500971	0.316736	0.056018
C46	C	0.500971	-0.009339	0.055958
C47	C	0.500967	-0.074128	0.055943
C48	C	0.424326	0.038144	-0.056296
C49	C	0.424327	0.102933	-0.056284
C50	C	0.462652	0.079186	-0.000158
C51	C	0.462651	0.149439	-0.000143
C52	C	0.462646	0.205437	-0.000135
C53	C	0.323885	0.677461	-0.000132
C54	C	0.276791	0.677468	-0.000130
C55	C	-0.015215	0.677426	-0.056251
C56	C	-0.192201	0.677415	-0.056256
O57	O	-0.215073	0.677377	-0.103959
N58	N	-0.214332	0.677415	-0.000145
C59	C	-0.192212	0.677413	0.055974
O60	O	-0.215093	0.677404	0.103704
C61	C	-0.015224	0.677417	0.055982
C62	C	0.006902	0.677426	-0.000137
C63	C	0.006911	0.677433	-0.112365
C64	C	0.051154	0.677441	-0.112365
C65	C	0.073270	0.677441	-0.056252
C66	C	0.051144	0.677433	-0.000138
C67	C	0.006898	0.677408	0.112104
C68	C	0.051149	0.677407	0.112102
C69	C	0.073274	0.677416	0.055983
C70	C	0.117503	0.677441	0.055976
N71	N	0.139634	0.677440	-0.000135
C72	C	0.117517	0.677440	-0.056249
C73	C	-0.285133	0.677412	0.055965
C74	C	-0.329381	0.677412	0.055962
C75	C	-0.329366	0.677413	-0.056268
C76	C	-0.285120	0.677419	-0.056267
C77	C	-0.263002	0.677411	-0.000146
C78	C	0.210429	0.677457	-0.056246
C79	C	0.254674	0.677468	-0.056243
C80	C	0.254658	0.677463	0.055988
C81	C	0.210415	0.677456	0.055984
C82	C	0.188303	0.677450	-0.000137
O83	O	0.140406	0.677469	0.103658
O84	O	0.140413	0.677430	-0.103962
C85	C	-0.059457	0.677418	-0.056250
C86	C	-0.081583	0.677411	-0.000136
C87	C	-0.059466	0.677411	0.055977
C88	C	-0.125830	0.677411	-0.000139
C89	C	-0.147947	0.677411	-0.056253
C90	C	-0.125816	0.677411	-0.112364
C91	C	-0.081573	0.677418	-0.112364
C92	C	-0.081597	0.677411	0.112088
C93	C	-0.125840	0.677405	0.112084
C94	C	-0.147956	0.677405	0.055970
C95	C	0.601409	0.677419	-0.000149
C96	C	0.648503	0.677412	-0.000151
C97	C	0.462648	0.677445	-0.203333
C98	C	0.462648	0.677447	-0.272295
C99	C	0.462648	0.880647	-0.000175
C100	C	0.462648	0.949613	-0.000186
C101	C	0.500967	0.677443	-0.304696
C102	C	0.500969	0.677436	-0.369489
C103	C	0.462649	0.677441	-0.401883
C104	C	0.424328	0.677442	-0.369477
C105	C	0.424329	0.677442	-0.304682
C106	C	0.424323	0.677441	-0.630787
C107	C	0.424324	0.677444	-0.695588
C108	C	0.500963	0.677436	-0.695594
C109	C	0.500964	0.677436	-0.630799
C110	C	0.462645	0.677432	-0.598396
C111	C	0.462644	0.677438	-0.528139
C112	C	0.462647	0.677442	-0.472142
C113	C	0.462646	0.677435	0.203052
C114	C	0.462646	0.677434	0.272014
C115	C	0.601408	0.474213	-0.000115
C116	C	0.648502	0.405239	-0.000106
C117	C	0.462645	0.474229	0.203086
C118	C	0.462645	0.405260	0.272059
C119	C	0.601407	0.474208	0.203078
C120	C	0.648501	0.405233	0.272048
C121	C	0.323887	0.880673	-0.203359
C122	C	0.276793	0.949648	-0.272330
C123	C	0.323886	0.880668	-0.000166
C124	C	0.276792	0.949641	-0.000175
C125	C	0.462648	0.880652	-0.203367
C126	C	0.462649	0.949620	-0.272341
C127	C	0.643522	0.372853	-0.039784
C128	C	0.687768	0.308054	-0.039791
C129	C	0.736993	0.275638	-0.000115
C130	C	0.741972	0.308030	0.039565
C131	C	0.697727	0.372832	0.039567
C132	C	0.489740	0.372867	0.344133
C133	C	0.489738	0.308074	0.408947
C134	C	0.462642	0.275670	0.401686
C135	C	0.435544	0.308069	0.329605
C136	C	0.435543	0.372866	0.264792
C137	C	0.697717	0.372838	0.264759
C138	C	0.741971	0.308037	0.329558
C139	C	0.737008	0.275628	0.401646
C140	C	0.687786	0.308029	0.408934
C141	C	0.643533	0.372833	0.344136
C142	C	0.227576	0.982050	-0.265040
C143	C	0.183322	1.046871	-0.329839
C144	C	0.188286	1.079284	-0.401927
C145	C	0.237508	1.046878	-0.409215
C146	C	0.281761	0.982063	-0.344417
C147	C	0.281772	0.982034	0.039497
C148	C	0.237526	1.046851	0.039486
C149	C	0.188301	1.079270	-0.000193
C150	C	0.183322	1.046874	-0.039870
C151	C	0.227567	0.982063	-0.039863
C152	C	0.489750	0.982003	-0.265055
C153	C	0.489760	1.046797	-0.329857
C154	C	0.462667	1.079212	-0.401943
C155	C	0.435566	1.046822	-0.409227
C156	C	0.435558	0.982024	-0.344426
H157	H	0.393116	0.501092	-0.101907
H158	H	0.773016	0.222871	-0.000122
H159	H	0.701789	0.399192	0.071882
N160	N	0.140579	1.149169	-0.000196
H161	H	0.140562	1.202937	-0.022784
H162	H	0.140592	1.126532	0.053565
H163	H	0.683704	0.281689	-0.072103
N164	N	0.334843	0.947102	-0.352288
H165	H	0.362128	0.901119	-0.300305
H166	H	0.338945	0.996588	-0.380952
H167	H	0.511807	0.281701	0.467631
N168	N	0.542289	0.677470	-0.404446
H169	H	0.577475	0.623510	-0.366188
H170	H	0.540548	0.731492	-0.420159
N171	N	0.382999	0.198418	-0.116812
H172	H	0.388814	0.235859	-0.108287
H173	H	0.347836	0.211605	-0.114340
N174	N	0.406343	1.081788	-0.486978
H175	H	0.431196	1.070510	-0.515628
H176	H	0.379081	1.146832	-0.515569
H177	H	0.603445	0.399246	-0.072103
N178	N	0.795067	0.273047	0.082368
H179	H	0.791514	0.303390	0.107511
H180	H	0.814609	0.284319	0.045934
N181	N	0.334859	0.947088	0.082291
H182	H	0.354424	0.958362	0.045894
H183	H	0.354387	0.882048	0.122236
N184	N	0.542303	-0.169620	0.116459
H185	H	0.525587	-0.199014	0.145944
H186	H	0.566572	-0.174762	0.151964
N187	N	0.518968	0.407807	0.351975
H188	H	0.536128	0.377449	0.407472
H189	H	0.494088	0.472862	0.326806
H190	H	0.413481	0.399232	0.206110
N191	N	0.590453	0.407751	0.352013
H192	H	0.570889	0.396466	0.326909
H193	H	0.570917	0.472792	0.326904
N194	N	0.795053	0.273094	0.321676
H195	H	0.814620	0.208042	0.346802
H196	H	0.814585	0.284431	0.346762
H197	H	0.532166	0.677434	-0.721981
H198	H	0.143248	1.073244	-0.323890
N199	N	-0.261259	0.677422	-0.116794
H200	H	-0.224473	0.623449	-0.092308
H201	H	-0.261366	0.731431	-0.146269
H202	H	0.393128	0.677440	-0.395853
N203	N	0.542308	-0.034965	0.116496
H204	H	0.540632	-0.070789	0.168012
H205	H	0.536478	0.019543	0.107928
H206	H	0.152248	1.132060	-0.454683
N207	N	0.703079	0.407778	0.187012
H208	H	0.740975	0.377416	0.192238
H209	H	0.685898	0.472832	0.158384
N210	N	0.542306	0.156463	0.116524
H211	H	0.536492	0.119021	0.108002
H212	H	0.540616	0.143265	0.168020
N213	N	0.518993	1.081722	-0.321991
H214	H	0.536150	1.051357	-0.266491
H215	H	0.494118	1.146777	-0.347157
H216	H	0.241543	1.073277	-0.467917
H217	H	0.241590	1.073216	0.071798
H218	H	0.462647	0.222908	0.454466
H219	H	0.773045	0.222861	0.454402
N220	N	0.222213	0.947111	-0.187295
H221	H	0.257712	0.901133	-0.147343
H222	H	0.202640	0.920285	-0.181287
H223	H	0.393118	0.677446	-0.721961
N224	N	0.462685	1.149096	-0.471826
H225	H	0.447268	1.202863	-0.471854
H226	H	0.441420	1.164652	-0.518566
H227	H	0.143237	1.073280	-0.072175
H228	H	0.393122	0.677441	-0.604410
H229	H	-0.143854	0.677405	0.157782
H230	H	0.413483	0.281676	0.323704
H231	H	0.223505	0.955691	-0.072166
H232	H	0.511812	0.955622	-0.206365
N233	N	0.682436	0.273069	0.486688
H234	H	0.717941	0.227098	0.526624
H235	H	0.662874	0.246225	0.492700
N236	N	0.382999	0.677442	-0.269734
H237	H	0.347818	0.731416	-0.307997
H238	H	0.388860	0.677404	-0.223764
N239	N	0.383000	0.389826	-0.116777
H240	H	0.358724	0.455740	-0.152322
H241	H	0.362903	0.365381	-0.092248
N242	N	0.382989	0.063760	-0.116836
H243	H	0.388803	0.009287	-0.108335
H244	H	0.384681	0.099610	-0.168327
H245	H	0.532176	0.297399	0.101721
N246	N	0.406319	0.947116	-0.352298
H247	H	0.379047	0.958405	-0.327191
H248	H	0.431196	0.882073	-0.327189
N249	N	0.278536	0.677483	-0.116776
H250	H	0.257810	0.677479	-0.152321
H251	H	0.315325	0.623512	-0.092233
H252	H	0.192431	0.677451	-0.101944
N253	N	0.278518	0.677454	0.116514
H254	H	0.252391	0.731423	0.114063
H255	H	0.309909	0.677421	0.107963
N256	N	0.075015	0.677448	-0.172893
H257	H	0.054286	0.677445	-0.208435
H258	H	0.111803	0.623473	-0.148348
N259	N	0.542307	0.677424	-0.269761
H260	H	0.562441	0.623447	-0.215888
H261	H	0.525562	0.731429	-0.269918
N262	N	-0.016938	0.677431	-0.172891
H263	H	0.003800	0.677435	-0.208433
H264	H	-0.053724	0.731408	-0.202332
H265	H	-0.347397	0.677419	0.101652
N266	N	-0.353226	0.677418	-0.116794
H267	H	-0.384614	0.677418	-0.108275
H268	H	-0.327062	0.623441	-0.114303
N269	N	-0.149679	0.677409	-0.172881
H270	H	-0.123550	0.623436	-0.170424
H271	H	-0.160415	0.731419	-0.224377
N272	N	-0.261290	0.677412	0.116501
H273	H	-0.261360	0.731384	0.092019
H274	H	-0.224516	0.623402	0.145987
N275	N	-0.016958	0.677392	0.172636
H276	H	-0.027685	0.731359	0.170185
H277	H	0.009198	0.623377	0.224121
N278	N	0.075007	0.677391	0.172638
H279	H	0.054274	0.677384	0.208185
H280	H	0.074935	0.731367	0.148098
N281	N	0.186541	0.677455	0.116502
H282	H	0.175804	0.731429	0.114045
H283	H	0.212691	0.623447	0.167993
N284	N	-0.057713	0.677429	-0.172894
H285	H	-0.078443	0.677428	-0.208436
H286	H	-0.020925	0.623456	-0.148352
N287	N	-0.057741	0.677395	0.172622
H288	H	-0.078476	0.677389	0.208166
H289	H	-0.057812	0.731369	0.148086
H290	H	0.532166	0.677436	-0.604427
