data_functionalizedCrystal
_audit_creation_method	'MofGen! by Chris Wilmer'
_symmetry_space_group_name_H-M	'P1'
_symmetry_Int_Tables_number	1
_symmetry_cell_setting	triclinic
loop_
_symmetry_equiv_pos_as_xyz
  x,y,z
_cell_length_a	19.288859
_cell_length_b	13.262508
_cell_length_c	18.366186
_cell_angle_alpha	105.912108
_cell_angle_beta	89.990083
_cell_angle_gamma	83.810045
loop_
_atom_site_label
_atom_site_type_symbol
_atom_site_fract_x
_atom_site_fract_y
_atom_site_fract_z
O1	O	0.922001	0.130898	-0.034639
O2	O	0.719827	0.148567	-0.031138
O3	O	0.826005	-0.013079	-0.063149
O4	O	0.815824	0.292544	-0.002629
O5	O	0.825986	-0.013087	0.057949
O6	O	0.719809	0.148559	0.089959
O7	O	0.921983	0.130890	0.086458
Zn8	Zn	0.820893	0.139723	0.107436
Zn9	Zn	0.820917	0.139734	-0.052116
O10	O	0.815806	0.292536	0.118469
C11	C	0.693939	0.147995	0.029298
C12	C	0.616827	0.146292	0.028962
C13	C	0.053197	0.229615	0.045461
C14	C	0.125652	0.231225	0.045775
C15	C	0.169890	0.136379	0.026995
C16	C	0.141669	0.039915	0.007880
C17	C	0.069216	0.038308	0.007558
C18	C	0.290805	0.065640	0.055417
C19	C	0.363257	0.067251	0.055744
C20	C	0.393361	0.141331	0.027983
C21	C	0.351003	0.213818	-0.000091
C22	C	0.278549	0.212211	-0.000413
C23	C	0.248455	0.138111	0.027342
C24	C	0.500137	0.239534	0.047434
C25	C	0.572593	0.241139	0.047743
C26	C	0.588609	0.049827	0.009855
C27	C	0.516155	0.048224	0.009538
C28	C	0.471922	0.143080	0.028332
C29	C	0.825427	-0.052183	-0.010344
C30	C	0.823723	-0.168689	-0.033419
C31	C	0.818876	-0.497130	0.165586
C32	C	0.820472	-0.387666	0.187267
C33	C	0.821285	-0.332916	0.132097
C34	C	0.820502	-0.387642	0.055243
C35	C	0.818900	-0.497115	0.033559
C36	C	0.821309	-0.332902	0.000071
C37	C	0.820526	-0.387627	-0.076784
C38	C	0.818925	-0.497090	-0.098463
C39	C	0.818112	-0.551840	-0.043293
C40	C	0.822910	-0.223428	0.021754
C41	C	0.822934	-0.223413	-0.110272
C42	C	0.821339	-0.332877	-0.131953
C43	C	0.947872	0.131461	0.026020
C44	C	1.024984	0.133165	0.026352
C45	C	0.816384	0.331640	0.065662
C46	C	0.818088	0.448146	0.088733
N47	N	0.820882	0.139715	0.216325
N48	N	0.820934	0.139733	-0.161007
C49	C	0.867913	0.068174	0.240259
C50	C	0.867917	0.068169	0.316485
C51	C	0.820898	0.139724	0.368780
C52	C	0.773858	0.211271	0.344839
C53	C	0.773850	0.211267	0.268611
C54	C	0.812071	0.235354	0.508477
C55	C	0.812084	0.235360	0.584703
C56	C	0.820917	0.139737	0.603890
C57	C	0.829753	0.044105	0.546841
C58	C	0.829745	0.044100	0.470613
C59	C	0.820900	0.139736	0.451437
C60	C	0.867956	0.068185	0.710476
C61	C	0.867955	0.068178	0.786704
C62	C	0.773899	0.211290	0.815057
C63	C	0.773896	0.211287	0.738829
C64	C	0.820928	0.139735	0.686543
H65	H	0.375511	0.274144	-0.022694
H66	H	0.735602	0.269547	0.719343
H67	H	0.823541	-0.178880	0.084330
H68	H	0.906251	0.009915	0.806188
H69	H	0.735572	0.269531	0.387420
H70	H	0.735551	0.269526	0.249126
H71	H	0.818209	-0.541716	0.210497
H72	H	0.148628	0.309769	0.061343
H73	H	0.821117	-0.343118	0.249842
H74	H	0.804894	0.313230	0.631148
H75	H	0.816817	-0.640975	-0.060943
H76	H	0.906217	0.009909	0.335975
H77	H	0.822583	-0.243785	0.149755
H78	H	0.818282	-0.541643	-0.161043
H79	H	0.906250	0.009920	0.667902
H80	H	0.820701	-0.377450	-0.194529
H81	H	0.046246	-0.040235	-0.008003
H82	H	0.823591	-0.178835	-0.155196
H83	H	0.397739	0.008233	0.078608
H84	H	0.906208	0.009910	0.197688
H85	H	0.177693	-0.037309	-0.007413
H86	H	0.836938	-0.033767	0.424166
H87	H	0.836946	-0.033761	0.562459
H88	H	0.735612	0.269547	0.857634
H89	H	0.017187	0.306855	0.060760
H90	H	0.244064	0.271231	-0.023273
H91	H	0.464121	0.316771	0.062735
H92	H	0.595562	0.319684	0.063299
H93	H	0.493184	-0.030316	-0.006018
H94	H	0.624628	-0.027399	-0.005442
H95	H	0.266302	0.005310	0.078023
H96	H	0.804866	0.313227	0.492865
