data_functionalizedCrystal
_audit_creation_method	'MofGen! by Chris Wilmer'
_symmetry_space_group_name_H-M	'P1'
_symmetry_Int_Tables_number	1
_symmetry_cell_setting	triclinic
loop_
_symmetry_equiv_pos_as_xyz
  x,y,z
_cell_length_a	6.817900
_cell_length_b	16.306198
_cell_length_c	16.305550
_cell_angle_alpha	95.373122
_cell_angle_beta	103.455250
_cell_angle_gamma	103.467075
loop_
_atom_site_label
_atom_site_type_symbol
_atom_site_fract_x
_atom_site_fract_y
_atom_site_fract_z
V1	V	-4.026246	-0.117432	-0.263332
O2	O	-4.013841	0.004910	-0.258012
O3	O	-3.977698	-0.232142	-0.261826
O4	O	-3.977652	-0.115947	-0.378045
O5	O	-4.013887	-0.112090	-0.140988
V6	V	-4.509919	-0.102760	-0.248662
O7	O	-4.287177	-0.149615	-0.295509
O8	O	-4.699185	-0.070577	-0.216485
O9	O	-4.335260	0.011951	-0.250168
O10	O	-4.639720	-0.225102	-0.253982
O11	O	-4.639675	-0.108102	-0.371006
O12	O	-4.335306	-0.104245	-0.133949
C13	C	-3.822669	-0.260096	-0.257748
C14	C	-3.864260	-0.353876	-0.257281
C15	C	-4.015214	-0.694623	-0.255576
C16	C	-4.219298	-0.664089	-0.260538
C17	C	-4.176361	-0.566600	-0.261349
C18	C	-3.940325	-0.525574	-0.256421
C19	C	-3.888744	-0.571230	-0.334676
C20	C	-3.933440	-0.668848	-0.334288
C21	C	-3.845294	-0.643281	-0.172946
C22	C	-3.805619	-0.545629	-0.172460
C23	C	-3.897991	-0.430035	-0.256902
C24	C	-4.057544	-0.790162	-0.255101
C25	C	-3.822610	-0.111876	-0.405996
C26	C	-3.864161	-0.111421	-0.499776
C27	C	-4.015248	-0.109658	-0.840517
C28	C	-3.779200	-0.104423	-0.799575
C29	C	-3.736007	-0.105246	-0.702082
C30	C	-3.940291	-0.110532	-0.671472
C31	C	-4.107324	-0.193848	-0.722311
C32	C	-4.149188	-0.193376	-0.819859
C33	C	-4.070003	-0.032243	-0.794476
C34	C	-4.022074	-0.031583	-0.696632
C35	C	-3.897941	-0.111029	-0.575935
C36	C	-4.057607	-0.109167	-0.936055
C37	C	-4.153632	0.039900	-0.254244
C38	C	-4.091278	0.133679	-0.254716
C39	C	-4.153691	-0.108318	-0.105994
C40	C	-4.091377	-0.108769	-0.012212
H41	H	-4.221391	-0.535490	-0.205421
C42	C	-4.100337	-0.272545	-0.861107
N43	N	-4.063528	-0.332174	-0.892169
C44	C	-4.094438	-0.715045	-0.418328
N45	N	-4.215710	-0.749837	-0.481628
H46	H	-4.286051	-0.680462	-0.204400
C47	C	-4.220901	-0.030120	-0.667690
N48	N	-4.370619	-0.029004	-0.645860
H49	H	-3.693119	-0.662437	-0.168527
H50	H	-4.346076	-0.699797	-0.320147
H51	H	-3.843968	-0.514879	-0.114526
H52	H	-3.734110	-0.160043	-0.831230
C53	C	-3.565079	-0.024328	-0.654559
N54	N	-3.436318	0.036619	-0.618768
H55	H	-4.282463	-0.554520	-0.321608
H56	H	-4.323024	-0.200683	-0.847870
H57	H	-3.669581	-0.161507	-0.685933
C58	C	-3.658276	-0.535357	-0.333833
N59	N	-3.484687	-0.508334	-0.333197
C60	C	-4.314232	-0.203150	-0.696783
N61	N	-4.470072	-0.210155	-0.677552
H62	H	-4.051891	-0.252469	-0.705648
C63	C	-4.302448	-0.036416	-0.830720
N64	N	-4.477524	-0.039565	-0.858026
H65	H	-3.978601	0.030885	-0.807682
C66	C	-3.732041	-0.696374	-0.334053
N67	N	-3.580353	-0.717104	-0.333885
H68	H	-3.901027	0.030042	-0.662096
H69	H	-3.985083	-0.558145	-0.396811
H70	H	-3.631654	-0.516663	-0.163961
C71	C	-3.635785	-0.023196	-0.816210
N72	N	-3.527758	0.037958	-0.828794
C73	C	-3.912169	-0.665636	-0.092081
N74	N	-3.962563	-0.682475	-0.031178
