data_functionalizedCrystal
_audit_creation_method	'MofGen! by Chris Wilmer'
_symmetry_space_group_name_H-M	'P1'
_symmetry_Int_Tables_number	1
_symmetry_cell_setting	triclinic
loop_
_symmetry_equiv_pos_as_xyz
  x,y,z
_cell_length_a	29.839131
_cell_length_b	17.077404
_cell_length_c	17.077396
_cell_angle_alpha	89.981638
_cell_angle_beta	89.968087
_cell_angle_gamma	90.039390
loop_
_atom_site_label
_atom_site_type_symbol
_atom_site_fract_x
_atom_site_fract_y
_atom_site_fract_z
Zn1	Zn	-0.178878	1.199953	-0.443800
Zn2	Zn	0.321122	1.699953	0.056200
Zn3	Zn	-0.254008	1.199818	-0.312526
Zn4	Zn	0.245992	1.699818	0.187474
Zn5	Zn	-0.178890	1.068685	-0.312551
Zn6	Zn	0.321110	1.568685	0.187449
Zn7	Zn	-0.253979	1.068611	-0.443752
Zn8	Zn	0.246021	1.568611	0.056248
O9	O	-0.216439	1.134267	-0.378157
O10	O	0.283561	1.634267	0.121843
O11	O	-0.188851	1.309782	-0.426396
O12	O	0.311149	1.809782	0.073604
O13	O	-0.244062	1.182398	-0.202682
O14	O	0.255938	1.682398	0.297318
O15	O	-0.116022	1.086186	-0.329991
O16	O	0.383978	1.586186	0.170009
O17	O	-0.244049	1.309683	-0.329950
O18	O	0.255951	1.809683	0.170050
O19	O	-0.116012	1.182628	-0.426420
O20	O	0.383988	1.682628	0.073580
O21	O	-0.188873	1.086055	-0.202700
O22	O	0.311127	1.586055	0.297300
O23	O	-0.188844	0.958829	-0.329945
O24	O	0.311156	1.458829	0.170055
O25	O	-0.243999	1.086059	-0.553606
O26	O	0.256001	1.586059	-0.053606
O27	O	-0.244011	0.958774	-0.426338
O28	O	0.255989	1.458774	0.073662
O29	O	-0.188822	1.182556	-0.553641
O30	O	0.311178	1.682556	-0.053641
O31	O	-0.316872	1.182325	-0.329903
O32	O	0.183128	1.682325	0.170097
O33	O	-0.316850	1.085928	-0.426315
O34	O	0.183150	1.585928	0.073685
C35	C	-0.216426	0.930319	-0.378140
C36	C	0.283574	1.430319	0.121860
C37	C	-0.216431	0.843069	-0.378151
C38	C	0.283569	1.343069	0.121849
C39	C	-0.187741	0.802132	-0.428447
C40	C	0.312259	1.302132	0.071553
C41	C	-0.187744	0.720151	-0.428451
C42	C	0.312256	1.220151	0.071549
C43	C	-0.216440	0.679110	-0.378161
C44	C	0.283560	1.179110	0.121839
C45	C	-0.245132	0.720053	-0.327860
C46	C	0.254868	1.220053	0.172140
C47	C	-0.245126	0.802032	-0.327853
C48	C	0.254874	1.302032	0.172147
C49	C	-0.245142	0.549183	-0.327879
C50	C	0.254858	1.049183	0.172121
C51	C	-0.245148	0.467199	-0.327887
C52	C	0.254852	0.967199	0.172113
C53	C	-0.187759	0.467302	-0.428477
C54	C	0.312241	0.967302	0.071523
C55	C	-0.187754	0.549281	-0.428470
C56	C	0.312246	1.049281	0.071530
C57	C	-0.216447	0.590219	-0.378169
C58	C	0.283553	1.090219	0.121831
C59	C	-0.333161	1.134125	-0.378118
C60	C	0.166839	1.634125	0.121882
C61	C	-0.383096	1.134136	-0.378128
C62	C	0.116904	1.634136	0.121872
C63	C	-0.692738	1.184552	-0.328029
C64	C	-0.192738	1.684552	0.171971
C65	C	-0.880411	1.184649	-0.328060
C66	C	-0.380411	1.684649	0.171940
O67	O	-0.904675	1.227402	-0.285434
O68	O	-0.404675	1.727402	0.214566
N69	N	-0.903881	1.134430	-0.378217
N70	N	-0.403881	1.634430	0.121783
C71	C	-0.880430	1.084186	-0.428373
C72	C	-0.380430	1.584186	0.071627
O73	O	-0.904699	1.041479	-0.471041
O74	O	-0.404699	1.541479	0.028959
C75	C	-0.692757	1.084094	-0.428346
C76	C	-0.192757	1.584094	0.071654
C77	C	-0.669290	1.134311	-0.378180
C78	C	-0.169290	1.634311	0.121820
C79	C	-0.669270	1.234766	-0.277868
C80	C	-0.169270	1.734766	0.222132
C81	C	-0.622355	1.234738	-0.277858
C82	C	-0.122355	1.734738	0.222142
C83	C	-0.598907	1.184497	-0.328009
C84	C	-0.098907	1.684497	0.171991
C85	C	-0.622375	1.134283	-0.378170
C86	C	-0.122375	1.634283	0.121830
C87	C	-0.669307	1.033855	-0.478506
C88	C	-0.169307	1.533855	0.021494
C89	C	-0.622386	1.033837	-0.478496
C90	C	-0.122386	1.533837	0.021504
C91	C	-0.598919	1.084054	-0.428330
C92	C	-0.098919	1.584054	0.071670
C93	C	-0.552011	1.084014	-0.428311
C94	C	-0.052011	1.584014	0.071689
N95	N	-0.528541	1.134233	-0.378154
N96	N	-0.028541	1.634233	0.121846
C97	C	-0.551989	1.184475	-0.328003
C98	C	-0.051989	1.684475	0.171997
C99	C	-0.978960	1.084237	-0.428382
C100	C	-0.478960	1.584237	0.071618
C101	C	-1.025878	1.084259	-0.428388
C102	C	-0.525878	1.584259	0.071612
C103	C	-1.025856	1.184723	-0.328076
C104	C	-0.525856	1.684723	0.171924
C105	C	-0.978937	1.184697	-0.328067
C106	C	-0.478937	1.684697	0.171933
C107	C	-0.955490	1.134456	-0.378226
C108	C	-0.455490	1.634456	0.121774
C109	C	-0.453463	1.184412	-0.327985
C110	C	0.046537	1.684412	0.172015
C111	C	-0.406544	1.184378	-0.327977
C112	C	0.093456	1.684378	0.172023
C113	C	-0.406570	1.083917	-0.428292
C114	C	0.093430	1.583917	0.071708
C115	C	-0.453485	1.083948	-0.428297
C116	C	0.046515	1.583948	0.071703
C117	C	-0.476931	1.134202	-0.378141
C118	C	0.023069	1.634202	0.121859
O119	O	-0.527719	1.041289	-0.470920
O120	O	-0.027719	1.541289	0.029080
O121	O	-0.527712	1.227188	-0.285354
O122	O	-0.027712	1.727188	0.214646
C123	C	-0.739653	1.184580	-0.328039
C124	C	-0.239653	1.684580	0.171961
C125	C	-0.763121	1.134366	-0.378200
C126	C	-0.263121	1.634366	0.121800
C127	C	-0.739673	1.084125	-0.428351
C128	C	-0.239673	1.584125	0.071649
C129	C	-0.810039	1.134388	-0.378206
C130	C	-0.310039	1.634388	0.121794
C131	C	-0.833487	1.184630	-0.328056
C132	C	-0.333487	1.684630	0.171944
C133	C	-0.810017	1.234849	-0.277899
C134	C	-0.310017	1.734849	0.222101
C135	C	-0.763101	1.234822	-0.277889
C136	C	-0.263101	1.734822	0.222111
C137	C	-0.763143	1.033905	-0.478508
C138	C	-0.263143	1.533905	0.021492
C139	C	-0.810058	1.033937	-0.478513
C140	C	-0.310058	1.533937	0.021487
C141	C	-0.833506	1.084178	-0.428363
C142	C	-0.333506	1.584178	0.071637
C143	C	-0.099260	1.134431	-0.378214
C144	C	0.400740	1.634431	0.121786
C145	C	-0.049326	1.134500	-0.378238
C146	C	0.450674	1.634500	0.121762
C147	C	-0.216406	1.134314	-0.582902
C148	C	0.283594	1.634314	-0.082902
C149	C	-0.216392	1.134335	-0.670152
C150	C	0.283608	1.634335	-0.170152
C151	C	-0.216452	1.339011	-0.378175
C152	C	0.283548	1.839011	0.121825
C153	C	-0.216458	1.426261	-0.378183
C154	C	0.283542	1.926261	0.121817
C155	C	-0.187659	1.184582	-0.711161
C156	C	0.312341	1.684582	-0.211161
C157	C	-0.187644	1.184592	-0.793142
C158	C	0.312356	1.684592	-0.293142
C159	C	-0.216364	1.134357	-0.834111
C160	C	0.283636	1.634357	-0.334111
C161	C	-0.245098	1.084104	-0.793096
C162	C	0.254902	1.584104	-0.293096
C163	C	-0.245111	1.084091	-0.711117
C164	C	0.254889	1.584091	-0.211117
C165	C	-0.245071	1.084135	-0.963966
C166	C	0.254929	1.584135	-0.463966
C167	C	-0.245060	1.084149	-1.045950
C168	C	0.254940	1.584149	-0.545950
C169	C	-0.187605	1.184636	-1.045991
C170	C	0.312395	1.684636	-0.545991
C171	C	-0.187617	1.184624	-0.964012
C172	C	0.312383	1.684624	-0.464012
C173	C	-0.216352	1.134371	-0.923002
C174	C	0.283648	1.634371	-0.423002
C175	C	-0.216439	1.134265	-0.174209
C176	C	0.283561	1.634265	0.325791
C177	C	-0.216327	1.134397	-0.086960
C178	C	0.283673	1.634397	0.413040
H179	H	-0.387438	1.225271	-0.287124
H180	H	0.112562	1.725271	0.212876
C181	C	-0.695056	1.290036	-0.222689
C182	C	-0.195056	1.790036	0.277311
N183	N	-0.714474	1.331664	-0.181119
N184	N	-0.214474	1.831664	0.318881
H185	H	-0.164374	0.835542	-0.469401
H186	H	0.335626	1.335542	0.030599
C187	C	-0.156022	1.239883	-0.918947
C188	C	0.343978	1.739883	-0.418947
N189	N	-0.132222	1.281502	-0.885005
N190	N	0.367778	1.781502	-0.385005
C191	C	-0.276697	0.674905	-0.272540
C192	C	0.223303	1.174905	0.227460
N193	N	-0.300474	0.640900	-0.230873
N194	N	0.199526	1.140900	0.269127
H195	H	-0.268445	1.043242	-1.079306
H196	H	0.231555	1.543242	-0.579306
H197	H	-0.829162	0.993037	-0.519364
H198	H	-0.329162	1.493037	-0.019364
H199	H	-0.472547	1.225336	-0.287145
H200	H	0.027453	1.725336	0.212855
C201	C	-0.276687	1.028837	-0.838165
C202	C	0.223313	1.528837	-0.338165
N203	N	-0.300480	0.987209	-0.872110
N204	N	0.199520	1.487209	-0.372110
H205	H	-1.044955	1.225632	-0.287241
H206	H	-0.544955	1.725632	0.212759
C207	C	-0.156183	0.675124	-0.483783
C208	C	0.343817	1.175124	0.016217
N209	N	-0.132410	0.641209	-0.525462
N210	N	0.367590	1.141209	-0.025462
C211	C	-0.276720	1.028816	-0.666006
C212	C	0.223280	1.528816	-0.166006
N213	N	-0.300528	0.987179	-0.632030
N214	N	0.199472	1.487179	-0.132030
C215	C	-0.737357	0.978654	-0.533702
C216	C	-0.237357	1.478654	-0.033702
N217	N	-0.717936	0.937040	-0.575283
N218	N	-0.217936	1.437040	-0.075283
C219	C	-0.156199	0.422269	-0.483812
C220	C	0.343801	0.922269	0.016188
N221	N	-0.132430	0.388347	-0.525491
N222	N	0.367570	0.888347	-0.025491
H223	H	-0.164390	0.582695	-0.469425
H224	H	0.335610	1.082695	0.030575
H225	H	-0.603250	1.275632	-0.237011
H226	H	-0.103250	1.775632	0.262989
H227	H	-0.268515	0.433785	-0.286938
H228	H	0.231485	0.933785	0.213062
C229	C	-1.051687	1.029009	-0.483567
C230	C	-0.551687	1.529009	0.016433
N231	N	-1.071125	0.987395	-0.525133
N232	N	-0.571125	1.487395	-0.025133
C233	C	-0.276689	0.847063	-0.272524
C234	C	0.223311	1.347063	0.227476
N235	N	-0.300462	0.880979	-0.230848
N236	N	0.199538	1.380979	0.269152
C237	C	-0.155996	1.239914	-1.091103
C238	C	0.344004	1.739914	-0.591103
N239	N	-0.132190	1.281550	-1.125085
N240	N	0.367810	1.781550	-0.625085
H241	H	-0.268505	0.582512	-0.286917
H242	H	0.231495	1.082512	0.213083
C243	C	-0.953128	1.239942	-0.272884
C244	C	-0.453128	1.739942	0.227116
N245	N	-0.933690	1.281555	-0.231318
N246	N	-0.433690	1.781555	0.268682
H247	H	-0.959873	1.043323	-0.469229
H248	H	-0.459873	1.543323	0.030771
C249	C	-0.596597	0.978568	-0.533676
C250	C	-0.096597	1.478568	-0.033676
N251	N	-0.577174	0.936937	-0.575237
N252	N	-0.077174	1.436937	-0.075237
H253	H	-0.164273	1.225492	-0.677810
H254	H	0.335727	1.725492	-0.177810
C255	C	-0.479300	1.028704	-0.483479
C256	C	0.020700	1.528704	0.016521
N257	N	-0.498741	0.987099	-0.525049
N258	N	0.001259	1.487099	-0.025049
C259	C	-0.380768	1.028657	-0.483458
C260	C	0.119232	1.528657	0.016542
N261	N	-0.361333	0.987039	-0.525015
N262	N	0.138667	1.487039	-0.025015
H263	H	-0.743997	1.275713	-0.237039
H264	H	-0.243997	1.775713	0.262961
C265	C	-0.835818	1.290114	-0.222732
C266	C	-0.335818	1.790114	0.277268
N267	N	-0.855255	1.331740	-0.181185
N268	N	-0.355255	1.831740	0.318815
H269	H	-0.268463	1.043202	-0.930578
H270	H	0.231537	1.543202	-0.430578
H271	H	-0.164248	1.225511	-0.826528
H272	H	0.335752	1.725511	-0.326528
H273	H	-0.688406	0.992958	-0.519352
H274	H	-0.188406	1.492958	-0.019352
