data_functionalizedCrystal
_audit_creation_method	'MofGen! by Chris Wilmer'
_symmetry_space_group_name_H-M	'P1'
_symmetry_Int_Tables_number	1
_symmetry_cell_setting	triclinic
loop_
_symmetry_equiv_pos_as_xyz
  x,y,z
_cell_length_a	14.519709
_cell_length_b	14.519731
_cell_length_c	13.596369
_cell_angle_alpha	90.005365
_cell_angle_beta	89.999340
_cell_angle_gamma	96.315500
loop_
_atom_site_label
_atom_site_type_symbol
_atom_site_fract_x
_atom_site_fract_y
_atom_site_fract_z
O1	O	1.223880	-0.120883	-0.081675
O2	O	1.473880	0.129117	0.168325
O3	O	1.723880	0.379117	0.418325
O4	O	1.973880	0.629117	0.668325
O5	O	0.955404	-0.135120	-0.081707
O6	O	1.205404	0.114880	0.168293
O7	O	1.455404	0.364880	0.418293
O8	O	1.705404	0.614880	0.668293
O9	O	1.096750	0.006236	-0.081670
O10	O	1.346750	0.256236	0.168330
O11	O	1.596750	0.506236	0.418330
O12	O	1.846750	0.756236	0.668330
O13	O	1.082534	-0.262239	-0.081712
O14	O	1.332534	-0.012239	0.168288
O15	O	1.582534	0.237761	0.418288
O16	O	1.832534	0.487761	0.668288
O17	O	1.096731	0.006227	0.081912
O18	O	1.346731	0.256227	0.331912
O19	O	1.596731	0.506227	0.581912
O20	O	1.846731	0.756227	0.831912
O21	O	0.955386	-0.135129	0.081876
O22	O	1.205386	0.114871	0.331876
O23	O	1.455386	0.364871	0.581876
O24	O	1.705386	0.614871	0.831876
O25	O	1.223861	-0.120892	0.081908
O26	O	1.473861	0.129108	0.331908
O27	O	1.723861	0.379108	0.581908
O28	O	1.973861	0.629108	0.831908
Zn29	Zn	1.089621	-0.128012	0.107864
Zn30	Zn	1.339621	0.121988	0.357864
Zn31	Zn	1.589621	0.371988	0.607864
Zn32	Zn	1.839621	0.621988	0.857864
Zn33	Zn	1.089645	-0.128000	-0.107663
Zn34	Zn	1.339645	0.122000	0.142337
Zn35	Zn	1.589645	0.372000	0.392337
Zn36	Zn	1.839645	0.622000	0.642337
O37	O	1.082515	-0.262248	0.081871
O38	O	1.332515	-0.012248	0.331871
O39	O	1.582515	0.237752	0.581871
O40	O	1.832515	0.487752	0.831871
C41	C	0.921035	-0.134461	0.000081
C42	C	1.171035	0.115539	0.250081
C43	C	1.421035	0.365539	0.500081
C44	C	1.671035	0.615539	0.750081
C45	C	0.818654	-0.132473	0.000070
C46	C	1.068654	0.117527	0.250070
C47	C	1.318654	0.367527	0.500070
C48	C	1.568654	0.617527	0.750070
C49	C	1.096075	0.040591	0.000124
C50	C	1.346075	0.290591	0.250124
C51	C	1.596075	0.540591	0.500124
C52	C	1.846075	0.790591	0.750124
C53	C	1.094079	0.142971	0.000133
C54	C	1.344079	0.392971	0.250133
C55	C	1.594079	0.642971	0.500133
C56	C	1.844079	0.892971	0.750133
C57	C	0.443757	-0.125153	0.000116
C58	C	0.693757	0.124847	0.250116
C59	C	0.943757	0.374847	0.500116
C60	C	1.193757	0.624847	0.750116
C61	C	0.548065	-0.127186	0.000102
C62	C	0.798065	0.122814	0.250102
C63	C	1.048065	0.372814	0.500102
C64	C	1.298065	0.622814	0.750102
C65	C	0.631202	-0.128813	0.000092
C66	C	0.881202	0.121187	0.250092
C67	C	1.131202	0.371187	0.500092
C68	C	1.381202	0.621187	0.750092
C69	C	0.735517	-0.130846	0.000080
C70	C	0.985517	0.119154	0.250080
C71	C	1.235517	0.369154	0.500080
C72	C	1.485517	0.619154	0.750080
C73	C	1.258230	-0.121551	0.000118
C74	C	1.508230	0.128449	0.250118
C75	C	1.758230	0.378449	0.500118
C76	C	2.008230	0.628449	0.750118
C77	C	1.360612	-0.123539	0.000122
C78	C	1.610612	0.126461	0.250122
C79	C	1.860612	0.376461	0.500122
C80	C	2.110612	0.626461	0.750122
C81	C	1.092457	0.226115	0.000137
C82	C	1.342457	0.476115	0.250137
C83	C	1.592457	0.726115	0.500137
C84	C	1.842457	0.976115	0.750137
C85	C	1.090430	0.330424	0.000138
C86	C	1.340430	0.580424	0.250138
C87	C	1.590430	0.830424	0.500138
C88	C	1.840430	1.080424	0.750138
C89	C	1.088822	0.413563	0.000138
C90	C	1.338822	0.663563	0.250138
C91	C	1.588822	0.913563	0.500138
C92	C	1.838822	1.163563	0.750138
C93	C	1.086795	0.517878	0.000141
C94	C	1.336795	0.767878	0.250141
C95	C	1.586795	1.017878	0.500141
C96	C	1.836795	1.267878	0.750141
C97	C	1.083191	0.703397	0.000095
C98	C	1.333191	0.953397	0.250095
C99	C	1.583191	1.203397	0.500095
C100	C	1.833191	1.453397	0.750095
C101	C	1.085187	0.601017	0.000141
C102	C	1.335187	0.851017	0.250141
C103	C	1.585187	1.101017	0.500141
C104	C	1.835187	1.351017	0.750141
N105	N	1.089611	-0.128019	0.254956
N106	N	1.339611	0.121981	0.504956
N107	N	1.589611	0.371981	0.754956
N108	N	1.839611	0.621981	1.004956
C109	C	1.089615	-0.128022	0.343954
C110	C	1.339615	0.121978	0.593954
C111	C	1.589615	0.371978	0.843954
C112	C	1.839615	0.621978	1.093954
C113	C	1.089623	-0.128017	0.455605
C114	C	1.339623	0.121983	0.705605
C115	C	1.589623	0.371983	0.955605
C116	C	1.839623	0.621983	1.205605
C117	C	1.089634	-0.128007	0.544596
C118	C	1.339634	0.121993	0.794596
C119	C	1.589634	0.371993	1.044596
C120	C	1.839634	0.621993	1.294596
C121	C	1.089644	-0.128002	0.656254
C122	C	1.339644	0.121998	0.906254
C123	C	1.589644	0.371998	1.156254
C124	C	1.839644	0.621998	1.406254
N125	N	1.089656	-0.127992	0.745245
N126	N	1.339656	0.122008	0.995245
N127	N	1.589656	0.372008	1.245245
N128	N	1.839656	0.622008	1.495245
