data_functionalizedCrystal
_audit_creation_method	'MofGen! by Chris Wilmer'
_symmetry_space_group_name_H-M	'P1'
_symmetry_Int_Tables_number	1
_symmetry_cell_setting	triclinic
loop_
_symmetry_equiv_pos_as_xyz
  x,y,z
_cell_length_a	14.044220
_cell_length_b	10.489741
_cell_length_c	12.503572
_cell_angle_alpha	93.559494
_cell_angle_beta	86.164750
_cell_angle_gamma	88.864026
loop_
_atom_site_label
_atom_site_type_symbol
_atom_site_fract_x
_atom_site_fract_y
_atom_site_fract_z
O1	O	1.265220	0.300990	-0.089205
O2	O	0.989177	0.289883	-0.089232
O3	O	1.133479	0.110477	-0.089211
O4	O	1.120918	0.480397	-0.089225
O5	O	1.122627	0.123993	0.089429
O6	O	0.978325	0.303400	0.089408
O7	O	1.254368	0.314507	0.089436
Cu8	Cu	1.115355	0.310188	0.105733
Cu9	Cu	1.128189	0.294203	-0.105530
O10	O	1.110065	0.493914	0.089415
C11	C	0.948403	0.291780	0.000085
C12	C	0.843079	0.277280	0.000074
C13	C	0.650235	0.250773	0.000097
C14	C	0.593304	0.353611	0.000097
C15	C	0.485999	0.338862	0.000110
C16	C	0.757550	0.265520	0.000084
C17	C	1.127104	0.069607	0.000108
C18	C	1.124266	-0.072311	0.000106
C19	C	1.032451	-0.149764	0.000089
C20	C	1.070473	-0.230823	0.088172
C21	C	1.081194	-0.244122	-0.087953
C22	C	1.162321	-0.151494	0.088262
C23	C	1.173035	-0.164791	-0.087943
C24	C	1.211122	-0.245814	0.000162
C25	C	1.295142	0.312610	0.000116
C26	C	1.400466	0.327110	0.000120
C27	C	1.116440	0.534783	0.000093
C28	C	1.119279	0.676700	0.000088
N29	N	1.106335	0.321431	0.254324
N30	N	1.137217	0.282950	-0.254121
C31	C	1.093067	0.337981	0.473438
C32	C	1.150482	0.266404	0.526773
C33	C	1.143099	0.275613	0.648695
C34	C	1.100449	0.328774	0.351504
H35	H	0.618389	0.151662	0.000106
C36	C	0.931756	-0.093803	0.000412
C37	C	0.878508	-0.126929	0.092848
C38	C	0.785752	-0.075384	0.093194
H39	H	0.902451	-0.126753	-0.061455
H40	H	0.934263	-0.003406	-0.000168
H41	H	0.875998	-0.217308	0.093418
H42	H	0.907784	-0.093980	0.154730
H43	H	0.788259	0.015013	0.092614
H44	H	0.756456	-0.108338	0.031323
H45	H	0.749615	-0.097843	0.155915
H46	H	1.286677	-0.287570	0.000218
H47	H	1.027100	-0.260141	0.162633
C48	C	1.207969	-0.097373	0.187633
C49	C	1.210039	0.035932	0.186519
C50	C	1.252066	0.085835	0.278048
H51	H	1.271263	-0.130911	0.187988
H52	H	1.171763	-0.120393	0.250128
H53	H	1.246245	0.058941	0.124040
H54	H	1.146757	0.069504	0.186179
H55	H	1.215860	0.062815	0.340543
H56	H	1.315357	0.052288	0.278395
H57	H	1.253468	0.176287	0.277309
H58	H	0.625152	0.452730	0.000088
H59	H	1.046857	-0.284662	-0.162428
H60	H	1.216375	-0.135444	-0.162407
C61	C	1.223302	0.175140	0.465762
C62	C	1.205152	0.050091	0.493159
C63	C	1.272201	-0.034067	0.437021
H64	H	1.285674	0.197274	0.484123
H65	H	1.218709	0.180730	0.390726
H66	H	1.209754	0.044505	0.568177
H67	H	1.142792	0.027917	0.474795
H68	H	1.267608	-0.028477	0.361986
H69	H	1.334569	-0.011921	0.455387
H70	H	1.259890	-0.118923	0.455595
C71	C	1.020235	0.428886	0.534831
C72	C	1.027329	0.420096	0.645305
C73	C	0.960265	0.503834	0.701907
H74	H	0.957845	0.406653	0.516604
H75	H	1.032333	0.513897	0.516525
H76	H	1.015224	0.335104	0.663603
H77	H	1.089703	0.442340	0.663564
H78	H	0.972363	0.588844	0.683602
H79	H	0.897880	0.481593	0.683672
H80	H	0.965075	0.497889	0.776870
