data_functionalizedCrystal
_audit_creation_method	'MofGen! by Chris Wilmer'
_symmetry_space_group_name_H-M	'P1'
_symmetry_Int_Tables_number	1
_symmetry_cell_setting	triclinic
loop_
_symmetry_equiv_pos_as_xyz
  x,y,z
_cell_length_a	17.019282
_cell_length_b	17.019294
_cell_length_c	14.421503
_cell_angle_alpha	86.125318
_cell_angle_beta	93.873603
_cell_angle_gamma	83.655696
loop_
_atom_site_label
_atom_site_type_symbol
_atom_site_fract_x
_atom_site_fract_y
_atom_site_fract_z
O1	O	1.046568	0.100443	-0.001529
O2	O	1.546568	0.600443	0.498471
O3	O	0.816889	0.113268	-0.020902
O4	O	1.316889	0.613268	0.479098
O5	O	0.938135	-0.007984	-0.001530
O6	O	1.438135	0.492016	0.498470
O7	O	0.925322	0.221695	-0.020902
O8	O	1.425322	0.721695	0.479098
O9	O	0.938115	-0.007965	0.152691
O10	O	1.438115	0.492035	0.652691
O11	O	0.816869	0.113286	0.133318
O12	O	1.316869	0.613286	0.633318
O13	O	1.046548	0.100461	0.152691
O14	O	1.546548	0.600461	0.652691
Cu15	Cu	0.931707	0.106875	0.157086
Cu16	Cu	1.431707	0.606875	0.657086
Cu17	Cu	0.931730	0.106854	-0.025297
Cu18	Cu	1.431730	0.606854	0.474703
O19	O	0.925302	0.221713	0.133319
O20	O	1.425302	0.721713	0.633319
C21	C	0.787491	0.112792	0.053899
C22	C	1.287491	0.612792	0.553899
C23	C	0.699923	0.111338	0.047020
C24	C	1.199923	0.611338	0.547020
C25	C	0.658777	0.110663	0.127855
C26	C	1.158777	0.610663	0.627855
C27	C	0.576499	0.109285	0.121395
C28	C	1.076499	0.609285	0.621395
C29	C	0.535367	0.108587	0.034097
C30	C	1.035367	0.608587	0.534097
C31	C	0.576519	0.109260	-0.046744
C32	C	1.076519	0.609260	0.453256
C33	C	0.658796	0.110633	-0.040283
C34	C	1.158796	0.610633	0.459717
C35	C	0.286944	0.104436	0.010382
C36	C	0.786944	0.604436	0.510382
C37	C	0.204661	0.103066	0.003926
C38	C	0.704661	0.603066	0.503926
C39	C	0.204646	0.103089	0.172066
C40	C	0.704646	0.603089	0.672066
C41	C	0.286924	0.104467	0.178520
C42	C	0.786924	0.604467	0.678520
C43	C	0.328069	0.105135	0.097678
C44	C	0.828069	0.605135	0.597678
C45	C	0.451265	0.107180	0.027491
C46	C	0.951265	0.607180	0.527491
C47	C	0.412170	0.106536	0.104286
C48	C	0.912170	0.606536	0.604286
C49	C	0.937639	-0.037363	0.077888
C50	C	1.437639	0.462637	0.577888
C51	C	0.936181	-0.124931	0.084761
C52	C	1.436181	0.375069	0.584761
C53	C	0.935509	-0.166075	0.003925
C54	C	1.435509	0.333925	0.503925
C55	C	0.934134	-0.248354	0.010386
C56	C	1.434134	0.251646	0.510386
C57	C	0.933436	-0.289487	0.097683
C58	C	1.433436	0.210513	0.597683
C59	C	0.934106	-0.248336	0.178525
C60	C	1.434106	0.251664	0.678525
C61	C	0.935476	-0.166058	0.172063
C62	C	1.435476	0.333942	0.672063
C63	C	0.929296	-0.537912	0.121400
C64	C	1.429296	-0.037912	0.621400
C65	C	0.927928	-0.620196	0.127856
C66	C	1.427928	-0.120196	0.627856
C67	C	0.927954	-0.620208	-0.040284
C68	C	1.427954	-0.120208	0.459716
C69	C	0.929329	-0.537929	-0.046738
C70	C	1.429329	-0.037929	0.453262
C71	C	0.929994	-0.496785	0.034103
C72	C	1.429994	0.003215	0.534103
C73	C	0.932033	-0.373589	0.104290
C74	C	1.432033	0.126411	0.604290
C75	C	0.931392	-0.412683	0.027496
C76	C	1.431392	0.087317	0.527496
C77	C	1.075946	0.100937	0.077888
C78	C	1.575946	0.600937	0.577888
C79	C	1.163515	0.102391	0.084762
C80	C	1.663515	0.602391	0.584762
C81	C	0.925798	0.251092	0.053900
C82	C	1.425798	0.751092	0.553900
C83	C	0.927256	0.338660	0.047020
C84	C	1.427256	0.838660	0.547020
N85	N	0.931696	0.106890	0.285366
N86	N	1.431696	0.606890	0.785366
N87	N	0.931748	0.106833	-0.153575
N88	N	1.431748	0.606833	0.346425
C89	C	0.875622	0.162931	0.526063
C90	C	1.375622	0.662931	1.026063
C91	C	0.946884	0.178158	0.592342
C92	C	1.446884	0.678158	1.092342
C93	C	0.931715	0.106871	0.474530
C94	C	1.431715	0.606871	0.974530
C95	C	0.860471	0.091662	0.592345
C96	C	1.360471	0.591662	1.092345
C97	C	0.931727	0.106854	0.657254
C98	C	1.431727	0.606854	1.157254
C99	C	1.003013	0.122133	0.539448
C100	C	1.503013	0.622133	1.039448
C101	C	0.916554	0.035606	0.539445
C102	C	1.416554	0.535606	1.039445
C103	C	0.987867	0.050803	0.605702
C104	C	1.487867	0.550803	1.105702
C105	C	0.931707	0.106882	0.369267
C106	C	1.431707	0.606882	0.869267
C107	C	0.931743	0.106842	0.762515
C108	C	1.431743	0.606842	1.262515
H109	H	0.543024	0.108686	-0.117823
H110	H	1.043024	0.608686	0.382177
H111	H	0.692259	0.111238	0.198942
H112	H	1.192259	0.611238	0.698942
H113	H	0.320408	0.105031	0.249607
H114	H	0.820408	0.605031	0.749607
N115	N	0.532117	0.108554	0.208580
N116	N	1.032117	0.608554	0.708580
H117	H	0.570727	0.108649	0.264913
H118	H	1.070727	0.608649	0.764913
H119	H	0.491904	0.157146	0.205429
H120	H	0.991904	0.657146	0.705429
N121	N	0.963878	0.257977	0.623324
N122	N	1.463878	0.757977	1.123324
H123	H	0.964268	0.257218	0.693443
H124	H	1.464268	0.757218	1.193443
H125	H	1.017272	0.269853	0.603110
H126	H	1.517272	0.769853	1.103110
H127	H	0.927411	-0.653716	-0.106101
H128	H	1.427411	-0.153716	0.393899
H129	H	0.929897	-0.504444	-0.117825
H130	H	1.429897	-0.004444	0.382175
N131	N	0.933364	-0.292698	0.272684
N132	N	1.433364	0.207302	0.772684
H133	H	0.883924	-0.320392	0.274699
H134	H	1.383924	0.179608	0.774699
H135	H	0.981710	-0.333239	0.283467
H136	H	1.481710	0.166761	0.783467
H137	H	0.931954	-0.379189	-0.043582
H138	H	1.431954	0.120811	0.456418
H139	H	0.936012	-0.132558	0.237887
H140	H	1.436012	0.367442	0.737887
N141	N	0.160306	0.102305	-0.090241
N142	N	0.660306	0.602305	0.409759
H143	H	0.132620	0.052859	-0.092242
H144	H	0.632620	0.552859	0.407758
H145	H	0.119760	0.150645	-0.101042
H146	H	0.619760	0.650645	0.398958
H147	H	0.320435	0.104978	-0.055445
H148	H	0.820435	0.604978	0.444555
H149	H	0.445664	0.107101	0.175363
H150	H	0.945664	0.607101	0.675363
H151	H	0.417767	0.106612	-0.043587
H152	H	0.917767	0.606612	0.456413
N153	N	0.812844	0.225770	0.480135
N154	N	1.312844	0.725770	0.980135
H155	H	0.824407	0.279577	0.499268
H156	H	1.324407	0.779577	0.999268
H157	H	0.812968	0.224932	0.410187
H158	H	1.312968	0.724932	0.910187
N159	N	1.082848	0.139255	0.508635
N160	N	1.582848	0.639255	1.008635
H161	H	1.082344	0.139178	0.438569
H162	H	1.582344	0.639178	0.938569
H163	H	1.094388	0.192884	0.528389
H164	H	1.594388	0.692884	1.028389
H165	H	0.931468	-0.407089	0.175368
H166	H	1.431468	0.092911	0.675368
H167	H	1.035360	0.003385	0.640212
H168	H	1.535360	0.503385	1.140212
N169	N	0.703172	0.111363	-0.127474
N170	N	1.203172	0.611363	0.372526
H171	H	0.730859	0.160807	-0.132964
H172	H	1.230859	0.660807	0.367036
H173	H	0.743719	0.063021	-0.124066
H174	H	1.243719	0.563021	0.375934
N175	N	0.899531	-0.044191	0.508437
N176	N	1.399531	0.455809	1.008437
H177	H	0.845668	-0.055626	0.527506
H178	H	1.345668	0.444374	1.027506
H179	H	0.900215	-0.043692	0.438428
H180	H	1.400215	0.456308	0.938428
H181	H	0.929853	-0.504424	0.187228
H182	H	1.429853	-0.004424	0.687228
N183	N	0.936268	-0.121714	-0.090232
N184	N	1.436268	0.378286	0.409768
H185	H	0.935632	-0.160268	-0.140460
H186	H	1.435632	0.339732	0.359540
H187	H	0.887959	-0.081125	-0.100997
H188	H	1.387959	0.418875	0.399003
N189	N	0.160268	0.102367	0.259254
N190	N	0.660268	0.602367	0.759254
H191	H	0.101770	0.102480	0.241826
H192	H	0.601770	0.602480	0.741826
H193	H	0.180356	0.053184	0.300945
H194	H	0.680356	0.553184	0.800945
N195	N	0.933522	-0.292748	-0.076790
N196	N	1.433522	0.207252	0.423210
H197	H	0.934215	-0.254211	-0.133069
H198	H	1.434215	0.245789	0.366931
H199	H	0.981870	-0.333297	-0.073253
H200	H	1.481870	0.166703	0.426747
H201	H	0.800217	0.078806	0.615728
H202	H	1.300217	0.578806	1.115728
H203	H	0.927357	-0.653683	0.198947
H204	H	1.427357	-0.153683	0.698947
