data_functionalizedCrystal
_audit_creation_method	'MofGen! by Chris Wilmer'
_symmetry_space_group_name_H-M	'P1'
_symmetry_Int_Tables_number	1
_symmetry_cell_setting	triclinic
loop_
_symmetry_equiv_pos_as_xyz
  x,y,z
_cell_length_a	19.077105
_cell_length_b	13.897448
_cell_length_c	19.077174
_cell_angle_alpha	92.273651
_cell_angle_beta	85.483752
_cell_angle_gamma	87.714101
loop_
_atom_site_label
_atom_site_type_symbol
_atom_site_fract_x
_atom_site_fract_y
_atom_site_fract_z
Zn1	Zn	1.093747	-0.468678	-0.441851
Zn2	Zn	1.088946	-0.623231	-0.323966
Zn3	Zn	0.971131	-0.455194	-0.319249
Zn4	Zn	0.975840	-0.623167	-0.437084
O5	O	1.032416	-0.542567	-0.380538
O6	O	1.191761	-0.494849	-0.430183
O7	O	1.069338	-0.595324	-0.224691
O8	O	0.987435	-0.322004	-0.335533
O9	O	1.188233	-0.608398	-0.343573
O10	O	1.077521	-0.331911	-0.425609
O11	O	0.982780	-0.471868	-0.221225
O12	O	0.873105	-0.471807	-0.330910
O13	O	0.995460	-0.608291	-0.536366
O14	O	0.876565	-0.595216	-0.417484
O15	O	1.082087	-0.494788	-0.539869
O16	O	1.073903	-0.758200	-0.338951
O17	O	0.990805	-0.758154	-0.422058
C18	C	0.849256	-0.532042	-0.373168
C19	C	0.770900	-0.527563	-0.370032
C20	C	0.735905	-0.589801	-0.413562
C21	C	0.662281	-0.585580	-0.410619
C22	C	0.623654	-0.519126	-0.364142
C23	C	0.658654	-0.456882	-0.320610
C24	C	0.732276	-0.461098	-0.323557
C25	C	0.403271	-0.499610	-0.350505
C26	C	0.329643	-0.495400	-0.347559
C27	C	0.333276	-0.624098	-0.437569
C28	C	0.406899	-0.628313	-0.440509
C29	C	0.441893	-0.566065	-0.396980
N30	N	0.548398	-0.514812	-0.361131
N31	N	0.517147	-0.570375	-0.399996
C32	C	1.032364	-0.793178	-0.380515
C33	C	1.032407	-0.900395	-0.380532
C34	C	1.032483	-1.096697	-0.380579
C35	C	1.032439	-0.987460	-0.380555
C36	C	1.216291	-0.553135	-0.387936
C37	C	1.294648	-0.557638	-0.391089
C38	C	1.039834	-0.553036	-0.564412
C39	C	1.042996	-0.557497	-0.642768
C40	C	1.032488	-0.290981	-0.380576
C41	C	1.032519	-0.183769	-0.380593
C42	C	0.999417	-0.495318	-0.677775
C43	C	1.002384	-0.499517	-0.751398
C44	C	1.048935	-0.565893	-0.790014
C45	C	1.092516	-0.628079	-0.755002
C46	C	1.089544	-0.623883	-0.681380
C47	C	1.062652	-0.585338	-1.010396
C48	C	1.065621	-0.589527	-1.084023
C49	C	0.975489	-0.460966	-1.080415
C50	C	0.972524	-0.456772	-1.006791
C51	C	1.016102	-0.518962	-0.971785
N52	N	1.051971	-0.570185	-0.865270
N53	N	1.013062	-0.514673	-0.896531
C54	C	1.025067	-0.532072	-0.197381
C55	C	1.022043	-0.527347	-0.119030
H56	H	0.633791	-0.636261	-0.446065
O57	O	0.954096	-0.430940	-0.640293
C58	C	0.884557	-0.448997	-0.655468
H59	H	0.881796	-0.527003	-0.675550
H60	H	0.867869	-0.398661	-0.697471
C61	C	0.838263	-0.335536	-0.563513
C62	C	0.834870	-0.431347	-0.588172
H63	H	0.807612	-0.324645	-0.522003
H64	H	0.885112	-0.323368	-0.553290
H65	H	0.824357	-0.293601	-0.598521
H66	H	0.848784	-0.473281	-0.553167
H67	H	0.788021	-0.443522	-0.598387
O68	O	1.110933	-0.653964	-1.121466
C69	C	1.180480	-0.635897	-1.106324
H70	H	1.179803	-0.595867	-1.052931
H71	H	1.205910	-0.590026	-1.148721
C72	C	1.223843	-0.781363	-1.170216
C73	C	1.223011	-0.732205	-1.104635
H74	H	1.250080	-0.840769	-1.169177
H75	H	1.176988	-0.793534	-1.180420
H76	H	1.245033	-0.743127	-1.205540
H77	H	1.201813	-0.770435	-1.069314
H78	H	1.269863	-0.720042	-1.094425
H79	H	0.934616	-0.402725	-0.975355
O80	O	0.959969	-0.439255	-0.785426
C81	C	0.916147	-0.493988	-0.826174
H82	H	0.910888	-0.568444	-0.803798
H83	H	0.940181	-0.501737	-0.882852
C84	C	0.849374	-0.351281	-0.851828
C85	C	0.842910	-0.442727	-0.824343
H86	H	0.804199	-0.319660	-0.850703
H87	H	0.878899	-0.314405	-0.824378
H88	H	0.869405	-0.357751	-0.899058
H89	H	0.822887	-0.436255	-0.777112
H90	H	0.813380	-0.479600	-0.851786
H91	H	0.760768	-0.410413	-0.288114
O92	O	1.137659	-0.692689	-0.792476
C93	C	1.121509	-0.786912	-0.773837
H94	H	1.064372	-0.787393	-0.751335
H95	H	1.157571	-0.811862	-0.732616
C96	C	1.202514	-0.854893	-0.867194
C97	C	1.132336	-0.855485	-0.839562
H98	H	1.209195	-0.897194	-0.907734
H99	H	1.213397	-0.791414	-0.879750
H100	H	1.232558	-0.875682	-0.832836
H101	H	1.102295	-0.834685	-0.873916
H102	H	1.121448	-0.918963	-0.827013
H103	H	0.940009	-0.410335	-1.108924
O104	O	1.131775	-0.684378	-0.647335
C105	C	1.089898	-0.741924	-0.603111
H106	H	1.035270	-0.745952	-0.623067
H107	H	1.085224	-0.708781	-0.547222
C108	C	1.191356	-0.839165	-0.578835
C109	C	1.124263	-0.844119	-0.603349
H110	H	1.212554	-0.902203	-0.578978
H111	H	1.219570	-0.800393	-0.608627
H112	H	1.187452	-0.811541	-0.532263
H113	H	1.128168	-0.871731	-0.649923
H114	H	1.096050	-0.882898	-0.573564
H115	H	0.767350	-0.643918	-0.451406
H116	H	0.438345	-0.682429	-0.478354
H117	H	0.298195	-0.441274	-0.309716
O118	O	0.437146	-0.439104	-0.308152
C119	C	0.387263	-0.379533	-0.266513
H120	H	0.334678	-0.415897	-0.261917
H121	H	0.380490	-0.307362	-0.292114
C122	C	0.477543	-0.318166	-0.198298
C123	C	0.412958	-0.362833	-0.192648
H124	H	0.493394	-0.307861	-0.152736
H125	H	0.511151	-0.358297	-0.226353
H126	H	0.471891	-0.258028	-0.219636
H127	H	0.418614	-0.422975	-0.171319
H128	H	0.379352	-0.322712	-0.164588
O129	O	0.621241	-0.392242	-0.275443
C130	C	0.667919	-0.338229	-0.237643
H131	H	0.721570	-0.339599	-0.268624
H132	H	0.673572	-0.370836	-0.184371
C133	C	0.572900	-0.231650	-0.188409
C134	C	0.638794	-0.233325	-0.226464
H135	H	0.554934	-0.166941	-0.181511
H136	H	0.541452	-0.268041	-0.213874
H137	H	0.577620	-0.258827	-0.144020
H138	H	0.634072	-0.206160	-0.270856
H139	H	0.670241	-0.196927	-0.201007
H140	H	0.304776	-0.674775	-0.473009
H141	H	1.098128	-0.635987	-0.981903
