data_functionalizedCrystal
_audit_creation_method	'MofGen! by Chris Wilmer'
_symmetry_space_group_name_H-M	'P1'
_symmetry_Int_Tables_number	1
_symmetry_cell_setting	triclinic
loop_
_symmetry_equiv_pos_as_xyz
  x,y,z
_cell_length_a	14.519709
_cell_length_b	10.489716
_cell_length_c	13.596369
_cell_angle_alpha	89.998063
_cell_angle_beta	90.000291
_cell_angle_gamma	84.104640
loop_
_atom_site_label
_atom_site_type_symbol
_atom_site_fract_x
_atom_site_fract_y
_atom_site_fract_z
O1	O	1.224769	0.167205	-0.081654
O2	O	1.558102	0.500539	0.251679
O3	O	1.891436	0.833872	0.585012
O4	O	0.956398	0.186896	-0.081683
O5	O	1.289731	0.520229	0.251650
O6	O	1.623065	0.853562	0.584983
O7	O	1.096702	-0.008613	-0.081672
O8	O	1.430035	0.324720	0.251662
O9	O	1.763369	0.658054	0.584995
O10	O	1.084465	0.362714	-0.081666
O11	O	1.417798	0.696047	0.251667
O12	O	1.751132	1.029381	0.585001
O13	O	1.096688	-0.008623	0.081911
O14	O	1.430021	0.324710	0.415245
O15	O	1.763354	0.658043	0.748578
O16	O	0.956384	0.186885	0.081900
O17	O	1.289717	0.520219	0.415233
O18	O	1.623051	0.853552	0.748566
O19	O	1.224755	0.167195	0.081929
O20	O	1.558088	0.500528	0.415262
O21	O	1.891421	0.833862	0.748595
Zn22	Zn	1.090567	0.177039	0.107887
Zn23	Zn	1.423900	0.510372	0.441220
Zn24	Zn	1.757234	0.843705	0.774553
Zn25	Zn	1.090586	0.177052	-0.107641
Zn26	Zn	1.423919	0.510386	0.225692
Zn27	Zn	1.757252	0.843719	0.559026
O28	O	1.084451	0.362704	0.081917
O29	O	1.417784	0.696037	0.415250
O30	O	1.751117	1.029370	0.748584
C31	C	0.922026	0.185973	0.000104
C32	C	1.255360	0.519306	0.333438
C33	C	1.588693	0.852640	0.666771
C34	C	0.819630	0.183223	0.000093
C35	C	1.152963	0.516556	0.333426
C36	C	1.486297	0.849890	0.666760
C37	C	1.095775	-0.056141	0.000117
C38	C	1.429109	0.277192	0.333450
C39	C	1.762442	0.610526	0.666783
C40	C	1.093025	-0.197743	0.000108
C41	C	1.426358	0.135590	0.333441
C42	C	1.759691	0.468923	0.666774
C43	C	0.444680	0.173100	0.000138
C44	C	0.778013	0.506433	0.333471
C45	C	1.111346	0.839766	0.666804
C46	C	0.549003	0.175911	0.000125
C47	C	0.882336	0.509244	0.333458
C48	C	1.215670	0.842577	0.666791
C49	C	0.632152	0.178161	0.000114
C50	C	0.965485	0.511494	0.333448
C51	C	1.298818	0.844828	0.666781
C52	C	0.736481	0.180973	0.000103
C53	C	1.069815	0.514306	0.333437
C54	C	1.403148	0.847640	0.666770
C55	C	1.179063	-0.296314	0.000126
C56	C	1.512397	0.037019	0.333459
C57	C	1.845730	0.370353	0.666792
C58	C	1.133606	-0.373196	-0.080531
C59	C	1.466939	-0.039862	0.252802
C60	C	1.800272	0.293471	0.586135
C61	C	1.133572	-0.373170	0.080748
C62	C	1.466905	-0.039836	0.414082
C63	C	1.800238	0.293497	0.747415
C64	C	1.047603	-0.272760	-0.080616
C65	C	1.380936	0.060574	0.252717
C66	C	1.714269	0.393907	0.586050
C67	C	1.047582	-0.272729	0.080736
C68	C	1.380915	0.060605	0.414069
C69	C	1.714248	0.393938	0.747403
C70	C	1.002060	-0.349560	0.000059
C71	C	1.335394	-0.016227	0.333392
C72	C	1.668727	0.317106	0.666726
C73	C	1.259126	0.168118	0.000139
C74	C	1.592460	0.501451	0.333472
C75	C	1.925793	0.834785	0.666806
C76	C	1.361523	0.170868	0.000144
C77	C	1.694856	0.504201	0.333477
C78	C	2.028189	0.837534	0.666811
C79	C	1.085377	0.410232	0.000127
C80	C	1.418711	0.743565	0.333460
C81	C	1.752044	1.076898	0.666793
C82	C	1.088128	0.551834	0.000129
C83	C	1.421461	0.885167	0.333463
C84	C	1.754795	1.218501	0.666796
N85	N	1.090561	0.177028	0.254978
N86	N	1.423894	0.510362	0.588312
N87	N	1.757228	0.843695	0.921645
N88	N	1.090599	0.177052	-0.254733
N89	N	1.423932	0.510386	0.078600
N90	N	1.757266	0.843719	0.411934
C91	C	1.090584	0.177054	0.656269
C92	C	1.423918	0.510387	0.989603
C93	C	1.757251	0.843720	1.322936
C94	C	1.090575	0.177051	0.544618
C95	C	1.423909	0.510384	0.877951
C96	C	1.757242	0.843718	1.211285
C97	C	1.090573	0.177042	0.455627
C98	C	1.423907	0.510375	0.788961
C99	C	1.757240	0.843709	1.122294
C100	C	1.090563	0.177037	0.343969
C101	C	1.423896	0.510371	0.677302
C102	C	1.757230	0.843704	1.010636
H103	H	1.253902	-0.272417	0.000052
H104	H	1.587236	0.060916	0.333385
H105	H	1.920569	0.394249	0.666719
F106	F	1.000157	-0.215332	0.169861
F107	F	1.333490	0.118001	0.503194
F108	F	1.666823	0.451334	0.836527
H109	H	1.169904	-0.417025	0.148936
H110	H	1.503238	-0.083692	0.482269
H111	H	1.836571	0.249642	0.815603
F112	F	0.904168	-0.380476	-0.000005
F113	F	1.237501	-0.047143	0.333328
F114	F	1.570835	0.286190	0.666661
H115	H	1.169932	-0.417065	-0.148715
H116	H	1.503265	-0.083731	0.184619
H117	H	1.836598	0.249602	0.517952
F118	F	1.000165	-0.215664	-0.169846
F119	F	1.333499	0.117669	0.163487
F120	F	1.666832	0.451003	0.496820
