data_functionalizedCrystal
_audit_creation_method	'MofGen! by Chris Wilmer'
_symmetry_space_group_name_H-M	'P1'
_symmetry_Int_Tables_number	1
_symmetry_cell_setting	triclinic
loop_
_symmetry_equiv_pos_as_xyz
  x,y,z
_cell_length_a	11.792241
_cell_length_b	14.472310
_cell_length_c	11.792254
_cell_angle_alpha	90.001185
_cell_angle_beta	84.196007
_cell_angle_gamma	90.008847
loop_
_atom_site_label
_atom_site_type_symbol
_atom_site_fract_x
_atom_site_fract_y
_atom_site_fract_z
O1	O	1.506931	0.076752	0.155559
O2	O	1.176590	0.076773	0.171592
O3	O	1.349769	0.076755	-0.001594
O4	O	1.333752	0.076770	0.328745
O5	O	1.349725	-0.076927	-0.001584
O6	O	1.176546	-0.076909	0.171602
O7	O	1.506886	-0.076930	0.155569
Cu8	Cu	1.341712	-0.090952	0.163586
Cu9	Cu	1.341765	0.090795	0.163575
O10	O	1.333707	-0.076912	0.328755
C11	C	1.134277	-0.000065	0.170590
C12	C	1.008263	-0.000057	0.167576
C13	C	0.777551	-0.000084	0.162033
C14	C	0.905936	-0.000069	0.165112
N15	N	1.341683	-0.218783	0.163594
C16	C	1.341763	-0.592874	0.163570
C17	C	1.248784	-0.553699	0.255924
C18	C	1.249002	-0.446611	0.256264
C19	C	1.341722	-0.407283	0.163582
C20	C	1.460310	-0.446127	0.190177
C21	C	1.459789	-0.553248	0.190835
C22	C	1.317209	-0.553407	0.044352
C23	C	1.314498	-0.446279	0.045130
C24	C	1.341707	-0.302395	0.163586
C25	C	1.341786	-0.697762	0.163568
C26	C	1.549199	-0.000090	0.156571
C27	C	1.675213	-0.000092	0.159586
C28	C	1.348738	-0.000085	-0.043880
C29	C	1.345718	-0.000084	-0.169893
N30	N	1.341802	0.218626	0.163558
C31	C	1.343264	-0.000081	-0.272229
C32	C	1.340196	-0.000072	-0.400616
C33	C	1.334738	-0.000070	0.371041
C34	C	1.337758	-0.000065	0.497054
H35	H	1.160876	-0.420350	0.240311
H36	H	1.377764	-0.419512	-0.026872
Br37	Br	1.169092	-0.403970	0.011513
H38	H	1.232572	-0.580470	0.018960
Br39	Br	1.430207	-0.595628	-0.070211
H40	H	1.160375	-0.579481	0.240223
H41	H	1.264327	-0.580606	0.343880
Br42	Br	1.275209	-0.403872	0.403709
H43	H	1.481314	-0.578222	0.277801
Br44	Br	1.578517	-0.596445	0.082923
H45	H	1.531183	-0.420650	0.124731
Br46	Br	1.497022	-0.401395	0.333482
