data_functionalizedCrystal
_audit_creation_method	'MofGen! by Chris Wilmer'
_symmetry_space_group_name_H-M	'P1'
_symmetry_Int_Tables_number	1
_symmetry_cell_setting	triclinic
loop_
_symmetry_equiv_pos_as_xyz
  x,y,z
_cell_length_a	16.109318
_cell_length_b	19.188930
_cell_length_c	14.586319
_cell_angle_alpha	89.991095
_cell_angle_beta	90.000075
_cell_angle_gamma	83.306672
loop_
_atom_site_label
_atom_site_type_symbol
_atom_site_fract_x
_atom_site_fract_y
_atom_site_fract_z
O1	O	1.102824	0.089802	-0.076175
O2	O	1.436158	0.423135	0.257159
O3	O	1.769491	0.756468	0.590492
O4	O	0.860727	0.100957	-0.076194
O5	O	1.194061	0.434291	0.257139
O6	O	1.527394	0.767624	0.590472
O7	O	0.988762	-0.006259	-0.076166
O8	O	1.322095	0.327074	0.257167
O9	O	1.655429	0.660407	0.590501
O10	O	0.974789	0.197018	-0.076203
O11	O	1.308123	0.530352	0.257130
O12	O	1.641456	0.863685	0.590464
O13	O	0.988753	-0.006261	0.076315
O14	O	1.322087	0.327072	0.409648
O15	O	1.655420	0.660406	0.742981
O16	O	0.860718	0.100956	0.076286
O17	O	1.194052	0.434289	0.409620
O18	O	1.527385	0.767622	0.742953
O19	O	1.102815	0.089800	0.076306
O20	O	1.436149	0.423133	0.409640
O21	O	1.769482	0.756467	0.742973
Cu22	Cu	0.981766	0.095378	0.090219
Cu23	Cu	1.315099	0.428711	0.423552
Cu24	Cu	1.648433	0.762044	0.756886
Cu25	Cu	0.981777	0.095380	-0.090107
Cu26	Cu	1.315110	0.428713	0.243226
Cu27	Cu	1.648443	0.762046	0.576559
O28	O	0.974780	0.197017	0.076278
O29	O	1.308114	0.530350	0.409611
O30	O	1.641447	0.863684	0.742944
C31	C	0.829750	0.100503	0.000044
C32	C	1.163083	0.433836	0.333377
C33	C	1.496416	0.767169	0.666710
C34	C	0.737460	0.099141	0.000037
C35	C	1.070793	0.432475	0.333370
C36	C	1.404126	0.765808	0.666703
C37	C	0.438405	0.094746	-0.083064
C38	C	0.771739	0.428079	0.250270
C39	C	1.105072	0.761413	0.583603
C40	C	0.525122	0.096020	-0.083069
C41	C	0.858456	0.429354	0.250264
C42	C	1.191789	0.762687	0.583597
C43	C	0.525132	0.096009	0.083174
C44	C	0.858465	0.429342	0.416507
C45	C	1.191798	0.762676	0.749840
C46	C	0.438417	0.094730	0.083178
C47	C	0.771750	0.428063	0.416512
C48	C	1.105084	0.761396	0.749845
C49	C	0.395055	0.094102	0.000057
C50	C	0.728389	0.427435	0.333391
C51	C	1.061722	0.760769	0.666724
C52	C	0.568487	0.096655	0.000046
C53	C	0.901821	0.429989	0.333380
C54	C	1.235154	0.763322	0.666713
C55	C	0.662510	0.098037	0.000041
C56	C	0.995843	0.431370	0.333374
C57	C	1.329176	0.764704	0.666707
C58	C	0.301027	0.092719	0.000063
C59	C	0.634361	0.426052	0.333396
C60	C	0.967694	0.759385	0.666729
C61	C	0.988305	-0.032272	0.000077
C62	C	1.321639	0.301061	0.333410
C63	C	1.654972	0.634394	0.666744
C64	C	0.986947	-0.109780	0.000085
C65	C	1.320280	0.223553	0.333418
C66	C	1.653614	0.556887	0.666751
C67	C	1.062074	-0.154525	0.000095
C68	C	1.395407	0.178809	0.333429
C69	C	1.728740	0.512142	0.666762
C70	C	1.060797	-0.227351	0.000080
C71	C	1.394131	0.105982	0.333414
C72	C	1.727464	0.439315	0.666747
C73	C	0.984390	-0.255431	0.000074
C74	C	1.317724	0.077903	0.333407
C75	C	1.651057	0.411236	0.666740
C76	C	0.909254	-0.210676	0.000058
C77	C	1.242587	0.122657	0.333391
C78	C	1.575921	0.455990	0.666724
C79	C	0.910532	-0.137851	0.000063
C80	C	1.243865	0.195482	0.333397
C81	C	1.577199	0.528816	0.666730
N82	N	0.925983	-0.363576	0.051961
N83	N	1.259317	-0.030242	0.385294
N84	N	1.592650	0.303091	0.718628
N85	N	0.924774	-0.432757	0.051957
N86	N	1.258108	-0.099424	0.385291
N87	N	1.591441	0.233910	0.718624
C88	C	0.980535	-0.474848	0.000055
C89	C	1.313868	-0.141515	0.333388
C90	C	1.647201	0.191818	0.666721
N91	N	1.037562	-0.445146	-0.051833
N92	N	1.370896	-0.111813	0.281500
N93	N	1.704229	0.221521	0.614833
N94	N	1.038774	-0.375959	-0.051826
N95	N	1.372107	-0.042625	0.281508
N96	N	1.705441	0.290708	0.614841
C97	C	0.982996	-0.334396	0.000067
C98	C	1.316329	-0.001063	0.333400
C99	C	1.649663	0.332270	0.666734
C100	C	1.054283	-0.598561	0.000048
C101	C	1.387616	-0.265227	0.333381
C102	C	1.720949	0.068106	0.666715
C103	C	1.053003	-0.671388	0.000027
C104	C	1.386337	-0.338055	0.333361
C105	C	1.719670	-0.004722	0.666694
C106	C	0.901458	-0.654712	0.000014
C107	C	1.234791	-0.321378	0.333347
C108	C	1.568124	0.011955	0.666681
C109	C	0.902739	-0.581885	0.000025
C110	C	1.236072	-0.248552	0.333359
C111	C	1.569406	0.084781	0.666692
C112	C	0.979154	-0.553815	0.000047
C113	C	1.312487	-0.220481	0.333380
C114	C	1.645821	0.112852	0.666713
C115	C	1.133793	0.090255	0.000066
C116	C	1.467126	0.423588	0.333399
C117	C	1.800460	0.756921	0.666733
C118	C	1.226083	0.091616	0.000067
C119	C	1.559416	0.424949	0.333400
C120	C	1.892750	0.758283	0.666734
C121	C	0.975237	0.223030	0.000033
C122	C	1.308571	0.556363	0.333366
C123	C	1.641904	0.889696	0.666699
C124	C	0.976596	0.300537	0.000019
C125	C	1.309929	0.633871	0.333352
C126	C	1.643262	0.967204	0.666686
N127	N	0.981765	0.095376	0.217051
N128	N	1.315098	0.428709	0.550384
N129	N	1.648431	0.762043	0.883717
N130	N	0.981784	0.095376	-0.216939
N131	N	1.315118	0.428709	0.116394
N132	N	1.648451	0.762042	0.449728
C133	C	1.038477	0.047916	0.452070
C134	C	1.371811	0.381250	0.785403
C135	C	1.705144	0.714583	1.118736
C136	C	1.038480	0.047915	0.548051
C137	C	1.371813	0.381248	0.881384
C138	C	1.705146	0.714581	1.214718
C139	C	0.925066	0.142838	0.548035
C140	C	1.258399	0.476171	0.881369
C141	C	1.591733	0.809504	1.214702
C142	C	0.925060	0.142836	0.452056
C143	C	1.258394	0.476169	0.785389
C144	C	1.591727	0.809502	1.118722
C145	C	0.981771	0.095376	0.404075
C146	C	1.315104	0.428709	0.737409
C147	C	1.648437	0.762042	1.070742
C148	C	0.981779	0.095376	0.596036
C149	C	1.315112	0.428709	0.929370
C150	C	1.648445	0.762043	1.262703
C151	C	0.981781	0.095375	0.700103
C152	C	1.315114	0.428708	1.033437
C153	C	1.648448	0.762041	1.366770
C154	C	0.981768	0.095376	0.300002
C155	C	1.315101	0.428709	0.633335
C156	C	1.648434	0.762043	0.966668
H157	H	0.403121	0.094205	0.150869
H158	H	0.736454	0.427538	0.484203
H159	H	1.069787	0.760871	0.817536
O160	O	0.391640	0.094064	-0.172715
O161	O	0.724974	0.427397	0.160619
O162	O	1.058307	0.760731	0.493952
H163	H	0.324057	0.093073	-0.158751
H164	H	0.657391	0.426407	0.174583
H165	H	0.990724	0.759740	0.507916
H166	H	0.560447	0.096522	0.150848
H167	H	0.893780	0.429855	0.484181
H168	H	1.227113	0.763188	0.817515
O169	O	0.863887	0.194027	0.400292
O170	O	1.197220	0.527361	0.733626
O171	O	1.530554	0.860694	1.066959
H172	H	0.823583	0.164618	0.356586
H173	H	1.156917	0.497951	0.689920
H174	H	1.490250	0.831284	1.023253
H175	H	1.124296	-0.131674	0.000109
H176	H	1.457630	0.201659	0.333443
H177	H	1.790963	0.534992	0.666776
O178	O	1.099620	-0.003292	0.400323
O179	O	1.432953	0.330042	0.733656
O180	O	1.766286	0.663375	1.066989
H181	H	1.090090	0.004677	0.325518
H182	H	1.423423	0.338010	0.658851
H183	H	1.756757	0.671344	0.992185
H184	H	0.847043	-0.233543	0.000050
H185	H	1.180376	0.099790	0.333383
H186	H	1.513709	0.433124	0.666717
O187	O	0.571884	0.096714	-0.172719
O188	O	0.905217	0.430048	0.160615
O189	O	1.238551	0.763381	0.493948
H190	H	0.547665	0.144035	-0.212576
H191	H	0.880998	0.477368	0.120757
H192	H	1.214332	0.810701	0.454091
O193	O	1.141832	-0.275622	0.000108
O194	O	1.475165	0.057711	0.333442
O195	O	1.808499	0.391045	0.666775
H196	H	1.144892	-0.309192	-0.062041
H197	H	1.478225	0.024141	0.271292
H198	H	1.811558	0.357474	0.604626
O199	O	0.863916	0.194033	0.599791
O200	O	1.197249	0.527367	0.933125
O201	O	1.530583	0.860700	1.266458
H202	H	0.824480	0.227032	0.550290
H203	H	1.157814	0.560366	0.883623
H204	H	1.491147	0.893699	1.216957
O205	O	0.829500	-0.089583	0.000068
O206	O	1.162833	0.243750	0.333401
O207	O	1.496167	0.577083	0.666735
H208	H	0.776152	-0.121340	0.000067
H209	H	1.109486	0.211993	0.333401
H210	H	1.442819	0.545327	0.666734
H211	H	1.116504	-0.575704	0.000061
H212	H	1.449838	-0.242371	0.333394
H213	H	1.783171	0.090962	0.666728
H214	H	1.114183	-0.707819	0.000031
H215	H	1.447517	-0.374486	0.333364
H216	H	1.780850	-0.041153	0.666698
H217	H	0.839246	-0.677573	0.000004
H218	H	1.172579	-0.344239	0.333337
H219	H	1.505912	-0.010906	0.666670
O220	O	0.821710	-0.533618	0.000037
O221	O	1.155043	-0.200284	0.333370
O222	O	1.488376	0.133049	0.666703
H223	H	0.768363	-0.565375	0.000040
H224	H	1.101696	-0.232042	0.333374
H225	H	1.435029	0.101291	0.666707
H226	H	1.084654	0.009268	0.587125
H227	H	1.417988	0.342601	0.920459
H228	H	1.751321	0.675935	1.253792
