data_functionalizedCrystal
_audit_creation_method	'MofGen! by Chris Wilmer'
_symmetry_space_group_name_H-M	'P1'
_symmetry_Int_Tables_number	1
_symmetry_cell_setting	triclinic
loop_
_symmetry_equiv_pos_as_xyz
  x,y,z
_cell_length_a	11.792254
_cell_length_b	14.044190
_cell_length_c	10.268362
_cell_angle_alpha	89.989939
_cell_angle_beta	89.995475
_cell_angle_gamma	88.695187
loop_
_atom_site_label
_atom_site_type_symbol
_atom_site_fract_x
_atom_site_fract_y
_atom_site_fract_z
O1	O	1.519112	0.130045	-0.108315
O2	O	1.852446	0.463378	0.225018
O3	O	2.185779	0.796712	0.558352
O4	O	1.190030	0.143429	-0.108320
O5	O	1.523363	0.476762	0.225014
O6	O	1.856697	0.810096	0.558347
O7	O	1.349627	-0.001273	-0.108292
O8	O	1.682961	0.332060	0.225042
O9	O	2.016294	0.665393	0.558375
O10	O	1.359515	0.274747	-0.108343
O11	O	1.692848	0.608081	0.224990
O12	O	2.026182	0.941414	0.558324
O13	O	1.349612	-0.001279	0.108309
O14	O	1.682945	0.332054	0.441642
O15	O	2.016278	0.665387	0.774976
O16	O	1.190014	0.143423	0.108281
O17	O	1.523348	0.476756	0.441614
O18	O	1.856681	0.810090	0.774948
O19	O	1.519097	0.130039	0.108286
O20	O	1.852430	0.463372	0.441619
O21	O	2.185763	0.796706	0.774952
Cu22	Cu	1.354554	0.136730	0.128061
Cu23	Cu	1.687887	0.470064	0.461394
Cu24	Cu	2.021221	0.803397	0.794727
Cu25	Cu	1.354573	0.136738	-0.128095
Cu26	Cu	1.687906	0.470071	0.205239
Cu27	Cu	2.021239	0.803404	0.538572
O28	O	1.359499	0.274741	0.108258
O29	O	1.692832	0.608075	0.441591
O30	O	2.026166	0.941408	0.774924
C31	C	1.147652	0.142583	-0.000019
C32	C	1.480986	0.475916	0.333314
C33	C	1.814319	0.809250	0.666647
C34	C	1.021402	0.140059	-0.000020
C35	C	1.354736	0.473393	0.333313
C36	C	1.688069	0.806726	0.666647
C37	C	0.918873	0.138009	-0.000025
C38	C	1.252206	0.471342	0.333308
C39	C	1.585540	0.804676	0.666641
C40	C	0.790246	0.135445	-0.000026
C41	C	1.123579	0.468778	0.333308
C42	C	1.456912	0.802112	0.666641
C43	C	1.345294	-0.036613	0.000012
C44	C	1.678627	0.296720	0.333346
C45	C	2.011961	0.630053	0.666679
C46	C	1.332392	-0.141906	0.000023
C47	C	1.665725	0.191427	0.333357
C48	C	1.999059	0.524761	0.666690
C49	C	1.400309	-0.391841	-0.000027
C50	C	1.733642	-0.058508	0.333307
C51	C	2.066976	0.274826	0.666640
C52	C	1.308822	-0.334686	-0.000019
C53	C	1.642156	-0.001352	0.333314
C54	C	1.975489	0.331981	0.666648
C55	C	1.321940	-0.227413	0.000005
C56	C	1.655273	0.105920	0.333338
C57	C	1.988606	0.439253	0.666671
C58	C	1.387194	-0.499123	-0.000050
C59	C	1.720527	-0.165790	0.333283
C60	C	2.053860	0.167543	0.666616
C61	C	1.561474	0.130885	-0.000017
C62	C	1.894808	0.464218	0.333316
C63	C	2.228141	0.797552	0.666649
C64	C	1.687724	0.133409	-0.000025
C65	C	2.021058	0.466742	0.333308
C66	C	2.354391	0.800075	0.666641
C67	C	1.363832	0.310081	-0.000049
C68	C	1.697166	0.643415	0.333284
C69	C	2.030499	0.976748	0.666617
C70	C	1.376735	0.415374	-0.000069
C71	C	1.710068	0.748707	0.333264
C72	C	2.043401	1.082041	0.666598
N73	N	1.354549	0.136725	0.308227
N74	N	1.687882	0.470058	0.641560
N75	N	2.021216	0.803391	0.974893
N76	N	1.354586	0.136736	-0.308261
N77	N	1.687919	0.470069	0.025073
N78	N	2.021252	0.803402	0.358406
C79	C	1.354567	0.136736	0.573897
C80	C	1.687900	0.470069	0.907230
C81	C	2.021233	0.803402	1.240564
C82	C	1.354554	0.136732	0.426059
C83	C	1.687887	0.470066	0.759393
C84	C	2.021220	0.803399	1.092726
H85	H	1.220647	-0.366317	-0.000028
H86	H	1.553980	-0.032984	0.333306
H87	H	1.887313	0.300349	0.666639
H88	H	1.488478	-0.360211	-0.000012
H89	H	1.821811	-0.026878	0.333321
H90	H	2.155144	0.306456	0.666655
