data_functionalizedCrystal
_audit_creation_method	'MofGen! by Chris Wilmer'
_symmetry_space_group_name_H-M	'P1'
_symmetry_Int_Tables_number	1
_symmetry_cell_setting	triclinic
loop_
_symmetry_equiv_pos_as_xyz
  x,y,z
_cell_length_a	18.101398
_cell_length_b	18.050590
_cell_length_c	18.101389
_cell_angle_alpha	90.019149
_cell_angle_beta	90.009745
_cell_angle_gamma	90.014109
loop_
_atom_site_label
_atom_site_type_symbol
_atom_site_fract_x
_atom_site_fract_y
_atom_site_fract_z
Zn1	Zn	1.132186	-0.295825	0.418547
Zn2	Zn	1.132109	-0.420000	0.294704
Zn3	Zn	1.008344	-0.295818	0.294740
Zn4	Zn	1.008322	-0.419968	0.418524
O5	O	1.070240	-0.357903	0.356628
O6	O	1.235808	-0.312313	0.402113
O7	O	1.115668	-0.403537	0.191076
O8	O	1.024814	-0.191895	0.311187
O9	O	1.235752	-0.403544	0.311126
O10	O	1.115799	-0.191900	0.402148
O11	O	1.024739	-0.312301	0.191102
O12	O	0.904709	-0.312271	0.311165
O13	O	1.024776	-0.403491	0.522160
O14	O	0.904692	-0.403484	0.402109
O15	O	1.115778	-0.312283	0.522177
O16	O	1.115647	-0.523920	0.311104
O17	O	1.024701	-0.523897	0.402074
C18	C	0.877830	-0.357874	0.356639
C19	C	0.795516	-0.357879	0.356661
C20	C	0.496425	-0.357923	0.356630
C21	C	0.527764	-0.415589	0.413567
C22	C	0.613383	-0.415408	0.413801
C23	C	0.644807	-0.357902	0.356645
C24	C	0.613736	-0.279684	0.377974
C25	C	0.528091	-0.280030	0.378379
C26	C	0.527976	-0.377785	0.278227
C27	C	0.613627	-0.379502	0.278646
C28	C	0.728667	-0.357885	0.356653
C29	C	0.412565	-0.357934	0.356624
C30	C	1.070183	-0.550855	0.356599
C31	C	1.070227	-0.633401	0.356611
C32	C	1.119786	-0.832837	0.307211
C33	C	1.137875	-0.882182	0.374798
C34	C	1.070269	-0.784531	0.356641
C35	C	1.052255	-0.882268	0.289084
C36	C	1.070311	-0.930516	0.356663
C37	C	1.088393	-0.832789	0.424263
C38	C	1.002741	-0.832871	0.338504
C39	C	1.020805	-0.882193	0.406138
C40	C	1.070246	-0.700433	0.356627
C41	C	1.070333	-1.014613	0.356685
C42	C	1.263402	-0.357933	0.356619
C43	C	1.345716	-0.357946	0.356614
C44	C	1.070283	-0.357884	0.549790
C45	C	1.070301	-0.357876	0.632105
C46	C	1.070318	-0.164197	0.356674
C47	C	1.070350	-0.081652	0.356694
C48	C	1.070240	-0.357868	0.164218
C49	C	1.070365	-0.357667	0.081904
C50	C	1.070344	-0.357737	0.931196
C51	C	1.012891	-0.414940	0.899860
C52	C	1.013047	-0.415205	0.814242
C53	C	1.070322	-0.357806	0.782813
C54	C	1.148352	-0.379056	0.813899
C55	C	1.148032	-0.379431	0.899544
C56	C	1.050446	-0.279157	0.899626
C57	C	1.048710	-0.279611	0.813975
C58	C	1.070315	-0.357844	0.698954
C59	C	1.070357	-0.357701	1.015055
H60	H	0.507359	-0.235526	0.338810
H61	H	0.634090	-0.235554	0.337798
H62	H	1.165510	-0.435888	0.792451
N63	N	1.203491	-0.328427	0.788361
N64	N	1.185852	-0.275995	0.746865
H65	H	1.224792	-0.240237	0.728827
N66	N	0.640663	-0.258169	0.449093
N67	N	0.682728	-0.300307	0.484193
H68	H	0.701746	-0.285117	0.534423
H69	H	1.195000	-0.903844	0.390152
N70	N	1.107613	-0.805634	0.495964
N71	N	1.110722	-0.737429	0.507518
H72	H	1.124300	-0.718248	0.558154
H73	H	1.037001	-0.904001	0.231943
N74	N	0.968298	-0.909203	0.458653
N75	N	0.975033	-0.893182	0.525502
H76	H	0.937953	-0.912258	0.562594
H77	H	0.634390	-0.473412	0.400433
N78	N	0.931099	-0.805681	0.319211
N79	N	0.903563	-0.821522	0.257875
H80	H	0.852965	-0.802319	0.244241
N81	N	0.500860	-0.448105	0.253910
N82	N	0.457944	-0.484438	0.294075
H83	H	0.438791	-0.534103	0.276909
N84	N	1.102934	-0.225681	0.925036
N85	N	1.140911	-0.190126	0.879559
H86	H	1.177983	-0.152363	0.897507
H87	H	0.955185	-0.401907	0.793224
N88	N	0.503054	-0.258907	0.450288
N89	N	0.520737	-0.296658	0.505399
H90	H	0.503059	-0.281742	0.556188
H91	H	0.991287	-0.263587	0.793658
N92	N	0.940086	-0.398419	0.925701
N93	N	0.929689	-0.344296	0.967517
H94	H	0.878269	-0.332627	0.985773
H95	H	0.633943	-0.437059	0.262560
H96	H	1.026185	-0.473451	0.793755
H97	H	1.025899	-0.472830	0.921381
H98	H	1.164899	-0.436874	0.919522
H99	H	0.507162	-0.473782	0.400348
N100	N	0.500776	-0.399307	0.486019
N101	N	0.458560	-0.345418	0.495903
H102	H	0.439498	-0.333916	0.547071
H103	H	1.192291	-0.339576	0.920273
H104	H	0.994534	-0.259798	0.921226
N105	N	1.097366	-0.223308	0.787121
N106	N	1.102622	-0.211749	0.719243
H107	H	1.136991	-0.171989	0.700272
N108	N	0.639094	-0.398924	0.486679
N109	N	0.593785	-0.387511	0.537525
H110	H	0.611942	-0.375867	0.588999
H111	H	0.635018	-0.340549	0.233945
H112	H	0.507709	-0.335782	0.235804
N113	N	1.172338	-0.805655	0.254827
N114	N	1.239214	-0.821465	0.261687
H115	H	1.276331	-0.802268	0.224694
