data_functionalizedCrystal
_audit_creation_method	'MofGen! by Chris Wilmer'
_symmetry_space_group_name_H-M	'P1'
_symmetry_Int_Tables_number	1
_symmetry_cell_setting	triclinic
loop_
_symmetry_equiv_pos_as_xyz
  x,y,z
_cell_length_a	12.759401
_cell_length_b	14.908520
_cell_length_c	12.759393
_cell_angle_alpha	93.263606
_cell_angle_beta	89.979062
_cell_angle_gamma	93.322137
loop_
_atom_site_label
_atom_site_type_symbol
_atom_site_fract_x
_atom_site_fract_y
_atom_site_fract_z
Zn1	Zn	1.582080	-0.359078	-0.618119
Zn2	Zn	1.571808	-0.509962	-0.452566
Zn3	Zn	1.406376	-0.359126	-0.442458
Zn4	Zn	1.396212	-0.509899	-0.628199
O5	O	1.489119	-0.434516	-0.535335
O6	O	1.727738	-0.379099	-0.596170
O7	O	1.549818	-0.490000	-0.304207
O8	O	1.438236	-0.232875	-0.457311
O9	O	1.720192	-0.489953	-0.474539
O10	O	1.567325	-0.232840	-0.586369
O11	O	1.428275	-0.379181	-0.296781
O12	O	1.258007	-0.379120	-0.467085
O13	O	1.420913	-0.489846	-0.773880
O14	O	1.250540	-0.489892	-0.603548
O15	O	1.557470	-0.379038	-0.766474
O16	O	1.539963	-0.636198	-0.484313
O17	O	1.410953	-0.636152	-0.613349
C18	C	1.216153	-0.434505	-0.535314
C19	C	1.099375	-0.434522	-0.535331
C20	C	1.040646	-0.492289	-0.606288
C21	C	0.930922	-0.492292	-0.606309
C22	C	0.938665	-0.376759	-0.464407
C23	C	1.048387	-0.376752	-0.464392
C24	C	1.473269	-0.668908	-0.551045
C25	C	1.466584	-0.769183	-0.557800
C26	C	1.588499	-0.957595	-0.436237
C27	C	1.582222	-1.051812	-0.442581
C28	C	1.447758	-1.051834	-0.576837
C29	C	1.454036	-0.957617	-0.570493
C30	C	1.524407	-0.910501	-0.500189
C31	C	1.530679	-0.816283	-0.493841
C32	C	1.396221	-0.816307	-0.628101
C33	C	1.389944	-0.910523	-0.634445
C34	C	1.763152	-0.434528	-0.535358
C35	C	1.879928	-0.434533	-0.535367
C36	C	1.489204	-0.434429	-0.809363
C37	C	1.489240	-0.434392	-0.926137
C38	C	1.505060	-0.199208	-0.519588
C39	C	1.511853	-0.098934	-0.512877
C40	C	1.560350	-0.376686	-0.977144
C41	C	1.560371	-0.376647	-1.086866
C42	C	1.418166	-0.492029	-1.094564
C43	C	1.418142	-0.492063	-0.984844
C44	C	1.489100	-0.434537	-0.262369
C45	C	1.489285	-0.434320	-0.145579
H46	H	0.897137	-0.329727	-0.406650
C47	C	1.312537	-0.962357	-0.711773
C48	C	1.193963	-0.949504	-0.702215
C49	C	1.116552	-1.001337	-0.779541
C50	C	1.157717	-1.066022	-0.866425
C51	C	1.276297	-1.078878	-0.875986
C52	C	1.353708	-1.027045	-0.798660
H53	H	1.163485	-0.901618	-0.637895
H54	H	1.028771	-0.991820	-0.772462
H55	H	1.100413	-1.104392	-0.923666
H56	H	1.306775	-1.126764	-0.940307
H57	H	1.441489	-1.036562	-0.805739
H58	H	1.082157	-0.539327	-0.664053
H59	H	1.096206	-0.329706	-0.406610
H60	H	1.344030	-0.777952	-0.680173
H61	H	1.618240	-0.329724	-0.929348
H62	H	1.360283	-0.538984	-1.142377
H63	H	1.587976	-0.777922	-0.436593
H64	H	1.634414	-1.090152	-0.390506
C65	C	1.665899	-0.905760	-0.358904
C66	C	1.656520	-0.918791	-0.240337
C67	C	1.733920	-0.866956	-0.163003
C68	C	1.820698	-0.802089	-0.204235
C69	C	1.830080	-0.789054	-0.322808
C70	C	1.752680	-0.840889	-0.400142
H71	H	1.592278	-0.966812	-0.209809
H72	H	1.726974	-0.876605	-0.075227
H73	H	1.877994	-0.763717	-0.146987
H74	H	1.894322	-0.741033	-0.353336
H75	H	1.759626	-0.831240	-0.487918
C76	C	0.866320	-0.555839	-0.684360
C77	C	0.922410	-0.619379	-0.762388
C78	C	0.857808	-0.682927	-0.840444
C79	C	0.737118	-0.682936	-0.840473
C80	C	0.681022	-0.619393	-0.762443
C81	C	0.745623	-0.555845	-0.684386
H82	H	1.011758	-0.619375	-0.762369
H83	H	0.899335	-0.729966	-0.898208
H84	H	0.689296	-0.729978	-0.898256
H85	H	0.591674	-0.619397	-0.762462
H86	H	0.704097	-0.508807	-0.626623
H87	H	1.390472	-1.090211	-0.634081
H88	H	1.618274	-0.329655	-1.128391
H89	H	1.360228	-0.539054	-0.943314
