data_functionalizedCrystal
_audit_creation_method	'MofGen! by Chris Wilmer'
_symmetry_space_group_name_H-M	'P1'
_symmetry_Int_Tables_number	1
_symmetry_cell_setting	triclinic
loop_
_symmetry_equiv_pos_as_xyz
  x,y,z
_cell_length_a	8.634740
_cell_length_b	14.586319
_cell_length_c	16.109301
_cell_angle_alpha	89.998390
_cell_angle_beta	92.015894
_cell_angle_gamma	89.992967
loop_
_atom_site_label
_atom_site_type_symbol
_atom_site_fract_x
_atom_site_fract_y
_atom_site_fract_z
O1	O	-2.045929	0.076272	-0.271053
O2	O	-1.596988	0.076268	-0.248323
O3	O	-1.833791	0.076261	-0.139647
O4	O	-1.809126	0.076280	-0.379729
O5	O	-1.833762	-0.076220	-0.139652
O6	O	-1.596959	-0.076213	-0.248329
O7	O	-2.045900	-0.076208	-0.271058
Cu8	Cu	-1.821427	-0.090133	-0.259694
Cu9	Cu	-1.821461	0.090193	-0.259687
O10	O	-1.809097	-0.076201	-0.379734
C11	C	-1.539526	0.000027	-0.243177
C12	C	-1.368351	0.000025	-0.227824
N13	N	-1.821414	-0.216965	-0.259698
C14	C	-1.103362	0.000032	-0.276204
C15	C	-1.274538	0.000030	-0.291557
C16	C	-1.914931	-0.451966	-0.317632
C17	C	-1.914947	-0.547948	-0.317628
C18	C	-1.727966	-0.547967	-0.201738
C19	C	-1.727959	-0.451988	-0.201739
C20	C	-1.821439	-0.403990	-0.259691
C21	C	-1.821462	-0.595950	-0.259685
C22	C	-1.821478	-0.700018	-0.259680
C23	C	-1.821425	-0.299916	-0.259695
C24	C	-1.832778	0.000020	-0.108594
C25	C	-1.829782	0.000019	-0.016059
N26	N	-1.821486	0.217025	-0.259677
C27	C	-1.810110	0.000042	-0.410787
C28	C	-1.813106	0.000049	-0.503323
C29	C	-1.963331	0.000035	0.195496
C30	C	-1.960505	0.000042	0.282443
C31	C	-1.679546	0.000036	0.285117
C32	C	-1.682374	0.000035	0.198171
C33	C	-1.824272	0.000030	0.153363
C34	C	-1.818617	0.000038	0.327256
C35	C	-1.815551	0.000046	0.421528
C36	C	-1.827338	0.000023	0.059085
H37	H	-1.317714	0.000043	-0.161515
H38	H	-1.991049	-0.412889	-0.364820
C39	C	-1.404362	0.000019	0.209540
C40	C	-1.529507	0.000026	0.151852
H41	H	-1.309996	0.000011	0.180942
H42	H	-1.409105	0.053190	0.243393
H43	H	-1.409104	-0.053158	0.243400
H44	H	-1.524772	0.053207	0.117996
H45	H	-1.524762	-0.053149	0.117984
H46	H	-1.325181	0.000030	-0.357870
H47	H	-1.991080	-0.587006	-0.364808
H48	H	-1.651825	-0.412924	-0.154552
H49	H	-1.651856	-0.587059	-0.154556
C50	C	-2.203671	0.078437	0.166442
C51	C	-2.119299	0.000044	0.146239
H52	H	-2.299956	0.078446	0.136029
H53	H	-2.221886	0.078430	0.224246
H54	H	-2.146397	0.131599	0.152736
H55	H	-2.176568	-0.053119	0.159950
H56	H	-2.101089	0.000042	0.088422
H57	H	-2.073742	0.000048	0.316744
C58	C	-1.550458	0.000023	0.419586
C59	C	-1.523578	0.000028	0.334373
H60	H	-1.454165	0.000010	0.449992
H61	H	-1.607704	0.053196	0.433282
H62	H	-1.607713	-0.053151	0.433277
H63	H	-1.466332	0.053206	0.320681
H64	H	-1.466307	-0.053150	0.320672
