data_functionalizedCrystal
_audit_creation_method	'MofGen! by Chris Wilmer'
_symmetry_space_group_name_H-M	'P1'
_symmetry_Int_Tables_number	1
_symmetry_cell_setting	triclinic
loop_
_symmetry_equiv_pos_as_xyz
  x,y,z
_cell_length_a	13.339070
_cell_length_b	10.723024
_cell_length_c	9.198806
_cell_angle_alpha	89.996604
_cell_angle_beta	90.000879
_cell_angle_gamma	79.951418
loop_
_atom_site_label
_atom_site_type_symbol
_atom_site_fract_x
_atom_site_fract_y
_atom_site_fract_z
O1	O	0.142226	-1.704931	0.120877
O2	O	0.155839	-1.346348	0.120882
O3	O	0.001483	-1.484486	0.120876
O4	O	0.296582	-1.566793	0.120883
O5	O	0.001482	-1.484471	-0.120909
O6	O	0.155838	-1.346334	-0.120903
O7	O	0.142224	-1.704916	-0.120908
Cu8	Cu	0.149031	-1.525623	-0.142982
Cu9	Cu	0.149033	-1.525641	0.142957
O10	O	0.296580	-1.566779	-0.120902
C11	C	0.154848	-1.299509	-0.000010
C12	C	0.151884	-1.159959	-0.000008
C13	C	-0.036303	-1.470575	-0.000015
C14	C	-0.148892	-1.429133	-0.000008
C15	C	0.143216	-1.751755	-0.000013
C16	C	0.146180	-1.891305	-0.000005
C17	C	-0.511449	-1.751368	-0.000013
C18	C	-0.405666	-1.790309	-0.000027
C19	C	-0.341468	-1.700018	-0.000022
C20	C	-0.383062	-1.570779	-0.000003
C21	C	-0.488855	-1.531834	-0.000001
C22	C	-0.318874	-1.480485	-0.000010
C23	C	-0.360469	-1.351246	0.000009
C24	C	-0.466252	-1.312308	0.000013
C25	C	-0.530450	-1.402598	0.000007
C26	C	-0.213081	-1.519430	-0.000012
C27	C	-0.190487	-1.299897	-0.000000
C28	C	-0.296270	-1.260956	0.000014
C29	C	0.334367	-1.580689	-0.000008
C30	C	0.446956	-1.622132	-0.000005
N31	N	0.149030	-1.525620	-0.344096
C32	C	0.238253	-1.113970	-0.000005
C33	C	0.235192	-0.969739	-0.000003
C34	C	0.084079	-1.583770	-0.583700
C35	C	0.084080	-1.583754	-0.416287
N36	N	0.149026	-1.525651	0.344070
H37	H	-0.179225	-1.624656	-0.000028
H38	H	0.309131	-0.930127	0.000005
H39	H	0.204633	-1.475854	-0.406201
Br40	Br	-0.349222	-1.965695	-0.000021
H41	H	0.028473	-1.633506	-0.354173
Br42	Br	0.024853	-1.047625	-0.000028
Br43	Br	-0.103369	-1.177350	-0.000010
H44	H	0.314464	-1.181375	-0.000011
Br45	Br	-0.674020	-1.349753	0.000223
Br46	Br	0.241718	-1.442706	-0.552438
H47	H	-0.563728	-1.824868	-0.000029
H48	H	0.072237	-0.930908	0.000002
Br49	Br	-0.522700	-1.136913	0.000010
H50	H	-0.330152	-1.155727	0.000028
Br51	Br	-0.197903	-1.752869	-0.000037
H52	H	0.028478	-1.633546	-0.645798
