data_functionalizedCrystal
_audit_creation_method	'MofGen! by Chris Wilmer'
_symmetry_space_group_name_H-M	'P1'
_symmetry_Int_Tables_number	1
_symmetry_cell_setting	triclinic
loop_
_symmetry_equiv_pos_as_xyz
  x,y,z
_cell_length_a	13.262533
_cell_length_b	14.853567
_cell_length_c	11.804365
_cell_angle_alpha	101.851263
_cell_angle_beta	93.582318
_cell_angle_gamma	84.051238
loop_
_atom_site_label
_atom_site_type_symbol
_atom_site_fract_x
_atom_site_fract_y
_atom_site_fract_z
O1	O	1.322379	0.181708	0.329278
O2	O	1.036620	0.177970	0.236724
O3	O	1.187133	0.049083	0.285470
O4	O	1.171866	0.310595	0.280532
O5	O	1.147509	0.082977	0.470693
O6	O	0.996995	0.211864	0.421947
O7	O	1.282755	0.215602	0.514501
Cu8	Cu	1.136257	0.216828	0.485137
Cu9	Cu	1.183118	0.176744	0.266089
O10	O	1.132241	0.344489	0.465755
C11	C	0.980237	0.192009	0.317491
C12	C	0.871268	0.183333	0.282197
C13	C	0.477697	0.232792	0.586570
C14	C	0.580076	0.240949	0.619736
C15	C	0.652879	0.226545	0.535354
C16	C	0.623292	0.203984	0.417801
C17	C	0.520902	0.195833	0.384631
C18	C	0.696084	0.189586	0.333415
C19	C	0.666497	0.167025	0.215862
C20	C	0.564116	0.158875	0.182698
C21	C	0.491313	0.173279	0.267080
C22	C	0.798475	0.197737	0.366584
C23	C	0.841680	0.160778	0.164646
C24	C	0.739300	0.152621	0.131480
C25	C	1.166630	0.032398	0.377854
C26	C	1.164559	-0.067817	0.377173
C27	C	1.066384	-0.486448	0.345398
C28	C	1.245197	-0.496616	0.403314
C29	C	1.247148	-0.402462	0.403938
C30	C	1.158715	-0.350297	0.375294
C31	C	1.068331	-0.392285	0.346026
C32	C	1.337527	-0.360465	0.433218
C33	C	1.339481	-0.266306	0.433845
C34	C	1.251049	-0.214140	0.405193
C35	C	1.160662	-0.256133	0.375921
C36	C	1.072229	-0.203968	0.347277
C37	C	0.981843	-0.245961	0.317998
C38	C	0.979899	-0.340119	0.317373
C39	C	1.252992	-0.119982	0.405817
C40	C	1.074176	-0.109805	0.347905
C41	C	1.339138	0.201563	0.433732
C42	C	1.448109	0.210237	0.469019
C43	C	1.152745	0.361174	0.373369
C44	C	1.154817	0.461387	0.374042
N45	N	1.103305	0.245021	0.639205
N46	N	1.216077	0.148544	0.112023
C47	C	1.295207	0.080826	1.075304
C48	C	1.320134	0.059494	0.958715
C49	C	1.265929	0.105874	0.878832
C50	C	1.186793	0.173589	0.915549
C51	C	1.161868	0.194928	1.032151
C52	C	1.132590	0.219976	0.835679
C53	C	1.053453	0.287691	0.872396
C54	C	1.028533	0.309026	0.988986
C55	C	1.082738	0.262647	1.068869
C56	C	1.157514	0.198637	0.719077
C57	C	1.024175	0.312739	0.675924
C58	C	0.999248	0.334071	0.792513
H59	H	0.736240	0.233188	0.562365
C60	C	0.921748	0.144932	0.071816
H61	H	0.889463	0.130342	-0.002945
H62	H	0.970000	0.095274	0.082956
H63	H	0.955171	0.199423	0.078160
H64	H	0.540030	0.140514	0.086978
C65	C	0.378688	0.164355	0.230592
H66	H	0.371489	0.148869	0.148497
H67	H	0.340168	0.221420	0.257993
H68	H	0.354927	0.117266	0.262765
C69	C	1.342464	-0.553994	0.434822
H70	H	1.328361	-0.616086	0.430252
H71	H	1.365705	-0.528830	0.511412
H72	H	1.393336	-0.552481	0.382219
H73	H	1.002163	-0.067338	0.324574
C74	C	1.352403	-0.073792	0.438023
H75	H	1.404791	-0.118346	0.454991
H76	H	1.343057	-0.025447	0.504059
H77	H	1.370703	-0.049100	0.374871
H78	H	1.062440	0.280012	1.163806
C79	C	0.884573	-0.188574	0.286490
H80	H	0.898685	-0.126485	0.291055
H81	H	0.833694	-0.190092	0.339073
H82	H	0.861343	-0.213732	0.209886
H83	H	0.964103	0.364171	1.018882
C84	C	0.880483	-0.386310	0.285186
H85	H	0.891988	-0.449855	0.288930
H86	H	0.857876	-0.380618	0.208799
H87	H	0.830253	-0.356962	0.337995
H88	H	0.934813	0.389207	0.822422
C89	C	0.706745	0.127814	0.002178
H90	H	0.635341	0.125031	-0.005484
H91	H	0.739810	0.069488	-0.031477
H92	H	0.724984	0.173637	-0.036271
H93	H	0.992795	-0.520644	0.321555
H94	H	1.409522	-0.402943	0.456548
H95	H	0.980037	0.350508	0.610883
C96	C	1.438902	-0.220123	0.466035
H97	H	1.491291	-0.264679	0.482996
H98	H	1.429568	-0.171776	0.532071
H99	H	1.457195	-0.195435	0.402876
H100	H	0.822553	0.216108	0.462297
C101	C	0.397620	0.248639	0.679378
H102	H	0.429900	0.263247	0.754139
H103	H	0.364187	0.194161	0.673039
H104	H	0.349376	0.298307	0.668228
H105	H	1.339340	0.043075	1.140352
H106	H	1.384567	0.004362	0.928825
C107	C	1.244560	0.124162	0.678696
H108	H	1.251652	0.118101	0.597819
H109	H	1.229751	0.066801	0.694331
H110	H	1.305995	0.141649	0.719018
C111	C	0.612616	0.265772	0.749032
H112	H	0.554597	0.273179	0.794537
H113	H	0.644243	0.321792	0.763755
H114	H	0.659072	0.217649	0.768580
H115	H	1.286228	0.088502	0.783901
