data_functionalizedCrystal
_audit_creation_method	'MofGen! by Chris Wilmer'
_symmetry_space_group_name_H-M	'P1'
_symmetry_Int_Tables_number	1
_symmetry_cell_setting	triclinic
loop_
_symmetry_equiv_pos_as_xyz
  x,y,z
_cell_length_a	15.995280
_cell_length_b	26.210047
_cell_length_c	15.995350
_cell_angle_alpha	90.006733
_cell_angle_beta	83.477986
_cell_angle_gamma	89.990244
loop_
_atom_site_label
_atom_site_type_symbol
_atom_site_fract_x
_atom_site_fract_y
_atom_site_fract_z
O1	O	-1.111029	0.042435	-0.107634
O2	O	-0.867246	0.042434	-0.121023
O3	O	-0.995801	0.042434	0.007561
O4	O	-0.982474	0.042435	-0.236218
O5	O	-0.995777	-0.042424	0.007541
O6	O	-0.867221	-0.042424	-0.121043
O7	O	-1.111004	-0.042423	-0.107654
Cu8	Cu	-0.989110	-0.050172	-0.114350
Cu9	Cu	-0.989140	0.050183	-0.114326
O10	O	-0.982449	-0.042423	-0.236238
C11	C	-0.836038	0.000005	-0.120490
C12	C	-0.743084	0.000004	-0.118861
C13	C	-0.405344	0.000012	-0.112875
C14	C	-0.428656	0.000201	-0.205678
C15	C	-0.525332	0.000007	-0.207438
C16	C	-0.572901	0.000008	-0.115846
C17	C	-0.543784	-0.048448	-0.069461
C18	C	-0.446993	-0.048486	-0.068348
C19	C	-0.447166	0.048013	-0.066430
C20	C	-0.543659	0.048651	-0.069864
C21	C	-0.667597	0.000005	-0.117519
C22	C	-0.310647	0.000012	-0.111199
N23	N	-0.989096	-0.120756	-0.114366
C24	C	-1.046058	-0.473270	-0.057402
C25	C	-1.046077	-0.686928	-0.057391
O26	O	-1.094476	-0.714550	-0.008962
N27	N	-0.989144	-0.713650	-0.114308
C28	C	-0.932199	-0.686953	-0.171229
O29	O	-0.883769	-0.714584	-0.219634
C30	C	-0.932177	-0.473296	-0.171236
C31	C	-0.989120	-0.446577	-0.114320
C32	C	-1.102995	-0.446551	-0.000491
C33	C	-1.102993	-0.393140	-0.000498
C34	C	-1.046054	-0.366447	-0.057415
C35	C	-0.989117	-0.393166	-0.114327
C36	C	-0.875229	-0.446600	-0.228152
C37	C	-0.875227	-0.393182	-0.228147
C38	C	-0.932169	-0.366464	-0.171231
C39	C	-0.932176	-0.313061	-0.171251
N40	N	-0.989109	-0.286340	-0.114334
C41	C	-1.046048	-0.313033	-0.057416
C42	C	-0.932216	-0.799127	-0.171222
C43	C	-0.932222	-0.852541	-0.171222
C44	C	-1.046099	-0.852512	-0.057382
C45	C	-1.046096	-0.799097	-0.057388
C46	C	-0.989148	-0.772405	-0.114305
C47	C	-1.046040	-0.200865	-0.057435
C48	C	-1.046035	-0.147449	-0.057448
C49	C	-0.932155	-0.147482	-0.171284
C50	C	-0.932163	-0.200893	-0.171274
C51	C	-0.989108	-0.227584	-0.114342
O52	O	-0.883796	-0.285406	-0.219649
O53	O	-1.094458	-0.285393	-0.009005
C54	C	-1.046061	-0.526681	-0.057396
C55	C	-0.989124	-0.553400	-0.114307
C56	C	-0.932185	-0.526707	-0.171225
C57	C	-0.989130	-0.606814	-0.114307
C58	C	-1.046069	-0.633507	-0.057389
C59	C	-1.103002	-0.606786	-0.000471
C60	C	-1.102999	-0.553374	-0.000478
C61	C	-0.875252	-0.553428	-0.228142
C62	C	-0.875260	-0.606840	-0.228132
C63	C	-0.932199	-0.633533	-0.171214
C64	C	-0.142211	0.000008	-0.108198
C65	C	-0.235160	0.000016	-0.109859
C66	C	-0.995238	0.000006	0.038746
C67	C	-0.993586	0.000009	0.131696
N68	N	-0.989161	0.120766	-0.114304
C69	C	-0.983012	0.000006	-0.267422
C70	C	-0.984664	0.000006	-0.360372
C71	C	-0.987654	0.000007	0.469442
C72	C	-0.896099	0.000197	0.421984
C73	C	-0.897751	0.000006	0.325295
C74	C	-0.990596	0.000008	0.301882
C75	C	-1.035740	-0.048449	0.342959
C76	C	-1.033440	-0.048489	0.439594
C77	C	-1.035360	0.048010	0.439976
C78	C	-1.035338	0.048650	0.343031
C79	C	-0.992264	0.000007	0.207185
C80	C	-0.985989	0.000005	0.564139
H81	H	-1.092407	-0.125696	-0.011101
H82	H	-0.885799	-0.125740	-0.217629
Cl83	Cl	-0.553737	-0.053716	-0.263883
Cl84	Cl	-0.803666	-0.519878	-0.299704
Cl85	Cl	-0.989153	0.104715	0.471676
H86	H	-0.885863	-0.874291	-0.217576
H87	H	-0.862264	0.034741	0.296872
Cl88	Cl	-1.117677	-0.886079	0.014172
Cl89	Cl	-1.174586	-0.519792	0.071078
Cl90	Cl	-0.860621	-0.765577	-0.242785
Cl91	Cl	-1.137215	-0.051889	0.489412
Cl92	Cl	-1.141053	-0.051232	0.321178
H93	H	-0.828862	-0.468347	-0.274497
H94	H	-0.420166	-0.084709	-0.100491
Cl95	Cl	-1.117681	-0.765514	0.014168
Cl96	Cl	-1.174583	-0.640352	0.071080
H97	H	-0.859658	-0.034359	0.441561
H98	H	-0.828851	-0.371452	-0.274495
Cl99	Cl	-0.860585	-0.234481	-0.242836
H100	H	-0.828892	-0.628591	-0.274487
Cl101	Cl	-0.839611	0.053848	0.450592
H102	H	-1.004365	-0.084511	0.314561
Cl103	Cl	-0.572384	0.104000	-0.121979
Cl104	Cl	-0.592976	-0.051229	0.034603
H105	H	-0.862005	-0.034790	0.297413
H106	H	-1.102863	0.048337	0.471754
Cl107	Cl	-0.425567	0.048520	0.039036
H108	H	-1.103046	0.051578	0.327686
Cl109	Cl	-0.594556	0.053170	0.033358
H110	H	-1.000500	-0.084714	0.457879
H111	H	-0.432442	-0.050686	-0.000304
Cl112	Cl	-0.984798	0.104005	0.300472
H113	H	-0.544369	0.034744	-0.243761
H114	H	-1.092409	-0.222590	-0.011074
H115	H	-0.563833	-0.084510	-0.101689
Cl116	Cl	-0.385448	0.053854	-0.260901
Cl117	Cl	-0.403460	0.104718	-0.111214
H118	H	-0.399627	-0.034354	-0.241260
H119	H	-1.149358	-0.371389	0.045850
Cl120	Cl	-1.174585	-0.480099	0.071072
