data_functionalizedCrystal
_audit_creation_method	'MofGen! by Chris Wilmer'
_symmetry_space_group_name_H-M	'P1'
_symmetry_Int_Tables_number	1
_symmetry_cell_setting	triclinic
loop_
_symmetry_equiv_pos_as_xyz
  x,y,z
_cell_length_a	14.044220
_cell_length_b	23.532407
_cell_length_c	12.503572
_cell_angle_alpha	93.496478
_cell_angle_beta	86.164750
_cell_angle_gamma	88.018778
loop_
_atom_site_label
_atom_site_type_symbol
_atom_site_fract_x
_atom_site_fract_y
_atom_site_fract_z
O1	O	1.261903	0.134222	-0.089227
O2	O	0.985982	0.129269	-0.089253
O3	O	1.132262	0.049265	-0.089219
O4	O	1.115623	0.214225	-0.089260
O5	O	1.121261	0.055293	0.089420
O6	O	0.974981	0.135296	0.089386
O7	O	1.250902	0.140249	0.089413
Cu8	Cu	1.111937	0.138323	0.105711
Cu9	Cu	1.124947	0.131195	-0.105551
O10	O	1.104622	0.220253	0.089379
C11	C	0.945188	0.130115	0.000063
C12	C	0.840023	0.123648	0.000054
C13	C	0.647472	0.111828	0.000078
C14	C	0.589407	0.157687	0.000072
C15	C	0.482265	0.151110	0.000085
C16	C	0.754624	0.118404	0.000065
C17	C	1.126337	0.031040	0.000103
C18	C	1.125063	-0.032246	0.000111
C19	C	1.203641	-0.427092	0.000060
C20	C	1.202458	-0.486556	0.000051
O21	O	1.275300	-0.519354	0.000019
N22	N	1.115494	-0.513896	0.000044
C23	C	1.029708	-0.481769	0.000034
O24	O	0.955630	-0.510484	0.000026
C25	C	1.030893	-0.422305	0.000034
C26	C	1.117862	-0.394968	0.000053
C27	C	1.290603	-0.399754	0.000077
C28	C	1.291786	-0.340294	0.000087
C29	C	1.206006	-0.308170	0.000080
C30	C	1.119044	-0.335508	0.000063
C31	C	0.945109	-0.390179	0.000016
C32	C	0.946301	-0.330712	0.000016
C33	C	1.033270	-0.303375	0.000035
C34	C	1.034447	-0.243924	0.000066
N35	N	1.121411	-0.216584	0.000074
C36	C	1.207191	-0.248707	0.000081
C37	C	1.027228	-0.606646	0.000031
C38	C	1.026042	-0.666108	0.000038
C39	C	1.198792	-0.670891	0.000053
C40	C	1.199976	-0.611428	0.000054
C41	C	1.114192	-0.579306	0.000038
C42	C	1.209668	-0.123835	0.000103
C43	C	1.210842	-0.064369	0.000118
C44	C	1.038093	-0.059591	0.000097
C45	C	1.036917	-0.119052	0.000088
C46	C	1.122713	-0.151173	0.000087
O47	O	0.961644	-0.211090	0.000095
O48	O	1.281258	-0.219985	0.000075
C49	C	1.291696	0.139403	0.000094
C50	C	1.396861	0.145869	0.000096
C51	C	1.110547	0.238478	0.000054
C52	C	1.111822	0.301763	0.000039
N53	N	1.102793	0.143337	0.254301
N54	N	1.134098	0.126177	-0.254141
C55	C	1.089342	0.150717	0.473413
C56	C	1.147546	0.118799	0.526753
C57	C	1.140062	0.122905	0.648675
C58	C	1.096825	0.146611	0.351480
H59	H	0.620163	0.201888	0.000055
H60	H	0.874290	-0.412427	-0.000005
C61	C	0.606290	0.052941	0.000035
C62	C	0.506669	0.058042	0.000014
C63	C	0.468689	0.003808	-0.000045
H64	H	0.623339	0.034894	0.062313
H65	H	0.631046	0.030738	-0.062286
H66	H	0.481922	0.080236	0.062329
H67	H	0.489594	0.076079	-0.062259
H68	H	0.493445	-0.018395	-0.062366
H69	H	0.485744	-0.014234	0.062234
H70	H	0.401093	0.007261	-0.000069
H71	H	0.876442	-0.304561	0.000002
H72	H	1.202998	0.088389	0.480853
H73	H	0.957366	-0.580495	0.000027
C74	C	1.015464	0.191355	0.534465
C75	C	1.032098	0.247153	0.507173
C76	C	0.964055	0.284604	0.563395
H77	H	1.020127	0.188839	0.609481
H78	H	0.953354	0.181431	0.516083
H79	H	1.094192	0.257075	0.525563
H80	H	1.027427	0.249688	0.432167
H81	H	0.901946	0.274679	0.545012
H82	H	0.968724	0.282082	0.638407
H83	H	0.975327	0.322466	0.544877
C84	C	1.305171	-0.034583	0.000186
C85	C	1.287854	0.024370	0.000221
C86	C	1.374722	0.051826	0.000295
H87	H	1.344371	-0.047340	-0.062092
H88	H	1.336637	-0.043184	0.062507
H89	H	1.256402	0.032968	-0.062094
H90	H	1.248669	0.037145	0.062494
H91	H	1.406189	0.043225	0.062617
H92	H	1.413916	0.039064	-0.061983
H93	H	1.362984	0.091828	0.000329
H94	H	1.279531	-0.149982	0.000099
H95	H	1.360460	-0.425903	0.000079
C96	C	1.386313	-0.310726	0.000042
C97	C	1.461173	-0.351596	0.000016
C98	C	1.548270	-0.324385	-0.000043
H99	H	1.386676	-0.285534	0.062321
H100	H	1.394259	-0.289741	-0.062278
H101	H	1.453229	-0.372571	0.062330
H102	H	1.460841	-0.376790	-0.062258
H103	H	1.556216	-0.303400	-0.062363
H104	H	1.548623	-0.299194	0.062237
H105	H	1.599073	-0.352111	-0.000071
C106	C	1.294502	-0.581858	0.000007
C107	C	1.369365	-0.622726	-0.000013
C108	C	1.456459	-0.595512	-0.000075
H109	H	1.294862	-0.556664	0.062282
H110	H	1.302446	-0.560876	-0.062317
H111	H	1.361423	-0.643698	0.062304
H112	H	1.369036	-0.647922	-0.062284
H113	H	1.464404	-0.574530	-0.062399
H114	H	1.456810	-0.570318	0.062202
H115	H	1.507265	-0.623236	-0.000098
H116	H	1.268638	-0.697057	0.000055
C117	C	0.942401	-0.148632	0.000015
C118	C	0.867535	-0.107770	-0.000013
C119	C	0.780455	-0.134994	-0.000108
H120	H	0.934371	-0.169638	0.062283
H121	H	0.942140	-0.173807	-0.062316
H122	H	0.867794	-0.082605	0.062312
H123	H	0.875533	-0.086762	-0.062276
H124	H	0.780194	-0.160169	-0.062439
H125	H	0.772435	-0.155999	0.062161
H126	H	0.729648	-0.107274	-0.000137
C127	C	0.931522	-0.695680	-0.000025
C128	C	0.856662	-0.654814	-0.000055
C129	C	0.769576	-0.682033	-0.000133
H130	H	0.923494	-0.716681	0.062249
H131	H	0.931252	-0.720859	-0.062350
H132	H	0.856931	-0.629645	0.062264
H133	H	0.864659	-0.633811	-0.062324
H134	H	0.769306	-0.707212	-0.062459
H135	H	0.761557	-0.703034	0.062142
H136	H	0.718774	-0.654310	-0.000164
C137	C	0.945009	-0.024684	-0.000137
C138	C	0.946312	0.006488	-0.092057
C139	C	0.860575	0.038646	-0.092325
H140	H	0.937956	0.000756	0.062085
H141	H	0.893016	-0.049461	-0.000208
H142	H	0.998290	0.031262	-0.091977
H143	H	0.953349	-0.018939	-0.154294
H144	H	0.808582	0.013869	-0.092396
H145	H	0.853530	0.064083	-0.030099
H146	H	0.861444	0.059796	-0.154696
