data_functionalizedCrystal
_audit_creation_method	'MofGen! by Chris Wilmer'
_symmetry_space_group_name_H-M	'P1'
_symmetry_Int_Tables_number	1
_symmetry_cell_setting	triclinic
loop_
_symmetry_equiv_pos_as_xyz
  x,y,z
_cell_length_a	19.288864
_cell_length_b	16.109304
_cell_length_c	17.766277
_cell_angle_alpha	90.001293
_cell_angle_beta	89.979562
_cell_angle_gamma	83.299443
loop_
_atom_site_label
_atom_site_type_symbol
_atom_site_fract_x
_atom_site_fract_y
_atom_site_fract_z
O1	O	0.921599	0.103710	-0.062831
O2	O	1.421599	0.603710	0.437169
O3	O	0.719372	0.117701	-0.062779
O4	O	1.219372	0.617701	0.437221
O5	O	0.826040	-0.010344	-0.062807
O6	O	1.326040	0.489656	0.437193
O7	O	0.814931	0.231756	-0.062803
O8	O	1.314931	0.731756	0.437197
O9	O	0.826026	-0.010339	0.062382
O10	O	1.326026	0.489661	0.562382
O11	O	0.719358	0.117706	0.062410
O12	O	1.219358	0.617706	0.562410
O13	O	0.921585	0.103715	0.062357
O14	O	1.421585	0.603715	0.562357
Cu15	Cu	0.820470	0.110711	0.073814
Cu16	Cu	1.320470	0.610711	0.573814
Cu17	Cu	0.820487	0.110705	-0.074236
Cu18	Cu	1.320487	0.610705	0.425764
O19	O	0.814917	0.231760	0.062385
O20	O	1.314917	0.731760	0.562385
C21	C	0.693488	0.117253	-0.000178
C22	C	1.193488	0.617253	0.499822
C23	C	0.616381	0.115902	-0.000158
C24	C	1.116381	0.615902	0.499842
C25	C	0.825583	-0.041315	-0.000214
C26	C	1.325583	0.458685	0.499786
C27	C	0.824233	-0.133606	-0.000219
C28	C	1.324233	0.366394	0.499781
C29	C	0.571864	0.191033	-0.000169
C30	C	1.071864	0.691033	0.499831
C31	C	0.499414	0.189764	-0.000177
C32	C	0.999414	0.689764	0.499823
C33	C	0.471484	0.113359	-0.000190
C34	C	0.971484	0.613359	0.499810
C35	C	0.516010	0.038217	-0.000175
C36	C	1.016010	0.538217	0.499825
C37	C	0.588458	0.039489	-0.000159
C38	C	1.088458	0.539489	0.499841
C39	C	0.363083	0.053294	-0.044076
C40	C	0.863083	0.553294	0.455924
C41	C	0.290635	0.052026	-0.044096
C42	C	0.790635	0.552026	0.455904
C43	C	0.248029	0.109433	-0.000236
C44	C	0.748029	0.609433	0.499764
C45	C	0.277877	0.168123	0.043635
C46	C	0.777877	0.668123	0.543635
C47	C	0.350326	0.169395	0.043651
C48	C	0.850326	0.669395	0.543651
C49	C	0.392926	0.111971	-0.000207
C50	C	0.892926	0.611971	0.499793
C51	C	0.124953	0.183193	-0.000254
C52	C	0.624953	0.683193	0.499746
C53	C	0.052502	0.181920	-0.000258
C54	C	0.552502	0.681920	0.499742
C55	C	0.069099	0.030372	-0.000264
C56	C	0.569099	0.530372	0.499736
C57	C	0.141549	0.031647	-0.000252
C58	C	0.641549	0.531647	0.499748
C59	C	0.169471	0.108059	-0.000251
C60	C	0.669471	0.608059	0.499749
C61	C	0.821121	-0.345935	-0.068456
C62	C	1.321121	0.154065	0.431544
C63	C	0.819846	-0.432651	-0.068455
C64	C	1.319846	0.067349	0.431545
C65	C	0.819834	-0.432643	0.068033
C66	C	1.319834	0.067357	0.568033
C67	C	0.821104	-0.345928	0.068031
C68	C	1.321104	0.154072	0.568031
C69	C	0.821751	-0.302577	-0.000215
C70	C	1.321751	0.197423	0.499785
C71	C	0.819206	-0.476007	-0.000213
C72	C	1.319206	0.023993	0.499787
C73	C	0.817824	-0.570028	-0.000211
C74	C	1.317824	-0.070028	0.499789
C75	C	0.823132	-0.208549	-0.000217
C76	C	1.323132	0.291451	0.499783
C77	C	0.947470	0.104163	-0.000245
C78	C	1.447470	0.604163	0.499755
C79	C	1.024577	0.105514	-0.000270
C80	C	1.524577	0.605514	0.499730
C81	C	0.815375	0.262731	-0.000209
C82	C	1.315375	0.762731	0.499791
C83	C	0.816725	0.355022	-0.000209
C84	C	1.316725	0.855022	0.499791
N85	N	0.820463	0.110714	0.177945
N86	N	1.320463	0.610714	0.677945
N87	N	0.820499	0.110696	-0.178366
N88	N	1.320499	0.610696	0.321634
C89	C	0.862613	0.160985	0.782222
C90	C	1.362613	0.660985	1.282222
C91	C	0.862606	0.160993	0.703420
C92	C	1.362606	0.660993	1.203420
C93	C	0.820494	0.110696	0.664033
C94	C	1.320494	0.610696	1.164033
C95	C	0.778372	0.060404	0.703455
C96	C	1.278372	0.560404	1.203455
C97	C	0.778375	0.060403	0.782255
C98	C	1.278375	0.560403	1.282255
C99	C	0.818588	0.035737	0.539190
C100	C	1.318588	0.535737	1.039190
C101	C	0.818590	0.035735	0.460391
C102	C	1.318590	0.535735	0.960391
C103	C	0.820481	0.110698	0.420987
C104	C	1.320481	0.610698	0.920987
C105	C	0.822384	0.185664	0.460392
C106	C	1.322384	0.685664	0.960392
C107	C	0.822387	0.185663	0.539192
C108	C	1.322387	0.685663	1.039192
C109	C	0.820486	0.110691	0.578588
C110	C	1.320486	0.610691	1.078588
C111	C	0.862589	0.161000	0.296129
C112	C	1.362589	0.661000	0.796129
C113	C	0.862577	0.161010	0.217326
C114	C	1.362577	0.661010	0.717326
C115	C	0.778347	0.060413	0.217362
C116	C	1.278347	0.560413	0.717362
C117	C	0.778355	0.060411	0.296164
C118	C	1.278355	0.560411	0.796164
C119	C	0.820479	0.110703	0.335543
C120	C	1.320479	0.610703	0.835543
H121	H	0.463162	0.250946	-0.000184
H122	H	0.963162	0.750946	0.499816
H123	H	0.594594	0.253254	-0.000170
H124	H	1.094594	0.753254	0.499830
N125	N	0.908035	0.215223	0.824712
N126	N	1.408035	0.715223	1.324712
H127	H	0.942032	0.178907	0.857390
H128	H	1.442032	0.678907	1.357390
H129	H	0.934675	0.247083	0.787750
H130	H	1.434675	0.747083	1.287750
H131	H	0.823924	0.246706	0.428311
H132	H	1.323924	0.746706	0.928311
N133	N	0.636472	-0.041552	-0.000147
N134	N	1.136472	0.458448	0.499853
H135	H	0.627515	-0.074903	-0.046556
H136	H	1.127515	0.425097	0.453444
H137	H	0.686586	-0.029087	-0.000108
H138	H	1.186586	0.470913	0.499892
H139	H	0.397768	0.006544	-0.079796
H140	H	0.897768	0.506544	0.420204
N141	N	0.004507	0.262976	-0.000258
N142	N	0.504507	0.762976	0.499742
H143	H	-0.025907	0.265844	-0.046666
H144	H	0.474093	0.765844	0.453334
H145	H	-0.025893	0.265791	0.046180
H146	H	0.474107	0.765791	0.546180
N147	N	0.819211	-0.479424	-0.142056
N148	N	1.319211	0.020576	0.357944
H149	H	0.819829	-0.438802	-0.185287
H150	H	1.319829	0.061198	0.314713
H151	H	0.861732	-0.522286	-0.145005
H152	H	1.361732	-0.022286	0.354995
H153	H	0.896899	0.201948	0.671324
H154	H	1.396899	0.701948	1.171324
N155	N	0.824433	0.266512	0.581695
N156	N	1.324433	0.766512	1.081695
H157	H	0.825630	0.314004	0.544781
H158	H	1.325630	0.814004	1.044781
H159	H	0.781494	0.277313	0.614406
H160	H	1.281494	0.777313	1.114406
N161	N	0.819152	-0.479403	0.141638
N162	N	1.319152	0.020597	0.641638
H163	H	0.775598	-0.508488	0.144699
H164	H	1.275598	-0.008488	0.644699
H165	H	0.861691	-0.522234	0.144614
H166	H	1.361691	-0.022234	0.644614
H167	H	0.493264	-0.023992	-0.000196
H168	H	0.993264	0.476008	0.499804
N169	N	0.038987	-0.052040	-0.000279
N170	N	0.538987	0.447960	0.499721
H171	H	0.055201	-0.084942	0.046131
H172	H	0.555201	0.415058	0.546131
H173	H	-0.013659	-0.041379	-0.000317
H174	H	0.486341	0.458621	0.499683
N175	N	0.908005	0.215253	0.174817
N176	N	1.408005	0.715253	0.674817
H177	H	0.942002	0.178945	0.142105
H178	H	1.442002	0.678945	0.642105
H179	H	0.877709	0.256040	0.142183
H180	H	1.377709	0.756040	0.642183
N181	N	0.732921	0.006164	0.174897
N182	N	1.232921	0.506164	0.674897
H183	H	0.698915	0.042468	0.142220
H184	H	1.198915	0.542468	0.642220
H185	H	0.763214	-0.034618	0.142232
H186	H	1.263214	0.465382	0.642232
H187	H	0.266338	0.004240	-0.079821
H188	H	0.766338	0.504240	0.420179
N189	N	0.189568	-0.049388	-0.000241
N190	N	0.689568	0.450612	0.499759
H191	H	0.160883	-0.097985	-0.000249
H192	H	0.660883	0.402015	0.499751
H193	H	0.220015	-0.052166	-0.046642
H194	H	0.720015	0.447834	0.453358
H195	H	0.821646	-0.310641	-0.124026
H196	H	1.321646	0.189359	0.375974
H197	H	0.821613	-0.310624	0.123604
H198	H	1.321613	0.189376	0.623604
N199	N	0.908016	0.215245	0.338609
N200	N	1.408016	0.715245	0.838609
H201	H	0.934689	0.247112	0.301681
H202	H	1.434689	0.747112	0.801681
H203	H	0.877723	0.255980	0.371320
H204	H	1.377723	0.755980	0.871320
H205	H	0.744065	0.019456	0.328254
H206	H	1.244065	0.519456	0.828254
H207	H	0.817045	-0.025307	0.428313
H208	H	1.317045	0.474693	0.928313
N209	N	0.816534	-0.045119	0.581686
N210	N	1.316534	0.454881	1.081686
H211	H	0.815331	-0.092607	0.544768
H212	H	1.315331	0.407393	1.044768
H213	H	0.859469	-0.055934	0.614366
H214	H	1.359469	0.444066	1.114366
H215	H	0.744082	0.019454	0.671381
H216	H	1.244082	0.519454	1.171381
H217	H	0.374625	0.217180	0.079375
H218	H	0.874625	0.717180	0.579375
N219	N	0.231940	0.230042	0.090957
N220	N	0.731940	0.730042	0.590957
H221	H	0.238148	0.288761	0.074589
H222	H	0.738148	0.788761	0.574589
H223	H	0.181535	0.220261	0.084282
H224	H	0.681535	0.720261	0.584282
N225	N	0.732959	0.006151	0.824770
N226	N	1.232959	0.506151	1.324770
H227	H	0.706279	-0.025713	0.787864
H228	H	1.206279	0.474287	1.287864
H229	H	0.763261	-0.034585	0.857444
H230	H	1.263261	0.465415	1.357444
H231	H	0.147689	0.245413	-0.000243
H232	H	0.647689	0.745413	0.499757
