data_functionalizedCrystal
_audit_creation_method	'MofGen! by Chris Wilmer'
_symmetry_space_group_name_H-M	'P1'
_symmetry_Int_Tables_number	1
_symmetry_cell_setting	triclinic
loop_
_symmetry_equiv_pos_as_xyz
  x,y,z
_cell_length_a	21.395364
_cell_length_b	19.121111
_cell_length_c	21.395355
_cell_angle_alpha	92.422781
_cell_angle_beta	90.024552
_cell_angle_gamma	87.514732
loop_
_atom_site_label
_atom_site_type_symbol
_atom_site_fract_x
_atom_site_fract_y
_atom_site_fract_z
Zn1	Zn	0.947234	0.279421	0.364894
Zn2	Zn	1.447234	0.779421	0.864894
Zn3	Zn	0.942671	0.396856	0.264585
Zn4	Zn	1.442671	0.896856	0.764585
Zn5	Zn	0.842448	0.279451	0.260132
Zn6	Zn	1.342448	0.779451	0.760132
Zn7	Zn	0.837952	0.396868	0.369326
Zn8	Zn	1.337952	0.896868	0.869326
O9	O	0.892576	0.338149	0.314734
O10	O	1.392576	0.838149	0.814734
O11	O	1.034307	0.294981	0.351597
O12	O	1.534307	0.794981	0.851597
O13	O	0.929348	0.381290	0.176317
O14	O	1.429348	0.881290	0.676317
O15	O	0.860139	0.181161	0.270310
O16	O	1.360139	0.681161	0.770310
O17	O	1.030955	0.381260	0.277900
O18	O	1.530955	0.881260	0.777900
O19	O	0.937125	0.181138	0.347279
O20	O	1.437125	0.681138	0.847279
O21	O	0.855714	0.295033	0.173045
O22	O	1.355714	0.795033	0.673045
O23	O	0.754173	0.295045	0.274608
O24	O	1.254173	0.795045	0.774608
O25	O	0.852477	0.381281	0.456415
O26	O	1.352477	0.881281	0.956415
O27	O	0.750870	0.381311	0.354832
O28	O	1.250870	0.881311	0.854832
O29	O	0.932766	0.294993	0.453159
O30	O	1.432766	0.794993	0.953159
O31	O	0.924989	0.495144	0.282197
O32	O	1.424989	0.995144	0.782197
O33	O	0.848052	0.495153	0.359150
O34	O	1.348052	0.995153	0.859150
C35	C	0.729787	0.338183	0.314718
C36	C	1.229787	0.838183	0.814718
C37	C	0.660145	0.338215	0.314726
C38	C	1.160145	0.838215	0.814726
C39	C	0.629197	0.293363	0.353165
C40	C	1.129197	0.793363	0.853165
C41	C	0.563762	0.293344	0.353166
C42	C	1.063762	0.793344	0.853166
C43	C	0.529277	0.338190	0.314737
C44	C	1.029277	0.838190	0.814737
C45	C	0.560233	0.383045	0.276291
C46	C	1.060233	0.883045	0.776291
C47	C	0.625667	0.383058	0.276285
C48	C	1.125667	0.883058	0.776285
C49	C	0.423148	0.401442	0.312106
C50	C	0.923148	0.901442	0.812106
C51	C	0.357715	0.401431	0.312116
C52	C	0.857715	0.901431	0.812116
C53	C	0.327458	0.338151	0.314749
C54	C	0.827458	0.838151	0.814749
C55	C	0.362642	0.274881	0.317386
C56	C	0.862642	0.774881	0.817386
C57	C	0.428075	0.274894	0.317381
C58	C	0.928075	0.774894	0.817381
C59	C	0.458325	0.338181	0.314738
C60	C	0.958325	0.838181	0.814738
C61	C	0.225559	0.293275	0.353192
C62	C	0.725559	0.793275	0.853192
C63	C	0.160123	0.293255	0.353189
C64	C	0.660123	0.793255	0.853189
C65	C	0.156595	0.382963	0.276316
C66	C	0.656595	0.882963	0.776316
C67	C	0.222030	0.382976	0.276316
C68	C	0.722030	0.882976	0.776316
C69	C	0.256508	0.338134	0.314757
C70	C	0.756508	0.838134	0.814757
C71	C	0.885554	0.520633	0.321651
C72	C	1.385554	1.020633	0.821651
C73	C	0.882608	0.598701	0.324632
C74	C	1.382608	1.098701	0.824632
C75	C	0.921311	0.635349	0.286000
C76	C	1.421311	1.135349	0.786000
C77	C	0.918544	0.708702	0.288807
C78	C	1.418544	1.208702	0.788807
C79	C	0.877069	0.745405	0.330242
C80	C	1.377069	1.245405	0.830242
C81	C	0.838364	0.708752	0.368878
C82	C	1.338364	1.208752	0.868878
C83	C	0.841135	0.635400	0.366074
C84	C	1.341135	1.135400	0.866074
C85	C	0.866699	0.966880	0.340714
C86	C	1.366699	1.466880	0.840714
C87	C	0.863929	1.040237	0.343513
C88	C	1.363929	1.540237	0.843513
C89	C	0.944110	1.040182	0.263442
C90	C	1.444110	1.540182	0.763442
C91	C	0.946875	0.966829	0.260640
C92	C	1.446875	1.466829	0.760640
C93	C	0.908172	0.930182	0.299278
C94	C	1.408172	1.430182	0.799278
C95	C	0.874238	0.820383	0.333111
C96	C	1.374238	1.320383	0.833111
C97	C	0.911007	0.855205	0.296412
C98	C	1.411007	1.355205	0.796412
C99	C	1.056001	0.338115	0.314751
C100	C	1.556001	0.838115	0.814751
C101	C	1.125643	0.338101	0.314758
C102	C	1.625643	0.838101	0.814758
C103	C	0.899637	1.154952	0.307811
C104	C	1.399637	1.654952	0.807811
C105	C	0.902633	1.076885	0.304882
C106	C	1.402633	1.576885	0.804882
C107	C	0.892629	0.338135	0.478157
C108	C	1.392629	0.838135	0.978157
C109	C	0.892651	0.338129	0.547798
C110	C	1.392651	0.838129	1.047798
C111	C	0.892562	0.338113	0.151945
C112	C	1.392562	0.838113	0.651945
C113	C	0.892668	0.337921	0.082297
C114	C	1.392668	0.837921	0.582297
C115	C	0.934456	0.293197	0.578817
C116	C	1.434456	0.793197	1.078817
C117	C	0.934456	0.293166	0.644251
C118	C	1.434456	0.793166	1.144251
C119	C	0.892658	0.338081	0.678664
C120	C	1.392658	0.838081	1.178664
C121	C	0.850845	0.383016	0.647638
C122	C	1.350845	0.883016	1.147638
C123	C	0.850842	0.383040	0.582205
C124	C	1.350842	0.883040	1.082205
C125	C	0.885277	0.401324	0.784736
C126	C	1.385277	0.901324	1.284736
C127	C	0.885285	0.401301	0.850169
C128	C	1.385285	0.901301	1.350169
C129	C	0.892665	0.338007	0.880482
C130	C	1.392665	0.838007	1.380482
C131	C	0.900050	0.274733	0.845356
C132	C	1.400050	0.774733	1.345356
C133	C	0.900047	0.274757	0.779923
C134	C	1.400047	0.774757	1.279923
C135	C	0.892657	0.338060	0.749616
C136	C	1.392657	0.838060	1.249616
C137	C	0.934472	0.293038	0.982452
C138	C	1.434472	0.793038	1.482452
C139	C	0.934468	0.293007	1.047888
C140	C	1.434468	0.793007	1.547888
C141	C	0.850860	0.382863	1.051274
C142	C	1.350860	0.882863	1.551274
C143	C	0.850861	0.382888	0.985840
C144	C	1.350861	0.882888	1.485840
C145	C	0.892670	0.337976	0.951433
C146	C	1.392670	0.837976	1.451433
H147	H	0.456719	0.223377	0.319526
H148	H	0.956719	0.723377	0.819526
O149	O	0.803509	0.599722	0.403511
O150	O	1.303509	1.099722	0.903511
C151	C	0.764647	0.557373	0.366187
C152	C	1.264647	1.057373	0.866187
H153	H	0.787181	0.546382	0.318305
H154	H	1.287181	1.046382	0.818305
H155	H	0.758188	0.505789	0.389732
H156	H	1.258188	1.005789	0.889732
H157	H	0.717148	0.585702	0.360344
H158	H	1.217148	1.085702	0.860344
H159	H	0.975621	1.070027	0.231986
H160	H	1.475621	1.570027	0.731986
H161	H	0.650864	0.419583	0.244983
H162	H	1.150864	0.919583	0.744983
O163	O	0.129986	0.249781	0.390566
O164	O	0.629986	0.749781	0.890566
C165	C	0.090610	0.289833	0.432502
C166	C	0.590610	0.789833	0.932502
H167	H	0.078725	0.343018	0.412337
H168	H	0.578725	0.843018	0.912337
H169	H	0.045714	0.261228	0.439863
H170	H	0.545714	0.761228	0.939863
H171	H	0.115547	0.297640	0.479215
H172	H	0.615547	0.797640	0.979215
O173	O	0.333326	0.213356	0.319863
O174	O	0.833326	0.713356	0.819863
C175	C	0.350983	0.169519	0.267629
C176	C	0.850983	0.669519	0.767629
H177	H	0.397854	0.185731	0.248933
H178	H	0.897854	0.685731	0.748933
H179	H	0.355429	0.112839	0.282147
H180	H	0.855429	0.612839	0.782147
H181	H	0.313943	0.174539	0.229572
H182	H	0.813943	0.674539	0.729572
H183	H	0.944778	0.825319	0.262677
H184	H	1.444778	1.325319	0.762677
H185	H	0.329074	0.452949	0.309971
H186	H	0.829074	0.952949	0.809971
O187	O	0.258961	0.249649	0.390546
O188	O	0.758961	0.749649	0.890546
C189	C	0.217610	0.210064	0.424483
C190	C	0.717610	0.710064	0.924483
H191	H	0.171052	0.207576	0.398730
H192	H	0.671052	0.707576	0.898730
H193	H	0.238674	0.154743	0.429153
H194	H	0.738674	0.654743	0.929153
H195	H	0.209667	0.235864	0.473008
H196	H	0.709667	0.735864	0.973008
O197	O	0.878077	0.462821	0.884193
O198	O	1.378077	0.962821	1.384193
C199	C	0.871568	0.518692	0.843408
C200	C	1.371568	1.018692	1.343408
H201	H	0.854198	0.498235	0.795979
H202	H	1.354198	0.998235	1.295979
H203	H	0.836451	0.559997	0.863873
H204	H	1.336451	1.059997	1.363873
H205	H	0.918790	0.543022	0.837392
H206	H	1.418790	1.043022	1.337392
H207	H	0.830163	1.070118	0.377266
H208	H	1.330163	1.570118	0.877266
O209	O	0.829032	0.931396	0.378260
O210	O	1.329032	1.431396	0.878260
C211	C	0.791839	0.979523	0.415438
C212	C	1.291839	1.479523	0.915438
H213	H	0.787716	1.031828	0.391771
H214	H	1.287716	1.531828	0.891771
H215	H	0.743266	0.958391	0.421259
H216	H	1.243266	1.458391	0.921259
H217	H	0.814459	0.987267	0.463344
H218	H	1.314459	1.487267	0.963344
O219	O	0.975139	0.249334	1.077924
O220	O	1.475139	0.749334	1.577924
C221	C	1.012027	0.209690	1.033520
C222	C	1.512027	0.709690	1.533520
H223	H	1.013084	0.238478	0.987974
H224	H	1.513084	0.738478	1.487974
H225	H	1.061683	0.202186	1.052162
H226	H	1.561683	0.702186	1.552162
H227	H	0.991145	0.156352	1.024520
H228	H	1.491145	0.656352	1.524520
H229	H	0.816811	0.419584	0.675662
H230	H	1.316811	0.919584	1.175662
O231	O	0.252128	0.426452	0.238912
O232	O	0.752128	0.926452	0.738912
C233	C	0.291528	0.386408	0.196992
C234	C	0.791528	0.886408	0.696992
H235	H	0.273959	0.331080	0.191104
H236	H	0.773959	0.831080	0.691104
H237	H	0.291263	0.411734	0.149698
H238	H	0.791263	0.911734	0.649698
H239	H	0.341221	0.384029	0.216276
H240	H	0.841221	0.884029	0.716276
H241	H	0.980647	0.936947	0.226899
H242	H	1.480647	1.436947	0.726899
H243	H	0.816821	0.419426	1.079293
H244	H	1.316821	0.919426	1.579293
H245	H	0.128518	0.419477	0.245026
H246	H	0.628518	0.919477	0.745026
O247	O	0.961511	0.599667	0.245680
O248	O	1.461511	1.099667	0.745680
C249	C	0.927462	0.557291	0.203569
C250	C	1.427462	1.057291	0.703569
H251	H	0.877279	0.579458	0.200500
H252	H	1.377279	1.079458	0.700500
H253	H	0.950179	0.556460	0.155341
H254	H	1.450179	1.056460	0.655341
H255	H	0.927394	0.501690	0.220814
H256	H	1.427394	1.001690	0.720814
H257	H	0.840467	0.850275	0.366846
H258	H	1.340467	1.350275	0.866846
H259	H	0.804597	0.738641	0.402619
H260	H	1.304597	1.238641	0.902619
H261	H	0.816796	0.419629	0.556950
H262	H	1.316796	0.919629	1.056950
O263	O	0.810194	0.426441	0.955672
O264	O	1.310194	0.926441	1.455672
C265	C	0.771278	0.386476	0.916272
C266	C	1.271278	0.886476	1.416272
H267	H	0.769541	0.331152	0.933886
H268	H	1.269541	0.831152	1.433886
H269	H	0.722080	0.411890	0.916475
H270	H	1.222080	0.911890	1.416475
H271	H	0.790743	0.384069	0.866598
H272	H	1.290743	0.884069	1.366598
H273	H	0.879100	0.452852	0.760060
H274	H	1.379100	0.952852	1.260060
O275	O	0.907105	0.213269	0.745829
O276	O	1.407105	0.713269	1.245829
C277	C	0.858172	0.169510	0.760145
C278	C	1.358172	0.669510	1.260145
H279	H	0.816511	0.202863	0.779390
H280	H	1.316511	0.702863	1.279390
H281	H	0.843579	0.139062	0.715947
H282	H	1.343579	0.639062	1.215947
H283	H	0.874856	0.131221	0.796673
H284	H	1.374856	0.631221	1.296673
O285	O	0.662593	0.249731	0.390516
O286	O	1.162593	0.749731	0.890516
C287	C	0.621240	0.210149	0.424454
C288	C	1.121240	0.710149	0.924454
H289	H	0.574679	0.207672	0.398705
H290	H	1.074679	0.707672	0.898705
H291	H	0.642298	0.154824	0.429116
H292	H	1.142298	0.654824	0.929116
H293	H	0.613306	0.235945	0.472981
H294	H	1.113306	0.735945	0.972981
O295	O	0.533617	0.249874	0.390544
O296	O	1.033617	0.749874	0.890544
C297	C	0.494244	0.289933	0.432479
C298	C	0.994244	0.789933	0.932479
H299	H	0.482367	0.343120	0.412314
H300	H	0.982367	0.843120	0.912314
H301	H	0.449344	0.261337	0.439840
H302	H	0.949344	0.761337	0.939840
H303	H	0.519181	0.297736	0.479193
H304	H	1.019181	0.797736	0.979193
H305	H	0.447777	0.452975	0.309961
H306	H	0.947777	0.952975	0.809961
H307	H	0.532151	0.419558	0.245000
H308	H	1.032151	0.919558	0.745000
O309	O	0.956162	0.744193	0.251214
O310	O	1.456162	1.244193	0.751214
C311	C	0.993370	0.696069	0.214049
C312	C	1.493370	1.196069	0.714049
H313	H	0.969680	0.643815	0.209860
H314	H	1.469680	1.143815	0.709860
H315	H	0.999274	0.717283	0.165501
H316	H	1.499274	1.217283	0.665501
H317	H	1.041243	0.688195	0.236733
H318	H	1.541243	1.188195	0.736733
H319	H	0.968500	0.256625	0.550806
H320	H	1.468500	0.756625	1.050806
H321	H	0.968498	0.256573	0.669511
H322	H	1.468498	0.756573	1.169511
H323	H	0.906060	0.223193	0.870036
H324	H	1.406060	0.723193	1.370036
H325	H	0.968512	0.256464	0.954437
H326	H	1.468512	0.756464	1.454437
