data_functionalizedCrystal
_audit_creation_method	'MofGen! by Chris Wilmer'
_symmetry_space_group_name_H-M	'P1'
_symmetry_Int_Tables_number	1
_symmetry_cell_setting	triclinic
loop_
_symmetry_equiv_pos_as_xyz
  x,y,z
_cell_length_a	12.594517
_cell_length_b	12.594516
_cell_length_c	16.120297
_cell_angle_alpha	92.876309
_cell_angle_beta	92.877961
_cell_angle_gamma	90.011616
loop_
_atom_site_label
_atom_site_type_symbol
_atom_site_fract_x
_atom_site_fract_y
_atom_site_fract_z
Zn1	Zn	1.596773	-0.454293	-0.471414
Zn2	Zn	2.096773	0.045707	0.028586
Zn3	Zn	1.605704	-0.623261	-0.332012
Zn4	Zn	2.105704	-0.123261	0.167988
Zn5	Zn	1.427803	-0.445296	-0.332017
Zn6	Zn	1.927803	0.054704	0.167983
Zn7	Zn	1.418775	-0.632226	-0.471377
Zn8	Zn	1.918775	-0.132226	0.028623
O9	O	1.512264	-0.538769	-0.401705
O10	O	2.012264	-0.038769	0.098295
O11	O	1.746902	-0.476719	-0.452936
O12	O	2.246902	0.023281	0.047064
O13	O	1.589621	-0.592136	-0.215349
O14	O	2.089621	-0.092136	0.284651
O15	O	1.450258	-0.297545	-0.350526
O16	O	1.950258	0.202455	0.149474
O17	O	1.753464	-0.600860	-0.350517
O18	O	2.253464	-0.100860	0.149483
O19	O	1.574400	-0.304155	-0.452940
O20	O	2.074400	0.195845	0.047060
O21	O	1.458918	-0.461387	-0.215353
O22	O	1.958918	0.038613	0.284647
O23	O	1.277661	-0.470080	-0.350490
O24	O	1.777661	0.029920	0.149510
O25	O	1.434870	-0.616140	-0.588045
O26	O	1.934870	-0.116140	-0.088045
O27	O	1.271027	-0.607417	-0.452877
O28	O	1.771027	-0.107417	0.047123
O29	O	1.565645	-0.485413	-0.588073
O30	O	2.065645	0.014587	-0.088073
O31	O	1.580866	-0.773395	-0.350481
O32	O	2.080866	-0.273395	0.149519
O33	O	1.443530	-0.779982	-0.452872
O34	O	1.943530	-0.279982	0.047128
C35	C	1.235724	-0.538746	-0.401680
C36	C	1.735724	-0.038746	0.098320
C37	C	1.117418	-0.538763	-0.401690
C38	C	1.617418	-0.038763	0.098310
C39	C	1.051735	-0.463976	-0.346107
C40	C	1.551735	0.036024	0.153893
C41	C	0.982259	-0.559734	-0.325602
C42	C	1.482259	-0.059734	0.174398
C43	C	0.976094	-0.443053	-0.422209
C44	C	1.476094	0.056947	0.077791
C45	C	1.049503	-0.634570	-0.381145
C46	C	1.549503	-0.134570	0.118855
C47	C	1.043342	-0.517826	-0.477787
C48	C	1.543342	-0.017826	0.022213
C49	C	0.973896	-0.613653	-0.457311
C50	C	1.473896	-0.113653	0.042689
C51	C	1.512215	-0.815309	-0.401691
C52	C	2.012215	-0.315309	0.098309
C53	C	1.512290	-0.933616	-0.401712
C54	C	2.012290	-0.433616	0.098288
C55	C	1.587066	-0.999252	-0.346081
C56	C	2.087066	-0.499252	0.153919
C57	C	1.608149	-1.074884	-0.422174
C58	C	2.108149	-0.574884	0.077826
C59	C	1.491337	-1.068786	-0.325667
C60	C	1.991337	-0.568786	0.174333
C61	C	1.533420	-1.007692	-0.477845
C62	C	2.033420	-0.507692	0.022155
C63	C	1.416566	-1.001585	-0.381287
C64	C	1.916566	-0.501585	0.118713
C65	C	1.437609	-1.077188	-0.457433
C66	C	1.937609	-0.577188	0.042567
C67	C	1.789883	-0.538793	-0.401730
C68	C	2.289883	-0.038793	0.098270
C69	C	1.908187	-0.538803	-0.401741
C70	C	2.408187	-0.038803	0.098259
C71	C	1.498254	-0.552780	-0.619154
C72	C	1.998254	-0.052780	-0.119154
C73	C	1.492284	-0.558751	-0.711818
C74	C	1.992284	-0.058751	-0.211818
C75	C	1.512340	-0.261150	-0.401738
C76	C	2.012340	0.238850	0.098262
C77	C	1.512372	-0.142846	-0.401752
C78	C	2.012372	0.357154	0.098248
C79	C	1.481346	-0.569628	-0.881476
C80	C	1.981346	-0.069628	-0.381476
C81	C	1.543391	-0.507591	-0.922786
C82	C	2.043391	-0.007591	-0.422786
C83	C	1.537305	-0.513644	-1.017189
C84	C	2.037305	-0.013644	-0.517189
C85	C	1.487431	-0.563577	-0.787064
C86	C	1.987431	-0.063577	-0.287064
C87	C	1.526279	-0.524736	-0.185102
C88	C	2.026279	-0.024736	0.314898
C89	C	1.532455	-0.518465	-0.092438
C90	C	2.032455	-0.018465	0.407562
H91	H	0.955267	-0.577468	-0.261270
H92	H	1.455267	-0.077468	0.238730
H93	H	1.650308	-0.965152	-0.299078
H94	H	2.150308	-0.465152	0.200922
H95	H	1.085799	-0.400785	-0.299045
H96	H	1.585799	0.099215	0.200955
Br97	Br	1.102954	-0.769538	-0.352130
Br98	Br	1.602954	-0.269538	0.147870
H99	H	1.689136	-1.107041	-0.439472
H100	H	2.189136	-0.607041	0.060528
H101	H	0.940030	-0.676985	-0.504337
H102	H	1.440030	-0.176985	-0.004337
H103	H	1.070360	-0.500061	-0.542100
H104	H	1.570360	-0.000061	-0.042100
Br105	Br	0.922413	-0.308123	-0.451098
Br106	Br	1.422413	0.191877	0.048902
Br107	Br	1.385201	-0.665724	-0.940696
Br108	Br	1.885201	-0.165724	-0.440696
Br109	Br	1.639569	-0.411517	-0.863567
Br110	Br	2.139569	0.088483	-0.363567
Br111	Br	1.563189	-0.962924	-0.585090
Br112	Br	2.063189	-0.462924	-0.085090
Br113	Br	1.332263	-1.133713	-0.535959
Br114	Br	1.832263	-0.633713	-0.035959
H115	H	1.335605	-0.969404	-0.363966
H116	H	1.835605	-0.469404	0.136034
Br117	Br	1.461740	-1.113790	-0.218455
Br118	Br	1.961740	-0.613790	0.281545
