data_functionalizedCrystal
_audit_creation_method	'MofGen! by Chris Wilmer'
_symmetry_space_group_name_H-M	'P1'
_symmetry_Int_Tables_number	1
_symmetry_cell_setting	triclinic
loop_
_symmetry_equiv_pos_as_xyz
  x,y,z
_cell_length_a	11.026607
_cell_length_b	14.044220
_cell_length_c	10.065875
_cell_angle_alpha	99.592716
_cell_angle_beta	79.302338
_cell_angle_gamma	100.887447
loop_
_atom_site_label
_atom_site_type_symbol
_atom_site_fract_x
_atom_site_fract_y
_atom_site_fract_z
O1	O	1.670494	0.393284	-0.113515
O2	O	1.312203	0.347236	-0.113514
O3	O	1.485969	0.231359	-0.113501
O4	O	1.496729	0.509161	-0.113528
O5	O	1.452846	0.253569	0.113485
O6	O	1.279081	0.369446	0.113472
O7	O	1.637372	0.415494	0.113471
Zn8	Zn	1.452967	0.395996	0.149510
Zn9	Zn	1.496608	0.366734	-0.149554
O10	O	1.463606	0.531371	0.113458
C11	C	1.249512	0.349846	-0.000021
C12	C	1.112056	0.324521	-0.000020
C13	C	1.045821	0.394445	-0.000028
C14	C	0.903753	0.368273	-0.000027
C15	C	1.464699	0.206346	-0.000008
C16	C	1.450655	0.098724	-0.000006
C17	C	1.424983	-0.098320	-0.000025
C18	C	1.524588	-0.138958	-0.000030
C19	C	1.510304	-0.248600	-0.000041
C20	C	1.439265	0.011332	-0.000015
C21	C	1.700064	0.412884	-0.000025
C22	C	1.837520	0.438207	-0.000035
C23	C	1.484876	0.556383	-0.000039
C24	C	1.498921	0.664004	-0.000049
N25	N	1.423193	0.415967	0.353614
N26	N	1.526391	0.346756	-0.353657
C27	C	1.486240	0.373675	0.421397
C28	C	1.463335	0.389055	0.578563
H29	H	1.094290	0.473686	-0.000028
H30	H	1.597325	0.299155	0.588028
C31	C	1.367500	0.453357	0.657332
C32	C	1.384690	0.561810	0.637808
C33	C	1.288857	0.626111	0.716579
C34	C	1.175834	0.581958	0.814872
C35	C	1.158639	0.473499	0.834400
C36	C	1.254472	0.409198	0.755630
H37	H	1.468361	0.594500	0.565042
H38	H	1.301587	0.706400	0.702122
H39	H	1.104893	0.629557	0.873183
H40	H	1.074968	0.440809	0.907167
H41	H	1.241742	0.328909	0.770086
C42	C	1.327362	0.480266	0.432388
C43	C	1.344553	0.588720	0.412864
C44	C	1.248720	0.653020	0.491635
C45	C	1.135697	0.608867	0.589928
C46	C	1.118502	0.500408	0.609456
C47	C	1.214334	0.436108	0.530686
H48	H	1.428224	0.621410	0.340098
H49	H	1.261450	0.733309	0.477178
H50	H	1.064756	0.656466	0.648239
H51	H	1.034831	0.467718	0.682223
H52	H	1.201605	0.355819	0.545143
C53	C	0.902983	0.545264	-0.000042
C54	C	0.898247	0.601007	-0.117915
C55	C	0.963712	0.708062	-0.117920
C56	C	1.033912	0.759373	-0.000053
C57	C	1.038650	0.703630	0.117828
C58	C	0.973186	0.596576	0.117834
H59	H	0.846279	0.563023	-0.205175
H60	H	0.960204	0.749326	-0.205185
H61	H	1.082373	0.838621	-0.000058
H62	H	1.090619	0.741614	0.205088
H63	H	0.976694	0.555311	0.205098
H64	H	0.855293	0.289025	-0.000054
C65	C	1.654282	-0.074722	-0.000014
C66	C	1.761612	-0.093665	-0.117875
C67	C	1.891299	-0.029424	-0.117855
C68	C	1.913657	0.053761	0.000027
C69	C	1.806324	0.072708	0.117898
C70	C	1.676637	0.008466	0.117877
H71	H	1.745064	-0.155247	-0.205147
H72	H	1.970754	-0.043451	-0.205111
H73	H	2.009659	0.101316	0.000043
H74	H	1.822872	0.134289	0.205169
H75	H	1.597182	0.022493	0.205133
H76	H	1.063591	0.245278	-0.000048
H77	H	1.557169	0.326076	0.363079
H78	H	1.328988	-0.145870	-0.000029
