data_functionalizedCrystal
_audit_creation_method	'MofGen! by Chris Wilmer'
_symmetry_space_group_name_H-M	'P1'
_symmetry_Int_Tables_number	1
_symmetry_cell_setting	triclinic
loop_
_symmetry_equiv_pos_as_xyz
  x,y,z
_cell_length_a	12.759401
_cell_length_b	18.101395
_cell_length_c	12.759393
_cell_angle_alpha	89.966214
_cell_angle_beta	89.981665
_cell_angle_gamma	90.031265
loop_
_atom_site_label
_atom_site_type_symbol
_atom_site_fract_x
_atom_site_fract_y
_atom_site_fract_z
Zn1	Zn	1.606134	-0.294780	-0.593968
Zn2	Zn	1.605978	-0.418643	-0.418282
Zn3	Zn	1.430436	-0.294820	-0.418307
Zn4	Zn	1.430374	-0.418585	-0.593923
O5	O	1.518231	-0.356707	-0.506120
O6	O	1.753134	-0.311219	-0.570671
O7	O	1.582653	-0.402258	-0.271264
O8	O	1.453834	-0.191182	-0.441638
O9	O	1.753020	-0.402220	-0.441595
O10	O	1.582918	-0.191153	-0.570695
O11	O	1.453683	-0.311286	-0.271283
O12	O	1.283407	-0.311230	-0.441595
O13	O	1.453728	-0.402121	-0.740950
O14	O	1.283362	-0.402160	-0.570619
O15	O	1.582858	-0.311163	-0.740983
O16	O	1.582593	-0.522268	-0.441552
O17	O	1.453578	-0.522225	-0.570595
C18	C	1.245263	-0.356693	-0.506106
C19	C	1.128487	-0.356705	-0.506125
C20	C	1.073628	-0.404128	-0.573197
C21	C	0.963904	-0.404137	-0.573208
C22	C	0.963907	-0.309299	-0.439066
C23	C	1.073629	-0.309287	-0.439061
C24	C	1.073626	-0.458885	-0.650639
C25	C	0.963902	-0.458894	-0.650650
C26	C	1.518090	-0.549117	-0.506089
C27	C	1.518126	-0.631432	-0.506111
C28	C	1.518357	-0.930522	-0.506168
C29	C	1.437372	-0.899201	-0.587559
C30	C	1.436987	-0.813583	-0.587305
C31	C	1.518242	-0.782140	-0.506140
C32	C	1.488262	-0.813300	-0.395415
C33	C	1.487740	-0.898945	-0.395903
C34	C	1.629499	-0.898864	-0.534526
C35	C	1.628846	-0.813212	-0.536954
C36	C	1.518179	-0.698280	-0.506118
C37	C	1.518417	-1.014382	-0.506182
C38	C	1.792264	-0.356721	-0.506135
C39	C	1.909041	-0.356727	-0.506141
C40	C	1.518304	-0.356631	-0.780153
C41	C	1.518335	-0.356599	-0.896930
C42	C	1.518401	-0.163545	-0.506174
C43	C	1.518473	-0.081231	-0.506197
C44	C	1.451228	-0.309202	-1.061534
C45	C	1.451202	-0.309223	-0.951810
C46	C	1.585505	-0.403951	-0.951780
C47	C	1.585536	-0.403926	-1.061502
C48	C	1.373685	-0.254513	-1.061551
C49	C	1.373659	-0.254534	-0.951826
C50	C	1.518219	-0.356729	-0.233153
C51	C	1.518391	-0.356553	-0.116376
H52	H	1.103441	-0.443589	-0.732046
N53	N	1.460520	-0.787157	-0.690303
N54	N	1.477342	-0.831966	-0.762879
H55	H	1.493959	-0.813306	-0.835628
N56	N	1.387423	-0.786487	-0.364713
N57	N	1.377961	-0.748918	-0.283094
H58	H	1.306741	-0.729982	-0.261412
H59	H	1.107618	-0.513339	-0.621352
N60	N	1.334642	-0.926270	-0.564318
N61	N	1.286060	-0.963775	-0.630670
H62	H	1.213505	-0.982891	-0.614255
H63	H	0.929913	-0.438421	-0.728003
H64	H	1.545392	-0.792935	-0.333119
H65	H	0.934083	-0.516236	-0.628715
N66	N	1.460731	-0.924921	-0.690900
N67	N	1.537331	-0.966642	-0.705773
H68	H	1.553850	-0.984792	-0.778765
N69	N	1.663803	-0.925892	-0.634079
N70	N	1.674388	-0.993786	-0.648405
H71	H	1.698608	-1.012877	-0.718717
N72	N	1.410243	-0.186196	-0.909136
N73	N	1.414788	-0.177676	-0.812034
H74	H	1.440625	-0.129414	-0.781880
N75	N	1.333636	-0.787970	-0.563744
N76	N	1.261568	-0.833347	-0.547429
H77	H	1.188572	-0.815259	-0.530786
H78	H	1.406495	-0.918990	-0.371879
N79	N	1.657199	-0.787656	-0.639180
N80	N	1.596234	-0.746708	-0.689213
H81	H	1.616254	-0.728656	-0.761412
N82	N	1.558504	-0.924935	-0.317210
N83	N	1.608113	-0.879818	-0.262101
H84	H	1.658077	-0.898170	-0.206514
N85	N	1.271552	-0.273806	-0.914464
N86	N	1.199637	-0.287372	-0.978120
H87	H	1.127526	-0.300982	-0.951734
H88	H	1.640173	-0.442521	-0.907088
N89	N	1.276706	-0.280254	-1.104237
N90	N	1.223587	-0.239015	-1.162128
H91	H	1.155094	-0.257195	-1.192275
N92	N	1.708537	-0.786356	-0.467998
N93	N	1.685006	-0.743690	-0.394690
H94	H	1.741285	-0.724725	-0.345977
H95	H	1.689836	-0.919118	-0.475245
H96	H	1.118290	-0.270665	-0.384452
H97	H	0.919228	-0.270692	-0.384467
H98	H	1.640236	-0.442477	-1.106151
N99	N	1.401089	-0.182551	-1.098925
N100	N	1.420380	-0.131871	-1.035278
H101	H	1.439733	-0.081048	-1.061673
