data_functionalizedCrystal
_audit_creation_method	'MofGen! by Chris Wilmer'
_symmetry_space_group_name_H-M	'P1'
_symmetry_Int_Tables_number	1
_symmetry_cell_setting	triclinic
loop_
_symmetry_equiv_pos_as_xyz
  x,y,z
_cell_length_a	12.759400
_cell_length_b	12.759401
_cell_length_c	10.686551
_cell_angle_alpha	85.604852
_cell_angle_beta	85.594162
_cell_angle_gamma	90.013799
loop_
_atom_site_label
_atom_site_type_symbol
_atom_site_fract_x
_atom_site_fract_y
_atom_site_fract_z
Zn1	Zn	-0.372642	1.651855	-0.713448
Zn2	Zn	0.127358	2.151855	-0.213448
Zn3	Zn	-0.561843	1.638263	-0.502445
Zn4	Zn	-0.061843	2.138263	-0.002445
Zn5	Zn	-0.386175	1.462672	-0.502464
Zn6	Zn	0.113825	1.962672	-0.002464
Zn7	Zn	-0.548280	1.476142	-0.713397
Zn8	Zn	-0.048280	1.976142	-0.213397
O9	O	-0.467235	1.557233	-0.607939
O10	O	0.032765	2.057233	-0.107939
O11	O	-0.397752	1.797074	-0.685471
O12	O	0.102248	2.297074	-0.185471
O13	O	-0.549880	1.603645	-0.325867
O14	O	-0.049880	2.103645	0.174133
O15	O	-0.237357	1.487818	-0.530481
O16	O	0.262643	1.987818	-0.030481
O17	O	-0.536758	1.787088	-0.530449
O18	O	-0.036758	2.287088	-0.030449
O19	O	-0.227414	1.626810	-0.685489
O20	O	0.272586	2.126810	-0.185489
O21	O	-0.420818	1.474639	-0.325880
O22	O	0.079182	1.974639	0.174120
O23	O	-0.407666	1.317437	-0.530432
O24	O	0.092334	1.817437	-0.030432
O25	O	-0.513641	1.510776	-0.889985
O26	O	-0.013641	2.010776	-0.389985
O27	O	-0.526764	1.327334	-0.685403
O28	O	-0.026764	1.827334	-0.185403
O29	O	-0.384601	1.639872	-0.890022
O30	O	0.115399	2.139872	-0.390022
O31	O	-0.707067	1.616707	-0.530400
O32	O	-0.207067	2.116707	-0.030400
O33	O	-0.697102	1.497597	-0.685385
O34	O	-0.197102	1.997597	-0.185385
C35	C	-0.467212	1.284264	-0.607915
C36	C	0.032788	1.784264	-0.107915
C37	C	-0.467226	1.167489	-0.607934
C38	C	0.032774	1.667489	-0.107934
C39	C	-0.405114	1.107452	-0.527389
C40	C	0.094886	1.607452	-0.027389
C41	C	-0.405137	0.997729	-0.527405
C42	C	0.094863	1.497729	-0.027405
C43	C	-0.529388	1.008090	-0.688523
C44	C	-0.029388	1.508090	-0.188523
C45	C	-0.529369	1.117810	-0.688499
C46	C	-0.029369	1.617810	-0.188499
C47	C	-0.342970	1.157131	-0.446824
C48	C	0.157030	1.657131	0.053176
C49	C	-0.280852	1.097094	-0.366273
C50	C	0.219148	1.597094	0.133727
C51	C	-0.280876	0.987371	-0.366289
C52	C	0.219124	1.487371	0.133711
C53	C	-0.343018	0.937685	-0.446856
C54	C	0.156982	1.437685	0.053144
C55	C	-0.740204	1.557169	-0.607912
C56	C	-0.240204	2.057169	-0.107912
C57	C	-0.856979	1.557241	-0.607943
C58	C	-0.356979	2.057241	-0.107943
C59	C	-0.916989	1.619341	-0.527332
C60	C	-0.416989	2.119341	-0.027332
C61	C	-1.026710	1.619408	-0.527370
C62	C	-0.526710	2.119408	-0.027370
C63	C	-1.016402	1.495265	-0.688636
C64	C	-0.516402	1.995265	-0.188636
C65	C	-0.906682	1.495205	-0.688603
C66	C	-0.406682	1.995205	-0.188603
C67	C	-0.867286	1.681377	-0.446672
C68	C	-0.367286	2.181377	0.053328
C69	C	-0.927296	1.743482	-0.366053
C70	C	-0.427296	2.243482	0.133947
C71	C	-1.037018	1.743549	-0.366092
C72	C	-0.537018	2.243549	0.133908
C73	C	-1.086729	1.681511	-0.446750
C74	C	-0.586729	2.181511	0.053250
C75	C	-0.193198	1.557328	-0.607993
C76	C	0.306802	2.057328	-0.107993
C77	C	-0.076420	1.557368	-0.608016
C78	C	0.423580	2.057368	-0.108016
C79	C	-0.446098	1.578343	-0.937069
C80	C	0.053902	2.078343	-0.437069
C81	C	-0.437091	1.587338	-1.077325
C82	C	0.062909	2.087338	-0.577325
C83	C	-0.467258	1.831268	-0.607963
C84	C	0.032742	2.331268	-0.107963
C85	C	-0.467269	1.948045	-0.607974
C86	C	0.032731	2.448045	-0.107974
C87	C	-0.488213	1.536266	-0.280088
C88	C	0.011787	2.036266	0.219912
C89	C	-0.496925	1.527474	-0.139833
C90	C	0.003075	2.027474	0.360167
H91	H	-0.230304	0.938491	-0.300693
H92	H	0.269696	1.438491	0.199307
H93	H	-0.579945	1.166694	-0.754088
H94	H	-0.079945	1.666694	-0.254088
O95	O	-1.205073	1.681578	-0.446789
O96	O	-0.705073	2.181578	0.053211
H97	H	-1.232290	1.762462	-0.472375
H98	H	-0.732290	2.262462	0.027625
O99	O	-0.343101	0.819338	-0.446852
O100	O	0.156899	1.319338	0.053148
H101	H	-0.315908	0.796505	-0.542073
H102	H	0.184092	1.296505	-0.042073
O103	O	-0.573901	1.450447	-1.068614
O104	O	-0.073901	1.950447	-0.568614
H105	H	-0.631176	1.493627	-1.008547
H106	H	-0.131176	1.993627	-0.508547
H107	H	-0.378975	1.645481	-1.131116
H108	H	0.121025	2.145481	-0.631116
H109	H	-0.230265	1.137555	-0.300672
H110	H	0.269735	1.637555	0.199328
O111	O	-0.342954	1.275473	-0.446795
O112	O	0.157046	1.775473	0.053205
H113	H	-0.262092	1.306062	-0.472455
H114	H	0.237908	1.806062	0.027545
O115	O	-0.596435	0.954544	-0.775422
O116	O	-0.096435	1.454544	-0.275422
H117	H	-0.545406	0.908699	-0.839768
H118	H	-0.045406	1.408699	-0.339768
O119	O	-0.748943	1.681308	-0.446639
O120	O	-0.248943	2.181308	0.053361
H121	H	-0.724460	1.734883	-0.377018
H122	H	-0.224460	2.234883	0.122982
O123	O	-0.873688	1.810413	-0.279082
O124	O	-0.373688	2.310413	0.220918
H125	H	-0.787311	1.799934	-0.292594
H126	H	-0.287311	2.299934	0.207406
H127	H	-1.085875	1.794125	-0.300457
H128	H	-0.585875	2.294125	0.199543
H129	H	-1.056885	1.444756	-0.754303
H130	H	-0.556885	1.944756	-0.254303
H131	H	-0.857820	1.444638	-0.754245
H132	H	-0.357820	1.944638	-0.254245
