data_functionalizedCrystal
_audit_creation_method	'MofGen! by Chris Wilmer'
_symmetry_space_group_name_H-M	'P1'
_symmetry_Int_Tables_number	1
_symmetry_cell_setting	triclinic
loop_
_symmetry_equiv_pos_as_xyz
  x,y,z
_cell_length_a	21.295418
_cell_length_b	21.295417
_cell_length_c	21.295411
_cell_angle_alpha	89.978356
_cell_angle_beta	89.956262
_cell_angle_gamma	90.046319
loop_
_atom_site_label
_atom_site_type_symbol
_atom_site_fract_x
_atom_site_fract_y
_atom_site_fract_z
Zn1	Zn	0.962356	-0.250415	-0.356234
Zn2	Zn	1.462356	0.249585	0.143766
Zn3	Zn	0.962258	-0.355667	-0.250959
Zn4	Zn	1.462258	0.144333	0.249041
Zn5	Zn	0.857079	-0.250445	-0.250943
Zn6	Zn	1.357079	0.249555	0.249057
Zn7	Zn	0.857048	-0.355680	-0.356155
Zn8	Zn	1.357048	0.144320	0.143845
O9	O	0.909685	-0.303052	-0.303573
O10	O	1.409685	0.196948	0.196427
O11	O	1.050432	-0.264360	-0.342308
O12	O	1.550432	0.235640	0.157692
O13	O	0.948278	-0.341716	-0.162867
O14	O	1.448278	0.158284	0.337133
O15	O	0.871098	-0.162351	-0.264937
O16	O	1.371098	0.337649	0.235063
O17	O	1.050361	-0.341688	-0.264963
O18	O	1.550361	0.158312	0.235037
O19	O	0.948444	-0.162330	-0.342293
O20	O	1.448444	0.337670	0.157707
O21	O	0.871003	-0.264410	-0.162856
O22	O	1.371003	0.235590	0.337144
O23	O	0.768985	-0.264422	-0.264861
O24	O	1.268985	0.235578	0.235139
O25	O	0.871046	-0.341709	-0.444255
O26	O	1.371046	0.158291	0.055745
O27	O	0.768963	-0.341738	-0.342160
O28	O	1.268963	0.158262	0.157840
O29	O	0.948415	-0.264372	-0.444313
O30	O	1.448415	0.235628	0.055687
O31	O	0.948248	-0.443758	-0.264887
O32	O	1.448248	0.056242	0.235113
O33	O	0.870951	-0.443767	-0.342175
O34	O	1.370951	0.056233	0.157825
C35	C	0.746134	-0.303085	-0.303500
C36	C	1.246134	0.196915	0.196500
C37	C	0.676166	-0.303114	-0.303484
C38	C	1.176166	0.196886	0.196516
C39	C	0.909603	-0.466603	-0.303538
C40	C	1.409603	0.033397	0.196462
C41	C	0.909625	-0.536571	-0.303544
C42	C	1.409625	-0.036571	0.196456
C43	C	0.643304	-0.343426	-0.343674
C44	C	1.143304	0.156574	0.156326
C45	C	0.577561	-0.343410	-0.343702
C46	C	1.077561	0.156590	0.156298
C47	C	0.544683	-0.303090	-0.303530
C48	C	1.044683	0.196910	0.196470
C49	C	0.577553	-0.262770	-0.263337
C50	C	1.077553	0.237230	0.236663
C51	C	0.643294	-0.262783	-0.263315
C52	C	1.143294	0.237217	0.236685
N53	N	0.441407	-0.298163	-0.248472
N54	N	0.941407	0.201837	0.251528
N55	N	0.378956	-0.298155	-0.248495
N56	N	0.878956	0.201845	0.251505
C57	C	0.346608	-0.303050	-0.303596
C58	C	0.846608	0.196950	0.196404
N59	N	0.379072	-0.307965	-0.358675
N60	N	0.879072	0.192035	0.141325
N61	N	0.441529	-0.307976	-0.358650
N62	N	0.941529	0.192024	0.141350
C63	C	0.473398	-0.303072	-0.303550
C64	C	0.973398	0.196928	0.196450
C65	C	0.242461	-0.343346	-0.343820
C66	C	0.742461	0.156654	0.156180
C67	C	0.176717	-0.343326	-0.343849
C68	C	0.676717	0.156674	0.156151
C69	C	0.176710	-0.262690	-0.263479
C70	C	0.676710	0.237310	0.236521
C71	C	0.242453	-0.262707	-0.263455
C72	C	0.742453	0.237293	0.236545
C73	C	0.275324	-0.303038	-0.303625
C74	C	0.775324	0.196962	0.196375
C75	C	0.949910	-0.569412	-0.263342
C76	C	1.449910	-0.069412	0.236658
C77	C	0.949939	-0.635155	-0.263356
C78	C	1.449939	-0.135155	0.236644
C79	C	0.909673	-0.668054	-0.303566
C80	C	1.409673	-0.168054	0.196434
C81	C	0.869386	-0.635205	-0.343776
C82	C	1.369386	-0.135205	0.156224
C83	C	0.869362	-0.569464	-0.343765
C84	C	1.369362	-0.069464	0.156235
N85	N	0.854606	-0.771336	-0.308340
N86	N	1.354606	-0.271336	0.191660
N87	N	0.854630	-0.833787	-0.308347
N88	N	1.354630	-0.333787	0.191653
C89	C	0.909743	-0.866129	-0.303602
C90	C	1.409743	-0.366129	0.196398
N91	N	0.964832	-0.833659	-0.298838
N92	N	1.464832	-0.333659	0.201162
N93	N	0.964807	-0.771202	-0.298828
N94	N	1.464807	-0.271202	0.201172
C95	C	0.909695	-0.739339	-0.303582
C96	C	1.409695	-0.239339	0.196418
C97	C	0.950063	-0.970255	-0.263413
C98	C	1.450063	-0.470255	0.236587
C99	C	0.950094	-1.035999	-0.263431
C100	C	1.450094	-0.535999	0.236569
C101	C	0.869535	-1.036048	-0.343848
C102	C	1.369535	-0.536048	0.156152
C103	C	0.869510	-0.970305	-0.343833
C104	C	1.369510	-0.470305	0.156167
C105	C	0.909773	-0.937413	-0.303612
C106	C	1.409773	-0.437413	0.196388
C107	C	1.073876	-0.303019	-0.303646
C108	C	1.573876	0.196981	0.196354
C109	C	1.143844	-0.303005	-0.303677
C110	C	1.643844	0.196995	0.196323
C111	C	0.909738	-0.303038	-0.467763
C112	C	1.409738	0.196962	0.032237
C113	C	0.909760	-0.303033	-0.537731
C114	C	1.409760	0.196967	-0.037731
C115	C	0.909785	-0.138861	-0.303622
C116	C	1.409785	0.361139	0.196378
C117	C	0.909828	-0.068893	-0.303642
C118	C	1.409828	0.431107	0.196358
C119	C	0.950044	-0.262761	-0.570629
C120	C	1.450044	0.237239	-0.070629
C121	C	0.950043	-0.262734	-0.636371
C122	C	1.450043	0.237266	-0.136371
C123	C	0.909765	-0.302989	-0.669214
C124	C	1.409765	0.197011	-0.169214
C125	C	0.869473	-0.343263	-0.636308
C126	C	1.369473	0.156737	-0.136308
C127	C	0.869470	-0.343285	-0.570567
C128	C	1.369470	0.156715	-0.070567
N129	N	0.904908	-0.358058	-0.772428
N130	N	1.404908	0.141942	-0.272428
N131	N	0.904914	-0.358036	-0.834879
N132	N	1.404914	0.141964	-0.334879
C133	C	0.909769	-0.302926	-0.867289
C134	C	1.409769	0.197074	-0.367289
N135	N	0.914629	-0.247837	-0.834888
N136	N	1.414629	0.252163	-0.334888
N137	N	0.914627	-0.247860	-0.772430
N138	N	1.414627	0.252140	-0.272430
C139	C	0.909763	-0.302970	-0.740499
C140	C	1.409763	0.197030	-0.240499
C141	C	0.950054	-0.262621	-0.971472
C142	C	1.450054	0.237379	-0.471472
C143	C	0.950049	-0.262593	-1.037216
C144	C	1.450049	0.237407	-0.537216
C145	C	0.869482	-0.343128	-1.037151
C146	C	1.369482	0.156872	-0.537151
C147	C	0.869484	-0.343151	-0.971409
C148	C	1.369484	0.156849	-0.471409
C149	C	0.909773	-0.302898	-0.938573
C150	C	1.409773	0.197102	-0.438573
C151	C	0.909670	-0.303019	-0.140021
C152	C	1.409670	0.196981	0.359979
C153	C	0.909769	-0.302848	-0.070054
C154	C	1.409769	0.197152	0.429946
H155	H	0.670063	-0.376266	-0.376384
H156	H	1.170063	0.123734	0.123616
O157	O	0.989145	-0.938367	-0.224261
O158	O	1.489145	-0.438367	0.275739
C159	C	1.019719	-0.918245	-0.117216
C160	C	1.519719	-0.418245	0.382784
C161	C	0.975432	-0.954407	-0.161484
C162	C	1.475432	-0.454407	0.338516
H163	H	1.008639	-0.931190	-0.066451
H164	H	1.508639	-0.431190	0.433549
H165	H	1.070489	-0.931113	-0.128284
H166	H	1.570489	-0.431113	0.371716
H167	H	1.012788	-0.865620	-0.124144
H168	H	1.512788	-0.365620	0.375856
H169	H	0.982307	-1.007041	-0.154581
H170	H	1.482307	-0.507041	0.345419
H171	H	0.924678	-0.941487	-0.150405
H172	H	1.424678	-0.441487	0.349595
O173	O	0.830378	-0.382457	-0.668139
O174	O	1.330378	0.117543	-0.168139
C175	C	0.799782	-0.489536	-0.688252
C176	C	1.299782	0.010464	-0.188252
C177	C	0.844089	-0.445222	-0.652156
C178	C	1.344089	0.054778	-0.152156
H179	H	0.810860	-0.540291	-0.675353
H180	H	1.310860	-0.040291	-0.175353
H181	H	0.749018	-0.478547	-0.675279
H182	H	1.249018	0.021453	-0.175279
H183	H	0.806693	-0.482573	-0.740888
H184	H	1.306693	0.017427	-0.240888
H185	H	0.837234	-0.452160	-0.599512
H186	H	1.337234	0.047840	-0.099512
H187	H	0.894836	-0.456222	-0.665181
H188	H	1.394836	0.043778	-0.165181
O189	O	0.830311	-0.938497	-0.382900
O190	O	1.330311	-0.438497	0.117100
C191	C	0.750436	-0.945485	-0.462685
C192	C	1.250436	-0.445485	0.037315
C193	C	0.794786	-0.981586	-0.418461
C194	C	1.294786	-0.481586	0.081539
H195	H	0.721712	-0.980307	-0.491458
H196	H	1.221712	-0.480307	0.008542
H197	H	0.717482	-0.914780	-0.433766
H198	H	1.217482	-0.414780	0.066234
H199	H	0.779317	-0.914637	-0.495605
H200	H	1.279317	-0.414637	0.004395
H201	H	0.765955	-1.012468	-0.385532
H202	H	1.265955	-0.512468	0.114468
H203	H	0.827742	-1.012251	-0.447419
H204	H	1.327742	-0.512251	0.052581
H205	H	0.982857	-0.229842	-0.944736
H206	H	1.482857	0.270158	-0.444736
O207	O	0.274370	-0.382449	-0.382934
O208	O	0.774370	0.117551	0.117066
C209	C	0.294549	-0.413186	-0.489947
C210	C	0.794549	0.086814	0.010053
C211	C	0.258387	-0.368855	-0.445722
C212	C	0.758387	0.131145	0.054278
H213	H	0.281631	-0.402220	-0.540720
H214	H	0.781631	0.097780	-0.040720
H215	H	0.347189	-0.406270	-0.483079
H216	H	0.847189	0.093730	0.016921
H217	H	0.281567	-0.463922	-0.478775
H218	H	0.781567	0.036078	0.021225
H219	H	0.271317	-0.318102	-0.456867
H220	H	0.771317	0.181898	0.043133
H221	H	0.205756	-0.375825	-0.452599
H222	H	0.705756	0.124175	0.047401
H223	H	0.550800	-0.376236	-0.376431
H224	H	1.050800	0.123764	0.123569
H225	H	0.982850	-0.229984	-0.543898
H226	H	1.482850	0.270016	-0.043898
O227	O	0.545591	-0.223696	-0.224243
O228	O	1.045591	0.276304	0.275757
C229	C	0.471260	-0.215092	-0.139314
C230	C	0.971260	0.284908	0.360686
C231	C	0.507426	-0.259419	-0.183540
C232	C	1.007426	0.240581	0.316460
H233	H	0.440385	-0.243957	-0.106403
H234	H	0.940385	0.256043	0.393597
H235	H	0.506017	-0.186294	-0.110538
H236	H	1.006017	0.313706	0.389462
H237	H	0.440571	-0.182201	-0.168296
H238	H	0.940571	0.317799	0.331704
H239	H	0.538116	-0.292349	-0.154607
H240	H	1.038116	0.207651	0.345393
H241	H	0.472635	-0.288173	-0.212318
H242	H	0.972635	0.211827	0.287682
O243	O	0.830427	-0.382441	-0.538537
O244	O	1.330427	0.117559	-0.038537
C245	C	0.821914	-0.467482	-0.464333
C246	C	1.321914	0.032518	0.035667
C247	C	0.866198	-0.423167	-0.500558
C248	C	1.366198	0.076833	-0.000558
H249	H	0.850817	-0.500430	-0.433628
H250	H	1.350817	-0.000430	0.066372
H251	H	0.789027	-0.438634	-0.433486
H252	H	1.289027	0.061366	0.066514
H253	H	0.793108	-0.496221	-0.499107
H254	H	1.293108	0.003779	0.000893
H255	H	0.895045	-0.394419	-0.465830
H256	H	1.395045	0.105581	0.034170
H257	H	0.899043	-0.452052	-0.531414
H258	H	1.399043	0.047948	-0.031414
H259	H	0.670050	-0.229954	-0.230588
H260	H	1.170050	0.270046	0.269412
O261	O	0.989242	-0.223450	-1.069077
O262	O	1.489242	0.276550	-0.569077
C263	C	1.069134	-0.143557	-1.062200
C264	C	1.569134	0.356443	-0.562200
C265	C	1.024790	-0.187864	-1.026038
C266	C	1.524790	0.312136	-0.526038
H267	H	1.097876	-0.114764	-1.027419
H268	H	1.597876	0.385236	-0.527419
H269	H	1.102071	-0.172412	-1.092986
H270	H	1.602071	0.327588	-0.592986
H271	H	1.040246	-0.110660	-1.092974
H272	H	1.540246	0.389340	-0.592974
H273	H	1.053627	-0.220769	-0.995231
H274	H	1.553627	0.279231	-0.495231
H275	H	0.991851	-0.158969	-0.995292
H276	H	1.491851	0.341031	-0.495292
H277	H	0.149962	-0.376152	-0.376580
H278	H	0.649962	0.123848	0.123420
H279	H	0.836680	-0.375898	-1.063891
H280	H	1.336680	0.124102	-0.563891
O281	O	0.830334	-0.382333	-0.939546
O282	O	1.330334	0.117667	-0.439546
C283	C	0.750393	-0.462178	-0.946422
C284	C	1.250393	0.037822	-0.446422
C285	C	0.794713	-0.417847	-0.982584
C286	C	1.294713	0.082153	-0.482584
H287	H	0.721573	-0.490893	-0.981203
H288	H	1.221573	0.009107	-0.481203
H289	H	0.779240	-0.495141	-0.915679
H290	H	1.279240	0.004859	-0.415679
H291	H	0.717523	-0.433281	-0.915605
H292	H	1.217523	0.066719	-0.415605
H293	H	0.827593	-0.446694	-1.013436
H294	H	1.327593	0.053306	-0.513436
H295	H	0.765827	-0.384883	-1.013287
H296	H	1.265827	0.115117	-0.513287
H297	H	0.149942	-0.229857	-0.230773
H298	H	0.649942	0.270143	0.269227
O299	O	0.989341	-1.067805	-0.224410
O300	O	1.489341	-0.567805	0.275590
C301	C	1.096467	-1.087746	-0.194041
C302	C	1.596467	-0.587746	0.305959
C303	C	1.052075	-1.051693	-0.238262
C304	C	1.552075	-0.551693	0.261738
H305	H	1.147197	-1.074743	-0.205233
H306	H	1.647197	-0.574743	0.294767
H307	H	1.085490	-1.074838	-0.143257
H308	H	1.585490	-0.574838	0.356743
H309	H	1.089575	-1.140388	-0.200924
H310	H	1.589575	-0.640388	0.299076
H311	H	1.058942	-0.999043	-0.231435
H312	H	1.558942	-0.499043	0.268565
H313	H	1.063063	-1.064653	-0.289029
H314	H	1.563063	-0.564653	0.210971
H315	H	0.269209	-0.229884	-0.230726
H316	H	0.769209	0.270116	0.269274
O317	O	0.989086	-0.537559	-0.224259
O318	O	1.489086	-0.037559	0.275741
C319	C	1.068966	-0.544452	-0.144475
C320	C	1.568966	-0.044452	0.355525
C321	C	1.024640	-0.580605	-0.188712
C322	C	1.524640	-0.080605	0.311288
H323	H	1.097713	-0.579239	-0.115715
H324	H	1.597713	-0.079239	0.384285
H325	H	1.101899	-0.513640	-0.173385
H326	H	1.601899	-0.013640	0.326615
H327	H	1.040064	-0.513705	-0.111545
H328	H	1.540064	-0.013705	0.388455
H329	H	1.053491	-0.611386	-0.221651
H330	H	1.553491	-0.111386	0.278349
H331	H	0.991705	-0.611378	-0.159764
H332	H	1.491705	-0.111378	0.340236
H333	H	0.836752	-1.062833	-0.376591
H334	H	1.336752	-0.562833	0.123409
O335	O	0.989125	-0.667101	-0.224382
O336	O	1.489125	-0.167101	0.275618
C337	C	1.074089	-0.741288	-0.215995
C338	C	1.574089	-0.241288	0.284005
C339	C	1.029772	-0.705136	-0.260210
C340	C	1.529772	-0.205136	0.239790
H341	H	1.106955	-0.772058	-0.244944
H342	H	1.606955	-0.272058	0.255056
H343	H	1.102909	-0.706523	-0.187249
H344	H	1.602909	-0.206523	0.312751
H345	H	1.045177	-0.772081	-0.183050
H346	H	1.545177	-0.272081	0.316950
H347	H	1.058635	-0.674342	-0.293193
H348	H	1.558635	-0.174342	0.206807
H349	H	1.000950	-0.739935	-0.288912
H350	H	1.500950	-0.239935	0.211088
O351	O	0.989239	-0.223595	-0.668240
O352	O	1.489239	0.276405	-0.168240
C353	C	1.069132	-0.143702	-0.661371
C354	C	1.569132	0.356298	-0.161371
C355	C	1.024786	-0.188004	-0.625204
C356	C	1.524786	0.311996	-0.125204
H357	H	1.097874	-0.114905	-0.626592
H358	H	1.597874	0.385095	-0.126592
H359	H	1.102069	-0.172562	-0.692153
H360	H	1.602069	0.327438	-0.192153
H361	H	1.040245	-0.110808	-0.692149
H362	H	1.540245	0.389192	-0.192149
H363	H	1.053622	-0.220906	-0.594392
H364	H	1.553622	0.279094	-0.094392
H365	H	0.991847	-0.159104	-0.594462
H366	H	1.491847	0.340896	-0.094462
H367	H	0.836602	-0.661996	-0.376516
H368	H	1.336602	-0.161996	0.123484
H369	H	0.836557	-0.542724	-0.376503
H370	H	1.336557	-0.042724	0.123497
