data_functionalizedCrystal
_audit_creation_method	'MofGen! by Chris Wilmer'
_symmetry_space_group_name_H-M	'P1'
_symmetry_Int_Tables_number	1
_symmetry_cell_setting	triclinic
loop_
_symmetry_equiv_pos_as_xyz
  x,y,z
_cell_length_a	12.759401
_cell_length_b	12.759400
_cell_length_c	12.759393
_cell_angle_alpha	89.969553
_cell_angle_beta	89.981382
_cell_angle_gamma	90.013592
loop_
_atom_site_label
_atom_site_type_symbol
_atom_site_fract_x
_atom_site_fract_y
_atom_site_fract_z
Zn1	Zn	1.606267	-0.418192	-0.593993
Zn2	Zn	1.606166	-0.593911	-0.418316
Zn3	Zn	1.430569	-0.418248	-0.418332
Zn4	Zn	1.430562	-0.593831	-0.593958
O5	O	1.518391	-0.506046	-0.506150
O6	O	1.753274	-0.441512	-0.570697
O7	O	1.582833	-0.570666	-0.271297
O8	O	1.453920	-0.271220	-0.441655
O9	O	1.753200	-0.570612	-0.441629
O10	O	1.583005	-0.271179	-0.570712
O11	O	1.453822	-0.441607	-0.271309
O12	O	1.283547	-0.441530	-0.441621
O13	O	1.453909	-0.570475	-0.740983
O14	O	1.283542	-0.570530	-0.570652
O15	O	1.582998	-0.441434	-0.741009
O16	O	1.582826	-0.740922	-0.441594
O17	O	1.453811	-0.740863	-0.570637
C18	C	1.245423	-0.506028	-0.506135
C19	C	1.128647	-0.506045	-0.506153
C20	C	1.073824	-0.438944	-0.573463
C21	C	0.964100	-0.438955	-0.573470
C22	C	0.964031	-0.573177	-0.438855
C23	C	1.073753	-0.573160	-0.438843
C24	C	1.518336	-0.779013	-0.506133
C25	C	1.518408	-0.895790	-0.506161
C26	C	1.585589	-0.950551	-0.573416
C27	C	1.585638	-1.060275	-0.573442
C28	C	1.451322	-1.060467	-0.438948
C29	C	1.451269	-0.950745	-0.438929
C30	C	1.652728	-0.895595	-0.640649
C31	C	1.719915	-0.950356	-0.707909
C32	C	1.719964	-1.060080	-0.707934
C33	C	1.652826	-1.115043	-0.640700
C34	C	1.792424	-0.506065	-0.506165
C35	C	1.909201	-0.506073	-0.506172
C36	C	1.518464	-0.505940	-0.780183
C37	C	1.518496	-0.505895	-0.896960
C38	C	1.518475	-0.232012	-0.506189
C39	C	1.518510	-0.115236	-0.506206
C40	C	1.585722	-0.438696	-0.951837
C41	C	1.585747	-0.438659	-1.061561
C42	C	1.451316	-0.573026	-1.061521
C43	C	1.451287	-0.573058	-0.951799
C44	C	1.652930	-0.371533	-0.896998
C45	C	1.720163	-0.304331	-0.951875
C46	C	1.720188	-0.304293	-1.061600
C47	C	1.652980	-0.371457	-1.116446
C48	C	1.518378	-0.506076	-0.233182
C49	C	1.518550	-0.505825	-0.116406
H50	H	1.652698	-0.806252	-0.640633
Cl51	Cl	1.142829	-0.354567	-0.658077
Cl52	Cl	0.895184	-0.354594	-0.658091
H53	H	1.774571	-0.905600	-0.762655
Cl54	Cl	1.366771	-0.657536	-0.882805
Cl55	Cl	1.366928	-1.129564	-0.354430
Cl56	Cl	1.142678	-0.657511	-0.354207
Cl57	Cl	0.895014	-0.657548	-0.354245
Cl58	Cl	1.804414	-1.128920	-0.792499
Cl59	Cl	1.653049	-1.252983	-0.640576
Cl60	Cl	1.652907	-0.371580	-0.759060
Cl61	Cl	1.804631	-0.219884	-0.882927
H62	H	1.774924	-0.249565	-1.106278
H63	H	1.396563	-0.906158	-0.384164
Cl64	Cl	1.653000	-0.371393	-1.254387
H65	H	1.396599	-0.627708	-1.106186
