data_functionalizedCrystal
_audit_creation_method	'MofGen! by Chris Wilmer'
_symmetry_space_group_name_H-M	'P1'
_symmetry_Int_Tables_number	1
_symmetry_cell_setting	triclinic
loop_
_symmetry_equiv_pos_as_xyz
  x,y,z
_cell_length_a	14.908571
_cell_length_b	14.908831
_cell_length_c	14.909227
_cell_angle_alpha	90.169705
_cell_angle_beta	96.790173
_cell_angle_gamma	89.814394
loop_
_atom_site_label
_atom_site_type_symbol
_atom_site_fract_x
_atom_site_fract_y
_atom_site_fract_z
Zn1	Zn	-1.391462	-0.404132	-0.613640
Zn2	Zn	-1.374051	-0.562233	-0.470923
Zn3	Zn	-1.231355	-0.404153	-0.453572
Zn4	Zn	-1.232380	-0.545810	-0.612627
O5	O	-1.307312	-0.479082	-0.537690
O6	O	-1.515448	-0.431970	-0.602394
O7	O	-1.347406	-0.548145	-0.342329
O8	O	-1.259451	-0.278700	-0.467968
O9	O	-1.502655	-0.548126	-0.497541
O10	O	-1.377081	-0.278685	-0.585569
O11	O	-1.242567	-0.432004	-0.329581
O12	O	-1.105195	-0.416079	-0.466985
O13	O	-1.261199	-0.520135	-0.739053
O14	O	-1.105949	-0.520154	-0.583842
O15	O	-1.378076	-0.416045	-0.739798
O16	O	-1.348400	-0.685505	-0.496558
O17	O	-1.244316	-0.673438	-0.600667
C18	C	-1.072825	-0.466337	-0.523421
C19	C	-0.972511	-0.460906	-0.517340
C20	C	-1.294606	-0.712000	-0.550406
C21	C	-1.289254	-0.811645	-0.555881
C22	C	-1.321694	-0.466255	-0.773087
C23	C	-1.327823	-0.460789	-0.873400
C24	C	-1.542714	-0.491877	-0.552016
C25	C	-1.643028	-0.497330	-0.558120
C26	C	-0.784824	-0.559258	-0.627449
C27	C	-0.690570	-0.554157	-0.621738
C28	C	-0.689748	-0.445598	-0.500211
C29	C	-0.784002	-0.450699	-0.505923
C30	C	-0.831537	-0.507532	-0.569542
C31	C	-0.925792	-0.512637	-0.575249
C32	C	-0.924968	-0.404074	-0.453727
C33	C	-0.830714	-0.398973	-0.448016
C34	C	-1.320094	-0.245256	-0.524946
C35	C	-1.325540	-0.145613	-0.519515
C36	C	-1.227396	0.054194	-0.617740
C37	C	-1.232510	0.147818	-0.612640
C38	C	-1.340889	0.135261	-0.504221
C39	C	-1.335774	0.041637	-0.509321
C40	C	-1.279025	0.001107	-0.566081
C41	C	-1.273906	-0.092519	-0.571176
C42	C	-1.382289	-0.105074	-0.462762
C43	C	-1.387403	-0.011450	-0.457662
C44	C	-1.397305	-0.398897	-1.015174
C45	C	-1.391552	-0.404030	-0.920922
C46	C	-1.269845	-0.512422	-0.920136
C47	C	-1.275599	-0.507290	-1.014389
C48	C	-1.339330	-0.450524	-1.061904
C49	C	-1.345079	-0.445387	-1.156157
C50	C	-1.223377	-0.553784	-1.155371
C51	C	-1.217623	-0.558916	-1.061119
C52	C	-1.293041	-0.491797	-0.303209
C53	C	-1.287101	-0.497020	-0.202894
H54	H	-0.964493	-0.558915	-0.627050
H55	H	-1.433610	0.021560	-0.411452
C56	C	-0.639189	-0.611066	-0.685434
N57	N	-0.600489	-0.653934	-0.733411
H58	H	-1.217964	-0.558644	-0.881434
H59	H	-1.387100	0.168272	-0.458015
H60	H	-1.181189	0.021194	-0.663958
H61	H	-0.823527	-0.605539	-0.679246
C62	C	-0.637444	-0.383077	-0.430244
N63	N	-0.598048	-0.335985	-0.377545
C64	C	-1.415186	-0.382947	-1.208423
N65	N	-1.467996	-0.335918	-1.247787
H66	H	-1.424329	-0.148308	-0.420698
H67	H	-1.449190	-0.352667	-1.053861
H68	H	-0.791999	-0.352699	-0.396221
C69	C	-0.976359	-0.347175	-0.390023
N70	N	-1.015068	-0.304322	-0.342040
H71	H	-1.438762	-0.361990	-0.882878
H72	H	-1.227700	-0.125516	-0.617396
C73	C	-1.175723	0.206211	-0.669477
N74	N	-1.132952	0.250192	-0.712294
C75	C	-1.147519	-0.621351	-1.008841
N76	N	-1.094712	-0.668375	-0.969465
C77	C	-1.159604	-0.610582	-1.206782
N78	N	-1.111571	-0.653361	-1.245506
