data_functionalizedCrystal
_audit_creation_method	'MofGen! by Chris Wilmer'
_symmetry_space_group_name_H-M	'P1'
_symmetry_Int_Tables_number	1
_symmetry_cell_setting	triclinic
loop_
_symmetry_equiv_pos_as_xyz
  x,y,z
_cell_length_a	18.050591
_cell_length_b	18.050589
_cell_length_c	18.050582
_cell_angle_alpha	89.981795
_cell_angle_beta	90.020922
_cell_angle_gamma	89.975773
loop_
_atom_site_label
_atom_site_type_symbol
_atom_site_fract_x
_atom_site_fract_y
_atom_site_fract_z
Zn1	Zn	1.135293	0.295786	0.420054
Zn2	Zn	1.468626	0.629119	0.753387
Zn3	Zn	1.801959	0.962452	1.086721
Zn4	Zn	1.135203	0.419969	0.295873
Zn5	Zn	1.468537	0.753302	0.629207
Zn6	Zn	1.801870	1.086636	0.962540
Zn7	Zn	1.011112	0.295789	0.295865
Zn8	Zn	1.344445	0.629122	0.629198
Zn9	Zn	1.677778	0.962455	0.962532
Zn10	Zn	1.011060	0.419930	0.420009
Zn11	Zn	1.344393	0.753263	0.753342
Zn12	Zn	1.677726	1.086596	1.086676
O13	O	1.073167	0.357868	0.357950
O14	O	1.406500	0.691202	0.691284
O15	O	1.739833	1.024535	1.024617
O16	O	1.239205	0.312274	0.403603
O17	O	1.572539	0.645607	0.736937
O18	O	1.905872	0.978941	1.070270
O19	O	1.118727	0.403514	0.191948
O20	O	1.452060	0.736847	0.525281
O21	O	1.785393	1.070181	0.858614
O22	O	1.027644	0.191864	0.312354
O23	O	1.360977	0.525197	0.645688
O24	O	1.694310	0.858530	0.979021
O25	O	1.239140	0.403511	0.312369
O26	O	1.572473	0.736844	0.645702
O27	O	1.905806	1.070178	0.979035
O28	O	1.118879	0.191862	0.403595
O29	O	1.452212	0.525195	0.736929
O30	O	1.785545	0.858528	1.070262
O31	O	1.027557	0.312279	0.191942
O32	O	1.360890	0.645613	0.525275
O33	O	1.694224	0.978946	0.858608
O34	O	0.907180	0.312241	0.312311
O35	O	1.240514	0.645574	0.645644
O36	O	1.573847	0.978908	0.978977
O37	O	1.027555	0.403444	0.523940
O38	O	1.360888	0.736777	0.857273
O39	O	1.694222	1.070111	1.190606
O40	O	0.907142	0.403447	0.403519
O41	O	1.240475	0.736780	0.736852
O42	O	1.573809	1.070114	1.070185
O43	O	1.118828	0.312236	0.523973
O44	O	1.452162	0.645569	0.857306
O45	O	1.785495	0.978903	1.190639
O46	O	1.118676	0.523888	0.312325
O47	O	1.452010	0.857222	0.645658
O48	O	1.785343	1.190555	0.978992
O49	O	1.027468	0.523860	0.403527
O50	O	1.360802	0.857193	0.736860
O51	O	1.694135	1.190526	1.070193
C52	C	0.880215	0.357841	0.357909
C53	C	1.213548	0.691174	0.691243
C54	C	1.546881	1.024507	1.024576
C55	C	0.797669	0.357847	0.357909
C56	C	1.131002	0.691180	0.691243
C57	C	1.464336	1.024513	1.024576
C58	C	1.073077	0.550820	0.357938
C59	C	1.406410	0.884154	0.691271
C60	C	1.739744	1.217487	1.024605
C61	C	1.073107	0.633366	0.357958
C62	C	1.406440	0.966700	0.691291
C63	C	1.739773	1.300033	1.024624
C64	C	0.598217	0.308191	0.308425
C65	C	0.931551	0.641525	0.641758
C66	C	1.264884	0.974858	0.975091
C67	C	0.548798	0.375927	0.290154
C68	C	0.882131	0.709261	0.623487
C69	C	1.215464	1.042594	0.956820
C70	C	0.646539	0.357869	0.357943
C71	C	0.979872	0.691203	0.691276
C72	C	1.313205	1.024536	1.024610
C73	C	0.548877	0.290157	0.376212
C74	C	0.882210	0.623490	0.709545
C75	C	1.215543	0.956824	1.042879
C76	C	0.500553	0.357885	0.357974
C77	C	0.833887	0.691218	0.691307
C78	C	1.167220	1.024552	1.024641
C79	C	0.598206	0.425641	0.339637
C80	C	0.931539	0.758974	0.672970
C81	C	1.264873	1.092307	1.006303
C82	C	0.598289	0.339825	0.425726
C83	C	0.931622	0.673158	0.759060
C84	C	1.264956	1.006491	1.092393
C85	C	0.548892	0.407607	0.407481
C86	C	0.882225	0.740941	0.740814
C87	C	1.215558	1.074274	1.074148
C88	C	0.730637	0.357859	0.357923
C89	C	1.063970	0.691192	0.691256
C90	C	1.397303	1.024526	1.024590
C91	C	0.416457	0.357903	0.357994
C92	C	0.749790	0.691236	0.691327
C93	C	1.083124	1.024569	1.024660
C94	C	1.073196	0.357835	0.551656
C95	C	1.406529	0.691169	0.884989
C96	C	1.739863	1.024502	1.218323
C97	C	1.073208	0.357821	0.634202
C98	C	1.406542	0.691155	0.967535
C99	C	1.739875	1.024488	1.300868
C100	C	1.266872	0.357897	0.357992
C101	C	1.600206	0.691230	0.691325
C102	C	1.933539	1.024563	1.024659
C103	C	1.349418	0.357909	0.358010
C104	C	1.682751	0.691242	0.691343
C105	C	2.016085	1.024575	1.024676
C106	C	1.073277	0.164163	0.357979
C107	C	1.406610	0.497496	0.691312
C108	C	1.739944	0.830829	1.024646
C109	C	1.073324	0.081617	0.357991
C110	C	1.406657	0.414950	0.691325
C111	C	1.739991	0.748284	1.024658
C112	C	1.023557	0.832828	0.407536
C113	C	1.356890	1.166161	0.740869
C114	C	1.690223	1.499495	1.074202
C115	C	1.005459	0.882261	0.339767
C116	C	1.338792	1.215594	0.673100
C117	C	1.672126	1.548928	1.006433
C118	C	1.073180	0.784497	0.357967
C119	C	1.406513	1.117830	0.691301
C120	C	1.739846	1.451163	1.024634
C121	C	1.091314	0.882146	0.425744
C122	C	1.424647	1.215479	0.759078
C123	C	1.757981	1.548812	1.092411
C124	C	1.073249	0.930482	0.357983
C125	C	1.406582	1.263815	0.691316
C126	C	1.739915	1.597148	1.024649
C127	C	1.055046	0.832842	0.290162
C128	C	1.388380	1.166175	0.623495
C129	C	1.721713	1.499509	0.956829
C130	C	1.140933	0.832722	0.376186
C131	C	1.474266	1.166056	0.709519
C132	C	1.807600	1.499389	1.042852
C133	C	1.122861	0.882133	0.308370
C134	C	1.456194	1.215466	0.641703
C135	C	1.789527	1.548799	0.975036
C136	C	1.073138	0.700398	0.357959
C137	C	1.406471	1.033732	0.691293
C138	C	1.739805	1.367065	1.024626
C139	C	1.073291	1.014578	0.357983
C140	C	1.406624	1.347911	0.691316
C141	C	1.739957	1.681245	1.024649
C142	C	1.073181	0.357848	0.164998
C143	C	1.406514	0.691181	0.498332
C144	C	1.739847	1.024514	0.831665
C145	C	1.073312	0.357652	0.082453
C146	C	1.406645	0.690986	0.415786
C147	C	1.739979	1.024319	0.749120
C148	C	1.023612	0.407353	0.833635
C149	C	1.356945	0.740686	1.166968
C150	C	1.690278	1.074019	1.500301
C151	C	1.091367	0.425511	0.883034
C152	C	1.424700	0.758844	1.216368
C153	C	1.758034	1.092177	1.549701
C154	C	1.073245	0.357765	0.785332
C155	C	1.406578	0.691098	1.118666
C156	C	1.739912	1.024431	1.451999
C157	C	1.005527	0.339586	0.883014
C158	C	1.338860	0.672919	1.216348
C159	C	1.672194	1.006253	1.549681
C160	C	1.073274	0.357711	0.931317
C161	C	1.406608	0.691045	1.264651
C162	C	1.739941	1.024378	1.597984
C163	C	1.141036	0.375958	0.833645
C164	C	1.474369	0.709292	1.166978
C165	C	1.807702	1.042625	1.500312
C166	C	1.055150	0.290002	0.833620
C167	C	1.388483	0.623335	1.166954
C168	C	1.721816	0.956669	1.500287
C169	C	1.122952	0.308134	0.882998
C170	C	1.456285	0.641468	1.216331
C171	C	1.789619	0.974801	1.549665
C172	C	1.073227	0.357797	0.701234
C173	C	1.406560	0.691131	1.034567
C174	C	1.739894	1.024464	1.367901
C175	C	1.073300	0.357679	1.015414
C176	C	1.406633	0.691012	1.348747
C177	C	1.739967	1.024345	1.682081
H178	H	0.619875	0.266226	0.266503
H179	H	0.953209	0.599559	0.599837
H180	H	1.286542	0.932892	0.933170
H181	H	1.198333	0.391377	0.812050
H182	H	1.531666	0.724710	1.145383
H183	H	1.865000	1.058043	1.478716
C184	C	0.928099	0.911660	0.318952
C185	C	1.261433	1.244993	0.652286
C186	C	1.594766	1.578326	0.985619
H187	H	0.892873	0.894783	0.354213
H188	H	1.226206	1.228117	0.687547
H189	H	1.559539	1.561450	1.020880
H190	H	0.914899	0.894054	0.271151
H191	H	1.248232	1.227387	0.604484
H192	H	1.581566	1.560720	0.937817
H193	H	0.928798	0.964284	0.318670
H194	H	1.262132	1.297618	0.652003
H195	H	1.595465	1.630951	0.985336
C196	C	0.519425	0.396560	0.212738
C197	C	0.852758	0.729894	0.546071
C198	C	1.186091	1.063227	0.879404
H199	H	0.536308	0.361211	0.177599
H200	H	0.869642	0.694544	0.510932
H201	H	1.202975	1.027877	0.844266
H202	H	0.537040	0.444327	0.199429
H203	H	0.870373	0.777660	0.532762
H204	H	1.203706	1.110993	0.866095
H205	H	0.466800	0.396856	0.213423
H206	H	0.800134	0.730189	0.546756
H207	H	1.133467	1.063522	0.880090
C208	C	0.627350	0.503029	0.318687
C209	C	0.960684	0.836362	0.652020
C210	C	1.294017	1.169696	0.985353
H211	H	0.679980	0.502544	0.318778
H212	H	1.013314	0.835877	0.652112
H213	H	1.346647	1.169211	0.985445
H214	H	0.610067	0.538349	0.353652
H215	H	0.943400	0.871682	0.686985
H216	H	1.276733	1.205015	1.020319
H217	H	0.609994	0.515929	0.270693
H218	H	0.943327	0.849263	0.604026
H219	H	1.276660	1.182596	0.937359
C220	C	0.519809	0.464431	0.464066
C221	C	0.853142	0.797764	0.797400
C222	C	1.186475	1.131097	1.130733
H223	H	0.536790	0.512493	0.450978
H224	H	0.870124	0.845826	0.784312
H225	H	1.203457	1.179160	1.117645
H226	H	0.537503	0.452018	0.512061
H227	H	0.870837	0.785351	0.845395
H228	H	1.204170	1.118684	1.178728
H229	H	0.467182	0.463847	0.464055
H230	H	0.800516	0.797180	0.797388
H231	H	1.133849	1.130514	1.130722
C232	C	0.519605	0.212794	0.397078
C233	C	0.852938	0.546127	0.730411
C234	C	1.186271	0.879461	1.063745
H235	H	0.490670	0.216217	0.440899
H236	H	0.824004	0.549551	0.774232
H237	H	1.157337	0.882884	1.107565
H238	H	0.560186	0.180302	0.405351
H239	H	0.893520	0.513636	0.738685
H240	H	1.226853	0.846969	1.072018
H241	H	0.489886	0.194139	0.357853
H242	H	0.823219	0.527472	0.691186
H243	H	1.156552	0.860806	1.024519
C244	C	1.112030	0.911366	0.503171
C245	C	1.445363	1.244699	0.836504
C246	C	1.778697	1.578032	1.169838
H247	H	1.155874	0.940275	0.499862
H248	H	1.489207	1.273608	0.833195
H249	H	1.822541	1.606941	1.166528
H250	H	1.120215	0.870755	0.535645
H251	H	1.453549	1.204088	0.868978
H252	H	1.786882	1.537421	1.202312
H253	H	1.072784	0.941095	0.521771
H254	H	1.406118	1.274428	0.855104
H255	H	1.739451	1.607762	1.188437
C256	C	1.218287	0.803330	0.397012
C257	C	1.551620	1.136663	0.730345
C258	C	1.884953	1.469996	1.063678
H259	H	1.231079	0.820188	0.445199
H260	H	1.564413	1.153522	0.778532
H261	H	1.897746	1.486855	1.111866
H262	H	1.253666	0.820963	0.362287
H263	H	1.586999	1.154297	0.695620
H264	H	1.920333	1.487630	1.028954
H265	H	1.217835	0.750705	0.396413
H266	H	1.551169	1.084039	0.729746
H267	H	1.884502	1.417372	1.063079
C268	C	0.627686	0.319164	0.503121
C269	C	0.961019	0.652497	0.836454
C270	C	1.294353	0.985830	1.169788
H271	H	0.610828	0.271006	0.516018
H272	H	0.944161	0.604340	0.849351
H273	H	1.277494	0.937673	1.182685
H274	H	0.610064	0.353966	0.538434
H275	H	0.943397	0.687299	0.871768
H276	H	1.276731	1.020633	1.205101
H277	H	0.680310	0.319753	0.502651
H278	H	1.013643	0.653086	0.835985
H279	H	1.346977	0.986419	1.169318
H280	H	0.981678	0.449342	0.811961
H281	H	1.315012	0.782676	1.145294
H282	H	1.648345	1.116009	1.478628
C283	C	0.966788	0.803573	0.464081
C284	C	1.300121	1.136907	0.797415
C285	C	1.633454	1.470240	1.130748
H286	H	0.918695	0.820538	0.451018
H287	H	1.252028	1.153871	0.784351
H288	H	1.585361	1.487205	1.117684
H289	H	0.979173	0.821179	0.512101
H290	H	1.312506	1.154512	0.845434
H291	H	1.645839	1.487846	1.178767
H292	H	0.967464	0.750948	0.463996
H293	H	1.300798	1.084281	0.797329
H294	H	1.634131	1.417614	1.130662
C295	C	1.179732	0.251456	0.912102
C296	C	1.513065	0.584790	1.245435
C297	C	1.846399	0.918123	1.578769
H298	H	1.227803	0.264472	0.895106
H299	H	1.561136	0.597806	1.228439
H300	H	1.894470	0.931139	1.561773
H301	H	1.167278	0.203484	0.894434
H302	H	1.500612	0.536817	1.227768
H303	H	1.833945	0.870150	1.561101
H304	H	1.179153	0.251460	0.964729
H305	H	1.512487	0.584794	1.298062
H306	H	1.845820	0.918127	1.631395
H307	H	1.106690	0.482794	0.904739
H308	H	1.440023	0.816127	1.238073
H309	H	1.773357	1.149460	1.571406
C310	C	1.034266	0.803713	0.212719
C311	C	1.367599	1.137046	0.546052
C312	C	1.700932	1.470379	0.879386
H313	H	1.034341	0.751083	0.213193
H314	H	1.367674	1.084416	0.546527
H315	H	1.701007	1.417749	0.879860
H316	H	1.069316	0.820987	0.177484
H317	H	1.402649	1.154321	0.510817
H318	H	1.735983	1.487654	0.844150
H319	H	0.986306	0.821088	0.199711
H320	H	1.319639	1.154421	0.533045
H321	H	1.652973	1.487754	0.866378
C322	C	1.179588	0.911203	0.251689
C323	C	1.512922	1.244537	0.585022
C324	C	1.846255	1.577870	0.918356
H325	H	1.166609	0.894231	0.203592
H326	H	1.499943	1.227564	0.536925
H327	H	1.833276	1.560897	0.870259
H328	H	1.227549	0.893492	0.264214
H329	H	1.560882	1.226825	0.597548
H330	H	1.894216	1.560158	0.930881
H331	H	1.179590	0.963830	0.252284
H332	H	1.512923	1.297163	0.585617
H333	H	1.846256	1.630496	0.918950
H334	H	1.039807	0.232736	0.811899
H335	H	1.373141	0.566069	1.145232
H336	H	1.706474	0.899402	1.478566
H337	H	0.948246	0.324232	0.904701
H338	H	1.281580	0.657566	1.238034
H339	H	1.614913	0.990899	1.571368
