data_functionalizedCrystal
_audit_creation_method	'MofGen! by Chris Wilmer'
_symmetry_space_group_name_H-M	'P1'
_symmetry_Int_Tables_number	1
_symmetry_cell_setting	triclinic
loop_
_symmetry_equiv_pos_as_xyz
  x,y,z
_cell_length_a	12.827893
_cell_length_b	16.120507
_cell_length_c	12.827885
_cell_angle_alpha	92.861764
_cell_angle_beta	90.019272
_cell_angle_gamma	87.066041
loop_
_atom_site_label
_atom_site_type_symbol
_atom_site_fract_x
_atom_site_fract_y
_atom_site_fract_z
Zn1	Zn	1.576443	0.331863	0.611879
Zn2	Zn	1.567419	0.471299	0.445976
Zn3	Zn	1.401682	0.331905	0.437156
Zn4	Zn	1.392755	0.471238	0.620672
O5	O	1.484575	0.401576	0.528921
O6	O	1.721482	0.350369	0.589884
O7	O	1.545393	0.452851	0.298572
O8	O	1.432377	0.215233	0.452962
O9	O	1.714851	0.452811	0.467995
O10	O	1.560773	0.215203	0.581331
O11	O	1.423626	0.350439	0.292092
O12	O	1.254262	0.350379	0.461488
O13	O	1.417163	0.452707	0.765739
O14	O	1.247704	0.452746	0.596317
O15	O	1.552118	0.350309	0.759279
O16	O	1.536737	0.587957	0.476521
O17	O	1.408412	0.587912	0.604869
C18	C	1.213066	0.401561	0.528900
C19	C	1.096912	0.401574	0.528917
C20	C	1.048402	0.350972	0.589336
C21	C	0.928351	0.350985	0.589355
C22	C	1.470655	0.618184	0.542629
C23	C	1.464796	0.710850	0.548529
C24	C	1.515066	0.921795	0.498478
C25	C	1.454117	0.880507	0.559310
C26	C	1.460060	0.786101	0.553310
C27	C	1.509124	1.016209	0.504478
C28	C	1.757144	0.401592	0.528942
C29	C	1.873297	0.401599	0.528952
C30	C	1.484651	0.401496	0.801486
C31	C	1.484684	0.401462	0.917637
C32	C	1.498537	1.184122	0.515166
C33	C	1.504384	1.091456	0.509263
C34	C	1.484563	0.401596	0.257412
C35	C	1.484748	0.401395	0.141247
C36	C	1.551471	0.350783	0.966225
C37	C	1.551506	0.350746	1.086273
H38	H	1.049566	0.444904	0.477202
H39	H	0.915019	0.444928	0.477228
Br40	Br	1.646706	0.278481	0.887435
Br41	Br	1.389445	0.473727	1.071598
H42	H	1.095749	0.307638	0.641045
H43	H	1.608689	0.307360	1.128069
Br44	Br	1.609471	0.862541	0.404168
Br45	Br	0.858806	0.278781	0.675585
Br46	Br	1.359703	0.939759	0.653624
H47	H	1.427524	0.444818	0.964914
