data_functionalizedCrystal
_audit_creation_method	'MofGen! by Chris Wilmer'
_symmetry_space_group_name_H-M	'P1'
_symmetry_Int_Tables_number	1
_symmetry_cell_setting	triclinic
loop_
_symmetry_equiv_pos_as_xyz
  x,y,z
_cell_length_a	10.540539
_cell_length_b	10.540539
_cell_length_c	10.868271
_cell_angle_alpha	89.997005
_cell_angle_beta	89.997750
_cell_angle_gamma	84.525492
loop_
_atom_site_label
_atom_site_type_symbol
_atom_site_fract_x
_atom_site_fract_y
_atom_site_fract_z
O1	O	1.685887	0.178901	-0.102258
O2	O	1.316474	0.195757	-0.102273
O3	O	1.509608	0.002623	-0.102263
O4	O	1.492752	0.372036	-0.102267
O5	O	1.509592	0.002615	0.102381
O6	O	1.316458	0.195749	0.102372
O7	O	1.685871	0.178894	0.102387
Zn8	Zn	1.501162	0.187320	0.134871
Zn9	Zn	1.501183	0.187330	-0.134757
O10	O	1.492736	0.372028	0.102378
C11	C	1.269163	0.194489	0.000048
C12	C	1.128215	0.190707	0.000042
C13	C	1.508336	-0.044684	0.000057
C14	C	1.504554	-0.185632	0.000050
C15	C	0.944788	0.045790	0.000521
C16	C	1.091406	0.049624	0.000047
C17	C	1.066551	0.258607	-0.116816
C18	C	0.920007	0.253792	-0.116901
C19	C	0.919500	0.256653	0.115818
C20	C	1.066482	0.257953	0.117350
C21	C	1.359637	-0.369059	-0.000415
C22	C	1.363471	-0.222441	0.000046
C23	C	1.572441	-0.247294	0.116915
C24	C	1.567626	-0.393839	0.117013
C25	C	1.570513	-0.394348	-0.115706
C26	C	1.571813	-0.247366	-0.117251
C27	C	1.733182	0.180161	0.000064
C28	C	1.874130	0.183943	0.000061
C29	C	1.494008	0.419335	0.000055
C30	C	1.497790	0.560283	0.000054
N31	N	1.501157	0.187313	0.318885
N32	N	1.501198	0.187328	-0.318771
C33	C	1.501176	0.187328	0.569891
C34	C	1.501161	0.187323	0.430214
H35	H	1.134013	-0.003802	0.083817
H36	H	1.304126	-0.399270	0.082917
H37	H	1.107438	0.208350	0.203801
N38	N	1.292211	-0.167120	0.111193
H39	H	1.258190	-0.237995	0.160084
H40	H	1.351863	-0.121330	0.164349
N41	N	0.877720	0.196158	0.233148
H42	H	0.955100	0.166203	0.283901
H43	H	0.821095	0.260782	0.281604
N44	N	0.904801	-0.027750	-0.109856
H45	H	0.864528	-0.105814	-0.081315
H46	H	0.841149	0.028123	-0.160121
H47	H	1.303913	-0.397656	-0.084221
N48	N	0.906910	-0.028034	0.111537
H49	H	0.811948	-0.034565	0.109935
H50	H	0.953397	-0.116355	0.109995
H51	H	1.672417	-0.441574	-0.116488
N52	N	1.146727	-0.021636	-0.111099
H53	H	1.075852	-0.055657	-0.159981
H54	H	1.192522	0.038011	-0.164265
H55	H	1.676048	-0.224940	0.121264
H56	H	1.310054	-0.179835	-0.083728
N57	N	0.882635	0.187325	-0.232602
H58	H	0.961323	0.161422	-0.283069
H59	H	0.839551	0.109026	-0.209847
N60	N	0.856427	0.388174	-0.123940
H61	H	0.800944	0.406311	-0.049026
H62	H	0.923698	0.450215	-0.127019
H63	H	1.524859	-0.425898	-0.204282
N64	N	1.501153	-0.431210	0.232720
H65	H	1.475246	-0.352522	0.283180
H66	H	1.422856	-0.474296	0.209973
N67	N	1.096169	0.395843	-0.122600
H68	H	1.149972	0.415367	-0.049349
H69	H	1.144285	0.410347	-0.200927
H70	H	1.109147	0.211446	-0.203784
H71	H	1.669091	-0.441808	0.122319
H72	H	1.090708	0.360811	0.124405
N73	N	1.506104	-0.193159	-0.231779
H74	H	1.433074	-0.128875	-0.207793
H75	H	1.568995	-0.150140	-0.283637
N76	N	0.856951	0.391636	0.116888
H77	H	0.881153	0.437158	0.039824
H78	H	0.761340	0.390201	0.120138
H79	H	1.525270	-0.204698	0.203878
N80	N	1.708067	-0.215294	-0.126603
H81	H	1.728219	-0.160047	-0.054610
H82	H	1.767205	-0.296529	-0.125597
