data_functionalizedCrystal
_audit_creation_method	'MofGen! by Chris Wilmer'
_symmetry_space_group_name_H-M	'P1'
_symmetry_Int_Tables_number	1
_symmetry_cell_setting	triclinic
loop_
_symmetry_equiv_pos_as_xyz
  x,y,z
_cell_length_a	15.297475
_cell_length_b	21.295416
_cell_length_c	15.299448
_cell_angle_alpha	99.702397
_cell_angle_beta	69.206248
_cell_angle_gamma	99.667634
loop_
_atom_site_label
_atom_site_type_symbol
_atom_site_fract_x
_atom_site_fract_y
_atom_site_fract_z
Zn1	Zn	1.512769	0.340393	-0.771458
Zn2	Zn	2.012769	0.840393	-0.271458
Zn3	Zn	1.485700	0.461178	-0.615907
Zn4	Zn	1.985700	0.961178	-0.115907
Zn5	Zn	1.330318	0.340374	-0.589084
Zn6	Zn	1.830318	0.840374	-0.089084
Zn7	Zn	1.357185	0.430065	-0.744524
Zn8	Zn	1.857185	0.930065	-0.244524
O9	O	1.421493	0.393003	-0.680243
O10	O	1.921493	0.893003	-0.180243
O11	O	1.639320	0.369444	-0.773320
O12	O	2.139320	0.869444	-0.273320
O13	O	1.442516	0.458166	-0.482198
O14	O	1.942516	0.958166	0.017802
O15	O	1.354605	0.252292	-0.613323
O16	O	1.854605	0.752292	-0.113323
O17	O	1.619432	0.458185	-0.659038
O18	O	2.119432	0.958185	-0.159038
O19	O	1.488651	0.252306	-0.747312
O20	O	1.988651	0.752306	-0.247312
O21	O	1.328357	0.369412	-0.462492
O22	O	1.828357	0.869412	0.037508
O23	O	1.203741	0.339243	-0.587207
O24	O	1.703741	0.839243	-0.087207
O25	O	1.400396	0.405157	-0.878248
O26	O	1.900396	0.905157	-0.378248
O27	O	1.223480	0.405138	-0.701408
O28	O	1.723480	0.905138	-0.201408
O29	O	1.514703	0.339275	-0.898036
O30	O	2.014703	0.839275	-0.398036
O31	O	1.468568	0.545136	-0.632921
O32	O	1.968568	1.045136	-0.132921
O33	O	1.374148	0.522277	-0.727416
O34	O	1.874148	1.022277	-0.227416
C35	C	1.179866	0.368813	-0.638475
C36	C	1.679866	0.868813	-0.138475
C37	C	1.076501	0.358477	-0.620628
C38	C	1.576501	0.858477	-0.120628
C39	C	1.421365	0.556546	-0.680181
C40	C	1.921365	1.056546	-0.180181
C41	C	1.421400	0.626516	-0.680200
C42	C	1.921400	1.126516	-0.180200
C43	C	0.826278	0.466876	-0.807799
C44	C	1.326278	0.966876	-0.307799
C45	C	0.923394	0.476592	-0.824564
C46	C	1.423394	0.976592	-0.324564
C47	C	0.961676	0.447064	-0.773582
C48	C	1.461676	0.947064	-0.273582
C49	C	0.902831	0.407819	-0.705831
C50	C	1.402831	0.907819	-0.205831
C51	C	0.805704	0.398106	-0.689059
C52	C	1.305704	0.898106	-0.189059
C53	C	0.941102	0.378294	-0.654842
C54	C	1.441102	0.878294	-0.154842
C55	C	0.882258	0.339049	-0.587091
C56	C	1.382258	0.839049	-0.087091
C57	C	0.785141	0.329338	-0.570322
C58	C	1.285141	0.829338	-0.070322
C59	C	0.746859	0.358866	-0.621304
C60	C	1.246859	0.858866	-0.121304
C61	C	1.038229	0.388007	-0.671614
C62	C	1.538229	0.888007	-0.171614
C63	C	1.017656	0.319237	-0.552874
C64	C	1.517656	0.819237	-0.052874
C65	C	0.920539	0.309521	-0.536108
C66	C	1.420539	0.809521	-0.036108
C67	C	1.470629	0.671264	-0.631069
C68	C	1.970629	1.171264	-0.131069
C69	C	1.470677	0.737008	-0.631102
C70	C	1.970677	1.237008	-0.131102
C71	C	1.421478	0.758002	-0.680253
C72	C	1.921478	1.258002	-0.180253
C73	C	1.372248	0.713245	-0.729395
C74	C	1.872248	1.213245	-0.229395
C75	C	1.372209	0.647502	-0.729369
C76	C	1.872209	1.147502	-0.229369
N77	N	1.341353	0.852419	-0.673287
N78	N	1.841353	1.352419	-0.173287
N79	N	1.341392	0.914872	-0.673307
N80	N	1.841392	1.414872	-0.173307
C81	C	1.421595	0.956081	-0.680337
C82	C	1.921595	1.456081	-0.180337
N83	N	1.501757	0.932478	-0.687329
N84	N	2.001757	1.432478	-0.187329
N85	N	1.501716	0.870019	-0.687304
N86	N	2.001716	1.370019	-0.187304
C87	C	1.421516	0.829288	-0.680288
C88	C	1.921516	1.329288	-0.180288
C89	C	1.470880	1.072116	-0.631239
C90	C	1.970880	1.572116	-0.131239
C91	C	1.470931	1.137861	-0.631279
C92	C	1.970931	1.637861	-0.131279
C93	C	1.372493	1.114097	-0.729566
C94	C	1.872493	1.614097	-0.229566
C95	C	1.372451	1.048353	-0.729533
C96	C	1.872451	1.548353	-0.229533
C97	C	1.421643	1.027367	-0.680364
C98	C	1.921643	1.527367	-0.180364
C99	C	1.664064	0.417287	-0.722175
C100	C	2.164064	0.917287	-0.222175
C101	C	1.767433	0.427636	-0.740044
C102	C	2.267433	0.927636	-0.240044
C103	C	1.463566	0.368747	-0.922832
C104	C	1.963566	0.868747	-0.422832
C105	C	1.481495	0.358411	-1.026209
C106	C	1.981495	0.858411	-0.526209
C107	C	1.421655	1.228819	-0.680346
C108	C	1.921655	1.728819	-0.180346
C109	C	1.421733	1.158851	-0.680432
C110	C	1.921733	1.658851	-0.180432
C111	C	1.549432	0.319253	-1.085075
C112	C	2.049432	0.819253	-0.585075
C113	C	1.566270	0.309532	-1.182201
C114	C	2.066270	0.809532	-0.682201
C115	C	1.515176	0.338974	-1.220472
C116	C	2.015176	0.838974	-0.720472
C117	C	1.447242	0.378137	-1.161606
C118	C	1.947242	0.878137	-0.661606
C119	C	1.430398	0.387854	-1.064469
C120	C	1.930398	0.887854	-0.564469
C121	C	1.396142	0.407575	-1.199865
C122	C	1.896142	0.907575	-0.699865
C123	C	1.328207	0.446738	-1.141000
C124	C	1.828207	0.946738	-0.641000
C125	C	1.311367	0.456454	-1.043873
C126	C	1.811367	0.956454	-0.543873
C127	C	1.362460	0.427012	-1.005602
C128	C	1.862460	0.927012	-0.505602
C129	C	1.412986	0.397858	-1.297002
C130	C	1.912986	0.897858	-0.797002
C131	C	1.293951	0.466459	-1.276396
C132	C	1.793951	0.966459	-0.776396
C133	C	1.277114	0.476179	-1.179270
C134	C	1.777114	0.976179	-0.679270
C135	C	1.379637	0.417124	-0.438608
C136	C	1.879637	0.917124	0.061392
C137	C	1.361889	0.427300	-0.335263
C138	C	1.861889	0.927300	0.164737
H139	H	1.086131	0.419960	-0.726778
H140	H	1.586131	0.919960	-0.226778
Br141	Br	1.305733	1.142581	-0.796284
Br142	Br	1.805733	1.642581	-0.296284
Br143	Br	1.537635	1.043631	-0.564509
Br144	Br	2.037635	1.543631	-0.064509
H145	H	1.040753	0.454977	-0.787237
H146	H	1.540753	0.954977	-0.287237
Br147	Br	1.537759	1.198593	-0.564606
Br148	Br	2.037759	1.698593	-0.064606
Br149	Br	1.069599	0.279167	-0.483671
Br150	Br	1.569599	0.779167	0.016329
H151	H	0.971298	0.508547	-0.879725
H152	H	1.471298	1.008547	-0.379725
H153	H	1.256048	0.488341	-0.995945
H154	H	1.756048	0.988341	-0.495945
H155	H	1.332360	1.011917	-0.769535
H156	H	1.832360	1.511917	-0.269535
Br157	Br	0.774316	0.506964	-0.876956
Br158	Br	1.274316	1.006964	-0.376956
Br159	Br	1.505176	0.344707	-1.376879
Br160	Br	2.005176	0.844707	-0.876879
H161	H	1.252341	0.490428	-1.307554
H162	H	1.752341	0.990428	-0.807554
Br163	Br	1.658498	0.256413	-1.262090
Br164	Br	2.158498	0.756413	-0.762090
Br165	Br	0.615055	0.345675	-0.598562
Br166	Br	1.115055	0.845675	-0.098562
H167	H	1.591021	0.295282	-1.053905
H168	H	2.091021	0.795282	-0.553905
Br169	Br	1.339617	0.440207	-0.873784
Br170	Br	1.839617	0.940207	-0.373784
H171	H	1.221801	0.508066	-1.131328
H172	H	1.721801	1.008066	-0.631328
H173	H	0.872614	0.277568	-0.480944
H174	H	1.372614	0.777568	0.019056
H175	H	0.737230	0.297390	-0.515145
H176	H	1.237230	0.797390	-0.015145
H177	H	1.510686	0.654179	-0.591036
H178	H	2.010686	1.154179	-0.091036
H179	H	1.528888	0.331056	-1.299557
H180	H	2.028888	0.831056	-0.799557
Br181	Br	1.537492	0.797748	-0.564420
Br182	Br	2.037492	1.297748	-0.064420
H183	H	1.332192	0.730342	-0.769416
H184	H	1.832192	1.230342	-0.269416
Br185	Br	1.305395	0.586769	-0.796054
Br186	Br	1.805395	1.086769	-0.296054
