data_functionalizedCrystal
_audit_creation_method	'MofGen! by Chris Wilmer'
_symmetry_space_group_name_H-M	'P1'
_symmetry_Int_Tables_number	1
_symmetry_cell_setting	triclinic
loop_
_symmetry_equiv_pos_as_xyz
  x,y,z
_cell_length_a	14.971491
_cell_length_b	7.088929
_cell_length_c	8.597299
_cell_angle_alpha	76.027625
_cell_angle_beta	95.521203
_cell_angle_gamma	83.790498
loop_
_atom_site_label
_atom_site_type_symbol
_atom_site_fract_x
_atom_site_fract_y
_atom_site_fract_z
O1	O	1.177458	0.196031	-0.224439
O2	O	0.917026	0.200117	-0.249337
O3	O	1.054539	0.159800	-0.004551
O4	O	1.039945	0.236348	-0.469225
O5	O	1.072917	-0.163575	0.028237
O6	O	0.935403	-0.123259	-0.216550
O7	O	1.195836	-0.127345	-0.191651
Cu8	Cu	1.067297	-0.154828	-0.201107
Cu9	Cu	1.045564	0.227600	-0.239882
O10	O	1.058322	-0.087028	-0.436438
C11	C	0.892891	0.038244	-0.231829
C12	C	0.793599	0.037688	-0.228486
N13	N	1.082590	-0.423808	-0.173834
C14	C	0.355894	0.211629	-0.231944
C15	C	0.449190	0.212138	-0.235079
C16	C	0.505851	0.036120	-0.218783
C17	C	0.469214	-0.140423	-0.199336
C18	C	0.375920	-0.140931	-0.196191
C19	C	0.663667	-0.139349	-0.205897
C20	C	0.756967	-0.138840	-0.209046
C21	C	0.736937	0.213721	-0.244785
C22	C	0.643643	0.213212	-0.241640
C23	C	0.607011	0.036670	-0.222196
C24	C	1.219970	0.034533	-0.209161
C25	C	1.319261	0.035102	-0.212504
C26	C	1.063185	-0.011680	0.071310
C27	C	1.061556	-0.040858	0.248501
N28	N	1.030279	0.496578	-0.267142
C29	C	1.049677	0.084457	0.487701
C30	C	1.051307	0.113650	0.310509
H31	H	0.309764	0.354966	-0.245225
O32	O	0.488704	0.402535	-0.256055
H33	H	0.433628	0.524849	-0.266880
H34	H	0.346094	-0.284676	-0.180377
H35	H	0.597510	0.356544	-0.254920
H36	H	1.136815	-0.521389	-0.077144
H37	H	0.976064	-0.405850	-0.363837
O38	O	1.041339	0.318467	0.201287
H39	H	1.044236	0.310028	0.074588
H40	H	1.069075	-0.195482	0.330977
H41	H	0.766766	0.357469	-0.260619
H42	H	0.633844	-0.283105	-0.190084
O43	O	0.818089	-0.328688	-0.191432
H44	H	0.776948	-0.451541	-0.177348
O45	O	0.530325	-0.330270	-0.181776
H46	H	0.525289	-0.432812	-0.063896
