data_functionalizedCrystal
_audit_creation_method	'MofGen! by Chris Wilmer'
_symmetry_space_group_name_H-M	'P1'
_symmetry_Int_Tables_number	1
_symmetry_cell_setting	triclinic
loop_
_symmetry_equiv_pos_as_xyz
  x,y,z
_cell_length_a	11.026623
_cell_length_b	10.065875
_cell_length_c	16.992695
_cell_angle_alpha	80.609430
_cell_angle_beta	80.372537
_cell_angle_gamma	79.302201
loop_
_atom_site_label
_atom_site_type_symbol
_atom_site_fract_x
_atom_site_fract_y
_atom_site_fract_z
O1	O	-1.659318	0.113510	0.323759
O2	O	-1.159318	0.613510	0.823759
O3	O	-1.302335	0.113510	0.285851
O4	O	-0.802335	0.613510	0.785851
O5	O	-1.479394	0.113499	0.190461
O6	O	-0.979394	0.613499	0.690461
O7	O	-1.482259	0.113521	0.419149
O8	O	-0.982259	0.613521	0.919149
O9	O	-1.445640	-0.113487	0.208744
O10	O	-0.945640	0.386513	0.708744
O11	O	-1.268582	-0.113477	0.304134
O12	O	-0.768582	0.386523	0.804134
O13	O	-1.625564	-0.113476	0.342042
O14	O	-1.125564	0.386524	0.842042
Zn15	Zn	-1.441714	-0.149516	0.325991
Zn16	Zn	-0.941714	0.350484	0.825991
Zn17	Zn	-1.486186	0.149549	0.301902
Zn18	Zn	-0.986186	0.649549	0.801902
O19	O	-1.448506	-0.113466	0.437432
O20	O	-0.948506	0.386534	0.937432
C21	C	-1.239570	0.000016	0.287999
C22	C	-0.739570	0.500016	0.787999
C23	C	-1.102834	0.000016	0.267152
C24	C	-0.602834	0.500016	0.767152
C25	C	-1.034611	0.000022	0.324713
C26	C	-0.534611	0.500022	0.824713
C27	C	-0.893288	0.000022	0.303167
C28	C	-0.393288	0.500022	0.803167
N29	N	-1.411372	-0.353619	0.342431
N30	N	-0.911372	0.146381	0.842431
C31	C	-1.475621	-0.421402	0.307616
C32	C	-0.975621	0.078598	0.807616
C33	C	-1.452279	-0.578568	0.320277
C34	C	-0.952279	-0.078568	0.820277
C35	C	-0.688330	0.000020	0.339893
C36	C	-0.188330	0.500020	0.839893
C37	C	-0.825068	0.000028	0.360737
C38	C	-0.325068	0.500028	0.860737
C39	C	-1.458835	0.000006	0.169871
C40	C	-0.958835	0.500006	0.669871
C41	C	-1.447849	0.000007	0.081276
C42	C	-0.947849	0.500007	0.581276
N43	N	-1.516537	0.353653	0.285457
N44	N	-1.016537	0.853653	0.785457
C45	C	-1.553847	0.000005	0.045997
C46	C	-1.053847	0.500005	0.545997
C47	C	-1.543519	0.000018	-0.037249
C48	C	-1.043519	0.500018	0.462751
C49	C	-1.427192	0.000023	-0.085214
C50	C	-0.927192	0.500023	0.414786
C51	C	-1.321187	0.000028	-0.049930
C52	C	-0.821187	0.500028	0.450070
C53	C	-1.331517	0.000025	0.033313
C54	C	-0.831517	0.500025	0.533313
C55	C	-1.384378	0.000041	-0.334856
C56	C	-0.884378	0.500041	0.165144
C57	C	-1.374055	0.000040	-0.418105
C58	C	-0.874055	0.500040	0.081895
C59	C	-1.596388	0.000033	-0.405418
C60	C	-1.096388	0.500033	0.094582
C61	C	-1.606707	0.000022	-0.322173
C62	C	-1.106707	0.500022	0.177827
C63	C	-1.500703	0.000034	-0.286897
C64	C	-1.000703	0.500034	0.213103
N65	N	-1.416632	0.000032	-0.170304
N66	N	-0.916632	0.500032	0.329696
N67	N	-1.511266	0.000035	-0.201809
N68	N	-1.011266	0.500035	0.298191
C69	C	-1.469065	0.000031	0.458022
C70	C	-0.969065	0.500031	0.958022
C71	C	-1.480052	0.000039	0.546617
C72	C	-0.980052	0.500039	1.046617
H73	H	-0.871278	0.000025	0.425973
H74	H	-0.371278	0.500025	0.925973
F75	F	-1.250237	0.000038	-0.469151
F76	F	-0.750237	0.500038	0.030849
F77	F	-1.611246	-0.570130	0.234404
F78	F	-1.111246	-0.070130	0.734404
H79	H	-1.056621	0.000045	0.201918
H80	H	-0.556621	0.500045	0.701918
H81	H	-1.547903	-0.363082	0.268433
H82	H	-1.047903	0.136918	0.768433
F83	F	-1.095015	0.000026	0.409976
F84	F	-0.595015	0.500026	0.909976
F85	F	-1.357782	-0.654788	0.371486
F86	F	-0.857782	-0.154788	0.871486
H87	H	-0.847080	0.000050	0.237929
H88	H	-0.347080	0.500050	0.737929
H89	H	-1.339081	-0.411941	0.381607
H90	H	-0.839081	0.088059	0.881607
H91	H	-1.648572	-0.000007	0.085046
H92	H	-1.148572	0.499993	0.585046
F93	F	-1.271558	0.000058	-0.297324
F94	F	-0.771558	0.500058	0.202676
H95	H	-1.226472	0.000040	-0.088991
H96	H	-0.726472	0.500040	0.411009
H97	H	-1.701433	0.000018	-0.283125
H98	H	-1.201433	0.500018	0.216875
F99	F	-1.656336	0.000014	-0.074790
F100	F	-1.156336	0.500014	0.425210
H101	H	-1.682690	0.000025	-0.434149
H102	H	-1.182690	0.500025	0.065851
H103	H	-1.245203	0.000026	0.062035
H104	H	-0.745203	0.500026	0.562035
