data_functionalizedCrystal
_audit_creation_method	'MofGen! by Chris Wilmer'
_symmetry_space_group_name_H-M	'P1'
_symmetry_Int_Tables_number	1
_symmetry_cell_setting	triclinic
loop_
_symmetry_equiv_pos_as_xyz
  x,y,z
_cell_length_a	10.654550
_cell_length_b	10.540539
_cell_length_c	9.016244
_cell_angle_alpha	90.002288
_cell_angle_beta	89.992926
_cell_angle_gamma	84.505197
loop_
_atom_site_label
_atom_site_type_symbol
_atom_site_fract_x
_atom_site_fract_y
_atom_site_fract_z
O1	O	1.667903	0.178292	-0.123455
O2	O	1.302431	0.195279	-0.123430
O3	O	1.493505	0.002076	-0.123441
O4	O	1.476829	0.371495	-0.123444
O5	O	1.493490	0.002087	0.123240
O6	O	1.302416	0.195291	0.123251
O7	O	1.667888	0.178303	0.123226
Cu8	Cu	1.485151	0.186798	0.145762
Cu9	Cu	1.485168	0.186784	-0.145966
O10	O	1.476814	0.371506	0.123237
C11	C	1.255625	0.194038	-0.000087
C12	C	1.116180	0.190306	-0.000078
C13	C	1.036734	0.304061	-0.000100
C14	C	0.905712	0.300547	-0.000126
C15	C	0.933595	0.069513	-0.000113
C16	C	1.064614	0.073028	-0.000076
C17	C	1.088301	0.421338	-0.000101
C18	C	1.008854	0.535103	-0.000125
C19	C	0.877832	0.531589	-0.000151
C20	C	0.826256	0.414310	-0.000153
C21	C	1.492247	-0.045221	-0.000103
C22	C	1.488505	-0.186168	-0.000111
C23	C	1.345134	-0.369543	-0.000655
C24	C	1.348927	-0.222926	-0.000100
C25	C	1.555668	-0.247843	0.140751
C26	C	1.550904	-0.394386	0.140870
C27	C	1.553760	-0.394918	-0.139652
C28	C	1.555046	-0.247937	-0.141515
C29	C	1.714694	0.179545	-0.000121
C30	C	1.854139	0.183276	-0.000140
C31	C	1.478072	0.418803	-0.000104
C32	C	1.481813	0.559750	-0.000106
N33	N	1.485147	0.186807	0.350948
N34	N	1.485181	0.186765	-0.351153
C35	C	1.382890	0.290142	0.413924
C36	C	1.382541	0.289845	0.585815
C37	C	1.455907	0.053903	0.586426
C38	C	1.455151	0.054532	0.414482
C39	C	1.616988	0.215138	0.414276
C40	C	1.616152	0.218115	0.586233
H41	H	1.296079	-0.180309	-0.101076
Cl42	Cl	1.253013	0.425764	-0.000077
H43	H	1.129301	-0.019601	-0.000062
Cl44	Cl	1.734491	0.098829	0.351379
H45	H	1.501255	-0.422562	0.246174
H46	H	1.050855	0.630586	-0.000112
Cl47	Cl	0.777959	0.674603	-0.000167
H48	H	1.290003	-0.398128	-0.101669
Cl49	Cl	1.650429	0.369032	0.649215
Cl50	Cl	1.709411	-0.467889	-0.141131
H51	H	1.290215	-0.399726	0.099801
H52	H	1.400075	0.388553	0.628022
Cl53	Cl	1.232708	0.262323	0.347271
Cl54	Cl	0.661541	0.409897	-0.000163
H55	H	1.284731	0.271557	0.626985
Cl56	Cl	1.306670	0.016391	0.352608
Cl57	Cl	1.705882	-0.468506	0.150748
H58	H	1.295696	-0.181146	0.101051
H59	H	0.891591	-0.025970	-0.000138
Cl60	Cl	1.713925	-0.213390	0.148836
H61	H	1.509001	-0.205221	0.245583
Cl62	Cl	1.660148	0.361680	0.347340
H63	H	1.528391	-0.024926	0.627249
Cl64	Cl	1.484012	-0.443596	-0.304491
H65	H	1.505904	-0.207066	-0.245721
Cl66	Cl	1.309134	0.014862	0.652955
Cl67	Cl	1.739250	0.109628	0.652468
Cl68	Cl	1.712162	-0.210594	-0.154670
H69	H	1.400136	0.389187	0.372591
Cl70	Cl	1.565709	-0.067890	0.350148
