data_functionalizedCrystal
_audit_creation_method	'MofGen! by Chris Wilmer'
_symmetry_space_group_name_H-M	'P1'
_symmetry_Int_Tables_number	1
_symmetry_cell_setting	triclinic
loop_
_symmetry_equiv_pos_as_xyz
  x,y,z
_cell_length_a	15.944551
_cell_length_b	23.532407
_cell_length_c	15.021413
_cell_angle_alpha	89.999348
_cell_angle_beta	89.997174
_cell_angle_gamma	83.173708
loop_
_atom_site_label
_atom_site_type_symbol
_atom_site_fract_x
_atom_site_fract_y
_atom_site_fract_z
O1	O	1.113910	0.073442	-0.073949
O2	O	1.613910	0.573442	0.426051
O3	O	0.869284	0.082498	-0.073972
O4	O	1.369284	0.582498	0.426028
O5	O	0.998974	-0.004933	-0.073943
O6	O	1.498974	0.495067	0.426057
O7	O	0.984220	0.160873	-0.073977
O8	O	1.484220	0.660873	0.426023
O9	O	0.998953	-0.004921	0.074121
O10	O	1.498953	0.495079	0.574121
O11	O	0.869263	0.082510	0.074092
O12	O	1.369263	0.582510	0.574092
O13	O	1.113889	0.073455	0.074116
O14	O	1.613889	0.573455	0.574116
Zn15	Zn	0.991573	0.077985	0.097612
Zn16	Zn	1.491573	0.577985	0.597612
Zn17	Zn	0.991600	0.077968	-0.097469
Zn18	Zn	1.491600	0.577968	0.402531
O19	O	0.984200	0.160886	0.074087
O20	O	1.484200	0.660886	0.574087
C21	C	0.837983	0.082128	0.000057
C22	C	1.337983	0.582128	0.500057
C23	C	0.744746	0.081001	0.000049
C24	C	1.244746	0.581001	0.500049
C25	C	0.530369	0.024113	0.000078
C26	C	1.030369	0.524113	0.500078
C27	C	0.469137	0.050524	-0.072931
C28	C	0.969137	0.550524	0.427069
C29	C	0.574038	0.078962	0.000060
C30	C	1.074038	0.578962	0.500060
C31	C	0.469138	0.050549	0.073049
C32	C	0.969138	0.550549	0.573049
C33	C	0.409142	0.076989	0.000075
C34	C	0.909142	0.576989	0.500075
C35	C	0.514033	0.105388	-0.073009
C36	C	1.014033	0.605388	0.426991
C37	C	0.514041	0.105405	0.073036
C38	C	1.014041	0.605405	0.573036
C39	C	0.452826	0.131856	0.000010
C40	C	0.952826	0.631856	0.500010
C41	C	0.669030	0.080097	0.000051
C42	C	1.169030	0.580097	0.500051
C43	C	0.314150	0.075858	0.000077
C44	C	0.814150	0.575858	0.500077
C45	C	0.998588	-0.026144	0.000091
C46	C	1.498588	0.473856	0.500091
C47	C	0.997458	-0.089366	0.000098
C48	C	1.497458	0.410634	0.500098
C49	C	1.067121	-0.488199	0.000056
C50	C	1.567121	0.011801	0.500056
C51	C	1.066072	-0.547603	0.000049
C52	C	1.566072	-0.047603	0.500049
O53	O	1.130650	-0.584098	0.000022
O54	O	1.630650	-0.084098	0.500022
N55	N	0.988971	-0.570528	0.000042
N56	N	1.488971	-0.070528	0.500042
C57	C	0.912915	-0.534045	0.000033
C58	C	1.412915	-0.034045	0.500033
O59	O	0.847239	-0.558999	0.000026
O60	O	1.347239	-0.058999	0.500026
C61	C	0.913965	-0.474642	0.000034
C62	C	1.413965	0.025358	0.500034
C63	C	0.991071	-0.451721	0.000049
C64	C	1.491071	0.048279	0.500049
C65	C	1.144220	-0.465277	0.000070
C66	C	1.644220	0.034723	0.500070
C67	C	1.145269	-0.405877	0.000079
C68	C	1.645269	0.094123	0.500079
C69	C	1.069219	-0.369399	0.000073
C70	C	1.569219	0.130601	0.500073
C71	C	0.992120	-0.392320	0.000058
C72	C	1.492120	0.107680	0.500058
C73	C	0.837910	-0.438160	0.000018
C74	C	1.337910	0.061840	0.500018
C75	C	0.838967	-0.378754	0.000018
C76	C	1.338967	0.121246	0.500018
C77	C	0.916072	-0.355832	0.000034
C78	C	1.416072	0.144168	0.500034
C79	C	0.917118	-0.296442	0.000060
C80	C	1.417118	0.203558	0.500060
N81	N	0.994219	-0.273517	0.000067
N82	N	1.494219	0.226483	0.500067
C83	C	1.070269	-0.309995	0.000073
C84	C	1.570269	0.190005	0.500073
C85	C	0.910716	-0.658796	0.000031
C86	C	1.410716	-0.158796	0.500031
C87	C	0.909664	-0.718198	0.000037
C88	C	1.409664	-0.218198	0.500037
C89	C	1.062821	-0.731752	0.000050
C90	C	1.562821	-0.231752	0.500050
C91	C	1.063872	-0.672349	0.000051
C92	C	1.563872	-0.172349	0.500051
C93	C	0.987816	-0.635871	0.000037
C94	C	1.487816	-0.135871	0.500037
C95	C	1.072466	-0.185250	0.000092
C96	C	1.572466	0.314750	0.500092
C97	C	1.073508	-0.125844	0.000104
C98	C	1.573508	0.374156	0.500104
C99	C	0.920352	-0.112295	0.000085
C100	C	1.420352	0.387705	0.500085
C101	C	0.919309	-0.171696	0.000078
C102	C	1.419309	0.328304	0.500078
C103	C	0.995373	-0.208173	0.000078
C104	C	1.495373	0.291827	0.500078
O105	O	0.852574	-0.259913	0.000083
O106	O	1.352574	0.240087	0.500083
O107	O	1.135935	-0.285033	0.000069
O108	O	1.635935	0.214967	0.500069
C109	C	1.145190	0.073824	0.000084
C110	C	1.645190	0.573824	0.500084
C111	C	1.238427	0.074951	0.000087
C112	C	1.738427	0.574951	0.500087
C113	C	0.984586	0.182097	0.000051
C114	C	1.484586	0.682097	0.500051
C115	C	0.985715	0.245318	0.000038
C116	C	1.485715	0.745318	0.500038
N117	N	0.991561	0.077995	0.230750
N118	N	1.491561	0.577995	0.730750
N119	N	0.991619	0.077953	-0.230606
N120	N	1.491619	0.577953	0.269394
C121	C	0.931583	0.118404	0.470420
C122	C	1.431583	0.618404	0.970420
C123	C	1.007390	0.129461	0.529759
C124	C	1.507390	0.629461	1.029759
C125	C	0.991582	0.077981	0.412357
C126	C	1.491582	0.577981	0.912357
C127	C	0.915796	0.066938	0.529760
C128	C	1.415796	0.566938	1.029760
C129	C	0.991596	0.077969	0.587781
C130	C	1.491596	0.577969	1.087781
C131	C	1.067428	0.089063	0.470389
C132	C	1.567428	0.589063	0.970389
C133	C	0.975783	0.026518	0.470385
C134	C	1.475783	0.526518	0.970385
C135	C	1.051645	0.037552	0.529697
C136	C	1.551645	0.537552	1.029697
C137	C	0.991573	0.077990	0.311300
C138	C	1.491573	0.577990	0.811300
C139	C	0.991614	0.077960	0.688836
C140	C	1.491614	0.577960	1.188836
H141	H	0.449230	0.027320	-0.134645
H142	H	0.949230	0.527320	0.365355
H143	H	1.126658	-0.653691	0.000063
H144	H	1.626658	-0.153691	0.500063
O145	O	1.118933	-0.007735	0.563974
O146	O	1.618933	0.492265	1.063974
H147	H	1.152666	-0.029946	0.506847
H148	H	1.652666	0.470054	1.006847
H149	H	1.136300	-0.107185	0.000119
H150	H	1.636300	0.392815	0.500119
H151	H	1.131539	0.098450	0.444420
H152	H	1.631539	0.598450	0.944420
O153	O	0.838330	-0.072944	0.000083
O154	O	1.338330	0.427056	0.500083
H155	H	0.801415	-0.081093	-0.060269
H156	H	1.301415	0.418907	0.439731
H157	H	0.419284	0.177423	-0.000040
H158	H	0.919284	0.677423	0.499960
H159	H	1.124746	-0.761464	0.000052
H160	H	1.624746	-0.261464	0.500052
H161	H	0.449239	0.027346	0.134770
H162	H	0.949239	0.527346	0.634770
O163	O	0.540458	0.136110	0.154787
O164	O	1.040458	0.636110	0.654787
H165	H	0.483941	0.150213	0.195875
H166	H	0.983941	0.650213	0.695875
O167	O	0.540254	0.136066	-0.154881
O168	O	1.040254	0.636066	0.345119
H169	H	0.609760	0.136633	-0.154268
H170	H	1.109760	0.636633	0.345732
H171	H	0.851698	0.057603	0.555841
H172	H	1.351698	0.557603	1.055841
O173	O	0.574964	-0.036201	0.000031
O174	O	1.074964	0.463799	0.500031
H175	H	0.557095	-0.058843	-0.060647
H176	H	1.057095	0.441157	0.439353
O177	O	1.154504	-0.224589	0.000105
O178	O	1.654504	0.275411	0.500105
H179	H	1.208285	-0.198662	0.000128
H180	H	1.708285	0.301338	0.500128
O181	O	1.228433	-0.381157	0.000070
O182	O	1.728433	0.118843	0.500070
H183	H	1.281131	-0.416510	0.000059
H184	H	1.781131	0.083490	0.500059
O185	O	0.826502	-0.742919	0.000031
O186	O	1.326502	-0.242919	0.500031
H187	H	0.773801	-0.707568	0.000023
H188	H	1.273801	-0.207568	0.500023
O189	O	0.828680	-0.619452	0.000040
O190	O	1.328680	-0.119452	0.500040
H191	H	0.774897	-0.645378	0.000046
H192	H	1.274897	-0.145378	0.500046
O193	O	0.836143	-0.196417	0.000072
O194	O	1.336143	0.303583	0.500072
H195	H	0.831987	-0.223157	0.060418
H196	H	1.331987	0.276843	0.560418
O197	O	0.754746	-0.462874	-0.000002
O198	O	1.254746	0.037126	0.499998
H199	H	0.702049	-0.427520	-0.000017
H200	H	1.202049	0.072480	0.499983
H201	H	0.777032	-0.349056	0.000006
H202	H	1.277032	0.150944	0.500006
O203	O	1.226252	-0.504618	0.000090
O204	O	1.726252	-0.004618	0.500090
H205	H	1.280032	-0.478689	0.000109
H206	H	1.780032	0.021311	0.500109
H207	H	0.962383	-0.016985	0.444284
H208	H	1.462383	0.483015	0.944284
H209	H	0.880895	0.152617	0.444393
H210	H	1.380895	0.652617	0.944393
O211	O	1.025085	0.187094	0.564361
O212	O	1.525085	0.687094	1.064361
H213	H	0.975182	0.220581	0.540645
H214	H	1.475182	0.720581	1.040645
