data_functionalizedCrystal
_audit_creation_method	'MofGen! by Chris Wilmer'
_symmetry_space_group_name_H-M	'P1'
_symmetry_Int_Tables_number	1
_symmetry_cell_setting	triclinic
loop_
_symmetry_equiv_pos_as_xyz
  x,y,z
_cell_length_a	9.065218
_cell_length_b	19.188930
_cell_length_c	7.540329
_cell_angle_alpha	89.991297
_cell_angle_beta	89.996962
_cell_angle_gamma	84.080333
loop_
_atom_site_label
_atom_site_type_symbol
_atom_site_fract_x
_atom_site_fract_y
_atom_site_fract_z
O1	O	1.956847	0.102369	-0.147510
O2	O	2.456847	0.602369	0.352490
O3	O	1.527271	0.110766	-0.147515
O4	O	2.027271	0.610766	0.352485
O5	O	1.754456	0.005009	-0.147478
O6	O	2.254456	0.505009	0.352522
O7	O	1.729662	0.208127	-0.147547
O8	O	2.229662	0.708127	0.352453
O9	O	1.754442	0.005007	0.147487
O10	O	2.254442	0.505007	0.647487
O11	O	1.527257	0.110765	0.147450
O12	O	2.027257	0.610765	0.647450
O13	O	1.956833	0.102368	0.147455
O14	O	2.456833	0.602368	0.647455
Cu15	Cu	1.742044	0.106566	0.174385
Cu16	Cu	2.242044	0.606566	0.674385
Cu17	Cu	1.742060	0.106568	-0.174445
Cu18	Cu	2.242060	0.606568	0.325555
O19	O	1.729649	0.208126	0.147418
O20	O	2.229649	0.708126	0.647418
C21	C	1.472305	0.109959	-0.000032
C22	C	1.972305	0.609959	0.499968
C23	C	1.308546	0.107546	-0.000033
C24	C	1.808546	0.607546	0.499967
C25	C	1.753646	-0.021009	0.000010
C26	C	2.253646	0.478991	0.500010
C27	C	1.751236	-0.098533	0.000025
C28	C	2.251236	0.401467	0.500025
C29	C	1.884540	-0.142421	0.000035
C30	C	2.384540	0.357579	0.500035
C31	C	1.882276	-0.215262	0.000006
C32	C	2.382276	0.284738	0.500006
C33	C	1.746699	-0.244212	0.000004
C34	C	2.246699	0.255788	0.500004
C35	C	1.613377	-0.200314	-0.000016
C36	C	2.113377	0.299686	0.499984
C37	C	1.615646	-0.127474	-0.000006
C38	C	2.115646	0.372526	0.499994
N39	N	1.643063	-0.353023	0.100385
N40	N	2.143063	0.146977	0.600385
N41	N	1.640917	-0.422218	0.100379
N42	N	2.140917	0.077782	0.600379
C43	C	1.739858	-0.463674	-0.000032
C44	C	2.239858	0.036326	0.499968
N45	N	1.841047	-0.433322	-0.100414
N46	N	2.341047	0.066678	0.399586
N47	N	1.843197	-0.364120	-0.100400
N48	N	2.343197	0.135880	0.399600
C49	C	1.744225	-0.323194	-0.000009
C50	C	2.244225	0.176806	0.499991
C51	C	1.870716	-0.586546	-0.000056
C52	C	2.370716	-0.086546	0.499944
C53	C	1.868446	-0.659388	-0.000095
C54	C	2.368446	-0.159388	0.499905
C55	C	1.599544	-0.644438	-0.000100
C56	C	2.099544	-0.144438	0.499900
C57	C	1.601818	-0.571598	-0.000078
C58	C	2.101818	-0.071598	0.499922
C59	C	1.737408	-0.542656	-0.000048
C60	C	2.237408	-0.042656	0.499952
C61	C	2.011799	0.103176	-0.000032
C62	C	2.511799	0.603176	0.499968
C63	C	2.175558	0.105589	-0.000043
C64	C	2.675558	0.605589	0.499957
C65	C	1.730458	0.234144	-0.000074
C66	C	2.230458	0.734144	0.499926
C67	C	1.732869	0.311667	-0.000101
C68	C	2.232869	0.811667	0.499899
N69	N	1.742044	0.106565	0.419734
N70	N	2.242044	0.606565	0.919734
N71	N	1.742072	0.106564	-0.419794
N72	N	2.242072	0.606564	0.080206
H73	H	1.994948	-0.118862	0.000054
H74	H	2.494948	0.381138	0.500054
H75	H	1.990832	-0.251003	0.000007
H76	H	2.490832	0.248997	0.500007
C77	C	1.490507	-0.305336	-0.000007
C78	C	1.990507	0.194664	0.499993
C79	C	1.464349	-0.232133	-0.000012
C80	C	1.964349	0.267867	0.499988
H81	H	1.398497	-0.324977	0.000001
H82	H	1.898497	0.175023	0.500001
H83	H	1.545372	-0.320333	-0.102860
H84	H	2.045372	0.179667	0.397140
H85	H	1.545373	-0.320343	0.102863
H86	H	2.045373	0.179657	0.602863
H87	H	1.409492	-0.217126	-0.102888
H88	H	1.909492	0.282874	0.397112
H89	H	1.409460	-0.217130	0.102852
H90	H	1.909460	0.282870	0.602852
C91	C	1.369666	-0.654107	-0.151743
C92	C	1.869666	-0.154107	0.348257
C93	C	1.450513	-0.676251	-0.000111
C94	C	1.950513	-0.176251	0.499889
H95	H	1.277662	-0.673753	-0.151757
H96	H	1.777662	-0.173753	0.348243
H97	H	1.351943	-0.604450	-0.151718
H98	H	1.851943	-0.104450	0.348282
H99	H	1.424559	-0.669110	-0.254592
H100	H	1.924559	-0.169110	0.245408
H101	H	1.395624	-0.661243	0.102738
H102	H	1.895624	-0.161243	0.602738
H103	H	1.468231	-0.725918	-0.000120
H104	H	1.968231	-0.225918	0.499880
C105	C	1.349622	-0.120015	-0.000010
C106	C	1.849622	0.379985	0.499990
C107	C	1.469106	-0.079227	0.000001
C108	C	1.969106	0.420773	0.500001
H109	H	1.259156	-0.090227	0.000008
H110	H	1.759156	0.409773	0.500008
H111	H	1.354332	-0.148723	-0.102874
H112	H	1.854332	0.351277	0.397126
H113	H	1.354335	-0.148750	0.102849
H114	H	1.854335	0.351250	0.602849
H115	H	1.464400	-0.050497	-0.102865
H116	H	1.964400	0.449503	0.397135
H117	H	1.464394	-0.050507	0.102876
H118	H	1.964394	0.449493	0.602876
C119	C	2.136284	-0.608636	-0.000096
C120	C	2.636284	-0.108636	0.499904
C121	C	2.019752	-0.554727	-0.000065
C122	C	2.519752	-0.054727	0.499935
H123	H	2.228291	-0.588992	-0.000118
H124	H	2.728291	-0.088992	0.499882
H125	H	2.129816	-0.636742	0.102756
H126	H	2.629816	-0.136742	0.602756
H127	H	2.129788	-0.636728	-0.102967
H128	H	2.629788	-0.136728	0.397033
H129	H	2.026242	-0.526638	0.102813
H130	H	2.526242	-0.026638	0.602813
H131	H	2.026224	-0.526609	-0.102928
H132	H	2.526224	-0.026609	0.397072
H133	H	1.977004	-0.695122	-0.000097
H134	H	2.477004	-0.195122	0.499903
H135	H	1.493266	-0.535863	-0.000076
H136	H	1.993266	-0.035863	0.499924
