data_functionalizedCrystal
_audit_creation_method	'MofGen! by Chris Wilmer'
_symmetry_space_group_name_H-M	'P1'
_symmetry_Int_Tables_number	1
_symmetry_cell_setting	triclinic
loop_
_symmetry_equiv_pos_as_xyz
  x,y,z
_cell_length_a	16.959455
_cell_length_b	14.908520
_cell_length_c	14.908308
_cell_angle_alpha	96.360765
_cell_angle_beta	86.720693
_cell_angle_gamma	86.682394
loop_
_atom_site_label
_atom_site_type_symbol
_atom_site_fract_x
_atom_site_fract_y
_atom_site_fract_z
Zn1	Zn	1.161749	0.389946	0.532552
Zn2	Zn	1.661749	0.889946	1.032552
Zn3	Zn	1.161659	0.532591	0.389922
Zn4	Zn	1.661659	1.032591	0.889922
Zn5	Zn	1.037663	0.381240	0.381211
Zn6	Zn	1.537663	0.881240	0.881211
Zn7	Zn	1.021447	0.541255	0.541233
Zn8	Zn	1.521447	1.041255	1.041233
O9	O	1.095629	0.461258	0.461229
O10	O	1.595629	0.961258	0.961229
O11	O	1.272346	0.408885	0.513644
O12	O	1.772346	0.908885	1.013644
O13	O	1.151960	0.505245	0.262106
O14	O	1.651960	1.005245	0.762106
O15	O	1.060948	0.255731	0.394008
O16	O	1.560948	0.755731	0.894008
O17	O	1.272280	0.513686	0.408855
O18	O	1.772280	1.013686	0.908855
O19	O	1.152113	0.262126	0.505197
O20	O	1.652113	0.762126	1.005197
O21	O	1.060860	0.394048	0.255706
O22	O	1.560860	0.894048	0.755706
O23	O	0.924903	0.402450	0.402426
O24	O	1.424903	0.902450	0.902426
O25	O	1.033309	0.528453	0.666742
O26	O	1.533309	1.028453	1.166742
O27	O	0.912989	0.520012	0.519993
O28	O	1.412989	1.020012	1.019993
O29	O	1.136388	0.417286	0.660364
O30	O	1.636388	0.917286	1.160364
O31	O	1.136235	0.660404	0.417272
O32	O	1.636235	1.160404	0.917272
O33	O	1.033222	0.666770	0.528440
O34	O	1.533222	1.166770	1.028440
C35	C	0.890266	0.461227	0.461207
C36	C	1.390266	0.961227	0.961207
C37	C	0.802408	0.461237	0.461220
C38	C	1.302408	0.961237	0.961220
C39	C	1.082980	0.696431	0.474763
C40	C	1.582980	1.196431	0.974763
C41	C	1.077639	0.797041	0.480583
C42	C	1.577639	1.297041	0.980583
C43	C	1.083050	0.474807	0.697313
C44	C	1.583050	0.974807	1.197313
C45	C	1.077690	0.480581	0.797918
C46	C	1.577690	0.980581	1.297918
C47	C	0.437106	0.400003	0.400130
C48	C	0.937106	0.900003	0.900130
C49	C	0.424749	0.522590	0.522385
C50	C	0.924749	1.022590	1.022385
C51	C	0.507296	0.522577	0.522378
C52	C	1.007296	1.022577	1.022378
C53	C	0.554752	0.461277	0.461246
C54	C	1.054752	0.961277	0.961246
C55	C	0.519661	0.399989	0.400120
C56	C	1.019661	0.899989	0.900120
C57	C	0.542393	0.583869	0.583497
C58	C	1.042393	1.083869	1.083497
C59	C	0.624945	0.583859	0.583493
C60	C	1.124945	1.083859	1.083493
C61	C	0.672402	0.522554	0.522364
C62	C	1.172402	1.022554	1.022364
C63	C	0.637307	0.461263	0.461236
C64	C	1.137307	0.961263	0.961236
C65	C	0.684763	0.399963	0.400104
C66	C	1.184763	0.899963	0.900104
C67	C	0.649668	0.338667	0.338980
C68	C	1.149668	0.838667	0.838980
C69	C	0.567119	0.338684	0.338992
C70	C	1.067119	0.838684	0.838992
C71	C	0.754952	0.522537	0.522352
C72	C	1.254952	1.022537	1.022352
C73	C	0.767317	0.399949	0.400094
C74	C	1.267317	0.899949	0.900094
C75	C	1.301795	0.461290	0.461253
C76	C	1.801795	0.961290	0.961253
C77	C	1.389650	0.461303	0.461262
C78	C	1.889650	0.961303	0.961262
C79	C	1.108349	0.225168	0.447663
C80	C	1.608349	0.725168	0.947663
C81	C	1.113769	0.124560	0.441881
C82	C	1.613769	0.624560	0.941881
C83	C	1.174970	0.979413	0.375854
C84	C	1.674970	1.479413	0.875854
C85	C	1.169954	1.073945	0.381320
C86	C	1.669954	1.573945	0.881320
C87	C	1.062597	1.080638	0.496984
C88	C	1.562597	1.580638	0.996984
C89	C	1.067613	0.986106	0.491518
C90	C	1.567613	1.486106	0.991518
C91	C	1.123800	0.935497	0.430950
C92	C	1.623800	1.435497	0.930950
C93	C	1.128811	0.840963	0.425481
C94	C	1.628811	1.340963	0.925481
C95	C	1.021458	0.847658	0.541149
C96	C	1.521458	1.347658	1.041149
C97	C	1.016443	0.942190	0.546614
C98	C	1.516443	1.442190	1.046614
C99	C	1.108209	0.447696	0.226061
C100	C	1.608209	0.947696	0.726061
C101	C	1.113736	0.441667	0.125442
C102	C	1.613736	0.941667	0.625442
C103	C	1.174951	0.375652	0.980324
C104	C	1.674951	0.875652	1.480324
C105	C	1.169917	0.381074	1.074850
C106	C	1.669917	0.881074	1.574850
C107	C	1.062584	0.496841	1.081500
C108	C	1.562584	0.996841	1.581500
C109	C	1.067618	0.491420	0.986973
C110	C	1.567618	0.991420	1.486973
C111	C	1.123804	0.430824	0.936388
C112	C	1.623804	0.930824	1.436388
C113	C	1.128842	0.425407	0.841860
C114	C	1.628842	0.925407	1.341860
C115	C	1.021505	0.541169	0.848510
C116	C	1.521505	1.041169	1.348510
C117	C	1.016471	0.546591	0.943037
C118	C	1.516471	1.046591	1.443037
H119	H	0.805951	0.350025	0.350317
H120	H	1.305951	0.850025	0.850317
H121	H	0.970699	0.983409	0.595929
H122	H	1.470699	1.483409	1.095929
H123	H	1.016857	1.121860	0.546301
H124	H	1.516857	1.621860	1.046301
H125	H	0.979790	0.811891	0.586009
H126	H	1.479790	1.311891	1.086009
H127	H	1.174593	0.376068	0.800675
H128	H	1.674593	0.876068	1.300675
C129	C	0.701880	0.271236	0.271740
C130	C	1.201880	0.771236	0.771740
N131	N	0.741210	0.220445	0.221099
N132	N	1.241210	0.720445	0.721099
H133	H	0.970725	0.595925	0.984236
H134	H	1.470725	1.095925	1.484236
H135	H	1.220704	0.326317	0.939137
H136	H	1.720704	0.826317	1.439137
H137	H	0.386106	0.572504	0.572151
H138	H	0.886106	1.072504	1.072151
C139	C	0.528508	0.271269	0.271758
C140	C	1.028508	0.771269	0.771758
N141	N	0.499424	0.220494	0.221116
N142	N	0.999424	0.720494	0.721116
H143	H	0.979860	0.586097	0.812728
H144	H	1.479860	1.086097	1.312728
H145	H	0.408529	0.350095	0.350367
H146	H	0.908529	0.850095	0.850367
H147	H	0.503749	0.633783	0.633261
H148	H	1.003749	1.133783	1.133261
C149	C	1.226185	0.320383	1.123176
C150	C	1.726185	0.820383	1.623176
N151	N	1.268569	0.274668	1.159575
N152	N	1.768569	0.774668	1.659575
H153	H	0.653511	0.633769	0.633264
H154	H	1.153511	1.133769	1.133264
C155	C	0.793552	0.589958	0.589584
C156	C	1.293552	1.089958	1.089584
N157	N	0.822625	0.640741	0.640230
N158	N	1.322625	1.140741	1.140230
H159	H	1.174559	0.799758	0.376161
H160	H	1.674559	1.299758	0.876161
H161	H	1.220714	0.938206	0.326531
H162	H	1.720714	1.438206	0.826531
C163	C	1.226242	1.122249	0.320706
C164	C	1.726242	1.622249	0.820706
N165	N	1.268640	1.158631	0.275049
N166	N	1.768640	1.658631	0.775049
H167	H	1.016840	0.546175	1.122702
H168	H	1.516840	1.046175	1.622702
