data_functionalizedCrystal
_audit_creation_method	'MofGen! by Chris Wilmer'
_symmetry_space_group_name_H-M	'P1'
_symmetry_Int_Tables_number	1
_symmetry_cell_setting	triclinic
loop_
_symmetry_equiv_pos_as_xyz
  x,y,z
_cell_length_a	8.559649
_cell_length_b	8.597299
_cell_length_c	7.681481
_cell_angle_alpha	103.491169
_cell_angle_beta	94.913240
_cell_angle_gamma	102.375623
loop_
_atom_site_label
_atom_site_type_symbol
_atom_site_fract_x
_atom_site_fract_y
_atom_site_fract_z
O1	O	2.105024	0.037138	-0.140767
O2	O	2.605024	0.537138	0.359233
O3	O	1.639817	-0.045183	-0.153263
O4	O	2.139817	0.454817	0.346737
O5	O	1.885145	0.229575	-0.111573
O6	O	2.385145	0.729575	0.388427
O7	O	1.859696	-0.237620	-0.182457
O8	O	2.359696	0.262380	0.317543
O9	O	1.915341	0.263461	0.186427
O10	O	2.415341	0.763461	0.686427
O11	O	1.670013	-0.011297	0.144736
O12	O	2.170013	0.488703	0.644736
O13	O	2.135220	0.071024	0.157232
O14	O	2.635220	0.571024	0.657232
Zn15	Zn	1.907411	0.035244	0.198298
Zn16	Zn	2.407411	0.535244	0.698298
Zn17	Zn	1.867626	-0.009403	-0.194329
Zn18	Zn	2.367626	0.490597	0.305671
O19	O	1.889892	-0.203734	0.115542
O20	O	2.389892	0.296266	0.615542
C21	C	1.595385	-0.034479	-0.005211
C22	C	2.095385	0.465521	0.494789
C23	C	1.418004	-0.053049	-0.008031
C24	C	1.918004	0.446951	0.491969
C25	C	1.899193	0.305775	0.046414
C26	C	2.399193	0.805775	0.546414
C27	C	1.896045	0.482340	0.073192
C28	C	2.396045	0.982340	0.573192
C29	C	2.179652	0.060319	0.009176
C30	C	2.679652	0.560319	0.509176
C31	C	2.357032	0.078888	0.011984
C32	C	2.857032	0.578888	0.511984
C33	C	1.875845	0.720066	-0.042449
C34	C	2.375845	1.220066	0.457551
C35	C	1.878995	0.543500	-0.069241
C36	C	2.378995	1.043500	0.430759
N37	N	1.934574	0.065717	0.466256
N38	N	2.434574	0.565717	0.966256
N39	N	1.840476	-0.039861	-0.462285
N40	N	2.340476	0.460139	0.037715
H41	H	1.440532	0.206050	0.031269
H42	H	1.940532	0.706050	0.531269
H43	H	1.744420	-0.147625	0.446167
H44	H	2.244420	0.352375	0.946167
H45	H	1.866800	0.460781	-0.211680
H46	H	2.366800	0.960781	0.288320
H47	H	2.030647	0.173478	0.557813
H48	H	2.530647	0.673478	1.057813
C49	C	1.305191	-0.224855	-0.034100
C50	C	1.805191	0.275145	0.465900
N51	N	1.220220	-0.354256	-0.053731
N52	N	1.720220	0.145744	0.446269
H53	H	1.908218	0.565062	0.215640
H54	H	2.408218	1.065062	0.715640
