data_functionalizedCrystal
_audit_creation_method	'MofGen! by Chris Wilmer'
_symmetry_space_group_name_H-M	'P1'
_symmetry_Int_Tables_number	1
_symmetry_cell_setting	triclinic
loop_
_symmetry_equiv_pos_as_xyz
  x,y,z
_cell_length_a	12.827893
_cell_length_b	12.594516
_cell_length_c	12.827885
_cell_angle_alpha	89.971946
_cell_angle_beta	89.980728
_cell_angle_gamma	90.016213
loop_
_atom_site_label
_atom_site_type_symbol
_atom_site_fract_x
_atom_site_fract_y
_atom_site_fract_z
Zn1	Zn	1.597665	-0.423686	-0.590861
Zn2	Zn	2.097665	0.076314	-0.090861
Zn3	Zn	1.597557	-0.601702	-0.416127
Zn4	Zn	2.097557	-0.101702	0.083873
Zn5	Zn	1.422906	-0.423738	-0.416135
Zn6	Zn	1.922906	0.076262	0.083865
Zn7	Zn	1.422889	-0.601623	-0.590827
Zn8	Zn	1.922889	-0.101623	-0.090827
O9	O	1.510254	-0.512687	-0.503487
O10	O	2.010254	-0.012687	-0.003487
O11	O	1.743887	-0.447311	-0.567693
O12	O	2.243887	0.052689	-0.067693
O13	O	1.574351	-0.578150	-0.269892
O14	O	2.074351	-0.078150	0.230108
O15	O	1.446140	-0.274786	-0.439330
O16	O	1.946140	0.225214	0.060670
O17	O	1.743807	-0.578099	-0.439317
O18	O	2.243807	-0.078099	0.060683
O19	O	1.574535	-0.274747	-0.567701
O20	O	2.074535	0.225253	-0.067701
O21	O	1.446036	-0.447400	-0.269898
O22	O	1.946036	0.052600	0.230102
O23	O	1.276668	-0.447324	-0.439297
O24	O	1.776668	0.052676	0.060703
O25	O	1.446112	-0.577965	-0.737067
O26	O	1.946112	-0.077965	-0.237067
O27	O	1.276656	-0.578016	-0.567642
O28	O	1.776656	-0.078016	-0.067642
O29	O	1.574519	-0.447235	-0.737093
O30	O	2.074519	0.052765	-0.237093
O31	O	1.574335	-0.750637	-0.439283
O32	O	2.074335	-0.250637	0.060717
O33	O	1.446007	-0.750580	-0.567635
O34	O	1.946007	-0.250580	-0.067635
C35	C	1.238744	-0.512668	-0.503468
C36	C	1.738744	-0.012668	-0.003468
C37	C	1.122591	-0.512685	-0.503484
C38	C	1.622591	-0.012685	-0.003484
C39	C	0.950723	-0.577320	-0.439893
C40	C	1.450723	-0.077320	0.060107
C41	C	1.070774	-0.577303	-0.439875
C42	C	1.570774	-0.077303	0.060125
C43	C	1.510186	-0.789228	-0.503477
C44	C	2.010186	-0.289228	-0.003477
C45	C	1.510252	-0.907534	-0.503508
C46	C	2.010252	-0.407534	-0.003508
C47	C	1.440448	-0.976794	-0.573269
C48	C	1.940448	-0.476794	-0.073269
C49	C	1.414986	-1.047663	-0.477914
C50	C	1.914986	-0.547663	0.022086
C51	C	1.535809	-1.047464	-0.598879
C52	C	2.035809	-0.547464	-0.098879
C53	C	1.484740	-0.976844	-0.408102
C54	C	1.984740	-0.476844	0.091898
C55	C	1.605607	-0.976639	-0.529132
C56	C	2.105607	-0.476639	-0.029132
C57	C	1.580182	-1.047476	-0.433711
C58	C	2.080182	-0.547476	0.066289
C59	C	1.782824	-0.512708	-0.503508
C60	C	2.282824	-0.012708	-0.003508
C61	C	1.898978	-0.512717	-0.503517
C62	C	2.398978	-0.012717	-0.003517
C63	C	1.510325	-0.512585	-0.776058
C64	C	2.010325	-0.012585	-0.276058
C65	C	1.510356	-0.512542	-0.892211
C66	C	2.010356	-0.012542	-0.392211
C67	C	1.510352	-0.235067	-0.503521
C68	C	2.010352	0.264933	-0.003521
C69	C	1.510393	-0.116761	-0.503535
C70	C	2.010393	0.383239	-0.003535
C71	C	1.446869	-0.577158	-1.064028
C72	C	1.946869	-0.077158	-0.564028
C73	C	1.446836	-0.577205	-0.943977
C74	C	1.946836	-0.077205	-0.443977
C75	C	1.510244	-0.512712	-0.231978
C76	C	2.010244	-0.012712	0.268022
C77	C	1.510416	-0.512456	-0.115825
C78	C	2.010416	-0.012456	0.384175
H79	H	1.115274	-0.632618	-0.385410
H80	H	1.615274	-0.132618	0.114590
H81	H	0.906148	-0.632636	-0.385431
H82	H	1.406148	-0.132636	0.114569
N83	N	1.582418	-0.439157	-0.951209
N84	N	2.082418	0.060843	-0.451209
H85	H	1.566221	-0.363098	-0.932276
H86	H	2.066221	0.136902	-0.432276
H87	H	1.657064	-0.455767	-0.932254
H88	H	2.157064	0.044233	-0.432254
H89	H	1.392486	-0.632514	-1.108559
H90	H	1.892486	-0.132514	-0.608559
H91	H	1.078098	-0.457377	-0.557961
H92	H	1.578098	0.042623	-0.057961
H93	H	1.381312	-0.945758	-0.632178
H94	H	1.881312	-0.445758	-0.132178
H95	H	1.392436	-0.632602	-0.899433
H96	H	1.892436	-0.132602	-0.399433
N97	N	1.582462	-0.439131	-1.056850
N98	N	2.082462	0.060869	-0.556850
H99	H	1.539966	-0.389862	-1.011561
H100	H	2.039966	0.110138	-0.511561
H101	H	1.630801	-0.482538	-1.011628
H102	H	2.130801	0.017462	-0.511628
H103	H	1.334412	-1.078883	-0.456263
H104	H	1.834412	-0.578883	0.043737
N105	N	0.958013	-0.439441	-0.575662
N106	N	1.458013	0.060559	-0.075662
H107	H	0.906987	-0.396331	-0.618125
H108	H	1.406987	0.103669	-0.118125
H109	H	1.003286	-0.390167	-0.533159
H110	H	1.503286	0.109833	-0.033159
N111	N	1.456063	-0.935936	-0.301247
N112	N	1.956063	-0.435936	0.198753
H113	H	1.456156	-0.855746	-0.301903
H114	H	1.956156	-0.355746	0.198097
H115	H	1.384340	-0.962477	-0.281807
H116	H	1.884340	-0.462477	0.218193
H117	H	1.686164	-0.945422	-0.550829
H118	H	2.186164	-0.445422	-0.050829
N119	N	1.658461	-1.088331	-0.355501
N120	N	2.158461	-0.588331	0.144499
H121	H	1.639077	-1.062503	-0.283535
H122	H	2.139077	-0.562503	0.216465
H123	H	1.658489	-1.168515	-0.356454
H124	H	2.158489	-0.668515	0.143546
N125	N	1.564371	-1.088567	-0.705694
N126	N	2.064371	-0.588567	-0.205694
H127	H	1.511537	-1.062856	-0.758317
H128	H	2.011537	-0.562856	-0.258317
H129	H	1.635848	-1.061615	-0.725490
H130	H	2.135848	-0.561615	-0.225490
