data_functionalizedCrystal
_audit_creation_method	'MofGen! by Chris Wilmer'
_symmetry_space_group_name_H-M	'P1'
_symmetry_Int_Tables_number	1
_symmetry_cell_setting	triclinic
loop_
_symmetry_equiv_pos_as_xyz
  x,y,z
_cell_length_a	6.817900
_cell_length_b	12.850268
_cell_length_c	9.464801
_cell_angle_alpha	42.525355
_cell_angle_beta	90.028046
_cell_angle_gamma	91.777450
loop_
_atom_site_label
_atom_site_type_symbol
_atom_site_fract_x
_atom_site_fract_y
_atom_site_fract_z
V1	V	3.840286	0.451956	-0.638142
O2	O	3.890126	0.300394	-0.635556
O3	O	3.736549	0.586357	-0.624582
O4	O	3.736347	0.586341	-0.920653
O5	O	3.890329	0.300409	-0.337435
V6	V	4.338281	0.417127	-0.603292
O7	O	4.069799	0.528355	-0.714588
O8	O	4.558965	0.340728	-0.526846
O9	O	4.218811	0.282726	-0.616852
O10	O	4.405838	0.568689	-0.605879
O11	O	4.405634	0.568674	-0.903999
O12	O	4.219013	0.282742	-0.320781
C13	C	4.048830	0.254381	-0.629288
C14	C	4.031651	0.141539	-0.638709
C15	C	3.569899	0.614711	-0.612152
C16	C	3.565924	0.727580	-0.602780
C17	C	3.569641	0.614679	-0.989808
C18	C	3.565500	0.727523	-1.225041
C19	C	4.032064	0.141606	-0.016398
C20	C	4.049083	0.254420	-0.251625
V21	V	3.823859	0.920332	-0.606474
O22	O	3.862907	1.076932	-0.614037
O23	O	3.729940	0.774711	-0.608936
O24	O	3.729462	0.774662	-0.312800
O25	O	3.863388	1.076982	-0.912223
V26	V	4.317497	1.011516	-0.697119
O27	O	4.057743	0.870268	-0.556108
O28	O	4.532045	1.112650	-0.798049
O29	O	4.189085	1.131817	-0.669588
O30	O	4.395386	0.868234	-0.702741
O31	O	4.394905	0.868184	-0.404555
O32	O	4.189563	1.131866	-0.965723
