data_functionalizedCrystal
_audit_creation_method	'MofGen! by Chris Wilmer'
_symmetry_space_group_name_H-M	'P1'
_symmetry_Int_Tables_number	1
_symmetry_cell_setting	triclinic
loop_
_symmetry_equiv_pos_as_xyz
  x,y,z
_cell_length_a	6.394989
_cell_length_b	14.971491
_cell_length_c	14.048226
_cell_angle_alpha	89.991693
_cell_angle_beta	90.003392
_cell_angle_gamma	94.943027
loop_
_atom_site_label
_atom_site_type_symbol
_atom_site_fract_x
_atom_site_fract_y
_atom_site_fract_z
O1	O	-0.272264	1.189889	-0.079195
O2	O	-0.304850	0.929841	-0.079187
O3	O	0.015498	1.063556	-0.079192
O4	O	-0.592612	1.056174	-0.079191
O5	O	0.015517	1.063539	0.079129
O6	O	-0.304831	0.929825	0.079134
O7	O	-0.272245	1.189872	0.079126
Zn8	Zn	-0.288535	1.059846	0.104267
Zn9	Zn	-0.288560	1.059868	-0.104328
O10	O	-0.592593	1.056157	0.079131
C11	C	-0.303382	0.896493	-0.000026
C12	C	-0.299009	0.797149	-0.000023
C13	C	-0.280149	0.369248	-0.086346
C14	C	-0.284252	0.462593	-0.086343
C15	C	-0.286306	0.509252	-0.000038
C16	C	-0.284237	0.462562	0.086268
C17	C	-0.280120	0.369220	0.086263
C18	C	-0.292824	0.657117	0.086272
C19	C	-0.296946	0.750465	0.086276
C20	C	-0.296956	0.750490	-0.086334
C21	C	-0.292839	0.657147	-0.086339
C22	C	-0.290774	0.610464	-0.000032
C23	C	0.093333	1.062088	-0.000035
C24	C	0.329579	1.057627	-0.000036
C25	C	-0.273713	1.223221	-0.000038
C26	C	-0.278086	1.322565	-0.000047
N27	N	-0.288517	1.059837	0.246628
N28	N	-0.288562	1.059883	-0.246689
C29	C	-0.146725	1.119066	0.296444
C30	C	-0.146724	1.119072	0.396101
C31	C	-0.288526	1.059853	0.445941
C32	C	-0.430324	1.000618	0.396118
C33	C	-0.430314	1.000608	0.296462
C34	C	-0.430340	1.000644	0.603832
C35	C	-0.430353	1.000655	0.703495
C36	C	-0.146750	1.119108	0.703471
C37	C	-0.146739	1.119098	0.603815
C38	C	-0.288541	1.059864	0.553999
H39	H	-0.298641	0.788503	-0.156609
O40	O	-0.568142	0.943003	0.444382
C41	C	-0.693318	0.890736	0.379039
H42	H	-0.607666	0.888759	0.308006
H43	H	-0.848612	0.921518	0.368425
C44	C	-0.841181	0.797161	0.505200
C45	C	-0.735972	0.794726	0.417958
H46	H	-0.867502	0.737938	0.529207
H47	H	-0.756854	0.832375	0.549224
H48	H	-0.970580	0.822816	0.496343
H49	H	-0.606565	0.769082	0.426818
H50	H	-0.820279	0.759505	0.373936
O51	O	-0.290565	0.611734	-0.170112
C52	C	-0.107393	0.565853	-0.175282
H53	H	-0.046506	0.554563	-0.100348
H54	H	0.017598	0.607498	-0.217873
C55	C	-0.233178	0.488599	-0.316652
C56	C	-0.158406	0.474726	-0.224617
H57	H	-0.264640	0.432389	-0.347088
H58	H	-0.356582	0.519512	-0.313172
H59	H	-0.129007	0.523306	-0.352133
H60	H	-0.262586	0.440030	-0.189135
H61	H	-0.035021	0.443805	-0.228092
O62	O	-0.568143	0.943199	0.247963
C63	C	-0.697228	0.992543	0.190314
H64	H	-0.614309	1.061597	0.175370
H65	H	-0.851639	1.000359	0.228708
C66	C	-0.843500	0.857791	0.114016
C67	C	-0.741649	0.942602	0.095655
H68	H	-0.870911	0.826985	0.055628
H69	H	-0.756539	0.824547	0.152858
H70	H	-0.972165	0.864316	0.146014
H71	H	-0.612976	0.936076	0.063669
H72	H	-0.828590	0.975845	0.056806
H73	H	-0.278491	0.331264	-0.156625
H74	H	-0.285918	0.500599	-0.156616
H75	H	-0.031290	1.167337	0.744037
H76	H	-0.298630	0.788452	0.156553
O77	O	-0.568145	0.943032	0.751764
C78	C	-0.693313	0.890753	0.686428
H79	H	-0.607675	0.888783	0.615390
H80	H	-0.848628	0.921519	0.675821
C81	C	-0.841097	0.797168	0.812598
C82	C	-0.735907	0.794742	0.725350
H83	H	-0.867381	0.737945	0.836607
H84	H	-0.756776	0.832391	0.856616
H85	H	-0.970515	0.822810	0.803747
H86	H	-0.606481	0.769111	0.734204
H87	H	-0.820207	0.759512	0.681333
H88	H	-0.291168	0.619109	0.156552
H89	H	-0.285897	0.500560	0.156538
H90	H	-0.545803	0.952406	0.563275
O91	O	-0.278218	0.324003	0.170180
C92	C	-0.280863	0.385201	0.246357
H93	H	-0.349885	0.448783	0.221060
H94	H	-0.113851	0.402624	0.272893
C95	C	-0.331345	0.264533	0.358964
C96	C	-0.416137	0.342622	0.327895
H97	H	-0.414780	0.238268	0.409263
H98	H	-0.329556	0.223302	0.307643
H99	H	-0.192171	0.279063	0.381071
H100	H	-0.555298	0.328089	0.305778
H101	H	-0.417953	0.383850	0.379214
O102	O	-0.008647	1.176500	0.248097
C103	C	0.198152	1.159626	0.272515
H104	H	0.199390	1.087998	0.299914
H105	H	0.259278	1.208501	0.330372
C106	C	0.338283	1.259905	0.150366
C107	C	0.339806	1.171927	0.184011
H108	H	0.425666	1.267497	0.095775
H109	H	0.198959	1.271276	0.133918
H110	H	0.389216	1.300624	0.198589
H111	H	0.288849	1.131211	0.135793
H112	H	0.479125	1.160549	0.200449
H113	H	-0.031284	1.167322	0.563236
O114	O	-0.009288	1.176649	0.444602
C115	C	-0.121397	1.233100	0.502210
H116	H	-0.284708	1.199308	0.517136
H117	H	-0.135856	1.299363	0.463789
C118	C	0.196861	1.292404	0.578545
C119	C	-0.003714	1.250897	0.596884
H120	H	0.269455	1.303386	0.636943
H121	H	0.272393	1.254375	0.539731
H122	H	0.184783	1.347618	0.546525
H123	H	0.008366	1.195679	0.628892
H124	H	-0.079243	1.288918	0.635705
