data_functionalizedCrystal
_audit_creation_method	'MofGen! by Chris Wilmer'
_symmetry_space_group_name_H-M	'P1'
_symmetry_Int_Tables_number	1
_symmetry_cell_setting	triclinic
loop_
_symmetry_equiv_pos_as_xyz
  x,y,z
_cell_length_a	10.723023
_cell_length_b	10.723024
_cell_length_c	17.766277
_cell_angle_alpha	89.994854
_cell_angle_beta	89.991118
_cell_angle_gamma	84.467709
loop_
_atom_site_label
_atom_site_type_symbol
_atom_site_fract_x
_atom_site_fract_y
_atom_site_fract_z
O1	O	1.657198	0.175025	-0.062584
O2	O	1.294045	0.191779	-0.062587
O3	O	1.483998	0.001826	-0.062583
O4	O	1.467245	0.364978	-0.062589
O5	O	1.483964	0.001815	0.062605
O6	O	1.294011	0.191769	0.062601
O7	O	1.657164	0.175014	0.062604
Cu8	Cu	1.475585	0.183391	0.074033
Cu9	Cu	1.475624	0.183403	-0.074017
O10	O	1.467211	0.364968	0.062600
C11	C	1.247529	0.190555	0.000006
C12	C	1.108974	0.186908	0.000005
C13	C	1.482762	-0.044679	0.000010
C14	C	1.479114	-0.183233	0.000008
C15	C	1.047185	0.185276	0.064856
C16	C	0.903982	0.181507	0.064856
C17	C	1.585402	-0.258216	0.000007
C18	C	1.581634	-0.401420	0.000005
C19	C	1.703680	0.176239	0.000009
C20	C	1.842235	0.179886	0.000005
C21	C	1.468447	0.411473	0.000005
C22	C	1.472095	0.550027	0.000002
N23	N	1.475566	0.183382	0.178164
N24	N	1.475653	0.183402	-0.178147
C25	C	1.559705	0.099312	0.217552
C26	C	1.559712	0.099306	0.296354
C27	C	1.475592	0.183392	0.335764
C28	C	1.391437	0.267468	0.296366
C29	C	1.391424	0.267463	0.217566
C30	C	1.460214	0.296904	0.460600
C31	C	1.460236	0.296911	0.539399
C32	C	1.475625	0.183407	0.578811
C33	C	1.491019	0.069892	0.539413
C34	C	1.491006	0.069887	0.460613
C35	C	1.475596	0.183406	0.421210
C36	C	1.559777	0.099325	0.703645
C37	C	1.559775	0.099317	0.782449
C38	C	1.391507	0.267489	0.782459
C39	C	1.391502	0.267486	0.703657
C40	C	1.475644	0.183405	0.664255
H41	H	1.100303	0.186663	0.120377
C42	C	1.507972	-0.054996	0.582732
C43	C	1.627894	-0.144351	0.571858
C44	C	1.644864	-0.269243	0.615170
C45	C	1.541911	-0.304780	0.669355
C46	C	1.421981	-0.215422	0.680232
C47	C	1.405012	-0.090530	0.636920
H48	H	1.704113	-0.118047	0.531745
H49	H	1.733645	-0.335392	0.607118
H50	H	1.554473	-0.397232	0.701417
H51	H	1.345762	-0.241726	0.720345
H52	H	1.316231	-0.024382	0.644972
C53	C	1.704566	-0.488454	0.000004
C54	C	1.798758	-0.482132	-0.065001
C55	C	1.921694	-0.569170	-0.065002
C56	C	1.950438	-0.662528	0.000004
C57	C	1.856243	-0.668853	0.065015
C58	C	1.733307	-0.581816	0.065015
H59	H	1.777483	-0.413020	-0.113127
H60	H	1.991423	-0.564487	-0.113127
H61	H	2.041442	-0.726959	0.000004
H62	H	1.877518	-0.737966	0.113140
H63	H	1.663578	-0.586499	0.113140
H64	H	0.895363	0.181296	-0.055519
C65	C	1.037230	0.185024	-0.075005
C66	C	0.960939	0.074496	-0.093703
C67	C	0.889199	0.072613	-0.168716
C68	C	0.893750	0.181259	-0.225031
C69	C	0.970044	0.291795	-0.206335
C70	C	1.041785	0.293678	-0.131322
H71	H	0.957568	-0.005937	-0.052014
H72	H	0.832721	-0.009214	-0.182556
H73	H	0.840644	0.179865	-0.280560
H74	H	0.973416	0.372228	-0.248024
H75	H	1.098262	0.375505	-0.117482
H76	H	1.679188	-0.216394	0.000013
H77	H	1.381099	-0.385548	0.000008
C78	C	1.443277	0.421769	0.417252
C79	C	1.443253	0.421769	0.330575
C80	C	1.426310	0.546627	0.287228
C81	C	1.409391	0.671486	0.330558
C82	C	1.409414	0.671491	0.417240
C83	C	1.426357	0.546632	0.460587
H84	H	1.455778	0.329337	0.298495
H85	H	1.426293	0.546623	0.223060
H86	H	1.396848	0.763914	0.298469
H87	H	1.396889	0.763923	0.449320
H88	H	1.426374	0.546637	0.524755
H89	H	1.385328	-0.225055	0.000002
C90	C	1.652245	0.006817	0.174208
C91	C	1.744796	-0.085670	0.217538
C92	C	1.837333	-0.178167	0.174191
C93	C	1.837318	-0.178178	0.087513
C94	C	1.744764	-0.085688	0.044179
C95	C	1.652227	0.006809	0.087526
H96	H	1.744810	-0.085665	0.281706
H97	H	1.905848	-0.246635	0.206270
H98	H	1.905820	-0.246650	0.055425
H99	H	1.744750	-0.085693	-0.019989
H100	H	1.583712	0.075277	0.055447
H101	H	1.628230	0.030844	0.328431
H102	H	1.503537	-0.022541	0.428539
H103	H	1.628287	0.030857	0.671563
H104	H	1.628288	0.030851	0.814520
H105	H	1.323010	0.335948	0.814546
H106	H	1.322993	0.335948	0.671584
C107	C	1.298905	0.359965	0.339712
C108	C	1.298975	0.360038	0.426390
C109	C	1.206435	0.452535	0.469735
C110	C	1.113824	0.544959	0.426403
C111	C	1.113751	0.544890	0.339721
C112	C	1.206292	0.452393	0.296375
H113	H	1.367533	0.291617	0.458471
H114	H	1.206489	0.452585	0.533903
H115	H	1.045321	0.613431	0.458489
H116	H	1.045193	0.613312	0.307639
H117	H	1.206237	0.452343	0.232207
H118	H	1.322906	0.335923	0.185494
C119	C	0.832208	0.179612	0.139867
C120	C	0.836732	0.288248	0.196179
C121	C	0.764955	0.286353	0.271192
C122	C	0.688655	0.175822	0.289894
C123	C	0.684128	0.067177	0.233581
C124	C	0.755905	0.069072	0.158568
H125	H	0.893216	0.370077	0.182336
H126	H	0.768307	0.366780	0.312879
H127	H	0.635522	0.174419	0.345424
H128	H	0.627644	-0.014652	0.247424
H129	H	0.752553	-0.011354	0.116881
H130	H	1.447709	0.389342	0.571470
