data_functionalizedCrystal
_audit_creation_method	'MofGen! by Chris Wilmer'
_symmetry_space_group_name_H-M	'P1'
_symmetry_Int_Tables_number	1
_symmetry_cell_setting	triclinic
loop_
_symmetry_equiv_pos_as_xyz
  x,y,z
_cell_length_a	11.792241
_cell_length_b	11.792254
_cell_length_c	9.198806
_cell_angle_alpha	89.996981
_cell_angle_beta	89.999916
_cell_angle_gamma	84.196007
loop_
_atom_site_label
_atom_site_type_symbol
_atom_site_fract_x
_atom_site_fract_y
_atom_site_fract_z
O1	O	1.506916	0.155564	-0.120752
O2	O	2.006916	0.655564	0.379248
O3	O	1.176575	0.171597	-0.120786
O4	O	1.676575	0.671597	0.379214
O5	O	1.349755	-0.001589	-0.120758
O6	O	1.849755	0.498411	0.379242
O7	O	1.333737	0.328750	-0.120780
O8	O	1.833737	0.828750	0.379220
O9	O	1.349740	-0.001589	0.121027
O10	O	1.849740	0.498411	0.621027
O11	O	1.176560	0.171597	0.120999
O12	O	1.676560	0.671597	0.620999
O13	O	1.506901	0.155565	0.121033
O14	O	2.006901	0.655565	0.621033
Cu15	Cu	1.341729	0.163581	0.143093
Cu16	Cu	1.841729	0.663581	0.643093
Cu17	Cu	1.341747	0.163580	-0.142846
Cu18	Cu	1.841747	0.663580	0.357154
O19	O	1.333722	0.328751	0.121005
O20	O	1.833722	0.828751	0.621005
C21	C	1.348738	-0.043880	0.000134
C22	C	1.848738	0.456120	0.500134
C23	C	1.345718	-0.169893	0.000133
C24	C	1.845718	0.330107	0.500133
C25	C	1.134277	0.170590	0.000102
C26	C	1.634277	0.670590	0.500102
C27	C	1.008263	0.167576	0.000090
C28	C	1.508263	0.667576	0.500090
C29	C	1.343264	-0.272229	0.000127
C30	C	1.843264	0.227771	0.500127
C31	C	1.340196	-0.400616	0.000113
C32	C	1.840196	0.099384	0.500113
C33	C	0.777551	0.162033	0.000132
C34	C	1.277551	0.662033	0.500132
C35	C	0.905936	0.165112	0.000109
C36	C	1.405936	0.665112	0.500109
C37	C	1.549199	0.156571	0.000142
C38	C	2.049199	0.656571	0.500142
C39	C	1.675213	0.159586	0.000145
C40	C	2.175213	0.659586	0.500145
C41	C	1.334738	0.371041	0.000110
C42	C	1.834738	0.871041	0.500110
C43	C	1.337758	0.497054	0.000102
C44	C	1.837758	0.997054	0.500102
N45	N	1.341725	0.163581	0.344207
N46	N	1.841725	0.663581	0.844207
C47	C	1.414615	0.090710	0.583820
C48	C	1.914615	0.590710	1.083820
C49	C	1.414602	0.090709	0.416407
C50	C	1.914602	0.590709	0.916407
N51	N	1.341751	0.163580	0.656040
N52	N	1.841751	0.663580	1.156040
H53	H	1.477012	0.028325	0.645926
H54	H	1.977012	0.528325	1.145926
C55	C	1.257462	0.247867	0.572157
C56	C	1.757462	0.747867	1.072157
H57	H	1.211755	0.293592	0.639177
H58	H	1.711755	0.793592	1.139177
H59	H	1.209993	0.206694	0.512784
H60	H	1.709993	0.706694	1.012784
H61	H	1.298645	0.295337	0.512776
H62	H	1.798645	0.795337	1.012776
H63	H	1.476980	0.028318	0.354301
H64	H	1.976980	0.528318	0.854301
H65	H	1.279336	0.225968	0.406304
H66	H	1.779336	0.725968	0.906304
