data_functionalizedCrystal
_audit_creation_method	'MofGen! by Chris Wilmer'
_symmetry_space_group_name_H-M	'P1'
_symmetry_Int_Tables_number	1
_symmetry_cell_setting	triclinic
loop_
_symmetry_equiv_pos_as_xyz
  x,y,z
_cell_length_a	12.759401
_cell_length_b	12.759400
_cell_length_c	12.759393
_cell_angle_alpha	89.968436
_cell_angle_beta	89.981504
_cell_angle_gamma	90.014845
loop_
_atom_site_label
_atom_site_type_symbol
_atom_site_fract_x
_atom_site_fract_y
_atom_site_fract_z
Zn1	Zn	1.606255	-0.418200	-0.593981
Zn2	Zn	1.606150	-0.593919	-0.418301
Zn3	Zn	1.430557	-0.418255	-0.418321
Zn4	Zn	1.430546	-0.593838	-0.593943
O5	O	1.518377	-0.506053	-0.506137
O6	O	1.753262	-0.441520	-0.570685
O7	O	1.582818	-0.570673	-0.271283
O8	O	1.453913	-0.271226	-0.441647
O9	O	1.753185	-0.570620	-0.441614
O10	O	1.582998	-0.271186	-0.570704
O11	O	1.453811	-0.441614	-0.271297
O12	O	1.283535	-0.441535	-0.441609
O13	O	1.453894	-0.570482	-0.740969
O14	O	1.283527	-0.570536	-0.570638
O15	O	1.582987	-0.441442	-0.740997
O16	O	1.582807	-0.740929	-0.441577
O17	O	1.453791	-0.740870	-0.570620
C18	C	1.245410	-0.506033	-0.506122
C19	C	1.128633	-0.506050	-0.506141
C20	C	1.518315	-0.779020	-0.506115
C21	C	1.518384	-0.895797	-0.506140
C22	C	1.073794	-0.573328	-0.573215
C23	C	0.964070	-0.573342	-0.573227
C24	C	0.964034	-0.438796	-0.439081
C25	C	1.073756	-0.438778	-0.439075
C26	C	1.128672	-0.640600	-0.640281
C27	C	1.073833	-0.707885	-0.707360
C28	C	0.964109	-0.707898	-0.707371
C29	C	0.909224	-0.640627	-0.640304
C30	C	1.585637	-0.950655	-0.439022
C31	C	1.585702	-1.060379	-0.439054
C32	C	1.451252	-1.060377	-0.573327
C33	C	1.451193	-0.950655	-0.573299
C34	C	1.652828	-0.895797	-0.371864
C35	C	1.720086	-0.950655	-0.304739
C36	C	1.720150	-1.060379	-0.304771
C37	C	1.652957	-1.115245	-0.371929
C38	C	1.792410	-0.506073	-0.506152
C39	C	1.909187	-0.506082	-0.506158
C40	C	1.518451	-0.505947	-0.780170
C41	C	1.518482	-0.505902	-0.896947
C42	C	1.518468	-0.232019	-0.506182
C43	C	1.518507	-0.115243	-0.506201
C44	C	1.585710	-0.438704	-0.951825
C45	C	1.585735	-0.438666	-1.061549
C46	C	1.451301	-0.573033	-1.061507
C47	C	1.451272	-0.573064	-0.951785
C48	C	1.652920	-0.371541	-0.896987
C49	C	1.720155	-0.304339	-0.951866
C50	C	1.720180	-0.304301	-1.061590
C51	C	1.652970	-0.371465	-1.116436
C52	C	1.518364	-0.506083	-0.233169
C53	C	1.518537	-0.505832	-0.116393
H54	H	1.118528	-0.762647	-0.761970
C55	C	1.794000	-0.890308	-0.230874
C56	C	1.793933	-0.769618	-0.230833
C57	C	1.867851	-0.709274	-0.156968
C58	C	1.941834	-0.769620	-0.083144
C59	C	1.941903	-0.890317	-0.083182
C60	C	1.867986	-0.950661	-0.157048
H61	H	1.739164	-0.724940	-0.285484
H62	H	1.867799	-0.619926	-0.156940
H63	H	1.996552	-0.724950	-0.028465
H64	H	1.996673	-0.934994	-0.028531
H65	H	1.868037	-1.040009	-0.157076
H66	H	1.774922	-1.105041	-0.250123
C67	C	1.794078	-0.230457	-0.891541
C68	C	1.868023	-0.156535	-0.951910
C69	C	1.941947	-0.082651	-0.891588
C70	C	1.941926	-0.082688	-0.770898
C71	C	1.867978	-0.156613	-0.710523
C72	C	1.794054	-0.230498	-0.770844
H73	H	1.868041	-0.156505	-1.041258
H74	H	1.996688	-0.027926	-0.936282
H75	H	1.996649	-0.027995	-0.726244
H76	H	1.867960	-0.156644	-0.621175
H77	H	1.739313	-0.285222	-0.726150
H78	H	0.919462	-0.762676	-0.761998
H79	H	1.774917	-0.249574	-1.106269
C80	C	0.903663	-0.364811	-0.365303
C81	C	0.782973	-0.364833	-0.365303
C82	C	0.722604	-0.290849	-0.291520
C83	C	0.782925	-0.216843	-0.217737
C84	C	0.903622	-0.216817	-0.217734
C85	C	0.963991	-0.290801	-0.291517
H86	H	0.738314	-0.419620	-0.419924
H87	H	0.633256	-0.290869	-0.291523
H88	H	0.738237	-0.162076	-0.163119
H89	H	0.948281	-0.162031	-0.163113
H90	H	1.053339	-0.290782	-0.291515
C91	C	1.134093	-0.364770	-0.365302
C92	C	1.119024	-0.245347	-0.374095
C93	C	1.179365	-0.171331	-0.300330
C94	C	1.254775	-0.216738	-0.217770
C95	C	1.269847	-0.336167	-0.208974
C96	C	1.209506	-0.410183	-0.282739
H97	H	1.063199	-0.211729	-0.435214
H98	H	1.168207	-0.082922	-0.306842
H99	H	1.299443	-0.161947	-0.163164
H100	H	1.325673	-0.369786	-0.147855
H101	H	1.220664	-0.498593	-0.276227
C102	C	1.377383	-0.646917	-1.121834
C103	C	1.377418	-0.646887	-1.242524
C104	C	1.303502	-0.720777	-1.302850
C105	C	1.229550	-0.794695	-1.242485
C106	C	1.229512	-0.794728	-1.121788
C107	C	1.303429	-0.720838	-1.061463
H108	H	1.432164	-0.592166	-1.287216
H109	H	1.303531	-0.720752	-1.392198
H110	H	1.174833	-0.849392	-1.287142
H111	H	1.174766	-0.849449	-1.077097
H112	H	1.303400	-0.720863	-0.972115
C113	C	1.377334	-0.646985	-0.891399
C114	C	1.257902	-0.638407	-0.906462
C115	C	1.183963	-0.712325	-0.846070
C116	C	1.229457	-0.794821	-0.770615
C117	C	1.348895	-0.803402	-0.755548
C118	C	1.422834	-0.729484	-0.815940
H119	H	1.224219	-0.577335	-0.962322
H120	H	1.095547	-0.705972	-0.857224
H121	H	1.174723	-0.849539	-0.725909
H122	H	1.382578	-0.864474	-0.699688
H123	H	1.511250	-0.735837	-0.804786
C124	C	1.377337	-1.120726	-0.647189
C125	C	1.377397	-1.241416	-0.647218
C126	C	1.303479	-1.301764	-0.721080
C127	C	1.229501	-1.241422	-0.794912
C128	C	1.229439	-1.120725	-0.794886
C129	C	1.303357	-1.060377	-0.721024
H130	H	1.432163	-1.286091	-0.592560
H131	H	1.303526	-1.391112	-0.721099
H132	H	1.174783	-1.286095	-0.849589
H133	H	1.174673	-1.076050	-0.849543
H134	H	1.303310	-0.971030	-0.721005
H135	H	1.653024	-1.204589	-0.371958
H136	H	1.396431	-0.905989	-0.627954
H137	H	1.218015	-0.640599	-0.640277
H138	H	0.819879	-0.640634	-0.640328
H139	H	1.652984	-0.371417	-1.205780
H140	H	1.652780	-0.806454	-0.371827
H141	H	1.652910	-0.371567	-0.807644
