data_functionalizedCrystal
_audit_creation_method	'MofGen! by Chris Wilmer'
_symmetry_space_group_name_H-M	'P1'
_symmetry_Int_Tables_number	1
_symmetry_cell_setting	triclinic
loop_
_symmetry_equiv_pos_as_xyz
  x,y,z
_cell_length_a	14.044220
_cell_length_b	15.995350
_cell_length_c	12.503572
_cell_angle_alpha	93.525550
_cell_angle_beta	86.164750
_cell_angle_gamma	88.340626
loop_
_atom_site_label
_atom_site_type_symbol
_atom_site_fract_x
_atom_site_fract_y
_atom_site_fract_z
O1	O	1.263165	0.197434	-0.089196
O2	O	1.513165	0.447434	0.160804
O3	O	1.763165	0.697434	0.410804
O4	O	2.013165	0.947434	0.660804
O5	O	0.987198	0.190148	-0.089224
O6	O	1.237198	0.440148	0.160776
O7	O	1.487198	0.690148	0.410776
O8	O	1.737198	0.940148	0.660776
O9	O	1.132725	0.072467	-0.089208
O10	O	1.382725	0.322467	0.160792
O11	O	1.632725	0.572467	0.410792
O12	O	1.882725	0.822467	0.660792
O13	O	1.117638	0.315115	-0.089212
O14	O	1.367638	0.565115	0.160788
O15	O	1.617638	0.815115	0.410788
O16	O	1.867638	1.065115	0.660788
O17	O	1.121781	0.081333	0.089432
O18	O	1.371781	0.331333	0.339432
O19	O	1.621781	0.581333	0.589432
O20	O	1.871781	0.831333	0.839432
O21	O	0.976253	0.199014	0.089417
O22	O	1.226253	0.449014	0.339417
O23	O	1.476253	0.699014	0.589417
O24	O	1.726253	0.949014	0.839417
O25	O	1.252221	0.206300	0.089445
O26	O	1.502221	0.456300	0.339445
O27	O	1.752221	0.706300	0.589445
O28	O	2.002221	0.956300	0.839445
Cu29	Cu	1.113237	0.203467	0.105742
Cu30	Cu	1.363237	0.453467	0.355742
Cu31	Cu	1.613237	0.703467	0.605742
Cu32	Cu	1.863237	0.953467	0.855742
Cu33	Cu	1.126181	0.192981	-0.105521
Cu34	Cu	1.376181	0.442981	0.144479
Cu35	Cu	1.626181	0.692981	0.394479
Cu36	Cu	1.876181	0.942981	0.644479
O37	O	1.106693	0.323981	0.089429
O38	O	1.356693	0.573981	0.339429
O39	O	1.606693	0.823981	0.589429
O40	O	1.856693	1.073981	0.839429
C41	C	0.946411	0.191392	0.000093
C42	C	1.196411	0.441392	0.250093
C43	C	1.446411	0.691392	0.500093
C44	C	1.696411	0.941392	0.750093
C45	C	0.841186	0.181881	0.000082
C46	C	1.091186	0.431881	0.250082
C47	C	1.341186	0.681881	0.500082
C48	C	1.591186	0.931881	0.750082
C49	C	1.126629	0.045658	0.000110
C50	C	1.376629	0.295658	0.250110
C51	C	1.626629	0.545658	0.500110
C52	C	1.876629	0.795658	0.750110
C53	C	1.124760	-0.047432	0.000104
C54	C	1.374760	0.202568	0.250104
C55	C	1.624760	0.452568	0.500104
C56	C	1.874760	0.702568	0.750104
C57	C	0.648523	0.164494	0.000104
C58	C	0.898523	0.414494	0.250104
C59	C	1.148523	0.664494	0.500104
C60	C	1.398523	0.914494	0.750104
C61	C	0.590890	0.231950	0.000107
C62	C	0.840890	0.481950	0.250107
C63	C	1.090890	0.731950	0.500107
C64	C	1.340890	0.981950	0.750107
C65	C	0.483686	0.222276	0.000119
C66	C	0.733686	0.472276	0.250119
C67	C	0.983686	0.722276	0.500119
C68	C	1.233686	0.972276	0.750119
C69	C	0.755737	0.174167	0.000092
C70	C	1.005737	0.424167	0.250092
C71	C	1.255737	0.674167	0.500092
C72	C	1.505737	0.924167	0.750092
C73	C	1.118044	-0.385681	0.000107
C74	C	1.368044	-0.135681	0.250107
C75	C	1.618044	0.114319	0.500107
C76	C	1.868044	0.364319	0.750107
C77	C	1.014426	-0.346008	-0.000304
C78	C	1.264426	-0.096008	0.249696
C79	C	1.514426	0.153992	0.499696
C80	C	1.764426	0.403992	0.749696
C81	C	1.016272	-0.249158	0.000099
C82	C	1.266272	0.000842	0.250099
C83	C	1.516272	0.250842	0.500099
C84	C	1.766272	0.500842	0.750099
C85	C	1.121375	-0.217872	0.000105
C86	C	1.371375	0.032128	0.250105
C87	C	1.621375	0.282128	0.500105
C88	C	1.871375	0.532128	0.750105
C89	C	1.166245	-0.250068	0.102120
C90	C	1.416245	-0.000068	0.352120
C91	C	1.666245	0.249932	0.602120
C92	C	1.916245	0.499932	0.852120
C93	C	1.163636	-0.346894	0.102206
C94	C	1.413636	-0.096894	0.352206
C95	C	1.663636	0.153106	0.602206
C96	C	1.913636	0.403106	0.852206
C97	C	1.178223	-0.357175	-0.100942
C98	C	1.428223	-0.107175	0.149058
C99	C	1.678223	0.142825	0.399058
C100	C	1.928223	0.392825	0.649058
C101	C	1.178281	-0.260298	-0.102290
C102	C	1.428281	-0.010298	0.147710
C103	C	1.678281	0.239702	0.397710
C104	C	1.928281	0.489702	0.647710
C105	C	1.123263	-0.123033	0.000107
C106	C	1.373263	0.126967	0.250107
C107	C	1.623263	0.376967	0.500107
C108	C	1.873263	0.626967	0.750107
C109	C	1.116158	-0.480519	0.000111
C110	C	1.366158	-0.230519	0.250111
C111	C	1.616158	0.019481	0.500111
C112	C	1.866158	0.269481	0.750111
C113	C	1.293007	0.205055	0.000125
C114	C	1.543007	0.455055	0.250125
C115	C	1.793007	0.705055	0.500125
C116	C	2.043007	0.955055	0.750125
C117	C	1.398233	0.214567	0.000129
C118	C	1.648233	0.464567	0.250129
C119	C	1.898233	0.714567	0.500129
C120	C	2.148233	0.964567	0.750129
C121	C	1.112789	0.350789	0.000108
C122	C	1.362789	0.600789	0.250108
C123	C	1.612789	0.850789	0.500108
C124	C	1.862789	1.100789	0.750108
C125	C	1.114659	0.443879	0.000108
C126	C	1.364659	0.693879	0.250108
C127	C	1.614659	0.943879	0.500108
C128	C	1.864659	1.193879	0.750108
N129	N	1.104141	0.210842	0.254333
N130	N	1.354141	0.460842	0.504333
N131	N	1.604141	0.710842	0.754333
N132	N	1.854141	0.960842	1.004333
N133	N	1.135285	0.185600	-0.254113
N134	N	1.385285	0.435600	-0.004113
N135	N	1.635285	0.685600	0.245887
N136	N	1.885285	0.935600	0.495887
C137	C	1.090759	0.221698	0.473447
C138	C	1.340759	0.471698	0.723447
C139	C	1.590759	0.721698	0.973447
C140	C	1.840759	0.971698	1.223447
C141	C	1.148663	0.174747	0.526780
C142	C	1.398663	0.424747	0.776780
C143	C	1.648663	0.674747	1.026780
C144	C	1.898663	0.924747	1.276780
C145	C	1.141218	0.180787	0.648703
C146	C	1.391218	0.430787	0.898703
C147	C	1.641218	0.680787	1.148703
C148	C	1.891218	0.930787	1.398703
C149	C	1.098204	0.215658	0.351514
C150	C	1.348204	0.465658	0.601514
C151	C	1.598204	0.715658	0.851514
C152	C	1.848204	0.965658	1.101514
H153	H	0.622061	0.296967	0.000101
H154	H	0.872061	0.546967	0.250101
H155	H	1.122061	0.796967	0.500101
H156	H	1.372061	1.046967	0.750101
H157	H	1.035599	0.266427	0.519349
H158	H	1.285599	0.516427	0.769349
H159	H	1.535599	0.766427	1.019349
H160	H	1.785599	1.016427	1.269349
H161	H	0.617354	0.099482	0.000111
H162	H	0.867354	0.349482	0.250111
H163	H	1.117354	0.599482	0.500111
H164	H	1.367354	0.849482	0.750111
H165	H	0.980568	-0.227367	-0.073031
H166	H	1.230568	0.022633	0.176969
H167	H	1.480568	0.272633	0.426969
H168	H	1.730568	0.522633	0.676969
H169	H	1.243229	-0.229986	0.105919
H170	H	1.493229	0.020014	0.355919
H171	H	1.743229	0.270014	0.605919
H172	H	1.993229	0.520014	0.855919
H173	H	0.977483	-0.371265	-0.073462
H174	H	1.227483	-0.121265	0.176538
H175	H	1.477483	0.128735	0.426538
H176	H	1.727483	0.378735	0.676538
H177	H	0.971331	-0.220680	0.073345
H178	H	1.221331	0.029320	0.323345
H179	H	1.471331	0.279320	0.573345
H180	H	1.721331	0.529320	0.823345
H181	H	0.968729	-0.365072	0.072438
H182	H	1.218729	-0.115072	0.322438
H183	H	1.468729	0.134928	0.572438
H184	H	1.718729	0.384928	0.822438
H185	H	1.121688	-0.364195	0.178460
H186	H	1.371688	-0.114195	0.428460
H187	H	1.621688	0.135805	0.678460
H188	H	1.871688	0.385805	0.928460
H189	H	1.239445	-0.373229	0.106839
H190	H	1.489445	-0.123229	0.356839
H191	H	1.739445	0.126771	0.606839
H192	H	1.989445	0.376771	0.856839
H193	H	1.203829	0.130016	0.480873
H194	H	1.453829	0.380016	0.730873
H195	H	1.703829	0.630016	0.980873
H196	H	1.953829	0.880016	1.230873
H197	H	1.149075	-0.384083	-0.178264
H198	H	1.399075	-0.134083	0.071736
H199	H	1.649075	0.115917	0.321736
H200	H	1.899075	0.365917	0.571736
H201	H	1.126089	-0.220570	0.178033
H202	H	1.376089	0.029430	0.428033
H203	H	1.626089	0.279430	0.678033
H204	H	1.876089	0.529430	0.928033
H205	H	1.145529	-0.239586	-0.177759
H206	H	1.395529	0.010414	0.072241
H207	H	1.645529	0.260414	0.322241
H208	H	1.895529	0.510414	0.572241
H209	H	1.255304	-0.239517	-0.108445
H210	H	1.505304	0.010483	0.141555
H211	H	1.755304	0.260483	0.391555
H212	H	2.005304	0.510483	0.641555
H213	H	1.254680	-0.383262	-0.101623
H214	H	1.504680	-0.133262	0.148377
H215	H	1.754680	0.116738	0.398377
H216	H	2.004680	0.366738	0.648377
