data_functionalizedCrystal
_audit_creation_method	'MofGen! by Chris Wilmer'
_symmetry_space_group_name_H-M	'P1'
_symmetry_Int_Tables_number	1
_symmetry_cell_setting	triclinic
loop_
_symmetry_equiv_pos_as_xyz
  x,y,z
_cell_length_a	16.625548
_cell_length_b	10.686285
_cell_length_c	16.625539
_cell_angle_alpha	94.392139
_cell_angle_beta	89.979432
_cell_angle_gamma	94.367355
loop_
_atom_site_label
_atom_site_type_symbol
_atom_site_fract_x
_atom_site_fract_y
_atom_site_fract_z
Zn1	Zn	1.257390	0.502308	-0.431351
Zn2	Zn	1.267674	0.713328	-0.286201
Zn3	Zn	1.122554	0.502356	-0.296529
Zn4	Zn	1.132899	0.713256	-0.420995
O5	O	1.195129	0.607812	-0.358769
O6	O	1.371587	0.530310	-0.412109
O7	O	1.248398	0.685393	-0.174736
O8	O	1.131807	0.325774	-0.323070
O9	O	1.379142	0.685346	-0.305468
O10	O	1.230871	0.325739	-0.422123
O11	O	1.141779	0.530392	-0.182324
O12	O	1.011094	0.530322	-0.313028
O13	O	1.149439	0.685223	-0.535203
O14	O	1.018694	0.685269	-0.404472
O15	O	1.240902	0.530240	-0.542812
O16	O	1.258429	0.889894	-0.295425
O17	O	1.159410	0.889841	-0.394458
C18	C	1.211180	0.935651	-0.342715
C19	C	1.218120	1.075902	-0.335873
C20	C	0.985637	0.607794	-0.358747
C21	C	0.896017	0.607817	-0.358756
C22	C	1.195177	0.607718	-0.569083
C23	C	1.195197	0.607678	-0.658706
C24	C	0.567842	0.607825	-0.358790
C25	C	0.659150	0.607819	-0.358778
C26	C	0.731927	0.607821	-0.358772
C27	C	0.823241	0.607814	-0.358762
C28	C	1.405439	0.607831	-0.358791
C29	C	1.495061	0.607839	-0.358801
C30	C	1.179038	0.278693	-0.374904
C31	C	1.172181	0.138442	-0.381780
C32	C	1.195228	0.607537	-0.986889
C33	C	1.195217	0.607580	-0.895578
C34	C	1.195213	0.607608	-0.822800
C35	C	1.195202	0.607650	-0.731484
C36	C	1.195124	0.607815	-0.149278
C37	C	1.195242	0.607499	-0.059673
H38	H	1.127541	1.084689	-0.426317
H39	H	1.262758	1.129662	-0.291328
