data_functionalizedCrystal
_audit_creation_method	'MofGen! by Chris Wilmer'
_symmetry_space_group_name_H-M	'P1'
_symmetry_Int_Tables_number	1
_symmetry_cell_setting	triclinic
loop_
_symmetry_equiv_pos_as_xyz
  x,y,z
_cell_length_a	6.817900
_cell_length_b	16.417825
_cell_length_c	10.773894
_cell_angle_alpha	96.344809
_cell_angle_beta	96.645922
_cell_angle_gamma	103.385495
loop_
_atom_site_label
_atom_site_type_symbol
_atom_site_fract_x
_atom_site_fract_y
_atom_site_fract_z
V1	V	-3.948392	-0.112804	-0.389370
V2	V	-3.448392	0.387196	0.110630
O3	O	-3.937981	0.008588	-0.381508
O4	O	-3.437981	0.508588	0.118492
O5	O	-3.899884	-0.226718	-0.387139
O6	O	-3.399884	0.273282	0.112861
O7	O	-3.866068	-0.109679	-0.558990
O8	O	-3.366068	0.390321	-0.058990
O9	O	-3.972031	-0.109261	-0.208468
O10	O	-3.472031	0.390739	0.291532
V11	V	-4.436430	-0.098448	-0.367680
V12	V	-3.936430	0.401552	0.132320
O13	O	-4.199747	-0.144294	-0.436948
O14	O	-3.699747	0.355706	0.063052
O15	O	-4.635273	-0.066958	-0.320101
O16	O	-4.135273	0.433042	0.179899
O17	O	-4.261732	0.015465	-0.369910
O18	O	-3.761732	0.515465	0.130090
O19	O	-4.564238	-0.219840	-0.375542
O20	O	-4.064238	0.280160	0.124458
O21	O	-4.530188	-0.101992	-0.548582
O22	O	-4.030188	0.398008	-0.048582
O23	O	-4.295548	-0.101573	-0.198060
O24	O	-3.795548	0.398427	0.301940
C25	C	-3.745956	-0.254531	-0.381108
C26	C	-3.245956	0.245469	0.118892
C27	C	-3.787356	-0.347648	-0.380415
C28	C	-3.287356	0.152352	0.119585
C29	C	-3.865311	-0.550828	-0.264567
C30	C	-3.365311	-0.050828	0.235433
C31	C	-3.904231	-0.638323	-0.263925
C32	C	-3.404231	-0.138323	0.236075
C33	C	-3.938889	-0.660424	-0.492496
C34	C	-3.438889	-0.160424	0.007504
C35	C	-3.899984	-0.572932	-0.493137
C36	C	-3.399984	-0.072932	0.006863
C37	C	-3.863185	-0.518135	-0.379168
C38	C	-3.363185	-0.018135	0.120832
C39	C	-3.941010	-0.693122	-0.377886
C40	C	-3.441010	-0.193122	0.122114
C41	C	-3.983209	-0.787988	-0.377192
C42	C	-3.483209	-0.287988	0.122808
C43	C	-3.820988	-0.423264	-0.379862
C44	C	-3.320988	0.076736	0.120138
C45	C	-3.702820	-0.105236	-0.600319
C46	C	-3.202820	0.394764	-0.100319
C47	C	-3.716794	-0.103435	-0.738988
C48	C	-3.216794	0.396565	-0.238988
C49	C	-3.894866	-0.106556	-0.806862
C50	C	-3.394866	0.393444	-0.306862
C51	C	-3.909312	-0.104695	-0.950183
C52	C	-3.409312	0.395305	-0.450183
C53	C	-4.079002	0.043274	-0.375938
C54	C	-3.579002	0.543274	0.124062
C55	C	-4.016839	0.136390	-0.376639
C56	C	-3.516839	0.636390	0.123361
C57	C	-4.122139	-0.106020	-0.156724
C58	C	-3.622139	0.393980	0.343276
C59	C	-4.087404	-0.107817	-0.018054
C60	C	-3.587404	0.392183	0.481946
H61	H	-3.968852	-0.705050	-0.585286
H62	H	-3.468852	-0.205050	-0.085286
H63	H	-4.036621	-0.110601	-0.758865
H64	H	-3.536621	0.389399	-0.258865
H65	H	-3.898266	-0.546314	-0.586465
H66	H	-3.398266	-0.046314	-0.086465
Br67	Br	-3.673004	-0.097933	-1.030156
Br68	Br	-3.173004	0.402067	-0.530156
H69	H	-3.575033	-0.099378	-0.786981
H70	H	-3.075033	0.400622	-0.286981
Br71	Br	-3.815376	-0.476464	-0.109896
Br72	Br	-3.315376	0.023536	0.390104
Br73	Br	-3.907132	-0.682689	-0.108389
Br74	Br	-3.407132	-0.182689	0.391611
H75	H	-4.229179	-0.111871	-0.970067
H76	H	-3.729179	0.388129	-0.470067
