data_functionalizedCrystal
_audit_creation_method	'MofGen! by Chris Wilmer'
_symmetry_space_group_name_H-M	'P1'
_symmetry_Int_Tables_number	1
_symmetry_cell_setting	triclinic
loop_
_symmetry_equiv_pos_as_xyz
  x,y,z
_cell_length_a	12.759401
_cell_length_b	18.215405
_cell_length_c	18.215407
_cell_angle_alpha	90.017568
_cell_angle_beta	90.003037
_cell_angle_gamma	90.026410
loop_
_atom_site_label
_atom_site_type_symbol
_atom_site_fract_x
_atom_site_fract_y
_atom_site_fract_z
Zn1	Zn	1.606006	-0.293056	0.416064
Zn2	Zn	1.605921	-0.416100	0.292992
Zn3	Zn	1.430360	-0.293055	0.293016
Zn4	Zn	1.430266	-0.416089	0.416021
O5	O	1.518138	-0.354575	0.354523
O6	O	1.753016	-0.309383	0.399746
O7	O	1.582636	-0.399781	0.190011
O8	O	1.453735	-0.190071	0.309366
O9	O	1.752953	-0.399783	0.309326
O10	O	1.582782	-0.190072	0.399769
O11	O	1.453652	-0.309381	0.190028
O12	O	1.283326	-0.309370	0.309325
O13	O	1.453574	-0.399764	0.519011
O14	O	1.283257	-0.399763	0.399696
O15	O	1.582690	-0.309373	0.519043
O16	O	1.582545	-0.519082	0.309285
O17	O	1.453492	-0.519075	0.399673
C18	C	1.245171	-0.354566	0.354509
C19	C	1.128394	-0.354580	0.354520
C20	C	1.073524	-0.401719	0.401502
C21	C	0.963800	-0.401722	0.401517
C22	C	0.963826	-0.307444	0.307560
C23	C	1.073548	-0.307438	0.307550
C24	C	1.518027	-0.545781	0.354488
C25	C	1.518076	-0.627580	0.354497
C26	C	1.585432	-0.815754	0.307518
C27	C	1.585479	-0.892612	0.307536
C28	C	1.450979	-0.892644	0.401581
C29	C	1.450938	-0.815787	0.401566
C30	C	1.518163	-0.777343	0.354531
C31	C	1.518251	-0.931060	0.354563
C32	C	1.518301	-1.014393	0.354583
C33	C	1.518114	-0.694005	0.354512
C34	C	1.792172	-0.354584	0.354538
C35	C	1.908948	-0.354589	0.354545
C36	C	1.518131	-0.354568	0.546476
C37	C	1.518128	-0.354565	0.628275
C38	C	1.518278	-0.162622	0.354575
C39	C	1.518338	-0.080823	0.354597
C40	C	1.450968	-0.307512	0.816479
C41	C	1.450963	-0.307518	0.893338
C42	C	1.585281	-0.401651	0.893309
C43	C	1.585279	-0.401649	0.816452
C44	C	1.518124	-0.354575	0.778039
C45	C	1.518121	-0.354583	0.931755
C46	C	1.518117	-0.354590	1.015088
C47	C	1.518127	-0.354569	0.694700
C48	C	1.518132	-0.354596	1.163317
C49	C	1.518117	-0.354593	1.081518
H50	H	0.919157	-0.269065	0.269318
H51	H	1.639969	-0.439976	0.785153
O52	O	1.132727	-0.256593	0.256865
H53	H	1.182738	-0.219192	0.289866
O54	O	1.132670	-0.452551	0.452178
H55	H	1.182685	-0.419658	0.489670
H56	H	0.919129	-0.440106	0.439776
O57	O	1.657947	-0.774286	0.256799
H58	H	1.704739	-0.813911	0.224118
O59	O	1.658026	-0.934043	0.256826
H60	H	1.704755	-0.894397	0.224116
O61	O	1.378459	-0.934113	0.452295
H62	H	1.425444	-0.969094	0.489770
O63	O	1.378366	-0.774350	0.452264
H64	H	1.331611	-0.813992	0.484962
O65	O	1.378539	-0.256742	0.775045
H66	H	1.296073	-0.269366	0.789784
H67	H	1.396277	-0.269195	0.924632
H68	H	1.639957	-0.439977	0.924594
