data_functionalizedCrystal
_audit_creation_method	'MofGen! by Chris Wilmer'
_symmetry_space_group_name_H-M	'P1'
_symmetry_Int_Tables_number	1
_symmetry_cell_setting	triclinic
loop_
_symmetry_equiv_pos_as_xyz
  x,y,z
_cell_length_a	16.120490
_cell_length_b	16.120444
_cell_length_c	16.120256
_cell_angle_alpha	84.383140
_cell_angle_beta	89.870193
_cell_angle_gamma	90.165174
loop_
_atom_site_label
_atom_site_type_symbol
_atom_site_fract_x
_atom_site_fract_y
_atom_site_fract_z
Zn1	Zn	1.224981	-0.422349	0.554795
Zn2	Zn	1.474981	-0.172349	0.804795
Zn3	Zn	1.724981	0.077651	1.054795
Zn4	Zn	1.974981	0.327651	1.304795
Zn5	Zn	1.224874	-0.555030	0.422101
Zn6	Zn	1.474874	-0.305030	0.672101
Zn7	Zn	1.724874	-0.055030	0.922101
Zn8	Zn	1.974874	0.194970	1.172101
Zn9	Zn	1.093720	-0.408253	0.408039
Zn10	Zn	1.343720	-0.158253	0.658039
Zn11	Zn	1.593720	0.091747	0.908039
Zn12	Zn	1.843720	0.341747	1.158039
Zn13	Zn	1.078871	-0.554258	0.554037
Zn14	Zn	1.328871	-0.304258	0.804037
Zn15	Zn	1.578871	-0.054258	1.054037
Zn16	Zn	1.828871	0.195742	1.304037
O17	O	1.155612	-0.484973	0.484743
O18	O	1.405612	-0.234973	0.734743
O19	O	1.655612	0.015027	0.984743
O20	O	1.905612	0.265027	1.234743
O21	O	1.341003	-0.446172	0.543395
O22	O	1.591003	-0.196172	0.793395
O23	O	1.841003	0.053828	1.043395
O24	O	2.091003	0.303828	1.293395
O25	O	1.213646	-0.529983	0.303602
O26	O	1.463646	-0.279983	0.553602
O27	O	1.713646	-0.029983	0.803602
O28	O	1.963646	0.220017	1.053602
O29	O	1.117392	-0.293492	0.421939
O30	O	1.367392	-0.043492	0.671939
O31	O	1.617392	0.206508	0.921939
O32	O	1.867392	0.456508	1.171939
O33	O	1.340924	-0.543652	0.445905
O34	O	1.590924	-0.293652	0.695905
O35	O	1.840924	-0.043652	0.945905
O36	O	2.090924	0.206348	1.195905
O37	O	1.213828	-0.303849	0.529760
O38	O	1.463828	-0.053849	0.779760
O39	O	1.713828	0.196151	1.029760
O40	O	1.963828	0.446151	1.279760
O41	O	1.117288	-0.422147	0.293271
O42	O	1.367288	-0.172147	0.543271
O43	O	1.617288	0.077853	0.793271
O44	O	1.867288	0.327853	1.043271
O45	O	0.975715	-0.421399	0.421205
O46	O	1.225715	-0.171399	0.671205
O47	O	1.475715	0.078601	0.921205
O48	O	1.725715	0.328601	1.171205
O49	O	1.092083	-0.542337	0.670771
O50	O	1.342083	-0.292337	0.920771
O51	O	1.592083	-0.042337	1.170771
O52	O	1.842083	0.207663	1.420771
O53	O	0.964805	-0.528668	0.528468
O54	O	1.214805	-0.278668	0.778468
O55	O	1.464805	-0.028668	1.028468
O56	O	1.714805	0.221332	1.278468
O57	O	1.199429	-0.445424	0.671328
O58	O	1.449429	-0.195424	0.921328
O59	O	1.699429	0.054576	1.171328
O60	O	1.949429	0.304576	1.421328
O61	O	1.199247	-0.671558	0.445170
O62	O	1.449247	-0.421558	0.695170
O63	O	1.699247	-0.171558	0.945170
O64	O	1.949247	0.078442	1.195170
O65	O	1.091979	-0.670992	0.542103
O66	O	1.341979	-0.420992	0.792103
O67	O	1.591979	-0.170992	1.042103
O68	O	1.841979	0.079008	1.292103
C69	C	1.144012	-0.701518	0.495099
C70	C	1.394012	-0.451518	0.745099
C71	C	1.644012	-0.201518	0.995099
C72	C	1.894012	0.048482	1.245099
C73	C	1.139124	-0.794163	0.499562
C74	C	1.389124	-0.544163	0.749562
C75	C	1.639124	-0.294163	0.999562
C76	C	1.889124	-0.044163	1.249562
C77	C	0.940173	-0.473421	0.473229
C78	C	1.190173	-0.223421	0.723229
C79	C	1.440173	0.026579	0.973229
C80	C	1.690173	0.276579	1.223229
C81	C	0.848005	-0.468500	0.468324
C82	C	1.098005	-0.218500	0.718324
C83	C	1.348005	0.031500	0.968324
C84	C	1.598005	0.281500	1.218324
C85	C	1.181162	-1.005322	0.461784
C86	C	1.431162	-0.755322	0.711784
C87	C	1.681162	-0.505322	0.961784
C88	C	1.931162	-0.255322	1.211784
C89	C	1.130214	-0.963781	0.507719
C90	C	1.380214	-0.713781	0.757719
C91	C	1.630214	-0.463781	1.007719
C92	C	1.880214	-0.213781	1.257719
C93	C	1.135173	-0.869396	0.503179
C94	C	1.385173	-0.619396	0.753179
C95	C	1.635173	-0.369396	1.003179
C96	C	1.885173	-0.119396	1.253179
C97	C	1.176204	-1.099715	0.466323
C98	C	1.426204	-0.849715	0.716323
C99	C	1.676204	-0.599715	0.966323
C100	C	1.926204	-0.349715	1.216323
C101	C	0.632810	-0.510491	0.510188
C102	C	0.882810	-0.260491	0.760188
C103	C	1.132810	-0.010491	1.010188
C104	C	1.382810	0.239509	1.260188
C105	C	0.679258	-0.459524	0.459368
C106	C	0.929258	-0.209524	0.709368
C107	C	1.179258	0.040476	0.959368
C108	C	1.429258	0.290476	1.209368
C109	C	0.773157	-0.464520	0.464352
C110	C	1.023157	-0.214520	0.714352
C111	C	1.273157	0.035480	0.964352
C112	C	1.523157	0.285480	1.214352
C113	C	0.538901	-0.505496	0.505204
C114	C	0.788901	-0.255496	0.755204
C115	C	1.038901	-0.005496	1.005204
C116	C	1.288901	0.244504	1.255204
C117	C	1.371892	-0.496570	0.496303
C118	C	1.621892	-0.246570	0.746303
C119	C	1.871892	0.003430	0.996303
C120	C	2.121892	0.253430	1.246303
C121	C	1.464057	-0.501512	0.501229
C122	C	1.714057	-0.251512	0.751229
C123	C	1.964057	-0.001512	1.001229
C124	C	2.214057	0.248488	1.251229
C125	C	1.144111	-0.495366	0.702137
C126	C	1.394111	-0.245366	0.952137
C127	C	1.644111	0.004634	1.202137
C128	C	1.894111	0.254634	1.452137
C129	C	1.139211	-0.499796	0.794777
C130	C	1.389211	-0.249796	1.044777
C131	C	1.639211	0.000204	1.294777
C132	C	1.889211	0.250204	1.544777
C133	C	1.167278	-0.267584	0.474366
C134	C	1.417278	-0.017584	0.724366
C135	C	1.667278	0.232416	0.974366
C136	C	1.917278	0.482416	1.224366
C137	C	1.172250	-0.174946	0.469944
C138	C	1.422250	0.075054	0.719944
C139	C	1.672250	0.325054	0.969944
C140	C	1.922250	0.575054	1.219944
C141	C	1.167118	-0.474562	0.268195
C142	C	1.417118	-0.224562	0.518195
C143	C	1.667118	0.025438	0.768195
C144	C	1.917118	0.275438	1.018195
C145	C	1.172192	-0.469906	0.175552
C146	C	1.422192	-0.219906	0.425552
C147	C	1.672192	0.030094	0.675552
C148	C	1.922192	0.280094	0.925552
C149	C	1.181168	-0.461853	1.005940
C150	C	1.431168	-0.211853	1.255940
C151	C	1.681168	0.038147	1.505940
C152	C	1.931168	0.288147	1.755940
C153	C	1.130237	-0.507846	0.964384
C154	C	1.380237	-0.257846	1.214384
C155	C	1.630237	-0.007846	1.464384
C156	C	1.880237	0.242154	1.714384
C157	C	1.135232	-0.503366	0.870006
C158	C	1.385232	-0.253366	1.120006
C159	C	1.635232	-0.003366	1.370006
C160	C	1.885232	0.246634	1.620006
C161	C	1.176175	-0.466333	1.100327
C162	C	1.426175	-0.216333	1.350327
C163	C	1.676175	0.033667	1.600327
C164	C	1.926175	0.283667	1.850327
H165	H	1.228500	-0.970005	0.419051
H166	H	1.478500	-0.720005	0.669051
H167	H	1.728500	-0.470005	0.919051
H168	H	1.978500	-0.220005	1.169051
H169	H	0.663563	-0.557875	0.557436
H170	H	0.913563	-0.307875	0.807436
H171	H	1.163563	-0.057875	1.057436
H172	H	1.413563	0.192125	1.307436
N173	N	1.067502	-1.010558	0.564328
N174	N	1.317502	-0.760558	0.814328
N175	N	1.567502	-0.510558	1.064328
N176	N	1.817502	-0.260558	1.314328
H177	H	1.072802	-1.072330	0.559587
H178	H	1.322802	-0.822330	0.809587
H179	H	1.572802	-0.572330	1.059587
H180	H	1.822802	-0.322330	1.309587
H181	H	1.009760	-0.991662	0.547425
H182	H	1.259760	-0.741662	0.797425
H183	H	1.509760	-0.491662	1.047425
H184	H	1.759760	-0.241662	1.297425
N185	N	0.638528	-0.396753	0.396774
N186	N	0.888528	-0.146753	0.646774
N187	N	1.138528	0.103247	0.896774
N188	N	1.388528	0.353247	1.146774
H189	H	0.576250	-0.402036	0.402039
H190	H	0.826250	-0.152036	0.652039
H191	H	1.076250	0.097964	0.902039
H192	H	1.326250	0.347964	1.152039
H193	H	0.656066	-0.407577	0.338630
H194	H	0.906066	-0.157577	0.588630
H195	H	1.156066	0.092423	0.838630
H196	H	1.406066	0.342423	1.088630
N197	N	1.067510	-0.564464	1.011137
N198	N	1.317510	-0.314464	1.261137
N199	N	1.567510	-0.064464	1.511137
N200	N	1.817510	0.185536	1.761137
H201	H	1.072789	-0.559682	1.072907
H202	H	1.322789	-0.309682	1.322907
H203	H	1.572789	-0.059682	1.572907
H204	H	1.822789	0.190318	1.822907
H205	H	1.078013	-0.623974	0.999519
H206	H	1.328013	-0.373974	1.249519
H207	H	1.578013	-0.123974	1.499519
H208	H	1.828013	0.126026	1.749519
N209	N	1.243912	-0.405264	0.959190
N210	N	1.493912	-0.155264	1.209190
N211	N	1.743912	0.094736	1.459190
N212	N	1.993912	0.344736	1.709190
H213	H	1.238638	-0.410060	0.897421
H214	H	1.488638	-0.160060	1.147421
H215	H	1.738638	0.089940	1.397421
H216	H	1.988638	0.339940	1.647421
H217	H	1.301639	-0.422145	0.978161
H218	H	1.551639	-0.172145	1.228161
H219	H	1.801639	0.077855	1.478161
H220	H	2.051639	0.327855	1.728161
