data_functionalizedCrystal
_audit_creation_method	'MofGen! by Chris Wilmer'
_symmetry_space_group_name_H-M	'P1'
_symmetry_Int_Tables_number	1
_symmetry_cell_setting	triclinic
loop_
_symmetry_equiv_pos_as_xyz
  x,y,z
_cell_length_a	18.101395
_cell_length_b	17.077404
_cell_length_c	17.077396
_cell_angle_alpha	89.978543
_cell_angle_beta	90.027467
_cell_angle_gamma	89.969792
loop_
_atom_site_label
_atom_site_type_symbol
_atom_site_fract_x
_atom_site_fract_y
_atom_site_fract_z
Zn1	Zn	-0.294847	-1.200010	0.443889
Zn2	Zn	-0.418696	-1.199898	0.312625
Zn3	Zn	-0.294871	-1.068742	0.312633
Zn4	Zn	-0.418650	-1.068691	0.443845
O5	O	-0.356766	-1.134335	0.378248
O6	O	-0.311286	-1.309842	0.426492
O7	O	-0.402300	-1.182474	0.202779
O8	O	-0.191235	-1.086223	0.330066
O9	O	-0.402277	-1.309760	0.330054
O10	O	-0.191218	-1.182665	0.426499
O11	O	-0.311326	-1.086114	0.202785
O12	O	-0.311281	-0.958888	0.330023
O13	O	-0.402198	-1.086136	0.553697
O14	O	-0.402221	-0.958851	0.426423
O15	O	-0.311241	-1.182616	0.553730
O16	O	-0.522323	-1.182425	0.330010
O17	O	-0.522289	-1.086028	0.426416
C18	C	-0.356749	-0.930387	0.378219
C19	C	-0.356759	-0.843137	0.378226
C20	C	-0.549177	-1.134230	0.378225
C21	C	-0.631491	-1.134257	0.378241
C22	C	-0.404182	-0.802148	0.428340
C23	C	-0.404182	-0.720168	0.428350
C24	C	-0.356763	-0.679178	0.378241
C25	C	-0.309334	-0.720173	0.328124
C26	C	-0.309331	-0.802152	0.328119
C27	C	-0.309346	-0.549303	0.328138
C28	C	-0.309350	-0.467318	0.328141
C29	C	-0.404197	-0.467319	0.428368
C30	C	-0.404194	-0.549298	0.428363
C31	C	-0.356766	-0.590287	0.378245
C32	C	-0.930581	-1.134429	0.378284
C33	C	-0.899266	-1.073919	0.439090
C34	C	-0.813648	-1.073632	0.438900
C35	C	-0.782199	-1.134344	0.378263
C36	C	-0.813350	-1.111947	0.295533
C37	C	-0.898995	-1.111557	0.295897
C38	C	-0.898926	-1.217469	0.399479
C39	C	-0.813275	-1.216980	0.401293
C40	C	-0.698340	-1.134297	0.378247
C41	C	-1.014441	-1.134474	0.378295
C42	C	-0.163604	-1.134462	0.378288
C43	C	-0.081290	-1.134516	0.378306
C44	C	-0.356711	-1.134383	0.582992
C45	C	-0.356688	-1.134403	0.670242
C46	C	-0.356779	-0.339079	0.378269
C47	C	-0.356773	-0.426329	0.378255
C48	C	-0.356767	-1.134333	0.174300
C49	C	-0.356581	-1.134465	0.087051
C50	C	-0.309323	-1.184642	0.711251
C51	C	-0.309298	-1.184651	0.793231
C52	C	-0.356643	-1.134425	0.834202
C53	C	-0.404010	-1.084181	0.793187
C54	C	-0.404031	-1.084168	0.711208
C55	C	-0.403966	-1.084212	0.964058
C56	C	-0.403947	-1.084226	1.046042
C57	C	-0.309233	-1.184695	1.046080
C58	C	-0.309254	-1.184683	0.964101
C59	C	-0.356622	-1.134439	0.923093
H60	H	-0.442800	-0.686798	0.469157
H61	H	-0.442811	-0.582670	0.469161
C62	C	-0.456140	-1.028909	0.666099
C63	C	-0.514299	-1.062878	0.609736
C64	C	-0.566410	-1.007616	0.564629
C65	C	-0.560362	-0.918385	0.575885
C66	C	-0.502200	-0.884411	0.632251
C67	C	-0.450090	-0.939673	0.677358
H68	H	-0.518779	-1.128937	0.601401
H69	H	-0.609465	-1.032766	0.522903
H70	H	-0.598937	-0.877477	0.542494
H71	H	-0.497721	-0.818353	0.640586
H72	H	-0.407035	-0.914523	0.719084
C73	C	-0.456368	-0.422235	0.483499
C74	C	-0.456374	-0.332061	0.483512
C75	C	-0.508547	-0.286974	0.538636
C76	C	-0.560715	-0.332060	0.593747
C77	C	-0.560711	-0.422238	0.593736
C78	C	-0.508538	-0.467326	0.538612
H79	H	-0.417755	-0.298681	0.442713
H80	H	-0.508550	-0.220217	0.538643
H81	H	-0.599337	-0.298683	0.634553
H82	H	-0.599330	-0.455618	0.634535
H83	H	-0.508535	-0.534082	0.538605
H84	H	-0.791864	-1.264448	0.360233
H85	H	-0.442497	-1.043326	1.079398
C86	C	-0.257168	-0.675083	0.273009
C87	C	-0.172987	-0.686397	0.279579
C88	C	-0.120820	-0.641308	0.224463
C89	C	-0.152835	-0.584904	0.162778
C90	C	-0.237020	-0.573588	0.156206
C91	C	-0.289187	-0.618677	0.211321
H92	H	-0.149284	-0.728152	0.325244
H93	H	-0.058500	-0.649685	0.229328
H94	H	-0.114218	-0.551527	0.121978
H95	H	-0.260723	-0.531833	0.110540
H96	H	-0.351507	-0.610300	0.206456
H97	H	-0.270663	-1.225604	1.079473
C98	C	-0.257168	-0.422227	0.273045
C99	C	-0.204980	-0.467309	0.217938
C100	C	-0.152789	-0.422218	0.162849
C101	C	-0.152786	-0.332044	0.162868
C102	C	-0.204975	-0.286957	0.217977
C103	C	-0.257166	-0.332048	0.273065
H104	H	-0.204981	-0.534066	0.217923
H105	H	-0.114155	-0.455595	0.122054
H106	H	-0.114151	-0.298665	0.122088
H107	H	-0.204975	-0.220201	0.217992
H108	H	-0.295800	-0.298671	0.313860
H109	H	-0.270771	-1.225544	0.677898
C110	C	-0.926283	-1.278376	0.339654
C111	C	-0.977090	-1.252939	0.271902
C112	C	-1.004450	-1.313839	0.212074
C113	C	-0.981003	-1.400174	0.219999
C114	C	-0.930194	-1.425615	0.287754
C115	C	-0.902834	-1.364715	0.347581
H116	H	-0.994449	-1.189025	0.266033
H117	H	-1.042063	-1.295005	0.161918
H118	H	-1.001257	-1.445255	0.175711
H119	H	-0.912835	-1.489529	0.293623
H120	H	-0.865221	-1.383549	0.397738
C121	C	-0.257194	-1.239916	0.838337
C122	C	-0.263252	-1.329147	0.827084
C123	C	-0.211142	-1.384413	0.872187
C124	C	-0.152975	-1.350448	0.928544
C125	C	-0.146915	-1.261213	0.939799
C126	C	-0.199024	-1.205947	0.894696
H127	H	-0.306313	-1.354294	0.785363
H128	H	-0.215628	-1.450471	0.863855
H129	H	-0.114400	-1.391360	0.961932
H130	H	-0.103854	-1.236066	0.981520
H131	H	-0.194538	-1.139889	0.903028
H132	H	-0.919813	-1.087793	0.500632
C133	C	-0.257165	-0.847245	0.272994
C134	C	-0.172985	-0.836017	0.279561
C135	C	-0.120814	-0.881110	0.224439
C136	C	-0.152822	-0.937430	0.162750
C137	C	-0.237007	-0.948661	0.156181
C138	C	-0.289178	-0.903568	0.211303
H139	H	-0.149287	-0.794322	0.325229
H140	H	-0.058495	-0.872796	0.229302
H141	H	-0.114202	-0.970811	0.121945
H142	H	-0.260705	-0.990355	0.110512
H143	H	-0.351497	-0.911882	0.206439
H144	H	-0.792584	-1.087644	0.500244
C145	C	-0.456073	-1.028952	0.918940
C146	C	-0.450030	-0.939719	0.930184
C147	C	-0.502139	-0.884466	0.885063
C148	C	-0.560290	-0.918446	0.828698
C149	C	-0.566336	-1.007684	0.817452
C150	C	-0.514227	-1.062937	0.862573
H151	H	-0.406980	-0.914560	0.971911
H152	H	-0.497663	-0.818406	0.893389
H153	H	-0.598864	-0.877545	0.795297
H154	H	-0.609385	-1.032842	0.775725
H155	H	-0.518703	-1.128996	0.854247
C156	C	-0.926996	-1.168499	0.232599
C157	C	-0.975791	-1.138076	0.165240
C158	C	-1.003791	-1.195010	0.101940
C159	C	-0.982995	-1.282368	0.105998
C160	C	-0.934197	-1.312795	0.173359
C161	C	-0.906198	-1.255861	0.236660
H162	H	-0.991188	-1.073405	0.162234
H163	H	-1.039914	-1.172486	0.052074
H164	H	-1.003722	-1.324514	0.059139
H165	H	-0.918801	-1.377466	0.176365
H166	H	-0.870075	-1.278386	0.286525
H167	H	-0.442557	-1.043283	0.826552
H168	H	-0.270705	-1.225585	0.930745
H169	H	-0.270719	-0.582674	0.287334
C170	C	-0.928425	-0.991272	0.420365
C171	C	-0.911367	-0.953349	0.340575
C172	C	-0.940529	-0.870704	0.321847
C173	C	-0.986750	-0.825983	0.382908
C174	C	-1.003810	-0.863906	0.462703
C175	C	-0.974648	-0.946551	0.481431
H176	H	-0.877149	-0.986454	0.295370
H177	H	-0.927900	-0.842631	0.262778
H178	H	-1.008338	-0.764804	0.369044
H179	H	-1.038028	-0.830800	0.507909
H180	H	-0.987277	-0.974624	0.540501
H181	H	-0.442799	-0.835516	0.469142
H182	H	-0.793224	-1.012081	0.424860
H183	H	-0.919038	-1.050855	0.277943
H184	H	-0.791965	-1.051888	0.277257
H185	H	-0.920474	-1.237888	0.458778
C186	C	-0.785833	-1.169606	0.232652
C187	C	-0.734635	-1.237863	0.255750
C188	C	-0.707117	-1.295524	0.192871
C189	C	-0.730797	-1.284928	0.106894
C190	C	-0.781999	-1.216668	0.083792
C191	C	-0.809517	-1.159007	0.146672
H192	H	-0.717102	-1.245710	0.319399
H193	H	-0.669214	-1.346054	0.209973
H194	H	-0.710427	-1.327611	0.060347
H195	H	-0.799531	-1.208821	0.020144
H196	H	-0.847419	-1.108477	0.129570
C197	C	-0.785759	-1.239810	0.483539
C198	C	-0.735309	-1.183705	0.529596
C199	C	-0.707787	-1.206533	0.611841
C200	C	-0.730714	-1.285465	0.648029
C201	C	-0.781166	-1.341576	0.601972
C202	C	-0.808689	-1.318748	0.519727
H203	H	-0.718335	-1.125269	0.502807
H204	H	-0.670438	-1.164996	0.645935
H205	H	-0.710340	-1.302364	0.708912
H206	H	-0.798140	-1.400011	0.628760
H207	H	-0.846037	-1.360285	0.485632
