data_functionalizedCrystal
_audit_creation_method	'MofGen! by Chris Wilmer'
_symmetry_space_group_name_H-M	'P1'
_symmetry_Int_Tables_number	1
_symmetry_cell_setting	triclinic
loop_
_symmetry_equiv_pos_as_xyz
  x,y,z
_cell_length_a	16.625548
_cell_length_b	18.101395
_cell_length_c	16.625539
_cell_angle_alpha	89.972352
_cell_angle_beta	89.979432
_cell_angle_gamma	90.032172
loop_
_atom_site_label
_atom_site_type_symbol
_atom_site_fract_x
_atom_site_fract_y
_atom_site_fract_z
Zn1	Zn	1.232632	-0.294807	-0.455913
Zn2	Zn	1.232515	-0.418656	-0.321082
Zn3	Zn	1.097794	-0.294835	-0.321094
Zn4	Zn	1.097744	-0.418614	-0.455872
O5	O	1.165171	-0.356728	-0.388490
O6	O	1.345449	-0.311242	-0.438040
O7	O	1.214616	-0.402261	-0.208251
O8	O	1.115750	-0.191199	-0.339000
O9	O	1.345363	-0.402233	-0.338980
O10	O	1.214815	-0.191178	-0.438051
O11	O	1.115637	-0.311290	-0.208260
O12	O	0.984955	-0.311249	-0.338960
O13	O	1.115665	-0.402161	-0.568710
O14	O	0.984918	-0.402188	-0.437981
O15	O	1.214767	-0.311201	-0.568740
O16	O	1.214567	-0.522284	-0.338940
O17	O	1.115552	-0.522252	-0.437969
C18	C	0.955680	-0.356718	-0.388467
C19	C	0.866059	-0.356731	-0.388477
C20	C	1.165063	-0.549139	-0.388466
C21	C	1.165091	-0.631453	-0.388483
C22	C	0.537884	-0.356736	-0.388511
C23	C	0.629192	-0.356732	-0.388499
C24	C	0.701969	-0.356734	-0.388494
C25	C	0.793283	-0.356729	-0.388483
C26	C	1.165268	-0.930544	-0.388527
C27	C	1.103114	-0.899230	-0.450988
C28	C	1.102819	-0.813612	-0.450793
C29	C	1.165180	-0.782161	-0.388506
C30	C	1.142173	-0.813313	-0.303528
C31	C	1.141772	-0.898959	-0.303901
C32	C	1.250565	-0.898886	-0.410295
C33	C	1.250063	-0.813235	-0.412159
C34	C	1.165132	-0.698302	-0.388489
C35	C	1.165314	-1.014403	-0.388538
C36	C	1.375480	-0.356739	-0.388513
C37	C	1.465101	-0.356744	-0.388523
C38	C	1.165224	-0.356673	-0.598799
C39	C	1.165246	-0.356649	-0.688420
C40	C	1.165302	-0.163566	-0.388531
C41	C	1.165357	-0.081252	-0.388549
C42	C	1.165283	-0.356567	-1.016596
C43	C	1.165271	-0.356592	-0.925287
C44	C	1.165265	-0.356609	-0.852511
C45	C	1.165252	-0.356633	-0.761197
C46	C	1.165165	-0.356730	-0.178999
C47	C	1.165299	-0.356545	-0.089378
H48	H	1.117214	-0.792547	-0.513803
H49	H	1.117366	-0.919777	-0.514202
F50	F	1.020980	-0.927459	-0.432392
F51	F	1.061537	-0.785368	-0.278992
H52	H	1.271540	-0.920433	-0.471205
H53	H	1.039595	-0.793190	-0.436373
F54	F	1.060275	-0.925160	-0.279799
H55	H	1.185078	-0.919675	-0.255776
F56	F	1.199481	-0.786689	-0.241037
F57	F	1.272743	-0.786619	-0.493902
H58	H	1.296871	-0.919135	-0.364802
H59	H	1.298821	-0.791822	-0.369981
