data_functionalizedCrystal
_audit_creation_method	'MofGen! by Chris Wilmer'
_symmetry_space_group_name_H-M	'P1'
_symmetry_Int_Tables_number	1
_symmetry_cell_setting	triclinic
loop_
_symmetry_equiv_pos_as_xyz
  x,y,z
_cell_length_a	8.497374
_cell_length_b	19.805405
_cell_length_c	19.805407
_cell_angle_alpha	89.974956
_cell_angle_beta	90.002733
_cell_angle_gamma	89.987726
loop_
_atom_site_label
_atom_site_type_symbol
_atom_site_fract_x
_atom_site_fract_y
_atom_site_fract_z
Zn1	Zn	0.891957	0.269629	1.034629
Zn2	Zn	0.628142	0.382787	1.034571
Zn3	Zn	0.628179	0.269612	0.921473
Zn4	Zn	0.891869	0.382776	0.921404
O5	O	0.760037	0.326201	0.978019
O6	O	0.856982	0.284651	1.129338
O7	O	0.407384	0.367772	1.019573
O8	O	0.663223	0.174898	0.936537
O9	O	0.663158	0.367788	1.129295
O10	O	0.857019	0.174910	1.019671
O11	O	0.407412	0.284623	0.936480
O12	O	0.663137	0.284612	0.826747
O13	O	1.112643	0.367769	0.936419
O14	O	0.856868	0.367753	0.826697
O15	O	1.112707	0.284640	1.019605
O16	O	0.663073	0.477502	1.019506
O17	O	0.856832	0.477494	0.936363
C18	C	0.759998	0.326180	0.802163
C19	C	0.760019	0.326187	0.726931
C20	C	0.861097	0.282974	0.691610
C21	C	0.861103	0.282978	0.620921
C22	C	0.760038	0.326198	0.585556
C23	C	0.658950	0.369413	0.620882
C24	C	0.658937	0.369405	0.691569
C25	C	0.658998	0.369443	0.335809
C26	C	0.659022	0.369449	0.265117
C27	C	0.861164	0.283016	0.265161
C28	C	0.861151	0.283008	0.335848
C29	C	0.760057	0.326220	0.371168
C30	C	0.760050	0.326215	0.447817
C31	C	0.760053	0.326207	0.508909
C32	C	0.759973	0.502057	0.977939
C33	C	0.759999	0.577289	0.977967
C34	C	1.171517	0.326202	0.978014
C35	C	1.350161	0.326209	0.978016
C36	C	0.760076	0.326223	1.154562
C37	C	0.760093	0.326232	1.229794
C38	C	0.659217	0.612615	1.021300
C39	C	0.659257	0.683304	1.021328
C40	C	0.760072	0.718665	0.978017
C41	C	0.860865	0.683334	0.934681
C42	C	0.860832	0.612647	0.934658
C43	C	0.861003	0.968407	0.934775
C44	C	0.861026	1.039099	0.934800
C45	C	0.659428	1.039064	1.021444
C46	C	0.659395	0.968377	1.021421
C47	C	0.760193	0.933052	0.978088
C48	C	0.760151	0.856404	0.978060
C49	C	0.760108	0.795312	0.978041
C50	C	0.760153	1.149658	0.978112
C51	C	0.760250	1.074426	0.978137
H52	H	0.576683	0.404630	0.364558
H53	H	0.576628	0.404593	0.720327
H54	H	0.577115	0.583829	1.056566
Br55	Br	0.998326	0.224355	0.383841
H56	H	0.576654	0.404600	0.592082
Br57	Br	0.522485	0.731244	1.080144
Br58	Br	0.522567	0.920390	1.080200
Br59	Br	0.521853	0.428109	0.217120
H60	H	0.577359	1.067834	1.056730
H61	H	0.943074	0.939651	0.899490
Br62	Br	0.997855	1.087089	0.876017
Br63	Br	0.998365	0.224369	0.217223
H64	H	0.942901	0.583885	0.899372
Br65	Br	0.998275	0.224320	0.739600
Br66	Br	0.998287	0.224330	0.572988
Br67	Br	0.997702	0.731323	0.875908
