data_functionalizedCrystal
_audit_creation_method	'MofGen! by Chris Wilmer'
_symmetry_space_group_name_H-M	'P1'
_symmetry_Int_Tables_number	1
_symmetry_cell_setting	triclinic
loop_
_symmetry_equiv_pos_as_xyz
  x,y,z
_cell_length_a	16.109302
_cell_length_b	10.654550
_cell_length_c	14.586319
_cell_angle_alpha	89.997374
_cell_angle_beta	89.994552
_cell_angle_gamma	83.973342
loop_
_atom_site_label
_atom_site_type_symbol
_atom_site_fract_x
_atom_site_fract_y
_atom_site_fract_z
O1	O	1.104090	0.161423	-0.076279
O2	O	0.862148	0.181511	-0.076272
O3	O	0.988682	-0.011348	-0.076272
O4	O	0.977556	0.354282	-0.076279
O5	O	0.988673	-0.011350	0.076209
O6	O	0.862139	0.181508	0.076209
O7	O	1.104081	0.161420	0.076202
Cu8	Cu	0.983109	0.171464	0.090128
Cu9	Cu	0.983120	0.171467	-0.090198
O10	O	0.977547	0.354279	0.076202
C11	C	0.831164	0.180695	-0.000030
C12	C	0.738854	0.178255	-0.000028
C13	C	0.526474	0.172612	0.083081
C14	C	0.439741	0.170306	0.083078
C15	C	0.439761	0.170316	-0.083165
C16	C	0.526494	0.172613	-0.083161
C17	C	0.569848	0.173767	-0.000035
C18	C	0.396381	0.169164	-0.000043
C19	C	0.302341	0.166664	-0.000047
C20	C	0.663895	0.176265	-0.000031
C21	C	0.987860	-0.058136	-0.000033
C22	C	0.985416	-0.197546	-0.000036
C23	C	1.059918	-0.278042	-0.000036
C24	C	1.057616	-0.409032	-0.000042
C25	C	0.906306	-0.379016	-0.000045
C26	C	0.908608	-0.248029	-0.000046
C27	C	1.136726	-0.227559	-0.000026
C28	C	1.211233	-0.308057	-0.000025
C29	C	1.208932	-0.439046	-0.000031
C30	C	1.132123	-0.489538	-0.000039
C31	C	1.135065	0.162236	-0.000042
C32	C	1.227375	0.164676	-0.000051
C33	C	0.978369	0.401067	-0.000039
C34	C	0.980813	0.540477	-0.000042
N35	N	0.983108	0.171461	0.216960
N36	N	0.983128	0.171460	-0.217030
C37	C	1.039156	0.086092	0.451966
C38	C	1.039158	0.086089	0.547947
C39	C	0.927073	0.256834	0.547957
C40	C	0.927068	0.256830	0.451978
C41	C	0.983114	0.171460	0.403985
C42	C	0.983122	0.171461	0.595945
C43	C	0.983124	0.171458	0.700012
C44	C	0.983111	0.171461	0.299911
H45	H	0.404451	0.169377	-0.150843
H46	H	1.273768	-0.266937	-0.000041
C47	C	0.392033	0.169044	0.174505
H48	H	0.430277	0.170070	0.224009
H49	H	0.364117	0.094958	0.177964
H50	H	0.352278	0.241346	0.177956
H51	H	1.084791	0.016577	0.412892
C52	C	0.865408	0.350707	0.600748
H53	H	0.832018	0.401530	0.558423
H54	H	0.895592	0.403013	0.638196
H55	H	0.830550	0.305473	0.638183
C56	C	1.290884	-0.527589	-0.000031
H57	H	1.336954	-0.478758	-0.000019
H58	H	1.293141	-0.579309	-0.053204
H59	H	1.293123	-0.579312	0.053149
H60	H	0.881427	0.326348	0.412909
H61	H	0.561771	0.173552	0.150767
C62	C	0.574207	0.173888	-0.174594
H63	H	0.535965	0.172890	-0.224101
H64	H	0.613963	0.101596	-0.178048
H65	H	0.602121	0.247984	-0.178042
H66	H	1.138608	-0.120902	-0.000018
C67	C	1.129592	-0.633624	-0.000051
H68	H	1.184964	-0.674337	-0.000047
H69	H	1.101133	-0.657707	-0.053224
H70	H	1.101129	-0.657720	0.053130
C71	C	0.821825	-0.434556	-0.000043
H72	H	0.831124	-0.524096	-0.000033
H73	H	0.791117	-0.406924	-0.053214
H74	H	0.791117	-0.406925	0.053139
C75	C	0.826661	-0.159474	-0.000043
H76	H	0.839035	-0.074233	-0.000052
H77	H	0.795192	-0.174771	0.053129
H78	H	0.795206	-0.174771	-0.053225
C79	C	1.100808	-0.007812	0.600723
H80	H	1.134188	-0.058645	0.558391
H81	H	1.070607	-0.060105	0.638173
H82	H	1.135679	0.037390	0.638155
