data_functionalizedCrystal
_audit_creation_method	'MofGen! by Chris Wilmer'
_symmetry_space_group_name_H-M	'P1'
_symmetry_Int_Tables_number	1
_symmetry_cell_setting	triclinic
loop_
_symmetry_equiv_pos_as_xyz
  x,y,z
_cell_length_a	16.109302
_cell_length_b	16.109304
_cell_length_c	9.730223
_cell_angle_alpha	90.001479
_cell_angle_beta	89.997854
_cell_angle_gamma	83.462209
loop_
_atom_site_label
_atom_site_type_symbol
_atom_site_fract_x
_atom_site_fract_y
_atom_site_fract_z
O1	O	1.103128	0.106866	-0.114343
O2	O	0.861066	0.120165	-0.114331
O3	O	0.988745	-0.007515	-0.114338
O4	O	0.975448	0.234546	-0.114336
O5	O	0.988744	-0.007512	0.114242
O6	O	0.861065	0.120168	0.114249
O7	O	1.103126	0.106870	0.114237
Zn8	Zn	0.982095	0.113519	0.150535
Zn9	Zn	0.982097	0.113515	-0.150629
O10	O	0.975447	0.234550	0.114244
C11	C	0.830090	0.119628	-0.000040
C12	C	0.737795	0.118012	-0.000036
C13	C	0.525453	0.114279	0.124550
C14	C	0.438733	0.112752	0.124545
C15	C	0.438745	0.112753	-0.124665
C16	C	0.525465	0.114274	-0.124659
C17	C	0.568816	0.115041	-0.000048
C18	C	0.395377	0.111994	-0.000059
C19	C	0.301351	0.110338	-0.000065
C20	C	0.662848	0.116695	-0.000041
C21	C	0.988206	-0.038488	-0.000051
C22	C	0.986590	-0.130784	-0.000060
C23	C	0.982857	-0.343123	-0.124654
C24	C	0.981331	-0.429843	-0.124653
C25	C	0.981333	-0.429836	0.124558
C26	C	0.982853	-0.343117	0.124555
C27	C	0.983619	-0.299763	-0.000055
C28	C	0.980573	-0.473202	-0.000051
C29	C	0.978918	-0.567228	-0.000049
C30	C	0.985272	-0.205731	-0.000058
C31	C	1.134102	0.107407	-0.000057
C32	C	1.226397	0.109022	-0.000071
C33	C	0.975987	0.265523	-0.000046
C34	C	0.977603	0.357818	-0.000046
N35	N	0.982100	0.113522	0.356071
N36	N	0.982099	0.113506	-0.356165
C37	C	1.038651	0.057004	0.427994
C38	C	1.038649	0.056994	0.571877
C39	C	0.925542	0.170027	0.571902
C40	C	0.925541	0.170032	0.428021
C41	C	1.103954	-0.008252	0.427981
C42	C	1.103952	-0.008262	0.571864
H43	H	0.560747	0.114904	0.226017
H44	H	0.403431	0.112132	0.226005
H45	H	0.403438	0.112129	-0.226120
H46	H	0.560772	0.114892	-0.226127
N47	N	0.980553	-0.476600	-0.259056
H48	H	0.929325	-0.454759	-0.313569
H49	H	1.032376	-0.468225	-0.313366
H50	H	0.983478	-0.307826	-0.226120
H51	H	0.980711	-0.465146	0.226011
N52	N	0.983673	-0.296342	0.258950
H53	H	0.982964	-0.336965	0.337890
H54	H	1.035813	-0.267115	0.264367
N55	N	1.077927	-0.088024	0.630966
H56	H	1.026326	-0.074614	0.689407
H57	H	1.065400	-0.126509	0.553616
H58	H	1.167719	0.005410	0.610912
H59	H	0.879493	0.216035	0.630499
H60	H	0.879486	0.216046	0.369463
H61	H	1.164140	0.011457	0.383352
N62	N	1.085913	-0.092734	0.376238
H63	H	1.029425	-0.104893	0.410801
H64	H	1.085955	-0.092705	0.272442
