data_functionalizedCrystal
_audit_creation_method	'MofGen! by Chris Wilmer'
_symmetry_space_group_name_H-M	'P1'
_symmetry_Int_Tables_number	1
_symmetry_cell_setting	triclinic
loop_
_symmetry_equiv_pos_as_xyz
  x,y,z
_cell_length_a	15.021413
_cell_length_b	14.519709
_cell_length_c	14.519731
_cell_angle_alpha	96.315501
_cell_angle_beta	90.003039
_cell_angle_gamma	90.001715
loop_
_atom_site_label
_atom_site_type_symbol
_atom_site_fract_x
_atom_site_fract_y
_atom_site_fract_z
O1	O	-0.073918	-1.223882	0.120878
O2	O	0.259415	-0.890549	0.454211
O3	O	0.592749	-0.557215	0.787544
O4	O	-0.073946	-0.955406	0.135114
O5	O	0.259388	-0.622073	0.468447
O6	O	0.592721	-0.288739	0.801781
O7	O	-0.073923	-1.096752	-0.006241
O8	O	0.259410	-0.763419	0.327092
O9	O	0.592744	-0.430085	0.660425
O10	O	-0.073941	-1.082536	0.262233
O11	O	0.259393	-0.749203	0.595566
O12	O	0.592726	-0.415869	0.928900
O13	O	0.074141	-1.096729	-0.006221
O14	O	0.407474	-0.763396	0.327112
O15	O	0.740808	-0.430063	0.660446
O16	O	0.074119	-0.955384	0.135134
O17	O	0.407452	-0.622050	0.468468
O18	O	0.740785	-0.288717	0.801801
O19	O	0.074146	-1.223859	0.120898
O20	O	0.407479	-0.890526	0.454231
O21	O	0.740813	-0.557193	0.787565
Zn22	Zn	0.097641	-1.089618	0.128019
Zn23	Zn	0.430974	-0.756285	0.461353
Zn24	Zn	0.764307	-0.422951	0.794686
Zn25	Zn	-0.097440	-1.089648	0.127993
Zn26	Zn	0.235893	-0.756314	0.461326
Zn27	Zn	0.569226	-0.422981	0.794659
O28	O	0.074124	-1.082513	0.262253
O29	O	0.407457	-0.749180	0.595587
O30	O	0.740790	-0.415847	0.928920
C31	C	0.000083	-0.921035	0.134461
C32	C	0.333416	-0.587702	0.467794
C33	C	0.666750	-0.254368	0.801127
C34	C	0.000073	-0.818654	0.132473
C35	C	0.333406	-0.485320	0.465806
C36	C	0.666740	-0.151987	0.799139
N37	N	0.230778	-1.089604	0.128037
N38	N	0.564112	-0.756271	0.461370
N39	N	0.897445	-0.422938	0.794704
N40	N	-0.230578	-1.089668	0.127968
N41	N	0.102755	-0.756335	0.461301
N42	N	0.436089	-0.423002	0.794635
C43	C	0.470451	-1.024236	0.193369
C44	C	0.803784	-0.690903	0.526702
C45	C	1.137118	-0.357569	0.860035
C46	C	0.529793	-1.107600	0.211406
C47	C	0.863126	-0.774266	0.544739
C48	C	1.196460	-0.440933	0.878072
C49	C	0.412385	-1.089628	0.128014
C50	C	0.745719	-0.756295	0.461347
C51	C	1.079052	-0.422961	0.794681
C52	C	0.529785	-1.006287	0.109998
C53	C	0.863119	-0.672953	0.443331
C54	C	1.196452	-0.339620	0.776665
C55	C	0.587809	-1.089643	0.127994
C56	C	0.921143	-0.756310	0.461327
C57	C	1.254476	-0.422977	0.794660
C58	C	0.470420	-1.173034	0.146092
C59	C	0.803754	-0.839701	0.479425
C60	C	1.137087	-0.506367	0.812759
C61	C	0.470408	-1.071666	0.044648
C62	C	0.803741	-0.738333	0.377982
C63	C	1.137074	-0.404999	0.711315
C64	C	0.529723	-1.155090	0.062650
C65	C	0.863056	-0.821757	0.395983
C66	C	1.196389	-0.488423	0.729316
C67	C	0.311328	-1.089618	0.128028
C68	C	0.644661	-0.756284	0.461361
C69	C	0.977995	-0.422951	0.794695
C70	C	0.688865	-1.089663	0.127979
C71	C	1.022198	-0.756330	0.461312
C72	C	1.355531	-0.422996	0.794646
C73	C	0.000109	-1.096075	-0.040591
C74	C	0.333443	-0.762741	0.292743
C75	C	0.666776	-0.429408	0.626076
C76	C	0.000110	-1.094079	-0.142971
C77	C	0.333443	-0.760745	0.190363
C78	C	0.666776	-0.427412	0.523696
C79	C	0.000115	-1.258230	0.121551
C80	C	0.333449	-0.924897	0.454885
C81	C	0.666782	-0.591564	0.788218
C82	C	0.000120	-1.360612	0.123539
C83	C	0.333453	-1.027279	0.456873
C84	C	0.666786	-0.693945	0.790206
C85	C	0.000114	-0.443757	0.125153
C86	C	0.333447	-0.110424	0.458487
C87	C	0.666780	0.222909	0.791820
C88	C	0.000102	-0.548065	0.127186
C89	C	0.333435	-0.214732	0.460519
C90	C	0.666769	0.118601	0.793852
C91	C	0.000093	-0.631202	0.128813
C92	C	0.333426	-0.297869	0.462146
C93	C	0.666759	0.035465	0.795479
C94	C	0.000082	-0.735517	0.130846
C95	C	0.333416	-0.402183	0.464179
C96	C	0.666749	-0.068850	0.797512
C97	C	0.000107	-1.092457	-0.226115
C98	C	0.333441	-0.759123	0.107218
C99	C	0.666774	-0.425790	0.440552
C100	C	0.000100	-1.090430	-0.330424
C101	C	0.333434	-0.757097	0.002910
C102	C	0.666767	-0.423763	0.336243
C103	C	0.000094	-1.088822	-0.413563
C104	C	0.333428	-0.755488	-0.080229
C105	C	0.666761	-0.422155	0.253104
C106	C	0.000089	-1.086795	-0.517878
C107	C	0.333422	-0.753462	-0.184545
C108	C	0.666756	-0.420129	0.148789
C109	C	0.000089	-1.083191	0.296603
C110	C	0.333423	-0.749858	0.629936
C111	C	0.666756	-0.416524	0.963269
C112	C	0.000083	-1.085187	0.398983
C113	C	0.333416	-0.751854	0.732316
C114	C	0.666750	-0.418520	1.065649
H115	H	0.444427	-0.968992	0.248682
H116	H	0.777760	-0.635659	0.582016
H117	H	1.111093	-0.302325	0.915349
Br118	Br	0.426894	-1.046280	-0.072808
Br119	Br	0.760227	-0.712946	0.260526
Br120	Br	1.093561	-0.379613	0.593859
H121	H	0.555864	-0.935800	0.094769
H122	H	0.889198	-0.602467	0.428102
H123	H	1.222531	-0.269134	0.761436
H124	H	0.555877	-1.122806	0.281897
H125	H	0.889211	-0.789473	0.615231
H126	H	1.222544	-0.456139	0.948564
H127	H	0.555584	-1.210457	0.007369
H128	H	0.888917	-0.877124	0.340702
H129	H	1.222250	-0.543790	0.674036
Br130	Br	0.427148	-1.290546	0.171611
Br131	Br	0.760481	-0.957212	0.504944
Br132	Br	1.093814	-0.623879	0.838277
