data_functionalizedCrystal
_audit_creation_method	'MofGen! by Chris Wilmer'
_symmetry_space_group_name_H-M	'P1'
_symmetry_Int_Tables_number	1
_symmetry_cell_setting	triclinic
loop_
_symmetry_equiv_pos_as_xyz
  x,y,z
_cell_length_a	23.096457
_cell_length_b	23.096457
_cell_length_c	14.560438
_cell_angle_alpha	60.000100
_cell_angle_beta	89.999359
_cell_angle_gamma	60.004020
loop_
_atom_site_label
_atom_site_type_symbol
_atom_site_fract_x
_atom_site_fract_y
_atom_site_fract_z
Zr1	Zr	0.557826	0.633718	-0.120523
O2	O	0.465388	0.754500	-0.267159
O3	O	0.586155	0.512937	-0.075576
O4	O	0.586164	0.633720	-0.267173
O5	O	0.465381	0.633715	0.075579
O6	O	0.681445	0.633722	-0.267179
O7	O	0.465379	0.633716	-0.075562
O8	O	0.681429	0.417662	0.075554
O9	O	0.465397	0.849775	-0.267154
O10	O	0.669354	0.562617	-0.056405
O11	O	0.598249	0.562615	0.056394
O12	O	0.598260	0.704822	-0.169187
O13	O	0.527155	0.704820	-0.056388
Zr14	Zr	0.709791	0.633718	0.120520
Zr15	Zr	0.709788	0.633721	-0.120532
Zr16	Zr	0.557830	0.633716	0.120529
Zr17	Zr	0.557842	0.785670	-0.120514
Zr18	Zr	0.709776	0.481766	0.120512
O19	O	0.681462	0.754500	0.075573
O20	O	0.681457	0.754504	-0.267172
O21	O	0.465393	0.754496	0.075586
O22	O	0.802230	0.512937	0.267157
O23	O	0.802225	0.512940	-0.075588
O24	O	0.586161	0.512933	0.267169
O25	O	0.802237	0.633722	-0.075581
O26	O	0.681453	0.633716	0.267171
O27	O	0.586173	0.633715	0.267176
O28	O	0.802239	0.633720	0.075559
O29	O	0.586186	0.849777	-0.267161
O30	O	0.681432	0.417660	0.267159
O31	O	0.802221	0.417662	0.267152
O32	O	0.802217	0.417664	0.075547
O33	O	0.465400	0.849773	-0.075550
O34	O	0.586189	0.849775	-0.075557
O35	O	0.669358	0.562615	0.169185
O36	O	0.740463	0.562617	0.056386
O37	O	0.669368	0.704822	-0.056397
O38	O	0.598264	0.704820	0.056402
C39	C	0.633790	0.443649	-0.000012
C40	C	0.633783	0.379142	-0.000016
C41	C	0.686276	0.296356	0.083239
C42	C	0.686281	0.235734	0.083249
C43	C	0.633798	0.257903	-0.000012
C44	C	0.581296	0.340703	-0.083273
C45	C	0.581289	0.401322	-0.083275
N46	N	0.617918	0.201794	-0.098749
N47	N	0.617930	0.144205	-0.098743
C48	C	0.633817	0.075264	-0.000010
N49	N	0.649706	0.066080	0.098723
N50	N	0.649698	0.123673	0.098717
C51	C	0.633800	0.192178	-0.000019
C52	C	0.686318	-0.073258	0.083263
C53	C	0.686318	-0.133879	0.083274
C54	C	0.581336	-0.028908	-0.083258
C55	C	0.581333	0.031710	-0.083260
C56	C	0.633828	0.009530	-0.000000
C57	C	0.443729	0.633715	0.000010
C58	C	0.379217	0.633714	0.000014
C59	C	0.386022	0.559487	0.058874
C60	C	0.325406	0.559486	0.058879
C61	C	0.257986	0.633716	0.000001
C62	C	0.251184	0.707953	-0.058862
C63	C	0.311799	0.707952	-0.058856
N64	N	0.135195	0.688970	-0.095823
N65	N	0.077615	0.688966	-0.095827
C66	C	0.075354	0.633723	-0.000019
N67	N	0.132853	0.578472	0.095792
N68	N	0.190439	0.578474	0.095793
C69	C	0.192255	0.633725	-0.000011
C70	C	0.016435	0.559490	0.058853
C71	C	-0.044183	0.559491	0.058861
C72	C	-0.118405	0.707961	-0.058891
C73	C	-0.057787	0.707957	-0.058888
C74	C	0.009630	0.633719	-0.000019
C75	C	0.823889	0.633721	-0.000012
C76	C	0.888401	0.633723	-0.000016
C77	C	0.633804	0.633721	-0.301521
C78	C	0.633802	0.633723	-0.403854
C79	C	0.633828	0.823787	0.000009
C80	C	0.633834	0.888295	0.000013
C81	C	0.596693	0.707951	-0.510801
C82	C	0.596701	0.707947	-0.606950
C83	C	0.670930	0.559480	-0.489190
C84	C	0.670925	0.559485	-0.393044
C85	C	0.633814	0.633715	0.301518
C86	C	0.633815	0.633714	0.403851
C87	C	0.823870	0.443652	-0.000023
C88	C	0.888375	0.379146	-0.000030
C89	C	0.633795	0.443646	0.301508
C90	C	0.633790	0.379137	0.403837
C91	C	0.823875	0.443649	0.301496
C92	C	0.888382	0.379142	0.403822
C93	C	0.443743	0.823787	-0.301499
C94	C	0.379236	0.888295	-0.403825
C95	C	0.443748	0.823784	0.000020
C96	C	0.379243	0.888291	0.000028
C97	C	0.633823	0.823790	-0.301510
C98	C	0.633828	0.888299	-0.403839
C99	C	0.881549	0.348853	-0.058919
C100	C	0.942153	0.288250	-0.058949
C101	C	1.009582	0.257938	-0.000082
C102	C	1.016406	0.288237	0.058809
C103	C	0.955803	0.348842	0.058831
C104	C	0.670905	0.348843	0.510777
C105	C	0.670898	0.288239	0.606936
C106	C	0.633779	0.257926	0.596151
C107	C	0.596659	0.288225	0.489200
C108	C	0.596662	0.348833	0.393044
C109	C	0.955797	0.348849	0.392995
C110	C	1.016414	0.288246	0.489132
C111	C	1.009613	0.257932	0.596094
C112	C	0.942191	0.288230	0.606919
C113	C	0.881576	0.348836	0.510783
C114	C	0.311821	0.918595	-0.392998
C115	C	0.251204	0.979217	-0.489135
C116	C	0.258004	1.009534	-0.596097
C117	C	0.325427	0.979232	-0.606921
C118	C	0.386042	0.918615	-0.510786
C119	C	0.386068	0.918590	0.058907
C120	C	0.325465	0.979209	0.058910
C121	C	0.258036	1.009524	0.000039
C122	C	0.251212	0.979222	-0.058847
C123	C	0.311815	0.918608	-0.058856
C124	C	0.670954	0.918593	-0.393019
C125	C	0.670973	0.979198	-0.489159
C126	C	0.633860	1.009512	-0.596118
C127	C	0.596733	0.979212	-0.606937
C128	C	0.596719	0.918604	-0.510798
H129	H	0.538564	0.358749	-0.151064
H130	H	1.071314	0.263548	0.106736
H131	H	-0.038636	0.499044	0.106800
H132	H	0.440966	0.893912	0.106853
Cl133	Cl	0.470790	0.880526	-0.524416
H134	H	0.701153	0.499038	-0.480402
H135	H	1.058922	0.208588	-0.000108
Cl136	Cl	0.717646	1.017282	-0.475533
Cl137	Cl	0.334060	1.017287	0.132950
H138	H	0.196312	1.003878	-0.480299
H139	H	0.936583	0.263588	-0.106905
Cl140	Cl	0.717577	0.386937	0.524365
Cl141	Cl	0.717570	0.250157	0.741375
Cl142	Cl	0.181856	1.085723	0.000065
H143	H	0.961370	0.373499	0.106792
H144	H	0.306253	0.768399	-0.106785
H145	H	0.440912	0.499036	0.106803
Cl146	Cl	0.101190	0.466164	0.132865
Cl147	Cl	0.166439	1.017337	-0.132844
H148	H	0.208642	1.058892	-0.674367
Cl149	Cl	0.303253	0.880494	-0.258543
Cl150	Cl	0.550002	0.386905	0.258608
H151	H	0.936665	0.263539	0.694020
Cl152	Cl	0.303221	0.880519	-0.132874
H153	H	0.826651	0.373533	-0.106870
Cl154	Cl	0.717617	0.880496	-0.258567
H155	H	0.633782	0.208575	0.674457
H156	H	0.566437	0.263535	0.480435
Cl157	Cl	0.515341	0.135790	-0.187932
H158	H	0.961347	0.373522	0.305910
Cl159	Cl	0.633882	1.085708	-0.716969
H160	H	0.566517	1.003902	-0.694036
Cl161	Cl	0.796827	0.386906	0.524414
H162	H	1.071306	0.263583	0.480298
H163	H	0.566483	0.893945	-0.519624
H164	H	0.729020	0.278289	0.151036
Cl165	Cl	0.752279	0.131648	0.187917
Cl166	Cl	1.085823	0.181738	0.716941
H167	H	0.538540	0.468733	-0.151070
Cl168	Cl	0.752308	-0.101137	0.187932
Cl169	Cl	0.333964	1.017351	-0.741397
H170	H	0.330947	0.499039	0.106811
H171	H	0.729063	-0.201289	0.151076
H172	H	0.196287	0.768392	-0.106800
Cl173	Cl	-0.203157	0.801280	-0.132901
Cl174	Cl	-0.066342	0.801277	-0.132896
Cl175	Cl	0.550031	0.801278	-0.524394
Cl176	Cl	0.550048	0.801267	-0.741398
Cl177	Cl	0.717580	0.466162	-0.258584
Cl178	Cl	0.515354	-0.001032	-0.187925
