data_functionalizedCrystal
_audit_creation_method	'MofGen! by Chris Wilmer'
_symmetry_space_group_name_H-M	'P1'
_symmetry_Int_Tables_number	1
_symmetry_cell_setting	triclinic
loop_
_symmetry_equiv_pos_as_xyz
  x,y,z
_cell_length_a	27.732048
_cell_length_b	9.065218
_cell_length_c	8.140239
_cell_angle_alpha	90.001686
_cell_angle_beta	89.994803
_cell_angle_gamma	96.170730
loop_
_atom_site_label
_atom_site_type_symbol
_atom_site_fract_x
_atom_site_fract_y
_atom_site_fract_z
O1	O	0.642124	-0.175520	-0.136701
O2	O	0.501513	-0.202209	-0.136683
O3	O	0.574725	0.025963	-0.136689
O4	O	0.568912	-0.403692	-0.136695
O5	O	0.574721	0.025965	0.136538
O6	O	0.501509	-0.202206	0.136544
O7	O	0.642120	-0.175518	0.136526
Zn8	Zn	0.571814	-0.188862	0.179916
Zn9	Zn	0.571819	-0.188865	-0.180072
O10	O	0.568908	-0.403689	0.136532
C11	C	0.483500	-0.201647	-0.000067
C12	C	0.429834	-0.199960	-0.000060
C13	C	0.574164	0.080915	-0.000078
C14	C	0.572494	0.244652	-0.000085
C15	C	0.660133	-0.176079	-0.000093
C16	C	0.713799	-0.177766	-0.000110
C17	C	1.051766	-0.053552	-0.000052
C18	C	1.253469	-0.059811	-0.000047
O19	O	1.283949	0.053774	0.000025
N20	N	1.273516	-0.195107	-0.000054
C21	C	1.243134	-0.328848	-0.000051
O22	O	1.264814	-0.444069	-0.000040
C23	C	1.041433	-0.322588	-0.000044
C24	C	1.021388	-0.187283	-0.000054
C25	C	1.031722	0.081742	-0.000060
C26	C	0.981299	0.083305	-0.000071
C27	C	0.950921	-0.050425	-0.000073
C28	C	0.970966	-0.185719	-0.000065
C29	C	1.011052	-0.456327	-0.000030
C30	C	0.960624	-0.454750	-0.000024
C31	C	0.940580	-0.319445	-0.000034
C32	C	0.890165	-0.317887	-0.000077
N33	N	0.870118	-0.182591	-0.000070
C34	C	0.900496	-0.048860	-0.000068
C35	C	1.349031	-0.332125	-0.000058
C36	C	1.399456	-0.333691	-0.000062
C37	C	1.409787	-0.064653	-0.000055
C38	C	1.359361	-0.063089	-0.000062
C39	C	1.328983	-0.196829	-0.000051
C40	C	0.794604	-0.045587	-0.000091
C41	C	0.744177	-0.044036	-0.000108
C42	C	0.733850	-0.313073	-0.000107
C43	C	0.784273	-0.314625	-0.000098
C44	C	0.814650	-0.180870	-0.000085
O45	O	0.859656	-0.431411	-0.000131
O46	O	0.878807	0.066345	-0.000043
C47	C	1.102189	-0.055115	-0.000042
C48	C	1.122234	-0.190409	-0.000034
C49	C	1.091856	-0.324140	-0.000036
C50	C	1.172659	-0.191975	-0.000038
C51	C	1.203037	-0.058244	-0.000036
C52	C	1.182989	0.077052	-0.000030
C53	C	1.132567	0.078615	-0.000040
C54	C	1.111903	-0.459436	-0.000043
C55	C	1.162326	-0.460988	-0.000034
C56	C	1.192704	-0.327258	-0.000032
C57	C	0.569469	-0.458642	-0.000082
C58	C	0.571139	-0.622378	-0.000085
N59	N	0.571813	-0.188858	0.425599
N60	N	0.571823	-0.188856	-0.425755
H61	H	0.727860	0.066151	-0.000121
H62	H	1.324301	-0.441039	-0.000051
H63	H	0.800594	-0.424801	-0.000092
C64	C	1.184369	-0.609834	-0.000020
H65	H	1.159051	-0.689248	-0.000006
H66	H	1.203831	-0.616059	-0.095289
H67	H	1.203818	-0.616030	0.095284
C68	C	0.828011	0.101539	-0.000100
H69	H	0.808845	0.182329	-0.000125
H70	H	0.847896	0.106549	0.095176
H71	H	0.847897	0.106516	-0.095397
C72	C	1.065130	0.228859	-0.000073
H73	H	1.045963	0.309646	-0.000090
H74	H	1.085017	0.233869	0.095199
H75	H	1.085014	0.233840	-0.095374
H76	H	1.087174	-0.568338	-0.000042
H77	H	1.343044	0.047088	-0.000069
C78	C	0.959257	0.232142	-0.000051
H79	H	0.984576	0.311551	-0.000030
H80	H	0.939802	0.238368	-0.095324
H81	H	0.939801	0.238342	0.095248
C82	C	1.443208	0.082447	-0.000040
H83	H	1.476109	0.062124	-0.000028
H84	H	1.437074	0.137993	-0.095309
H85	H	1.437067	0.137961	0.095264
C86	C	0.700429	-0.460164	-0.000096
H87	H	0.667528	-0.439843	-0.000082
H88	H	0.706568	-0.515712	-0.095367
H89	H	0.706566	-0.515676	0.095206
C90	C	1.421499	-0.482526	-0.000068
H91	H	1.396181	-0.561939	-0.000052
H92	H	1.440958	-0.488742	-0.095346
H93	H	1.440951	-0.488729	0.095227
H94	H	1.027363	-0.566507	-0.000029
H95	H	0.935892	-0.563660	-0.000007
H96	H	1.116252	0.188795	-0.000048
H97	H	1.207732	0.185940	-0.000038
