data_functionalizedCrystal
_audit_creation_method	'MofGen! by Chris Wilmer'
_symmetry_space_group_name_H-M	'P1'
_symmetry_Int_Tables_number	1
_symmetry_cell_setting	triclinic
loop_
_symmetry_equiv_pos_as_xyz
  x,y,z
_cell_length_a	15.298068
_cell_length_b	16.625545
_cell_length_c	15.296720
_cell_angle_alpha	80.355801
_cell_angle_beta	91.645182
_cell_angle_gamma	99.685208
loop_
_atom_site_label
_atom_site_type_symbol
_atom_site_fract_x
_atom_site_fract_y
_atom_site_fract_z
Zn1	Zn	1.253364	-0.239865	0.727359
Zn2	Zn	1.753364	0.260135	1.227359
Zn3	Zn	1.278620	-0.348155	0.580888
Zn4	Zn	1.778620	0.151845	1.080888
Zn5	Zn	1.132245	-0.232030	0.555526
Zn6	Zn	1.632245	0.267970	1.055526
Zn7	Zn	1.106846	-0.393358	0.701911
Zn8	Zn	1.606846	0.106642	1.201911
O9	O	1.192769	-0.303352	0.641421
O10	O	1.692769	0.196648	1.141421
O11	O	1.379291	-0.238591	0.729194
O12	O	1.879291	0.261409	1.229194
O13	O	1.280402	-0.310555	0.454963
O14	O	1.780402	0.189445	0.954963
O15	O	1.148371	-0.120233	0.578357
O16	O	1.648371	0.379767	1.078357
O17	O	1.397846	-0.318152	0.621582
O18	O	1.897846	0.181848	1.121582
O19	O	1.237357	-0.125990	0.704602
O20	O	1.737357	0.374010	1.204602
O21	O	1.172860	-0.225238	0.436329
O22	O	1.672860	0.274762	0.936329
O23	O	1.006299	-0.269069	0.553680
O24	O	1.506299	0.230931	1.053680
O25	O	1.105083	-0.395193	0.827848
O26	O	1.605083	0.104807	1.327848
O27	O	0.987639	-0.387596	0.661228
O28	O	1.487639	0.112404	1.161228
O29	O	1.212729	-0.282422	0.846545
O30	O	1.712729	0.217578	1.346545
O31	O	1.255774	-0.466988	0.596906
O32	O	1.755774	0.033012	1.096906
O33	O	1.129573	-0.500198	0.685821
O34	O	1.629573	-0.000198	1.185821
C35	C	0.965186	-0.332388	0.601941
C36	C	1.465186	0.167612	1.101941
C37	C	0.867821	-0.344833	0.585072
C38	C	1.367821	0.155167	1.085072
C39	C	0.554665	-0.214609	0.761988
C40	C	1.054665	0.285391	1.261988
C41	C	0.646143	-0.202920	0.777843
C42	C	1.146143	0.297080	1.277843
C43	C	0.701567	-0.238397	0.729651
C44	C	1.201567	0.261603	1.229651
C45	C	0.665504	-0.285566	0.665603
C46	C	1.165504	0.214434	1.165603
C47	C	0.574016	-0.297262	0.649752
C48	C	1.074016	0.202738	1.149752
C49	C	0.720918	-0.321049	0.617415
C50	C	1.220918	0.178951	1.117415
C51	C	0.684855	-0.368218	0.553367
C52	C	1.184855	0.131782	1.053367
C53	C	0.593376	-0.379912	0.537518
C54	C	1.093376	0.120088	1.037518
C55	C	0.537952	-0.344435	0.585710
C56	C	1.037952	0.155565	1.085710
C57	C	0.812406	-0.309353	0.633266
C58	C	1.312406	0.190647	1.133266
C59	C	0.831757	-0.392006	0.521030
C60	C	1.331757	0.107994	1.021030
C61	C	0.740279	-0.403695	0.505175
C62	C	1.240279	0.096305	1.005175
C63	C	1.192678	-0.512850	0.641377
C64	C	1.692678	-0.012850	1.141377
C65	C	1.192715	-0.602469	0.641401
C66	C	1.692715	-0.102469	1.141401
C67	C	1.192746	-0.675251	0.641425
C68	C	1.692746	-0.175251	1.141425
C69	C	1.192793	-0.766556	0.641453
C70	C	1.692793	-0.266556	1.141453
C71	C	1.192837	-0.839329	0.641472
C72	C	1.692837	-0.339329	1.141472
C73	C	1.192884	-0.930640	0.641499
C74	C	1.692884	-0.430640	1.141499
C75	C	1.421240	-0.274203	0.681056
C76	C	1.921240	0.225797	1.181056
C77	C	1.518601	-0.261782	0.697946
C78	C	2.018601	0.238218	1.197946
C79	C	1.153256	-0.344724	0.869864
C80	C	1.653256	0.155276	1.369864
C81	C	1.136418	-0.362354	0.967212
C82	C	1.636418	0.137646	1.467212
C83	C	1.192880	-0.093036	0.641489
C84	C	1.692880	0.406964	1.141489
C85	C	1.192927	-0.003412	0.641518
C86	C	1.692927	0.496588	1.141518
C87	C	1.232178	-0.262077	0.413876
C88	C	1.732178	0.237923	0.913876
C89	C	1.249186	-0.244198	0.316558
C90	C	1.749186	0.255802	0.816558
C91	C	1.313144	-0.177201	1.280561
C92	C	1.813144	0.322799	1.780561
C93	C	1.328970	-0.160637	1.189098
C94	C	1.828970	0.339363	1.689098
C95	C	1.280833	-0.211065	1.133622
C96	C	1.780833	0.288935	1.633622
C97	C	1.216869	-0.278059	1.169618
C98	C	1.716869	0.221941	1.669618
C99	C	1.201046	-0.294629	1.261091
C100	C	1.701046	0.205371	1.761091
C101	C	1.168735	-0.328492	1.114152
C102	C	1.668735	0.171508	1.614152
C103	C	1.104770	-0.395487	1.150148
C104	C	1.604770	0.104513	1.650148
C105	C	1.088951	-0.412053	1.241611
C106	C	1.588951	0.087947	1.741611
C107	C	1.137087	-0.361625	1.297087
C108	C	1.637087	0.138375	1.797087
C109	C	1.184557	-0.311923	1.022679
C110	C	1.684557	0.188077	1.522679
C111	C	1.072459	-0.429351	1.003209
C112	C	1.572459	0.070649	1.503209
C113	C	1.056634	-0.445914	1.094672
C114	C	1.556634	0.054086	1.594672
H115	H	0.776052	-0.228873	0.742561
H116	H	1.276052	0.271127	1.242561
C117	C	1.298237	-0.192836	1.033009
C118	C	1.798237	0.307164	1.533009
N119	N	1.311344	-0.179100	0.957224
N120	N	1.811344	0.320900	1.457224
H121	H	1.352335	-0.136154	1.325738
H122	H	1.852335	0.363846	1.825738
H123	H	1.381052	-0.106092	1.159797
H124	H	1.881052	0.393908	1.659797
C125	C	0.986272	-0.519606	1.134279
C126	C	1.486272	-0.019606	1.634279
N127	N	0.933275	-0.575109	1.164112
N128	N	1.433275	-0.075109	1.664112
H129	H	1.124206	-0.375108	1.371565
H130	H	1.624206	0.124892	1.871565
H131	H	1.033264	-0.470414	0.958040
H132	H	1.533264	0.029586	1.458040
H133	H	0.675498	-0.164517	0.829993
H134	H	1.175498	0.335483	1.329993
H135	H	0.841759	-0.270947	0.685414
H136	H	1.341759	0.229053	1.185414
H137	H	0.509530	-0.185734	0.801224
H138	H	1.009530	0.314266	1.301224
C139	C	0.437320	-0.357289	0.568272
C140	C	0.937320	0.142711	1.068272
N141	N	0.361522	-0.366970	0.555140
N142	N	0.861522	0.133030	1.055140
C143	C	0.892721	-0.431031	0.468014
C144	C	1.392721	0.068969	0.968014
N145	N	0.938643	-0.460423	0.428086
N146	N	1.438643	0.039577	0.928086
H147	H	1.036873	-0.466610	1.270917
H148	H	1.536873	0.033390	1.770917
H149	H	0.564016	-0.418327	0.485373
H150	H	1.064016	0.081673	0.985373
H151	H	0.710904	-0.442102	0.453028
H152	H	1.210904	0.057898	0.953028
H153	H	1.236637	-0.257375	0.993381
H154	H	1.736637	0.242625	1.493381
