data_functionalizedCrystal
_audit_creation_method	'MofGen! by Chris Wilmer'
_symmetry_space_group_name_H-M	'P1'
_symmetry_Int_Tables_number	1
_symmetry_cell_setting	triclinic
loop_
_symmetry_equiv_pos_as_xyz
  x,y,z
_cell_length_a	12.759401
_cell_length_b	13.897447
_cell_length_c	12.759393
_cell_angle_alpha	90.032074
_cell_angle_beta	90.019437
_cell_angle_gamma	90.019542
loop_
_atom_site_label
_atom_site_type_symbol
_atom_site_fract_x
_atom_site_fract_y
_atom_site_fract_z
Zn1	Zn	1.606220	-0.383958	0.594004
Zn2	Zn	1.606100	-0.545287	0.418323
Zn3	Zn	1.430522	-0.384008	0.418340
Zn4	Zn	1.430496	-0.545212	0.593961
O5	O	1.518334	-0.464616	0.506157
O6	O	1.753225	-0.405369	0.570710
O7	O	1.582769	-0.523945	0.271304
O8	O	1.453890	-0.249020	0.441668
O9	O	1.753137	-0.523897	0.441637
O10	O	1.582975	-0.248983	0.570727
O11	O	1.453773	-0.405454	0.271317
O12	O	1.283498	-0.405382	0.441627
O13	O	1.453846	-0.523769	0.740988
O14	O	1.283478	-0.523818	0.570654
O15	O	1.582949	-0.405296	0.741019
O16	O	1.582744	-0.680259	0.441596
O17	O	1.453729	-0.680204	0.570637
C18	C	1.245367	-0.464598	0.506138
C19	C	1.128590	-0.464613	0.506155
C20	C	0.964021	-0.526392	0.573252
C21	C	1.073745	-0.526380	0.573235
C22	C	1.073706	-0.402862	0.439080
C23	C	0.963984	-0.402880	0.439093
C24	C	0.909181	-0.588156	0.640344
C25	C	0.964058	-0.649909	0.707418
C26	C	1.073782	-0.649897	0.707401
C27	C	1.128630	-0.588131	0.640310
C28	C	1.518249	-0.715231	0.506133
C29	C	1.518309	-0.822445	0.506157
C30	C	1.518359	-0.909514	0.506181
C31	C	1.518433	-1.018747	0.506208
C32	C	1.792368	-0.464635	0.506176
C33	C	1.909144	-0.464644	0.506185
C34	C	1.518408	-0.464519	0.780190
C35	C	1.518439	-0.464477	0.896967
C36	C	1.518449	-0.213023	0.506204
C37	C	1.518498	-0.105809	0.506225
C38	C	1.518322	-0.464644	0.233190
C39	C	1.518494	-0.464413	0.116414
C40	C	1.585673	-0.402783	0.951847
C41	C	1.585698	-0.402748	1.061572
C42	C	1.451253	-0.526111	1.061526
C43	C	1.451223	-0.526140	0.951804
C44	C	1.652889	-0.341120	0.897011
C45	C	1.720129	-0.279421	0.951891
C46	C	1.720154	-0.279386	1.061615
C47	C	1.652939	-0.341050	1.116459
H48	H	1.118371	-0.352574	0.384459
O49	O	0.910832	-0.342805	0.373913
C50	C	0.982761	-0.288298	0.314681
H51	H	1.060996	-0.284986	0.357709
H52	H	0.994387	-0.323536	0.234822
C53	C	0.843853	-0.189699	0.246886
C54	C	0.939940	-0.185624	0.299738
H55	H	0.817439	-0.126366	0.237664
H56	H	0.795393	-0.226424	0.286789
H57	H	0.853555	-0.219068	0.180343
H58	H	0.930235	-0.156267	0.366285
H59	H	0.988399	-0.148892	0.259847
H60	H	1.396529	-0.576315	1.106188
O61	O	1.385903	-0.586181	0.898649
C62	C	1.326581	-0.640599	0.970574
H63	H	1.369621	-0.643902	1.048798
H64	H	1.246793	-0.605289	0.982230
C65	C	1.258561	-0.739221	0.831652
C66	C	1.311428	-0.743285	0.927726
H67	H	1.249209	-0.802561	0.805220
H68	H	1.298524	-0.702557	0.783193
H69	H	1.192077	-0.709792	0.841378
H70	H	1.377915	-0.772702	0.917996
H71	H	1.271476	-0.779956	0.976182
O72	O	1.785267	-0.219471	0.898507
C73	C	1.725464	-0.157168	0.835070
H74	H	1.645826	-0.191188	0.818613
H75	H	1.713961	-0.085673	0.877375
C76	C	1.881068	-0.097950	0.751070
C77	C	1.783258	-0.139738	0.730850
H78	H	1.916719	-0.087194	0.686784
H79	H	1.921359	-0.139922	0.793812
H80	H	1.871468	-0.038376	0.786327
H81	H	1.792860	-0.199316	0.695606
H82	H	1.742969	-0.097776	0.688100
O83	O	0.802597	-0.588320	0.640463
C84	C	0.765958	-0.656052	0.714081
H85	H	0.829179	-0.712420	0.728681
H86	H	0.746543	-0.617882	0.790761
C87	C	0.589113	-0.636227	0.653260
C88	C	0.666759	-0.705464	0.671185
H89	H	0.527919	-0.666704	0.626803
H90	H	0.613795	-0.590592	0.603664
H91	H	0.572946	-0.604424	0.717165
H92	H	0.682934	-0.737257	0.607279
H93	H	0.642076	-0.751106	0.720769
H94	H	1.652879	-0.341143	0.807668
O95	O	1.785412	-0.219316	1.114809
C96	C	1.762476	-0.123184	1.088035
H97	H	1.722067	-0.121208	1.008367
H98	H	1.708495	-0.090667	1.149791
C99	C	1.914559	-0.067198	1.180831
C100	C	1.864935	-0.064770	1.082978
H101	H	1.977759	-0.031163	1.177716
H102	H	1.930010	-0.131963	1.198873
H103	H	1.869564	-0.040102	1.232284
H104	H	1.909925	-0.091876	1.031529
H105	H	1.849495	-0.000008	1.064927
O106	O	0.910898	-0.709855	0.772733
C107	C	0.937748	-0.688861	0.877480
H108	H	1.017425	-0.651778	0.879711
H109	H	0.876027	-0.639309	0.912965
C110	C	0.844961	-0.828507	0.938209
C111	C	0.942826	-0.782967	0.940951
H112	H	0.848089	-0.886554	0.977364
H113	H	0.826867	-0.842649	0.867640
H114	H	0.793537	-0.787203	0.967778
H115	H	0.994245	-0.824265	0.911370
H116	H	0.960928	-0.768834	1.011517
O117	O	1.127139	-0.709983	0.772400
C118	C	1.190587	-0.772200	0.712469
H119	H	1.157481	-0.778083	0.629715
H120	H	1.273747	-0.742360	0.708892
C121	C	1.232936	-0.865300	0.865258
C122	C	1.192271	-0.872531	0.763622
H123	H	1.233980	-0.927188	0.896813
H124	H	1.190194	-0.823381	0.905637
H125	H	1.302233	-0.840430	0.862264
H126	H	1.122971	-0.897389	0.766618
H127	H	1.235002	-0.914456	0.723244
H128	H	1.652953	-0.341006	1.205804
H129	H	1.217974	-0.588132	0.640296
