data_functionalizedCrystal
_audit_creation_method	'MofGen! by Chris Wilmer'
_symmetry_space_group_name_H-M	'P1'
_symmetry_Int_Tables_number	1
_symmetry_cell_setting	triclinic
loop_
_symmetry_equiv_pos_as_xyz
  x,y,z
_cell_length_a	10.723024
_cell_length_b	9.798715
_cell_length_c	10.723023
_cell_angle_alpha	90.002387
_cell_angle_beta	84.467709
_cell_angle_gamma	90.003403
loop_
_atom_site_label
_atom_site_type_symbol
_atom_site_fract_x
_atom_site_fract_y
_atom_site_fract_z
O1	O	1.657187	0.113479	0.175025
O2	O	2.157187	0.613479	0.675025
O3	O	1.294034	0.113483	0.191778
O4	O	1.794034	0.613483	0.691778
O5	O	1.483988	0.113475	0.001825
O6	O	1.983988	0.613475	0.501825
O7	O	1.467233	0.113487	0.364978
O8	O	1.967233	0.613487	0.864978
O9	O	1.483974	-0.113507	0.001824
O10	O	1.983974	0.386493	0.501824
O11	O	1.294020	-0.113499	0.191777
O12	O	1.794020	0.386501	0.691777
O13	O	1.657173	-0.113503	0.175024
O14	O	2.157173	0.386497	0.675024
Zn15	Zn	1.475594	-0.149539	0.183400
Zn16	Zn	1.975594	0.350461	0.683400
Zn17	Zn	1.475613	0.149519	0.183402
Zn18	Zn	1.975613	0.649519	0.683402
O19	O	1.467219	-0.113495	0.364976
O20	O	1.967219	0.386505	0.864976
C21	C	1.247528	-0.000007	0.190558
C22	C	1.747528	0.499993	0.690558
C23	C	1.108973	-0.000006	0.186911
C24	C	1.608973	0.499994	0.686911
N25	N	1.475590	-0.353639	0.183398
N26	N	1.975590	0.146361	0.683398
C27	C	0.917217	-0.000007	0.073603
C28	C	1.417217	0.499993	0.573603
C29	C	1.060420	-0.000008	0.077371
C30	C	1.560420	0.499992	0.577371
C31	C	1.548355	-0.421415	0.255759
C32	C	2.048355	0.078585	0.755759
C33	C	1.548375	-0.578578	0.255758
C34	C	2.048375	-0.078578	0.755758
C35	C	1.703679	-0.000010	0.176243
C36	C	2.203679	0.499990	0.676243
C37	C	1.842234	-0.000002	0.179891
C38	C	2.342234	0.499998	0.679891
C39	C	1.482762	-0.000014	-0.044675
C40	C	1.982762	0.499986	0.455325
C41	C	1.479114	-0.000010	-0.183229
C42	C	1.979114	0.499990	0.316771
N43	N	1.475626	0.353619	0.183394
N44	N	1.975626	0.853619	0.683394
C45	C	1.477496	0.117576	-0.244994
C46	C	1.977496	0.617576	0.255006
C47	C	1.473726	0.117583	-0.388197
C48	C	1.973726	0.617583	0.111803
C49	C	1.468445	-0.000003	0.411477
C50	C	1.968445	0.499997	0.911477
C51	C	1.472093	0.000002	0.550031
C52	C	1.972093	0.500002	1.050031
H53	H	0.875395	-0.000030	-0.020182
H54	H	1.375395	0.499970	0.479818
Cl55	Cl	1.644554	-0.668559	0.351418
Cl56	Cl	2.144554	-0.168559	0.851418
Cl57	Cl	1.474251	-0.155438	-0.367978
Cl58	Cl	1.974251	0.344562	0.132022
H59	H	1.610642	-0.363089	0.317706
H60	H	2.110642	0.136911	0.817706
H61	H	1.413321	-0.588104	0.121446
H62	H	1.913321	-0.088104	0.621446
Cl63	Cl	1.009508	0.000011	0.327406
Cl64	Cl	1.509508	0.500011	0.827406
Cl65	Cl	1.159893	-0.000003	-0.063119
Cl66	Cl	1.659893	0.499997	0.436881
Cl67	Cl	0.906792	-0.000009	0.324697
Cl68	Cl	1.406792	0.499991	0.824697
H69	H	1.478895	0.218239	-0.191855
H70	H	1.978895	0.718239	0.308145
H71	H	1.413312	-0.411965	0.121443
H72	H	1.913312	0.088035	0.621443
Cl73	Cl	1.471587	0.273017	-0.470199
Cl74	Cl	1.971587	0.773017	0.029801
Cl75	Cl	1.476936	-0.155435	-0.265259
Cl76	Cl	1.976936	0.344565	0.234741
