data_functionalizedCrystal
_audit_creation_method	'MofGen! by Chris Wilmer'
_symmetry_space_group_name_H-M	'P1'
_symmetry_Int_Tables_number	1
_symmetry_cell_setting	triclinic
loop_
_symmetry_equiv_pos_as_xyz
  x,y,z
_cell_length_a	19.188930
_cell_length_b	19.188930
_cell_length_c	18.266242
_cell_angle_alpha	90.010255
_cell_angle_beta	90.022820
_cell_angle_gamma	83.144779
loop_
_atom_site_label
_atom_site_type_symbol
_atom_site_fract_x
_atom_site_fract_y
_atom_site_fract_z
O1	O	0.926149	0.087167	0.061124
O2	O	1.176149	0.337167	0.311124
O3	O	1.426149	0.587167	0.561124
O4	O	1.676149	0.837167	0.811124
O5	O	0.722838	0.098902	0.061075
O6	O	0.972838	0.348902	0.311075
O7	O	1.222838	0.598902	0.561075
O8	O	1.472838	0.848902	0.811075
O9	O	0.830361	-0.008621	0.061087
O10	O	1.080361	0.241379	0.311087
O11	O	1.330361	0.491379	0.561087
O12	O	1.580361	0.741379	0.811087
O13	O	0.818627	0.194690	0.061113
O14	O	1.068627	0.444690	0.311113
O15	O	1.318627	0.694690	0.561113
O16	O	1.568627	0.944690	0.811113
O17	O	0.830343	-0.008624	-0.060675
O18	O	1.080343	0.241376	0.189325
O19	O	1.330343	0.491376	0.439325
O20	O	1.580343	0.741376	0.689325
O21	O	0.722820	0.098899	-0.060687
O22	O	0.972820	0.348899	0.189313
O23	O	1.222820	0.598899	0.439313
O24	O	1.472820	0.848899	0.689313
O25	O	0.926131	0.087164	-0.060638
O26	O	1.176131	0.337164	0.189362
O27	O	1.426131	0.587164	0.439362
O28	O	1.676131	0.837164	0.689362
Zn29	Zn	0.824473	0.093031	-0.079994
Zn30	Zn	1.074473	0.343031	0.170006
Zn31	Zn	1.324473	0.593031	0.420006
Zn32	Zn	1.574473	0.843031	0.670006
Zn33	Zn	0.824497	0.093035	0.080432
Zn34	Zn	1.074497	0.343035	0.330432
Zn35	Zn	1.324497	0.593035	0.580432
Zn36	Zn	1.574497	0.843035	0.830432
O37	O	0.818608	0.194687	-0.060649
O38	O	1.068608	0.444687	0.189351
O39	O	1.318608	0.694687	0.439351
O40	O	1.568608	0.944687	0.689351
C41	C	0.696818	0.098520	0.000188
C42	C	0.946818	0.348520	0.250188
C43	C	1.196818	0.598520	0.500188
C44	C	1.446818	0.848520	0.750188
C45	C	0.619313	0.097380	0.000169
C46	C	0.869313	0.347380	0.250169
C47	C	1.119313	0.597380	0.500169
C48	C	1.369313	0.847380	0.750169
C49	C	0.829972	-0.034634	0.000204
C50	C	1.079972	0.215366	0.250204
C51	C	1.329972	0.465366	0.500204
C52	C	1.579972	0.715366	0.750204
C53	C	0.828831	-0.112138	0.000197
C54	C	1.078831	0.137862	0.250197
C55	C	1.328831	0.387862	0.500197
C56	C	1.578831	0.637862	0.750197
C57	C	0.574389	0.160470	0.000188
C58	C	0.824389	0.410470	0.250188
C59	C	1.074389	0.660470	0.500188
C60	C	1.324389	0.910470	0.750188
C61	C	0.501566	0.159399	0.000196
C62	C	0.751566	0.409399	0.250196
C63	C	1.001566	0.659399	0.500196
C64	C	1.251566	0.909399	0.750196
C65	C	0.473669	0.095233	0.000199
C66	C	0.723669	0.345233	0.250199
C67	C	0.973669	0.595233	0.500199
C68	C	1.223669	0.845233	0.750199
C69	C	0.518603	0.032133	0.000175
C70	C	0.768603	0.282133	0.250175
C71	C	1.018603	0.532133	0.500175
C72	C	1.268603	0.782133	0.750175
C73	C	0.591425	0.033207	0.000160
C74	C	0.841425	0.283207	0.250160
C75	C	1.091425	0.533207	0.500160
C76	C	1.341425	0.783207	0.750160
N77	N	0.365695	0.046187	0.041663
N78	N	0.615695	0.296187	0.291663
N79	N	0.865695	0.546187	0.541663
N80	N	1.115695	0.796187	0.791663
N81	N	0.296517	0.045171	0.041679
N82	N	0.546517	0.295171	0.291679
N83	N	0.796517	0.545171	0.541679
N84	N	1.046517	0.795171	0.791679
C85	C	0.254260	0.091994	0.000243
C86	C	0.504260	0.341994	0.250243
C87	C	0.754260	0.591994	0.500243
C88	C	1.004260	0.841994	0.750243
N89	N	0.283795	0.139882	-0.041200
N90	N	0.533795	0.389882	0.208800
N91	N	0.783795	0.639882	0.458800
N92	N	1.033795	0.889882	0.708800
N93	N	0.352980	0.140900	-0.041213
N94	N	0.602980	0.390900	0.208787
N95	N	0.852980	0.640900	0.458787
N96	N	1.102980	0.890900	0.708787
C97	C	0.394707	0.094062	0.000215
C98	C	0.644707	0.344062	0.250215
C99	C	0.894707	0.594062	0.500215
C100	C	1.144707	0.844062	0.750215
C101	C	0.130372	0.153928	0.000270
C102	C	0.380372	0.403928	0.250270
C103	C	0.630372	0.653928	0.500270
C104	C	0.880372	0.903928	0.750270
C105	C	0.057547	0.152853	0.000274
C106	C	0.307547	0.402853	0.250274
C107	C	0.557547	0.652853	0.500274
C108	C	0.807547	0.902853	0.750274
C109	C	0.074586	0.025586	0.000261
C110	C	0.324586	0.275586	0.250261
C111	C	0.574586	0.525586	0.500261
C112	C	0.824586	0.775586	0.750261
C113	C	0.147409	0.026662	0.000250
C114	C	0.397409	0.276662	0.250250
C115	C	0.647409	0.526662	0.500250
C116	C	0.897409	0.776662	0.750250
C117	C	0.175298	0.090835	0.000258
C118	C	0.425298	0.340835	0.250258
C119	C	0.675298	0.590835	0.500258
C120	C	0.925298	0.840835	0.750258
C121	C	0.891922	-0.157062	0.000209
C122	C	1.141922	0.092938	0.250209
C123	C	1.391922	0.342938	0.500209
C124	C	1.641922	0.592938	0.750209
C125	C	0.890850	-0.229886	0.000220
C126	C	1.140850	0.020114	0.250220
C127	C	1.390850	0.270114	0.500220
C128	C	1.640850	0.520114	0.750220
C129	C	0.826684	-0.257782	0.000206
C130	C	1.076684	-0.007782	0.250206
C131	C	1.326684	0.242218	0.500206
C132	C	1.576684	0.492218	0.750206
C133	C	0.763585	-0.212849	0.000198
C134	C	1.013585	0.037151	0.250198
C135	C	1.263585	0.287151	0.500198
C136	C	1.513585	0.537151	0.750198
C137	C	0.764658	-0.140026	0.000194
C138	C	1.014658	0.109974	0.250194
C139	C	1.264658	0.359974	0.500194
C140	C	1.514658	0.609974	0.750194
N141	N	0.777631	-0.365788	-0.041244
N142	N	1.027631	-0.115788	0.208756
N143	N	1.277631	0.134212	0.458756
N144	N	1.527631	0.384212	0.708756
N145	N	0.776615	-0.434967	-0.041242
N146	N	1.026615	-0.184967	0.208758
N147	N	1.276615	0.065033	0.458758
N148	N	1.526615	0.315033	0.708758
C149	C	0.823446	-0.477191	0.000220
C150	C	1.073446	-0.227191	0.250220
C151	C	1.323446	0.022809	0.500220
C152	C	1.573446	0.272809	0.750220
N153	N	0.871341	-0.447625	0.041669
N154	N	1.121341	-0.197625	0.291669
N155	N	1.371341	0.052375	0.541669
N156	N	1.621341	0.302375	0.791669
N157	N	0.872359	-0.378440	0.041664
N158	N	1.122359	-0.128440	0.291664
N159	N	1.372359	0.121560	0.541664
N160	N	1.622359	0.371560	0.791664
C161	C	0.825513	-0.336745	0.000210
C162	C	1.075513	-0.086745	0.250210
C163	C	1.325513	0.163255	0.500210
C164	C	1.575513	0.413255	0.750210
C165	C	0.885379	-0.601079	0.000245
C166	C	1.135379	-0.351079	0.250245
C167	C	1.385379	-0.101079	0.500245
C168	C	1.635379	0.148921	0.750245
C169	C	0.884305	-0.673904	0.000261
C170	C	1.134305	-0.423904	0.250261
C171	C	1.384305	-0.173904	0.500261
C172	C	1.634305	0.076096	0.750261
C173	C	0.757038	-0.656865	0.000231
C174	C	1.007038	-0.406865	0.250231
C175	C	1.257038	-0.156865	0.500231
C176	C	1.507038	0.093135	0.750231
C177	C	0.758114	-0.584042	0.000222
C178	C	1.008114	-0.334042	0.250222
C179	C	1.258114	-0.084042	0.500222
C180	C	1.508114	0.165958	0.750222
C181	C	0.822287	-0.556154	0.000226
C182	C	1.072287	-0.306154	0.250226
C183	C	1.322287	-0.056154	0.500226
C184	C	1.572287	0.193846	0.750226
C185	C	0.952151	0.087546	0.000252
C186	C	1.202151	0.337546	0.250252
C187	C	1.452151	0.587546	0.500252
C188	C	1.702151	0.837546	0.750252
C189	C	1.029656	0.088687	0.000276
C190	C	1.279656	0.338687	0.250276
C191	C	1.529656	0.588687	0.500276
C192	C	1.779656	0.838687	0.750276
C193	C	0.818997	0.220700	0.000236
C194	C	1.068997	0.470700	0.250236
C195	C	1.318997	0.720700	0.500236
C196	C	1.568997	0.970700	0.750236
C197	C	0.820138	0.298204	0.000247
C198	C	1.070138	0.548204	0.250247
C199	C	1.320138	0.798204	0.500247
C200	C	1.570138	1.048204	0.750247
N201	N	0.824461	0.093028	-0.189481
N202	N	1.074461	0.343028	0.060519
N203	N	1.324461	0.593028	0.310519
N204	N	1.574461	0.843028	0.560519
C205	C	0.866670	0.135273	-0.227768
C206	C	1.116670	0.385273	0.022232
C207	C	1.366670	0.635273	0.272232
C208	C	1.616670	0.885273	0.522232
C209	C	0.866682	0.135271	-0.304413
C210	C	1.116682	0.385271	-0.054413
C211	C	1.366682	0.635271	0.195587
C212	C	1.616682	0.885271	0.445587
C213	C	0.824471	0.093032	-0.342768
C214	C	1.074471	0.343032	-0.092768
C215	C	1.324471	0.593032	0.157232
C216	C	1.574471	0.843032	0.407232
C217	C	0.782260	0.050778	-0.304473
C218	C	1.032260	0.300778	-0.054473
C219	C	1.282260	0.550778	0.195527
C220	C	1.532260	0.800778	0.445527
C221	C	0.782254	0.050776	-0.227829
C222	C	1.032254	0.300776	0.022171
C223	C	1.282254	0.550776	0.272171
C224	C	1.532254	0.800776	0.522171
N225	N	0.763324	0.091312	-0.463136
N226	N	1.013324	0.341312	-0.213136
N227	N	1.263324	0.591312	0.036864
N228	N	1.513324	0.841312	0.286864
N229	N	0.763330	0.091318	-0.535944
N230	N	1.013330	0.341318	-0.285944
N231	N	1.263330	0.591318	-0.035944
N232	N	1.513330	0.841318	0.214056
C233	C	0.824485	0.093035	-0.573691
C234	C	1.074485	0.343035	-0.323691
C235	C	1.324485	0.593035	-0.073691
C236	C	1.574485	0.843035	0.176309
N237	N	0.885634	0.094759	-0.535878
N238	N	1.135634	0.344759	-0.285878
N239	N	1.385634	0.594759	-0.035878
N240	N	1.635634	0.844759	0.214122
N241	N	0.885626	0.094757	-0.463064
N242	N	1.135626	0.344757	-0.213064
N243	N	1.385626	0.594757	0.036936
N244	N	1.635626	0.844757	0.286936
C245	C	0.824472	0.093029	-0.425875
C246	C	1.074472	0.343029	-0.175875
C247	C	1.324472	0.593029	0.074125
C248	C	1.574472	0.843029	0.324125
C249	C	0.866711	0.135280	-0.695084
C250	C	1.116711	0.385280	-0.445084
C251	C	1.366711	0.635280	-0.195084
C252	C	1.616711	0.885280	0.054916
C253	C	0.866724	0.135273	-0.771730
C254	C	1.116724	0.385273	-0.521730
C255	C	1.366724	0.635273	-0.271730
C256	C	1.616724	0.885273	-0.021730
C257	C	0.782295	0.050784	-0.771789
C258	C	1.032295	0.300784	-0.521789
C259	C	1.282295	0.550784	-0.271789
C260	C	1.532295	0.800784	-0.021789
C261	C	0.782288	0.050787	-0.695144
C262	C	1.032288	0.300787	-0.445144
C263	C	1.282288	0.550787	-0.195144
C264	C	1.532288	0.800787	0.054856
C265	C	0.824495	0.093039	-0.656796
C266	C	1.074495	0.343039	-0.406796
C267	C	1.324495	0.593039	-0.156796
C268	C	1.574495	0.843039	0.093204
N269	N	0.824513	0.093033	0.189919
N270	N	1.074513	0.343033	0.439919
N271	N	1.324513	0.593033	0.689919
N272	N	1.574513	0.843033	0.939919
H273	H	0.597091	0.212725	0.000196
H274	H	0.847091	0.462725	0.250196
H275	H	1.097091	0.712725	0.500196
H276	H	1.347091	0.962725	0.750196
H277	H	0.020970	0.204232	0.000285
H278	H	0.270970	0.454232	0.250285
H279	H	0.520970	0.704232	0.500285
H280	H	0.770970	0.954232	0.750285
Br281	Br	0.725019	-0.006553	-0.823835
Br282	Br	0.975019	0.243447	-0.573835
Br283	Br	1.225019	0.493447	-0.323835
Br284	Br	1.475019	0.743447	-0.073835
Br285	Br	0.972468	-0.563226	0.000242
Br286	Br	1.222468	-0.313226	0.250242
Br287	Br	1.472468	-0.063226	0.500242
Br288	Br	1.722468	0.186774	0.750242
H289	H	0.935683	-0.710481	0.000274
H290	H	1.185683	-0.460481	0.250274
H291	H	1.435683	-0.210481	0.500274
H292	H	1.685683	0.039519	0.750274
H293	H	0.704792	-0.679578	0.000222
H294	H	0.954792	-0.429578	0.250222
H295	H	1.204792	-0.179578	0.500222
H296	H	1.454792	0.070422	0.750222
H297	H	0.464982	0.210776	0.000210
H298	H	0.714982	0.460776	0.250210
H299	H	0.964982	0.710776	0.500210
H300	H	1.214982	0.960776	0.750210
H301	H	0.051874	-0.026659	0.000309
H302	H	0.301874	0.223341	0.250309
H303	H	0.551874	0.473341	0.500309
H304	H	0.801874	0.723341	0.750309
H305	H	0.183988	-0.024713	0.000238
H306	H	0.433988	0.225287	0.250238
H307	H	0.683988	0.475287	0.500238
H308	H	0.933988	0.725287	0.750238
H309	H	0.747914	0.016389	-0.663971
H310	H	0.997914	0.266389	-0.413971
H311	H	1.247914	0.516389	-0.163971
H312	H	1.497914	0.766389	0.086029
H313	H	0.901041	0.169676	-0.196549
H314	H	1.151041	0.419676	0.053451
H315	H	1.401041	0.669676	0.303451
H316	H	1.651041	0.919676	0.553451
H317	H	0.944176	-0.134360	0.000214
H318	H	1.194176	0.115640	0.250214
H319	H	1.444176	0.365640	0.500214
H320	H	1.694176	0.615640	0.750214
Br321	Br	0.924018	0.192606	-0.823692
Br322	Br	1.174018	0.442606	-0.573692
Br323	Br	1.424018	0.692606	-0.323692
Br324	Br	1.674018	0.942606	-0.073692
H325	H	0.628003	-0.018171	0.000145
H326	H	0.878003	0.231829	0.250145
H327	H	1.128003	0.481829	0.500145
H328	H	1.378003	0.731829	0.750145
H329	H	0.901078	0.169684	-0.663859
H330	H	1.151078	0.419684	-0.413859
H331	H	1.401078	0.669684	-0.163859
H332	H	1.651078	0.919684	0.086141
Br333	Br	0.672486	-0.523070	0.000205
Br334	Br	0.922486	-0.273070	0.250205
Br335	Br	1.172486	-0.023070	0.500205
Br336	Br	1.422486	0.226930	0.750205
H337	H	0.901054	0.169675	-0.335591
H338	H	1.151054	0.419675	-0.085591
H339	H	1.401054	0.669675	0.164409
H340	H	1.651054	0.919675	0.414409
Br341	Br	0.976479	-0.290866	0.000240
Br342	Br	1.226479	-0.040866	0.250240
Br343	Br	1.476479	0.209134	0.500240
Br344	Br	1.726479	0.459134	0.750240
H345	H	0.495885	-0.020111	0.000188
H346	H	0.745885	0.229889	0.250188
H347	H	0.995885	0.479889	0.500188
H348	H	1.245885	0.729889	0.750188
Br349	Br	0.676502	-0.250706	0.000187
Br350	Br	0.926502	-0.000706	0.250187
Br351	Br	1.176502	0.249294	0.500187
Br352	Br	1.426502	0.499294	0.750187
H353	H	0.747892	0.016386	-0.335707
H354	H	0.997892	0.266386	-0.085707
H355	H	1.247892	0.516386	0.164293
H356	H	1.497892	0.766386	0.414293
Br357	Br	0.724963	-0.006559	-0.175866
Br358	Br	0.974963	0.243441	0.074134
Br359	Br	1.224963	0.493441	0.324134
Br360	Br	1.474963	0.743441	0.574134
H361	H	0.153080	0.206181	0.000267
H362	H	0.403080	0.456181	0.250267
H363	H	0.653080	0.706181	0.500267
H364	H	0.903080	0.956181	0.750267
H365	H	0.713281	-0.103448	0.000184
H366	H	0.963281	0.146552	0.250184
H367	H	1.213281	0.396552	0.500184
H368	H	1.463281	0.646552	0.750184
