data_functionalizedCrystal
_audit_creation_method	'MofGen! by Chris Wilmer'
_symmetry_space_group_name_H-M	'P1'
_symmetry_Int_Tables_number	1
_symmetry_cell_setting	triclinic
loop_
_symmetry_equiv_pos_as_xyz
  x,y,z
_cell_length_a	15.995292
_cell_length_b	14.044220
_cell_length_c	13.101039
_cell_angle_alpha	86.332523
_cell_angle_beta	86.641931
_cell_angle_gamma	91.671253
loop_
_atom_site_label
_atom_site_type_symbol
_atom_site_fract_x
_atom_site_fract_y
_atom_site_fract_z
O1	O	1.124339	-0.116681	-0.085245
O2	O	1.374339	0.133319	0.164755
O3	O	1.624339	0.383319	0.414755
O4	O	1.874339	0.633319	0.664755
O5	O	0.881688	-0.131826	-0.085242
O6	O	1.131688	0.118174	0.164758
O7	O	1.381688	0.368174	0.414758
O8	O	1.631688	0.618174	0.664758
O9	O	0.999371	0.013730	-0.085233
O10	O	1.249371	0.263730	0.164767
O11	O	1.499371	0.513730	0.414767
O12	O	1.749371	0.763730	0.664767
O13	O	1.006656	-0.262236	-0.085254
O14	O	1.256656	-0.012236	0.164746
O15	O	1.506656	0.237764	0.414746
O16	O	1.756656	0.487764	0.664746
O17	O	0.990928	0.003269	0.085196
O18	O	1.240928	0.253269	0.335196
O19	O	1.490928	0.503269	0.585196
O20	O	1.740928	0.753269	0.835196
O21	O	0.873246	-0.142287	0.085187
O22	O	1.123246	0.107713	0.335187
O23	O	1.373246	0.357713	0.585187
O24	O	1.623246	0.607713	0.835187
O25	O	1.115896	-0.127141	0.085184
O26	O	1.365896	0.122859	0.335184
O27	O	1.615896	0.372859	0.585184
O28	O	1.865896	0.622859	0.835184
Zn29	Zn	0.993231	-0.136375	0.112245
Zn30	Zn	1.243231	0.113625	0.362245
Zn31	Zn	1.493231	0.363625	0.612245
Zn32	Zn	1.743231	0.613625	0.862245
Zn33	Zn	1.004354	-0.122592	-0.112303
Zn34	Zn	1.254354	0.127408	0.137697
Zn35	Zn	1.504354	0.377408	0.387697
Zn36	Zn	1.754354	0.627408	0.637697
O37	O	0.998214	-0.272697	0.085175
O38	O	1.248214	-0.022697	0.335175
O39	O	1.498214	0.227303	0.585175
O40	O	1.748214	0.477303	0.835175
C41	C	0.846225	-0.136440	-0.000027
C42	C	1.096225	0.113560	0.249973
C43	C	1.346225	0.363560	0.499973
C44	C	1.596225	0.613560	0.749973
C45	C	0.753134	-0.134592	-0.000025
C46	C	1.003134	0.115408	0.249975
C47	C	1.253134	0.365408	0.499975
C48	C	1.503134	0.615408	0.749975
C49	C	0.414889	-0.127798	-0.000036
C50	C	0.664889	0.122202	0.249964
C51	C	0.914889	0.372202	0.499964
C52	C	1.164889	0.622202	0.749964
C53	C	0.446067	-0.232832	-0.000424
C54	C	0.696067	0.017168	0.249576
C55	C	0.946067	0.267168	0.499576
C56	C	1.196067	0.517168	0.749576
C57	C	0.542873	-0.234853	-0.000036
C58	C	0.792873	0.015147	0.249964
C59	C	1.042873	0.265147	0.499964
C60	C	1.292873	0.515147	0.749964
C61	C	0.582696	-0.131169	-0.000031
C62	C	0.832696	0.118831	0.249969
C63	C	1.082696	0.368831	0.499969
C64	C	1.332696	0.618831	0.749969
C65	C	0.544850	-0.084618	0.097293
C66	C	0.794850	0.165382	0.347293
C67	C	1.044850	0.415382	0.597293
C68	C	1.294850	0.665382	0.847293
C69	C	0.447961	-0.083358	0.097370
C70	C	0.697961	0.166642	0.347370
C71	C	0.947961	0.416642	0.597370
C72	C	1.197961	0.666642	0.847370
C73	C	0.457546	-0.069317	-0.096440
C74	C	0.707546	0.180683	0.153560
C75	C	0.957546	0.430683	0.403560
C76	C	1.207546	0.680683	0.653560
C77	C	0.554393	-0.073132	-0.097722
C78	C	0.804393	0.176868	0.152278
C79	C	1.054393	0.426868	0.402278
C80	C	1.304393	0.676868	0.652278
C81	C	0.677534	-0.133069	-0.000025
C82	C	0.927534	0.116931	0.249975
C83	C	1.177534	0.366931	0.499975
C84	C	1.427534	0.616931	0.749975
C85	C	0.320051	-0.125895	-0.000035
C86	C	0.570051	0.124105	0.249965
C87	C	0.820051	0.374105	0.499965
C88	C	1.070051	0.624105	0.749965
C89	C	0.991961	0.043813	-0.000018
C90	C	1.241961	0.293813	0.249982
C91	C	1.491961	0.543813	0.499982
C92	C	1.741961	0.793813	0.749982
C93	C	0.982450	0.149037	-0.000017
C94	C	1.232450	0.399037	0.249983
C95	C	1.482450	0.649037	0.499983
C96	C	1.732450	0.899037	0.749983
C97	C	1.151359	-0.122527	-0.000034
C98	C	1.401359	0.127473	0.249966
C99	C	1.651359	0.377473	0.499966
C100	C	1.901359	0.627473	0.749966
C101	C	1.244451	-0.124375	-0.000042
C102	C	1.494451	0.125625	0.249958
C103	C	1.744451	0.375625	0.499958
C104	C	1.994451	0.625625	0.749958
C105	C	1.005624	-0.302780	-0.000042
C106	C	1.255624	-0.052780	0.249958
C107	C	1.505624	0.197220	0.499958
C108	C	1.755624	0.447220	0.749958
C109	C	1.015135	-0.408003	-0.000050
C110	C	1.265135	-0.158003	0.249950
C111	C	1.515135	0.091997	0.499950
C112	C	1.765135	0.341997	0.749950
N113	N	0.985645	-0.145780	0.265493
N114	N	1.235645	0.104220	0.515493
N115	N	1.485645	0.354220	0.765493
N116	N	1.735645	0.604220	1.015493
C117	C	0.965062	0.341695	-0.000031
C118	C	1.215062	0.591695	0.249969
C119	C	1.465062	0.841695	0.499969
C120	C	1.715062	1.091695	0.749969
C121	C	1.032519	0.399344	-0.000036
C122	C	1.282519	0.649344	0.249964
C123	C	1.532519	0.899344	0.499964
C124	C	1.782519	1.149344	0.749964
C125	C	1.022844	0.506546	-0.000044
C126	C	1.272844	0.756546	0.249956
C127	C	1.522844	1.006546	0.499956
C128	C	1.772844	1.256546	0.749956
C129	C	0.974736	0.234483	-0.000023
C130	C	1.224736	0.484483	0.249977
C131	C	1.474736	0.734483	0.499977
C132	C	1.724736	0.984483	0.749977
N133	N	1.011945	-0.113179	-0.265551
N134	N	1.261945	0.136821	-0.015551
N135	N	1.511945	0.386821	0.234449
N136	N	1.761945	0.636821	0.484449
C137	C	0.975326	-0.158586	0.474535
C138	C	1.225326	0.091414	0.724535
C139	C	1.475326	0.341414	0.974535
C140	C	1.725326	0.591414	1.224535
C141	C	1.022262	-0.100377	0.525414
C142	C	1.272262	0.149623	0.775414
C143	C	1.522262	0.399623	1.025414
C144	C	1.772262	0.649623	1.275414
C145	C	1.016520	-0.107502	0.641732
C146	C	1.266520	0.142498	0.891732
C147	C	1.516520	0.392498	1.141732
C148	C	1.766520	0.642498	1.391732
C149	C	0.981067	-0.151462	0.358206
C150	C	1.231067	0.098538	0.608206
C151	C	1.481067	0.348538	0.858206
C152	C	1.731067	0.598538	1.108206
H153	H	0.437810	0.008053	-0.097094
H154	H	0.687810	0.258053	0.152906
H155	H	0.937810	0.508053	0.402906
H156	H	1.187810	0.758053	0.652906
H157	H	0.579386	-0.106956	-0.169721
H158	H	0.829386	0.143044	0.080279
H159	H	1.079386	0.393044	0.330279
H160	H	1.329386	0.643044	0.580279
H161	H	1.066757	-0.045193	0.481615
H162	H	1.316757	0.204807	0.731615
H163	H	1.566757	0.454807	0.981615
H164	H	1.816757	0.704807	1.231615
H165	H	1.097540	0.368193	-0.000105
H166	H	1.347540	0.618193	0.249895
H167	H	1.597540	0.868193	0.499895
H168	H	1.847540	1.118193	0.749895
H169	H	0.900050	0.372849	-0.000033
H170	H	1.150050	0.622849	0.249967
H171	H	1.400050	0.872849	0.499967
H172	H	1.650050	1.122849	0.749967
H173	H	0.427438	-0.006601	0.101795
H174	H	0.677438	0.243399	0.351795
H175	H	0.927438	0.493399	0.601795
H176	H	1.177438	0.743399	0.851795
H177	H	0.416619	-0.277362	0.068973
H178	H	0.666619	-0.027362	0.318973
H179	H	0.916619	0.222638	0.568973
H180	H	1.166619	0.472638	0.818973
H181	H	0.564046	-0.125539	0.169717
H182	H	0.814046	0.124461	0.419717
H183	H	1.064046	0.374461	0.669717
H184	H	1.314046	0.624461	0.919717
H185	H	0.568427	-0.271700	-0.069804
H186	H	0.818427	-0.021700	0.180196
H187	H	1.068427	0.228300	0.430196
H188	H	1.318427	0.478300	0.680196
H189	H	0.424553	-0.269043	-0.070220
H190	H	0.674553	-0.019043	0.179780
H191	H	0.924553	0.230957	0.429780
H192	H	1.174553	0.480957	0.679780
H193	H	0.930835	-0.213768	0.518329
H194	H	1.180835	0.036232	0.768329
H195	H	1.430835	0.286232	1.018329
H196	H	1.680835	0.536232	1.268329
H197	H	0.560905	-0.280525	0.069843
H198	H	0.810905	-0.030525	0.319843
H199	H	1.060905	0.219475	0.569843
H200	H	1.310905	0.469475	0.819843
H201	H	0.420258	-0.124200	0.170118
H202	H	0.670258	0.125800	0.420118
H203	H	0.920258	0.375800	0.670118
H204	H	1.170258	0.625800	0.920118
H205	H	0.435326	-0.097627	-0.170205
H206	H	0.685326	0.152373	0.079795
H207	H	0.935326	0.402373	0.329795
H208	H	1.185326	0.652373	0.579795
H209	H	0.570840	-0.008543	0.100915
H210	H	0.820840	0.241457	0.350915
H211	H	1.070840	0.491457	0.600915
H212	H	1.320840	0.741457	0.850915
H213	H	0.582002	0.002908	-0.103596
H214	H	0.832002	0.252908	0.146404
H215	H	1.082002	0.502908	0.396404
H216	H	1.332002	0.752908	0.646404
