data_functionalizedCrystal
_audit_creation_method	'MofGen! by Chris Wilmer'
_symmetry_space_group_name_H-M	'P1'
_symmetry_Int_Tables_number	1
_symmetry_cell_setting	triclinic
loop_
_symmetry_equiv_pos_as_xyz
  x,y,z
_cell_length_a	19.805407
_cell_length_b	18.050589
_cell_length_c	19.805407
_cell_angle_alpha	90.008031
_cell_angle_beta	90.009221
_cell_angle_gamma	90.028221
loop_
_atom_site_label
_atom_site_type_symbol
_atom_site_fract_x
_atom_site_fract_y
_atom_site_fract_z
Zn1	Zn	1.034658	-0.295781	0.382744
Zn2	Zn	1.534658	0.204219	0.882744
Zn3	Zn	1.034590	-0.419942	0.269567
Zn4	Zn	1.534590	0.080058	0.769567
Zn5	Zn	0.921493	-0.295771	0.269569
Zn6	Zn	1.421493	0.204229	0.769569
Zn7	Zn	0.921433	-0.419934	0.382713
Zn8	Zn	1.421433	0.080066	0.882713
O9	O	0.978043	-0.357857	0.326148
O10	O	1.478043	0.142143	0.826148
O11	O	1.129365	-0.312259	0.367743
O12	O	1.629365	0.187741	0.867743
O13	O	1.019584	-0.403470	0.174850
O14	O	1.519584	0.096530	0.674850
O15	O	0.936559	-0.191848	0.284596
O16	O	1.436559	0.308152	0.784596
O17	O	1.129315	-0.403480	0.284592
O18	O	1.629315	0.096520	0.784592
O19	O	1.019700	-0.191855	0.367745
O20	O	1.519700	0.308145	0.867745
O21	O	0.936492	-0.312242	0.174852
O22	O	1.436492	0.187758	0.674852
O23	O	0.826768	-0.312233	0.284566
O24	O	1.326768	0.187767	0.784566
O25	O	0.936455	-0.403466	0.477434
O26	O	1.436455	0.096534	0.977434
O27	O	0.826724	-0.403455	0.367692
O28	O	1.326724	0.096545	0.867692
O29	O	1.019642	-0.312251	0.477457
O30	O	1.519642	0.187749	0.977457
O31	O	1.019525	-0.523866	0.284562
O32	O	1.519525	-0.023866	0.784562
O33	O	0.936389	-0.523860	0.367690
O34	O	1.436389	-0.023860	0.867690
C35	C	0.802187	-0.357843	0.326126
C36	C	1.302187	0.142157	0.826126
C37	C	0.726955	-0.357855	0.326133
C38	C	1.226955	0.142145	0.826133
C39	C	0.977962	-0.550809	0.326137
C40	C	1.477962	-0.050809	0.826137
C41	C	0.977989	-0.633355	0.326155
C42	C	1.477989	-0.133355	0.826155
C43	C	0.691606	-0.405426	0.369347
C44	C	1.191606	0.094574	0.869347
C45	C	0.620917	-0.405427	0.369357
C46	C	1.120917	0.094573	0.869357
C47	C	0.585580	-0.357860	0.326148
C48	C	1.085580	0.142140	0.826148
C49	C	0.620934	-0.310284	0.282932
C50	C	1.120934	0.189716	0.782932
C51	C	0.691621	-0.310280	0.282927
C52	C	1.191621	0.189720	0.782927
C53	C	0.335861	-0.310301	0.282955
C54	C	0.835861	0.189699	0.782955
C55	C	0.265169	-0.310311	0.282962
C56	C	0.765169	0.189689	0.782962
C57	C	0.265157	-0.405448	0.369385
C58	C	0.765157	0.094552	0.869385
C59	C	0.335844	-0.405443	0.369379
C60	C	0.835844	0.094557	0.869379
C61	C	0.371192	-0.357865	0.326166
C62	C	0.871192	0.142135	0.826166
C63	C	0.447841	-0.357863	0.326157
C64	C	0.947841	0.142137	0.826157
C65	C	0.508933	-0.357866	0.326153
C66	C	1.008933	0.142134	0.826153
C67	C	0.932824	-0.832829	0.371344
C68	C	1.432824	-0.332829	0.871344
C69	C	0.916336	-0.882251	0.309581
C70	C	1.416336	-0.382251	0.809581
C71	C	0.978055	-0.784485	0.326164
C72	C	1.478055	-0.284485	0.826164
C73	C	0.994575	-0.882145	0.387934
C74	C	1.494575	-0.382145	0.887934
C75	C	0.978118	-0.930470	0.326178
C76	C	1.478118	-0.430470	0.826178
C77	C	0.961535	-0.832820	0.264368
C78	C	1.461535	-0.332820	0.764368
C79	C	1.039803	-0.832710	0.342762
C80	C	1.539803	-0.332710	0.842762
C81	C	1.023339	-0.882109	0.280957
C82	C	1.523339	-0.382109	0.780957
C83	C	0.978017	-0.700387	0.326157
C84	C	1.478017	-0.200387	0.826157
C85	C	0.978156	-1.014567	0.326178
C86	C	1.478156	-0.514567	0.826178
C87	C	1.154586	-0.357872	0.326171
C88	C	1.654586	0.142128	0.826171
C89	C	1.229818	-0.357878	0.326180
C90	C	1.729818	0.142122	0.826180
C91	C	0.978049	-0.357859	0.502691
C92	C	1.478049	0.142141	1.002691
C93	C	0.978052	-0.357859	0.577923
C94	C	1.478052	0.142141	1.077923
C95	C	0.978144	-0.164151	0.326174
C96	C	1.478144	0.335849	0.826174
C97	C	0.978187	-0.081606	0.326185
C98	C	1.478187	0.418394	0.826185
C99	C	1.021362	-0.310371	0.613280
C100	C	1.521362	0.189629	1.113280
C101	C	1.021356	-0.310369	0.683968
C102	C	1.521356	0.189631	1.183968
C103	C	0.978043	-0.357859	0.719299
C104	C	1.478043	0.142141	1.219299
C105	C	0.934729	-0.405349	0.683936
C106	C	1.434729	0.094651	1.183936
C107	C	0.934732	-0.405347	0.613249
C108	C	1.434732	0.094653	1.113249
C109	C	0.934715	-0.405358	0.969010
C110	C	1.434715	0.094642	1.469010
C111	C	0.934717	-0.405358	1.039702
C112	C	1.434717	0.094642	1.539702
C113	C	1.021339	-0.310380	1.039729
C114	C	1.521339	0.189620	1.539729
C115	C	1.021342	-0.310378	0.969042
C116	C	1.521342	0.189622	1.469042
C117	C	0.978026	-0.357865	0.933686
C118	C	1.478026	0.142135	1.433686
C119	C	0.978032	-0.357865	0.857037
C120	C	1.478032	0.142135	1.357037
C121	C	0.978040	-0.357862	0.795946
C122	C	1.478040	0.142138	1.295946
C123	C	0.978031	-0.357871	1.150292
C124	C	1.478031	0.142129	1.650292
C125	C	0.978024	-0.357865	1.075060
C126	C	1.478024	0.142135	1.575060
H127	H	0.720373	-0.444162	0.404530
H128	H	1.220373	0.055838	0.904530
H129	H	1.056634	-0.271701	0.584519
H130	H	1.556634	0.228299	1.084519
H131	H	1.091980	-0.810934	0.356818
H132	H	1.591980	-0.310934	0.856818
H133	H	1.056614	-0.271709	0.940280
H134	H	1.556614	0.228291	1.440280
H135	H	0.236399	-0.271572	0.247777
H136	H	0.736399	0.228428	0.747777
H137	H	0.364612	-0.444179	0.404561
H138	H	0.864612	0.055821	0.904561
H139	H	1.056624	-0.271701	0.712753
H140	H	1.556624	0.228299	1.212753
H141	H	1.008523	-0.903811	0.440167
H142	H	1.508523	-0.403811	0.940167
H143	H	0.899444	-0.444031	1.068466
H144	H	1.399444	0.055969	1.568466
H145	H	1.056608	-0.271711	1.068524
H146	H	1.556608	0.228289	1.568524
H147	H	0.899454	-0.444036	0.940231
H148	H	1.399454	0.055964	1.440231
O149	O	0.892717	-0.451456	0.718359
O150	O	1.392717	0.048544	1.218359
C151	C	0.854291	-0.493524	0.827241
C152	C	1.354291	0.006476	1.327241
C153	C	0.901915	-0.441280	0.788345
C154	C	1.401915	0.058720	1.288345
H155	H	0.861702	-0.485303	0.883832
H156	H	1.361702	0.014697	1.383832
H157	H	0.866146	-0.553424	0.813386
H158	H	1.366146	-0.053424	1.313386
H159	H	0.799729	-0.480483	0.813294
H160	H	1.299729	0.019517	1.313294
H161	H	0.956493	-0.454254	0.802272
H162	H	1.456493	0.045746	1.302272
H163	H	0.890003	-0.381395	0.802204
H164	H	1.390003	0.118605	1.302204
H165	H	1.061617	-0.903612	0.242711
H166	H	1.561617	-0.403612	0.742711
O167	O	0.230786	-0.451554	0.411441
O168	O	0.730786	0.048446	0.911441
C169	C	0.150969	-0.461708	0.502791
C170	C	0.650969	0.038292	1.002791
C171	C	0.189862	-0.409410	0.455219
C172	C	0.689862	0.090590	0.955219
H173	H	0.117862	-0.427657	0.538187
H174	H	0.617862	0.072343	1.038187
H175	H	0.188337	-0.495694	0.533720
H176	H	0.688337	0.004306	1.033720
H177	H	0.117880	-0.500502	0.471644
H178	H	0.617880	-0.000502	0.971644
H179	H	0.222952	-0.370571	0.486313
H180	H	0.722952	0.129429	0.986313
H181	H	0.152458	-0.375477	0.424288
H182	H	0.652458	0.124523	0.924288
H183	H	0.899458	-0.444009	0.584462
H184	H	1.399458	0.055991	1.084462
H185	H	0.364633	-0.271565	0.247763
H186	H	0.864633	0.228435	0.747763
O187	O	0.586657	-0.451610	0.411424
O188	O	1.086657	0.048390	0.911424
C189	C	0.565021	-0.487857	0.526499
C190	C	1.065021	0.012143	1.026499
C191	C	0.603872	-0.435514	0.478934
C192	C	1.103872	0.064486	0.978934
H193	H	0.578915	-0.474852	0.581092
H194	H	1.078915	0.025148	1.081092
H195	H	0.578912	-0.547727	0.514563
H196	H	1.078912	-0.047727	1.014563
H197	H	0.508432	-0.479708	0.519052
H198	H	1.008432	0.020292	1.019052
H199	H	0.660470	-0.443597	0.486354
H200	H	1.160470	0.056403	0.986354
H201	H	0.589926	-0.375664	0.490882
H202	H	1.089926	0.124336	0.990882
O203	O	0.586505	-0.264144	0.240984
O204	O	1.086505	0.235856	0.740984
C205	C	0.477615	-0.221948	0.202723
C206	C	0.977615	0.278052	0.702723
C207	C	0.516520	-0.274253	0.250253
C208	C	1.016520	0.225747	0.750253
H209	H	0.421026	-0.230092	0.210210
H210	H	0.921026	0.269908	0.710210
H211	H	0.491444	-0.234891	0.148108
H212	H	0.991444	0.265109	0.648108
H213	H	0.491582	-0.162094	0.214699
H214	H	0.991582	0.337906	0.714699
H215	H	0.502574	-0.334125	0.238338
H216	H	1.002574	0.165875	0.738338
H217	H	0.502688	-0.261246	0.304854
H218	H	1.002688	0.238754	0.804854
O219	O	0.725858	-0.264050	0.240881
O220	O	1.225858	0.235950	0.740881
C221	C	0.718414	-0.169658	0.155183
C222	C	1.218414	0.330342	0.655183
C223	C	0.679559	-0.221990	0.202754
C224	C	1.179559	0.278010	0.702754
H225	H	0.680999	-0.135628	0.124355
H226	H	1.180999	0.364372	0.624355
H227	H	0.751467	-0.203658	0.119691
H228	H	1.251467	0.296342	0.619691
H229	H	0.751550	-0.130908	0.186324
H230	H	1.251550	0.369092	0.686324
H231	H	0.646386	-0.260751	0.171666
H232	H	1.146386	0.239249	0.671666
H233	H	0.646549	-0.187944	0.238247
H234	H	1.146549	0.312056	0.738247
H235	H	0.894517	-0.811190	0.409498
H236	H	1.394517	-0.311190	0.909498
O237	O	0.854080	-0.908304	0.292926
O238	O	1.354080	-0.408304	0.792926
C239	C	0.758403	-0.981769	0.327139
C240	C	1.258403	-0.481769	0.827139
C241	C	0.828910	-0.952334	0.346072
C242	C	1.328910	-0.452334	0.846072
H243	H	0.738026	-1.017360	0.370102
H244	H	1.238026	-0.517360	0.870102
H245	H	0.762103	-1.016571	0.279244
H246	H	1.262103	-0.516571	0.779244
H247	H	0.722861	-0.933117	0.318068
H248	H	1.222861	-0.433117	0.818068
H249	H	0.864491	-1.000940	0.355178
H250	H	1.364491	-0.500940	0.855178
H251	H	0.825157	-0.917510	0.393949
H252	H	1.325157	-0.417510	0.893949
O253	O	0.944802	-0.806962	0.202084
O254	O	1.444802	-0.306962	0.702084
C255	C	0.926037	-0.699667	0.132191
C256	C	1.426037	-0.199667	0.632191
C257	C	0.944983	-0.728853	0.202759
C258	C	1.444983	-0.228853	0.702759
H259	H	0.926191	-0.636513	0.132710
H260	H	1.426191	-0.136513	0.632710
H261	H	0.873572	-0.720462	0.117944
H262	H	1.373572	-0.220462	0.617944
H263	H	0.964371	-0.720429	0.093659
H264	H	1.464371	-0.220429	0.593659
H265	H	0.906694	-0.708103	0.241338
H266	H	1.406694	-0.208103	0.741338
H267	H	0.997464	-0.708064	0.216949
H268	H	1.497464	-0.208064	0.716949
