data_functionalizedCrystal
_audit_creation_method	'MofGen! by Chris Wilmer'
_symmetry_space_group_name_H-M	'P1'
_symmetry_Int_Tables_number	1
_symmetry_cell_setting	triclinic
loop_
_symmetry_equiv_pos_as_xyz
  x,y,z
_cell_length_a	12.827893
_cell_length_b	18.050589
_cell_length_c	12.827885
_cell_angle_alpha	90.029551
_cell_angle_beta	90.019462
_cell_angle_gamma	90.028191
loop_
_atom_site_label
_atom_site_type_symbol
_atom_site_fract_x
_atom_site_fract_y
_atom_site_fract_z
Zn1	Zn	1.597578	-0.295624	0.590850
Zn2	Zn	1.930912	0.037709	0.924184
Zn3	Zn	2.264245	0.371043	1.257517
Zn4	Zn	1.597433	-0.419832	0.416111
Zn5	Zn	1.930766	-0.086499	0.749445
Zn6	Zn	2.264099	0.246835	1.082778
Zn7	Zn	1.422819	-0.295660	0.416124
Zn8	Zn	1.756153	0.037673	0.749457
Zn9	Zn	2.089486	0.371006	1.082791
Zn10	Zn	1.422766	-0.419777	0.590811
Zn11	Zn	1.756099	-0.086443	0.924145
Zn12	Zn	2.089433	0.246890	1.257478
O13	O	1.510149	-0.357723	0.503474
O14	O	1.843482	-0.024390	0.836808
O15	O	2.176816	0.308943	1.170141
O16	O	1.743795	-0.312109	0.567682
O17	O	2.077128	0.021225	0.901015
O18	O	2.410462	0.354558	1.234349
O19	O	1.574231	-0.403399	0.269877
O20	O	1.907565	-0.070065	0.603210
O21	O	2.240898	0.263268	0.936544
O22	O	1.446085	-0.191731	0.439323
O23	O	1.779418	0.141603	0.772657
O24	O	2.112751	0.474936	1.105990
O25	O	1.743688	-0.403364	0.439302
O26	O	2.077021	-0.070030	0.772635
O27	O	2.410355	0.263303	1.105969
O28	O	1.574479	-0.191704	0.567694
O29	O	1.907813	0.141629	0.901027
O30	O	2.241146	0.474962	1.234361
O31	O	1.445943	-0.312170	0.269886
O32	O	1.779277	0.021163	0.603220
O33	O	2.112610	0.354497	0.936553
O34	O	1.276576	-0.312117	0.439286
O35	O	1.609909	0.021217	0.772619
O36	O	1.943243	0.354550	1.105952
O37	O	1.445994	-0.403269	0.737053
O38	O	1.779327	-0.069936	1.070386
O39	O	2.112661	0.263397	1.403719
O40	O	1.276537	-0.403304	0.567628
O41	O	1.609870	-0.069971	0.900961
O42	O	1.943204	0.263362	1.234294
O43	O	1.574428	-0.312055	0.737081
O44	O	1.907761	0.021278	1.070415
O45	O	2.241094	0.354612	1.403748
O46	O	1.574180	-0.523749	0.439264
O47	O	1.907513	-0.190416	0.772597
O48	O	2.240846	0.142917	1.105931
O49	O	1.445853	-0.523709	0.567615
O50	O	1.779186	-0.190375	0.900949
O51	O	2.112519	0.142958	1.234282
C52	C	1.238639	-0.357709	0.503454
C53	C	1.571973	-0.024376	0.836788
C54	C	1.905306	0.308958	1.170121
C55	C	1.122486	-0.357721	0.503471
C56	C	1.455819	-0.024387	0.836804
C57	C	1.789153	0.308946	1.170137
C58	C	1.070710	-0.402914	0.566880
C59	C	1.404043	-0.069580	0.900214
C60	C	1.737376	0.263753	1.233547
C61	C	0.950659	-0.402927	0.566899
C62	C	1.283993	-0.069594	0.900232
C63	C	1.617326	0.263740	1.233565
C64	C	1.510023	-0.550675	0.503457
C65	C	1.843356	-0.217342	0.836790
C66	C	2.176690	0.115991	1.170124
C67	C	1.510065	-0.633221	0.503484
C68	C	1.843398	-0.299888	0.836818
C69	C	2.176731	0.033445	1.170151
C70	C	1.440349	-0.832677	0.573257
C71	C	1.773682	-0.499343	0.906591
C72	C	2.107016	-0.166010	1.239924
C73	C	1.414872	-0.882124	0.477900
C74	C	1.748205	-0.548791	0.811234
C75	C	2.081539	-0.215457	1.144567
C76	C	1.510167	-0.784351	0.503498
C77	C	1.843501	-0.451018	0.836831
C78	C	2.176834	-0.117685	1.170165
C79	C	1.535696	-0.881986	0.598866
C80	C	1.869029	-0.548652	0.932199
C81	C	2.202362	-0.215319	1.265533
C82	C	1.510264	-0.930337	0.503520
C83	C	1.843598	-0.597003	0.836853
C84	C	2.176931	-0.263670	1.170186
C85	C	1.484640	-0.832712	0.408091
C86	C	1.817973	-0.499378	0.741424
C87	C	2.151307	-0.166045	1.074757
C88	C	1.605508	-0.832569	0.529120
C89	C	1.938841	-0.499236	0.862454
C90	C	2.272175	-0.165902	1.195787
C91	C	1.580067	-0.881994	0.433698
C92	C	1.913401	-0.548661	0.767031
C93	C	2.246734	-0.215327	1.100364
C94	C	1.510109	-0.700253	0.503487
C95	C	1.843442	-0.366920	0.836820
C96	C	2.176775	-0.033587	1.170154
C97	C	1.510323	-1.014433	0.503520
C98	C	1.843657	-0.681100	0.836853
C99	C	2.176990	-0.347766	1.170187
C100	C	1.782719	-0.357738	0.503495
C101	C	2.116053	-0.024405	0.836828
C102	C	2.449386	0.308929	1.170161
C103	C	1.898872	-0.357745	0.503504
C104	C	2.232206	-0.024411	0.836837
C105	C	2.565539	0.308922	1.170170
C106	C	1.510221	-0.357652	0.776045
C107	C	1.843554	-0.024319	1.109378
C108	C	2.176888	0.309015	1.442711
C109	C	1.510252	-0.357622	0.892198
C110	C	1.843585	-0.024288	1.225531
C111	C	2.176919	0.309045	1.558864
C112	C	1.510304	-0.164018	0.503515
C113	C	1.843638	0.169316	0.836848
C114	C	2.176971	0.502649	1.170181
C115	C	1.510370	-0.081472	0.503532
C116	C	1.843704	0.251862	0.836865
C117	C	2.177037	0.585195	1.170198
C118	C	1.510137	-0.357741	0.231964
C119	C	1.843471	-0.024407	0.565298
C120	C	2.176804	0.308926	0.898631
C121	C	1.510309	-0.357562	0.115812
C122	C	1.843643	-0.024229	0.449145
C123	C	2.176976	0.309105	0.782478
C124	C	1.573770	-0.402713	1.064022
C125	C	1.907103	-0.069380	1.397356
C126	C	2.240437	0.263953	1.730689
C127	C	1.573740	-0.402746	0.943972
C128	C	1.907073	-0.069413	1.277305
C129	C	2.240406	0.263921	1.610639
H130	H	0.943392	-0.319054	0.449210
H131	H	1.276726	0.014280	0.782543
H132	H	1.610059	0.347613	1.115876
H133	H	1.077937	-0.319036	0.449201
H134	H	1.411270	0.014297	0.782534
H135	H	1.744604	0.347631	1.115868
Br136	Br	1.341803	-0.796581	0.671448
Br137	Br	1.675136	-0.463248	1.004781
Br138	Br	2.008469	-0.129915	1.338115
Br139	Br	1.664309	-0.467173	0.869747
Br140	Br	1.997643	-0.133840	1.203081
Br141	Br	2.330976	0.199494	1.536414
Br142	Br	1.280558	-0.918400	0.441779
Br143	Br	1.613892	-0.585067	0.775112
Br144	Br	1.947225	-0.251734	1.108445
H145	H	0.906133	-0.441621	0.621183
H146	H	1.239466	-0.108287	0.954516
H147	H	1.572799	0.225046	1.287850
Br148	Br	1.144950	-0.467392	0.657343
Br149	Br	1.478283	-0.134059	0.990677
Br150	Br	1.811616	0.199275	1.324010
Br151	Br	1.664358	-0.467114	1.138244
Br152	Br	1.997691	-0.133781	1.471578
Br153	Br	2.331024	0.199553	1.804911
H154	H	1.557249	-0.903630	0.679509
H155	H	1.890582	-0.570297	1.012842
H156	H	2.223916	-0.236964	1.346176
Br157	Br	1.739788	-0.796263	0.565283
Br158	Br	2.073121	-0.462929	0.898616
Br159	Br	2.406454	-0.129596	1.231950
Br160	Br	1.448566	-0.796791	0.273640
Br161	Br	1.781899	-0.463458	0.606973
Br162	Br	2.115233	-0.130125	0.940307
H163	H	1.455953	-0.318932	1.071274
H164	H	1.789286	0.014401	1.404607
H165	H	2.122619	0.347734	1.737940
H166	H	1.639152	-0.903512	0.374645
H167	H	1.972485	-0.570179	0.707979
H168	H	2.305819	-0.236845	1.041312
H169	H	1.455923	-0.318960	0.936729
H170	H	1.789256	0.014373	1.270062
H171	H	2.122589	0.347706	1.603395
