data_functionalizedCrystal
_audit_creation_method	'MofGen! by Chris Wilmer'
_symmetry_space_group_name_H-M	'P1'
_symmetry_Int_Tables_number	1
_symmetry_cell_setting	triclinic
loop_
_symmetry_equiv_pos_as_xyz
  x,y,z
_cell_length_a	23.532407
_cell_length_b	13.339070
_cell_length_c	11.804365
_cell_angle_alpha	74.887832
_cell_angle_beta	101.767347
_cell_angle_gamma	99.238986
loop_
_atom_site_label
_atom_site_type_symbol
_atom_site_fract_x
_atom_site_fract_y
_atom_site_fract_z
O1	O	-0.783276	-0.102131	-0.098870
O2	O	-0.620275	-0.119864	-0.098904
O3	O	-0.683068	0.036078	-0.098887
O4	O	-0.720483	-0.258073	-0.098886
O5	O	-0.666531	-0.004935	0.099165
O6	O	-0.603738	-0.160877	0.099148
O7	O	-0.766738	-0.143144	0.099182
Cu8	Cu	-0.683728	-0.155755	0.117249
Cu9	Cu	-0.703285	-0.107253	-0.116970
O10	O	-0.703946	-0.299086	0.099165
C11	C	-0.590718	-0.139918	0.000118
C12	C	-0.527283	-0.138557	0.000105
C13	C	-0.668479	0.053198	0.000136
C14	C	-0.649641	0.165312	0.000127
C15	C	-0.796296	-0.123089	0.000158
C16	C	-0.859731	-0.124449	0.000163
C17	C	-0.141679	-0.222335	0.000159
C18	C	-0.082075	-0.221074	0.000166
O19	O	-0.057844	-0.298736	0.000209
N20	N	-0.044503	-0.128364	0.000164
C21	C	-0.066538	-0.036911	0.000166
O22	O	-0.029108	0.042062	0.000166
C23	C	-0.126141	-0.038174	0.000168
C24	C	-0.163710	-0.130888	0.000158
C25	C	-0.179248	-0.315041	0.000150
C26	C	-0.238848	-0.316300	0.000141
C27	C	-0.260879	-0.224853	0.000140
C28	C	-0.223311	-0.132147	0.000148
C29	C	-0.148174	0.053277	0.000179
C30	C	-0.207781	0.052005	0.000181
C31	C	-0.245350	-0.040708	0.000171
C32	C	-0.304942	-0.041959	0.000138
N33	N	-0.342513	-0.134669	0.000140
C34	C	-0.320482	-0.226116	0.000141
C35	C	0.058631	-0.034266	0.000166
C36	C	0.118232	-0.033000	0.000156
C37	C	0.102691	-0.217164	0.000158
C38	C	0.043089	-0.218427	0.000159
C39	C	0.021060	-0.126976	0.000168
C40	C	-0.445646	-0.228754	0.000120
C41	C	-0.505252	-0.230004	0.000105
C42	C	-0.489706	-0.045841	0.000110
C43	C	-0.430106	-0.044589	0.000118
C44	C	-0.408078	-0.136055	0.000127
O45	O	-0.329213	0.035660	0.000099
O46	O	-0.357917	-0.305079	0.000157
C47	C	-0.718534	-0.316205	0.000140
C48	C	-0.737373	-0.428318	0.000141
N49	N	-0.669976	-0.189868	0.281986
C50	C	-0.796119	0.531571	0.000158
C51	C	-0.813820	0.426233	0.000173
C52	C	-0.772777	0.360998	0.000161
C53	C	-0.714030	0.401110	0.000135
C54	C	-0.696327	0.506457	0.000130
C55	C	-0.672984	0.335884	0.000133
C56	C	-0.614238	0.375996	0.000107
C57	C	-0.596537	0.481333	0.000100
C58	C	-0.637581	0.546568	0.000112
C59	C	-0.690687	0.230537	0.000138
C60	C	-0.590895	0.205424	0.000110
C61	C	-0.573194	0.310761	0.000095
N62	N	-0.717040	-0.073132	-0.281707
C63	C	-0.750060	0.008806	0.655955
C64	C	-0.760462	0.034616	0.531297
C65	C	-0.737841	-0.021502	0.468963
C66	C	-0.704817	-0.103437	0.531300
C67	C	-0.694418	-0.129255	0.655971
C68	C	-0.682199	-0.159563	0.468978
C69	C	-0.649176	-0.241497	0.531316
C70	C	-0.638778	-0.267311	0.655975
C71	C	-0.661399	-0.211193	0.718308
C72	C	-0.692598	-0.133745	0.344307
C73	C	-0.636957	-0.271805	0.344323
C74	C	-0.626555	-0.297616	0.468982
H75	H	-0.535839	-0.305506	0.000097
C76	C	-0.508574	0.354893	0.000074
C77	C	-0.461252	0.308764	0.102905
C78	C	-0.396632	0.352897	0.102884
C79	C	-0.379334	0.443160	0.000032
C80	C	-0.426657	0.489294	-0.102806
C81	C	-0.491277	0.445161	-0.102785
H82	H	-0.474056	0.241941	0.179049
H83	H	-0.361600	0.318744	0.179012
H84	H	-0.331498	0.475830	0.000017
H85	H	-0.413853	0.556117	-0.178950
H86	H	-0.526308	0.479313	-0.178913
C87	C	-0.388775	0.057394	0.000119
C88	C	-0.337086	0.062282	0.102976
C89	C	-0.295757	0.164263	0.102990
C90	C	-0.306117	0.261355	0.000148
C91	C	-0.357808	0.256470	-0.102716
C92	C	-0.399137	0.154489	-0.102730
H93	H	-0.329415	-0.009594	0.179112
H94	H	-0.257492	0.167879	0.179137
H95	H	-0.275523	0.336847	0.000159
H96	H	-0.365479	0.328346	-0.178853
H97	H	-0.437402	0.150873	-0.178878
C98	C	0.034401	0.066344	0.000154
C99	C	0.057593	0.121193	0.102990
C100	C	0.033367	0.221802	0.102980
C101	C	-0.014052	0.267561	0.000134
C102	C	-0.037247	0.212711	-0.102710
C103	C	-0.013021	0.112103	-0.102699
H104	H	0.092697	0.087320	0.179130
H105	H	0.050538	0.262405	0.179112
H106	H	-0.031985	0.342037	0.000126
H107	H	-0.072351	0.246585	-0.178849
H108	H	-0.030191	0.071500	-0.178831
C109	C	-0.280165	-0.418296	0.000151
C110	C	-0.269781	-0.515370	0.103006
C111	C	-0.311091	-0.617375	0.103024
C112	C	-0.362786	-0.622305	0.000188
C113	C	-0.373172	-0.525227	-0.102675
C114	C	-0.331861	-0.423223	-0.102693
H115	H	-0.231512	-0.511723	0.179138
H116	H	-0.303402	-0.689238	0.179170
H117	H	-0.393366	-0.697815	0.000202
H118	H	-0.411441	-0.528874	-0.178807
H119	H	-0.339550	-0.351360	-0.178839
H120	H	-0.548701	0.513987	0.000088
H121	H	-0.787350	0.101325	0.480546
C122	C	-0.155022	-0.415643	0.000146
C123	C	-0.178220	-0.470472	-0.102706
C124	C	-0.154001	-0.571080	-0.102720
C125	C	-0.106585	-0.616860	0.000116
C126	C	-0.083384	-0.562031	0.102975
C127	C	-0.107603	-0.461423	0.102990
H128	H	-0.213323	-0.436583	-0.178838
H129	H	-0.171176	-0.611668	-0.178864
H130	H	-0.088656	-0.691337	0.000105
H131	H	-0.048281	-0.595920	0.179108
H132	H	-0.090427	-0.420835	0.179134
C133	C	-0.749277	0.006893	0.331837
C134	C	-0.728223	0.117119	0.263282
C135	C	-0.739657	0.145523	0.126151
C136	C	-0.772146	0.063699	0.057573
C137	C	-0.793202	-0.046534	0.126127
C138	C	-0.781768	-0.074937	0.263259
H139	H	-0.704171	0.177696	0.314048
H140	H	-0.724070	0.227125	0.075403
H141	H	-0.780611	0.084725	-0.043940
H142	H	-0.817254	-0.107111	0.075362
H143	H	-0.797355	-0.156540	0.314007
H144	H	-0.427719	-0.303234	0.000131
H145	H	-0.557473	0.152307	0.000106
H146	H	0.012503	-0.293924	0.000158
H147	H	0.120640	-0.291627	0.000164
H148	H	-0.861651	0.393580	0.000196
H149	H	0.148815	0.042501	0.000146
H150	H	-0.117594	0.128774	0.000188
H151	H	-0.225713	0.126478	0.000189
H152	H	-0.768478	0.054485	0.706716
H153	H	-0.623172	0.632345	0.000096
H154	H	-0.652928	-0.232205	0.819816
H155	H	-0.507655	0.028613	0.000105
H156	H	-0.611894	-0.334034	0.706730
H157	H	-0.738519	0.197888	0.000160
H158	H	-0.787192	0.275227	0.000174
H159	H	-0.618538	-0.317504	0.293571
H160	H	-0.829529	0.584691	0.000178
H161	H	-0.719487	-0.067034	0.293563
H162	H	-0.599667	-0.364329	0.519752
