data_functionalizedCrystal
_audit_creation_method	'MofGen! by Chris Wilmer'
_symmetry_space_group_name_H-M	'P1'
_symmetry_Int_Tables_number	1
_symmetry_cell_setting	triclinic
loop_
_symmetry_equiv_pos_as_xyz
  x,y,z
_cell_length_a	16.120530
_cell_length_b	16.120484
_cell_length_c	16.120256
_cell_angle_alpha	84.383827
_cell_angle_beta	89.871735
_cell_angle_gamma	90.167327
loop_
_atom_site_label
_atom_site_type_symbol
_atom_site_fract_x
_atom_site_fract_y
_atom_site_fract_z
Zn1	Zn	1.224986	-0.422281	0.554816
Zn2	Zn	1.224882	-0.554961	0.422121
Zn3	Zn	1.093725	-0.408193	0.408058
Zn4	Zn	1.078879	-0.554198	0.554054
O5	O	1.155618	-0.484908	0.484762
O6	O	1.341008	-0.446097	0.543418
O7	O	1.213653	-0.529915	0.303622
O8	O	1.117394	-0.293431	0.421960
O9	O	1.340931	-0.543577	0.445927
O10	O	1.213831	-0.303782	0.529783
O11	O	1.117293	-0.422085	0.293290
O12	O	0.975720	-0.421345	0.421221
O13	O	1.092090	-0.542275	0.670788
O14	O	0.964812	-0.528614	0.528483
O15	O	1.199435	-0.445357	0.671349
O16	O	1.199257	-0.671491	0.445188
O17	O	1.091989	-0.670930	0.542119
C18	C	0.940179	-0.473368	0.473243
C19	C	0.848012	-0.468453	0.468336
C20	C	0.679260	-0.459459	0.459384
C21	C	0.632809	-0.510422	0.510204
C22	C	0.538910	-0.505418	0.505223
C23	C	0.773168	-0.464462	0.464364
C24	C	1.144022	-0.701453	0.495116
C25	C	1.139136	-0.794098	0.499577
C26	C	1.130219	-0.963721	0.507739
C27	C	1.181165	-1.005263	0.461807
C28	C	1.176203	-1.099648	0.466348
C29	C	1.135179	-0.869328	0.503199
C30	C	1.371898	-0.496494	0.496326
C31	C	1.464063	-0.501431	0.501254
C32	C	1.144118	-0.495303	0.702156
C33	C	1.139217	-0.499732	0.794796
C34	C	1.167280	-0.267520	0.474388
C35	C	1.172250	-0.174881	0.469967
C36	C	1.167124	-0.474497	0.268214
C37	C	1.172198	-0.469841	0.175572
C38	C	1.181174	-0.461788	1.005960
C39	C	1.130244	-0.507783	0.964402
C40	C	1.135238	-0.503302	0.870024
C41	C	1.176181	-0.466268	1.100346
H42	H	0.663562	-0.557811	0.557456
H43	H	1.228523	-0.419049	0.970662
H44	H	0.648510	-0.412073	0.412137
Cl45	Cl	1.254256	-0.950736	0.395823
Cl46	Cl	1.057127	-1.018249	0.573713
H47	H	1.082887	-0.550521	0.999702
