data_functionalizedCrystal
_audit_creation_method	'MofGen! by Chris Wilmer'
_symmetry_space_group_name_H-M	'P1'
_symmetry_Int_Tables_number	1
_symmetry_cell_setting	triclinic
loop_
_symmetry_equiv_pos_as_xyz
  x,y,z
_cell_length_a	16.625548
_cell_length_b	21.295417
_cell_length_c	16.625548
_cell_angle_alpha	90.016382
_cell_angle_beta	90.008236
_cell_angle_gamma	90.031575
loop_
_atom_site_label
_atom_site_type_symbol
_atom_site_fract_x
_atom_site_fract_y
_atom_site_fract_z
Zn1	Zn	1.232537	-0.250696	0.455881
Zn2	Zn	1.732537	0.249304	0.955881
Zn3	Zn	1.232451	-0.355938	0.321036
Zn4	Zn	1.732451	0.144062	0.821036
Zn5	Zn	1.097728	-0.250688	0.321061
Zn6	Zn	1.597728	0.249312	0.821061
Zn7	Zn	1.097651	-0.355933	0.455826
Zn8	Zn	1.597651	0.144067	0.955826
O9	O	1.165092	-0.303314	0.388451
O10	O	1.665092	0.196686	0.888451
O11	O	1.345358	-0.264661	0.438006
O12	O	1.845358	0.235339	0.938006
O13	O	1.214576	-0.341975	0.208207
O14	O	1.714576	0.158025	0.708207
O15	O	1.115680	-0.162600	0.338979
O16	O	1.615680	0.337400	0.838979
O17	O	1.345294	-0.341982	0.338936
O18	O	1.845294	0.158018	0.838936
O19	O	1.214723	-0.162605	0.438030
O20	O	1.714723	0.337395	0.938030
O21	O	1.115595	-0.264649	0.208226
O22	O	1.615595	0.235351	0.708226
O23	O	0.984885	-0.264644	0.338926
O24	O	1.484885	0.235356	0.838926
O25	O	1.115547	-0.341974	0.568665
O26	O	1.615547	0.158026	1.068665
O27	O	0.984828	-0.341967	0.437937
O28	O	1.484828	0.158033	0.937937
O29	O	1.214648	-0.264657	0.568706
O30	O	1.714648	0.235343	1.068706
O31	O	1.214500	-0.444027	0.338883
O32	O	1.714500	0.055973	0.838883
O33	O	1.115463	-0.444023	0.437912
O34	O	1.615463	0.055977	0.937912
C35	C	0.955601	-0.303305	0.388428
C36	C	1.455601	0.196695	0.888428
C37	C	0.865980	-0.303316	0.388438
C38	C	1.365980	0.196684	0.888438
C39	C	0.537804	-0.303320	0.388472
C40	C	1.037804	0.196680	0.888472
C41	C	0.629112	-0.303317	0.388460
C42	C	1.129112	0.196683	0.888460
C43	C	0.701889	-0.303318	0.388454
C44	C	1.201889	0.196682	0.888454
C45	C	0.793203	-0.303315	0.388444
C46	C	1.293203	0.196685	0.888444
C47	C	1.164986	-0.466865	0.388406
C48	C	1.664986	0.033135	0.888406
C49	C	1.165014	-0.536833	0.388414
C50	C	1.665014	-0.036833	0.888414
C51	C	1.216629	-0.569681	0.336902
C52	C	1.716629	-0.069681	0.836902
C53	C	1.216667	-0.635424	0.336920
C54	C	1.716667	-0.135424	0.836920
C55	C	1.165076	-0.668316	0.388442
C56	C	1.665076	-0.168316	0.888442
C57	C	1.113458	-0.635460	0.439964
C58	C	1.613458	-0.135460	0.939964
C59	C	1.113427	-0.569719	0.439950
C60	C	1.613427	-0.069719	0.939950
N61	N	1.094539	-0.771584	0.394581
N62	N	1.594539	-0.271584	0.894581
N63	N	1.094571	-0.834036	0.394590
N64	N	1.594571	-0.334036	0.894590
C65	C	1.165166	-0.866391	0.388488
C66	C	1.665166	-0.366391	0.888488
N67	N	1.235730	-0.833935	0.382362
N68	N	1.735730	-0.333935	0.882362
N69	N	1.235698	-0.771478	0.382349
N70	N	1.735698	-0.271478	0.882349
C71	C	1.165103	-0.739601	0.388463
C72	C	1.665103	-0.239601	0.888463
C73	C	1.216826	-0.970524	0.336993
C74	C	1.716826	-0.470524	0.836993
C75	C	1.216865	-1.036268	0.337017
C76	C	1.716865	-0.536268	0.837017
C77	C	1.113649	-1.036303	0.440056
C78	C	1.613649	-0.536303	0.940056
C79	C	1.113617	-0.970561	0.440037
C80	C	1.613617	-0.470561	0.940037
C81	C	1.165204	-0.937675	0.388501
C82	C	1.665204	-0.437675	0.888501
C83	C	1.375400	-0.303323	0.388474
C84	C	1.875400	0.196677	0.888474
C85	C	1.465022	-0.303327	0.388484
C86	C	1.965022	0.196673	0.888484
C87	C	1.165099	-0.303316	0.598760
C88	C	1.665099	0.196684	1.098760
C89	C	1.165102	-0.303316	0.688381
C90	C	1.665102	0.196684	1.188381
C91	C	1.165220	-0.139123	0.388513
C92	C	1.665220	0.360877	0.888513
C93	C	1.165274	-0.069155	0.388540
C94	C	1.665274	0.430845	0.888540
C95	C	1.165068	-0.303322	1.016557
C96	C	1.665068	0.196678	1.516557
C97	C	1.165075	-0.303322	0.925248
C98	C	1.665075	0.196678	1.425248
C99	C	1.165085	-0.303320	0.852472
C100	C	1.665085	0.196680	1.352472
C101	C	1.165092	-0.303319	0.761157
C102	C	1.665092	0.196681	1.261157
C103	C	1.165077	-0.303325	1.178960
C104	C	1.665077	0.196675	1.678960
C105	C	1.165069	-0.303320	1.089339
C106	C	1.665069	0.196680	1.589339
H107	H	1.258636	-0.542908	0.294941
H108	H	1.758636	-0.042908	0.794941
H109	H	1.258834	-0.943747	0.295032
H110	H	1.758834	-0.443747	0.795032
Br111	Br	1.286928	-1.080848	0.267110
Br112	Br	1.786928	-0.580848	0.767110
H113	H	1.071396	-0.542974	0.481898
H114	H	1.571396	-0.042974	0.981898
Br115	Br	1.043639	-1.080935	0.509988
Br116	Br	1.543639	-0.580935	1.009988
H117	H	1.071584	-0.943814	0.481979
H118	H	1.571584	-0.443814	0.981979
Br119	Br	1.043447	-0.680098	0.509893
Br120	Br	1.543447	-0.180098	1.009893
H121	H	1.258700	-0.662173	0.294974
H122	H	1.758700	-0.162173	0.794974
