data_functionalizedCrystal
_audit_creation_method	'MofGen! by Chris Wilmer'
_symmetry_space_group_name_H-M	'P1'
_symmetry_Int_Tables_number	1
_symmetry_cell_setting	triclinic
loop_
_symmetry_equiv_pos_as_xyz
  x,y,z
_cell_length_a	14.971494
_cell_length_b	14.971486
_cell_length_c	14.048226
_cell_angle_alpha	90.012352
_cell_angle_beta	90.000040
_cell_angle_gamma	96.384290
loop_
_atom_site_label
_atom_site_type_symbol
_atom_site_fract_x
_atom_site_fract_y
_atom_site_fract_z
O1	O	1.186934	-0.116606	-0.079149
O2	O	0.926535	-0.130557	-0.079153
O3	O	1.063714	0.006618	-0.079144
O4	O	1.049755	-0.253782	-0.079158
O5	O	1.063715	0.006643	0.079177
O6	O	0.926536	-0.130533	0.079168
O7	O	1.186935	-0.116581	0.079173
Zn8	Zn	1.056735	-0.123553	0.104307
Zn9	Zn	1.056734	-0.123586	-0.104288
O10	O	1.049756	-0.253757	0.079163
C11	C	0.893211	-0.129920	0.000007
C12	C	0.793914	-0.128046	0.000005
N13	N	1.056734	-0.123601	-0.246649
C14	C	1.063090	0.039955	0.000016
C15	C	1.061219	0.139252	0.000015
C16	C	1.220259	-0.117219	0.000010
C17	C	1.319556	-0.119092	0.000006
C18	C	1.747270	-0.127150	0.086307
C19	C	1.653971	-0.125384	0.086308
C20	C	1.607317	-0.124520	0.000006
C21	C	1.653968	-0.125413	-0.086302
C22	C	1.747266	-0.127174	-0.086302
C23	C	1.459505	-0.121747	-0.086296
C24	C	1.366200	-0.119988	-0.086296
C25	C	1.366210	-0.119957	0.086315
C26	C	1.459508	-0.121717	0.086315
C27	C	1.506152	-0.122612	0.000006
C28	C	1.050380	-0.287094	0.000001
C29	C	1.052250	-0.386391	-0.000004
C30	C	1.141808	0.196476	0.000018
C31	C	1.140045	0.289775	0.000008
C32	C	1.057692	0.325850	0.000003
C33	C	0.977097	0.268619	-0.000002
C34	C	0.978861	0.175322	0.000001
C35	C	0.973426	0.463082	-0.000006
C36	C	0.971662	0.556386	-0.000007
C37	C	1.134610	0.577535	0.000002
C38	C	1.136374	0.484238	0.000004
C39	C	1.055779	0.427014	0.000001
C40	C	1.117598	-0.062918	-0.703484
C41	C	1.117594	-0.062928	-0.603826
C42	C	1.056737	-0.123555	-0.554019
C43	C	0.995875	-0.184169	-0.603874
C44	C	0.995876	-0.184155	-0.703529
C45	C	0.995879	-0.184197	-0.396159
C46	C	0.995879	-0.184213	-0.296497
C47	C	1.117597	-0.062971	-0.296456
C48	C	1.117597	-0.062956	-0.396112
C49	C	1.056736	-0.123572	-0.445960
N50	N	1.056743	-0.123530	0.246668
H51	H	1.785248	-0.127861	0.156584
H52	H	1.785242	-0.127905	-0.156578
C53	C	1.450152	-0.121505	0.256935
C54	C	1.510793	-0.122667	0.181178
H55	H	1.481816	-0.122084	0.315499
H56	H	1.407001	-0.172936	0.253349
H57	H	1.420525	-0.068696	0.253341
H58	H	1.540415	-0.175479	0.184768
H59	H	1.553960	-0.071231	0.184766
C60	C	0.874161	-0.203124	-0.815601
C61	C	0.928982	-0.250783	-0.758325
H62	H	0.832858	-0.244258	-0.849423
H63	H	0.910404	-0.167023	-0.859521
H64	H	0.842030	-0.165778	-0.776697
H65	H	0.961118	-0.288124	-0.797230
H66	H	0.892734	-0.286898	-0.714400
H67	H	1.616000	-0.124639	0.156584
H68	H	1.167146	-0.013573	-0.563240
H69	H	1.167156	-0.013594	-0.436665
H70	H	1.167151	-0.013615	-0.255864
C71	C	0.976352	-0.305925	-0.184479
C72	C	0.928976	-0.250852	-0.241753
H73	H	0.935045	-0.347068	-0.150690
H74	H	1.012590	-0.269834	-0.140530
H75	H	1.013540	-0.338234	-0.223380
H76	H	0.891793	-0.218537	-0.202851
H77	H	0.892723	-0.286947	-0.285707
C78	C	1.574389	-0.046916	-0.186450
C79	C	1.510774	-0.122733	-0.181170
H80	H	1.606034	-0.047527	-0.245024
H81	H	1.615523	-0.047686	-0.135061
H82	H	1.544748	0.005886	-0.182863
H83	H	1.540416	-0.175535	-0.184750
H84	H	1.469634	-0.121971	-0.232574
H85	H	0.946316	-0.233554	-0.436742
H86	H	1.200234	0.624132	0.000001
C87	C	0.875135	0.649046	0.081369
C88	C	0.881136	0.596036	-0.000018
H89	H	0.819244	0.673517	0.081362
H90	H	0.922873	0.696476	0.081370
H91	H	0.879205	0.613090	0.136573
H92	H	0.877073	0.631994	-0.055222
H93	H	0.833385	0.548599	-0.000027
H94	H	1.205669	0.336363	0.000012
H95	H	1.328216	-0.119286	-0.156571
H96	H	1.203433	0.454869	0.000015
C97	C	1.223204	-0.117210	0.162969
C98	C	1.314945	-0.118952	0.181189
H99	H	1.191555	-0.116583	0.221538
H100	H	1.201145	-0.169047	0.127522
H101	H	1.214694	-0.064807	0.127500
H102	H	1.323455	-0.171358	0.216651
H103	H	1.337011	-0.067110	0.216650
C104	C	0.812177	0.451543	-0.000006
C105	C	0.884834	0.400179	-0.000008
H106	H	0.757487	0.412707	0.000001
H107	H	0.814876	0.488357	-0.055214
H108	H	0.814886	0.488388	0.055206
H109	H	0.882129	0.363339	-0.055224
H110	H	0.882134	0.363349	0.055206
H111	H	0.910044	0.297998	-0.000012
H112	H	0.913237	0.128731	-0.000001
H113	H	1.615975	-0.124704	-0.156571
C114	C	0.874167	-0.203168	-0.491798
C115	C	0.928981	-0.250810	-0.549122
H116	H	0.832874	-0.244313	-0.457994
H117	H	0.842032	-0.165818	-0.530659
H118	H	0.910422	-0.167074	-0.447853
H119	H	0.892725	-0.286899	-0.593073
H120	H	0.961118	-0.288176	-0.510258
H121	H	1.208869	0.167111	0.000027
H122	H	1.167158	-0.013553	-0.744031
