data_functionalizedCrystal
_audit_creation_method	'MofGen! by Chris Wilmer'
_symmetry_space_group_name_H-M	'P1'
_symmetry_Int_Tables_number	1
_symmetry_cell_setting	triclinic
loop_
_symmetry_equiv_pos_as_xyz
  x,y,z
_cell_length_a	19.288840
_cell_length_b	22.610064
_cell_length_c	23.532357
_cell_angle_alpha	89.998517
_cell_angle_beta	97.022847
_cell_angle_gamma	90.015423
loop_
_atom_site_label
_atom_site_type_symbol
_atom_site_fract_x
_atom_site_fract_y
_atom_site_fract_z
O1	O	0.921130	0.049290	-0.070970
O2	O	1.421130	0.549290	0.429030
O3	O	0.718835	0.049271	-0.080569
O4	O	1.218835	0.549271	0.419431
O5	O	0.826101	0.049269	0.007152
O6	O	1.326101	0.549269	0.507152
O7	O	0.813864	0.049292	-0.158691
O8	O	1.313864	0.549292	0.341309
O9	O	0.826082	-0.049100	0.007139
O10	O	1.326082	0.450900	0.507139
O11	O	0.718816	-0.049098	-0.080582
O12	O	1.218816	0.450902	0.419418
O13	O	0.921111	-0.049079	-0.070983
O14	O	1.421111	0.450921	0.429017
Zn15	Zn	0.819961	-0.064707	-0.075785
Zn16	Zn	1.319961	0.435293	0.424215
Zn17	Zn	0.819985	0.064899	-0.075768
Zn18	Zn	1.319985	0.564899	0.424232
O19	O	0.813845	-0.049077	-0.158704
O20	O	1.313845	0.450923	0.341296
C21	C	0.692950	0.000084	-0.080269
C22	C	1.192950	0.500084	0.419731
C23	C	0.615848	0.000076	-0.079349
C24	C	1.115848	0.500076	0.420651
N25	N	0.819949	-0.153159	-0.075796
N26	N	1.319949	0.346841	0.424204
C27	C	0.579657	0.053698	-0.078900
C28	C	1.079657	0.553698	0.421100
C29	C	0.507213	0.053705	-0.078030
C30	C	1.007213	0.553705	0.421970
C31	C	0.470965	0.000087	-0.077596
C32	C	0.970965	0.500087	0.422404
C33	C	0.507165	-0.053543	-0.078049
C34	C	1.007165	0.446457	0.421951
C35	C	0.579607	-0.053548	-0.078925
C36	C	1.079607	0.446452	0.421075
C37	C	0.361744	-0.040989	-0.042854
C38	C	0.861744	0.459011	0.457146
C39	C	0.289304	-0.040981	-0.041974
C40	C	0.789304	0.459019	0.458026
C41	C	0.247530	0.000102	-0.074895
C42	C	0.747530	0.500102	0.425105
C43	C	0.278206	0.041187	-0.108689
C44	C	0.778206	0.541187	0.391311
C45	C	0.350648	0.041181	-0.109566
C46	C	0.850648	0.541181	0.390434
C47	C	0.392414	0.000087	-0.076646
C48	C	0.892414	0.500087	0.423354
C49	C	0.132786	0.053736	-0.073503
C50	C	0.632786	0.553736	0.426497
C51	C	0.060340	0.053741	-0.072636
C52	C	0.560340	0.553741	0.427364
C53	C	0.060295	-0.053509	-0.072649
C54	C	0.560295	0.446491	0.427351
C55	C	0.132739	-0.053512	-0.073522
C56	C	0.632739	0.446488	0.426478
C57	C	0.168980	0.000112	-0.073946
C58	C	0.668980	0.500112	0.426054
C59	C	0.867485	-0.561801	-0.036931
C60	C	1.367485	-0.061801	0.463069
C61	C	0.867488	-0.623721	-0.036927
C62	C	1.367488	-0.123721	0.463073
O63	O	0.907876	-0.655741	-0.003891
O64	O	1.407876	-0.155741	0.496109
N65	N	0.819985	-0.654696	-0.075756
N66	N	1.319985	-0.154696	0.424244
C67	C	0.772470	-0.623748	-0.114588
C68	C	1.272470	-0.123748	0.385412
O69	O	0.732065	-0.655781	-0.147615
O70	O	1.232065	-0.155781	0.352385
C71	C	0.772464	-0.561830	-0.114589
C72	C	1.272464	-0.061830	0.385411
C73	C	0.819975	-0.530858	-0.075761
C74	C	1.319975	-0.030858	0.424239
C75	C	0.914992	-0.530829	0.001894
C76	C	1.414992	-0.030829	0.501894
C77	C	0.914989	-0.468914	0.001889
C78	C	1.414989	0.031086	0.501889
C79	C	0.867479	-0.437970	-0.036941
C80	C	1.367479	0.062030	0.463059
C81	C	0.819972	-0.468942	-0.075766
C82	C	1.319972	0.031058	0.424234
C83	C	0.724946	-0.530883	-0.153418
C84	C	1.224946	-0.030883	0.346582
C85	C	0.724944	-0.468960	-0.153415
C86	C	1.224944	0.031040	0.346585
C87	C	0.772455	-0.437988	-0.114587
C88	C	1.272455	0.062012	0.385413
C89	C	0.772460	-0.376083	-0.114601
C90	C	1.272460	0.123917	0.385399
N91	N	0.819963	-0.345108	-0.075772
N92	N	1.319963	0.154892	0.424228
C93	C	0.867473	-0.376051	-0.036942
C94	C	1.367473	0.123949	0.463058
C95	C	0.772486	-0.753782	-0.114582
C96	C	1.272486	-0.253782	0.385418
C97	C	0.772495	-0.815700	-0.114585
C98	C	1.272495	-0.315700	0.385415
C99	C	0.867513	-0.815668	-0.036923
C100	C	1.367513	-0.315668	0.463077
C101	C	0.867507	-0.753750	-0.036923
C102	C	1.367507	-0.253750	0.463077
C103	C	0.819990	-0.722807	-0.075753
C104	C	1.319990	-0.222807	0.424247
C105	C	0.867463	-0.246024	-0.036956
C106	C	1.367463	0.253976	0.463044
C107	C	0.867458	-0.184103	-0.036966
C108	C	1.367458	0.315897	0.463034
C109	C	0.772439	-0.184140	-0.114626
C110	C	1.272439	0.315860	0.385374
C111	C	0.772446	-0.246055	-0.114618
C112	C	1.272446	0.253945	0.385382
C113	C	0.819961	-0.276996	-0.075778
C114	C	1.319961	0.223004	0.424222
O115	O	0.732091	-0.344024	-0.147619
O116	O	1.232091	0.155976	0.352381
O117	O	0.907865	-0.344011	-0.003916
O118	O	1.407865	0.155989	0.496084
C119	C	0.946996	0.000110	-0.071283
C120	C	1.446996	0.500110	0.428717
C121	C	1.024098	0.000122	-0.072203
C122	C	1.524098	0.500122	0.427797
C123	C	0.825785	0.000083	0.028362
C124	C	1.325785	0.500083	0.528362
C125	C	0.824865	0.000077	0.091583
C126	C	1.324865	0.500077	0.591583
N127	N	0.820003	0.153351	-0.075752
N128	N	1.320003	0.653351	0.424248
C129	C	0.814161	0.000111	-0.179915
C130	C	1.314161	0.500111	0.320085
C131	C	0.815081	0.000120	-0.243135
C132	C	1.315081	0.500120	0.256865
C133	C	0.819098	0.053729	0.483613
C134	C	1.319098	0.553729	0.983613
C135	C	0.818223	0.053733	0.543014
C136	C	1.318223	0.553733	1.043014
O137	O	0.817756	0.099335	0.573737
O138	O	1.317756	0.599335	1.073737
N139	N	0.817779	0.000112	0.572719
N140	N	1.317779	0.500112	1.072719
C141	C	0.818203	-0.053515	0.543019
C142	C	1.318203	0.446485	1.043019
O143	O	0.817744	-0.099123	0.573740
O144	O	1.317744	0.400877	1.073740
C145	C	0.819073	-0.053517	0.483618
C146	C	1.319073	0.446483	0.983618
C147	C	0.819524	0.000106	0.453917
C148	C	1.319524	0.500106	0.953917
C149	C	0.819549	0.107349	0.453911
C150	C	1.319549	0.607349	0.953911
C151	C	0.820425	0.107345	0.394514
C152	C	1.320425	0.607345	0.894514
C153	C	0.820850	0.053722	0.364819
C154	C	1.320850	0.553722	0.864819
C155	C	0.820400	0.000103	0.394520
C156	C	1.320400	0.500103	0.894520
C157	C	0.819491	-0.107144	0.453919
C158	C	1.319491	0.392856	0.953919
C159	C	0.820361	-0.107142	0.394514
C160	C	1.320361	0.392858	0.894514
C161	C	0.820812	-0.053518	0.364813
C162	C	1.320812	0.446482	0.864813
C163	C	0.821702	-0.053524	0.305428
C164	C	1.321702	0.446476	0.805428
N165	N	0.822146	0.000097	0.275722
N166	N	1.322146	0.500097	0.775722
C167	C	0.821720	0.053720	0.305418
C168	C	1.321720	0.553720	0.805418
C169	C	0.816375	-0.053505	0.667764
C170	C	1.316375	0.446495	1.167764
C171	C	0.815510	-0.053503	0.727164
C172	C	1.315510	0.446497	1.227164
C173	C	0.815530	0.053745	0.727155
C174	C	1.315530	0.553745	1.227155
C175	C	0.816399	0.053742	0.667754
C176	C	1.316399	0.553742	1.167754
C177	C	0.816819	0.000115	0.638059
C178	C	1.316819	0.500115	1.138059
C179	C	0.823560	0.053708	0.180680
C180	C	1.323560	0.553708	0.680680
C181	C	0.824439	0.053700	0.121278
C182	C	1.324439	0.553700	0.621278
C183	C	0.824416	-0.053547	0.121292
C184	C	1.324416	0.446453	0.621292
C185	C	0.823541	-0.053539	0.180690
C186	C	1.323541	0.446461	0.680690
C187	C	0.823111	0.000093	0.210382
C188	C	1.323111	0.500093	0.710382
O189	O	0.822166	-0.099103	0.274666
O190	O	1.322166	0.400897	0.774666
O191	O	0.822170	0.099320	0.274689
O192	O	1.322170	0.599320	0.774689
H193	H	0.609160	0.097363	-0.079246
H194	H	1.109160	0.597363	0.420754
H195	H	0.686248	-0.443769	-0.185035
H196	H	1.186248	0.056231	0.314965
F197	F	0.815043	-0.110577	0.758769
F198	F	1.315043	0.389423	1.258769
F199	F	0.965561	-0.563754	0.043227
F200	F	1.465561	-0.063754	0.543227
F201	F	0.816828	-0.110586	0.636166
F202	F	1.316828	0.389414	1.136166
F203	F	0.468586	-0.110607	-0.077590
F204	F	0.968586	0.389393	0.422410
F205	F	0.819008	-0.164219	0.485516
F206	F	1.319008	0.335781	0.985516
H207	H	0.906150	-0.158887	-0.005347
H208	H	1.406150	0.341113	0.494653
F209	F	0.819095	0.164427	0.485507
F210	F	1.319095	0.664427	0.985507
F211	F	0.918034	-0.278944	0.004382
F212	F	1.418034	0.221056	0.504382
F213	F	0.820900	0.164420	0.362911
F214	F	1.320900	0.664420	0.862911
F215	F	0.815072	0.110816	0.758769
F216	F	1.315072	0.610816	1.258769
H217	H	0.733794	-0.728591	-0.146207
H218	H	1.233794	-0.228591	0.353793
H219	H	0.820692	-0.150812	0.370338
H220	H	1.320692	0.349188	0.870338
H221	H	0.733765	-0.271273	-0.146241
H222	H	1.233765	0.228727	0.353759
F223	F	0.468687	0.110780	-0.077552
F224	F	0.968687	0.610780	0.422448
H225	H	0.162207	-0.097178	-0.073884
H226	H	0.662207	0.402822	0.426116
H227	H	0.953674	-0.443700	0.033508
H228	H	1.453674	0.056300	0.533508
F229	F	0.824922	0.110776	0.089672
F230	F	1.324922	0.610776	0.589672
F231	F	0.618126	-0.110623	-0.079403
F232	F	1.118126	0.389377	0.420597
H233	H	0.162295	0.097400	-0.073854
H234	H	0.662295	0.597400	0.426146
F235	F	0.918073	-0.720793	0.004403
F236	F	1.418073	-0.220793	0.504403
H237	H	0.823180	-0.097204	0.204874
H238	H	1.323180	0.402796	0.704874
H239	H	0.906197	-0.840874	-0.005304
H240	H	1.406197	-0.340874	0.494696
H241	H	0.733759	-0.158936	-0.146242
H242	H	1.233759	0.341064	0.353758
F243	F	0.721936	-0.848656	-0.155917
F244	F	1.221936	-0.348656	0.344083
F245	F	0.674378	-0.563834	-0.194743
F246	F	1.174378	-0.063834	0.305257
H247	H	0.264335	-0.074432	-0.014454
H248	H	0.764335	0.425568	0.485546
H249	H	0.823207	0.097381	0.204848
H250	H	1.323207	0.597381	0.704848
F251	F	0.816878	0.110815	0.636149
F252	F	1.316878	0.610815	1.136149
H253	H	0.375621	0.074633	-0.137083
H254	H	0.875621	0.574633	0.362917
F255	F	0.824871	-0.110614	0.089678
F256	F	1.324871	0.389386	0.589678
H257	H	0.244194	0.074639	-0.135499
H258	H	0.744194	0.574639	0.364501
H259	H	0.030782	-0.097166	-0.072300
H260	H	0.530782	0.402834	0.427700
F261	F	0.406197	-0.084719	-0.007814
F262	F	0.906197	0.415281	0.492186
F263	F	0.021822	0.110816	-0.072162
F264	F	0.521822	0.610816	0.427838
