data_functionalizedCrystal
_audit_creation_method	'MofGen! by Chris Wilmer'
_symmetry_space_group_name_H-M	'P1'
_symmetry_Int_Tables_number	1
_symmetry_cell_setting	triclinic
loop_
_symmetry_equiv_pos_as_xyz
  x,y,z
_cell_length_a	17.077402
_cell_length_b	17.077404
_cell_length_c	17.077404
_cell_angle_alpha	90.005946
_cell_angle_beta	90.012872
_cell_angle_gamma	90.025453
loop_
_atom_site_label
_atom_site_type_symbol
_atom_site_fract_x
_atom_site_fract_y
_atom_site_fract_z
Zn1	Zn	-0.312629	1.199937	0.443839
Zn2	Zn	0.020705	1.533270	0.777173
Zn3	Zn	0.354038	1.866603	1.110506
Zn4	Zn	-0.443867	1.199870	0.312572
Zn5	Zn	-0.110533	1.533203	0.645906
Zn6	Zn	0.222800	1.866536	0.979239
Zn7	Zn	-0.312619	1.068700	0.312587
Zn8	Zn	0.020714	1.402033	0.645921
Zn9	Zn	0.354047	1.735366	0.979254
Zn10	Zn	-0.443857	1.068631	0.443796
Zn11	Zn	-0.110524	1.401965	0.777129
Zn12	Zn	0.222810	1.735298	1.110462
O13	O	-0.378243	1.134284	0.378199
O14	O	-0.044910	1.467618	0.711532
O15	O	0.288424	1.800951	1.044865
O16	O	-0.330046	1.309775	0.426438
O17	O	0.003288	1.643108	0.759772
O18	O	0.336621	1.976441	1.093105
O19	O	-0.426456	1.182470	0.202727
O20	O	-0.093123	1.515803	0.536061
O21	O	0.240210	1.849137	0.869394
O22	O	-0.202774	1.086165	0.330023
O23	O	0.130560	1.419499	0.663356
O24	O	0.463893	1.752832	0.996690
O25	O	-0.426466	1.309725	0.329997
O26	O	-0.093132	1.643059	0.663330
O27	O	0.240201	1.976392	0.996664
O28	O	-0.202781	1.182585	0.426453
O29	O	0.130553	1.515918	0.759787
O30	O	0.463886	1.849251	1.093120
O31	O	-0.330029	1.086100	0.202738
O32	O	0.003304	1.419433	0.536072
O33	O	0.336637	1.752767	0.869405
O34	O	-0.330020	0.958844	0.329981
O35	O	0.003313	1.292177	0.663314
O36	O	0.336646	1.625510	0.996647
O37	O	-0.426449	1.086049	0.553648
O38	O	-0.093116	1.419382	0.886982
O39	O	0.240217	1.752715	1.220315
O40	O	-0.426440	0.958793	0.426379
O41	O	-0.093107	1.292127	0.759712
O42	O	0.240227	1.625460	1.093045
O43	O	-0.330036	1.182518	0.553681
O44	O	0.003297	1.515852	0.887014
O45	O	0.336630	1.849185	1.220347
O46	O	-0.553712	1.182404	0.329955
O47	O	-0.220379	1.515737	0.663288
O48	O	0.112954	1.849070	0.996621
O49	O	-0.553705	1.085984	0.426364
O50	O	-0.220372	1.419317	0.759697
O51	O	0.112961	1.752650	1.093031
C52	C	-0.378229	0.930336	0.378177
C53	C	-0.044895	1.263670	0.711510
C54	C	0.288438	1.597003	1.044844
C55	C	-0.378241	0.843087	0.378186
C56	C	-0.044908	1.176420	0.711520
C57	C	0.288425	1.509753	1.044853
C58	C	-0.582191	1.134200	0.378170
C59	C	-0.248857	1.467534	0.711503
C60	C	0.084476	1.800867	1.044837
C61	C	-0.669441	1.134236	0.378184
C62	C	-0.336107	1.467569	0.711517
C63	C	-0.002774	1.800903	1.044851
C64	C	-0.428523	0.802091	0.428300
C65	C	-0.095190	1.135424	0.761634
C66	C	0.238144	1.468758	1.094967
C67	C	-0.428525	0.720110	0.428313
C68	C	-0.095191	1.053444	0.761646
C69	C	0.238142	1.386777	1.094980
C70	C	-0.378248	0.679127	0.378207
C71	C	-0.044915	1.012461	0.711540
C72	C	0.288418	1.345794	1.044874
C73	C	-0.327961	0.720129	0.328091
C74	C	0.005372	1.053462	0.661424
C75	C	0.338705	1.386795	0.994757
C76	C	-0.327956	0.802108	0.328083
C77	C	0.005377	1.135441	0.661416
C78	C	0.338711	1.468774	0.994749
C79	C	-0.327977	0.549259	0.328110
C80	C	0.005357	0.882592	0.661443
C81	C	0.338690	1.215925	0.994776
C82	C	-0.327983	0.467274	0.328116
C83	C	0.005351	0.800607	0.661450
C84	C	0.338684	1.133941	0.994783
C85	C	-0.428545	0.467261	0.428340
C86	C	-0.095212	0.800595	0.761673
C87	C	0.238121	1.133928	1.095006
C88	C	-0.428540	0.549240	0.428332
C89	C	-0.095207	0.882574	0.761665
C90	C	0.238127	1.215907	1.094998
C91	C	-0.378254	0.590236	0.378214
C92	C	-0.044921	0.923570	0.711548
C93	C	0.288413	1.256903	1.044881
C94	C	-1.045195	1.184576	0.428502
C95	C	-0.711862	1.517909	0.761835
C96	C	-0.378528	1.851243	1.095168
C97	C	-0.963214	1.184541	0.428483
C98	C	-0.629881	1.517874	0.761816
C99	C	-0.296548	1.851207	1.095150
C100	C	-0.922289	1.134360	0.378231
C101	C	-0.588956	1.467693	0.711564
C102	C	-0.255623	1.801027	1.044897
C103	C	-0.963349	1.084217	0.327988
C104	C	-0.630016	1.417551	0.661321
C105	C	-0.296682	1.750884	0.994654
C106	C	-1.045328	1.084257	0.328003
C107	C	-0.711995	1.417590	0.661336
C108	C	-0.378661	1.750924	0.994670
C109	C	-0.792479	1.084136	0.327961
C110	C	-0.459146	1.417470	0.661294
C111	C	-0.125812	1.750803	0.994628
C112	C	-0.710494	1.084095	0.327947
C113	C	-0.377161	1.417429	0.661280
C114	C	-0.043828	1.750762	0.994613
C115	C	-0.710366	1.184420	0.428441
C116	C	-0.377032	1.517753	0.761775
C117	C	-0.043699	1.851087	1.095108
C118	C	-0.792344	1.184460	0.428456
C119	C	-0.459011	1.517793	0.761790
C120	C	-0.125678	1.851127	1.095123
C121	C	-0.833398	1.134316	0.378214
C122	C	-0.500065	1.467649	0.711548
C123	C	-0.166732	1.800982	1.044881
C124	C	-0.173499	1.134390	0.378245
C125	C	0.159835	1.467723	0.711578
C126	C	0.493168	1.801057	1.044911
C127	C	-0.086249	1.134435	0.378264
C128	C	0.247085	1.467769	0.711598
C129	C	0.580418	1.801102	1.044931
C130	C	-0.378243	1.134283	0.582943
C131	C	-0.044909	1.467617	0.916276
C132	C	0.288424	1.800950	1.249610
C133	C	-0.378243	1.134283	0.670193
C134	C	-0.044909	1.467616	1.003526
C135	C	0.288424	1.800950	1.336859
C136	C	-0.378258	1.339029	0.378221
C137	C	-0.044924	1.672362	0.711554
C138	C	0.288409	2.005695	1.044888
C139	C	-0.378264	1.426278	0.378230
C140	C	-0.044931	1.759612	0.711564
C141	C	0.288403	2.092945	1.044897
C142	C	-0.328040	1.084110	0.711188
C143	C	0.005294	1.417444	1.044521
C144	C	0.338627	1.750777	1.377855
C145	C	-0.328046	1.084107	0.793169
C146	C	0.005287	1.417440	1.126502
C147	C	0.338621	1.750774	1.459835
C148	C	-0.378252	1.134281	0.834152
C149	C	-0.044919	1.467614	1.167485
C150	C	0.288414	1.800947	1.500819
C151	C	-0.428461	1.184456	0.793151
C152	C	-0.095128	1.517789	1.126484
C153	C	0.238205	1.851122	1.459818
C154	C	-0.428458	1.184454	0.711172
C155	C	-0.095125	1.517788	1.044505
C156	C	0.238209	1.851121	1.377839
C157	C	-0.428463	1.184456	0.964021
C158	C	-0.095130	1.517789	1.297354
C159	C	0.238204	1.851123	1.630688
C160	C	-0.428465	1.184458	1.046006
C161	C	-0.095132	1.517792	1.379339
C162	C	0.238201	1.851125	1.712672
C163	C	-0.328051	1.084108	1.046018
C164	C	0.005283	1.417442	1.379351
C165	C	0.338616	1.750775	1.712684
C166	C	-0.328048	1.084107	0.964039
C167	C	0.005286	1.417441	1.297372
C168	C	0.338619	1.750774	1.630705
C169	C	-0.378256	1.134283	0.923043
C170	C	-0.044922	1.467617	1.256376
C171	C	0.288411	1.800950	1.589710
C172	C	-0.378261	1.134281	1.174251
C173	C	-0.044927	1.467614	1.507584
C174	C	0.288406	1.800948	1.840917
C175	C	-0.378262	1.134286	1.087001
C176	C	-0.044929	1.467619	1.420334
C177	C	0.288405	1.800952	1.753668
H178	H	-0.469467	0.835454	0.469100
H179	H	-0.136133	1.168787	0.802433
H180	H	0.197200	1.502120	1.135767
H181	H	-0.929789	1.225370	0.469389
H182	H	-0.596455	1.558703	0.802723
H183	H	-0.263122	1.892036	1.136056
Br184	Br	-1.100728	1.252677	0.496710
Br185	Br	-0.767395	1.586011	0.830043
Br186	Br	-0.434061	1.919344	1.163377
Br187	Br	-0.907809	1.016119	0.259782
Br188	Br	-0.574475	1.349452	0.593115
Br189	Br	-0.241142	1.682786	0.926448
H190	H	-0.469333	1.225316	0.677795
H191	H	-0.136000	1.558649	1.011128
H192	H	0.197334	1.891983	1.344461
Br193	Br	-0.259756	0.411654	0.260109
Br194	Br	0.073578	0.744987	0.593442
Br195	Br	0.406911	1.078321	0.926775
H196	H	-0.469341	1.225321	0.930645
H197	H	-0.136007	1.558655	1.263978
H198	H	0.197326	1.891988	1.597312
Br199	Br	-0.496765	0.664476	0.496330
Br200	Br	-0.163432	0.997809	0.829663
Br201	Br	0.169902	1.331143	1.162996
H202	H	-0.469488	0.433879	0.469150
H203	H	-0.136154	0.767212	0.802483
H204	H	0.197179	1.100545	1.135816
Br205	Br	-0.496781	0.604861	0.496326
Br206	Br	-0.163447	0.938194	0.829659
Br207	Br	0.169886	1.271527	1.162992
Br208	Br	-0.847886	1.252550	0.496669
Br209	Br	-0.514552	1.585883	0.830003
Br210	Br	-0.181219	1.919217	1.163336
Br211	Br	-0.654651	1.252477	0.496623
Br212	Br	-0.321318	1.585810	0.829957
Br213	Br	0.012016	1.919143	1.163290
Br214	Br	-0.848195	1.016088	0.259770
Br215	Br	-0.514861	1.349421	0.593103
Br216	Br	-0.181528	1.682754	0.926437
H217	H	-1.078753	1.043427	0.287094
H218	H	-0.745420	1.376761	0.620428
H219	H	-0.412086	1.710094	0.953761
Br220	Br	-0.259902	1.016021	0.908418
Br221	Br	0.073431	1.349354	1.241751
Br222	Br	0.406764	1.682688	1.575085
H223	H	-0.677177	1.043234	0.287025
H224	H	-0.343844	1.376567	0.620358
H225	H	-0.010511	1.709901	0.953692
H226	H	-0.287021	0.582635	0.287306
H227	H	0.046312	0.915968	0.620639
H228	H	0.379645	1.249302	0.953972
H229	H	-0.287151	1.043257	0.677825
H230	H	0.046182	1.376591	1.011158
H231	H	0.379516	1.709924	1.344492
Br232	Br	-0.259953	1.015970	0.848802
Br233	Br	0.073381	1.349303	1.182136
Br234	Br	0.406714	1.682637	1.515469
H235	H	-0.287022	0.686754	0.287297
H236	H	0.046311	1.020087	0.620630
H237	H	0.379645	1.353420	0.953964
H238	H	-0.287169	1.043254	1.079400
H239	H	0.046165	1.376587	1.412733
H240	H	0.379498	1.709921	1.746067
H241	H	-0.469344	1.225304	0.826526
H242	H	-0.136011	1.558637	1.159860
H243	H	0.197322	1.891971	1.493193
Br244	Br	-0.259710	0.857746	0.260072
Br245	Br	0.073623	1.191079	0.593406
Br246	Br	0.406957	1.524413	0.926739
Br247	Br	-0.496596	1.252559	1.101626
Br248	Br	-0.163262	1.585893	1.434960
Br249	Br	0.170071	1.919226	1.768293
