data_functionalizedCrystal
_audit_creation_method	'MofGen! by Chris Wilmer'
_symmetry_space_group_name_H-M	'P1'
_symmetry_Int_Tables_number	1
_symmetry_cell_setting	triclinic
loop_
_symmetry_equiv_pos_as_xyz
  x,y,z
_cell_length_a	16.625546
_cell_length_b	21.395362
_cell_length_c	21.395355
_cell_angle_alpha	89.956060
_cell_angle_beta	90.018476
_cell_angle_gamma	89.961654
loop_
_atom_site_label
_atom_site_type_symbol
_atom_site_fract_x
_atom_site_fract_y
_atom_site_fract_z
Zn1	Zn	-0.320753	-0.957895	0.354586
Zn2	Zn	0.179247	-0.457895	0.854586
Zn3	Zn	-0.455568	-0.957813	0.249808
Zn4	Zn	0.044432	-0.457813	0.749808
Zn5	Zn	-0.320791	-0.853110	0.249787
Zn6	Zn	0.179209	-0.353110	0.749787
Zn7	Zn	-0.455585	-0.853095	0.354513
Zn8	Zn	0.044415	-0.353095	0.854513
O9	O	-0.388174	-0.905478	0.302174
O10	O	0.111826	-0.405478	0.802174
O11	O	-0.338614	-1.045562	0.340726
O12	O	0.161386	-0.545562	0.840726
O13	O	-0.437699	-0.943896	0.162128
O14	O	0.062301	-0.443896	0.662128
O15	O	-0.207953	-0.867051	0.263710
O16	O	0.292047	-0.367051	0.763710
O17	O	-0.437662	-1.045502	0.263747
O18	O	0.062338	-0.545502	0.763747
O19	O	-0.207926	-0.944036	0.340706
O20	O	0.292074	-0.444036	0.840706
O21	O	-0.338678	-0.866971	0.162112
O22	O	0.161322	-0.366971	0.662112
O23	O	-0.338694	-0.765430	0.263640
O24	O	0.161306	-0.265430	0.763640
O25	O	-0.437690	-0.867024	0.442201
O26	O	0.062310	-0.367024	0.942201
O27	O	-0.437727	-0.765419	0.340582
O28	O	0.062273	-0.265419	0.840582
O29	O	-0.338630	-0.944021	0.442254
O30	O	0.161370	-0.444021	0.942254
O31	O	-0.568403	-0.943881	0.263676
O32	O	-0.068403	-0.443881	0.763676
O33	O	-0.568415	-0.866945	0.340602
O34	O	-0.068415	-0.366945	0.840602
C35	C	-0.388217	-0.742691	0.302101
C36	C	0.111783	-0.242691	0.802101
C37	C	-0.388255	-0.673049	0.302085
C38	C	0.111745	-0.173049	0.802085
C39	C	-0.597665	-0.905419	0.302147
C40	C	-0.097665	-0.405419	0.802147
C41	C	-0.687286	-0.905451	0.302157
C42	C	-0.187286	-0.405451	0.802157
C43	C	-0.388158	-0.905530	0.465597
C44	C	0.111842	-0.405530	0.965597
C45	C	-0.388151	-0.905552	0.535238
C46	C	0.111849	-0.405552	1.035238
C47	C	-1.015462	-0.905560	0.302222
C48	C	-0.515462	-0.405560	0.802222
C49	C	-0.924153	-0.905528	0.302206
C50	C	-0.424153	-0.405528	0.802206
C51	C	-0.851377	-0.905505	0.302189
C52	C	-0.351377	-0.405505	0.802189
C53	C	-0.760063	-0.905474	0.302174
C54	C	-0.260063	-0.405474	0.802174
C55	C	-0.177865	-0.905555	0.302214
C56	C	0.322135	-0.405555	0.802214
C57	C	-0.088244	-0.905588	0.302231
C58	C	0.411756	-0.405588	0.802231
C59	C	-0.388132	-1.068902	0.302247
C60	C	0.111868	-0.568902	0.802247
C61	C	-0.388114	-1.138543	0.302278
C62	C	0.111886	-0.638543	0.802278
C63	C	-0.439889	-0.640347	0.342088
C64	C	0.060111	-0.140347	0.842088
C65	C	-0.439870	-0.574911	0.342116
C66	C	0.060130	-0.074911	0.842116
C67	C	-0.388224	-0.542181	0.302129
C68	C	0.111776	-0.042181	0.802129
C69	C	-0.336579	-0.574892	0.262123
C70	C	0.163421	-0.074892	0.762123
C71	C	-0.336594	-0.640326	0.262101
C72	C	0.163406	-0.140326	0.762101
C73	C	-0.381728	-0.438456	0.245724
C74	C	0.118272	0.061544	0.745724
C75	C	-0.381718	-0.373023	0.245745
C76	C	0.118282	0.126977	0.745745
C77	C	-0.388171	-0.340360	0.302198
C78	C	0.111829	0.159640	0.802198
C79	C	-0.394651	-0.373139	0.358632
C80	C	0.105349	0.126861	0.858632
C81	C	-0.394666	-0.438573	0.358610
C82	C	0.105334	0.061427	0.858610
C83	C	-0.388201	-0.471229	0.302149
C84	C	0.111799	0.028771	0.802149
C85	C	-0.439787	-0.236705	0.342236
C86	C	0.060213	0.263295	0.842236
C87	C	-0.439762	-0.171268	0.342265
C88	C	0.060238	0.328732	0.842265
C89	C	-0.336475	-0.171250	0.262266
C90	C	0.163525	0.328750	0.762266
C91	C	-0.336496	-0.236686	0.262242
C92	C	0.163504	0.263314	0.762242
C93	C	-0.388157	-0.269409	0.302227
C94	C	0.111843	0.230591	0.802227
C95	C	-0.388132	-0.905463	0.139386
C96	C	0.111868	-0.405463	0.639386
C97	C	-0.387912	-0.905562	0.069745
C98	C	0.112088	-0.405562	0.569745
C99	C	-0.336568	-0.945643	0.567980
C100	C	0.163432	-0.445643	1.067980
C101	C	-0.336534	-0.945642	0.633416
C102	C	0.163466	-0.445642	1.133416
C103	C	-0.388096	-0.905557	0.666107
C104	C	0.111904	-0.405557	1.166107
C105	C	-0.439683	-0.865459	0.633357
C106	C	0.060317	-0.365459	1.133357
C107	C	-0.439710	-0.865457	0.567923
C108	C	0.060290	-0.365457	1.067923
C109	C	-0.460699	-0.900589	0.769771
C110	C	0.039301	-0.400589	1.269771
C111	C	-0.460672	-0.900596	0.835204
C112	C	0.039328	-0.400596	1.335204
C113	C	-0.388011	-0.905561	0.867927
C114	C	0.111989	-0.405561	1.367927
C115	C	-0.315373	-0.910532	0.835210
C116	C	0.184627	-0.410532	1.335210
C117	C	-0.315401	-0.910530	0.769776
C118	C	0.184599	-0.410530	1.269776
C119	C	-0.388072	-0.905555	0.737059
C120	C	0.111928	-0.405555	1.237059
C121	C	-0.336386	-0.945653	0.971622
C122	C	0.163614	-0.445653	1.471622
C123	C	-0.336350	-0.945648	1.037059
C124	C	0.163650	-0.445648	1.537059
C125	C	-0.439506	-0.865468	1.036999
C126	C	0.060494	-0.365468	1.536999
C127	C	-0.439535	-0.865470	0.971563
C128	C	0.060465	-0.365470	1.471563
C129	C	-0.387976	-0.905566	0.938879
C130	C	0.112024	-0.405566	1.438879
H131	H	-0.481954	-0.666986	0.374647
H132	H	0.018046	-0.166986	0.874647
H133	H	-0.294545	-0.666952	0.229525
H134	H	0.205455	-0.166952	0.729525
N135	N	-0.492620	-0.541487	0.382969
N136	N	0.007380	-0.041487	0.882969
N137	N	-0.492599	-0.483064	0.382979
N138	N	0.007401	0.016936	0.882979
H139	H	-0.529855	-0.459459	0.411830
H140	H	-0.029855	0.040541	0.911830
H141	H	-0.294454	-0.263312	0.229664
H142	H	0.205546	0.236688	0.729664
H143	H	-0.294584	-0.978291	0.541373
H144	H	0.205416	-0.478291	1.041373
N145	N	-0.492180	-0.824514	1.070371
N146	N	0.007820	-0.324514	1.570371
N147	N	-0.486853	-0.766701	1.063017
N148	N	0.013147	-0.266701	1.563017
H149	H	-0.524055	-0.737774	1.086587
H150	H	-0.024055	-0.237774	1.586587
N151	N	-0.283707	-0.137837	0.221420
N152	N	0.216293	0.362163	0.721420
N153	N	-0.209316	-0.145204	0.225678
N154	N	0.290684	0.354796	0.725678
H155	H	-0.172043	-0.121605	0.196831
H156	H	0.327957	0.378395	0.696831
N157	N	-0.492520	-0.137873	0.383130
N158	N	0.007480	0.362127	0.883130
N159	N	-0.566915	-0.145129	0.378861
N160	N	-0.066915	0.354871	0.878861
H161	H	-0.604178	-0.121544	0.407723
H162	H	-0.104178	0.378456	0.907723
H163	H	-0.519853	-0.896379	0.743132
H164	H	-0.019853	-0.396379	1.243132
N165	N	-0.492356	-0.824508	0.666737
N166	N	0.007644	-0.324508	1.166737
N167	N	-0.538407	-0.788711	0.637492
N168	N	-0.038407	-0.288711	1.137492
H169	H	-0.575604	-0.759783	0.661065
H170	H	-0.075604	-0.259783	1.161065
H171	H	-0.399904	-0.346547	0.404602
H172	H	0.100096	0.153453	0.904602
H173	H	-0.294524	-0.978287	0.660079
H174	H	0.205476	-0.478287	1.160079
N175	N	-0.241203	-0.915608	0.736366
N176	N	0.258797	-0.415608	1.236366
N177	N	-0.176329	-0.920043	0.765584
N178	N	0.323671	-0.420043	1.265584
H179	H	-0.123924	-0.923628	0.741989
H180	H	0.376076	-0.423628	1.241989
N181	N	-0.401285	-0.472046	0.416256
N182	N	0.098715	0.027954	0.916256
N183	N	-0.407050	-0.442883	0.466659
N184	N	0.092950	0.057117	0.966659
H185	H	-0.411722	-0.466523	0.507373
H186	H	0.088278	0.033477	1.007373
H187	H	-0.481714	-0.832807	0.541264
H188	H	0.018286	-0.332807	1.041264
H189	H	-0.294399	-0.978298	0.945009
H190	H	0.205601	-0.478298	1.445009
N191	N	-0.534850	-0.895495	0.868637
N192	N	-0.034850	-0.395495	1.368637
N193	N	-0.546096	-0.850730	0.905117
N194	N	-0.046096	-0.350730	1.405117
H195	H	-0.598480	-0.847121	0.928736
H196	H	-0.098480	-0.347121	1.428736
N197	N	-0.283825	-0.541472	0.221268
N198	N	0.216175	-0.041472	0.721268
N199	N	-0.237727	-0.570682	0.185550
N200	N	0.262273	-0.070682	0.685550
H201	H	-0.200465	-0.547080	0.156696
H202	H	0.299535	-0.047080	0.656696
N203	N	-0.492559	-0.270126	0.383080
N204	N	0.007441	0.229874	0.883080
N205	N	-0.538655	-0.240916	0.418799
N206	N	-0.038655	0.259084	0.918799
H207	H	-0.575927	-0.264518	0.447646
H208	H	-0.075927	0.235482	0.947646
H209	H	-0.376447	-0.346339	0.199794
H210	H	0.123553	0.153661	0.699794
H211	H	-0.376470	-0.465044	0.199750
H212	H	0.123530	0.034956	0.699750
H213	H	-0.256205	-0.914576	0.861853
H214	H	0.243795	-0.414576	1.361853
H215	H	-0.294340	-0.978293	1.063716
H216	H	0.205660	-0.478293	1.563716
N217	N	-0.492233	-0.824515	0.938124
N218	N	0.007767	-0.324515	1.438124
N219	N	-0.538265	-0.788725	0.967317
N220	N	-0.038265	-0.288725	1.467317
H221	H	-0.575484	-0.759796	0.943701
H222	H	-0.075484	-0.259796	1.443701
