data_functionalizedCrystal
_audit_creation_method	'MofGen! by Chris Wilmer'
_symmetry_space_group_name_H-M	'P1'
_symmetry_Int_Tables_number	1
_symmetry_cell_setting	triclinic
loop_
_symmetry_equiv_pos_as_xyz
  x,y,z
_cell_length_a	10.654556
_cell_length_b	14.044220
_cell_length_c	9.730223
_cell_angle_alpha	89.997406
_cell_angle_beta	89.999363
_cell_angle_gamma	88.838143
loop_
_atom_site_label
_atom_site_type_symbol
_atom_site_fract_x
_atom_site_fract_y
_atom_site_fract_z
O1	O	1.681220	0.133255	-0.114308
O2	O	2.181220	0.633255	0.385692
O3	O	1.317018	0.145943	-0.114308
O4	O	1.817018	0.645943	0.385692
O5	O	1.493652	0.001578	-0.114295
O6	O	1.993652	0.501578	0.385705
O7	O	1.504586	0.277620	-0.114322
O8	O	2.004586	0.777620	0.385678
O9	O	1.493651	0.001582	0.114285
O10	O	1.993651	0.501582	0.614285
O11	O	1.317016	0.145946	0.114272
O12	O	1.817016	0.645946	0.614272
O13	O	1.681218	0.133259	0.114272
O14	O	2.181218	0.633259	0.614272
Zn15	Zn	1.499117	0.139603	0.150564
Zn16	Zn	1.999117	0.639603	0.650564
Zn17	Zn	1.499119	0.139598	-0.150600
Zn18	Zn	1.999119	0.639598	0.349400
O19	O	1.504584	0.277623	0.114258
O20	O	2.004584	0.777623	0.614258
C21	C	1.270125	0.145012	-0.000018
C22	C	1.770125	0.645012	0.499982
C23	C	1.130402	0.142221	-0.000018
C24	C	1.630402	0.642221	0.499982
C25	C	0.933478	0.138292	-0.124628
C26	C	1.433478	0.638292	0.375372
C27	C	1.064763	0.140908	-0.124622
C28	C	1.564763	0.640908	0.375378
C29	C	1.064749	0.140907	0.124589
C30	C	1.564749	0.640907	0.624589
C31	C	0.933467	0.138283	0.124581
C32	C	1.433467	0.638283	0.624581
C33	C	0.933487	0.138297	-0.268508
C34	C	1.433487	0.638297	0.231492
C35	C	1.064772	0.140913	-0.268502
C36	C	1.564772	0.640913	0.231498
C37	C	1.488866	-0.033766	-0.000004
C38	C	1.988866	0.466234	0.499996
C39	C	1.474590	-0.139086	-0.000003
C40	C	1.974590	0.360914	0.499997
C41	C	1.448491	-0.331919	-0.000022
C42	C	1.948491	0.168081	0.499978
C43	C	1.549739	-0.388885	-0.000026
C44	C	2.049739	0.111115	0.499974
C45	C	1.535218	-0.496184	-0.000037
C46	C	2.035218	0.003816	0.499963
C47	C	1.463011	-0.224610	-0.000011
C48	C	1.963011	0.275390	0.499989
C49	C	1.728111	0.134190	-0.000021
C50	C	2.228111	0.634190	0.499979
C51	C	1.867834	0.136981	-0.000031
C52	C	2.367834	0.636981	0.499969
C53	C	1.509371	0.312967	-0.000036
C54	C	2.009371	0.812967	0.499964
C55	C	1.523646	0.418287	-0.000046
C56	C	2.023646	0.918287	0.499954
N57	N	1.499124	0.139606	0.356100
N58	N	1.999124	0.639606	0.856100
N59	N	1.499121	0.139588	-0.356137
N60	N	1.999121	0.639588	0.143863
C61	C	1.577362	0.075703	0.428032
C62	C	2.077362	0.575703	0.928032
C63	C	1.577358	0.075692	0.571915
C64	C	2.077358	0.575692	1.071915
C65	C	1.420874	0.203494	0.571921
C66	C	1.920874	0.703494	1.071921
C67	C	1.420873	0.203500	0.428041
C68	C	1.920873	0.703500	0.928041
C69	C	1.667711	0.001920	0.428030
C70	C	2.167711	0.501920	0.928030
C71	C	1.667706	0.001909	0.571913
C72	C	2.167706	0.501909	1.071913
H73	H	0.880026	0.137197	0.226040
H74	H	1.380026	0.637197	0.726040
H75	H	0.888571	0.205852	-0.313158
H76	H	1.388571	0.705852	0.186842
H77	H	1.357154	0.255526	0.369475
H78	H	1.857154	0.755526	0.869475
H79	H	1.350912	-0.363731	-0.000026
H80	H	1.850912	0.136269	0.499974
Cl81	Cl	1.623293	-0.110643	0.367733
Cl82	Cl	2.123293	0.389357	0.867733
H83	H	1.096337	0.207894	-0.323737
H84	H	1.596337	0.707894	0.176263
H85	H	1.357163	0.255514	0.630511
H86	H	1.857163	0.755514	1.130511
Cl87	Cl	1.812067	0.037604	0.359115
Cl88	Cl	2.312067	0.537604	0.859115
H89	H	1.647326	-0.357071	-0.000119
H90	H	2.147326	0.142929	0.499881
Cl91	Cl	1.819230	0.026995	0.632212
Cl92	Cl	2.319230	0.526995	1.132212
Cl93	Cl	1.147267	0.142546	0.281235
Cl94	Cl	1.647267	0.642546	0.781235
Cl95	Cl	1.609898	-0.104459	0.640818
Cl96	Cl	2.109898	0.395541	1.140818
Cl97	Cl	1.134133	0.036613	-0.337421
Cl98	Cl	1.634133	0.536613	0.162579
H99	H	0.901933	0.071321	-0.323749
H100	H	1.401933	0.571321	0.176251
