data_functionalizedCrystal
_audit_creation_method	'MofGen! by Chris Wilmer'
_symmetry_space_group_name_H-M	'P1'
_symmetry_Int_Tables_number	1
_symmetry_cell_setting	triclinic
loop_
_symmetry_equiv_pos_as_xyz
  x,y,z
_cell_length_a	10.489741
_cell_length_b	19.188924
_cell_length_c	9.565339
_cell_angle_alpha	89.998167
_cell_angle_beta	89.999100
_cell_angle_gamma	83.840569
loop_
_atom_site_label
_atom_site_type_symbol
_atom_site_fract_x
_atom_site_fract_y
_atom_site_fract_z
O1	O	1.691846	0.098498	-0.116181
O2	O	1.320443	0.107744	-0.116203
O3	O	1.516867	0.001537	-0.116175
O4	O	1.495422	0.204705	-0.116209
O5	O	1.516852	0.001543	0.116345
O6	O	1.320428	0.107750	0.116317
O7	O	1.691830	0.098504	0.116339
Zn8	Zn	1.506127	0.103128	0.153246
Zn9	Zn	1.506147	0.103120	-0.153110
O10	O	1.495407	0.204711	0.116311
C11	C	1.272919	0.107049	0.000054
C12	C	1.131337	0.104959	0.000046
C13	C	1.064711	0.037383	0.000071
C14	C	0.971876	0.069302	-0.114576
C15	C	0.971895	0.069325	0.114670
C16	C	1.040367	0.136906	-0.114695
C17	C	1.040395	0.136920	0.114654
C18	C	0.947587	0.168888	-0.000021
C19	C	1.516166	-0.024476	0.000086
C20	C	1.514086	-0.101995	0.000090
C21	C	1.513124	-0.138404	-0.126657
C22	C	1.511151	-0.211239	-0.126668
C23	C	1.510166	-0.247665	0.000076
C24	C	1.511122	-0.211247	0.126840
C25	C	1.513081	-0.138412	0.126847
N26	N	1.579664	-0.366860	0.094412
N27	N	1.577805	-0.436051	0.094397
C28	C	1.504258	-0.467114	0.000062
N29	N	1.432657	-0.426374	-0.094278
N30	N	1.434522	-0.357177	-0.094267
C31	C	1.508040	-0.326643	0.000082
C32	C	1.501155	-0.582500	-0.126705
C33	C	1.499174	-0.655337	-0.126711
C34	C	1.499158	-0.655344	0.126800
C35	C	1.501126	-0.582508	0.126802
C36	C	1.502130	-0.546090	0.000045
C37	C	1.739354	0.099199	0.000079
C38	C	1.880937	0.101289	0.000078
C39	C	1.496107	0.230724	0.000047
C40	C	1.498188	0.308243	0.000034
N41	N	1.506122	0.103134	0.362325
N42	N	1.506162	0.103109	-0.362189
C43	C	1.415255	0.152235	0.453515
C44	C	1.530436	0.166362	0.546698
C45	C	1.390991	0.089013	0.546697
C46	C	1.621360	0.117293	0.453457
C47	C	1.481840	0.039916	0.453447
C48	C	1.597104	0.054016	0.546588
H49	H	1.513938	-0.108757	-0.229872
C50	C	0.746271	0.241394	0.001039
C51	C	0.879169	0.243957	-0.000110
H52	H	0.704033	0.287738	0.000988
H53	H	0.721783	0.217213	-0.079620
H54	H	0.722866	0.217503	0.082545
H55	H	0.902575	0.267844	-0.081621
H56	H	0.903666	0.268149	0.080557
C57	C	1.499333	-0.648030	0.377379
C58	C	1.498070	-0.695373	0.266123
H59	H	1.498649	-0.672745	0.463392
H60	H	1.574456	-0.624577	0.372117
H61	H	1.425734	-0.614666	0.372090
H62	H	1.571673	-0.728734	0.271405
H63	H	1.422938	-0.718838	0.271387
H64	H	1.501966	-0.552847	-0.229918
C65	C	1.778461	0.199474	0.446733
C66	C	1.752858	0.133507	0.398463
H67	H	1.859645	0.209487	0.412799
H68	H	1.713883	0.234143	0.414099
H69	H	1.779238	0.199526	0.546040
H70	H	1.752072	0.133457	0.299155
H71	H	1.817453	0.098830	0.431089
H72	H	1.551001	0.219813	0.587658
H73	H	1.070795	0.165492	0.211577
C74	C	1.164520	0.124395	0.554984
C75	C	1.259533	0.072893	0.601977
H76	H	1.083362	0.114443	0.589101
H77	H	1.182404	0.168951	0.588294
H78	H	1.163345	0.124708	0.455682
H79	H	1.260715	0.072584	0.701280
H80	H	1.241645	0.028325	0.568675
C81	C	1.311909	0.207352	0.251952
C82	C	1.311615	0.208335	0.398325
H83	H	1.247926	0.241984	0.217881
H84	H	1.393539	0.216937	0.218670
H85	H	1.294441	0.162469	0.220038
H86	H	1.329093	0.253217	0.430240
H87	H	1.229967	0.198755	0.431621
C88	C	1.511313	-0.203921	-0.377252
C89	C	1.510044	-0.251268	-0.265998
H90	H	1.510621	-0.228632	-0.463266
H91	H	1.437736	-0.170554	-0.371956
H92	H	1.586458	-0.180474	-0.371996
H93	H	1.434894	-0.274711	-0.271248
H94	H	1.583628	-0.284648	-0.271297
C95	C	1.389009	-0.670446	-0.342829
C96	C	1.498129	-0.695357	-0.266049
H97	H	1.388375	-0.695150	-0.428855
H98	H	1.314327	-0.677440	-0.290777
H99	H	1.390335	-0.621854	-0.360944
H100	H	1.496798	-0.743947	-0.247925
H101	H	1.572830	-0.688369	-0.318112
C102	C	1.097411	-0.073353	0.118770
C103	C	1.133427	-0.037620	-0.000074
H104	H	1.139830	-0.119655	0.118666
H105	H	1.120699	-0.049455	0.200296
H106	H	1.007277	-0.075190	0.117930
H107	H	1.223560	-0.035777	0.000771
H108	H	1.110147	-0.061524	-0.081621
H109	H	1.501920	-0.552864	0.230013
C110	C	1.400883	-0.226384	0.342895
C111	C	1.510037	-0.251283	0.266160
H112	H	1.400207	-0.251103	0.428904
H113	H	1.402195	-0.177801	0.361035
H114	H	1.326216	-0.233373	0.290790
H115	H	1.584705	-0.244289	0.318260
H116	H	1.508736	-0.299877	0.248024
H117	H	1.674048	0.012480	0.587198
C118	C	1.516078	-0.026765	0.239416
C119	C	1.514146	-0.098386	0.266176
H120	H	1.516729	-0.002055	0.325434
H121	H	1.590761	-0.019785	0.187354
H122	H	1.442039	-0.009881	0.187328
H123	H	1.588190	-0.115271	0.318256
H124	H	1.439455	-0.105370	0.318260
C125	C	0.990583	-0.038157	-0.245192
C126	C	0.930866	0.030701	-0.245407
H127	H	0.965260	-0.061990	-0.325954
H128	H	1.080987	-0.037476	-0.245715
H129	H	0.965981	-0.061707	-0.163768
H130	H	0.955475	0.054252	-0.326826
H131	H	0.840442	0.030024	-0.244897
C132	C	1.214259	0.177047	-0.244559
C133	C	1.081118	0.175466	-0.245700
H134	H	1.239416	0.200847	-0.325440
H135	H	1.238247	0.200895	-0.163263
H136	H	1.255407	0.130468	-0.244223
H137	H	1.039969	0.222045	-0.246025
H138	H	1.057117	0.151620	-0.327017
C139	C	0.797653	0.029720	0.244783
C140	C	0.930929	0.030718	0.245521
H141	H	0.772370	0.005878	0.325556
H142	H	0.757151	0.076429	0.244930
H143	H	0.773056	0.006163	0.163370
H144	H	0.955525	0.054280	0.326929
H145	H	0.971445	-0.016000	0.245388
H146	H	1.461239	-0.013519	0.412455
