data_functionalizedCrystal
_audit_creation_method	'MofGen! by Chris Wilmer'
_symmetry_space_group_name_H-M	'P1'
_symmetry_Int_Tables_number	1
_symmetry_cell_setting	triclinic
loop_
_symmetry_equiv_pos_as_xyz
  x,y,z
_cell_length_a	12.759401
_cell_length_b	16.120484
_cell_length_c	16.120297
_cell_angle_alpha	84.385569
_cell_angle_beta	87.118559
_cell_angle_gamma	92.925560
loop_
_atom_site_label
_atom_site_type_symbol
_atom_site_fract_x
_atom_site_fract_y
_atom_site_fract_z
Zn1	Zn	1.552087	-0.356741	0.489387
Zn2	Zn	1.551955	-0.489431	0.356697
Zn3	Zn	1.385777	-0.349678	0.349640
Zn4	Zn	1.366966	-0.496473	0.496428
O5	O	1.464196	-0.423081	0.423038
O6	O	1.699089	-0.374352	0.471792
O7	O	1.537728	-0.464989	0.238799
O8	O	1.415766	-0.233650	0.362278
O9	O	1.698992	-0.471838	0.374306
O10	O	1.537953	-0.238839	0.464949
O11	O	1.415638	-0.362313	0.233614
O12	O	1.236261	-0.369142	0.369105
O13	O	1.383705	-0.483840	0.612456
O14	O	1.222441	-0.476991	0.476949
O15	O	1.519713	-0.381180	0.607283
O16	O	1.519488	-0.607330	0.381133
O17	O	1.383577	-0.612504	0.483792
C18	C	1.191230	-0.423065	0.423026
C19	C	1.074452	-0.423079	0.423042
C20	C	1.012421	-0.479317	0.479112
C21	C	0.902696	-0.479328	0.479122
C22	C	0.917042	-0.366860	0.366983
C23	C	1.026765	-0.366846	0.366978
C24	C	1.004138	-0.544253	0.543852
C25	C	0.894412	-0.544264	0.543862
C26	C	1.449504	-0.640246	0.434011
C27	C	1.443313	-0.733151	0.438733
C28	C	1.432015	-0.903252	0.447371
C29	C	1.496565	-0.942070	0.398718
C30	C	1.490278	-1.036720	0.403525
C31	C	1.438300	-0.808594	0.442566
C32	C	1.738227	-0.423097	0.423051
C33	C	1.855003	-0.423104	0.423056
C34	C	1.449626	-0.434084	0.641044
C35	C	1.443417	-0.438772	0.733946
C36	C	1.478973	-0.205069	0.412041
C37	C	1.485270	-0.112165	0.407354
C38	C	1.478774	-0.412060	0.205877
C39	C	1.485202	-0.407136	0.112964
C40	C	1.432044	-0.447314	0.904036
C41	C	1.496572	-0.398597	0.942879
C42	C	1.490244	-0.403350	1.037523
C43	C	1.438370	-0.442563	0.809384
H44	H	0.878202	-0.321076	0.321339
H45	H	1.372035	-0.941100	0.492630
C46	C	1.525172	-0.838150	0.281397
C47	C	1.577535	-0.890982	0.337603
H48	H	1.575157	-0.806613	0.243664
H49	H	1.485514	-0.801357	0.311294
H50	H	1.479346	-0.870652	0.251103
H51	H	1.623356	-0.858480	0.367901
H52	H	1.617211	-0.927779	0.307703
H53	H	1.372052	-0.492589	0.941860
C54	C	1.029920	-0.255669	0.256145
C55	C	1.094951	-0.305019	0.305351
H56	H	1.072017	-0.217502	0.218097
H57	H	0.986844	-0.225610	0.291009
H58	H	0.986806	-0.290430	0.225949
H59	H	1.138059	-0.270259	0.335553
H60	H	1.138044	-0.335081	0.270484
C61	C	0.952140	-0.513954	0.682409
C62	C	1.040085	-0.525388	0.630096
H63	H	0.974336	-0.502303	0.735648
H64	H	0.907243	-0.563258	0.688333
H65	H	0.915210	-0.468538	0.658729
H66	H	1.077012	-0.570808	0.653773
H67	H	1.085000	-0.476079	0.624175
C68	C	1.004860	-0.693304	0.571470
C69	C	1.046590	-0.625621	0.516608
H70	H	1.031074	-0.743536	0.554650
H71	H	0.930396	-0.696080	0.570539
H72	H	1.024824	-0.686204	0.626427
H73	H	1.026619	-0.632719	0.461652
H74	H	1.121070	-0.622847	0.517530
C75	C	0.782417	-0.665523	0.591594
C76	C	0.849874	-0.630428	0.524722
H77	H	0.754927	-0.718716	0.579778
H78	H	0.726305	-0.630071	0.599473
H79	H	0.820278	-0.671596	0.640881
H80	H	0.812012	-0.624350	0.475436
H81	H	0.905994	-0.665888	0.516833
C82	C	1.568224	-0.344521	0.806586
C83	C	1.577557	-0.337462	0.891820
H84	H	1.618220	-0.306780	0.775065
H85	H	1.499401	-0.331589	0.791712
H86	H	1.580740	-0.399979	0.795176
H87	H	1.565033	-0.282005	0.903231
H88	H	1.646397	-0.350388	0.906700
H89	H	0.857836	-0.524287	0.604231
