data_functionalizedCrystal
_audit_creation_method	'MofGen! by Chris Wilmer'
_symmetry_space_group_name_H-M	'P1'
_symmetry_Int_Tables_number	1
_symmetry_cell_setting	triclinic
loop_
_symmetry_equiv_pos_as_xyz
  x,y,z
_cell_length_a	16.992694
_cell_length_b	14.853567
_cell_length_c	16.053802
_cell_angle_alpha	92.572962
_cell_angle_beta	87.249047
_cell_angle_gamma	87.151577
loop_
_atom_site_label
_atom_site_type_symbol
_atom_site_fract_x
_atom_site_fract_y
_atom_site_fract_z
O1	O	1.043898	0.187626	-0.069313
O2	O	0.815612	0.185528	-0.069338
O3	O	0.935853	0.055778	-0.069327
O4	O	0.923657	0.317376	-0.069323
O5	O	0.929234	0.062888	0.069531
O6	O	0.808993	0.192638	0.069521
O7	O	1.037280	0.194737	0.069545
Zn8	Zn	0.922086	0.194816	0.091580
Zn9	Zn	0.930806	0.185448	-0.091372
O10	O	0.917038	0.324487	0.069535
C11	C	0.783087	0.186385	0.000088
C12	C	0.696035	0.178334	0.000078
C13	C	0.645879	0.256009	0.000080
C14	C	0.564083	0.248440	0.000092
C15	C	0.532446	0.163195	0.000095
C16	C	0.582608	0.085513	0.000096
C17	C	0.664401	0.093084	0.000091
C18	C	0.288813	0.131819	0.000117
C19	C	0.207013	0.124255	0.000120
C20	C	0.188494	0.287183	0.000117
C21	C	0.270290	0.294745	0.000107
C22	C	0.320445	0.217064	0.000112
N23	N	0.448838	0.155456	0.000104
N24	N	0.404051	0.224804	0.000109
C25	C	0.931991	0.025705	0.000099
C26	C	0.930335	-0.074496	0.000092
C27	C	0.851909	-0.492567	0.000099
C28	C	0.994758	-0.503761	0.000115
C29	C	0.996315	-0.409617	0.000110
C30	C	0.925668	-0.356944	0.000101
C31	C	0.853464	-0.398414	0.000097
C32	C	1.068518	-0.368139	0.000123
C33	C	1.070078	-0.273990	0.000119
C34	C	0.999430	-0.221316	0.000104
C35	C	0.927223	-0.262792	0.000099
C36	C	0.856576	-0.210118	0.000090
C37	C	0.784368	-0.251593	0.000079
C38	C	0.782816	-0.345740	0.000082
C39	C	1.000983	-0.127169	0.000101
C40	C	0.858131	-0.115966	0.000088
C41	C	1.069804	0.193880	0.000118
C42	C	1.156857	0.201930	0.000122
C43	C	0.920900	0.354559	0.000106
C44	C	0.922556	0.454760	0.000108
N45	N	0.916140	0.201210	0.216440
N46	N	0.936757	0.179048	-0.216232
C47	C	0.967322	0.146023	0.260138
C48	C	0.963170	0.150505	0.347544
C49	C	0.907840	0.210178	0.391251
C50	C	0.856653	0.265367	0.347546
C51	C	0.860801	0.260880	0.260141
C52	C	0.889719	0.229750	0.652659
C53	C	0.885576	0.234235	0.740070
C54	C	0.992092	0.119371	0.740062
C55	C	0.996239	0.114894	0.652655
C56	C	0.945049	0.170079	0.608958
N57	N	0.903597	0.214762	0.480594
N58	N	0.949289	0.165490	0.519617
H59	H	0.329640	0.068566	0.000122
C60	C	1.057098	0.049250	0.604575
C61	C	1.113401	-0.011462	0.652634
C62	C	1.174262	-0.077102	0.604551
C63	C	1.178820	-0.082030	0.508409
C64	C	1.122516	-0.021316	0.460345
C65	C	1.061655	0.044324	0.508428
H66	H	1.110028	-0.007815	0.723809
H67	H	1.215942	-0.122047	0.640132
H68	H	1.223873	-0.130621	0.472816
H69	H	1.125889	-0.024963	0.389170
H70	H	1.019975	0.089269	0.472847
C71	C	0.547810	-0.008259	0.000099
C72	C	0.457841	-0.016591	0.000099
C73	C	0.423045	-0.110366	0.000098
C74	C	0.478218	-0.195808	0.000097
C75	C	0.568192	-0.187479	0.000097
C76	C	0.602988	-0.093704	0.000098
H77	H	0.416994	0.046661	0.000099
H78	H	0.356440	-0.116532	0.000098
H79	H	0.452460	-0.265226	0.000096
H80	H	0.609039	-0.250731	0.000097
H81	H	0.669593	-0.087539	0.000098
H82	H	0.848039	0.274686	0.617088
H83	H	1.012380	0.097435	0.224558
H84	H	1.033768	0.074441	0.775648
H85	H	1.004845	0.105567	0.383123
C86	C	0.508915	0.333888	0.000094
C87	C	0.515945	0.398438	-0.072015
C88	C	0.460778	0.483891	-0.072009
C89	C	0.398581	0.504795	0.000105
C90	C	0.391548	0.440244	0.072219
C91	C	0.446715	0.354790	0.072214
H92	H	0.561990	0.382965	-0.125403
H93	H	0.465985	0.531676	-0.125393
H94	H	0.357743	0.568053	0.000109
H95	H	0.345504	0.455717	0.125607
H96	H	0.441509	0.307005	0.125598
C97	C	0.703396	-0.391367	0.000071
C98	C	0.679249	-0.450856	0.072176
C99	C	0.599831	-0.496490	0.072165
C100	C	0.544560	-0.482635	0.000048
C101	C	0.568706	-0.423143	-0.072063
C102	C	0.648124	-0.377509	-0.072051
H103	H	0.720165	-0.461115	0.125566
H104	H	0.581957	-0.540530	0.125546
H105	H	0.485770	-0.516416	0.000039
H106	H	0.527790	-0.412884	-0.125453
H107	H	0.665998	-0.333469	-0.125432
H108	H	0.671631	0.325425	0.000077
C109	C	0.824705	0.299877	0.788145
C110	C	0.820144	0.304820	0.884287
C111	C	0.759278	0.370461	0.932361
C112	C	0.702972	0.431160	0.884293
C113	C	0.707531	0.426219	0.788146
C114	C	0.768397	0.360578	0.740072
H115	H	0.861827	0.259886	0.919875
H116	H	0.755904	0.374119	1.003536
H117	H	0.657915	0.479752	0.919880
H118	H	0.665848	0.471154	0.752558
H119	H	0.771771	0.356921	0.668897
C120	C	0.795788	0.331009	0.395619
C121	C	0.791258	0.335997	0.491761
C122	C	0.730393	0.401644	0.539830
C123	C	0.674059	0.462303	0.491758
C124	C	0.678587	0.457317	0.395610
C125	C	0.739452	0.391670	0.347541
H126	H	0.832962	0.291092	0.527351
H127	H	0.727042	0.405335	0.611005
H128	H	0.629003	0.510899	0.527342
H129	H	0.636883	0.502222	0.360020
H130	H	0.742803	0.387980	0.276366
H131	H	0.147649	0.350426	0.000115
C132	C	1.146223	-0.426082	0.000131
C133	C	1.161354	-0.488661	0.072234
C134	C	1.239062	-0.546612	0.072239
C135	C	1.301639	-0.541983	0.000141
C136	C	1.286510	-0.479402	-0.071967
C137	C	1.208802	-0.421452	-0.071972
H138	H	1.115029	-0.492090	0.125610
H139	H	1.250261	-0.592938	0.125619
H140	H	1.359163	-0.584882	0.000145
H141	H	1.332835	-0.475974	-0.125343
H142	H	1.197603	-0.375125	-0.125352
H143	H	0.181257	0.054834	0.000122
H144	H	0.793119	-0.526340	0.000087
H145	H	1.128874	-0.240230	0.000127
H146	H	1.052275	-0.546652	0.000129
H147	H	0.296043	0.364160	0.000094
H148	H	0.819123	0.305817	0.224563
H149	H	0.705238	0.029832	0.000089
H150	H	0.800601	-0.073086	0.000077
H151	H	1.059773	-0.093404	0.000115
H152	H	0.726847	-0.208694	0.000078
