data_functionalizedCrystal
_audit_creation_method	'MofGen! by Chris Wilmer'
_symmetry_space_group_name_H-M	'P1'
_symmetry_Int_Tables_number	1
_symmetry_cell_setting	triclinic
loop_
_symmetry_equiv_pos_as_xyz
  x,y,z
_cell_length_a	11.026607
_cell_length_b	14.519709
_cell_length_c	10.065875
_cell_angle_alpha	98.804604
_cell_angle_beta	79.302338
_cell_angle_gamma	96.133081
loop_
_atom_site_label
_atom_site_type_symbol
_atom_site_fract_x
_atom_site_fract_y
_atom_site_fract_z
O1	O	1.628737	0.375708	-0.113512
O2	O	1.962070	0.709042	0.219822
O3	O	2.295403	1.042375	0.553155
O4	O	1.275335	0.331718	-0.113511
O5	O	1.608668	0.665051	0.219822
O6	O	1.942002	0.998385	0.553155
O7	O	1.461404	0.221020	-0.113499
O8	O	1.794737	0.554353	0.219834
O9	O	2.128071	0.887686	0.553167
O10	O	1.442668	0.486407	-0.113524
O11	O	1.776001	0.819740	0.219810
O12	O	2.109335	1.153073	0.553143
O13	O	1.425923	0.242237	0.113487
O14	O	1.759257	0.575570	0.446821
O15	O	2.092590	0.908904	0.780154
O16	O	1.239855	0.352935	0.113475
O17	O	1.573188	0.686268	0.446808
O18	O	1.906521	1.019602	0.780142
O19	O	1.593256	0.396926	0.113475
O20	O	1.926590	0.730259	0.446808
O21	O	2.259923	1.063592	0.780141
Zn22	Zn	1.410922	0.378299	0.149514
Zn23	Zn	1.744255	0.711632	0.482847
Zn24	Zn	2.077589	1.044966	0.816181
Zn25	Zn	1.457669	0.350345	-0.149550
Zn26	Zn	1.791003	0.683678	0.183783
Zn27	Zn	2.124336	1.017011	0.517116
O28	O	1.407187	0.507624	0.113463
O29	O	1.740521	0.840957	0.446796
O30	O	2.073854	1.174290	0.780129
C31	C	1.212366	0.334211	-0.000018
C32	C	1.545700	0.667545	0.333315
C33	C	1.879033	1.000878	0.666649
C34	C	1.077600	0.310019	-0.000017
C35	C	1.410933	0.643352	0.333316
C36	C	1.744266	0.976685	0.666649
C37	C	1.003940	0.376818	-0.000024
C38	C	1.337273	0.710151	0.333309
C39	C	1.670607	1.043484	0.666642
C40	C	0.864652	0.351815	-0.000024
C41	C	1.197985	0.685148	0.333309
C42	C	1.531318	1.018482	0.666643
C43	C	1.442790	0.197125	-0.000006
C44	C	1.776124	0.530458	0.333328
C45	C	2.109457	0.863791	0.666661
C46	C	1.440173	0.094312	-0.000005
C47	C	1.773506	0.427646	0.333328
C48	C	2.106840	0.760979	0.666662
C49	C	1.430544	-0.282174	-0.000040
C50	C	1.763877	0.051159	0.333293
C51	C	2.097210	0.384492	0.666626
C52	C	1.433218	-0.177425	-0.000030
C53	C	1.766551	0.155909	0.333303
C54	C	2.099884	0.489242	0.666637
C55	C	1.435358	-0.093934	-0.000021
C56	C	1.768691	0.239399	0.333312
C57	C	2.102025	0.572732	0.666645
C58	C	1.438033	0.010822	-0.000014
C59	C	1.771366	0.344155	0.333320
C60	C	2.104700	0.677489	0.666653
C61	C	1.656225	0.394432	-0.000022
C62	C	1.989559	0.727765	0.333312
C63	C	2.322892	1.061099	0.666645
C64	C	1.790993	0.418624	-0.000031
C65	C	2.124327	0.751957	0.333302
C66	C	2.457660	1.085290	0.666636
C67	C	1.425802	0.531519	-0.000034
C68	C	1.759135	0.864852	0.333300
C69	C	2.092468	1.198185	0.666633
C70	C	1.428420	0.634330	-0.000043
C71	C	1.761753	0.967664	0.333290
C72	C	2.095087	1.300997	0.666623
N73	N	1.379027	0.397378	0.353617
N74	N	1.712361	0.730711	0.686951
N75	N	2.045694	1.064045	1.020284
N76	N	1.489574	0.331260	-0.353654
N77	N	1.822907	0.664593	-0.020321
N78	N	2.156240	0.997927	0.313013
C79	C	1.446564	0.356976	0.421401
C80	C	1.779898	0.690309	0.754734
C81	C	2.113231	1.023642	1.088067
C82	C	1.422027	0.371668	0.578566
C83	C	1.755360	0.705001	0.911900
C84	C	2.088693	1.038335	1.245233
H85	H	0.824606	0.276108	-0.000052
H86	H	1.157939	0.609442	0.333281
H87	H	1.491272	0.942775	0.666615
Cl88	Cl	0.852815	0.535508	-0.000023
Cl89	Cl	1.186148	0.868842	0.333311
Cl90	Cl	1.519481	1.202175	0.666644
H91	H	1.522548	0.311504	0.363081
H92	H	1.855881	0.644837	0.696415
H93	H	2.189214	0.978171	1.029748
Cl94	Cl	1.261699	0.467572	0.443651
Cl95	Cl	1.595032	0.800905	0.776985
Cl96	Cl	1.928366	1.134239	1.110318
H97	H	1.043996	0.452517	-0.000024
H98	H	1.377329	0.785850	0.333310
H99	H	1.710662	1.119184	0.666643
Cl100	Cl	1.607161	0.261296	0.556321
Cl101	Cl	1.940494	0.594629	0.889655
Cl102	Cl	2.273828	0.927963	1.222988
Cl103	Cl	1.015765	0.193143	0.000003
Cl104	Cl	1.349098	0.526476	0.333336
Cl105	Cl	1.682432	0.859809	0.666670
H106	H	1.346030	0.417134	0.636882
H107	H	1.679363	0.750468	0.970216
H108	H	2.012697	1.083801	1.303549
