data_functionalizedCrystal
_audit_creation_method	'MofGen! by Chris Wilmer'
_symmetry_space_group_name_H-M	'P1'
_symmetry_Int_Tables_number	1
_symmetry_cell_setting	triclinic
loop_
_symmetry_equiv_pos_as_xyz
  x,y,z
_cell_length_a	12.759401
_cell_length_b	13.897448
_cell_length_c	12.759393
_cell_angle_alpha	90.032272
_cell_angle_beta	90.019802
_cell_angle_gamma	90.016778
loop_
_atom_site_label
_atom_site_type_symbol
_atom_site_fract_x
_atom_site_fract_y
_atom_site_fract_z
Zn1	Zn	1.606244	-0.383992	0.593975
Zn2	Zn	1.939578	-0.050658	0.927309
Zn3	Zn	2.272911	0.282675	1.260642
Zn4	Zn	1.606126	-0.545318	0.418290
Zn5	Zn	1.939460	-0.211985	0.751623
Zn6	Zn	2.272793	0.121348	1.084957
Zn7	Zn	1.430543	-0.384036	0.418314
Zn8	Zn	1.763877	-0.050703	0.751647
Zn9	Zn	2.097210	0.282630	1.084981
Zn10	Zn	1.430526	-0.545244	0.593931
Zn11	Zn	1.763859	-0.211911	0.927264
Zn12	Zn	2.097193	0.121423	1.260597
O13	O	1.518360	-0.464648	0.506127
O14	O	1.851693	-0.131314	0.839461
O15	O	2.185027	0.202019	1.172794
O16	O	1.753250	-0.405405	0.570679
O17	O	2.086583	-0.072071	0.904012
O18	O	2.419917	0.261262	1.237346
O19	O	1.582793	-0.523973	0.271272
O20	O	1.916126	-0.190640	0.604605
O21	O	2.249459	0.142693	0.937939
O22	O	1.453907	-0.249049	0.441644
O23	O	1.787240	0.084285	0.774978
O24	O	2.120574	0.417618	1.108311
O25	O	1.753163	-0.523930	0.441604
O26	O	2.086496	-0.190597	0.774937
O27	O	2.419830	0.142736	1.108270
O28	O	1.582994	-0.249016	0.570702
O29	O	1.916327	0.084317	0.904035
O30	O	2.249661	0.417651	1.237369
O31	O	1.453793	-0.405480	0.271290
O32	O	1.787126	-0.072147	0.604623
O33	O	2.120459	0.261186	0.937956
O34	O	1.283520	-0.405408	0.441601
O35	O	1.616853	-0.072075	0.774935
O36	O	1.950187	0.261258	1.108268
O37	O	1.453878	-0.523804	0.740958
O38	O	1.787211	-0.190470	1.074291
O39	O	2.120544	0.142863	1.407624
O40	O	1.283507	-0.523847	0.570626
O41	O	1.616841	-0.190514	0.903959
O42	O	1.950174	0.142820	1.237293
O43	O	1.582977	-0.405333	0.740990
O44	O	1.916311	-0.071999	1.074324
O45	O	2.249644	0.261334	1.407657
O46	O	1.582776	-0.680290	0.441560
O47	O	1.916109	-0.346957	0.774894
O48	O	2.249443	-0.013623	1.108227
O49	O	1.453763	-0.680235	0.570603
O50	O	1.787096	-0.346902	0.903936
O51	O	2.120430	-0.013569	1.237269
C52	C	1.245393	-0.464625	0.506112
C53	C	1.578726	-0.131292	0.839445
C54	C	1.912059	0.202042	1.172779
C55	C	1.128616	-0.464639	0.506130
C56	C	1.461949	-0.131305	0.839464
C57	C	1.795283	0.202028	1.172797
C58	C	0.964063	-0.403056	0.573451
C59	C	1.297396	-0.069723	0.906784
C60	C	1.630729	0.263611	1.240117
C61	C	1.073787	-0.403037	0.573444
C62	C	1.407120	-0.069704	0.906777
C63	C	1.740453	0.263629	1.240110
C64	C	1.073716	-0.526270	0.438827
C65	C	1.407049	-0.192937	0.772160
C66	C	1.740382	0.140397	1.105494
C67	C	0.963993	-0.526293	0.438840
C68	C	1.297327	-0.192960	0.772173
C69	C	1.630660	0.140374	1.105507
C70	C	1.518283	-0.715262	0.506097
C71	C	1.851617	-0.381929	0.839430
C72	C	2.184950	-0.048595	1.172764
C73	C	1.518347	-0.822476	0.506119
C74	C	1.851680	-0.489142	0.839452
C75	C	2.185013	-0.155809	1.172786
C76	C	1.518457	-1.018771	0.506185
C77	C	1.851790	-0.685437	0.839518
C78	C	2.185124	-0.352104	1.172852
C79	C	1.518393	-0.909538	0.506152
C80	C	1.851726	-0.576205	0.839485
C81	C	2.185059	-0.242872	1.172818
C82	C	1.792393	-0.464671	0.506144
C83	C	2.125727	-0.131337	0.839477
C84	C	2.459060	0.201996	1.172810
C85	C	1.909170	-0.464681	0.506150
C86	C	2.242503	-0.131347	0.839484
C87	C	2.575837	0.201986	1.172817
C88	C	1.518439	-0.464555	0.780161
C89	C	1.851772	-0.131222	1.113494
C90	C	2.185105	0.202112	1.446828
C91	C	1.518472	-0.464515	0.896938
C92	C	1.851805	-0.131182	1.230271
C93	C	2.185139	0.202151	1.563604
C94	C	1.518466	-0.213055	0.506181
C95	C	1.851799	0.120279	0.839514
C96	C	2.185132	0.453612	1.172848
C97	C	1.518511	-0.105841	0.506204
C98	C	1.851844	0.227493	0.839537
C99	C	2.185177	0.560826	1.172870
C100	C	1.518342	-0.464670	0.233160
C101	C	1.851675	-0.131337	0.566493
C102	C	2.185009	0.201997	0.899827
C103	C	1.518512	-0.464438	0.116384
C104	C	1.851846	-0.131105	0.449717
C105	C	2.185179	0.202229	0.783051
C106	C	1.585699	-0.402818	0.951818
C107	C	1.919033	-0.069484	1.285152
C108	C	2.252366	0.263849	1.618485
C109	C	1.585717	-0.402776	1.061543
C110	C	1.919050	-0.069443	1.394876
C111	C	2.252384	0.263891	1.728209
C112	C	1.451278	-0.526138	1.061496
C113	C	1.784611	-0.192805	1.394829
C114	C	2.117944	0.140528	1.728162
C115	C	1.451255	-0.526174	0.951773
C116	C	1.784589	-0.192841	1.285107
C117	C	2.117922	0.140492	1.618440
H118	H	0.919299	-0.576481	0.384035
H119	H	1.252632	-0.243147	0.717369
H120	H	1.585965	0.090186	1.050702
H121	H	1.640459	-0.352534	1.106222
H122	H	1.973792	-0.019201	1.439555
H123	H	2.307125	0.314133	1.772888
H124	H	1.640429	-0.352608	0.907174
H125	H	1.973762	-0.019275	1.240508
H126	H	2.307095	0.314058	1.573841
H127	H	1.396503	-0.576415	0.907088
H128	H	1.729837	-0.243082	1.240422
H129	H	2.063170	0.090251	1.573755
N130	N	1.132994	-0.336575	0.646036
N131	N	1.466327	-0.003241	0.979369
N132	N	1.799661	0.330092	1.312702
H133	H	1.081611	-0.297551	0.688676
H134	H	1.414944	0.035782	1.022009
H135	H	1.748277	0.369116	1.355343
H136	H	1.178506	-0.291881	0.603352
H137	H	1.511839	0.041452	0.936685
H138	H	1.845172	0.374785	1.270018
H139	H	1.396554	-0.576341	1.106156
H140	H	1.729888	-0.243008	1.439489
H141	H	2.063221	0.090326	1.772823
H142	H	0.919429	-0.352887	0.628259
H143	H	1.252762	-0.019554	0.961592
H144	H	1.586095	0.313780	1.294926
N145	N	1.132843	-0.592713	0.366219
N146	N	1.466176	-0.259380	0.699553
N147	N	1.799510	0.073954	1.032886
H148	H	1.178388	-0.637450	0.408820
H149	H	1.511722	-0.304117	0.742153
H150	H	1.845055	0.029216	1.075486
H151	H	1.178282	-0.553377	0.317615
H152	H	1.511615	-0.220044	0.650948
H153	H	1.844948	0.113289	0.984282
