data_functionalizedCrystal
_audit_creation_method	'MofGen! by Chris Wilmer'
_symmetry_space_group_name_H-M	'P1'
_symmetry_Int_Tables_number	1
_symmetry_cell_setting	triclinic
loop_
_symmetry_equiv_pos_as_xyz
  x,y,z
_cell_length_a	11.792254
_cell_length_b	11.792254
_cell_length_c	8.140239
_cell_angle_alpha	89.996301
_cell_angle_beta	89.997328
_cell_angle_gamma	84.198598
loop_
_atom_site_label
_atom_site_type_symbol
_atom_site_fract_x
_atom_site_fract_y
_atom_site_fract_z
O1	O	1.506905	0.155634	-0.136613
O2	O	1.176566	0.171652	-0.136617
O3	O	1.349744	-0.001527	-0.136603
O4	O	1.333726	0.328812	-0.136626
O5	O	1.349735	-0.001529	0.136624
O6	O	1.176556	0.171649	0.136611
O7	O	1.506895	0.155632	0.136614
Zn8	Zn	1.341724	0.163640	0.179993
Zn9	Zn	1.341737	0.163643	-0.179995
O10	O	1.333717	0.328810	0.136601
C11	C	1.134271	0.170642	-0.000003
C12	C	1.008257	0.167621	-0.000005
C13	C	0.905921	0.165168	-0.000011
C14	C	0.777534	0.162099	-0.000012
C15	C	1.348730	-0.043818	0.000010
C16	C	1.345710	-0.169832	0.000008
C17	C	1.343256	-0.272168	0.000003
C18	C	1.340188	-0.400555	-0.000013
C19	C	1.549190	0.156642	-0.000003
C20	C	1.675204	0.159662	-0.000012
C21	C	1.334731	0.371102	-0.000016
C22	C	1.337751	0.497115	-0.000025
N23	N	1.341724	0.163638	0.425676
N24	N	1.341746	0.163636	-0.425678
