data_functionalizedCrystal
_audit_creation_method	'MofGen! by Chris Wilmer'
_symmetry_space_group_name_H-M	'P1'
_symmetry_Int_Tables_number	1
_symmetry_cell_setting	triclinic
loop_
_symmetry_equiv_pos_as_xyz
  x,y,z
_cell_length_a	14.853558
_cell_length_b	14.853567
_cell_length_c	13.330367
_cell_angle_alpha	90.005342
_cell_angle_beta	90.002539
_cell_angle_gamma	83.633032
loop_
_atom_site_label
_atom_site_type_symbol
_atom_site_fract_x
_atom_site_fract_y
_atom_site_fract_z
O1	O	1.196362	0.117657	-0.083403
O2	O	0.933902	0.131687	-0.083406
O3	O	1.072143	-0.006558	-0.083407
O4	O	1.058121	0.255902	-0.083401
O5	O	1.072146	-0.006548	0.083440
O6	O	0.933905	0.131698	0.083441
O7	O	1.196366	0.117667	0.083445
Cu8	Cu	1.065136	0.124683	0.098677
Cu9	Cu	1.065132	0.124671	-0.098639
O10	O	1.058125	0.255912	0.083446
C11	C	0.900314	0.131058	0.000017
C12	C	0.800230	0.129158	0.000015
C13	C	0.753208	0.128261	-0.090937
C14	C	0.753210	0.128261	0.090966
C15	C	0.659177	0.126471	0.090968
C16	C	0.612155	0.125574	0.000015
C17	C	0.659166	0.126467	-0.090938
C18	C	0.612159	0.125568	0.181920
C19	C	0.518120	0.123777	0.181925
C20	C	0.471095	0.122886	0.090972
C21	C	0.518113	0.123781	0.000014
C22	C	0.471091	0.122884	-0.090938
C23	C	0.518105	0.123785	-0.181897
C24	C	0.612142	0.125577	-0.181892
C25	C	0.377059	0.121094	0.090967
C26	C	0.377049	0.121090	-0.090939
C27	C	1.071509	-0.040141	0.000013
C28	C	1.069605	-0.140225	0.000005
C29	C	0.979439	-0.552756	0.000022
C30	C	1.143673	-0.574042	0.000025
C31	C	1.145463	-0.480009	0.000019
C32	C	1.064240	-0.422344	0.000016
C33	C	0.981227	-0.458713	0.000020
C34	C	1.228474	-0.443632	0.000026
C35	C	1.230268	-0.349593	0.000021
C36	C	1.149044	-0.291927	0.000011
C37	C	1.066027	-0.328301	0.000013
C38	C	0.984805	-0.270637	0.000011
C39	C	0.901787	-0.307009	0.000006
C40	C	0.900003	-0.401047	0.000010
C41	C	1.150828	-0.197890	0.000007
C42	C	0.986592	-0.176594	0.000008
C43	C	1.229953	0.118296	0.000019
C44	C	1.330037	0.120197	0.000015
C45	C	1.058758	0.289496	0.000023
C46	C	1.060662	0.389580	0.000025
N47	N	1.065129	0.124656	-0.237420
C48	C	1.010516	0.069793	-0.710046
C49	C	1.119771	0.179582	-0.710009
C50	C	1.119767	0.179577	-0.604990
C51	C	1.065139	0.124678	-0.552495
C52	C	1.010513	0.069784	-0.605018
C53	C	1.174398	0.234462	-0.552459
C54	C	1.174398	0.234459	-0.447435
C55	C	1.119764	0.179564	-0.394937
C56	C	1.065136	0.124669	-0.447467
C57	C	1.010507	0.069771	-0.394971
C58	C	0.955873	0.014880	-0.447499
C59	C	0.955879	0.014890	-0.552521
C60	C	1.119758	0.179554	-0.289916
C61	C	1.010504	0.069762	-0.289943
N62	N	1.065145	0.124692	0.237459
H63	H	0.650453	0.126290	0.255968
H64	H	1.164243	0.224242	-0.247152
H65	H	0.832414	-0.430670	0.000007
H66	H	0.791491	0.128998	-0.164993
H67	H	0.911399	-0.029823	-0.404744
H68	H	0.911401	-0.029801	-0.595298
H69	H	1.218419	-0.168279	0.000018
Br70	Br	0.675953	0.126789	-0.305324
H71	H	0.966032	0.025105	-0.752819
H72	H	0.966014	0.025060	-0.247209
Br73	Br	0.817027	0.129474	0.214395
H74	H	0.338769	0.120365	-0.165005
H75	H	0.479849	0.123042	0.255989
H76	H	0.338783	0.120369	0.165024
Br77	Br	0.454282	0.122541	-0.305327
Br78	Br	0.876355	-0.098341	-0.000008
H79	H	0.835656	-0.260047	0.000011
H80	H	1.164252	0.224272	-0.752756
H81	H	1.218880	0.279152	-0.595209
Br82	Br	1.248539	0.308955	-0.376156
H83	H	0.911848	-0.582375	0.000014
H84	H	1.209801	-0.620998	0.000035
Br85	Br	1.342931	-0.300238	0.000012
H86	H	1.294601	-0.490589	0.000037
