data_functionalizedCrystal
_audit_creation_method	'MofGen! by Chris Wilmer'
_symmetry_space_group_name_H-M	'P1'
_symmetry_Int_Tables_number	1
_symmetry_cell_setting	triclinic
loop_
_symmetry_equiv_pos_as_xyz
  x,y,z
_cell_length_a	12.827893
_cell_length_b	29.839131
_cell_length_c	12.827885
_cell_angle_alpha	90.036820
_cell_angle_beta	90.019462
_cell_angle_gamma	90.041391
loop_
_atom_site_label
_atom_site_type_symbol
_atom_site_fract_x
_atom_site_fract_y
_atom_site_fract_z
Zn1	Zn	1.597483	-0.178832	0.590798
Zn2	Zn	1.597297	-0.253969	0.416036
Zn3	Zn	1.422723	-0.178854	0.416071
Zn4	Zn	1.422630	-0.253936	0.590736
O5	O	1.510033	-0.216398	0.503410
O6	O	1.743694	-0.188804	0.567626
O7	O	1.574100	-0.244028	0.269805
O8	O	1.446022	-0.115984	0.439289
O9	O	1.743557	-0.244007	0.439230
O10	O	1.574417	-0.115968	0.567660
O11	O	1.445842	-0.188841	0.269830
O12	O	1.276475	-0.188809	0.439230
O13	O	1.445863	-0.243950	0.736981
O14	O	1.276406	-0.243971	0.567556
O15	O	1.574327	-0.188771	0.737026
O16	O	1.574010	-0.316832	0.439170
O17	O	1.445683	-0.316807	0.567522
C18	C	1.238523	-0.216389	0.503390
C19	C	1.122370	-0.216396	0.503407
C20	C	1.509844	-0.333120	0.503359
C21	C	1.509859	-0.383055	0.503371
C22	C	1.070579	-0.243735	0.566808
C23	C	0.950529	-0.243743	0.566827
C24	C	1.576974	-0.692698	0.436675
C25	C	1.577103	-0.880371	0.436716
O26	O	1.634017	-0.904636	0.379969
N27	N	1.510250	-0.903840	0.503489
C28	C	1.443364	-0.880387	0.570262
O29	O	1.386511	-0.904655	0.627065
C30	C	1.443241	-0.692715	0.570226
C31	C	1.510092	-0.669249	0.503441
C32	C	1.643820	-0.669232	0.369897
C33	C	1.643783	-0.622317	0.369883
C34	C	1.576901	-0.598867	0.436648
C35	C	1.510055	-0.622333	0.503427
C36	C	1.376361	-0.669263	0.637003
C37	C	1.376338	-0.622342	0.636990
C38	C	1.443189	-0.598876	0.570205
C39	C	1.443135	-0.551969	0.570179
N40	N	1.509988	-0.528500	0.503406
C41	C	1.576871	-0.551949	0.436641
C42	C	1.443432	-0.978918	0.570274
C43	C	1.443461	-1.025835	0.570282
C44	C	1.577202	-1.025816	0.436738
C45	C	1.577167	-0.978898	0.436725
C46	C	1.510285	-0.955449	0.503501
C47	C	1.576788	-0.453424	0.436617
C48	C	1.576742	-0.406504	0.436606
C49	C	1.443005	-0.406527	0.570154
C50	C	1.443047	-0.453443	0.570161
C51	C	1.509947	-0.476890	0.503389
O52	O	1.386259	-0.527675	0.626905
O53	O	1.633732	-0.527674	0.379862
C54	C	1.577011	-0.739614	0.436689
C55	C	1.510165	-0.763080	0.503468
C56	C	1.443283	-0.739630	0.570233
C57	C	1.510195	-0.809997	0.503476
C58	C	1.577078	-0.833447	0.436710
C59	C	1.643931	-0.809978	0.369937
C60	C	1.643894	-0.763063	0.369924
C61	C	1.376429	-0.763099	0.637006
C62	C	1.376471	-0.810014	0.637013
C63	C	1.443353	-0.833464	0.570248
C64	C	1.782603	-0.216407	0.503431
C65	C	1.898756	-0.216410	0.503440
C66	C	1.510105	-0.216354	0.775981
C67	C	1.510136	-0.216336	0.892134
C68	C	1.510251	-0.099219	0.503485
C69	C	1.510344	-0.049285	0.503517
C70	C	1.510022	-0.216408	0.231900
C71	C	1.510193	-0.216300	0.115748
C72	C	1.573639	-0.243614	1.063950
C73	C	1.573609	-0.243633	0.943900
H74	H	1.115115	-0.267133	0.621079
H75	H	0.943289	-0.193005	0.449153
H76	H	1.321919	-0.688361	0.691381
C77	C	1.302927	-0.835824	0.710481
C78	C	1.348193	-0.868029	0.792577
C79	C	1.274660	-0.893838	0.866049
C80	C	1.155861	-0.887442	0.857424
C81	C	1.110589	-0.855235	0.775325
C82	C	1.184122	-0.829427	0.701853
H83	H	1.436140	-0.872766	0.798965
H84	H	1.308174	-0.917679	0.926825
H85	H	1.101428	-0.906547	0.911812
H86	H	1.022642	-0.850499	0.768937
H87	H	1.150608	-0.805585	0.641077
C88	C	1.646995	-0.275226	0.883733
C89	C	1.720518	-0.306845	0.943609
C90	C	1.793907	-0.338439	0.883440
C91	C	1.793772	-0.338414	0.763394
C92	C	1.720246	-0.306793	0.703511
C93	C	1.646857	-0.275199	0.763681
H94	H	1.720621	-0.306865	1.032480
H95	H	1.848335	-0.361847	0.927770
H96	H	1.848098	-0.361801	0.718854
H97	H	1.720143	-0.306773	0.614641
H98	H	1.592428	-0.251792	0.719351
H99	H	0.905989	-0.267150	0.621104
C100	C	1.062216	-0.184782	0.430090
C101	C	0.987223	-0.149569	0.475601
C102	C	0.927072	-0.117954	0.402282
C103	C	0.941914	-0.121553	0.283453
C104	C	1.016910	-0.156768	0.237936
C105	C	1.077061	-0.188382	0.311255
H106	H	0.976233	-0.146904	0.563572
H107	H	0.871554	-0.091886	0.435978
H108	H	0.897386	-0.098149	0.229178
H109	H	1.027900	-0.159433	0.149965
H110	H	1.132579	-0.214451	0.277559
H111	H	1.455819	-0.192949	0.936672
C112	C	1.650782	-1.051617	0.363302
C113	C	1.769571	-1.045115	0.371952
C114	C	1.843153	-1.070918	0.298529
C115	C	1.797947	-1.103223	0.216456
C116	C	1.679151	-1.109726	0.207802
C117	C	1.605569	-1.083923	0.281226
H118	H	1.803041	-1.021200	0.432711
H119	H	1.931094	-1.066104	0.304935
H120	H	1.852417	-1.122324	0.162104
H121	H	1.645681	-1.133641	0.147044
H122	H	1.517629	-1.088737	0.274819
C123	C	1.650286	-0.380692	0.363141
C124	C	1.641832	-0.387190	0.244338
C125	C	1.715374	-0.361380	0.170877
C126	C	1.797370	-0.329074	0.216219
C127	C	1.805828	-0.322575	0.335029
C128	C	1.732285	-0.348384	0.408490
H129	H	1.581130	-0.411107	0.210767
H130	H	1.709113	-0.366191	0.082926
H131	H	1.851811	-0.309968	0.161839
H132	H	1.866529	-0.298658	0.368599
H133	H	1.738546	-0.343573	0.496440
C134	C	1.369916	-1.051645	0.643739
C135	C	1.296355	-1.025845	0.717180
C136	C	1.222812	-1.051652	0.790644
C137	C	1.222831	-1.103260	0.790667
C138	C	1.296395	-1.129063	0.717224
C139	C	1.369938	-1.103256	0.643759
H140	H	1.296338	-0.987639	0.717165
H141	H	1.168355	-1.032551	0.845012
H142	H	1.168391	-1.122364	0.845050
H143	H	1.296412	-1.167269	0.717239
H144	H	1.424395	-1.122357	0.589392
C145	C	1.650370	-0.479211	0.363162
C146	C	1.641888	-0.472796	0.244357
C147	C	1.715463	-0.498584	0.170896
C148	C	1.797520	-0.530786	0.216240
C149	C	1.806005	-0.537202	0.335051
C150	C	1.732430	-0.511415	0.408512
H151	H	1.581142	-0.448957	0.210785
H152	H	1.709181	-0.493834	0.082944
H153	H	1.851984	-0.549875	0.161860
H154	H	1.866751	-0.561041	0.368623
H155	H	1.738712	-0.516164	0.496464
C156	C	1.436777	-0.184727	1.055601
C157	C	1.482174	-0.149499	0.980564
C158	C	1.408755	-0.117925	0.920420
C159	C	1.289940	-0.121579	0.935313
C160	C	1.244538	-0.156808	1.010353
C161	C	1.317956	-0.188382	1.070497
H162	H	1.570133	-0.146793	0.969537
H163	H	1.442366	-0.091846	0.864871
H164	H	1.235591	-0.098206	0.890791
H165	H	1.156578	-0.159514	1.021380
H166	H	1.284346	-0.214461	1.126046
H167	H	1.698222	-0.603213	0.315504
C168	C	1.717398	-0.695020	0.296444
C169	C	1.708919	-0.688600	0.177640
C170	C	1.782496	-0.714384	0.104176
C171	C	1.864552	-0.746588	0.149514
C172	C	1.873034	-0.753010	0.268324
C173	C	1.799457	-0.727226	0.341789
H174	H	1.648174	-0.664760	0.144073
H175	H	1.776217	-0.709631	0.016225
H176	H	1.919018	-0.765675	0.095131
H177	H	1.933780	-0.776850	0.301892
H178	H	1.805736	-0.731979	0.429740
H179	H	1.631603	-0.959794	0.382344
H180	H	1.388966	-0.959829	0.624653
H181	H	1.321877	-0.603252	0.691370
H182	H	1.388615	-0.472550	0.624546
H183	H	1.388547	-0.387427	0.624511
C184	C	1.302849	-0.737310	0.710452
C185	C	1.184063	-0.743824	0.701813
C186	C	1.110473	-0.718039	0.775261
C187	C	1.155670	-0.685739	0.857350
C188	C	1.274462	-0.679223	0.865993
C189	C	1.348052	-0.705009	0.792545
H190	H	1.150600	-0.767736	0.641042
H191	H	1.022535	-0.722862	0.768863
H192	H	1.101194	-0.666651	0.911721
H193	H	1.307925	-0.655311	0.926764
H194	H	1.435990	-0.700185	0.798944
H195	H	1.698330	-0.743960	0.315541
H196	H	1.698387	-0.829079	0.315572
H197	H	1.627975	-0.266985	1.108482
