data_functionalizedCrystal
_audit_creation_method	'MofGen! by Chris Wilmer'
_symmetry_space_group_name_H-M	'P1'
_symmetry_Int_Tables_number	1
_symmetry_cell_setting	triclinic
loop_
_symmetry_equiv_pos_as_xyz
  x,y,z
_cell_length_a	10.065875
_cell_length_b	10.723024
_cell_length_c	10.723024
_cell_angle_alpha	84.467869
_cell_angle_beta	98.874314
_cell_angle_gamma	81.168913
loop_
_atom_site_label
_atom_site_type_symbol
_atom_site_fract_x
_atom_site_fract_y
_atom_site_fract_z
O1	O	0.113481	-1.675288	-0.156842
O2	O	0.113485	-1.312136	-0.173595
O3	O	0.113478	-1.502088	0.016357
O4	O	0.113488	-1.485336	-0.346794
O5	O	-0.113509	-1.465868	-0.020011
O6	O	-0.113502	-1.275917	-0.209963
O7	O	-0.113506	-1.639068	-0.193210
Zn8	Zn	-0.149543	-1.451742	-0.207361
Zn9	Zn	0.149522	-1.499463	-0.159444
O10	O	-0.113499	-1.449117	-0.383162
C11	C	-0.000008	-1.247527	-0.190560
C12	C	-0.000006	-1.108973	-0.186912
N13	N	-0.353648	-1.419182	-0.240061
C14	C	-0.000014	-1.482759	0.044673
C15	C	-0.000009	-1.479112	0.183228
C16	C	-0.421429	-1.488127	-0.170814
C17	C	-0.578595	-1.463078	-0.195991
N18	N	0.353627	-1.532032	-0.126734
C19	C	-0.000010	-1.703678	-0.176245
C20	C	-0.000003	-1.842234	-0.179892
C21	C	-0.000002	-1.033991	-0.293199
C22	C	-0.000001	-0.890788	-0.289431
C23	C	-0.000004	-1.468446	-0.411477
C24	C	0.000000	-1.472094	-0.550031
C25	C	-0.000009	-1.585400	0.258210
C26	C	-0.000004	-1.581633	0.401415
H27	H	-0.363108	-1.565693	-0.092884
H28	H	-0.636913	-1.385498	-0.273917
H29	H	0.000002	-0.906660	-0.088895
N30	N	-0.569129	-1.634791	-0.023509
H31	H	-0.593906	-1.719616	-0.042388
H32	H	-0.593961	-1.615371	0.061130
N33	N	-0.000000	-1.089366	-0.417440
H34	H	-0.084145	-1.129347	-0.437337
H35	H	0.084200	-1.156147	-0.410288
N36	N	-0.430887	-1.316420	-0.343277
H37	H	-0.532213	-1.313090	-0.346629
H38	H	-0.405980	-1.335786	-0.427904
H39	H	0.000008	-0.826357	-0.380420
N40	N	-0.000022	-1.053578	-0.062682
H41	H	0.084120	-1.013593	-0.042785
H42	H	-0.000078	-1.123349	0.007653
N43	N	-0.000026	-1.709636	0.202827
H44	H	-0.000036	-1.694715	0.108375
H45	H	-0.084182	-1.745212	0.218119
N46	N	-0.000018	-1.702167	0.486747
H47	H	-0.000017	-1.682391	0.576950
H48	H	0.084126	-1.765812	0.483609
H49	H	-0.000010	-1.381097	0.385542
H50	H	0.000001	-1.385328	0.225052
