data_functionalizedCrystal
_audit_creation_method	'MofGen! by Chris Wilmer'
_symmetry_space_group_name_H-M	'P1'
_symmetry_Int_Tables_number	1
_symmetry_cell_setting	triclinic
loop_
_symmetry_equiv_pos_as_xyz
  x,y,z
_cell_length_a	19.077105
_cell_length_b	16.120484
_cell_length_c	19.077174
_cell_angle_alpha	95.281307
_cell_angle_beta	85.483752
_cell_angle_gamma	90.738523
loop_
_atom_site_label
_atom_site_type_symbol
_atom_site_fract_x
_atom_site_fract_y
_atom_site_fract_z
Zn1	Zn	1.077028	-0.405078	-0.458497
Zn2	Zn	1.066713	-0.538658	-0.346101
Zn3	Zn	0.954893	-0.393424	-0.335415
Zn4	Zn	0.953609	-0.538603	-0.459216
O5	O	1.013061	-0.468941	-0.399807
O6	O	1.174108	-0.427698	-0.447758
O7	O	1.048100	-0.514538	-0.245834
O8	O	0.975948	-0.278308	-0.346969
O9	O	1.166530	-0.525838	-0.365181
O10	O	1.065680	-0.286870	-0.437397
O11	O	0.965946	-0.407835	-0.237983
O12	O	0.856274	-0.407782	-0.347667
O13	O	0.973761	-0.525745	-0.557970
O14	O	0.855331	-0.514445	-0.438623
O15	O	1.064436	-0.427645	-0.557441
O16	O	1.046856	-0.655312	-0.365879
O17	O	0.963759	-0.655272	-0.448984
C18	C	0.830276	-0.459844	-0.392064
C19	C	0.752080	-0.455973	-0.388769
C20	C	1.004068	-0.685543	-0.408685
C21	C	1.000287	-0.778211	-0.412510
C22	C	0.714864	-0.509765	-0.434509
C23	C	0.641391	-0.506117	-0.431416
C24	C	0.605135	-0.448680	-0.382579
C25	C	0.642355	-0.394883	-0.336836
C26	C	0.715827	-0.398527	-0.339933
C27	C	0.385448	-0.431813	-0.368249
C28	C	0.311971	-0.428174	-0.365154
C29	C	0.311012	-0.539408	-0.459734
C30	C	0.384485	-0.543051	-0.462824
C31	C	0.421700	-0.489250	-0.417085
N32	N	0.530033	-0.444952	-0.379414
N33	N	0.496800	-0.492975	-0.420253
C34	C	0.993387	-0.947877	-0.419507
C35	C	1.032861	-0.989171	-0.380125
C36	C	1.029022	-1.083579	-0.384018
C37	C	0.997225	-0.853460	-0.415614
C38	C	1.196559	-0.478074	-0.407581
C39	C	1.274755	-0.481966	-0.410894
C40	C	1.020106	-0.477989	-0.584053
C41	C	1.023108	-0.481845	-0.662568
C42	C	1.022108	-0.251494	-0.390911
C43	C	1.025963	-0.158832	-0.387120
C44	C	0.981747	-0.428103	-0.695366
C45	C	0.984565	-0.431733	-0.769139
C46	C	1.028748	-0.489101	-0.810112
C47	C	1.070110	-0.542848	-0.777309
C48	C	1.067288	-0.539222	-0.703537
C49	C	1.041771	-0.505907	-1.031184
C50	C	1.044591	-0.509528	-1.104961
C51	C	0.959044	-0.398413	-1.096786
C52	C	0.956230	-0.394788	-1.023013
C53	C	0.997589	-0.448538	-0.990216
N54	N	1.031631	-0.492811	-0.885520
N55	N	0.994702	-0.444832	-0.914810
C56	C	1.006086	-0.459870	-0.216277
C57	C	1.003230	-0.455786	-0.137759
H58	H	0.744379	-0.556538	-0.474275
C59	C	0.756764	-0.339355	-0.289620
H60	H	0.724649	-0.304630	-0.260088
H61	H	0.787970	-0.305834	-0.316417
H62	H	0.782921	-0.371098	-0.261307
C63	C	1.118716	-0.605949	-0.822374
H64	H	1.142941	-0.637439	-0.792272
H65	H	1.151796	-0.576994	-0.851143
H66	H	1.091393	-0.642352	-0.851500
C67	C	0.943837	-0.995891	-0.468999
H68	H	0.919575	-0.957570	-0.493201
H69	H	0.910819	-1.027060	-0.442027
H70	H	0.970553	-1.032664	-0.502313
C71	C	0.600454	-0.565337	-0.481689
H72	H	0.632568	-0.600086	-0.511200
H73	H	0.574276	-0.533644	-0.510016
H74	H	0.569267	-0.598843	-0.454852
H75	H	1.080573	-0.556245	-1.138320
H76	H	0.945773	-0.381383	-0.662010
H77	H	0.282453	-0.381393	-0.325388
H78	H	0.950882	-0.387973	-0.795840
H79	H	0.280704	-0.583208	-0.496974
C80	C	0.426374	-0.372649	-0.317925
H81	H	0.394255	-0.337931	-0.288390
H82	H	0.457584	-0.339119	-0.344709
H83	H	0.452525	-0.404403	-0.289615
H84	H	1.069539	-0.953621	-0.343484
C85	C	0.424363	-0.606225	-0.516549
H86	H	0.391676	-0.637735	-0.543353
H87	H	0.450480	-0.642592	-0.492174
H88	H	0.455528	-0.577319	-0.547277
C89	C	0.907634	-0.331677	-0.977948
H90	H	0.883402	-0.300191	-1.008048
H91	H	0.934964	-0.295283	-0.948828
H92	H	0.874548	-0.360624	-0.949172
C93	C	1.087276	-0.565018	-0.995117
H94	H	1.114000	-0.599693	-1.030086
H95	H	1.057759	-0.598593	-0.966682
H96	H	1.118157	-0.533229	-0.966336
H97	H	0.925371	-0.354653	-1.123497
H98	H	0.612829	-0.348113	-0.297075
C99	C	1.112785	-0.598338	-0.667459
H100	H	1.139507	-0.633020	-0.702425
H101	H	1.083258	-0.631906	-0.639027
H102	H	1.143667	-0.566557	-0.638674
