data_functionalizedCrystal
_audit_creation_method	'MofGen! by Chris Wilmer'
_symmetry_space_group_name_H-M	'P1'
_symmetry_Int_Tables_number	1
_symmetry_cell_setting	triclinic
loop_
_symmetry_equiv_pos_as_xyz
  x,y,z
_cell_length_a	10.723023
_cell_length_b	23.532357
_cell_length_c	9.198806
_cell_angle_alpha	89.991292
_cell_angle_beta	89.996513
_cell_angle_gamma	83.647920
loop_
_atom_site_label
_atom_site_type_symbol
_atom_site_fract_x
_atom_site_fract_y
_atom_site_fract_z
O1	O	1.654669	0.079870	-0.120897
O2	O	1.291275	0.087516	-0.120905
O3	O	1.483963	0.000831	-0.120871
O4	O	1.461981	0.166556	-0.120931
O5	O	1.483947	0.000831	0.120914
O6	O	1.291260	0.087516	0.120880
O7	O	1.654654	0.079870	0.120888
Cu8	Cu	1.472955	0.083693	0.142961
Cu9	Cu	1.472973	0.083693	-0.142978
O10	O	1.461966	0.166555	0.120854
C11	C	1.244785	0.086960	-0.000013
C12	C	1.106284	0.085295	-0.000015
C13	C	1.044527	0.084553	0.125236
C14	C	0.901378	0.082833	0.125237
C15	C	1.483405	-0.020389	0.000026
C16	C	1.481752	-0.083619	0.000039
C17	C	1.471383	-0.475697	-0.131836
C18	C	1.469811	-0.535107	-0.131845
O19	O	1.468963	-0.565829	-0.243933
N20	N	1.469024	-0.564823	-0.000049
C21	C	1.469795	-0.535126	0.131763
O22	O	1.468980	-0.565857	0.243864
C23	C	1.471357	-0.475717	0.131770
C24	C	1.472158	-0.446004	-0.000034
C25	C	1.472181	-0.445984	-0.263629
C26	C	1.473755	-0.386579	-0.263620
C27	C	1.474530	-0.356886	-0.131819
C28	C	1.473731	-0.386599	-0.000025
C29	C	1.472120	-0.446021	0.263580
C30	C	1.473681	-0.386607	0.263576
C31	C	1.474481	-0.356895	0.131772
C32	C	1.476080	-0.297501	0.131785
N33	N	1.476867	-0.267785	-0.000010
C34	C	1.476092	-0.297477	-0.131812
C35	C	1.466512	-0.659889	0.131738
C36	C	1.464958	-0.719297	0.131733
C37	C	1.464972	-0.719274	-0.131875
C38	C	1.466535	-0.659865	-0.131868
C39	C	1.467299	-0.630173	-0.000057
C40	C	1.479398	-0.172722	-0.131783
C41	C	1.480977	-0.113311	-0.131763
C42	C	1.480956	-0.113340	0.131844
C43	C	1.479384	-0.172745	0.131825
C44	C	1.478601	-0.202435	-0.000001
O45	O	1.476924	-0.266741	0.243816
O46	O	1.476891	-0.266738	-0.243894
C47	C	1.701143	0.080427	-0.000007
C48	C	1.839645	0.082091	-0.000015
C49	C	1.462524	0.187776	-0.000047
C50	C	1.464177	0.251005	-0.000070
N51	N	1.472952	0.083693	0.344075
N52	N	1.472987	0.083689	-0.344092
C53	C	1.553861	0.047135	0.416286
C54	C	1.553880	0.047133	0.583698
H55	H	1.097633	0.085188	0.232467
Br56	Br	0.812867	0.081776	0.303976
H57	H	0.892745	0.082733	-0.107253
Br58	Br	1.474832	-0.346263	-0.442507
H59	H	1.623154	0.015837	0.645797
H60	H	1.471470	-0.470203	0.370909
Br61	Br	1.017787	0.084225	-0.178752
Br62	Br	1.482071	-0.072991	-0.310651
Br63	Br	1.478334	-0.213005	-0.310690
H64	H	1.403692	0.114987	0.406190
H65	H	1.471546	-0.470154	-0.370964
H66	H	1.467184	-0.635677	-0.239194
Br67	Br	1.357532	0.135864	0.552423
Br68	Br	1.463913	-0.759582	-0.310751
H69	H	1.467138	-0.635717	0.239082
Br70	Br	1.463902	-0.759616	0.310617
Br71	Br	1.474716	-0.346314	0.442473
Br72	Br	1.478327	-0.213073	0.310702
H73	H	1.481593	-0.089154	0.239154
Br74	Br	1.668983	-0.005175	0.312769
