data_functionalizedCrystal
_audit_creation_method	'MofGen! by Chris Wilmer'
_symmetry_space_group_name_H-M	'P1'
_symmetry_Int_Tables_number	1
_symmetry_cell_setting	triclinic
loop_
_symmetry_equiv_pos_as_xyz
  x,y,z
_cell_length_a	6.817900
_cell_length_b	11.102244
_cell_length_c	16.255661
_cell_angle_alpha	93.853574
_cell_angle_beta	103.488922
_cell_angle_gamma	108.604870
loop_
_atom_site_label
_atom_site_type_symbol
_atom_site_fract_x
_atom_site_fract_y
_atom_site_fract_z
V1	V	-4.052933	-0.176865	-0.263869
O2	O	-4.013087	0.007443	-0.258848
O3	O	-4.030105	-0.349678	-0.262062
O4	O	-4.004160	-0.174608	-0.378952
O5	O	-4.039211	-0.168839	-0.141149
V6	V	-4.533296	-0.154765	-0.249191
O7	O	-4.321124	-0.225343	-0.296066
O8	O	-4.715302	-0.106287	-0.216993
O9	O	-4.332917	0.018048	-0.250998
O10	O	-4.690538	-0.339073	-0.254212
O11	O	-4.664414	-0.162791	-0.371911
O12	O	-4.358862	-0.157022	-0.134107
C13	C	-3.881339	-0.391791	-0.257899
C14	C	-3.943959	-0.533071	-0.257189
C15	C	-3.930414	-0.581003	-0.179357
C16	C	-3.989265	-0.713752	-0.178699
C17	C	-4.075195	-0.750628	-0.333712
C18	C	-4.016359	-0.617881	-0.334369
C19	C	-3.880795	-0.559714	-0.089861
C20	C	-3.939646	-0.692463	-0.089204
C21	C	-3.848243	-0.168471	-0.407003
C22	C	-3.889818	-0.167769	-0.501084
C23	C	-3.799132	-0.159385	-0.723903
C24	C	-3.971590	-0.267594	-0.793378
C25	C	-3.966008	-0.166453	-0.673333
C26	C	-3.867656	-0.057005	-0.771495
C27	C	-4.039586	-0.165176	-0.839716
C28	C	-4.137962	-0.274759	-0.741577
C29	C	-4.033952	-0.064074	-0.719680
C30	C	-4.206551	-0.172314	-0.789135
C31	C	-3.923616	-0.167190	-0.577483
C32	C	-4.081997	-0.164449	-0.935565
C33	C	-4.145026	0.060154	-0.255159
C34	C	-4.061645	0.201433	-0.255874
C35	C	-4.178122	-0.163163	-0.106052
C36	C	-4.115784	-0.163859	-0.011970
H37	H	-3.796013	-0.715335	-0.051428
O38	O	-3.667696	-0.496373	-0.053043
C39	C	-3.619853	-0.363693	-0.055877
H40	H	-3.746809	-0.348786	-0.109695
H41	H	-3.455131	-0.321576	-0.068020
H42	H	-3.618929	-0.313428	0.007791
O43	O	-4.065096	0.038432	-0.681338
C44	C	-4.229650	-0.005511	-0.640218
H45	H	-4.336841	-0.107867	-0.671083
H46	H	-4.329822	0.059972	-0.646827
H47	H	-4.155355	-0.004172	-0.569496
H48	H	-4.379239	-0.177810	-0.817481
O49	O	-3.731512	0.052761	-0.787592
C50	C	-3.517495	0.059124	-0.754262
H51	H	-3.509614	-0.002560	-0.701117
H52	H	-3.411413	0.163125	-0.727304
H53	H	-3.458397	0.021954	-0.807412
O54	O	-3.940474	-0.370099	-0.831747
C55	C	-3.778541	-0.326168	-0.874131
H56	H	-3.765657	-0.225420	-0.888887
H57	H	-3.820696	-0.394064	-0.936424
H58	H	-3.618333	-0.323497	-0.831356
O59	O	-4.145815	-0.833151	-0.408632
C60	C	-4.356385	-0.917181	-0.416909
H61	H	-4.385888	-0.923113	-0.350855
H62	H	-4.376830	-1.016947	-0.448348
H63	H	-4.476707	-0.879434	-0.458218
O64	O	-4.029574	-0.571531	-0.410048
C65	C	-4.106140	-0.674857	-0.478026
H66	H	-4.071895	-0.761824	-0.453372
H67	H	-4.021697	-0.645942	-0.530179
H68	H	-4.286736	-0.700357	-0.505495
H69	H	-4.251837	-0.366886	-0.728109
O70	O	-4.006750	-0.512801	-0.053068
C71	C	-4.121004	-0.456190	-0.112865
H72	H	-4.032372	-0.427443	-0.163834
H73	H	-4.134118	-0.367167	-0.078666
H74	H	-4.288909	-0.528181	-0.144446
O75	O	-4.115815	-0.739719	-0.059655
C76	C	-4.072878	-0.678811	0.024769
H77	H	-3.891947	-0.639675	0.055191
H78	H	-4.153640	-0.751283	0.063709
H79	H	-4.138327	-0.596223	0.023677
H80	H	-3.626588	-0.154059	-0.695422
