data_functionalizedCrystal
_audit_creation_method	'MofGen! by Chris Wilmer'
_symmetry_space_group_name_H-M	'P1'
_symmetry_Int_Tables_number	1
_symmetry_cell_setting	triclinic
loop_
_symmetry_equiv_pos_as_xyz
  x,y,z
_cell_length_a	21.295417
_cell_length_b	21.295420
_cell_length_c	10.686551
_cell_angle_alpha	85.601698
_cell_angle_beta	94.412210
_cell_angle_gamma	89.972078
loop_
_atom_site_label
_atom_site_type_symbol
_atom_site_fract_x
_atom_site_fract_y
_atom_site_fract_z
Zn1	Zn	-0.223300	-0.989668	0.713493
Zn2	Zn	0.276700	-0.489668	1.213493
Zn3	Zn	-0.336663	-0.981492	0.502460
Zn4	Zn	0.163337	-0.481492	1.002460
Zn5	Zn	-0.231406	-0.876314	0.502496
Zn6	Zn	0.268594	-0.376314	1.002496
Zn7	Zn	-0.328534	-0.884358	0.713403
Zn8	Zn	0.171466	-0.384358	1.213403
O9	O	-0.279976	-0.932958	0.607963
O10	O	0.220024	-0.432958	1.107963
O11	O	-0.238348	-1.076674	0.685522
O12	O	0.261652	-0.576674	1.185522
O13	O	-0.329495	-0.960752	0.325881
O14	O	0.170505	-0.460752	0.825881
O15	O	-0.142239	-0.891407	0.530537
O16	O	0.357761	-0.391407	1.030537
O17	O	-0.321635	-1.070667	0.530476
O18	O	0.178365	-0.570667	1.030476
O19	O	-0.136284	-0.974687	0.685556
O20	O	0.363716	-0.474687	1.185556
O21	O	-0.252163	-0.883479	0.325907
O22	O	0.247837	-0.383479	0.825907
O23	O	-0.244280	-0.789291	0.530450
O24	O	0.255720	-0.289291	1.030450
O25	O	-0.307780	-0.905115	0.889999
O26	O	0.192220	-0.405115	1.389999
O27	O	-0.315640	-0.795200	0.685403
O28	O	0.184360	-0.295200	1.185403
O29	O	-0.230465	-0.982486	0.890065
O30	O	0.269535	-0.482486	1.390065
O31	O	-0.423677	-0.968551	0.530390
O32	O	0.076323	-0.468551	1.030390
O33	O	-0.417704	-0.897187	0.685369
O34	O	0.082296	-0.397187	1.185369
C35	C	-0.279958	-0.769405	0.607922
C36	C	0.220042	-0.269405	1.107922
C37	C	-0.279965	-0.699437	0.607934
C38	C	0.220035	-0.199437	1.107934
C39	C	-0.317200	-0.203070	0.688546
C40	C	0.182800	0.296930	1.188546
C41	C	-0.317202	-0.268812	0.688535
C42	C	0.182798	0.231188	1.188535
C43	C	-0.279980	-0.298600	0.607983
C44	C	0.220020	0.201400	1.107983
C45	C	-0.242767	-0.262639	0.527414
C46	C	0.257233	0.237361	1.027414
C47	C	-0.242771	-0.196898	0.527418
C48	C	0.257229	0.303102	1.027418
N49	N	-0.225229	-0.401477	0.598499
N50	N	0.274771	0.098523	1.098499
N51	N	-0.225226	-0.463929	0.598502
N52	N	0.274774	0.036071	1.098502
C53	C	-0.279966	-0.496674	0.607962
C54	C	0.220034	0.003326	1.107962
N55	N	-0.334709	-0.464608	0.617444
N56	N	0.165291	0.035392	1.117444
N57	N	-0.334711	-0.402151	0.617448
N58	N	0.165289	0.097849	1.117448
C59	C	-0.279972	-0.369885	0.607969
C60	C	0.220028	0.130115	1.107969
C61	C	-0.317183	-0.603911	0.688508
C62	C	0.182817	-0.103911	1.188508
C63	C	-0.317186	-0.669654	0.688488
C64	C	0.182814	-0.169654	1.188488
C65	C	-0.242744	-0.663480	0.527373
C66	C	0.257256	-0.163480	1.027373
C67	C	-0.242747	-0.597738	0.527387
C68	C	0.257253	-0.097738	1.027387
C69	C	-0.279965	-0.567958	0.607961
C70	C	0.220035	-0.067958	1.107961
C71	C	-0.443530	-0.932873	0.607893
C72	C	0.056470	-0.432873	1.107893
C73	C	-0.513498	-0.932896	0.607905
C74	C	-0.013498	-0.432896	1.107905
C75	C	-0.549450	-0.970094	0.527290
C76	C	-0.049450	-0.470094	1.027290
C77	C	-0.615192	-0.970125	0.527319
C78	C	-0.115192	-0.470125	1.027319
C79	C	-0.644979	-0.932945	0.607949
C80	C	-0.144979	-0.432945	1.107949
C81	C	-0.609018	-0.895744	0.688580
C82	C	-0.109018	-0.395744	1.188580
C83	C	-0.543277	-0.895720	0.688558
C84	C	-0.043277	-0.395720	1.188558
N85	N	-0.747874	-0.878246	0.617555
N86	N	-0.247874	-0.378246	1.117555
N87	N	-0.810325	-0.878271	0.617568
N88	N	-0.310325	-0.378271	1.117568
C89	C	-0.843051	-0.933018	0.608021
C90	C	-0.343051	-0.433018	1.108021
N91	N	-0.810968	-0.987740	0.598436
N92	N	-0.310968	-0.487740	1.098436
N93	N	-0.748511	-0.987714	0.598416
N94	N	-0.248511	-0.487714	1.098416
C95	C	-0.716263	-0.932968	0.607982
C96	C	-0.216263	-0.432968	1.107982
C97	C	-0.950288	-0.970253	0.527433
C98	C	-0.450288	-0.470253	1.027433
C99	C	-1.016030	-0.970285	0.527470
C100	C	-0.516030	-0.470285	1.027470
C101	C	-1.009855	-0.895899	0.688724
C102	C	-0.509855	-0.395899	1.188724
C103	C	-0.944114	-0.895873	0.688694
C104	C	-0.444114	-0.395873	1.188694
C105	C	-0.914334	-0.933049	0.608041
C106	C	-0.414334	-0.433049	1.108041
C107	C	-0.115782	-0.933062	0.608061
C108	C	0.384218	-0.433062	1.108061
C109	C	-0.045812	-0.933106	0.608102
C110	C	0.454188	-0.433106	1.108102
C111	C	-0.267312	-0.945610	0.937098
C112	C	0.232688	-0.445610	1.437098
C113	C	-0.261915	-0.951001	1.077356
C114	C	0.238085	-0.451001	1.577356
C115	C	-0.279991	-0.097150	0.607997
C116	C	0.220009	0.402850	1.107997
C117	C	-0.279989	-0.167118	0.607992
C118	C	0.220011	0.332882	1.107992
C119	C	-0.292545	-0.920392	0.280108
C120	C	0.207455	-0.420392	0.780108
C121	C	-0.297765	-0.915122	0.139851
C122	C	0.202235	-0.415122	0.639851
H123	H	-0.212461	-0.286896	0.461826
H124	H	0.287539	0.213104	0.961826
H125	H	-0.514004	-0.865428	0.754206
H126	H	-0.014004	-0.365428	1.254206
O127	O	-0.517336	-1.010199	0.440313
O128	O	-0.017336	-0.510199	0.940313
H129	H	-0.489899	-0.979571	0.376040
H130	H	0.010101	-0.479571	0.876040
H131	H	-0.633274	-0.865474	0.754231
H132	H	-0.133274	-0.365474	1.254231
H133	H	-0.227095	-0.985848	1.131160
H134	H	0.272905	-0.485848	1.631160
H135	H	-0.212467	-0.167625	0.461821
H136	H	0.287533	0.332375	0.961821
O137	O	-0.357323	-0.708432	0.775382
O138	O	0.142677	-0.208432	1.275382
H139	H	-0.351074	-0.759149	0.761835
H140	H	0.148926	-0.259149	1.261835
H141	H	-0.347509	-0.178827	0.754152
H142	H	0.152491	0.321173	1.254152
O143	O	-0.918160	-1.010356	0.440467
O144	O	-0.418160	-0.510356	0.940467
H145	H	-0.954207	-1.036238	0.384429
H146	H	-0.454207	-0.536238	0.884429
O147	O	-0.202610	-0.695602	0.440470
O148	O	0.297390	-0.195602	0.940470
H149	H	-0.176739	-0.659553	0.384445
H150	H	0.323261	-0.159553	0.884445
O151	O	-0.653982	-1.010241	0.440357
O152	O	-0.153982	-0.510241	0.940357
H153	H	-0.622230	-1.036084	0.384265
H154	H	-0.122230	-0.536084	0.884265
H155	H	-0.332587	-0.880282	1.086053
H156	H	0.167413	-0.380282	1.586053
O157	O	-1.054813	-1.010407	0.440515
O158	O	-0.554813	-0.510407	0.940515
H159	H	-1.023058	-1.036246	0.384424
H160	H	-0.523058	-0.536246	0.884424
O161	O	-1.041971	-0.855793	0.775688
O162	O	-0.541971	-0.355793	1.275688
H163	H	-1.093726	-0.862056	0.762156
H164	H	-0.593726	-0.362056	1.262156
O165	O	-0.202610	-0.558959	0.440500
O166	O	0.297390	-0.058959	0.940500
H167	H	-0.208871	-0.508241	0.454025
H168	H	0.291129	-0.008241	0.954025
O169	O	-0.357332	-0.307603	0.775432
O170	O	0.142668	0.192397	1.275432
H171	H	-0.383209	-0.275850	0.831466
H172	H	0.116791	0.224150	1.331466
O173	O	-0.905331	-0.855734	0.775610
O174	O	-0.405331	-0.355734	1.275610
H175	H	-0.937086	-0.829877	0.831670
H176	H	-0.437086	-0.329877	1.331670
O177	O	-0.357348	-0.571781	0.775357
O178	O	0.142652	-0.071781	1.275357
H179	H	-0.383241	-0.607828	0.831343
H180	H	0.116759	-0.107828	1.331343
