data_functionalizedCrystal
_audit_creation_method	'MofGen! by Chris Wilmer'
_symmetry_space_group_name_H-M	'P1'
_symmetry_Int_Tables_number	1
_symmetry_cell_setting	triclinic
loop_
_symmetry_equiv_pos_as_xyz
  x,y,z
_cell_length_a	13.635800
_cell_length_b	27.923496
_cell_length_c	27.676329
_cell_angle_alpha	80.188257
_cell_angle_beta	94.720753
_cell_angle_gamma	98.963946
loop_
_atom_site_label
_atom_site_type_symbol
_atom_site_fract_x
_atom_site_fract_y
_atom_site_fract_z
V1	V	-1.903468	-0.067818	0.151578
O2	O	-1.910900	0.002548	0.148377
O3	O	-1.868838	-0.133788	0.150845
O4	O	-1.836413	-0.067087	0.217548
O5	O	-1.943549	-0.064615	0.081212
V6	V	-2.152186	-0.059365	0.143125
O7	O	-2.018837	-0.086361	0.170121
O8	O	-2.261916	-0.040821	0.124582
O9	O	-2.075213	0.006605	0.143858
O10	O	-2.203453	-0.129730	0.146326
O11	O	-2.170804	-0.062568	0.213491
O12	O	-2.107638	-0.060096	0.077155
V13	V	-1.403468	-0.067818	0.151578
O14	O	-1.410900	0.002548	0.148377
O15	O	-1.368838	-0.133788	0.150845
O16	O	-1.336413	-0.067087	0.217548
O17	O	-1.443549	-0.064615	0.081212
V18	V	-1.652186	-0.059365	0.143125
O19	O	-1.518837	-0.086361	0.170121
O20	O	-1.761916	-0.040821	0.124582
O21	O	-1.575213	0.006605	0.143858
O22	O	-1.703453	-0.129730	0.146326
O23	O	-1.670804	-0.062568	0.213491
O24	O	-1.607638	-0.060096	0.077155
C25	C	-1.790188	-0.149860	0.148532
C26	C	-1.802232	-0.203793	0.148373
C27	C	-1.966075	-0.540728	0.149867
C28	C	-2.011389	-0.743434	0.149290
O29	O	-2.092987	-0.771759	0.151305
N30	N	-1.927991	-0.766298	0.146783
C31	C	-1.833257	-0.738482	0.144424
O32	O	-1.763360	-0.762580	0.142284
C33	C	-1.787943	-0.535777	0.145005
C34	C	-1.871349	-0.512915	0.147507
C35	C	-2.049474	-0.517866	0.152369
C36	C	-2.038145	-0.467192	0.152511
C37	C	-1.943419	-0.439380	0.150151
C38	C	-1.860021	-0.462241	0.147648
C39	C	-1.693209	-0.507962	0.142650
C40	C	-1.681888	-0.457283	0.142796
C41	C	-1.765294	-0.434422	0.145298
C42	C	-1.753966	-0.383755	0.145430
N43	N	-1.837365	-0.360891	0.147936
C44	C	-1.932091	-0.388704	0.150297
C45	C	-1.857053	-0.844905	0.144118
C46	C	-1.868382	-0.895580	0.143972
C47	C	-2.046514	-0.900530	0.148839
C48	C	-2.035185	-0.849852	0.148981
C49	C	-1.940452	-0.822041	0.146625
C50	C	-1.908294	-0.282285	0.150594
C51	C	-1.896958	-0.231606	0.150733
C52	C	-1.718827	-0.226661	0.145869
C53	C	-1.730163	-0.277335	0.145727
C54	C	-1.824904	-0.305146	0.148091
O55	O	-1.672400	-0.355400	0.143421
O56	O	-2.001972	-0.364598	0.152447
C57	C	-1.977403	-0.591402	0.149726
C58	C	-1.894005	-0.614263	0.147224
C59	C	-1.799279	-0.586451	0.144863
C60	C	-1.905333	-0.664939	0.147077
C61	C	-2.000060	-0.692752	0.149438
C62	C	-2.083458	-0.669888	0.151944
C63	C	-2.072130	-0.619214	0.152086
C64	C	-1.715881	-0.609314	0.142357
C65	C	-1.727216	-0.659988	0.142215
C66	C	-1.821943	-0.687801	0.144575
C67	C	-1.748827	-0.064776	0.233618
C68	C	-1.734575	-0.064615	0.287551
C69	C	-1.985535	0.022675	0.146170
C70	C	-1.963108	0.076607	0.146333
C71	C	-2.026897	-0.062408	0.061083
C72	C	-2.030768	-0.062567	0.007149
C73	C	-1.290188	-0.149860	0.148532
C74	C	-1.302232	-0.203793	0.148373
C75	C	-1.654438	-0.108136	0.629136
C76	C	-1.600922	-0.107559	0.831842
O77	O	-1.600959	-0.145298	0.864120
N78	N	-1.586095	-0.063024	0.850055
C79	C	-1.584655	-0.018630	0.817588
O80	O	-1.570826	0.019263	0.837730
C81	C	-1.638178	-0.019208	0.614883
C82	C	-1.652995	-0.063745	0.596673
C83	C	-1.669255	-0.152670	0.610925
C84	C	-1.682628	-0.152813	0.560251
C85	C	-1.681184	-0.108423	0.527788
C86	C	-1.666368	-0.063889	0.545999
C87	C	-1.636745	0.025186	0.582417
C88	C	-1.650130	0.025037	0.531738
C89	C	-1.664946	-0.019501	0.513528
C90	C	-1.678297	-0.019642	0.462862
N91	N	-1.693123	-0.064177	0.444649
C92	C	-1.694567	-0.108567	0.477112
C93	C	-1.556553	-0.018330	0.924011
C94	C	-1.543170	-0.018185	0.974687
C95	C	-1.559440	-0.107114	0.988938
C96	C	-1.572816	-0.107258	0.938261
C97	C	-1.571379	-0.062865	0.905798
C98	C	-1.722650	-0.108866	0.370693
C99	C	-1.736019	-0.109005	0.320014
C100	C	-1.719753	-0.020077	0.305768
C101	C	-1.706380	-0.019937	0.356442
C102	C	-1.707832	-0.064335	0.388904
O103	O	-1.678283	0.018077	0.430556
O104	O	-1.708418	-0.146455	0.456961
C105	C	-1.641065	-0.107992	0.679810
C106	C	-1.626249	-0.063458	0.698020
C107	C	-1.624805	-0.019068	0.665557
C108	C	-1.612866	-0.063313	0.748696
C109	C	-1.614310	-0.107704	0.781159
C110	C	-1.629136	-0.152239	0.762947
C111	C	-1.642509	-0.152382	0.712273
C112	C	-1.609979	0.025468	0.683770
C113	C	-1.596605	0.025608	0.734444
C114	C	-1.598049	-0.018783	0.766907
C115	C	-1.530376	-0.062411	1.061083
C116	C	-1.544614	-0.062576	1.007150
C117	C	-1.248827	-0.064776	0.233618
C118	C	-1.234575	-0.064615	0.287551
C119	C	-1.485535	0.022675	0.146170
C120	C	-1.463108	0.076607	0.146333
C121	C	-1.944262	-0.065071	-0.015701
C122	C	-1.947884	-0.065214	-0.066378
C123	C	-2.038014	-0.062857	-0.094203
C124	C	-2.124526	-0.060352	-0.071349
C125	C	-2.120902	-0.060205	-0.020674
C126	C	-1.396958	-0.231606	0.150733
C127	C	-1.408287	-0.282283	0.150590
C128	C	-1.324888	-0.305146	0.148084
C129	C	-1.230154	-0.277330	0.145725
C130	C	-1.218826	-0.226654	0.145871
C131	C	-1.316928	-0.066969	0.315362
C132	C	-1.303549	-0.066812	0.366037
C133	C	-1.207818	-0.064303	0.388900
C134	C	-1.125459	-0.061946	0.361085
C135	C	-1.138838	-0.062101	0.310410
C136	C	-1.540875	0.104419	0.143974
C137	C	-1.519816	0.155096	0.144119
C138	C	-1.420990	0.177960	0.146626
C139	C	-1.343219	0.150144	0.148984
C140	C	-1.364278	0.099468	0.148835
H141	H	-1.964882	-0.212994	0.152768
C142	C	-1.611679	-0.578726	0.139756
H143	H	-1.563641	-0.599604	0.138239
H144	H	-1.597135	-0.563410	0.168152
H145	H	-1.609968	-0.554299	0.111261
H146	H	-1.621350	0.085811	0.141932
H147	H	-1.334127	-0.346410	0.147965
H148	H	-1.670436	-0.188820	0.637353
C149	C	-1.193110	-0.064134	0.444642
H150	H	-1.124301	-0.062299	0.454278
H151	H	-1.228176	-0.093442	0.461582
H152	H	-1.217768	-0.036549	0.452452
C153	C	-1.278726	0.068879	0.151439
H154	H	-1.216858	0.089756	0.152959
H155	H	-1.283441	0.053565	0.123041
H156	H	-1.283088	0.044449	0.179932
H157	H	-1.985439	-0.304923	0.152519
C158	C	-1.488701	-0.206463	0.153493
H159	H	-1.468402	-0.172298	0.153238
H160	H	-1.520738	-0.220350	0.182914
H161	H	-1.533563	-0.211228	0.126022
H162	H	-1.583154	0.177737	0.142199
C163	C	-1.138424	-0.302482	0.142963
H164	H	-1.080378	-0.278663	0.141580
H165	H	-1.145563	-0.317586	0.114360
H166	H	-1.132733	-0.326710	0.171251
C167	C	-1.852719	-0.067977	-0.091507
H168	H	-1.798530	-0.069368	-0.067673
H169	H	-1.839021	-0.039692	-0.115732
H170	H	-1.861892	-0.096583	-0.106609
C171	C	-1.114624	-0.196064	0.143266
H172	H	-1.066586	-0.216942	0.141747
H173	H	-1.100078	-0.180749	0.171663
H174	H	-1.112916	-0.171636	0.114771
H175	H	-2.126613	-0.540506	0.154293
C176	C	-2.129891	-0.442053	0.155275
H177	H	-2.187921	-0.465882	0.156666
H178	H	-2.135601	-0.417825	0.126991
H179	H	-2.122761	-0.426952	0.183883
C180	C	-1.020185	-0.059317	0.386258
H181	H	-0.973052	-0.057972	0.362445
H182	H	-1.016662	-0.087644	0.410451
H183	H	-1.005895	-0.030743	0.401407
C184	C	-2.126930	-0.824710	0.151735
H185	H	-2.184964	-0.848536	0.153121
H186	H	-2.132624	-0.800483	0.123450
H187	H	-2.119812	-0.809606	0.180342
C188	C	-1.752325	-0.157999	0.299986
H189	H	-1.751280	-0.184415	0.326581
H190	H	-1.700920	-0.158351	0.278930
H191	H	-1.814852	-0.161459	0.282099
H192	H	-1.071772	-0.060184	0.287770
C193	C	-1.630728	-0.201067	0.798662
H194	H	-1.620648	-0.194598	0.831450
H195	H	-1.579302	-0.217809	0.791707
H196	H	-1.693235	-0.220914	0.794871
H197	H	-1.394885	-0.069014	0.296755
H198	H	-1.403857	0.219223	0.146746
H199	H	-2.123646	-0.923182	0.150756
C200	C	-1.845111	-0.067658	0.014896
H201	H	-1.794115	-0.069164	-0.005978
H202	H	-1.851430	-0.096145	0.039330
H203	H	-1.828604	-0.039252	0.030204
C204	C	-2.041990	-0.063025	-0.149943
H205	H	-1.977559	-0.064859	-0.159562
H206	H	-2.064005	-0.033719	-0.166892
H207	H	-2.086848	-0.090611	-0.157761
H208	H	-1.800464	-0.914189	0.141929
H209	H	-1.718577	0.016065	0.279327
C210	C	-1.752843	-0.814317	0.141520
H211	H	-1.704807	-0.835195	0.140002
H212	H	-1.738300	-0.799004	0.169919
H213	H	-1.751130	-0.789887	0.113027
H214	H	-1.625290	-0.526566	0.140609
H215	H	-1.262754	0.168767	0.151025
H216	H	-1.370621	-0.068732	0.388678
H217	H	-1.654572	-0.188650	0.697451
C218	C	-1.577680	-0.426693	0.140199
H219	H	-1.529638	-0.447569	0.138684
H220	H	-1.563145	-0.411377	0.168596
H221	H	-1.575968	-0.402265	0.111704
H222	H	-2.160590	-0.692541	0.153862
C223	C	-1.638421	-0.302483	0.142971
H224	H	-1.580383	-0.278659	0.141587
H225	H	-1.645543	-0.317595	0.114372
H226	H	-1.632728	-0.326705	0.171265
C227	C	-2.223663	-0.057766	-0.101959
H228	H	-2.213424	-0.058218	-0.135410
H229	H	-2.247951	-0.028301	-0.099242
H230	H	-2.270776	-0.085194	-0.090115
H231	H	-2.191350	-0.058170	-0.002072
H232	H	-1.485431	-0.304924	0.152510
H233	H	-2.140049	-0.600605	0.154123
C234	C	-1.635462	-0.685130	0.139464
H235	H	-1.577426	-0.661305	0.138084
H236	H	-1.642572	-0.700241	0.110865
H237	H	-1.629772	-0.709352	0.167758
H238	H	-1.723834	-0.145019	0.397119
H239	H	-1.584535	0.061878	0.749265
H240	H	-1.584878	-0.143525	0.923438
C241	C	-1.698937	-0.201805	0.540227
H242	H	-1.697889	-0.228219	0.566825
H243	H	-1.647536	-0.202161	0.519170
H244	H	-1.761467	-0.205267	0.522342
C245	C	-1.561034	-0.155944	1.024652
H246	H	-1.571777	-0.182492	1.006552
H247	H	-1.613114	-0.159286	1.046301
H248	H	-1.499183	-0.156180	1.043131
C249	C	-1.526873	0.030806	0.994713
H250	H	-1.527944	0.057220	0.968117
H251	H	-1.464355	0.034274	1.012602
H252	H	-1.578291	0.031152	1.015768
H253	H	-1.641702	-0.204007	0.143945
H254	H	-1.555380	0.017823	0.897584
H255	H	-1.624676	0.061453	0.597233
H256	H	-1.648961	0.061188	0.505308
H257	H	-1.694321	0.016329	0.371269
H258	H	-1.608803	0.061616	0.657342
