data_functionalizedCrystal
_audit_creation_method	'MofGen! by Chris Wilmer'
_symmetry_space_group_name_H-M	'P1'
_symmetry_Int_Tables_number	1
_symmetry_cell_setting	triclinic
loop_
_symmetry_equiv_pos_as_xyz
  x,y,z
_cell_length_a	21.395364
_cell_length_b	29.839131
_cell_length_c	29.839109
_cell_angle_alpha	89.879167
_cell_angle_beta	89.927972
_cell_angle_gamma	90.037185
loop_
_atom_site_label
_atom_site_type_symbol
_atom_site_fract_x
_atom_site_fract_y
_atom_site_fract_z
Zn1	Zn	0.958106	-0.178510	-0.254009
Zn2	Zn	1.458106	0.321490	0.245991
Zn3	Zn	0.957902	-0.253757	-0.178879
Zn4	Zn	1.457902	0.246243	0.321121
Zn5	Zn	0.853235	-0.178636	-0.178891
Zn6	Zn	1.353235	0.321364	0.321109
Zn7	Zn	0.853271	-0.253608	-0.253980
Zn8	Zn	1.353271	0.246392	0.246020
O9	O	0.905629	-0.216128	-0.216440
O10	O	1.405629	0.283872	0.283560
O11	O	1.045757	-0.188501	-0.244050
O12	O	1.545757	0.311499	0.255950
O13	O	0.943917	-0.243907	-0.116013
O14	O	1.443917	0.256093	0.383987
O15	O	0.867216	-0.115752	-0.188873
O16	O	1.367216	0.384248	0.311127
O17	O	1.045607	-0.243785	-0.188852
O18	O	1.545607	0.256215	0.311148
O19	O	0.944265	-0.115659	-0.244062
O20	O	1.444265	0.384341	0.255938
O21	O	0.867018	-0.188717	-0.116022
O22	O	1.367018	0.311283	0.383978
O23	O	0.765561	-0.188572	-0.188845
O24	O	1.265561	0.311428	0.311155
O25	O	0.867278	-0.243531	-0.316851
O26	O	1.367278	0.256469	0.183149
O27	O	0.765588	-0.243653	-0.244013
O28	O	1.265588	0.256347	0.255987
O29	O	0.944301	-0.188356	-0.316873
O30	O	1.444301	0.311644	0.183127
O31	O	0.943953	-0.316604	-0.188824
O32	O	1.443953	0.183396	0.311176
O33	O	0.867081	-0.316495	-0.244000
O34	O	1.367081	0.183505	0.256000
C35	C	0.742841	-0.216111	-0.216427
C36	C	1.242841	0.283889	0.283573
C37	C	0.673200	-0.216114	-0.216432
C38	C	1.173200	0.283886	0.283568
C39	C	0.171481	-0.187409	-0.245234
C40	C	0.671481	0.312591	0.254766
C41	C	0.236916	-0.187406	-0.245234
C42	C	0.736916	0.312594	0.254766
C43	C	0.269561	-0.216141	-0.216450
C44	C	0.769561	0.283859	0.283550
C45	C	0.236766	-0.244891	-0.187671
C46	C	0.736766	0.255109	0.312329
C47	C	0.171331	-0.244896	-0.187675
C48	C	0.671331	0.255104	0.312325
C49	C	0.373150	-0.219691	-0.175961
C50	C	0.873150	0.280309	0.324039
C51	C	0.438583	-0.219683	-0.175956
C52	C	0.938583	0.280317	0.324044
C53	C	0.471382	-0.216127	-0.216437
C54	C	0.971382	0.283873	0.283563
C55	C	0.438740	-0.212570	-0.256925
C56	C	0.938740	0.287430	0.243075
C57	C	0.373306	-0.212576	-0.256929
C58	C	0.873306	0.287424	0.243071
C59	C	0.340514	-0.216139	-0.216442
C60	C	0.840514	0.283861	0.283558
C61	C	0.575123	-0.187378	-0.245216
C62	C	1.075123	0.312622	0.254784
C63	C	0.640559	-0.187378	-0.245217
C64	C	1.140559	0.312622	0.254783
C65	C	0.640407	-0.244860	-0.187650
C66	C	1.140407	0.255140	0.312350
C67	C	0.574972	-0.244863	-0.187653
C68	C	1.074972	0.255137	0.312347
C69	C	0.542334	-0.216119	-0.216436
C70	C	1.042334	0.283881	0.283564
C71	C	0.905515	-0.332850	-0.216417
C72	C	1.405515	0.167150	0.283583
C73	C	0.905524	-0.382785	-0.216423
C74	C	1.405524	0.117215	0.283577
C75	C	0.945729	-0.692472	-0.187751
C76	C	1.445729	-0.192472	0.312249
C77	C	0.945806	-0.880145	-0.187769
C78	C	1.445806	-0.380145	0.312231
O79	O	0.979900	-0.904448	-0.163374
O80	O	1.479900	-0.404448	0.336626
N81	N	0.905759	-0.903570	-0.216474
N82	N	1.405759	-0.403570	0.283526
C83	C	0.865692	-0.880073	-0.245178
C84	C	1.365692	-0.380073	0.254822
O85	O	0.831635	-0.904303	-0.269597
O86	O	1.331635	-0.404303	0.230403
C87	C	0.865618	-0.692401	-0.245163
C88	C	1.365618	-0.192401	0.254837
C89	C	0.905664	-0.668979	-0.216453
C90	C	1.405664	-0.168979	0.283547
C91	C	0.985772	-0.669051	-0.159044
C92	C	1.485772	-0.169051	0.340956
C93	C	0.985750	-0.622135	-0.159038
C94	C	1.485750	-0.122135	0.340962
C95	C	0.945685	-0.598642	-0.187740
C96	C	1.445685	-0.098642	0.312260
C97	C	0.905642	-0.622063	-0.216447
C98	C	1.405642	-0.122063	0.283553
C99	C	0.825555	-0.668905	-0.273870
C100	C	1.325555	-0.168905	0.226130
C101	C	0.825541	-0.621984	-0.273864
C102	C	1.325541	-0.121984	0.226136
C103	C	0.865587	-0.598562	-0.245154
C104	C	1.365587	-0.098562	0.254846
C105	C	0.865554	-0.551654	-0.245143
C106	C	1.365554	-0.051654	0.254857
N107	N	0.905602	-0.528230	-0.216438
N108	N	1.405602	-0.028230	0.283562
C109	C	0.945667	-0.551724	-0.187736
C110	C	1.445667	-0.051724	0.312264
C111	C	0.865732	-0.978603	-0.245184
C112	C	1.365732	-0.478603	0.254816
C113	C	0.865750	-1.025521	-0.245187
C114	C	1.365750	-0.525521	0.254813
C115	C	0.945865	-1.025591	-0.187778
C116	C	1.445865	-0.525591	0.312222
C117	C	0.945844	-0.978672	-0.187773
C118	C	1.445844	-0.478672	0.312227
C119	C	0.905780	-0.955179	-0.216479
C120	C	1.405780	-0.455179	0.283521
C121	C	0.945617	-0.453198	-0.187726
C122	C	1.445617	0.046802	0.312274
C123	C	0.945590	-0.406278	-0.187721
C124	C	1.445590	0.093722	0.312279
C125	C	0.865477	-0.406213	-0.245132
C126	C	1.365477	0.093787	0.254868
C127	C	0.865502	-0.453129	-0.245135
C128	C	1.365502	0.046871	0.254865
C129	C	0.905577	-0.476620	-0.216431
C130	C	1.405577	0.023380	0.283569
O131	O	0.831484	-0.527323	-0.269528
O132	O	1.331484	-0.027323	0.230472
O133	O	0.979728	-0.527486	-0.163328
O134	O	1.479728	-0.027486	0.336672
C135	C	0.945751	-0.739388	-0.187757
C136	C	1.445751	-0.239388	0.312243
C137	C	0.905708	-0.762810	-0.216464
C138	C	1.405708	-0.262810	0.283536
C139	C	0.865643	-0.739316	-0.245166
C140	C	1.365643	-0.239316	0.254834
C141	C	0.905726	-0.809728	-0.216468
C142	C	1.405726	-0.309728	0.283532
C143	C	0.945791	-0.833221	-0.187766
C144	C	1.445791	-0.333221	0.312234
C145	C	0.985838	-0.809797	-0.159061
C146	C	1.485838	-0.309797	0.340939
C147	C	0.985816	-0.762881	-0.159055
C148	C	1.485816	-0.262881	0.340945
C149	C	0.825595	-0.762740	-0.273871
C150	C	1.325595	-0.262740	0.226129
C151	C	0.825620	-0.809656	-0.273874
C152	C	1.325620	-0.309656	0.226126
C153	C	0.865685	-0.833150	-0.245172
C154	C	1.365685	-0.333150	0.254828
C155	C	1.069052	-0.216145	-0.216453
C156	C	1.569052	0.283855	0.283547
C157	C	1.138693	-0.216153	-0.216458
C158	C	1.638693	0.283847	0.283542
C159	C	0.905816	-0.215913	-0.333618
C160	C	1.405816	0.284087	0.166382
C161	C	0.905896	-0.215821	-0.383553
C162	C	1.405896	0.284179	0.116447
C163	C	0.905759	-0.098949	-0.216472
C164	C	1.405759	0.401051	0.283528
C165	C	0.905815	-0.049015	-0.216486
C166	C	1.405815	0.450985	0.283514
C167	C	0.905478	-0.216310	-0.099717
C168	C	1.405478	0.283690	0.400283
C169	C	0.905519	-0.216275	-0.049782
C170	C	1.405519	0.283725	0.450218
C171	C	0.865871	-0.244995	0.259997
C172	C	1.365871	0.255005	0.759997
C173	C	0.865982	-0.244867	0.447670
C174	C	1.365982	0.255133	0.947670
O175	O	0.832122	-0.269444	0.472051
O176	O	1.332122	0.230556	0.972051
N177	N	0.905807	-0.215919	0.471002
N178	N	1.405807	0.284081	0.971002
C179	C	0.945604	-0.186997	0.447413
C180	C	1.445604	0.313003	0.947413
O181	O	0.979475	-0.162368	0.471564
O182	O	1.479475	0.337632	0.971564
C183	C	0.945490	-0.187123	0.259741
C184	C	1.445490	0.312877	0.759741
C185	C	0.905667	-0.216077	0.236411
C186	C	1.405667	0.283923	0.736411
C187	C	0.826051	-0.273946	0.236668
C188	C	1.326051	0.226054	0.736668
C189	C	0.826026	-0.273980	0.189753
C190	C	1.326026	0.226020	0.689753
C191	C	0.865822	-0.245062	0.166167
C192	C	1.365822	0.254938	0.666167
C193	C	0.905642	-0.216110	0.189496
C194	C	1.405642	0.283890	0.689496
C195	C	0.985283	-0.158200	0.236152
C196	C	1.485283	0.341800	0.736152
C197	C	0.985250	-0.158233	0.189231
C198	C	1.485250	0.341767	0.689231
C199	C	0.945427	-0.187187	0.165902
C200	C	1.445427	0.312813	0.665902
C201	C	0.945412	-0.187226	0.118994
C202	C	1.445412	0.312774	0.618994
N203	N	0.905587	-0.216175	0.095663
N204	N	1.405587	0.283825	0.595663
C205	C	0.865792	-0.245093	0.119249
C206	C	1.365792	0.254907	0.619249
C207	C	0.945662	-0.186934	0.545943
C208	C	1.445662	0.313066	1.045943
C209	C	0.945692	-0.186903	0.592861
C210	C	1.445692	0.313097	1.092861
C211	C	0.866069	-0.244773	0.593115
C212	C	1.366069	0.255227	1.093115
C213	C	0.866043	-0.244806	0.546197
C214	C	1.366043	0.255194	1.046197
C215	C	0.905837	-0.215883	0.522611
C216	C	1.405837	0.284117	1.022611
C217	C	0.865743	-0.245161	0.020723
C218	C	1.365743	0.254839	0.520723
C219	C	0.865724	-0.245193	-0.026196
C220	C	1.365724	0.254807	0.473804
C221	C	0.945344	-0.187322	-0.026447
C222	C	1.445344	0.312678	0.473553
C223	C	0.945366	-0.187291	0.020469
C224	C	1.445366	0.312709	0.520469
C225	C	0.905561	-0.216212	0.044053
C226	C	1.405561	0.283788	0.544053
O227	O	0.979249	-0.162659	0.094584
O228	O	1.479249	0.337341	0.594584
O229	O	0.831916	-0.269711	0.095090
O230	O	1.331916	0.230289	0.595090
C231	C	0.865896	-0.244962	0.306913
C232	C	1.365896	0.255038	0.806913
C233	C	0.905716	-0.216010	0.330242
C234	C	1.405716	0.283990	0.830242
C235	C	0.945512	-0.187092	0.306656
C236	C	1.445512	0.312908	0.806656
C237	C	0.905746	-0.215979	0.377160
C238	C	1.405746	0.284021	0.877160
C239	C	0.865951	-0.244897	0.400746
C240	C	1.365951	0.255103	0.900746
C241	C	0.826126	-0.273846	0.377414
C242	C	1.326126	0.226154	0.877414
C243	C	0.826101	-0.273880	0.330499
C244	C	1.326101	0.226120	0.830499
C245	C	0.985337	-0.158143	0.329988
C246	C	1.485337	0.341857	0.829988
C247	C	0.985359	-0.158113	0.376903
C248	C	1.485359	0.341887	0.876903
C249	C	0.945563	-0.187031	0.400489
C250	C	1.445563	0.312969	0.900489
H251	H	0.666986	-0.268261	-0.164216
H252	H	1.166986	0.231739	0.335784
H253	H	0.667254	-0.163972	-0.268653
H254	H	1.167254	0.336028	0.231347
H255	H	0.978453	-0.959605	-0.164395
H256	H	1.478453	-0.459605	0.335605
N257	N	0.822304	-0.478394	-0.276095
N258	N	1.322304	0.021606	0.223905
H259	H	0.796918	-0.456390	-0.294275
H260	H	1.296918	0.043610	0.205725
H261	H	0.847828	-0.497794	-0.296906
H262	H	1.347828	0.002206	0.203094
H263	H	1.017653	-0.134678	0.170030
H264	H	1.517653	0.365322	0.670030
H265	H	0.548276	-0.268267	-0.164218
H266	H	1.048276	0.231733	0.335782
N267	N	0.473787	-0.223511	-0.132290
N268	N	0.973787	0.276489	0.367710
H269	H	0.443082	-0.225769	-0.106647
H270	H	0.943082	0.274231	0.393353
H271	H	0.500921	-0.251188	-0.132885
H272	H	1.000921	0.248812	0.367115
H273	H	0.978200	-0.387210	-0.164341
H274	H	1.478200	0.112790	0.335659
N275	N	1.028951	-0.596876	-0.128079
N276	N	1.528951	-0.096876	0.371921
H277	H	1.054336	-0.618885	-0.109902
H278	H	1.554336	-0.118885	0.390098
H279	H	1.057947	-0.577354	-0.146388
H280	H	1.557947	-0.077354	0.353612
N281	N	1.028989	-0.694386	-0.128085
N282	N	1.528989	-0.194386	0.371915
H283	H	1.054350	-0.672422	-0.109902
H284	H	1.554350	-0.172422	0.390098
H285	H	1.003483	-0.713913	-0.107277
H286	H	1.503483	-0.213913	0.392723
H287	H	0.346732	-0.209681	-0.289895
H288	H	0.846732	0.290319	0.210105
N289	N	0.823130	-0.275951	0.618560
N290	N	1.323130	0.224049	1.118560
H291	H	0.797887	-0.294293	0.596665
H292	H	1.297887	0.205707	1.096665
H293	H	0.848819	-0.296601	0.638059
H294	H	1.348819	0.203399	1.138059
H295	H	0.465444	-0.209672	-0.289888
H296	H	0.965444	0.290328	0.210112
N297	N	0.822812	-0.276358	0.046150
N298	N	1.322812	0.223642	0.546150
H299	H	0.848469	-0.297035	0.065644
H300	H	1.348469	0.202965	0.565644
H301	H	0.793624	-0.258209	0.065574
H302	H	1.293624	0.241791	0.565574
N303	N	0.539914	-0.156380	-0.276260
N304	N	1.039914	0.343620	0.223740
H305	H	0.570617	-0.138172	-0.294493
H306	H	1.070617	0.361828	0.205507
H307	H	0.512788	-0.174662	-0.297018
H308	H	1.012788	0.325338	0.202982
H309	H	0.978488	-1.044727	-0.164408
H310	H	1.478488	-0.544727	0.335592
N311	N	0.988324	-0.156069	0.045634
N312	N	1.488324	0.343931	0.545634
H313	H	1.013532	-0.137756	0.023571
H314	H	1.513532	0.362244	0.523571
H315	H	0.962643	-0.135393	0.065071
H316	H	1.462643	0.364607	0.565071
N317	N	1.028313	-0.126880	0.402061
N318	N	1.528313	0.373120	0.902061
H319	H	1.022295	-0.131243	0.435363
H320	H	1.522295	0.368757	0.935363
H321	H	1.073118	-0.133649	0.393825
H322	H	1.573118	0.366351	0.893825
N323	N	0.337777	-0.223531	-0.132297
N324	N	0.837777	0.276469	0.367703
H325	H	0.368382	-0.225779	-0.106649
H326	H	0.868382	0.274221	0.393351
H327	H	0.310639	-0.196162	-0.128176
H328	H	0.810639	0.303838	0.371824
H329	H	0.263349	-0.268289	-0.164236
H330	H	0.763349	0.231711	0.335764
N331	N	0.135963	-0.275899	-0.156636
N332	N	0.635963	0.224101	0.343364
H333	H	0.166569	-0.294105	-0.138401
H334	H	0.666569	0.205895	0.361599
H335	H	0.108790	-0.257620	-0.135880
H336	H	0.608790	0.242380	0.364120
H337	H	0.792970	-0.743616	-0.297244
H338	H	1.292970	-0.243616	0.202756
N339	N	0.823078	-0.276030	0.521043
N340	N	1.323078	0.223970	1.021043
H341	H	0.793864	-0.257932	0.501565
H342	H	1.293864	0.242068	1.001565
H343	H	0.848749	-0.296730	0.501625
H344	H	1.348749	0.203270	1.001625
N345	N	0.988594	-0.155737	0.520515
N346	N	1.488594	0.344263	1.020515
H347	H	1.017785	-0.173856	0.501063
H348	H	1.517785	0.326144	1.001063
H349	H	0.962896	-0.135062	0.501049
H350	H	1.462896	0.364938	1.001049
N351	N	0.782428	-0.834918	-0.304843
N352	N	1.282428	-0.334918	0.195157
H353	H	0.753390	-0.854447	-0.286573
H354	H	1.253390	-0.354447	0.213427
H355	H	0.757088	-0.812885	-0.323018
H356	H	1.257088	-0.312885	0.176982
N357	N	0.988840	-0.478531	-0.156767
N358	N	1.488840	0.021469	0.343233
H359	H	1.014200	-0.456568	-0.138582
H360	H	1.514200	0.043432	0.361418
H361	H	0.963336	-0.498061	-0.135961
H362	H	1.463336	0.001939	0.364039
H363	H	0.833295	-0.268772	-0.045189
H364	H	1.333295	0.231228	0.454811
N365	N	0.822547	-1.050781	-0.276145
N366	N	1.322547	-0.550781	0.223855
H367	H	0.797166	-1.028774	-0.294325
H368	H	1.297166	-0.528774	0.205675
H369	H	0.848064	-1.070186	-0.296956
H370	H	1.348064	-0.570186	0.203044
H371	H	0.793597	-0.297556	0.170762
H372	H	1.293597	0.202444	0.670762
N373	N	1.029047	-0.835141	-0.128100
N374	N	1.529047	-0.335141	0.371900
H375	H	1.022978	-0.868416	-0.132462
H376	H	1.522978	-0.368416	0.367538
H377	H	1.073796	-0.826897	-0.135119
H378	H	1.573796	-0.326897	0.364881
N379	N	0.822514	-0.953268	-0.276145
N380	N	1.322514	-0.453268	0.223855
H381	H	0.797149	-0.975230	-0.294326
H382	H	1.297149	-0.475230	0.205674
H383	H	0.793502	-0.933862	-0.257837
H384	H	1.293502	-0.433862	0.242163
H385	H	0.792942	-0.687967	-0.297246
H386	H	1.292942	-0.187967	0.202754
N387	N	0.782329	-0.596645	-0.304827
N388	N	1.282329	-0.096645	0.195173
H389	H	0.756966	-0.618605	-0.323013
H390	H	1.256966	-0.118605	0.176987
H391	H	0.753314	-0.577240	-0.286521
H392	H	1.253314	-0.077240	0.213479
N393	N	0.783114	-0.305131	0.262103
N394	N	1.283114	0.194869	0.762103
H395	H	0.757884	-0.323470	0.240198
H396	H	1.257884	0.176530	0.740198
H397	H	0.808805	-0.325783	0.281598
H398	H	1.308805	0.174217	0.781598
H399	H	0.832854	-0.387077	-0.268499
H400	H	1.332854	0.112923	0.231501
H401	H	1.017743	-0.134594	0.310789
H402	H	1.517743	0.365406	0.810789
H403	H	0.144911	-0.164006	-0.268673
H404	H	0.644911	0.335994	0.231327
N405	N	1.029012	-0.737623	-0.128092
N406	N	1.529012	-0.237623	0.371908
H407	H	1.054395	-0.759631	-0.109914
H408	H	1.554395	-0.259631	0.390086
H409	H	1.058010	-0.718098	-0.146397
H410	H	1.558010	-0.218098	0.353603
N411	N	0.988653	-0.155681	0.618021
N412	N	1.488653	0.344319	1.118021
H413	H	1.013855	-0.137367	0.595955
H414	H	1.513855	0.362633	1.095955
H415	H	0.962976	-0.135007	0.637461
H416	H	1.462976	0.364993	1.137461
N417	N	1.028236	-0.126971	0.261307
N418	N	1.528236	0.373029	0.761307
H419	H	1.053435	-0.108657	0.239239
H420	H	1.553435	0.391343	0.739239
H421	H	1.002556	-0.106297	0.280745
H422	H	1.502556	0.393703	0.780745
H423	H	0.977746	-0.163779	-0.045659
H424	H	1.477746	0.336221	0.454341
H425	H	0.793673	-0.297457	0.311508
H426	H	1.293673	0.202543	0.811508
H427	H	0.793725	-0.297394	0.396626
H428	H	1.293725	0.202606	0.896626
H429	H	0.263618	-0.163997	-0.268667
H430	H	0.763618	0.336003	0.231333
