data_functionalizedCrystal
_audit_creation_method	'MofGen! by Chris Wilmer'
_symmetry_space_group_name_H-M	'P1'
_symmetry_Int_Tables_number	1
_symmetry_cell_setting	triclinic
loop_
_symmetry_equiv_pos_as_xyz
  x,y,z
_cell_length_a	11.792241
_cell_length_b	10.654550
_cell_length_c	9.730223
_cell_angle_alpha	90.000193
_cell_angle_beta	89.996015
_cell_angle_gamma	84.339159
loop_
_atom_site_label
_atom_site_type_symbol
_atom_site_fract_x
_atom_site_fract_y
_atom_site_fract_z
O1	O	-1.507300	-0.172130	-0.114153
O2	O	-1.177000	-0.189870	-0.114184
O3	O	-1.349744	0.001761	-0.114163
O4	O	-1.334556	-0.363761	-0.114174
O5	O	-1.349742	0.001756	0.114417
O6	O	-1.176998	-0.189875	0.114396
O7	O	-1.507298	-0.172135	0.114427
Zn8	Zn	-1.342148	-0.181006	0.150703
Zn9	Zn	-1.342150	-0.180999	-0.150460
O10	O	-1.334554	-0.363766	0.114406
C11	C	-1.134705	-0.188758	0.000102
C12	C	-1.008684	-0.185423	0.000090
C13	C	-1.348628	0.048553	0.000126
C14	C	-1.345291	0.187987	0.000120
C15	C	-1.549592	-0.173247	0.000138
C16	C	-1.675614	-0.176582	0.000141
C17	C	-0.777958	-0.179290	0.000129
C18	C	-0.906351	-0.182697	0.000107
C19	C	-1.335670	-0.410558	0.000114
C20	C	-1.339006	-0.549992	0.000111
N21	N	-1.342154	-0.181009	0.356240
C22	C	-1.447000	0.267760	0.000134
C23	C	-1.443858	0.398772	0.000124
C24	C	-1.237290	0.370224	0.000092
C25	C	-1.240433	0.239215	0.000093
C26	C	-1.566261	0.284243	0.000159
C27	C	-1.563120	0.415255	0.000149
N28	N	-1.342153	-0.180986	-0.355997
C29	C	-1.418665	-0.096184	0.428175
C30	C	-1.418662	-0.096169	0.572058
C31	C	-1.265633	-0.265815	0.572057
C32	C	-1.265632	-0.265823	0.428177
C33	C	-1.507018	0.001756	0.428177
C34	C	-1.507015	0.001772	0.572060
H35	H	-1.157611	0.174267	0.000062
H36	H	-1.612910	0.255019	-0.095490
H37	H	-1.203321	-0.334884	0.369608
F38	F	-1.610229	0.475056	-0.128844
F39	F	-1.615883	0.237805	0.129173
F40	F	-1.184196	-0.356075	0.648629
F41	F	-1.470964	0.120897	0.630383
F42	F	-1.621849	0.470008	0.125185
F43	F	-1.621020	-0.026022	0.623119
F44	F	-1.614723	-0.037933	0.369850
F45	F	-1.481689	0.127857	0.377125
F46	F	-1.125697	0.424757	0.000059
