data_functionalizedCrystal
_audit_creation_method	'MofGen! by Chris Wilmer'
_symmetry_space_group_name_H-M	'P1'
_symmetry_Int_Tables_number	1
_symmetry_cell_setting	triclinic
loop_
_symmetry_equiv_pos_as_xyz
  x,y,z
_cell_length_a	19.288864
_cell_length_b	9.130313
_cell_length_c	19.288865
_cell_angle_alpha	90.009433
_cell_angle_beta	83.136245
_cell_angle_gamma	90.015800
loop_
_atom_site_label
_atom_site_type_symbol
_atom_site_fract_x
_atom_site_fract_y
_atom_site_fract_z
O1	O	0.921346	0.122286	0.086647
O2	O	1.421346	0.622286	0.586647
O3	O	0.719085	0.122188	0.098336
O4	O	1.219085	0.622188	0.598336
O5	O	0.826060	0.122211	-0.008639
O6	O	1.326060	0.622211	0.491361
O7	O	0.814371	0.122263	0.193622
O8	O	1.314371	0.622263	0.693622
O9	O	0.826056	-0.121388	-0.008641
O10	O	1.326056	0.378612	0.491359
O11	O	0.719081	-0.121411	0.098333
O12	O	1.219081	0.378589	0.598333
O13	O	0.921342	-0.121313	0.086645
O14	O	1.421342	0.378687	0.586645
Cu15	Cu	0.820211	-0.143605	0.092489
Cu16	Cu	1.320211	0.356395	0.592489
Cu17	Cu	0.820216	0.144479	0.092492
Cu18	Cu	1.320216	0.644479	0.592492
O19	O	0.814367	-0.121336	0.193619
O20	O	1.314367	0.378664	0.693619
C21	C	0.693207	0.000375	0.097959
C22	C	1.193207	0.500375	0.597959
C23	C	0.616103	0.000337	0.096830
C24	C	1.116103	0.500337	0.596830
N25	N	0.820213	-0.346227	0.092486
N26	N	1.320213	0.153773	0.592486
C27	C	0.571407	0.000376	0.159598
C28	C	1.071407	0.500376	0.659598
C29	C	0.498960	0.000392	0.158537
C30	C	0.998960	0.500392	0.658537
C31	C	0.471212	0.000398	0.094705
C32	C	0.971212	0.500398	0.594705
C33	C	0.515918	0.000350	0.031929
C34	C	1.015918	0.500350	0.531929
C35	C	0.588364	0.000320	0.032991
C36	C	1.088364	0.500320	0.532991
C37	C	0.362952	0.085778	0.044527
C38	C	0.862952	0.585778	0.544527
C39	C	0.290507	0.085817	0.043467
C40	C	0.790507	0.585817	0.543467
C41	C	0.247767	0.000486	0.091425
C42	C	0.747767	0.500486	0.591425
C43	C	0.277478	-0.084866	0.140455
C44	C	0.777478	0.415134	0.640455
C45	C	0.349923	-0.084897	0.141518
C46	C	0.849923	0.415103	0.641518
C47	C	0.392658	0.000430	0.093546
C48	C	0.892658	0.500430	0.593546
C49	C	0.124514	0.000540	0.153047
C50	C	0.624514	0.500540	0.653047
C51	C	0.052066	0.000547	0.151984
C52	C	0.552066	0.500547	0.651984
C53	C	0.069026	0.000520	0.025374
C54	C	0.569026	0.500520	0.525374
C55	C	0.141473	0.000499	0.026439
C56	C	0.641473	0.500499	0.526439
C57	C	0.169212	0.000516	0.090278
C58	C	0.669212	0.500516	0.590278
C59	C	0.778227	-0.422936	0.050464
C60	C	1.278227	0.077064	0.550464
C61	C	0.778228	-0.576273	0.050467
C62	C	1.278228	-0.076273	0.550467
C63	C	0.862207	-0.576179	0.134516
C64	C	1.362207	-0.076179	0.634516
C65	C	0.862202	-0.422845	0.134516
C66	C	1.362202	0.077155	0.634516
C67	C	0.736237	-0.346318	0.008433
C68	C	1.236237	0.153682	0.508433
C69	C	0.694248	-0.423027	-0.033593
C70	C	1.194248	0.076973	0.466407
C71	C	0.694250	-0.576364	-0.033589
C72	C	1.194250	-0.076364	0.466411
C73	C	0.736240	-0.652992	0.008440
C74	C	1.236240	-0.152992	0.508440
C75	C	0.947220	0.000502	0.087022
C76	C	1.447220	0.500502	0.587022
C77	C	1.024324	0.000551	0.088151
C78	C	1.524324	0.500551	0.588151
C79	C	0.825682	0.000407	-0.034516
C80	C	1.325682	0.500407	0.465484
C81	C	0.824553	0.000393	-0.111620
C82	C	1.324553	0.500393	0.388380
N83	N	0.820220	0.347102	0.092489
N84	N	1.320220	0.847102	0.592489
C85	C	0.887321	0.000416	-0.156316
C86	C	1.387321	0.500416	0.343684
C87	C	0.886260	0.000439	-0.228763
C88	C	1.386260	0.500439	0.271237
C89	C	0.822428	0.000409	-0.256511
C90	C	1.322428	0.500409	0.243489
C91	C	0.759652	0.000394	-0.211805
C92	C	1.259652	0.500394	0.288195
C93	C	0.760714	0.000386	-0.139359
C94	C	1.260714	0.500386	0.360641
C95	C	0.772247	-0.084943	-0.364799
C96	C	1.272247	0.415057	0.135201
C97	C	0.771187	-0.084944	-0.437244
C98	C	1.271187	0.415056	0.062756
C99	C	0.819148	0.000440	-0.479956
C100	C	1.319148	0.500440	0.020044
C101	C	0.868181	0.085806	-0.450217
C102	C	1.368181	0.585806	0.049783
C103	C	0.869243	0.085798	-0.377772
C104	C	1.369243	0.585798	0.122228
C105	C	0.821269	0.000419	-0.335065
C106	C	1.321269	0.500419	0.164935
C107	C	0.880770	0.000490	-0.603209
C108	C	1.380770	0.500490	-0.103209
C109	C	0.879707	0.000522	-0.675657
C110	C	1.379707	0.500522	-0.175657
C111	C	0.753097	0.000462	-0.658697
C112	C	1.253097	0.500462	-0.158697
C113	C	0.754162	0.000445	-0.586250
C114	C	1.254162	0.500445	-0.086250
C115	C	0.818000	0.000452	-0.558511
C116	C	1.318000	0.500452	-0.058511
C117	C	0.814745	0.000471	0.219497
C118	C	1.314745	0.500471	0.719497
C119	C	0.815874	0.000494	0.296601
C120	C	1.315874	0.500494	0.796601
H121	H	0.593987	0.000393	0.211580
H122	H	1.093987	0.500393	0.711580
Br123	Br	0.637258	-0.680466	-0.090615
Br124	Br	1.137258	-0.180466	0.409385
H125	H	0.177866	0.000475	-0.024674
H126	H	0.677866	0.500475	0.475326
Br127	Br	-0.008596	0.000587	0.237177
Br128	Br	0.491404	0.500587	0.737177
H129	H	0.660057	-0.360627	-0.067807
H130	H	1.160057	0.139373	0.432193
H131	H	0.736233	-0.221464	0.008425
H132	H	1.236233	0.278536	0.508425
H133	H	0.266322	0.155322	0.003546
H134	H	0.766322	0.655322	0.503546
Br135	Br	0.675522	0.000359	-0.078695
Br136	Br	1.175522	0.500359	0.421305
H137	H	0.736234	-0.777849	0.008443
H138	H	1.236234	-0.277849	0.508443
H139	H	0.701123	0.000445	-0.681288
H140	H	1.201123	0.500445	-0.181288
H141	H	0.896394	-0.638582	0.168734
H142	H	1.396394	-0.138582	0.668734
H143	H	0.896388	-0.360387	0.168737
H144	H	1.396388	0.139613	0.668737
Br145	Br	0.973958	0.000467	-0.118673
Br146	Br	1.473958	0.500467	0.381327
Br147	Br	0.478263	0.000344	-0.054702
Br148	Br	0.978263	0.500344	0.445298
H149	H	0.909166	0.155309	-0.353561
H150	H	1.409166	0.655309	0.146439
Br151	Br	0.971451	0.000477	-0.289434
Br152	Br	1.471451	0.500477	0.210566
Br153	Br	0.438288	0.000436	0.243728
Br154	Br	0.938288	0.500436	0.743728
H155	H	0.046435	0.000616	-0.026600
H156	H	0.546435	0.500616	0.473400
H157	H	0.624756	0.000289	-0.018124
H158	H	1.124756	0.500289	0.481876
Br159	Br	0.967406	0.000485	-0.565558
Br160	Br	1.467406	0.500485	-0.065558
H161	H	0.397746	0.155274	0.005472
H162	H	0.897746	0.655274	0.505472
H163	H	0.907235	0.155335	-0.484993
H164	H	1.407235	0.655335	0.015007
Br165	Br	0.668972	0.000412	-0.525587
Br166	Br	1.168972	0.500412	-0.025587
Br167	Br	0.704648	-0.200805	-0.477597
Br168	Br	1.204648	0.299195	0.022403
Br169	Br	0.707151	-0.200832	-0.306839
Br170	Br	1.207151	0.299168	0.193161
H171	H	0.374111	-0.154399	0.181437
H172	H	0.874111	0.345601	0.681437
Br173	Br	0.219482	-0.200678	0.205549
Br174	Br	0.719482	0.299322	0.705549
Br175	Br	0.162165	0.000553	0.239683
Br176	Br	0.662165	0.500553	0.739683
H177	H	0.930822	0.000549	-0.712049
H178	H	1.430822	0.500549	-0.212049
H179	H	0.707679	0.000373	-0.234401
H180	H	1.207679	0.500373	0.265599
