data_functionalizedCrystal
_audit_creation_method	'MofGen! by Chris Wilmer'
_symmetry_space_group_name_H-M	'P1'
_symmetry_Int_Tables_number	1
_symmetry_cell_setting	triclinic
loop_
_symmetry_equiv_pos_as_xyz
  x,y,z
_cell_length_a	19.188930
_cell_length_b	9.065218
_cell_length_c	17.666332
_cell_angle_alpha	89.990599
_cell_angle_beta	90.011603
_cell_angle_gamma	95.919667
loop_
_atom_site_label
_atom_site_type_symbol
_atom_site_fract_x
_atom_site_fract_y
_atom_site_fract_z
O1	O	0.102372	-1.956860	0.062960
O2	O	0.110769	-1.527284	0.062962
O3	O	0.005011	-1.754469	0.062946
O4	O	0.208130	-1.729675	0.062976
O5	O	0.005005	-1.754429	-0.062950
O6	O	0.110763	-1.527244	-0.062935
O7	O	0.102366	-1.956820	-0.062936
Cu8	Cu	0.106564	-1.742029	-0.074431
Cu9	Cu	0.106571	-1.742076	0.074457
O10	O	0.208124	-1.729636	-0.062921
C11	C	0.109959	-1.472305	0.000014
C12	C	0.107546	-1.308546	0.000014
C13	C	-0.021009	-1.753646	-0.000004
C14	C	-0.098533	-1.751236	-0.000011
N15	N	0.106558	-1.742006	-0.179150
C16	C	-0.142421	-1.884540	-0.000015
C17	C	-0.215262	-1.882276	-0.000003
C18	C	-0.244212	-1.746699	-0.000002
C19	C	-0.200314	-1.613377	0.000007
C20	C	-0.127474	-1.615646	0.000002
N21	N	-0.353024	-1.643054	-0.042846
N22	N	-0.422220	-1.640908	-0.042843
C23	C	-0.463674	-1.739858	0.000014
N24	N	-0.433320	-1.841056	0.042859
N25	N	-0.364119	-1.843206	0.042853
C26	C	-0.323194	-1.744225	0.000004
C27	C	-0.586546	-1.870716	0.000024
C28	C	-0.659388	-1.868446	0.000041
C29	C	-0.644438	-1.599544	0.000043
C30	C	-0.571598	-1.601818	0.000033
C31	C	-0.542656	-1.737408	0.000020
C32	C	0.234144	-1.730458	0.000032
C33	C	0.311667	-1.732869	0.000043
C34	C	0.103176	-2.011799	0.000014
C35	C	0.105589	-2.175558	0.000018
C36	C	0.059752	-1.842636	-0.218767
C37	C	0.059749	-1.842645	-0.298015
C38	C	0.106564	-1.742038	-0.337642
C39	C	0.153373	-1.641389	-0.298016
C40	C	0.153371	-1.641373	-0.218770
N41	N	0.168222	-1.722860	-0.462052
N42	N	0.168223	-1.722884	-0.537333
C43	C	0.106574	-1.742076	-0.576406
N44	N	0.044923	-1.761273	-0.537356
N45	N	0.044923	-1.761257	-0.462069
C46	C	0.106572	-1.742043	-0.423572
C47	C	0.059760	-1.842721	-0.701953
C48	C	0.059756	-1.842719	-0.781202
C49	C	0.153387	-1.641471	-0.781202
C50	C	0.153385	-1.641465	-0.701954
C51	C	0.106573	-1.742098	-0.662334
N52	N	0.106571	-1.742110	0.179176
H53	H	-0.118862	-1.994948	-0.000023
F54	F	-0.555741	-2.015021	0.000006
F55	F	-0.261980	-2.024162	-0.000006
H56	H	-0.223890	-1.502990	0.000009
F57	F	-0.080763	-1.473758	0.000007
F58	F	-0.675244	-1.455252	0.000048
F59	F	0.203195	-1.534310	-0.340191
H60	H	0.021641	-1.924658	-0.669693
F61	F	-0.706098	-2.010335	0.000041
F62	F	0.203206	-1.534368	-0.659788
F63	F	-0.524886	-1.459935	0.000035
H64	H	0.021633	-1.924574	-0.186511
F65	F	0.203206	-1.534388	-0.823373
H66	H	0.191487	-1.559427	-0.186513
F67	F	0.009929	-1.949755	-0.340185
F68	F	0.009933	-1.949820	-0.823366
