data_functionalizedCrystal
_audit_creation_method	'MofGen! by Chris Wilmer'
_symmetry_space_group_name_H-M	'P1'
_symmetry_Int_Tables_number	1
_symmetry_cell_setting	triclinic
loop_
_symmetry_equiv_pos_as_xyz
  x,y,z
_cell_length_a	12.759401
_cell_length_b	21.295417
_cell_length_c	12.759393
_cell_angle_alpha	90.038123
_cell_angle_beta	90.018496
_cell_angle_gamma	90.029863
loop_
_atom_site_label
_atom_site_type_symbol
_atom_site_fract_x
_atom_site_fract_y
_atom_site_fract_z
Zn1	Zn	1.606146	-0.250569	0.593933
Zn2	Zn	1.605994	-0.355853	0.418233
Zn3	Zn	1.430448	-0.250602	0.418273
Zn4	Zn	1.430390	-0.355805	0.593875
O5	O	1.518245	-0.303208	0.506079
O6	O	1.753147	-0.264542	0.570634
O7	O	1.582668	-0.341926	0.271218
O8	O	1.453842	-0.162509	0.441616
O9	O	1.753035	-0.341894	0.441548
O10	O	1.582927	-0.162484	0.570673
O11	O	1.453695	-0.264598	0.271246
O12	O	1.283419	-0.264551	0.441559
O13	O	1.453744	-0.341811	0.740904
O14	O	1.283377	-0.341843	0.570573
O15	O	1.582871	-0.264495	0.740947
O16	O	1.582613	-0.443936	0.441492
O17	O	1.453597	-0.443901	0.570535
C18	C	1.245277	-0.303196	0.506064
C19	C	1.128501	-0.303206	0.506083
C20	C	1.073644	-0.343516	0.573150
C21	C	0.963920	-0.343524	0.573161
C22	C	0.963919	-0.262910	0.439031
C23	C	1.073641	-0.262899	0.439025
C24	C	1.128504	-0.383823	0.640208
C25	C	1.073647	-0.424137	0.707279
C26	C	0.963923	-0.424145	0.707290
C27	C	0.909056	-0.383839	0.640231
C28	C	1.518111	-0.466759	0.506025
C29	C	1.518150	-0.536727	0.506038
C30	C	1.585325	-0.569524	0.573286
C31	C	1.585362	-0.635267	0.573312
C32	C	1.518235	-0.668210	0.506071
C33	C	1.451046	-0.635405	0.438818
C34	C	1.451003	-0.569664	0.438802
N35	N	1.510296	-0.771479	0.414125
N36	N	1.510342	-0.833930	0.414143
C37	C	1.518357	-0.866284	0.506118
N38	N	1.526345	-0.833828	0.598076
N39	N	1.526304	-0.771371	0.598056
C40	C	1.518273	-0.739495	0.506082
C41	C	1.585577	-0.970367	0.573400
C42	C	1.585607	-1.036111	0.573428
C43	C	1.451296	-1.036248	0.438925
C44	C	1.451260	-0.970505	0.438907
C45	C	1.518407	-0.937569	0.506143
C46	C	1.792278	-0.303220	0.506094
C47	C	1.909054	-0.303225	0.506100
C48	C	1.518318	-0.303144	0.780112
C49	C	1.518350	-0.303117	0.896889
C50	C	1.518408	-0.139017	0.506155
C51	C	1.518477	-0.069049	0.506188
C52	C	1.518232	-0.303225	0.233111
C53	C	1.518404	-0.303075	0.116335
C54	C	1.585595	-0.262855	0.951775
C55	C	1.585620	-0.262832	1.061499
C56	C	1.451151	-0.343339	1.061441
C57	C	1.451122	-0.343358	0.951719
C58	C	1.652823	-0.222613	0.896945
C59	C	1.720075	-0.182348	0.951831
C60	C	1.720100	-0.182325	1.061555
C61	C	1.652873	-0.222568	1.116393
H62	H	1.118328	-0.456949	0.761883
Br63	Br	1.676699	-0.925663	0.664649
H64	H	1.774802	-0.149580	0.907175
Br65	Br	1.652799	-0.222646	0.748034
H66	H	1.396632	-1.063069	0.384183
Br67	Br	1.359923	-0.397951	1.135864
Br68	Br	1.360085	-0.925992	0.347639
Br69	Br	0.889477	-0.478849	0.798324
H70	H	1.396388	-0.662231	0.384073
Br71	Br	0.889456	-0.208213	0.348026
H72	H	1.640309	-1.062813	0.628194
Br73	Br	1.811369	-0.127682	1.136042
Br74	Br	1.652890	-0.222525	1.265306
H75	H	0.819711	-0.383844	0.640254
Br76	Br	1.359854	-0.397998	0.877224
H77	H	1.217847	-0.383822	0.640204
H78	H	1.118306	-0.230070	0.384422
H79	H	1.639997	-0.542709	0.628036
H80	H	1.640056	-0.661975	0.628085
H81	H	1.396299	-0.542960	0.384039
