data_functionalizedCrystal
_audit_creation_method	'MofGen! by Chris Wilmer'
_symmetry_space_group_name_H-M	'P1'
_symmetry_Int_Tables_number	1
_symmetry_cell_setting	triclinic
loop_
_symmetry_equiv_pos_as_xyz
  x,y,z
_cell_length_a	13.339070
_cell_length_b	9.616153
_cell_length_c	13.339070
_cell_angle_alpha	89.995659
_cell_angle_beta	64.370706
_cell_angle_gamma	90.001952
loop_
_atom_site_label
_atom_site_type_symbol
_atom_site_fract_x
_atom_site_fract_y
_atom_site_fract_z
O1	O	1.496804	0.115682	-0.550529
O2	O	1.181995	0.115676	-0.478269
O3	O	1.303269	0.115674	-0.356994
O4	O	1.375529	0.115684	-0.671803
O5	O	1.303259	-0.115617	-0.356980
O6	O	1.181985	-0.115616	-0.478255
O7	O	1.496794	-0.115609	-0.550515
Zn8	Zn	1.339388	-0.152335	-0.514383
Zn9	Zn	1.339401	0.152401	-0.514401
O10	O	1.375519	-0.115608	-0.671790
C11	C	1.140874	0.000029	-0.466056
C12	C	1.018360	0.000027	-0.429672
N13	N	1.339387	-0.360310	-0.514372
C14	C	0.732973	0.000057	-0.712571
C15	C	0.848081	0.000064	-0.746759
C16	C	0.890657	0.000054	-0.667490
C17	C	0.818112	0.000039	-0.554028
C18	C	0.702992	0.000043	-0.519837
C19	C	0.860676	0.000040	-0.474756
C20	C	0.788132	0.000024	-0.361294
C21	C	0.673023	0.000027	-0.327109
C22	C	0.630448	0.000037	-0.406377
C23	C	0.975796	0.000036	-0.508947
C24	C	0.945816	0.000021	-0.316213
C25	C	0.830707	0.000014	-0.282025
C26	C	1.404678	-0.580637	-0.449897
C27	C	1.404344	-0.419470	-0.449492
C28	C	1.217795	-0.418844	-0.457189
C29	C	1.218157	-0.580061	-0.456711
C30	C	1.394771	-0.580180	-0.636069
C31	C	1.397150	-0.418951	-0.636020
C32	C	1.537914	0.000040	-0.562728
C33	C	1.660428	0.000052	-0.599111
C34	C	1.291058	0.000030	-0.315872
C35	C	1.254675	0.000035	-0.193358
N36	N	1.339408	0.360376	-0.514405
C37	C	1.387730	0.000039	-0.712912
C38	C	1.424114	0.000044	-0.835426
C39	C	1.537574	0.000040	0.092030
C40	C	1.571761	0.000027	-0.023079
C41	C	1.492492	0.000030	-0.065654
C42	C	1.379030	0.000044	0.006890
C43	C	1.344839	0.000045	0.122010
C44	C	1.299758	0.000035	-0.035674
C45	C	1.186296	0.000049	0.036871
C46	C	1.152111	0.000051	0.151979
C47	C	1.231380	0.000049	0.194555
C48	C	1.333949	0.000033	-0.150794
C49	C	1.141215	0.000039	-0.120813
C50	C	1.107028	0.000051	-0.005705
H51	H	1.034852	0.000043	-0.601328
H52	H	0.698296	0.000077	-0.777099
H53	H	0.771625	0.000013	-0.189642
O54	O	1.165657	-0.625027	-0.349721
C55	C	1.072985	-0.706699	-0.336564
H56	H	1.045378	-0.678395	-0.403794
H57	H	1.001974	-0.686311	-0.251181
H58	H	1.096665	-0.821431	-0.344079
O59	O	1.002451	-0.000132	-0.700559
C60	C	1.032682	-0.119948	-0.659146
H61	H	0.957590	-0.159890	-0.583176
H62	H	1.102328	-0.093019	-0.634644
H63	H	1.062574	-0.203819	-0.726128
H64	H	1.520335	0.000019	-0.159382
O65	O	1.156688	-0.373071	-0.509942
C66	C	1.064598	-0.296724	-0.434775
H67	H	1.044996	-0.329300	-0.346045
H68	H	0.989487	-0.318208	-0.452066
H69	H	1.084844	-0.180933	-0.445432
O70	O	0.518607	0.000222	-0.373034
C71	C	0.471935	0.120027	-0.308788
H72	H	0.529518	0.159964	-0.272218
H73	H	0.387550	0.093087	-0.238544
H74	H	0.460995	0.203907	-0.363647
H75	H	1.426331	0.000022	-0.209849
O76	O	1.682013	0.000075	-0.093388
C77	C	1.744647	0.000038	-0.031130
H78	H	1.692032	0.043837	0.055314
H79	H	1.821932	0.067178	-0.074882
H80	H	1.770626	-0.110926	-0.023480
O81	O	0.602666	0.000208	-0.216861
C82	C	0.621669	0.120007	-0.166603
H83	H	0.709513	0.159942	-0.218830
H84	H	0.611896	0.093059	-0.079616
H85	H	0.558965	0.203891	-0.160721
H86	H	1.602102	0.000026	0.126707
O87	O	1.198308	0.000244	0.306353
C88	C	1.239732	0.120055	0.336573
H89	H	1.315700	0.159989	0.261475
H90	H	1.264239	0.093124	0.406216
H91	H	1.172754	0.203934	0.366465
H92	H	0.980479	0.000019	-0.251665
H93	H	1.493691	-0.379893	-0.488298
H94	H	1.059723	0.000052	0.211043
H95	H	1.166467	-0.619084	-0.500237
H96	H	1.173684	-0.378484	-0.368290
O97	O	1.500366	-0.628731	-0.691971
C98	C	1.525818	-0.717319	-0.621938
H99	H	1.469608	-0.691406	-0.531397
H100	H	1.616408	-0.702132	-0.638467
H101	H	1.512023	-0.830051	-0.639318
H102	H	1.494245	-0.619395	-0.488547
O103	O	0.996846	0.000241	0.064882
C104	C	0.971313	0.120049	0.132332
H105	H	1.049866	0.159984	0.136551
H106	H	0.906492	0.093113	0.219630
H107	H	0.936936	0.203928	0.095361
O108	O	1.358755	-0.628818	-0.343580
C109	C	1.246803	-0.586015	-0.289548
H110	H	1.234170	-0.490052	-0.332957
H111	H	1.225093	-0.559899	-0.199125
H112	H	1.190618	-0.673479	-0.292867
H113	H	1.365633	-0.380919	-0.359867
H114	H	1.486761	-0.380694	-0.678666
O115	O	1.346892	-0.370844	-0.698766
C116	C	1.258016	-0.282626	-0.633755
H117	H	1.229066	-0.308491	-0.542018
H118	H	1.186273	-0.298296	-0.657427
H119	H	1.286838	-0.169760	-0.649252
O120	O	1.338543	-0.625518	-0.693945
C121	C	1.388913	-0.571619	-0.802916
H122	H	1.437480	-0.473574	-0.804154
H123	H	1.322019	-0.545259	-0.831473
H124	H	1.447969	-0.652436	-0.861237
O125	O	1.064350	0.000108	-0.162343
C126	C	1.118855	0.000075	-0.279500
H127	H	1.206345	0.043861	-0.308103
H128	H	1.070313	0.067228	-0.313685
H129	H	1.123983	-0.110886	-0.311449
H130	H	0.907140	0.000088	-0.839139
