data_functionalizedCrystal
_audit_creation_method	'MofGen! by Chris Wilmer'
_symmetry_space_group_name_H-M	'P1'
_symmetry_Int_Tables_number	1
_symmetry_cell_setting	triclinic
loop_
_symmetry_equiv_pos_as_xyz
  x,y,z
_cell_length_a	19.805407
_cell_length_b	16.959453
_cell_length_c	19.805399
_cell_angle_alpha	89.973285
_cell_angle_beta	89.982197
_cell_angle_gamma	90.017304
loop_
_atom_site_label
_atom_site_type_symbol
_atom_site_fract_x
_atom_site_fract_y
_atom_site_fract_z
Zn1	Zn	1.034766	-0.314756	-0.382692
Zn2	Zn	1.534766	0.185244	0.117308
Zn3	Zn	1.034693	-0.446939	-0.269505
Zn4	Zn	1.534693	0.053061	0.230495
Zn5	Zn	0.921581	-0.314772	-0.269520
Zn6	Zn	1.421581	0.185228	0.230480
Zn7	Zn	0.921557	-0.446891	-0.382655
Zn8	Zn	1.421557	0.053109	0.117345
O9	O	0.978149	-0.380840	-0.326093
O10	O	1.478149	0.119160	0.173907
O11	O	1.129473	-0.332304	-0.367686
O12	O	1.629473	0.167696	0.132314
O13	O	1.019668	-0.429433	-0.174791
O14	O	1.519668	0.070567	0.325209
O15	O	0.936635	-0.204159	-0.284554
O16	O	1.436635	0.295841	0.215446
O17	O	1.129420	-0.429418	-0.284529
O18	O	1.629420	0.070582	0.215471
O19	O	1.019792	-0.204148	-0.367701
O20	O	1.519792	0.295852	0.132299
O21	O	0.936565	-0.332331	-0.174801
O22	O	1.436565	0.167669	0.325199
O23	O	0.826861	-0.332284	-0.284518
O24	O	1.326861	0.167716	0.215482
O25	O	0.936595	-0.429336	-0.477377
O26	O	1.436595	0.070664	0.022623
O27	O	0.826843	-0.429351	-0.367639
O28	O	1.326843	0.070649	0.132361
O29	O	1.019769	-0.332258	-0.477404
O30	O	1.519769	0.167742	0.022596
O31	O	1.019645	-0.557543	-0.284494
O32	O	1.519645	-0.057543	0.215506
O33	O	0.936524	-0.557508	-0.367625
O34	O	1.436524	-0.057508	0.132375
C35	C	0.802293	-0.380815	-0.326077
C36	C	1.302293	0.119185	0.173923
C37	C	0.727061	-0.380823	-0.326086
C38	C	1.227061	0.119177	0.173914
C39	C	0.691745	-0.330345	-0.369452
C40	C	1.191745	0.169655	0.130548
C41	C	0.621057	-0.330350	-0.369454
C42	C	1.121057	0.169650	0.130546
C43	C	0.585686	-0.380836	-0.326094
C44	C	1.085686	0.119164	0.173906
C45	C	0.621006	-0.431316	-0.282723
C46	C	1.121006	0.068684	0.217277
C47	C	0.691693	-0.431307	-0.282717
C48	C	1.191693	0.068693	0.217283
C49	C	0.335933	-0.431352	-0.282744
C50	C	0.835933	0.068648	0.217256
C51	C	0.265241	-0.431358	-0.282754
C52	C	0.765241	0.068642	0.217246
C53	C	0.265296	-0.330394	-0.369481
C54	C	0.765296	0.169606	0.130519
C55	C	0.335984	-0.330385	-0.369475
C56	C	0.835984	0.169615	0.130525
C57	C	0.371298	-0.380862	-0.326102
C58	C	0.871298	0.119138	0.173898
C59	C	0.447947	-0.380856	-0.326099
C60	C	0.947947	0.119144	0.173901
C61	C	0.509038	-0.380847	-0.326100
C62	C	1.009038	0.119153	0.173900
C63	C	0.978093	-0.586206	-0.326068
C64	C	1.478093	-0.086206	0.173932
C65	C	0.978130	-0.674062	-0.326080
C66	C	1.478130	-0.174062	0.173920
C67	C	1.021504	-1.045473	-0.369469
C68	C	1.521504	-0.545473	0.130531
C69	C	0.934983	-1.045602	-0.282817
C70	C	1.434983	-0.545602	0.217183
C71	C	0.934958	-0.963057	-0.282802
C72	C	1.434958	-0.463057	0.217198
C73	C	0.978206	-0.921715	-0.326121
C74	C	1.478206	-0.421715	0.173879
C75	C	1.021479	-0.962920	-0.369457
C76	C	1.521479	-0.462920	0.130543
C77	C	0.891681	-0.921846	-0.239472
C78	C	1.391681	-0.421846	0.260528
C79	C	0.891653	-0.839295	-0.239455
C80	C	1.391653	-0.339295	0.260545
C81	C	0.934905	-0.797952	-0.282772
C82	C	1.434905	-0.297952	0.217228
C83	C	0.978181	-0.839162	-0.326109
C84	C	1.478181	-0.339162	0.173891
C85	C	1.021429	-0.797821	-0.369428
C86	C	1.521429	-0.297821	0.130572
C87	C	1.064708	-0.839029	-0.412762
C88	C	1.564708	-0.339029	0.087238
C89	C	1.064731	-0.921577	-0.412773
C90	C	1.564731	-0.421577	0.087227
C91	C	0.934882	-0.715404	-0.282761
C92	C	1.434882	-0.215404	0.217239
C93	C	1.021404	-0.715267	-0.369415
C94	C	1.521404	-0.215267	0.130585
C95	C	1.154692	-0.380865	-0.326110
C96	C	1.654692	0.119135	0.173890
C97	C	1.229924	-0.380876	-0.326117
C98	C	1.729924	0.119124	0.173883
C99	C	0.978187	-0.380790	-0.502636
C100	C	1.478187	0.119210	-0.002636
C101	C	0.978203	-0.380769	-0.577868
C102	C	1.478203	0.119231	-0.077868
C103	C	0.978224	-0.174671	-0.326133
C104	C	1.478224	0.325329	0.173867
C105	C	0.978256	-0.086815	-0.326150
C106	C	1.478256	0.413185	0.173850
C107	C	1.021513	-0.330217	-0.613227
C108	C	1.521513	0.169783	-0.113227
C109	C	1.021520	-0.330194	-0.683915
C110	C	1.521520	0.169806	-0.183915
C111	C	0.978220	-0.380727	-0.719244
C112	C	1.478220	0.119273	-0.219244
C113	C	0.934905	-0.431281	-0.683879
C114	C	1.434905	0.068719	-0.183879
C115	C	0.934896	-0.431299	-0.613192
C116	C	1.434896	0.068701	-0.113192
C117	C	0.934944	-0.431207	-0.968953
C118	C	1.434944	0.068793	-0.468953
C119	C	0.934958	-0.431186	-1.039645
C120	C	1.434958	0.068814	-0.539645
C121	C	1.021568	-0.330102	-1.039676
C122	C	1.521568	0.169898	-0.539676
C123	C	1.021558	-0.330121	-0.968989
C124	C	1.521558	0.169879	-0.468989
C125	C	0.978241	-0.380671	-0.933631
C126	C	1.478241	0.119329	-0.433631
C127	C	0.978233	-0.380694	-0.856983
C128	C	1.478233	0.119306	-0.356983
C129	C	0.978231	-0.380709	-0.795891
C130	C	1.478231	0.119291	-0.295891
C131	C	0.978150	-0.380832	-0.150237
C132	C	1.478150	0.119168	0.349763
C133	C	0.978265	-0.380631	-0.075005
C134	C	1.478265	0.119369	0.424995
H135	H	0.364779	-0.289277	-0.404786
H136	H	0.864779	0.210723	0.095214
H137	H	0.899621	-0.472455	-0.584404
H138	H	1.399621	0.027545	-0.084404
H139	H	1.056775	-0.289070	-0.584468
H140	H	1.556775	0.210930	-0.084468
C141	C	1.069213	-0.274491	-1.078568
C142	C	1.569213	0.225509	-0.578568
H143	H	1.095005	-0.244406	-1.047403
H144	H	1.595005	0.255594	-0.547403
H145	H	1.043342	-0.240036	-1.106146
H146	H	1.543342	0.259964	-0.606146
H147	H	1.098699	-0.304731	-1.106141
H148	H	1.598699	0.195269	-0.606141
H149	H	0.856469	-0.955512	-0.204206
H150	H	1.356469	-0.455512	0.295794
C151	C	1.112269	-0.793552	-0.460422
C152	C	1.612269	-0.293552	0.039578
H153	H	1.138043	-0.829912	-0.486237
H154	H	1.638043	-0.329912	0.013763
H155	H	1.141764	-0.761335	-0.434560
H156	H	1.641764	-0.261335	0.065440
H157	H	1.086333	-0.761358	-0.489884
H158	H	1.586333	-0.261358	0.010116
H159	H	0.592201	-0.472419	-0.247415
H160	H	1.092201	0.027581	0.252585
H161	H	0.899695	-0.472338	-1.068407
H162	H	1.399695	0.027662	-0.568407
C163	C	0.887284	-0.486794	-0.930068
C164	C	1.387284	0.013206	-0.430068
H165	H	0.861499	-0.516885	-0.961234
H166	H	1.361499	-0.016885	-0.461234
H167	H	0.857804	-0.456542	-0.902504
H168	H	1.357804	0.043458	-0.402504
H169	H	0.913144	-0.521256	-0.902481
H170	H	1.413144	-0.021256	-0.402481
C171	C	0.887277	-0.486867	-0.722738
C172	C	1.387277	0.013133	-0.222738
H173	H	0.893490	-0.479623	-0.769902
H174	H	1.393490	0.020377	-0.269902
H175	H	0.841802	-0.475297	-0.711150
H176	H	1.341802	0.024703	-0.211150
H177	H	0.897167	-0.539982	-0.711142
H178	H	1.397167	-0.039982	-0.211142
H179	H	1.099966	-0.955136	-0.448054
H180	H	1.599966	-0.455136	0.051946
H181	H	0.720540	-0.289236	-0.404763
H182	H	1.220540	0.210764	0.095237
C183	C	0.844056	-0.793973	-0.191785
C184	C	1.344056	-0.293973	0.308215
H185	H	0.818307	-0.830418	-0.165985
H186	H	1.318307	-0.330418	0.334015
H187	H	0.814539	-0.761768	-0.217639
H188	H	1.314539	-0.261768	0.282361
H189	H	0.869964	-0.761779	-0.162309
H190	H	1.369964	-0.261779	0.337691
C191	C	1.068977	-0.669794	-0.417066
C192	C	1.568977	-0.169794	0.082934
H193	H	1.062768	-0.614729	-0.410852
H194	H	1.562768	-0.114729	0.089148
H195	H	1.059052	-0.683298	-0.462536
H196	H	1.559052	-0.183298	0.037464
H197	H	1.114466	-0.683294	-0.407196
H198	H	1.614466	-0.183294	0.092804
H199	H	0.899642	-0.681856	-0.247482
H200	H	1.399642	-0.181856	0.252518
C201	C	0.374770	-0.486876	-0.235038
C202	C	0.874770	0.013124	0.264962
H203	H	0.343578	-0.516949	-0.209221
H204	H	0.843578	-0.016949	0.290779
H205	H	0.402337	-0.456591	-0.205589
H206	H	0.902337	0.043409	0.294411
H207	H	0.402350	-0.521357	-0.260876
H208	H	0.902350	-0.021357	0.239124
C209	C	0.730541	-0.486839	-0.235020
C210	C	1.230541	0.013161	0.264980
H211	H	0.699352	-0.516915	-0.209202
H212	H	1.199352	-0.016915	0.290798
H213	H	0.758111	-0.456558	-0.205572
H214	H	1.258111	0.043442	0.294428
H215	H	0.758118	-0.521317	-0.260865
H216	H	1.258118	-0.021317	0.239135
H217	H	0.236535	-0.289291	-0.404795
H218	H	0.736535	0.210709	0.095205
H219	H	0.236443	-0.472472	-0.247442
H220	H	0.736443	0.027528	0.252558
H221	H	0.899770	-1.079267	-0.247551
H222	H	1.399770	-0.579267	0.252449
H223	H	1.056743	-1.079029	-0.404749
H224	H	1.556743	-0.579029	0.095251
C225	C	1.069164	-0.274592	-0.722808
C226	C	1.569164	0.225408	-0.222808
H227	H	1.094957	-0.244507	-0.691644
H228	H	1.594957	0.255493	-0.191644
H229	H	1.043293	-0.240137	-0.750385
H230	H	1.543293	0.259863	-0.250385
H231	H	1.098648	-0.304833	-0.750381
H232	H	1.598648	0.195167	-0.250381
H233	H	1.056820	-0.288974	-0.940228
H234	H	1.556820	0.211026	-0.440228
C235	C	0.582212	-0.274826	-0.417158
C236	C	1.082212	0.225174	0.082842
H237	H	0.613402	-0.244764	-0.442987
H238	H	1.113402	0.255236	0.057013
H239	H	0.554634	-0.240347	-0.391323
H240	H	1.054634	0.259653	0.108677
H241	H	0.554643	-0.305116	-0.446607
H242	H	1.054643	0.194884	0.053393
