data_functionalizedCrystal
_audit_creation_method	'MofGen! by Chris Wilmer'
_symmetry_space_group_name_H-M	'P1'
_symmetry_Int_Tables_number	1
_symmetry_cell_setting	triclinic
loop_
_symmetry_equiv_pos_as_xyz
  x,y,z
_cell_length_a	10.723023
_cell_length_b	10.723023
_cell_length_c	15.186229
_cell_angle_alpha	89.997261
_cell_angle_beta	89.996782
_cell_angle_gamma	84.467548
loop_
_atom_site_label
_atom_site_type_symbol
_atom_site_fract_x
_atom_site_fract_y
_atom_site_fract_z
O1	O	1.657187	0.175021	-0.073224
O2	O	2.157187	0.675021	0.426776
O3	O	1.294034	0.191775	-0.073226
O4	O	1.794034	0.691775	0.426774
O5	O	1.483988	0.001822	-0.073221
O6	O	1.983988	0.501822	0.426779
O7	O	1.467233	0.364974	-0.073229
O8	O	1.967233	0.864974	0.426771
O9	O	1.483975	0.001819	0.073236
O10	O	1.983975	0.501819	0.573236
O11	O	1.294021	0.191773	0.073231
O12	O	1.794021	0.691773	0.573231
O13	O	1.657174	0.175018	0.073233
O14	O	2.157174	0.675018	0.573233
Zn15	Zn	1.475596	0.183395	0.096485
Zn16	Zn	1.975596	0.683395	0.596485
Zn17	Zn	1.475612	0.183399	-0.096478
Zn18	Zn	1.975612	0.683399	0.403522
O19	O	1.467220	0.364972	0.073228
O20	O	1.967220	0.864972	0.573228
C21	C	1.247528	0.190555	0.000002
C22	C	1.747528	0.690555	0.500002
C23	C	1.108974	0.186908	0.000001
C24	C	1.608974	0.686908	0.500001
C25	C	0.903999	0.181511	0.075867
C26	C	1.403999	0.681511	0.575867
C27	C	1.047202	0.185280	0.075870
C28	C	1.547202	0.685280	0.575870
C29	C	1.482762	-0.044679	0.000006
C30	C	1.982762	0.455321	0.500006
C31	C	1.479115	-0.183233	0.000003
C32	C	1.979115	0.316767	0.500003
C33	C	1.477496	-0.244998	-0.075867
C34	C	1.977496	0.255002	0.424133
C35	C	1.473726	-0.388201	-0.075872
C36	C	1.973726	0.111799	0.424128
C37	C	1.703680	0.176239	0.000003
C38	C	2.203680	0.676239	0.500003
C39	C	1.842234	0.179886	-0.000002
C40	C	2.342234	0.679886	0.499998
C41	C	1.468446	0.411473	-0.000001
C42	C	1.968446	0.911473	0.499999
C43	C	1.472093	0.550027	-0.000004
C44	C	1.972093	1.050027	0.499996
N45	N	1.475593	0.183392	0.228178
N46	N	1.975593	0.683392	0.728178
N47	N	1.475625	0.183392	-0.228171
N48	N	1.975625	0.683392	0.271829
C49	C	1.559734	0.099309	0.453903
C50	C	2.059734	0.599309	0.953903
C51	C	1.559738	0.099306	0.546093
C52	C	2.059738	0.599306	1.046093
C53	C	1.391475	0.267479	0.546098
C54	C	1.891475	0.767479	1.046098
C55	C	1.391466	0.267474	0.453910
C56	C	1.891466	0.767474	0.953910
C57	C	1.475602	0.183391	0.407815
C58	C	1.975602	0.683391	0.907815
C59	C	1.475615	0.183392	0.592192
C60	C	1.975615	0.683392	1.092192
C61	C	1.475619	0.183390	0.692148
C62	C	1.975619	0.683390	1.192148
C63	C	1.475598	0.183392	0.307852
C64	C	1.975598	0.683392	0.807852
H65	H	1.100319	0.186672	0.140825
H66	H	1.600319	0.686672	0.640825
H67	H	1.472339	-0.441317	-0.140827
H68	H	1.972339	0.058683	0.359173
N69	N	1.038632	0.185065	-0.086046
N70	N	1.538632	0.685065	0.413954
H71	H	1.099537	0.186669	-0.136676
H72	H	1.599537	0.686669	0.363324
H73	H	0.994068	0.106416	-0.089475
H74	H	1.494068	0.606416	0.410525
H75	H	1.322950	0.335945	0.416382
H76	H	1.822950	0.835945	0.916382
N77	N	0.912612	0.181725	-0.086044
N78	N	1.412612	0.681725	0.413956
H79	H	0.851719	0.180120	-0.136676
H80	H	1.351719	0.680120	0.363324
H81	H	0.957180	0.260371	-0.089477
H82	H	1.457180	0.760371	0.410523
H83	H	0.850860	0.180117	0.140820
H84	H	1.350860	0.680117	0.640820
N85	N	1.479194	-0.174606	-0.161909
N86	N	1.979194	0.325394	0.338091
H87	H	1.481572	-0.082275	-0.149710
H88	H	1.981572	0.417725	0.350290
H89	H	1.555777	-0.206679	-0.196869
H90	H	2.055777	0.293321	0.303131
H91	H	1.628243	0.030838	0.583615
H92	H	2.128243	0.530838	1.083615
N93	N	1.473948	-0.379630	0.086043
N94	N	1.973948	0.120370	0.586043
H95	H	1.398149	-0.316154	0.089555
H96	H	1.898149	0.183846	0.589555
H97	H	1.472388	-0.440616	0.136623
H98	H	1.972388	0.059384	0.636623
N99	N	1.477262	-0.253614	0.086043
N100	N	1.977262	0.246386	0.586043
H101	H	1.555078	-0.240477	0.120965
H102	H	2.055078	0.259523	0.620965
H103	H	1.400582	-0.221539	0.120899
H104	H	1.900582	0.278461	0.620899
N105	N	1.650474	0.008623	0.404184
N106	N	2.150474	0.508623	0.904184
H107	H	1.703769	-0.044644	0.447374
H108	H	2.203769	0.455356	0.947374
H109	H	1.602227	-0.046983	0.365942
H110	H	2.102227	0.453017	0.865942
N111	N	1.300732	0.358165	0.595814
N112	N	1.800732	0.858165	1.095814
H113	H	1.313504	0.345413	0.661209
H114	H	1.813504	0.845413	1.161209
H115	H	1.315900	0.446825	0.579693
H116	H	1.815900	0.946825	1.079693
