data_functionalizedCrystal
_audit_creation_method	'MofGen! by Chris Wilmer'
_symmetry_space_group_name_H-M	'P1'
_symmetry_Int_Tables_number	1
_symmetry_cell_setting	triclinic
loop_
_symmetry_equiv_pos_as_xyz
  x,y,z
_cell_length_a	11.792241
_cell_length_b	14.971486
_cell_length_c	14.048226
_cell_angle_alpha	90.001501
_cell_angle_beta	89.993434
_cell_angle_gamma	96.096228
loop_
_atom_site_label
_atom_site_type_symbol
_atom_site_fract_x
_atom_site_fract_y
_atom_site_fract_z
O1	O	0.147909	-1.187540	-0.079051
O2	O	0.647909	-0.687540	0.420949
O3	O	0.165622	-0.927210	-0.079077
O4	O	0.665622	-0.427210	0.420923
O5	O	-0.008446	-1.063692	-0.079057
O6	O	0.491554	-0.563692	0.420943
O7	O	0.321977	-1.051058	-0.079072
O8	O	0.821977	-0.551058	0.420928
O9	O	-0.008456	-1.063676	0.079264
O10	O	0.491544	-0.563676	0.579264
O11	O	0.165611	-0.927194	0.079244
O12	O	0.665611	-0.427194	0.579244
O13	O	0.147899	-1.187523	0.079270
O14	O	0.647899	-0.687523	0.579270
Zn15	Zn	0.156753	-1.057356	0.104394
Zn16	Zn	0.656753	-0.557356	0.604394
Zn17	Zn	0.156767	-1.057378	-0.104201
Zn18	Zn	0.656767	-0.557378	0.395799
O19	O	0.321966	-1.051041	0.079250
O20	O	0.821966	-0.551041	0.579250
C21	C	0.164824	-0.893874	0.000080
C22	C	0.664824	-0.393874	0.500080
C23	C	0.162451	-0.794568	0.000070
C24	C	0.662451	-0.294568	0.500070
C25	C	-0.050737	-1.062891	0.000103
C26	C	0.449263	-0.562891	0.500103
C27	C	-0.176735	-1.060515	0.000102
C28	C	0.323265	-0.560515	0.500102
C29	C	0.148696	-1.220859	0.000110
C30	C	0.648696	-0.720859	0.500110
C31	C	0.151070	-1.320166	0.000114
C32	C	0.651070	-0.820166	0.500114
C33	C	-0.407419	-1.056147	0.000086
C34	C	0.092581	-0.556147	0.500086
C35	C	-0.279050	-1.058574	0.000095
C36	C	0.220950	-0.558574	0.500095
C37	C	0.364257	-1.051843	0.000087
C38	C	0.864257	-0.551843	0.500087
C39	C	0.490256	-1.054218	0.000082
C40	C	0.990256	-0.554218	0.500082
N41	N	0.156744	-1.057347	0.246754
N42	N	0.656744	-0.557347	0.746754
C43	C	0.264710	-0.737752	0.000067
C44	C	0.764710	-0.237752	0.500067
C45	C	0.262473	-0.644444	0.000081
C46	C	0.762473	-0.144444	0.500081
C47	C	0.157975	-0.607953	0.000092
C48	C	0.657975	-0.107953	0.500092
C49	C	0.055707	-0.664776	0.000098
C50	C	0.555707	-0.164776	0.500098
C51	C	0.057946	-0.758082	0.000091
C52	C	0.557946	-0.258082	0.500091
C53	C	0.051049	-0.470294	0.000111
C54	C	0.551049	0.029706	0.500111
C55	C	0.048810	-0.376981	0.000117
C56	C	0.548810	0.123019	0.500117
C57	C	0.255577	-0.356656	0.000102
C58	C	0.755577	0.143344	0.500102
C59	C	0.257815	-0.449963	0.000095
C60	C	0.757815	0.050037	0.500095
C61	C	0.155547	-0.506779	0.000099
C62	C	0.655547	-0.006779	0.500099
N63	N	0.156768	-1.057393	-0.246562
N64	N	0.656768	-0.557393	0.253438
C65	C	0.079698	-1.117801	0.296582
C66	C	0.579698	-0.617801	0.796582
C67	C	0.079698	-1.117807	0.396239
C68	C	0.579698	-0.617807	0.896239
C69	C	0.156749	-1.057363	0.446068
C70	C	0.656749	-0.557363	0.946068
C71	C	0.233797	-0.996903	0.396234
C72	C	0.733797	-0.496903	0.896234
C73	C	0.233792	-0.996894	0.296578
C74	C	0.733792	-0.496894	0.796578
C75	C	0.233806	-0.996929	0.603948
C76	C	0.733806	-0.496929	1.103948
C77	C	0.233813	-0.996940	0.703611
C78	C	0.733813	-0.496940	1.203611
C79	C	0.079712	-1.117843	0.703609
C80	C	0.579712	-0.617843	1.203609
C81	C	0.079706	-1.117833	0.603953
C82	C	0.579706	-0.617833	1.103953
C83	C	0.156757	-1.057374	0.554126
C84	C	0.656757	-0.557374	1.054126
H85	H	0.349805	-0.767455	0.000058
H86	H	0.849805	-0.267455	0.500058
F87	F	-0.002306	-1.182139	0.243559
F88	F	0.497694	-0.682139	0.743559
F89	F	0.315810	-0.932578	0.550923
F90	F	0.815810	-0.432578	1.050923
H91	H	0.016961	-1.167032	0.436808
H92	H	0.516961	-0.667032	0.936808
F93	F	-0.062408	-0.338147	0.000153
F94	F	0.437592	0.161853	0.500153
H95	H	-0.032229	-0.516553	0.000116
H96	H	0.467771	-0.016553	0.500116
H97	H	0.345744	-0.598187	0.000078
H98	H	0.845744	-0.098187	0.500078
F99	F	-0.055508	-0.625937	0.000116
F100	F	0.444492	-0.125937	0.500116
H101	H	0.016971	-1.167055	0.563383
H102	H	0.516971	-0.667055	1.063383
H103	H	-0.025325	-0.804341	0.000093
H104	H	0.474675	-0.304341	0.500093
H105	H	0.342907	-0.479670	0.000077
H106	H	0.842907	0.020330	0.500077
F107	F	-0.002289	-1.182188	0.756643
F108	F	0.497711	-0.682188	1.256643
F109	F	0.364419	-0.296187	0.000099
F110	F	0.864419	0.203813	0.500099
F111	F	0.315791	-0.932548	0.243550
F112	F	0.815791	-0.432548	0.743550
F113	F	0.315797	-0.932569	0.449266
F114	F	0.815797	-0.432569	0.949266
H115	H	0.296555	-0.947719	0.744177
H116	H	0.796555	-0.447719	1.244177
