data_functionalizedCrystal
_audit_creation_method	'MofGen! by Chris Wilmer'
_symmetry_space_group_name_H-M	'P1'
_symmetry_Int_Tables_number	1
_symmetry_cell_setting	triclinic
loop_
_symmetry_equiv_pos_as_xyz
  x,y,z
_cell_length_a	16.109301
_cell_length_b	15.944551
_cell_length_c	15.186229
_cell_angle_alpha	89.995303
_cell_angle_beta	89.999362
_cell_angle_gamma	83.480109
loop_
_atom_site_label
_atom_site_type_symbol
_atom_site_fract_x
_atom_site_fract_y
_atom_site_fract_z
O1	O	1.103166	0.107966	-0.073175
O2	O	0.861108	0.121402	-0.073189
O3	O	0.988747	-0.007593	-0.073174
O4	O	0.975527	0.236961	-0.073190
O5	O	0.988738	-0.007594	0.073284
O6	O	0.861099	0.121401	0.073268
O7	O	1.103157	0.107964	0.073282
Zn8	Zn	0.982127	0.114682	0.096529
Zn9	Zn	0.982138	0.114685	-0.096435
O10	O	0.975518	0.236960	0.073267
C11	C	0.830129	0.120857	0.000038
C12	C	0.737833	0.119226	0.000033
C13	C	0.515584	0.191975	0.000038
C14	C	0.428863	0.190435	0.000044
C15	C	0.448688	0.037387	0.000050
C16	C	0.535407	0.038927	0.000051
C17	C	0.568853	0.116224	0.000040
C18	C	0.395412	0.113143	0.000045
C19	C	0.301386	0.111473	0.000052
C20	C	0.662885	0.117894	0.000036
C21	C	0.988194	-0.038887	0.000055
C22	C	0.986548	-0.132133	0.000056
C23	C	0.903499	-0.346962	0.000039
C24	C	0.942060	-0.407993	0.072253
C25	C	0.983572	-0.302858	0.000049
C26	C	0.942087	-0.407975	-0.072142
C27	C	0.980691	-0.467769	0.000038
C28	C	1.022155	-0.362660	0.072323
C29	C	1.022171	-0.362636	-0.072137
C30	C	1.060790	-0.423649	0.000095
C31	C	0.985229	-0.207856	0.000055
C32	C	0.979039	-0.562770	0.000038
C33	C	1.134136	0.108510	0.000054
C34	C	1.226432	0.110141	0.000053
C35	C	0.976071	0.268254	0.000036
C36	C	0.977717	0.361500	0.000030
N37	N	0.982125	0.114680	0.228221
N38	N	0.982146	0.114680	-0.228128
C39	C	1.038663	0.057580	0.453951
C40	C	1.038666	0.057578	0.546141
C41	C	0.925603	0.171783	0.546136
C42	C	0.925597	0.171780	0.453948
C43	C	0.982132	0.114680	0.407858
C44	C	0.982140	0.114680	0.592236
C45	C	0.982143	0.114679	0.692192
C46	C	0.982128	0.114680	0.307895
H47	H	0.837035	-0.313632	0.000107
H48	H	1.056013	-0.342516	-0.133188
C49	C	1.099940	-0.004573	0.403979
C50	C	1.086415	-0.087104	0.426427
C51	C	1.142839	-0.144394	0.380415
H52	H	1.155463	0.004443	0.419052
H53	H	1.091853	0.003524	0.342460
H54	H	1.094509	-0.095198	0.487932
H55	H	1.030903	-0.096147	0.411352
H56	H	1.134753	-0.136296	0.318896
H57	H	1.198359	-0.135370	0.395492
H58	H	1.133666	-0.200397	0.395634
H59	H	0.385495	0.252119	0.000044
C60	C	0.412325	-0.046506	-0.000129
C61	C	0.363139	-0.051865	-0.075492
C62	C	0.329639	-0.129141	-0.075696
H63	H	0.378848	-0.050375	0.050882
H64	H	0.456448	-0.091427	-0.000174
H65	H	0.319021	-0.006958	-0.075439
H66	H	0.396597	-0.048012	-0.126515
H67	H	0.373762	-0.174061	-0.075741
H68	H	0.296166	-0.133003	-0.024681
H69	H	0.296269	-0.132790	-0.126832
H70	H	0.908189	-0.428091	0.133301
H71	H	1.055990	-0.342682	0.133442
H72	H	0.542812	0.254914	0.000036
H73	H	0.879558	0.218278	0.416417
C74	C	0.593111	-0.043413	0.000008
C75	C	0.545262	-0.111436	-0.000014
C76	C	0.598389	-0.187296	-0.000062
H77	H	0.627369	-0.046113	0.051068
H78	H	0.627341	-0.046035	-0.051085
H79	H	0.511046	-0.108815	0.051074
H80	H	0.511005	-0.108764	-0.051070
H81	H	0.632619	-0.189918	-0.051154
H82	H	0.632645	-0.189987	0.050999
H83	H	0.565931	-0.233458	-0.000085
C84	C	1.149554	-0.467731	0.000206
C85	C	1.206077	-0.407199	0.000986
C86	C	1.287853	-0.447771	0.001110
H87	H	1.158340	-0.501674	-0.051084
H88	H	1.157903	-0.502364	0.051064
H89	H	1.197731	-0.372581	-0.049867
H90	H	1.197318	-0.373253	0.052273
H91	H	1.296202	-0.482404	0.051968
H92	H	1.296630	-0.481713	-0.050181
H93	H	1.326213	-0.406706	0.001647
C94	C	0.896790	-0.434609	-0.153518
C95	C	0.814494	-0.395389	-0.153182
C96	C	0.772739	-0.419891	-0.228133
H97	H	0.896422	-0.494140	-0.153294
H98	H	0.924653	-0.418287	-0.204818
H99	H	0.786638	-0.411717	-0.101896
H100	H	0.814837	-0.335859	-0.153420
H101	H	0.800602	-0.403569	-0.279433
H102	H	0.772377	-0.479422	-0.227902
H103	H	0.716900	-0.393279	-0.227919
H104	H	0.879574	0.218274	0.583672
C105	C	1.099912	-0.004511	0.596231
C106	C	1.055630	-0.055961	0.649145
C107	C	1.112023	-0.113178	0.695291
H108	H	1.134544	0.025616	0.632261
H109	H	1.133567	-0.038565	0.555603
H110	H	1.021990	-0.021911	0.689769
H111	H	1.021001	-0.086107	0.613137
H112	H	1.145678	-0.147232	0.654663
H113	H	1.146652	-0.083044	0.731317
H114	H	1.081986	-0.148098	0.731193
