data_functionalizedCrystal
_audit_creation_method	'MofGen! by Chris Wilmer'
_symmetry_space_group_name_H-M	'P1'
_symmetry_Int_Tables_number	1
_symmetry_cell_setting	triclinic
loop_
_symmetry_equiv_pos_as_xyz
  x,y,z
_cell_length_a	13.032831
_cell_length_b	21.295417
_cell_length_c	21.295411
_cell_angle_alpha	89.978356
_cell_angle_beta	82.805709
_cell_angle_gamma	82.834379
loop_
_atom_site_label
_atom_site_type_symbol
_atom_site_fract_x
_atom_site_fract_y
_atom_site_fract_z
Zn1	Zn	1.597617	-0.373109	-0.477900
Zn2	Zn	1.930951	-0.039776	-0.144567
Zn3	Zn	2.264284	0.293558	0.188767
Zn4	Zn	1.597455	-0.478348	-0.372613
Zn5	Zn	1.930789	-0.145015	-0.039280
Zn6	Zn	2.264122	0.188318	0.294054
Zn7	Zn	1.422846	-0.359717	-0.359300
Zn8	Zn	1.756180	-0.026383	-0.025967
Zn9	Zn	2.089513	0.306950	0.307367
Zn10	Zn	1.422795	-0.464947	-0.464508
Zn11	Zn	1.756129	-0.131614	-0.131175
Zn12	Zn	2.089462	0.201719	0.202158
O13	O	1.510179	-0.419030	-0.418580
O14	O	1.843512	-0.085697	-0.085247
O15	O	2.176845	0.247636	0.248086
O16	O	1.743834	-0.398283	-0.475109
O17	O	2.077167	-0.064949	-0.141776
O18	O	2.410501	0.268384	0.191557
O19	O	1.574247	-0.462615	-0.282754
O20	O	1.907580	-0.129282	0.050579
O21	O	2.240913	0.204051	0.383913
O22	O	1.446119	-0.273410	-0.375066
O23	O	1.779452	0.059923	-0.041732
O24	O	2.112786	0.393256	0.291601
O25	O	1.743715	-0.475601	-0.397755
O26	O	2.077048	-0.142268	-0.064422
O27	O	2.410382	0.191065	0.268911
O28	O	1.574523	-0.283250	-0.462200
O29	O	1.907856	0.050083	-0.128867
O30	O	2.241189	0.383417	0.204466
O31	O	1.445962	-0.375457	-0.272973
O32	O	1.779295	-0.042124	0.060360
O33	O	2.112629	0.291210	0.393694
O34	O	1.276601	-0.362462	-0.362080
O35	O	1.609935	-0.029129	-0.028747
O36	O	1.943268	0.304204	0.304587
O37	O	1.446032	-0.452761	-0.554378
O38	O	1.779366	-0.119428	-0.221044
O39	O	2.112699	0.213905	0.112289
O40	O	1.276564	-0.439775	-0.439376
O41	O	1.609897	-0.106442	-0.106043
O42	O	1.943231	0.226892	0.227291
O43	O	1.574473	-0.385288	-0.564216
O44	O	1.907807	-0.051955	-0.230883
O45	O	2.241140	0.281379	0.102450
O46	O	1.574197	-0.564653	-0.384770
O47	O	1.907531	-0.231320	-0.051437
O48	O	2.240864	0.102013	0.281897
O49	O	1.445875	-0.554808	-0.452285
O50	O	1.779209	-0.221474	-0.118952
O51	O	2.112542	0.111859	0.214382
C52	C	1.238665	-0.398212	-0.397831
C53	C	1.571998	-0.064878	-0.064497
C54	C	1.905331	0.268455	0.268836
C55	C	1.122510	-0.389321	-0.388969
C56	C	1.455843	-0.055987	-0.055636
C57	C	1.789176	0.277346	0.277698
C58	C	1.510042	-0.582572	-0.418535
C59	C	1.843375	-0.249238	-0.085202
C60	C	2.176708	0.084095	0.248132
C61	C	1.510079	-0.652542	-0.418544
C62	C	1.843412	-0.319209	-0.085211
C63	C	2.176745	0.014124	0.248123
C64	C	1.070733	-0.423671	-0.423205
C65	C	1.404067	-0.090338	-0.089872
C66	C	1.737400	0.242996	0.243461
C67	C	0.950681	-0.414482	-0.414047
C68	C	1.284015	-0.081149	-0.080714
C69	C	1.617348	0.252184	0.252620
C70	C	1.576955	-0.690519	-0.383435
C71	C	1.910289	-0.357186	-0.050101
C72	C	2.243622	-0.023853	0.283232
C73	C	1.577004	-0.756266	-0.383452
C74	C	1.910338	-0.422932	-0.050119
C75	C	2.243671	-0.089599	0.283214
C76	C	1.510158	-0.784031	-0.418572
C77	C	1.843491	-0.450698	-0.085238
C78	C	2.176825	-0.117364	0.248095
C79	C	1.443277	-0.746046	-0.453688
C80	C	1.776610	-0.412712	-0.120355
C81	C	2.109943	-0.079379	0.212978
C82	C	1.443237	-0.680301	-0.453675
C83	C	1.776570	-0.346968	-0.120341
C84	C	2.109904	-0.013635	0.212992
N85	N	1.418740	-0.880292	-0.416384
N86	N	1.752074	-0.546959	-0.083051
N87	N	2.085407	-0.213625	0.250282
N88	N	1.418781	-0.942747	-0.416394
N89	N	1.752114	-0.609413	-0.083061
N90	N	2.085448	-0.276080	0.250273
C91	C	1.510275	-0.982115	-0.418617
C92	C	1.843608	-0.648781	-0.085283
C93	C	2.176942	-0.315448	0.248050
N94	N	1.601729	-0.956669	-0.420817
N95	N	1.935062	-0.623336	-0.087484
N96	N	2.268395	-0.290002	0.245850
N97	N	1.601687	-0.894208	-0.420804
N98	N	1.935020	-0.560875	-0.087471
N99	N	2.268353	-0.227542	0.245863
C100	C	1.510194	-0.855319	-0.418591
C101	C	1.843527	-0.521986	-0.085258
C102	C	2.176861	-0.188652	0.248076
C103	C	1.577210	-1.091382	-0.383525
C104	C	1.910544	-0.758048	-0.050192
C105	C	2.243877	-0.424715	0.283142
C106	C	1.577261	-1.157129	-0.383548
C107	C	1.910594	-0.823796	-0.050214
C108	C	2.243928	-0.490463	0.283119
C109	C	1.443524	-1.146907	-0.453779
C110	C	1.776857	-0.813574	-0.120446
C111	C	2.110191	-0.480241	0.212887
C112	C	1.443483	-1.081162	-0.453761
C113	C	1.776816	-0.747828	-0.120428
C114	C	2.110149	-0.414495	0.212906
C115	C	1.510324	-1.053403	-0.418630
C116	C	1.843658	-0.720069	-0.085297
C117	C	2.176991	-0.386736	0.248036
C118	C	1.782753	-0.439931	-0.439411
C119	C	2.116086	-0.106597	-0.106078
C120	C	2.449419	0.226736	0.227255
C121	C	1.898908	-0.448837	-0.448288
C122	C	2.232241	-0.115504	-0.114955
C123	C	2.565574	0.217829	0.218379
C124	C	1.510265	-0.419024	-0.582777
C125	C	1.843599	-0.085690	-0.249444
C126	C	2.176932	0.247643	0.083889
C127	C	1.510302	-0.419021	-0.652748
C128	C	1.843636	-0.085688	-0.319415
C129	C	2.176969	0.247646	0.013918
C130	C	1.510345	-0.254853	-0.418642
C131	C	1.843678	0.078481	-0.085308
C132	C	2.177011	0.411814	0.248025
C133	C	1.510415	-0.184890	-0.418668
C134	C	1.843749	0.148443	-0.085335
C135	C	2.177082	0.481777	0.247999
C136	C	1.577179	-0.383886	-0.690739
C137	C	1.910512	-0.050552	-0.357405
C138	C	2.243845	0.282781	-0.024072
C139	C	1.577177	-0.383858	-0.756481
C140	C	1.910511	-0.050525	-0.423148
C141	C	2.243844	0.282809	-0.089814
C142	C	1.510310	-0.418978	-0.784231
C143	C	1.843644	-0.085645	-0.450898
C144	C	2.176977	0.247688	-0.117565
C145	C	1.443421	-0.454115	-0.746232
C146	C	1.776754	-0.120782	-0.412899
C147	C	2.110088	0.212551	-0.079565
C148	C	1.443417	-0.454137	-0.680490
C149	C	1.776750	-0.120803	-0.347157
C150	C	2.110084	0.212530	-0.013824
N151	N	1.502248	-0.473428	-0.886831
N152	N	1.835581	-0.140095	-0.553498
N153	N	2.168914	0.193239	-0.220164
N154	N	1.502258	-0.473406	-0.949283
N155	N	1.835591	-0.140073	-0.615950
N156	N	2.168924	0.193260	-0.282617
C157	C	1.510317	-0.418915	-0.982307
C158	C	1.843650	-0.085582	-0.648973
C159	C	2.176984	0.247752	-0.315640
N160	N	1.518386	-0.364446	-0.950520
N161	N	1.851720	-0.031113	-0.617187
N162	N	2.185053	0.302221	-0.283853
N163	N	1.518382	-0.364469	-0.888063
N164	N	1.851715	-0.031135	-0.554729
N165	N	2.185048	0.302198	-0.221396
C166	C	1.510307	-0.418959	-0.855517
C167	C	1.843640	-0.085625	-0.522183
C168	C	2.176974	0.247708	-0.188850
C169	C	1.577195	-0.383747	-1.091583
C170	C	1.910529	-0.050413	-0.758250
C171	C	2.243862	0.282920	-0.424916
C172	C	1.577187	-0.383718	-1.157326
C173	C	1.910520	-0.050384	-0.823993
C174	C	2.243853	0.282949	-0.490659
C175	C	1.443436	-0.453981	-1.147076
C176	C	1.776769	-0.120648	-0.813743
C177	C	2.110103	0.212686	-0.480409
C178	C	1.443439	-0.454004	-1.081334
C179	C	1.776773	-0.120671	-0.748000
C180	C	2.110106	0.212663	-0.414667
C181	C	1.510324	-0.418888	-1.053592
C182	C	1.843658	-0.085555	-0.720258
C183	C	2.176991	0.247779	-0.386925
C184	C	1.510152	-0.418996	-0.255027
C185	C	1.843486	-0.085663	0.078307
C186	C	2.176819	0.247670	0.411640
C187	C	1.510318	-0.418837	-0.185072
C188	C	1.843651	-0.085504	0.148262
C189	C	2.176985	0.247829	0.481595
H190	H	1.115284	-0.459880	-0.459299
H191	H	1.448617	-0.126546	-0.125965
H192	H	1.781950	0.206787	0.207368
Cl193	Cl	1.661000	-0.655627	-0.339281
Cl194	Cl	1.994333	-0.322294	-0.005947
Cl195	Cl	2.327667	0.011040	0.327386
H196	H	1.631641	-0.355291	-0.668155
H197	H	1.964974	-0.021957	-0.334822
H198	H	2.298307	0.311376	-0.001489
Cl199	Cl	1.661236	-0.339670	-0.804248
Cl200	Cl	1.994569	-0.006337	-0.470915
Cl201	Cl	2.327902	0.326996	-0.137582
Cl202	Cl	1.359155	-0.632556	-0.497815
Cl203	Cl	1.692489	-0.299223	-0.164482
Cl204	Cl	2.025822	0.034110	0.168852
H205	H	0.943453	-0.485047	-0.484386
H206	H	1.276786	-0.151714	-0.151052
H207	H	1.610119	0.181619	0.182281
H208	H	1.077959	-0.353107	-0.352880
H209	H	1.411293	-0.019774	-0.019547
H210	H	1.744626	0.313560	0.313786
Cl211	Cl	1.661082	-0.804017	-0.339310
Cl212	Cl	1.994416	-0.470684	-0.005977
Cl213	Cl	2.327749	-0.137351	0.327356
Cl214	Cl	1.661350	-1.204874	-0.339411
Cl215	Cl	1.994684	-0.871540	-0.006078
Cl216	Cl	2.328017	-0.538207	0.327256
H217	H	1.631640	-1.068780	-0.354922
H218	H	1.964974	-0.735446	-0.021588
H219	H	2.298307	-0.402113	0.311745
Cl220	Cl	1.359246	-0.780950	-0.497842
Cl221	Cl	1.692579	-0.447617	-0.164508
Cl222	Cl	2.025913	-0.114283	0.168825
Cl223	Cl	1.359356	-0.498264	-0.781117
Cl224	Cl	1.692689	-0.164930	-0.447783
Cl225	Cl	2.026023	0.168403	-0.114450
H226	H	1.389101	-1.169514	-0.482377
H227	H	1.722434	-0.836180	-0.149044
H228	H	2.055768	-0.502847	0.184289
Cl229	Cl	1.359399	-1.033416	-0.497898
Cl230	Cl	1.692733	-0.700083	-0.164564
Cl231	Cl	2.026066	-0.366750	0.168769
H232	H	1.388953	-0.482747	-0.649558
H233	H	1.722287	-0.149414	-0.316224
H234	H	2.055620	0.183920	0.017109
H235	H	1.631652	-0.355149	-1.068994
H236	H	1.964985	-0.021816	-0.735660
H237	H	2.298318	0.311517	-0.402327
H238	H	1.631644	-0.355102	-1.188257
H239	H	1.964977	-0.021769	-0.854924
H240	H	2.298310	0.311564	-0.521591
Cl241	Cl	1.359364	-0.498126	-1.181955
Cl242	Cl	1.692697	-0.164793	-0.848622
Cl243	Cl	2.026031	0.168541	-0.515288
H244	H	0.906135	-0.378266	-0.377956
H245	H	1.239468	-0.044933	-0.044623
H246	H	1.572802	0.288401	0.288711
Cl247	Cl	1.359365	-0.498180	-1.033572
Cl248	Cl	1.692699	-0.164846	-0.700238
Cl249	Cl	2.026032	0.168487	-0.366905
