data_functionalizedCrystal
_audit_creation_method	'MofGen! by Chris Wilmer'
_symmetry_space_group_name_H-M	'P1'
_symmetry_Int_Tables_number	1
_symmetry_cell_setting	triclinic
loop_
_symmetry_equiv_pos_as_xyz
  x,y,z
_cell_length_a	6.817900
_cell_length_b	11.102288
_cell_length_c	9.514088
_cell_angle_alpha	88.634974
_cell_angle_beta	118.843545
_cell_angle_gamma	108.605689
loop_
_atom_site_label
_atom_site_type_symbol
_atom_site_fract_x
_atom_site_fract_y
_atom_site_fract_z
V1	V	-4.243923	-0.178092	-0.500743
O2	O	-4.200435	0.006240	-0.491211
O3	O	-4.219795	-0.350897	-0.497319
O4	O	-4.278445	-0.176370	-0.719135
O5	O	-4.141379	-0.169496	-0.267860
V6	V	-4.713661	-0.155924	-0.472888
O7	O	-4.535420	-0.226720	-0.561845
O8	O	-4.872362	-0.107296	-0.411787
O9	O	-4.514583	0.016881	-0.476313
O10	O	-4.874546	-0.340256	-0.482421
O11	O	-4.933602	-0.164520	-0.705772
O12	O	-4.455933	-0.157646	-0.254497
C13	C	-4.068017	-0.392991	-0.489419
C14	C	-4.130129	-0.534268	-0.488075
C15	C	-4.142830	-0.170363	-0.772365
C16	C	-4.252499	-0.170099	-0.950901
C17	C	-4.345435	-0.607150	-0.495456
C18	C	-4.403793	-0.739895	-0.494206
C19	C	-4.031511	-0.726865	-0.478186
C20	C	-3.973165	-0.594123	-0.479448
C21	C	-4.329702	0.058969	-0.484208
C22	C	-4.246833	0.200244	-0.485563
C23	C	-4.254888	-0.163657	-0.201258
C24	C	-4.124455	-0.163915	-0.022720
H25	H	-4.579113	-0.799231	-0.500219
C26	C	-3.860960	-0.791881	-0.468469
C27	C	-3.790040	-0.849921	-0.328438
C28	C	-3.632897	-0.909808	-0.319416
H29	H	-3.939124	-0.855511	-0.561611
H30	H	-3.724271	-0.729489	-0.464166
H31	H	-3.926706	-0.912307	-0.332755
H32	H	-3.711839	-0.786318	-0.235272
H33	H	-3.496208	-0.847415	-0.315112
H34	H	-3.711079	-0.973432	-0.412564
H35	H	-3.584741	-0.949185	-0.224399
C36	C	-3.866278	-0.156938	-0.922740
C37	C	-3.716332	-0.043099	-0.936847
C38	C	-3.478485	-0.036641	-0.844767
H39	H	-3.824079	-0.157957	-0.811983
H40	H	-3.848843	-0.228757	-0.961492
H41	H	-3.733756	0.028701	-0.898088
H42	H	-3.758454	-0.042055	-1.047582
H43	H	-3.461049	-0.108460	-0.883519
H44	H	-3.436310	-0.037664	-0.734016
H45	H	-3.376719	0.040592	-0.854338
H46	H	-4.446040	-0.175193	-1.026009
C47	C	-3.739124	-0.515008	-0.471092
C48	C	-3.547516	-0.525583	-0.327119
C49	C	-3.331896	-0.452707	-0.319362
H50	H	-3.735231	-0.546040	-0.561563
H51	H	-3.726709	-0.427354	-0.472994
H52	H	-3.559926	-0.613218	-0.325233
H53	H	-3.551330	-0.494542	-0.236624
H54	H	-3.319481	-0.365053	-0.321264
H55	H	-3.328028	-0.483747	-0.409840
H56	H	-3.201864	-0.459863	-0.221671
H57	H	-4.473248	-0.558420	-0.502478
