data_functionalizedCrystal
_audit_creation_method	'MofGen! by Chris Wilmer'
_symmetry_space_group_name_H-M	'P1'
_symmetry_Int_Tables_number	1
_symmetry_cell_setting	triclinic
loop_
_symmetry_equiv_pos_as_xyz
  x,y,z
_cell_length_a	12.645331
_cell_length_b	12.645330
_cell_length_c	12.827885
_cell_angle_alpha	90.031113
_cell_angle_beta	90.021593
_cell_angle_gamma	90.012860
loop_
_atom_site_label
_atom_site_type_symbol
_atom_site_fract_x
_atom_site_fract_y
_atom_site_fract_z
Zn1	Zn	1.620756	-0.421982	0.590904
Zn2	Zn	1.620657	-0.599283	0.416160
Zn3	Zn	1.443474	-0.422034	0.416170
Zn4	Zn	1.443468	-0.599204	0.590853
O5	O	1.532088	-0.510626	0.503522
O6	O	1.769090	-0.445512	0.567741
O7	O	1.597114	-0.575825	0.269925
O8	O	1.467035	-0.273680	0.439375
O9	O	1.769017	-0.575774	0.439357
O10	O	1.597283	-0.273642	0.567751
O11	O	1.466939	-0.445601	0.269933
O12	O	1.295126	-0.445525	0.439325
O13	O	1.467024	-0.575641	0.737096
O14	O	1.295121	-0.575692	0.567664
O15	O	1.597277	-0.445436	0.737133
O16	O	1.597108	-0.747619	0.439308
O17	O	1.466928	-0.747562	0.567654
C18	C	1.256659	-0.510607	0.503491
C19	C	1.138829	-0.510624	0.503502
C20	C	1.093914	-0.428609	0.422896
C21	C	0.971354	-0.428306	0.423172
C22	C	0.970994	-0.480824	0.613819
C23	C	1.093592	-0.480211	0.613315
C24	C	1.093624	-0.622684	0.474833
C25	C	0.971016	-0.622099	0.472442
C26	C	1.532035	-0.786056	0.503497
C27	C	1.532110	-0.903886	0.503521
C28	C	1.613874	-1.071442	0.422615
C29	C	1.614141	-0.948881	0.422813
C30	C	1.562407	-0.948260	0.613676
C31	C	1.563056	-1.070858	0.613247
C32	C	1.420015	-1.071215	0.475359
C33	C	1.420552	-0.948611	0.472888
C34	C	1.808594	-0.510646	0.503553
C35	C	1.926424	-0.510654	0.503567
C36	C	1.532161	-0.510524	0.776092
C37	C	1.532191	-0.510481	0.892245
C38	C	1.532171	-0.234121	0.503569
C39	C	1.532206	-0.116290	0.503590
C40	C	1.532078	-0.510651	0.232012
C41	C	1.532252	-0.510395	0.115859
C42	C	1.596652	-0.446039	0.944049
C43	C	1.596685	-0.445992	1.064099
H44	H	0.940423	-0.686448	0.526838
C45	C	1.333921	-0.907334	0.546779
C46	C	1.218132	-0.941481	0.530863
C47	C	1.131511	-0.900244	0.604793
C48	C	1.160680	-0.824861	0.694639
C49	C	1.276475	-0.790710	0.710559
C50	C	1.363095	-0.831947	0.636629
H51	H	1.196535	-0.997288	0.464351
H52	H	1.045792	-0.925525	0.593008
H53	H	1.096558	-0.794335	0.749367
H54	H	1.298072	-0.734903	0.777072
H55	H	1.448815	-0.806666	0.648414
C56	C	1.486204	-1.110933	0.697545
C57	C	1.527367	-1.180564	0.787255
C58	C	1.450528	-1.220630	0.871562
C59	C	1.332525	-1.191065	0.866160
C60	C	1.291356	-1.121430	0.776447
C61	C	1.368196	-1.081364	0.692140
H62	H	1.614725	-1.202453	0.791257
H63	H	1.481004	-1.272178	0.937973
H64	H	1.275643	-1.220724	0.928569
H65	H	1.203998	-1.099541	0.772445
H66	H	1.337719	-1.029815	0.625728
H67	H	0.942037	-0.345279	0.442212
C68	C	1.671178	-0.371550	0.883906
C69	C	1.625179	-0.288417	0.808850
C70	C	1.699709	-0.213927	0.748710
C71	C	1.820237	-0.222570	0.763625
C72	C	1.866243	-0.305706	0.838684
C73	C	1.791713	-0.380196	0.898825
H74	H	1.535951	-0.282017	0.797806
H75	H	1.665652	-0.152385	0.693146
H76	H	1.875409	-0.167428	0.719106
H77	H	1.955471	-0.312106	0.849728
H78	H	1.825770	-0.441738	0.954388
C79	C	1.671244	-0.371454	1.124273
C80	C	1.754410	-0.417436	1.199336
C81	C	1.828972	-0.342895	1.259512
C82	C	1.820367	-0.222373	1.244625
C83	C	1.737197	-0.176385	1.169558
C84	C	1.662635	-0.250926	1.109382
H85	H	1.760783	-0.506659	1.210359
H86	H	1.890540	-0.376939	1.315081
H87	H	1.875562	-0.167193	1.289171
H88	H	1.730824	-0.087162	1.158535
H89	H	1.601067	-0.216882	1.053813
H90	H	1.595185	-0.918884	0.341135
C91	C	1.457690	-0.584936	1.055692
C92	C	1.337170	-0.576285	1.070587
C93	C	1.262607	-0.650826	1.010412
C94	C	1.308566	-0.734018	0.935341
C95	C	1.429093	-0.742673	0.920443
C96	C	1.503655	-0.668132	0.980619
H97	H	1.303143	-0.514698	1.126162
H98	H	1.173385	-0.644418	1.021441
H99	H	1.253371	-0.789197	0.890796
H100	H	1.463119	-0.804259	0.864868
H101	H	1.592877	-0.674539	0.969589
C102	C	0.931687	-0.559054	0.697219
C103	C	0.865855	-0.518820	0.790089
C104	C	0.826546	-0.597051	0.873489
C105	C	0.853070	-0.715516	0.864019
C106	C	0.918906	-0.755756	0.771146
C107	C	0.958215	-0.677525	0.687746
H108	H	0.846217	-0.431120	0.797102
H109	H	0.777809	-0.567262	0.942240
H110	H	0.823971	-0.773427	0.925757
H111	H	0.938544	-0.843456	0.764132
H112	H	1.006951	-0.707314	0.618995
C113	C	1.726394	-0.909143	0.448051
C114	C	1.819544	-0.939064	0.376598
C115	C	1.931802	-0.899329	0.401843
C116	C	1.950911	-0.829673	0.498541
C117	C	1.857759	-0.799748	0.570000
C118	C	1.745500	-0.839483	0.544755
H119	H	1.805401	-0.990631	0.305011
H120	H	2.000759	-0.921482	0.348944
H121	H	2.034011	-0.800259	0.517228
H122	H	1.871902	-0.748181	0.641587
H123	H	1.676543	-0.817331	0.597654
H124	H	1.477022	-0.565611	0.936771
H125	H	1.359165	-1.100219	0.534336
H126	H	1.124493	-0.649920	0.395774
H127	H	0.941214	-0.446918	0.341436
H128	H	1.124733	-0.346045	0.441686
C129	C	1.133667	-0.453432	0.312101
C130	C	1.207401	-0.548476	0.293456
C131	C	1.247162	-0.573301	0.182658
C132	C	1.213189	-0.503081	0.090503
C133	C	1.139451	-0.408032	0.109145
C134	C	1.099690	-0.383207	0.219944
H135	H	1.232554	-0.600462	0.361677
H136	H	1.301749	-0.643663	0.168858
H137	H	1.242623	-0.521458	0.008484
H138	H	1.114298	-0.356046	0.040925
H139	H	1.045104	-0.312844	0.233743
H140	H	1.696524	-1.102170	0.441079
C141	C	1.382794	-1.113099	0.368729
C142	C	1.453806	-1.188780	0.305925
C143	C	1.416600	-1.230664	0.199291
C144	C	1.308382	-1.196865	0.155461
C145	C	1.237363	-1.121180	0.218266
C146	C	1.274569	-1.079296	0.324900
H147	H	1.533922	-1.213804	0.338370
H148	H	1.469173	-1.286691	0.152799
H149	H	1.280840	-1.227870	0.076524
H150	H	1.157248	-1.096157	0.185821
H151	H	1.221996	-1.023269	0.371392
H152	H	0.941881	-0.644601	0.391301
H153	H	0.940307	-0.399833	0.638485
H154	H	1.122203	-0.398312	0.637548
H155	H	1.123310	-0.537374	0.675453
H156	H	1.122668	-0.683783	0.533543
C157	C	1.389685	-0.909440	0.363379
C158	C	1.288976	-0.842710	0.348365
C159	C	1.258115	-0.803530	0.238856
C160	C	1.327963	-0.831080	0.144359
C161	C	1.428678	-0.897813	0.159369
C162	C	1.459539	-0.936994	0.268879
H163	H	1.237265	-0.822313	0.418320
H164	H	1.183559	-0.754129	0.227745
H165	H	1.305118	-0.802076	0.063293
H166	H	1.480389	-0.918210	0.089414
H167	H	1.534095	-0.986394	0.279990
H168	H	1.595155	-1.101000	0.340698
H169	H	1.645062	-1.099368	0.637160
H170	H	1.504734	-0.919109	0.675625
H171	H	1.643487	-0.917469	0.637988
