data_functionalizedCrystal
_audit_creation_method	'MofGen! by Chris Wilmer'
_symmetry_space_group_name_H-M	'P1'
_symmetry_Int_Tables_number	1
_symmetry_cell_setting	triclinic
loop_
_symmetry_equiv_pos_as_xyz
  x,y,z
_cell_length_a	6.817900
_cell_length_b	16.417992
_cell_length_c	22.990694
_cell_angle_alpha	94.965734
_cell_angle_beta	102.418955
_cell_angle_gamma	103.388747
loop_
_atom_site_label
_atom_site_type_symbol
_atom_site_fract_x
_atom_site_fract_y
_atom_site_fract_z
V1	V	-4.019265	-0.259936	-0.082770
O2	O	-4.013360	-0.256236	0.003468
O3	O	-3.964640	-0.256959	-0.163630
O4	O	-3.970420	-0.373851	-0.081721
O5	O	-4.007540	-0.138534	-0.079008
V6	V	-4.503757	-0.245561	-0.072429
O7	O	-4.278397	-0.291469	-0.105455
O8	O	-4.694822	-0.214029	-0.049744
O9	O	-4.335175	-0.248539	0.008431
O10	O	-4.627059	-0.249262	-0.158667
O11	O	-4.632878	-0.366964	-0.076191
O12	O	-4.329395	-0.131647	-0.073479
C13	C	-3.808141	-0.252548	-0.183335
C14	C	-3.844763	-0.250873	-0.249440
C15	C	-3.815513	-0.401655	-0.078851
C16	C	-3.856819	-0.494773	-0.078527
C17	C	-4.026618	-0.807669	-0.131922
C18	C	-3.987822	-0.720177	-0.132237
C19	C	-3.915771	-0.697829	-0.023272
C20	C	-3.954553	-0.785319	-0.022957
C21	C	-4.009987	-0.840237	-0.077284
C22	C	-3.932409	-0.665256	-0.077914
C23	C	-3.890343	-0.570393	-0.078256
C24	C	-4.052052	-0.935106	-0.076943
C25	C	-4.155030	-0.252948	0.028133
C26	C	-4.096576	-0.254672	0.095478
V27	V	-4.261059	-0.249814	0.205046
O28	O	-4.224095	-0.244066	0.292799
O29	O	-4.237646	-0.251412	0.120818
O30	O	-4.242778	-0.368338	0.202703
O31	O	-4.218928	-0.126330	0.210347
V32	V	-4.708799	-0.212407	0.232297
O33	O	-4.520142	-0.270579	0.190260
O34	O	-4.872441	-0.170769	0.262406
O35	O	-4.522627	-0.221158	0.308928
O36	O	-4.855996	-0.212713	0.148540
O37	O	-4.861164	-0.330448	0.230992
O38	O	-4.517495	-0.104233	0.227043
C39	C	-4.147645	-0.103838	-0.076351
C40	C	-4.085577	-0.010720	-0.076671
C41	C	-4.103131	-0.403829	0.199929
C42	C	-4.164653	-0.496962	0.200234
C43	C	-4.347573	-0.233498	0.322809
C44	C	-4.270716	-0.236154	0.388206
C45	C	-4.181823	-0.232442	0.609154
C46	C	-4.254058	-0.229948	0.547707
C47	C	-3.933641	-0.254589	0.529615
C48	C	-3.861416	-0.257089	0.591060
C49	C	-3.985510	-0.246010	0.630828
C50	C	-4.129970	-0.241017	0.507937
C51	C	-4.208288	-0.238313	0.441314
C52	C	-3.907188	-0.248716	0.697456
C53	C	-4.341028	-0.084347	0.218357
C54	C	-4.260010	0.007825	0.217349
C55	C	-4.366416	-0.536656	0.203472
C56	C	-4.424241	-0.624162	0.203767
C57	C	-4.280304	-0.671973	0.200819
C58	C	-4.078522	-0.632273	0.197582
C59	C	-4.020696	-0.544768	0.197292
C60	C	-4.061732	0.038715	0.207898
C61	C	-3.985574	0.125319	0.206955
C62	C	-4.107704	0.181030	0.215459
C63	C	-4.305998	0.150135	0.224913
C64	C	-4.382147	0.063533	0.225860
H65	H	-4.071745	-0.852382	-0.176159
H66	H	-3.870639	-0.653104	0.020959
H67	H	-3.701552	-0.268141	0.608707
F68	F	-3.805955	-0.502533	0.193838
H69	H	-3.962257	-0.006635	0.200973
H70	H	-4.543607	0.038389	0.233552
H71	H	-4.001364	-0.693665	-0.176729
F72	F	-4.519639	-0.485787	0.206610
H73	H	-3.941004	-0.811835	0.021539
H74	H	-3.832617	-0.263606	0.497229
H75	H	-4.282872	-0.223420	0.641532
H76	H	-4.413910	-0.218900	0.530063
F77	F	-4.639005	-0.666399	0.207208
F78	F	-4.435961	0.209437	0.233959
F79	F	-4.341880	-0.765105	0.201127
F80	F	-3.925360	-0.683170	0.194439
H81	H	-3.824111	0.150460	0.199257
H82	H	-4.045618	0.251553	0.214727
