data_functionalizedCrystal
_audit_creation_method	'MofGen! by Chris Wilmer'
_symmetry_space_group_name_H-M	'P1'
_symmetry_Int_Tables_number	1
_symmetry_cell_setting	triclinic
loop_
_symmetry_equiv_pos_as_xyz
  x,y,z
_cell_length_a	10.540539
_cell_length_b	13.596369
_cell_length_c	14.519731
_cell_angle_alpha	90.011346
_cell_angle_beta	95.892827
_cell_angle_gamma	89.996748
loop_
_atom_site_label
_atom_site_type_symbol
_atom_site_fract_x
_atom_site_fract_y
_atom_site_fract_z
O1	O	1.684575	-0.081758	-0.129968
O2	O	1.315039	-0.081771	-0.142213
O3	O	1.509591	-0.081745	-0.001906
O4	O	1.490023	-0.081785	-0.270275
O5	O	1.509571	0.081838	-0.001899
O6	O	1.315019	0.081811	-0.142206
O7	O	1.684556	0.081825	-0.129960
Zn8	Zn	1.499785	0.107790	-0.136082
Zn9	Zn	1.499810	-0.107737	-0.136092
O10	O	1.490004	0.081798	-0.270268
C11	C	1.267735	0.000019	-0.141291
C12	C	1.126815	0.000014	-0.138544
N13	N	1.499776	0.254882	-0.136075
N14	N	1.499828	-0.254829	-0.136092
C15	C	0.944452	0.000412	-0.033265
C16	C	1.091042	0.000033	-0.036050
C17	C	1.064655	-0.093403	-0.187872
C18	C	0.918146	-0.093471	-0.184374
C19	C	0.917614	0.092553	-0.186451
C20	C	1.064587	0.093778	-0.187395
C21	C	1.731859	0.000033	-0.130883
C22	C	1.872780	0.000030	-0.133630
C23	C	1.508664	0.000050	0.032462
C24	C	1.505917	0.000059	0.134857
C25	C	1.499808	0.656173	-0.136093
C26	C	1.499796	0.544522	-0.136091
C27	C	1.499793	0.455531	-0.136084
C28	C	1.499779	0.343873	-0.136081
C29	C	1.503684	0.000063	0.218013
C30	C	1.500895	0.000064	0.322337
C31	C	1.498681	0.000064	0.405488
C32	C	1.495892	0.000067	0.509818
C33	C	1.490931	0.000022	0.695364
C34	C	1.493678	0.000068	0.592969
H35	H	1.134040	0.066999	0.002763
H36	H	1.107598	-0.162916	-0.153612
N37	N	0.878440	0.181377	-0.144832
N38	N	0.816992	0.177565	-0.075727
H39	H	0.789323	0.240292	-0.046325
N40	N	0.907060	-0.083127	0.017334
N41	N	0.855595	-0.071273	0.090356
H42	H	0.829177	-0.130271	0.126091
H43	H	0.916268	0.067408	0.007228
N44	N	1.143908	-0.084110	0.012976
N45	N	1.072523	-0.142741	0.049352
H46	H	1.109858	-0.202173	0.083979
H47	H	1.088057	0.099406	-0.262119
N48	N	1.116404	0.180470	-0.142169
N49	N	1.198860	0.173303	-0.074212
H50	H	1.235464	0.234528	-0.042268
H51	H	0.869433	-0.097722	-0.258086
N52	N	0.883239	-0.181062	-0.138648
N53	N	0.967042	-0.241717	-0.109534
H54	H	0.942396	-0.303581	-0.077237
N55	N	1.091744	-0.097769	-0.282296
N56	N	1.157323	-0.031923	-0.314363
H57	H	1.176457	-0.035002	-0.381050
N58	N	0.857428	0.093321	-0.279319
N59	N	0.781826	0.026095	-0.306593
H60	H	0.739313	0.026629	-0.372178
