data_functionalizedCrystal
_audit_creation_method	'MofGen! by Chris Wilmer'
_symmetry_space_group_name_H-M	'P1'
_symmetry_Int_Tables_number	1
_symmetry_cell_setting	triclinic
loop_
_symmetry_equiv_pos_as_xyz
  x,y,z
_cell_length_a	16.120490
_cell_length_b	16.120484
_cell_length_c	13.032268
_cell_angle_alpha	99.642751
_cell_angle_beta	94.644414
_cell_angle_gamma	90.164100
loop_
_atom_site_label
_atom_site_type_symbol
_atom_site_fract_x
_atom_site_fract_y
_atom_site_fract_z
Zn1	Zn	1.180629	-0.462311	-0.695115
Zn2	Zn	1.191135	-0.585432	-0.528856
Zn3	Zn	1.061103	-0.437644	-0.511240
Zn4	Zn	1.034582	-0.594165	-0.694163
O5	O	1.116862	-0.519888	-0.607343
O6	O	1.297563	-0.485312	-0.680830
O7	O	1.189382	-0.551850	-0.380385
O8	O	1.083660	-0.323885	-0.528657
O9	O	1.305282	-0.575769	-0.558681
O10	O	1.171476	-0.342007	-0.663749
O11	O	1.093847	-0.443270	-0.367443
O12	O	0.942045	-0.451738	-0.527735
O13	O	1.038460	-0.590652	-0.840423
O14	O	0.922560	-0.566733	-0.662128
O15	O	1.145760	-0.493779	-0.841122
O16	O	1.163666	-0.703622	-0.557758
O17	O	1.048647	-0.710038	-0.679209
C18	C	0.902344	-0.507507	-0.592917
C19	C	0.810568	-0.502233	-0.586771
C20	C	0.592026	-0.547239	-0.639223
C21	C	0.642537	-0.492611	-0.575550
C22	C	0.736038	-0.497966	-0.581795
C23	C	0.498516	-0.541885	-0.632979
C24	C	1.104439	-0.737178	-0.620316
C25	C	1.099196	-0.830144	-0.625906
C26	C	1.089626	-1.000355	-0.636133
C27	C	1.144245	-1.038591	-0.578581
C28	C	1.138920	-1.133302	-0.584271
C29	C	1.094949	-0.905635	-0.630444
C30	C	1.332218	-0.532318	-0.621827
C31	C	1.423990	-0.537615	-0.627999
C32	C	1.087980	-0.545941	-0.879723
C33	C	1.075672	-0.557044	-0.995795
C34	C	1.129354	-0.301753	-0.594344
C35	C	1.134678	-0.208796	-0.588805
C36	C	1.123275	-0.514063	-1.047890
C37	C	1.110555	-0.525537	-1.167856
C38	C	1.145683	-0.493878	-0.336023
C39	C	1.158164	-0.482550	-0.219948
H40	H	1.195004	-1.000195	-0.525035
H41	H	0.619003	-0.598026	-0.698421
C42	C	0.606103	-0.424000	-0.495563
H43	H	0.650092	-0.390427	-0.456437
H44	H	0.575455	-0.449692	-0.449705
H45	H	0.570290	-0.389544	-0.531210
H46	H	1.173443	-0.468768	-1.003675
H47	H	1.038870	-1.038747	-0.689673
H48	H	1.060376	-0.570826	-1.212066
C49	C	1.225946	-0.421359	-1.160234
H50	H	1.225609	-0.421677	-1.087437
H51	H	1.215206	-0.366164	-1.173899
H52	H	1.278847	-0.438500	-1.182518
H53	H	1.025496	-0.602330	-1.040009
