data_functionalizedCrystal
_audit_creation_method	'MofGen! by Chris Wilmer'
_symmetry_space_group_name_H-M	'P1'
_symmetry_Int_Tables_number	1
_symmetry_cell_setting	triclinic
loop_
_symmetry_equiv_pos_as_xyz
  x,y,z
_cell_length_a	27.435584
_cell_length_b	27.434948
_cell_length_c	27.431174
_cell_angle_alpha	60.005483
_cell_angle_beta	60.011353
_cell_angle_gamma	59.993028
loop_
_atom_site_label
_atom_site_type_symbol
_atom_site_fract_x
_atom_site_fract_y
_atom_site_fract_z
O1	O	0.067437	-0.712144	0.595551
O2	O	0.567437	-0.212144	1.095551
O3	O	0.025356	-0.554453	0.479848
O4	O	0.525356	-0.054453	0.979848
O5	O	0.125206	-0.654236	0.479781
O6	O	0.625206	-0.154236	0.979781
O7	O	-0.032412	-0.612361	0.595618
O8	O	0.467588	-0.112361	1.095618
O9	O	0.158328	-0.621117	0.512835
O10	O	0.658328	-0.121117	1.012835
O11	O	0.058479	-0.521333	0.512902
O12	O	0.558479	-0.021333	1.012902
O13	O	0.100560	-0.679025	0.628605
O14	O	0.600560	-0.179025	1.128605
Zn15	Zn	0.084778	-0.594921	0.576001
Zn16	Zn	0.584778	-0.094921	1.076001
Zn17	Zn	0.041138	-0.638557	0.532452
Zn18	Zn	0.541138	-0.138557	1.032452
O19	O	0.000710	-0.579241	0.628672
O20	O	0.500710	-0.079241	1.128672
N21	N	0.114563	-0.565144	0.605726
N22	N	0.614563	-0.065144	1.105726
N23	N	0.011358	-0.668338	0.502727
N24	N	0.511358	-0.168338	1.002727
C25	C	0.156385	-0.523520	0.904506
C26	C	0.656385	-0.023520	1.404506
C27	C	0.413419	-0.523497	0.647322
C28	C	0.913419	-0.023497	1.147322
C29	C	0.156253	-0.523488	0.647384
C30	C	0.656253	-0.023488	1.147384
C31	C	0.156238	-0.266354	0.647407
C32	C	0.656238	0.233646	1.147407
C33	C	0.197637	-0.390463	0.688753
C34	C	0.697637	0.109537	1.188753
C35	C	0.197646	-0.482126	0.688741
C36	C	0.697646	0.017874	1.188741
C37	C	0.220575	-0.459215	0.711654
C38	C	0.720575	0.040785	1.211654
C39	C	0.320555	-0.441991	0.659023
C40	C	0.820555	0.058009	1.159023
C41	C	0.383051	-0.462825	0.638179
C42	C	0.883051	0.037175	1.138179
C43	C	0.383069	-0.563942	0.676737
C44	C	0.883069	-0.063942	1.176737
C45	C	0.320575	-0.543107	0.697583
C46	C	0.820575	-0.043107	1.197583
C47	C	0.212704	-0.359206	0.627313
C48	C	0.712704	0.140794	1.127313
C49	C	0.191849	-0.296705	0.606496
C50	C	0.691849	0.203295	1.106496
C51	C	0.140866	-0.296722	0.708562
C52	C	0.640866	0.203278	1.208562
C53	C	0.161721	-0.359223	0.729379
C54	C	0.661721	0.140777	1.229379
C55	C	0.136200	-0.467030	0.703858
C56	C	0.636200	0.032970	1.203858
C57	C	0.115361	-0.487857	0.683021
C58	C	0.615361	0.012143	1.183021
C59	C	0.217408	-0.538877	0.631968
C60	C	0.717408	-0.038877	1.131968
C61	C	0.238249	-0.518050	0.652796
C62	C	0.738249	-0.018050	1.152796
C63	C	0.136259	-0.467047	0.811668
C64	C	0.636259	0.032953	1.311668
C65	C	0.115461	-0.487892	0.874167
C66	C	0.615461	0.012108	1.374167
C67	C	0.217537	-0.538923	0.874131
C68	C	0.717537	-0.038923	1.374131
C69	C	0.238333	-0.518080	0.811631
C70	C	0.738333	-0.018080	1.311631
C71	C	0.197693	-0.482140	0.780401
C72	C	0.697693	0.017860	1.280401
C73	C	0.289320	-0.482131	0.688723
C74	C	0.789320	0.017869	1.188723
C75	C	0.132699	-0.546027	0.973247
C76	C	0.632699	-0.046027	1.473247
C77	C	0.482158	-0.545613	0.624075
C78	C	0.982158	-0.045613	1.124075
C79	C	0.132521	-0.546006	0.624886
C80	C	0.632521	-0.046006	1.124886
C81	C	0.132917	-0.197607	0.625310
C82	C	0.632917	0.302393	1.125310
C83	C	-0.098217	-0.686189	0.484419
C84	C	0.401783	-0.186189	0.984419
C85	C	-0.006438	-0.686322	0.392891
C86	C	0.493562	-0.186322	0.892891
C87	C	-0.006621	-0.777944	0.484592
C88	C	0.493379	-0.277944	0.984592
C89	C	-0.006606	-0.686315	0.484649
C90	C	0.493394	-0.186315	0.984649
C91	C	-0.029470	-0.709193	0.461638
C92	C	0.470530	-0.209193	0.961638
N93	N	0.538410	-0.565162	0.605628
N94	N	1.038410	-0.065162	1.105628
O95	O	0.742647	-0.575135	0.458625
O96	O	1.242647	-0.075135	0.958625
O97	O	0.742821	-0.691181	0.616169
O98	O	1.242821	-0.191181	1.116169
O99	O	0.742757	-0.690917	0.516248
O100	O	1.242757	-0.190917	1.016248
O101	O	0.742711	-0.575399	0.558546
O102	O	1.242711	-0.075399	1.058546
O103	O	0.643472	-0.657878	0.549405
O104	O	1.143472	-0.157878	1.049405
O105	O	0.643536	-0.658142	0.649326
O106	O	1.143536	-0.158142	1.149326
O107	O	0.643362	-0.542096	0.491782
O108	O	1.143362	-0.042096	0.991782
Zn109	Zn	0.627685	-0.594873	0.575818
Zn110	Zn	1.127685	-0.094873	1.075818
Zn111	Zn	0.758498	-0.638404	0.532133
Zn112	Zn	1.258498	-0.138404	1.032133
O113	O	0.643426	-0.542360	0.591702
O114	O	1.143426	-0.042360	1.091702
N115	N	0.847774	-0.668115	0.502317
N116	N	1.347774	-0.168115	1.002317
N117	N	0.114542	-0.141354	0.605766
N118	N	0.614542	0.358646	1.105766
O119	O	-0.032397	0.062987	0.595660
O120	O	0.467603	0.562987	1.095660
O121	O	0.125155	0.062987	0.479633
O122	O	0.625155	0.562987	0.979633
O123	O	0.025219	0.062974	0.479910
O124	O	0.525219	0.562974	0.979910
O125	O	0.067539	0.063001	0.595383
O126	O	0.567539	0.563001	1.095383
O127	O	0.058343	-0.036320	0.513009
O128	O	0.558343	0.463680	1.013009
O129	O	0.158279	-0.036306	0.512732
O130	O	0.658279	0.463694	1.012732
O131	O	0.000728	-0.036306	0.628759
O132	O	0.500728	0.463694	1.128759
Zn133	Zn	0.084763	-0.052071	0.576000
Zn134	Zn	0.584763	0.447929	1.076000
Zn135	Zn	0.041120	0.078752	0.532392
Zn136	Zn	0.541120	0.578752	1.032392
O137	O	0.100664	-0.036292	0.628482
O138	O	0.600664	0.463708	1.128482
N139	N	0.011333	0.168036	0.502628
N140	N	0.511333	0.668036	1.002628
N141	N	0.114782	-0.565197	1.029501
N142	N	0.614782	-0.065197	1.529501
O143	O	0.104681	-0.712124	1.233827
O144	O	0.604681	-0.212124	1.733827
O145	O	-0.011334	-0.554523	1.233839
O146	O	0.488666	-0.054523	1.733839
O147	O	-0.011066	-0.654443	1.233797
O148	O	0.488934	-0.154443	1.733797
O149	O	0.104414	-0.612204	1.233869
O150	O	0.604414	-0.112204	1.733869
O151	O	0.022028	-0.621336	1.134509
O152	O	0.522028	-0.121336	1.634509
O153	O	0.021760	-0.521417	1.134551
O154	O	0.521760	-0.021417	1.634551
O155	O	0.137775	-0.679018	1.134539
O156	O	0.637775	-0.179018	1.634539
Zn157	Zn	0.085022	-0.594961	1.118780
Zn158	Zn	0.585022	-0.094961	1.618780
Zn159	Zn	0.041420	-0.638580	1.249597
Zn160	Zn	0.541420	-0.138580	1.749597
O161	O	0.137508	-0.579098	1.134580
O162	O	0.637508	-0.079098	1.634580
N163	N	0.011658	-0.668350	1.338876
N164	N	0.511658	-0.168350	1.838876
C165	C	0.037974	-0.518023	0.480435
C166	C	0.537974	-0.018023	0.980435
C167	C	0.161625	-0.641592	0.480351
C168	C	0.661625	-0.141592	0.980351
C169	C	0.087941	-0.715455	0.628017
C170	C	0.587941	-0.215455	1.128017
C171	C	-0.035710	-0.591885	0.628101
C172	C	0.464290	-0.091885	1.128101
C173	C	0.693199	-0.690642	0.652596
C174	C	1.193199	-0.190642	1.152596
C175	C	0.693122	-0.690315	0.528855
C176	C	1.193122	-0.190315	1.028855
C177	C	0.692981	-0.542634	0.455356
C178	C	1.192981	-0.042634	0.955356
C179	C	0.693062	-0.542961	0.579095
C180	C	1.193062	-0.042961	1.079095
C181	C	0.161524	0.013463	0.480164
C182	C	0.661524	0.513463	0.980164
C183	C	0.037807	0.013324	0.480547
C184	C	0.537807	0.513324	0.980547
C185	C	-0.035683	0.013341	0.628188
C186	C	0.464317	0.513341	1.128188
C187	C	0.088076	0.013357	0.627845
C188	C	0.588076	0.513357	1.127845
C189	C	-0.010764	-0.518114	1.184196
C190	C	0.489236	-0.018114	1.684196
C191	C	-0.010426	-0.641846	1.184125
C192	C	0.489574	-0.141846	1.684125
C193	C	0.137205	-0.715426	1.184182
C194	C	0.637205	-0.215426	1.684182
C195	C	0.136875	-0.591687	1.184231
C196	C	0.636875	-0.091687	1.684231
H197	H	0.103160	-0.437777	0.786243
H198	H	0.603160	0.062223	1.286243
C199	C	0.221766	0.013700	0.431492
C200	C	0.721766	0.513700	0.931492
C201	C	0.248167	-0.037286	0.415404
C202	C	0.748167	0.462714	0.915404
C203	C	0.303667	-0.037097	0.370579
C204	C	0.803667	0.462903	0.870579
H205	H	0.216417	0.048357	0.397621
H206	H	0.716417	0.548357	0.897621
H207	H	0.246859	0.013748	0.445875
H208	H	0.746859	0.513748	0.945875
H209	H	0.223079	-0.037329	0.401019
H210	H	0.723079	0.462671	0.901019
H211	H	0.253531	-0.071951	0.449261
H212	H	0.753531	0.428049	0.949261
H213	H	0.328761	-0.037049	0.384962
H214	H	0.828761	0.462951	0.884962
H215	H	0.298313	-0.002438	0.336712
H216	H	0.798313	0.497562	0.836712
H217	H	0.321590	-0.071693	0.359661
H218	H	0.821590	0.428307	0.859661
C219	C	0.025634	0.013263	0.432267
C220	C	0.525634	0.513263	0.932267
C221	C	-0.032640	0.013235	0.453925
C222	C	0.467360	0.513235	0.953925
C223	C	-0.043869	0.013162	0.409473
C224	C	0.456131	0.513162	0.909473
H225	H	0.030025	0.047870	0.398278
H226	H	0.530025	0.547870	0.898278
H227	H	0.053154	-0.021386	0.421418
H228	H	0.553154	0.478614	0.921418
H229	H	-0.060152	0.047880	0.464766
H230	H	0.439848	0.547880	0.964766
H231	H	-0.037045	-0.021369	0.487908
H232	H	0.462955	0.478631	0.987908
H233	H	-0.016349	-0.021487	0.398623
H234	H	0.483651	0.478513	0.898623
H235	H	-0.039475	0.047770	0.375487
H236	H	0.460525	0.547770	0.875487
H237	H	-0.083406	0.013137	0.424163
H238	H	0.416594	0.513137	0.924163
H239	H	-0.080930	0.013340	0.664614
H240	H	0.419070	0.513340	1.164614
H241	H	0.408481	-0.430137	0.613993
H242	H	0.908481	0.069863	1.113993
H243	H	0.693140	-0.726605	0.519802
H244	H	1.193140	-0.226605	1.019802
H245	H	0.692924	-0.506199	0.410112
H246	H	1.192924	-0.006199	0.910112
H247	H	0.693242	-0.727072	0.697844
H248	H	1.193242	-0.227072	1.197844
H249	H	-0.046689	-0.650868	1.184063
H250	H	0.453311	-0.150868	1.684063
H251	H	0.097136	0.013366	0.664120
H252	H	0.597136	0.513366	1.164120
H253	H	0.206895	-0.650521	0.443974
H254	H	0.706895	-0.150521	0.943974
H255	H	-0.047187	-0.472851	1.184199
H256	H	0.452813	0.027149	1.684199
H257	H	0.096930	-0.760753	0.664356
H258	H	0.596930	-0.260753	1.164356
H259	H	0.693053	-0.506675	0.588146
H260	H	1.193053	-0.006675	1.088146
C261	C	0.185690	-0.775826	1.184206
C262	C	0.685690	-0.275826	1.684206
C263	C	0.164295	-0.812671	1.184193
C264	C	0.664295	-0.312671	1.684193
C265	C	0.208940	-0.868318	1.184221
C266	C	0.708940	-0.368318	1.684221
H267	H	0.219640	-0.770684	1.149598
H268	H	0.719640	-0.270684	1.649598
H269	H	0.196530	-0.793729	1.218851
H270	H	0.696530	-0.293729	1.718851
H271	H	0.153464	-0.794773	1.149551
H272	H	0.653464	-0.294773	1.649551
H273	H	0.130351	-0.817831	1.218798
H274	H	0.630351	-0.317831	1.718798
H275	H	0.219780	-0.886220	1.218866
H276	H	0.719780	-0.386220	1.718866
H277	H	0.242887	-0.863169	1.149613
H278	H	0.742887	-0.363169	1.649613
H279	H	0.194428	-0.893326	1.184218
H280	H	0.694428	-0.393326	1.684218
C281	C	0.025921	-0.457655	0.431958
C282	C	0.525921	0.042345	0.931958
C283	C	-0.022071	-0.447132	0.418337
C284	C	0.477929	0.052868	0.918337
C285	C	-0.033187	-0.391532	0.373678
C286	C	0.466813	0.108468	0.873678
H287	H	0.016427	-0.427252	0.445637
H288	H	0.516427	0.072748	0.945637
H289	H	0.060430	-0.457485	0.397218
H290	H	0.560430	0.042515	0.897218
H291	H	-0.056573	-0.447297	0.453071
H292	H	0.443427	0.052703	0.953071
H293	H	-0.012590	-0.477521	0.404648
H294	H	0.487410	0.022479	0.904648
H295	H	0.001322	-0.391362	0.338937
H296	H	0.501322	0.108638	0.838937
H297	H	-0.042679	-0.361134	0.387362
H298	H	0.457321	0.138866	0.887362
H299	H	-0.065746	-0.384387	0.364426
H300	H	0.434254	0.115613	0.864426
C301	C	0.185187	-0.579518	1.184219
C302	C	0.685187	-0.079518	1.684219
C303	C	0.163547	-0.521225	1.184217
C304	C	0.663547	-0.021225	1.684217
C305	C	0.208038	-0.509992	1.184198
C306	C	0.708038	-0.009992	1.684198
H307	H	0.196093	-0.607009	1.218835
H308	H	0.696093	-0.107009	1.718835
H309	H	0.219138	-0.583939	1.149583
H310	H	0.719138	-0.083939	1.649583
H311	H	0.129607	-0.516810	1.218850
H312	H	0.629607	-0.016810	1.718850
H313	H	0.152645	-0.493722	1.149603
H314	H	0.652645	0.006278	1.649603
H315	H	0.241989	-0.514413	1.149561
H316	H	0.741989	-0.014413	1.649561
H317	H	0.218942	-0.537486	1.218814
H318	H	0.718942	-0.037486	1.718814
H319	H	0.193364	-0.470438	1.184190
H320	H	0.693364	0.029562	1.684190
H321	H	0.250633	-0.568176	0.899553
H322	H	0.750633	-0.068176	1.399553
C323	C	0.048733	-0.471404	0.908000
C324	C	0.548733	0.028596	1.408000
C325	C	0.017598	-0.435454	0.867269
C326	C	0.517598	0.064546	1.367269
C327	C	-0.043871	-0.420248	0.898415
C328	C	0.456129	0.079752	1.398415
H329	H	0.038412	-0.506693	0.932381
H330	H	0.538412	-0.006693	1.432381
H331	H	0.038474	-0.450173	0.932369
H332	H	0.538474	0.049827	1.432369
H333	H	0.027853	-0.456685	0.842910
H334	H	0.527853	0.043315	1.342910
H335	H	0.027901	-0.400157	0.842886
H336	H	0.527901	0.099843	1.342886
H337	H	-0.054130	-0.399017	0.922785
H338	H	0.445870	0.100983	1.422785
H339	H	-0.054185	-0.455540	0.922796
H340	H	0.445815	0.044460	1.422796
H341	H	-0.065003	-0.395850	0.870784
H342	H	0.434997	0.104150	1.370784
C343	C	0.048643	-0.471558	0.699550
C344	C	0.548643	0.028442	1.199550
C345	C	0.022960	-0.492836	0.761719
C346	C	0.522960	0.007164	1.261719
C347	C	-0.038497	-0.477842	0.776967
C348	C	0.461503	0.022158	1.276967
H349	H	0.030994	-0.429397	0.685250
H350	H	0.530994	0.070603	1.185250
H351	H	0.042026	-0.489126	0.682029
H352	H	0.542026	0.010874	1.182029
H353	H	0.029573	-0.475266	0.779233
H354	H	0.529573	0.024734	1.279233
H355	H	0.040592	-0.534996	0.776034
H356	H	0.540592	-0.034996	1.276034
H357	H	-0.045114	-0.495410	0.759446
H358	H	0.454886	0.004590	1.259446
H359	H	-0.056140	-0.435680	0.762663
H360	H	0.443860	0.064320	1.262663
H361	H	-0.055929	-0.492281	0.819149
H362	H	0.444071	0.007719	1.319149
C363	C	0.305061	-0.534510	0.777794
C364	C	0.805061	-0.034510	1.277794
C365	C	0.336197	-0.570429	0.818523
C366	C	0.836197	-0.070429	1.318523
C367	C	0.397666	-0.585570	0.787375
C368	C	0.897666	-0.085570	1.287375
H369	H	0.315379	-0.555742	0.753408
H370	H	0.815379	-0.055742	1.253408
H371	H	0.315321	-0.499179	0.753429
H372	H	0.815321	0.000821	1.253429
H373	H	0.325941	-0.605755	0.842878
H374	H	0.825941	-0.105755	1.342878
H375	H	0.325898	-0.549209	0.842910
H376	H	0.825898	-0.049209	1.342910
H377	H	0.407926	-0.550239	0.763010
H378	H	0.907926	-0.050239	1.263010
H379	H	0.407977	-0.606800	0.762990
H380	H	0.907977	-0.106800	1.262990
H381	H	0.418799	-0.609938	0.815005
H382	H	0.918799	-0.109938	1.315005
H383	H	0.250475	-0.568133	0.602707
H384	H	0.750475	-0.068133	1.102707
C385	C	0.304985	-0.534507	0.636329
C386	C	0.804985	-0.034507	1.136329
C387	C	0.336086	-0.570429	0.600395
C388	C	0.836086	-0.070429	1.100395
C389	C	0.397562	-0.585599	0.585213
C390	C	0.897562	-0.085599	1.085213
H391	H	0.315280	-0.499203	0.615098
H392	H	0.815280	0.000797	1.115098
H393	H	0.315296	-0.555747	0.671642
H394	H	0.815296	-0.055747	1.171642
H395	H	0.325779	-0.549189	0.565088
H396	H	0.825779	-0.049189	1.065088
H397	H	0.325808	-0.605741	0.621615
H398	H	0.825808	-0.105741	1.121615
H399	H	0.407873	-0.606839	0.620526
H400	H	0.907873	-0.106839	1.120526
H401	H	0.407851	-0.550292	0.563983
H402	H	0.907851	-0.050292	1.063983
H403	H	0.418671	-0.609978	0.560834
H404	H	0.918671	-0.109978	1.060834
C405	C	-0.096041	-0.579915	0.676629
C406	C	0.403959	-0.079915	1.176629
C407	C	-0.106585	-0.531941	0.690289
C408	C	0.393415	-0.031941	1.190289
C409	C	-0.162152	-0.520903	0.734996
C410	C	0.337848	-0.020903	1.234996
H411	H	-0.126463	-0.570430	0.662979
H412	H	0.373537	-0.070430	1.162979
H413	H	-0.096156	-0.614455	0.711346
H414	H	0.403844	-0.114455	1.211346
H415	H	-0.106475	-0.497408	0.655579
H416	H	0.393525	0.002592	1.155579
H417	H	-0.076177	-0.541413	0.703949
H418	H	0.423823	-0.041413	1.203949
H419	H	-0.162267	-0.555443	0.769713
H420	H	0.337733	-0.055443	1.269713
H421	H	-0.192569	-0.511420	0.721342
H422	H	0.307431	-0.011420	1.221342
H423	H	-0.169310	-0.488355	0.744274
H424	H	0.330690	0.011645	1.244274
C425	C	0.286768	-0.586780	0.729788
C426	C	0.786768	-0.086780	1.229788
C427	C	0.327519	-0.644636	0.733066
C428	C	0.827519	-0.144636	1.233066
C429	C	0.296399	-0.684882	0.762722
C430	C	0.796399	-0.184882	1.262722
H431	H	0.262403	-0.585265	0.768966
H432	H	0.762403	-0.085265	1.268966
H433	H	0.262387	-0.576353	0.708494
H434	H	0.762387	-0.076353	1.208494
H435	H	0.351891	-0.655060	0.754360
H436	H	0.851891	-0.155060	1.254360
H437	H	0.351886	-0.646170	0.693896
H438	H	0.851886	-0.146170	1.193896
H439	H	0.272018	-0.674455	0.741429
H440	H	0.772018	-0.174455	1.241429
H441	H	0.272035	-0.683362	0.801899
H442	H	0.772035	-0.183362	1.301899
H443	H	0.324044	-0.724141	0.764945
H444	H	0.824044	-0.224141	1.264945
H445	H	0.103135	-0.437780	0.733124
H446	H	0.603135	0.062220	1.233124
H447	H	0.295112	-0.392340	0.651807
H448	H	0.795112	0.107660	1.151807
C449	C	0.251663	-0.393017	0.583113
C450	C	0.751663	0.106983	1.083113
C451	C	0.260374	-0.352264	0.524849
C452	C	0.760374	0.147736	1.024849
C453	C	0.296252	-0.383388	0.484114
C454	C	0.796252	0.116612	0.984114
H455	H	0.289165	-0.417401	0.589022
H456	H	0.789165	0.082599	1.089022
H457	H	0.232581	-0.417385	0.589089
H458	H	0.732581	0.082615	1.089089
H459	H	0.279457	-0.327906	0.518876
H460	H	0.779457	0.172094	1.018876
H461	H	0.222882	-0.327880	0.518921
H462	H	0.722882	0.172120	1.018921
H463	H	0.277170	-0.407756	0.490090
H464	H	0.777170	0.092244	0.990090
H465	H	0.333752	-0.407771	0.490029
H466	H	0.833752	0.092229	0.990029
H467	H	0.302163	-0.355742	0.444578
H468	H	0.802163	0.144258	0.944578
C469	C	0.417117	-0.630120	0.686268
C470	C	0.917117	-0.130120	1.186268
C471	C	0.478533	-0.639772	0.661642
C472	C	0.978533	-0.139772	1.161642
C473	C	0.509915	-0.700725	0.670404
C474	C	1.009915	-0.200725	1.170404
H475	H	0.406966	-0.651975	0.727810
H476	H	0.906966	-0.151975	1.227810
H477	H	0.406900	-0.643062	0.667361
H478	H	0.906900	-0.143062	1.167361
H479	H	0.488746	-0.626836	0.680550
H480	H	0.988746	-0.126836	1.180550
H481	H	0.488701	-0.617931	0.620099
H482	H	0.988701	-0.117931	1.120099
H483	H	0.499698	-0.713667	0.651498
H484	H	0.999698	-0.213667	1.151498
H485	H	0.499760	-0.722575	0.711948
H486	H	0.999760	-0.222575	1.211948
H487	H	0.551589	-0.707281	0.653693
H488	H	1.051589	-0.207281	1.153693
H489	H	0.111630	-0.271286	0.741644
H490	H	0.611630	0.228714	1.241644
C491	C	0.208116	-0.262657	0.539809
C492	C	0.708116	0.237343	1.039809
C493	C	0.182155	-0.201235	0.530273
C494	C	0.682155	0.298765	1.030273
C495	C	0.197121	-0.169852	0.468850
C496	C	0.697121	0.330148	0.968850
H497	H	0.250269	-0.272824	0.522180
H498	H	0.750269	0.227176	1.022180
H499	H	0.193713	-0.272860	0.522240
H500	H	0.693713	0.227140	1.022240
H501	H	0.196560	-0.191037	0.547834
H502	H	0.696560	0.308963	1.047834
H503	H	0.140002	-0.191050	0.547888
H504	H	0.640002	0.308950	1.047888
H505	H	0.182719	-0.180055	0.451281
H506	H	0.682719	0.319945	0.951281
H507	H	0.239275	-0.180024	0.451227
H508	H	0.739275	0.319976	0.951227
H509	H	0.179505	-0.128175	0.462372
H510	H	0.679505	0.371825	0.962372
C511	C	0.145324	-0.393056	0.796112
C512	C	0.645324	0.106944	1.296112
C513	C	0.109416	-0.352320	0.827235
C514	C	0.609416	0.147680	1.327235
C515	C	0.094305	-0.383464	0.888708
C516	C	0.594305	0.116536	1.388708
H517	H	0.124095	-0.417440	0.806439
H518	H	0.624095	0.082560	1.306439
H519	H	0.180663	-0.417424	0.806375
H520	H	0.680663	0.082576	1.306375
H521	H	0.074083	-0.327962	0.816976
H522	H	0.574083	0.172038	1.316976
H523	H	0.130633	-0.327934	0.816925
H524	H	0.630633	0.172066	1.316925
H525	H	0.129645	-0.407832	0.898972
H526	H	0.629645	0.092168	1.398972
H527	H	0.073079	-0.407847	0.899030
H528	H	0.573079	0.092153	1.399030
H529	H	0.069946	-0.355829	0.909833
H530	H	0.569946	0.144171	1.409833
