data_functionalizedCrystal
_audit_creation_method	'MofGen! by Chris Wilmer'
_symmetry_space_group_name_H-M	'P1'
_symmetry_Int_Tables_number	1
_symmetry_cell_setting	triclinic
loop_
_symmetry_equiv_pos_as_xyz
  x,y,z
_cell_length_a	6.817900
_cell_length_b	9.582860
_cell_length_c	14.125286
_cell_angle_alpha	94.009630
_cell_angle_beta	100.396688
_cell_angle_gamma	111.206767
loop_
_atom_site_label
_atom_site_type_symbol
_atom_site_fract_x
_atom_site_fract_y
_atom_site_fract_z
V1	V	-4.031080	-0.205901	-0.299815
O2	O	-3.977390	0.011084	-0.294289
O3	O	-4.022116	-0.409410	-0.297590
O4	O	-3.966519	-0.202212	-0.430655
O5	O	-4.033371	-0.197549	-0.160304
V6	V	-4.511692	-0.180009	-0.283150
O7	O	-4.298724	-0.262697	-0.336372
O8	O	-4.694245	-0.123212	-0.246593
O9	O	-4.297449	0.023501	-0.285375
O10	O	-4.682778	-0.396993	-0.288675
O11	O	-4.626797	-0.188360	-0.422661
O12	O	-4.353046	-0.183697	-0.152310
C13	C	-3.877233	-0.459038	-0.292815
C14	C	-3.951083	-0.625406	-0.291868
C15	C	-3.806313	-0.194734	-0.462551
C16	C	-3.835072	-0.193064	-0.569512
C17	C	-4.074429	-0.196097	-0.817631
C18	C	-3.887723	-0.189810	-0.765322
C19	C	-3.858429	-0.191621	-0.656363
C20	C	-4.103731	-0.194286	-0.926600
C21	C	-4.105676	0.073121	-0.290147
C22	C	-4.011063	0.239487	-0.291100
C23	C	-4.176596	-0.191180	-0.120409
C24	C	-4.127074	-0.192842	-0.013447
H25	H	-3.749878	-0.183063	-0.802369
H26	H	-4.212261	-0.202841	-0.780586
