data_functionalizedCrystal
_audit_creation_method	'MofGen! by Chris Wilmer'
_symmetry_space_group_name_H-M	'P1'
_symmetry_Int_Tables_number	1
_symmetry_cell_setting	triclinic
loop_
_symmetry_equiv_pos_as_xyz
  x,y,z
_cell_length_a	10.489741
_cell_length_b	19.188930
_cell_length_c	9.565339
_cell_angle_alpha	89.995116
_cell_angle_beta	89.999100
_cell_angle_gamma	83.841978
loop_
_atom_site_label
_atom_site_type_symbol
_atom_site_fract_x
_atom_site_fract_y
_atom_site_fract_z
O1	O	1.691850	0.098497	-0.116191
O2	O	1.320448	0.107743	-0.116215
O3	O	1.516867	0.001537	-0.116175
O4	O	1.495431	0.204704	-0.116231
O5	O	1.516852	0.001543	0.116345
O6	O	1.320432	0.107750	0.116305
O7	O	1.691835	0.098504	0.116329
Zn8	Zn	1.506131	0.103128	0.153235
Zn9	Zn	1.506152	0.103119	-0.153121
O10	O	1.495416	0.204711	0.116289
C11	C	1.272924	0.107048	0.000043
C12	C	1.131341	0.104959	0.000035
C13	C	1.516165	-0.024476	0.000089
C14	C	1.514081	-0.101994	0.000101
C15	C	1.064712	0.037383	0.000067
C16	C	0.971879	0.069302	-0.114584
C17	C	0.971898	0.069325	0.114663
C18	C	1.040373	0.136906	-0.114710
C19	C	1.040401	0.136919	0.114640
C20	C	0.947595	0.168887	-0.000039
C21	C	1.629334	-0.146146	0.000115
C22	C	1.627376	-0.218983	0.000092
C23	C	1.510159	-0.247665	0.000084
C24	C	1.394892	-0.203503	0.000062
C25	C	1.396853	-0.130668	0.000071
N26	N	1.420556	-0.356268	0.079209
N27	N	1.418701	-0.425459	0.079204
C28	C	1.504244	-0.467113	0.000055
N29	N	1.591732	-0.436964	-0.079071
N30	N	1.593590	-0.367767	-0.079059
C31	C	1.508020	-0.326642	0.000074
C32	C	1.617382	-0.590244	0.000043
C33	C	1.615419	-0.663081	0.000012
C34	C	1.382932	-0.647600	-0.000004
C35	C	1.384898	-0.574764	0.000013
C36	C	1.502126	-0.546090	0.000043
C37	C	1.739359	0.099199	0.000068
C38	C	1.880941	0.101288	0.000067
C39	C	1.496118	0.230723	0.000022
C40	C	1.498202	0.308242	0.000001
N41	N	1.506127	0.103134	0.362314
N42	N	1.506166	0.103108	-0.362200
C43	C	1.415262	0.152234	0.453499
C44	C	1.530443	0.166361	0.546681
C45	C	1.390995	0.089012	0.546688
C46	C	1.621366	0.117292	0.453444
C47	C	1.481842	0.039916	0.453443
C48	C	1.597107	0.054016	0.546583
H49	H	1.115644	-0.018169	-0.000061
H50	H	1.718768	0.129289	0.412658
N51	N	1.749074	-0.116856	0.000105
N52	N	1.776113	-0.077937	-0.097907
H53	H	1.860679	-0.057248	-0.097918
H54	H	0.941553	0.040722	0.211592
H55	H	1.293614	0.077080	0.587649
N56	N	0.933801	0.033426	-0.236166
N57	N	0.976326	-0.029112	-0.256584
H58	H	0.949443	-0.054453	-0.342451
N59	N	1.078259	0.172759	-0.236421
N60	N	1.193848	0.180137	-0.256091
H61	H	1.220609	0.205461	-0.342043
H62	H	0.896927	0.224498	-0.000117
N63	N	1.556238	0.233418	0.598044
N64	N	1.482477	0.286887	0.568219
H65	H	1.500687	0.334248	0.604488
H66	H	1.461239	-0.013519	0.412456
N67	N	1.078532	0.172759	0.236233
N68	N	1.056981	0.149737	0.355194
H69	H	1.083912	0.175044	0.441081
H70	H	1.721231	-0.254938	0.000098
H71	H	1.299453	-0.226861	0.000052
N72	N	1.693642	0.001922	0.597546
N73	N	1.781688	0.019342	0.673756
H74	H	1.849872	-0.017446	0.709752
H75	H	1.302998	-0.094719	0.000060
H76	H	1.712836	-0.566896	0.000061
H77	H	1.338490	0.193796	0.412628
H78	H	1.709275	-0.699030	0.000015
H79	H	1.291047	-0.538814	0.000009
N80	N	1.263207	-0.676900	-0.000029
N81	N	1.261469	-0.741932	-0.000045
H82	H	1.176911	-0.762629	-0.000068
