data_functionalizedCrystal
_audit_creation_method	'MofGen! by Chris Wilmer'
_symmetry_space_group_name_H-M	'P1'
_symmetry_Int_Tables_number	1
_symmetry_cell_setting	triclinic
loop_
_symmetry_equiv_pos_as_xyz
  x,y,z
_cell_length_a	10.723024
_cell_length_b	14.519709
_cell_length_c	9.798715
_cell_angle_alpha	89.995905
_cell_angle_beta	89.996609
_cell_angle_gamma	84.074007
loop_
_atom_site_label
_atom_site_type_symbol
_atom_site_fract_x
_atom_site_fract_y
_atom_site_fract_z
O1	O	1.655978	0.129347	-0.113485
O2	O	1.292710	0.141728	-0.113490
O3	O	1.483975	0.001349	-0.113475
O4	O	1.464712	0.269727	-0.113500
O5	O	1.483961	0.001348	0.113507
O6	O	1.292695	0.141728	0.113492
O7	O	1.655963	0.129347	0.113497
Zn8	Zn	1.474327	0.135537	0.149533
Zn9	Zn	1.474346	0.135538	-0.149526
O10	O	1.464698	0.269727	0.113482
C11	C	1.246211	0.140827	0.000000
C12	C	1.107682	0.138132	-0.000001
C13	C	1.031965	0.216681	-0.000009
C14	C	0.888788	0.213896	-0.000011
C15	C	1.483070	-0.033016	0.000016
C16	C	1.480380	-0.135411	0.000017
C17	C	1.470476	-0.510357	-0.000019
C18	C	1.473227	-0.406035	-0.000009
C19	C	1.475428	-0.322887	0.000000
C20	C	1.478179	-0.218559	0.000008
C21	C	1.702462	0.130248	0.000003
C22	C	1.840991	0.132944	-0.000004
C23	C	1.465603	0.304091	-0.000012
C24	C	1.468293	0.406486	-0.000022
N25	N	1.474323	0.135537	0.353632
N26	N	1.474359	0.135532	-0.353626
C27	C	1.554633	0.076335	0.421415
C28	C	1.554653	0.076332	0.578578
H29	H	1.623371	0.025649	0.363098
H30	H	0.906045	0.065696	-0.000006
O31	O	1.636627	0.015734	0.647960
C32	C	1.615793	-0.075650	0.613183
H33	H	1.567761	-0.075826	0.509411
H34	H	1.553429	-0.104399	0.693588
C35	C	1.801155	-0.136186	0.734215
C36	C	1.742171	-0.136403	0.606755
H37	H	1.879109	-0.173663	0.730255
H38	H	1.815190	-0.074619	0.757650
H39	H	1.749172	-0.160141	0.801206
H40	H	1.794146	-0.112437	0.539770
H41	H	1.728148	-0.197968	0.583308
O42	O	1.080927	0.299427	-0.000198
C43	C	1.040308	0.349886	-0.117777
H44	H	0.949924	0.324278	-0.156971
H45	H	1.115600	0.339605	-0.200090
C46	C	1.127339	0.484938	-0.033939
C47	C	1.016321	0.453491	-0.082071
H48	H	1.112547	0.548847	-0.011917
H49	H	1.154709	0.450943	0.045275
H50	H	1.190070	0.476363	-0.102541
H51	H	0.953597	0.462056	-0.013463
H52	H	0.988939	0.487491	-0.161272
H53	H	0.823726	0.281141	-0.000024
H54	H	1.405604	0.186222	0.588092
H55	H	1.405577	0.186216	0.411951
H56	H	1.066508	0.068822	-0.000030
