data_functionalizedCrystal
_audit_creation_method	'MofGen! by Chris Wilmer'
_symmetry_space_group_name_H-M	'P1'
_symmetry_Int_Tables_number	1
_symmetry_cell_setting	triclinic
loop_
_symmetry_equiv_pos_as_xyz
  x,y,z
_cell_length_a	19.077105
_cell_length_b	13.897448
_cell_length_c	19.076919
_cell_angle_alpha	87.727045
_cell_angle_beta	89.923776
_cell_angle_gamma	87.714101
loop_
_atom_site_label
_atom_site_type_symbol
_atom_site_fract_x
_atom_site_fract_y
_atom_site_fract_z
Zn1	Zn	1.058310	-0.466652	0.440425
Zn2	Zn	1.062963	-0.621745	0.322920
Zn3	Zn	0.945527	-0.453730	0.318218
Zn4	Zn	0.940785	-0.621164	0.435673
O5	O	1.001896	-0.540823	0.379309
O6	O	1.157260	-0.492877	0.428794
O7	O	1.051317	-0.594293	0.223965
O8	O	0.960525	-0.320466	0.334450
O9	O	1.160678	-0.606823	0.342464
O10	O	1.043386	-0.329960	0.424235
O11	O	0.965037	-0.470854	0.220510
O12	O	0.846566	-0.470290	0.329842
O13	O	0.952443	-0.605832	0.534635
O14	O	0.843082	-0.593302	0.416136
O15	O	1.038788	-0.492313	0.538126
O16	O	1.046719	-0.756647	0.337856
O17	O	0.956955	-0.756219	0.420695
C18	C	0.819327	-0.530331	0.371963
C19	C	0.741223	-0.525867	0.368837
C20	C	1.001846	-0.791433	0.379287
C21	C	1.001888	-0.898650	0.379303
C22	C	0.702736	-0.587905	0.412227
C23	C	0.629349	-0.583698	0.409293
C24	C	0.594449	-0.517456	0.362966
C25	C	0.632940	-0.455412	0.319575
C26	C	0.706327	-0.459615	0.322513
C27	C	0.375160	-0.498004	0.349373
C28	C	0.301769	-0.493807	0.346437
C29	C	0.298182	-0.622092	0.436157
C30	C	0.371570	-0.626293	0.439087
C31	C	0.410055	-0.564245	0.395699
N32	N	0.519435	-0.513157	0.359965
N33	N	0.485067	-0.568541	0.398704
C34	C	1.001960	-1.094952	0.379350
C35	C	1.001918	-0.985716	0.379326
C36	C	1.185178	-0.551356	0.386684
C37	C	1.263282	-0.555845	0.389826
C38	C	0.994568	-0.550449	0.562589
C39	C	0.991445	-0.554551	0.640692
C40	C	1.001966	-0.289236	0.379348
C41	C	1.001995	-0.182024	0.379364
C42	C	1.009237	-0.531167	0.196743
C43	C	1.012496	-0.526801	0.118646
C44	C	1.034931	-0.497377	0.679204
C45	C	1.031988	-0.501227	0.752590
C46	C	0.985562	-0.562257	0.787463
C47	C	0.942071	-0.619432	0.748946
C48	C	0.945011	-0.615576	0.675561
C49	C	0.971945	-0.580121	1.006744
C50	C	0.969010	-0.583975	1.080134
C51	C	1.058926	-0.465768	1.083773
C52	C	1.061865	-0.461922	1.010387
C53	C	1.018372	-0.519094	0.971877
N54	N	0.982554	-0.566196	0.862475
N55	N	1.021376	-0.515149	0.896866
H56	H	0.731147	-0.641849	0.449949
C57	C	0.891013	-0.686581	0.787304
C58	C	0.843185	-0.749481	0.744940
C59	C	0.792133	-0.816642	0.783297
C60	C	0.788907	-0.820903	0.864017
C61	C	0.836736	-0.758001	0.906386
C62	C	0.887789	-0.690840	0.868029
H63	H	0.845572	-0.746329	0.685182
H64	H	0.756726	-0.863207	0.751932
H65	H	0.751115	-0.870620	0.892411
H66	H	0.834350	-0.761153	0.966144
H67	H	0.923195	-0.644276	0.899394
H68	H	0.598016	-0.634216	0.444625
H69	H	0.737661	-0.409092	0.287184
C70	C	0.409954	-0.699162	0.490050
C71	C	0.461602	-0.776114	0.461521
C72	C	0.499984	-0.848989	0.512481
C73	C	0.486718	-0.844912	0.591970
C74	C	0.435067	-0.767956	0.620503
C75	C	0.396685	-0.695082	0.569543
H76	H	0.471424	-0.779135	0.402675
H77	H	0.538219	-0.905956	0.491359
H78	H	0.515131	-0.898858	0.629694
H79	H	0.425245	-0.764935	0.679349
H80	H	0.358450	-0.638114	0.590665
H81	H	1.072738	-0.447684	0.650816
C82	C	1.079824	-0.438333	0.794950
C83	C	1.160109	-0.450270	0.788079
C84	C	1.207946	-0.387370	0.830437
C85	C	1.175500	-0.312531	0.879665
C86	C	1.095212	-0.300591	0.886538
C87	C	1.047374	-0.363492	0.844180
H88	H	1.184131	-0.505673	0.751636
H89	H	1.267381	-0.396209	0.825349
H90	H	1.210913	-0.265968	0.911021
H91	H	1.071189	-0.245188	0.922981
H92	H	0.987939	-0.354652	0.849268
C93	C	0.255848	-0.690333	0.483888
C94	C	0.175125	-0.685714	0.480664
C95	C	0.132791	-0.753955	0.528400
C96	C	0.171179	-0.826815	0.579360
C97	C	0.251906	-0.831438	0.582586
C98	C	0.294240	-0.763197	0.534850
H99	H	0.146704	-0.631775	0.442938
H100	H	0.073032	-0.750532	0.526012
H101	H	0.139841	-0.877332	0.614698
H102	H	0.280327	-0.885376	0.620312
H103	H	0.353999	-0.766619	0.537238
C104	C	0.594553	-0.382545	0.268614
C105	C	0.513831	-0.377922	0.265376
C106	C	0.475446	-0.305057	0.214412
C107	C	0.517782	-0.236814	0.166685
C108	C	0.598508	-0.241435	0.169921
C109	C	0.636894	-0.314300	0.220885
H110	H	0.482487	-0.428442	0.300708
H111	H	0.415687	-0.301637	0.212016
H112	H	0.489367	-0.182875	0.128958
H113	H	0.629852	-0.190915	0.134589
H114	H	0.696653	-0.317720	0.223280
H115	H	1.099672	-0.412228	0.981999
H116	H	0.936540	-0.626689	0.975398
C117	C	1.106760	-0.402874	1.126136
C118	C	1.103529	-0.407105	1.206856
C119	C	1.151363	-0.344204	1.249218
C120	C	1.202429	-0.277071	1.210859
C121	C	1.205662	-0.272837	1.130135
C122	C	1.157828	-0.335738	1.087773
H123	H	1.065726	-0.456803	1.235255
H124	H	1.148970	-0.347339	1.308976
H125	H	1.237838	-0.230508	1.242218
H126	H	1.243465	-0.223139	1.101735
H127	H	1.160221	-0.332604	1.028015
H128	H	0.931203	-0.633674	1.108525
C129	C	0.897180	-0.678470	0.633193
C130	C	0.816895	-0.666540	0.640062
C131	C	0.769061	-0.729432	0.597693
C132	C	0.801512	-0.804254	0.548454
C133	C	0.881800	-0.816188	0.541583
C134	C	0.929635	-0.753296	0.583952
H135	H	0.792870	-0.611149	0.676513
H136	H	0.709626	-0.720598	0.602780
H137	H	0.766102	-0.850811	0.517090
H138	H	0.905826	-0.871578	0.505132
H139	H	0.989070	-0.762130	0.578865
H140	H	0.406486	-0.447487	0.314038
H141	H	0.273355	-0.439855	0.308716
