data_functionalizedCrystal
_audit_creation_method	'MofGen! by Chris Wilmer'
_symmetry_space_group_name_H-M	'P1'
_symmetry_Int_Tables_number	1
_symmetry_cell_setting	triclinic
loop_
_symmetry_equiv_pos_as_xyz
  x,y,z
_cell_length_a	12.759401
_cell_length_b	12.759400
_cell_length_c	12.759393
_cell_angle_alpha	89.971263
_cell_angle_beta	89.979541
_cell_angle_gamma	90.014690
loop_
_atom_site_label
_atom_site_type_symbol
_atom_site_fract_x
_atom_site_fract_y
_atom_site_fract_z
Zn1	Zn	1.606273	-0.418179	-0.594028
Zn2	Zn	1.606170	-0.593893	-0.418352
Zn3	Zn	1.430573	-0.418233	-0.418363
Zn4	Zn	1.430568	-0.593821	-0.593989
O5	O	1.518396	-0.506032	-0.506183
O6	O	1.753280	-0.441495	-0.570736
O7	O	1.582836	-0.570644	-0.271332
O8	O	1.453925	-0.271205	-0.441687
O9	O	1.753205	-0.570591	-0.441667
O10	O	1.583011	-0.271165	-0.570747
O11	O	1.453825	-0.441587	-0.271341
O12	O	1.283551	-0.441518	-0.441649
O13	O	1.453916	-0.570470	-0.741015
O14	O	1.283548	-0.570522	-0.570680
O15	O	1.583006	-0.441426	-0.741044
O16	O	1.582831	-0.740904	-0.441629
O17	O	1.453817	-0.740852	-0.570669
C18	C	1.245428	-0.506019	-0.506162
C19	C	1.128652	-0.506039	-0.506178
C20	C	1.073815	-0.573313	-0.573259
C21	C	0.964091	-0.573317	-0.573280
C22	C	0.964050	-0.438769	-0.439130
C23	C	1.073772	-0.438761	-0.439115
C24	C	1.518341	-0.778999	-0.506167
C25	C	1.518413	-0.895776	-0.506195
C26	C	1.585595	-0.950537	-0.573451
C27	C	1.585644	-1.060261	-0.573477
C28	C	1.451327	-1.060452	-0.438980
C29	C	1.451273	-0.950730	-0.438961
C30	C	1.652735	-0.895583	-0.640685
C31	C	1.719922	-0.950344	-0.707947
C32	C	1.719971	-1.060068	-0.707972
C33	C	1.652832	-1.115031	-0.640737
C34	C	1.792429	-0.506045	-0.506205
C35	C	1.909206	-0.506051	-0.506214
C36	C	1.518472	-0.505934	-0.780217
C37	C	1.518505	-0.505892	-0.896993
C38	C	1.518480	-0.231998	-0.506223
C39	C	1.518516	-0.115222	-0.506240
C40	C	1.585708	-0.573014	-1.061586
C41	C	1.585682	-0.573063	-0.951862
C42	C	1.451340	-0.438674	-0.951854
C43	C	1.451361	-0.438631	-1.061576
C44	C	1.518380	-0.506053	-0.233216
C45	C	1.518551	-0.505799	-0.116440
H46	H	1.652705	-0.806240	-0.640670
H47	H	1.118496	-0.628093	-0.627869
C48	C	1.377379	-0.890484	-0.364980
H49	H	1.386957	-0.817267	-0.374608
H50	H	1.392796	-0.908498	-0.294405
H51	H	1.306786	-0.908506	-0.380306
C52	C	1.659608	-0.646900	-1.121933
H53	H	1.699594	-0.686944	-1.073545
H54	H	1.705406	-0.606698	-1.164747
H55	H	1.619407	-0.692662	-1.164723
C56	C	1.659559	-0.646996	-0.891528
H57	H	1.699580	-0.686984	-0.939921
H58	H	1.619351	-0.692791	-0.848715
H59	H	1.705342	-0.606818	-0.848738
C60	C	1.377448	-0.364785	-0.891502
H61	H	1.387061	-0.374429	-0.818298
H62	H	1.306855	-0.380145	-0.909467
H63	H	1.392860	-0.294186	-0.909497
C64	C	1.377472	-0.364708	-1.121924
H65	H	1.387096	-0.374317	-1.195128
H66	H	1.392847	-0.294119	-1.103965
H67	H	1.306874	-0.380111	-1.103921
C68	C	0.903776	-0.647317	-0.647071
H69	H	0.952178	-0.687384	-0.687003
H70	H	0.861007	-0.607184	-0.692925
H71	H	0.860942	-0.693052	-0.606807
H72	H	1.396666	-1.105211	-0.384240
C73	C	0.903683	-0.364774	-0.365359
H74	H	0.952060	-0.324699	-0.325413
H75	H	0.860851	-0.404909	-0.319518
H76	H	0.860910	-0.319046	-0.405640
H77	H	1.774579	-0.905589	-0.762694
C78	C	1.134101	-0.364755	-0.365327
H79	H	1.207307	-0.374379	-0.374933
H80	H	1.116087	-0.380040	-0.294710
H81	H	1.116139	-0.294182	-0.380837
C82	C	1.793871	-1.120304	-0.781955
H83	H	1.833852	-1.071857	-0.821986
H84	H	1.753685	-1.163105	-0.827709
H85	H	1.839691	-1.163099	-0.741804
C86	C	1.652841	-1.235725	-0.640811
H87	H	1.702457	-1.260470	-0.690508
H88	H	1.585032	-1.260537	-0.658936
H89	H	1.671051	-1.260626	-0.573043
