data_functionalizedCrystal
_audit_creation_method	'MofGen! by Chris Wilmer'
_symmetry_space_group_name_H-M	'P1'
_symmetry_Int_Tables_number	1
_symmetry_cell_setting	triclinic
loop_
_symmetry_equiv_pos_as_xyz
  x,y,z
_cell_length_a	19.288840
_cell_length_b	17.019294
_cell_length_c	17.766277
_cell_angle_alpha	86.114664
_cell_angle_beta	89.983415
_cell_angle_gamma	83.259949
loop_
_atom_site_label
_atom_site_type_symbol
_atom_site_fract_x
_atom_site_fract_y
_atom_site_fract_z
O1	O	0.921538	0.098312	-0.069091
O2	O	0.719299	0.111608	-0.069927
O3	O	0.826060	-0.009894	-0.062062
O4	O	0.814777	0.219814	-0.076956
O5	O	0.826041	-0.009900	0.063127
O6	O	0.719280	0.111602	0.055262
O7	O	0.921519	0.098306	0.056098
Cu8	Cu	0.820398	0.104953	0.067111
Cu9	Cu	0.820420	0.104961	-0.080940
O10	O	0.814758	0.219807	0.048233
C11	C	0.693412	0.111180	-0.007301
C12	C	0.616305	0.109906	-0.007209
C13	C	0.580111	0.109297	-0.075411
C14	C	0.507661	0.108091	-0.075342
C15	C	0.471411	0.107478	-0.007066
C16	C	0.507614	0.108091	0.061146
C17	C	0.580061	0.109305	0.061074
C18	C	0.361991	0.059347	0.048324
C19	C	0.289546	0.058128	0.048393
C20	C	0.247961	0.103737	-0.006843
C21	C	0.278831	0.150554	-0.062159
C22	C	0.351278	0.151768	-0.062231
C23	C	0.392855	0.106162	-0.006981
C24	C	0.133209	0.101821	-0.074975
C25	C	0.060758	0.100620	-0.074904
C26	C	0.060713	0.100612	0.061587
C27	C	0.133162	0.101821	0.061513
C28	C	0.169406	0.102422	-0.006770
C29	C	0.825622	-0.039284	0.002437
C30	C	0.824338	-0.126850	0.008111
C31	C	0.823747	-0.167981	-0.057463
C32	C	0.822536	-0.250258	-0.052130
C33	C	0.821921	-0.291403	0.018779
C34	C	0.822511	-0.250266	0.084358
C35	C	0.823717	-0.167990	0.079024
C36	C	0.818275	-0.539823	0.038299
C37	C	0.817071	-0.622105	0.043628
C38	C	0.817095	-0.622091	-0.092861
C39	C	0.818305	-0.539814	-0.098188
C40	C	0.818891	-0.498684	-0.032609
C41	C	0.820686	-0.375503	0.024232
C42	C	0.820121	-0.414584	-0.038063
C43	C	0.947406	0.098734	-0.006529
C44	C	1.024513	0.100008	-0.006627
C45	C	0.815196	0.249198	-0.016267
C46	C	0.816480	0.336764	-0.021946
N47	N	0.820387	0.104948	0.171242
N48	N	0.820436	0.104960	-0.185070
C49	C	0.867676	0.051173	0.214109
C50	C	0.867680	0.051170	0.292911
C51	C	0.820402	0.104954	0.328842
C52	C	0.773104	0.158733	0.285964
C53	C	0.773097	0.158729	0.207164
C54	C	0.811230	0.176830	0.449020
C55	C	0.811242	0.176834	0.527818
C56	C	0.820421	0.104963	0.571887
C57	C	0.829601	0.033085	0.537148
C58	C	0.829594	0.033082	0.458348
C59	C	0.820404	0.104963	0.414287
C60	C	0.867717	0.051181	0.700202
C61	C	0.867716	0.051176	0.779005
C62	C	0.773143	0.158746	0.772056
C63	C	0.773140	0.158744	0.693254
C64	C	0.820431	0.104962	0.657332
H65	H	0.264418	0.020003	0.093431
C66	C	0.801145	0.255893	0.566028
H67	H	0.802473	0.245603	0.619270
H68	H	0.757308	0.284150	0.551299
H69	H	0.837438	0.286698	0.551096
C70	C	0.467735	0.107476	0.136244
H71	H	0.419403	0.106677	0.126518
H72	H	0.474265	0.153684	0.161252
H73	H	0.484929	0.061695	0.167289
C74	C	0.721137	0.217908	0.811570
H75	H	0.727916	0.210211	0.864640
H76	H	0.674790	0.209480	0.799222
H77	H	0.728630	0.270535	0.795235
H78	H	0.376409	0.189890	-0.107269
C79	C	0.919686	-0.007992	0.174599
H80	H	0.947847	-0.040024	0.211421
H81	H	0.948567	0.020293	0.142006
H82	H	0.894727	-0.040761	0.146003
C83	C	0.619878	0.109962	0.136101
H84	H	0.587916	0.109419	0.176777
H85	H	0.642795	0.156422	0.135933
H86	H	0.653483	0.064433	0.141887
C87	C	0.919701	-0.007983	0.340075
H88	H	0.947866	-0.040011	0.307395
H89	H	0.894756	-0.040746	0.372956
H90	H	0.948586	0.020320	0.368962
C91	C	0.919738	-0.007978	0.826160
H92	H	0.947904	-0.040001	0.793477
H93	H	0.894794	-0.040745	0.859039
H94	H	0.948622	0.020324	0.855049
H95	H	0.395844	0.022205	0.093307
H96	H	0.031198	0.100118	0.117178
H97	H	0.837067	-0.025444	0.430067
C98	C	0.824422	-0.122728	-0.135464
H99	H	0.823890	-0.159010	-0.173753
H100	H	0.865378	-0.096794	-0.139990
H101	H	0.784402	-0.084470	-0.140775
H102	H	0.837075	-0.025439	0.573028
H103	H	0.906221	0.007386	0.670953
C104	C	0.721129	0.217905	0.646097
H105	H	0.692976	0.249942	0.678779
H106	H	0.692243	0.189616	0.617205
H107	H	0.746084	0.250669	0.613221
C108	C	0.801139	0.255894	0.400551
H109	H	0.795684	0.298700	0.432524
H110	H	0.760693	0.257616	0.369713
H111	H	0.840826	0.260145	0.369521
H112	H	0.734608	0.202523	0.315222
H113	H	0.822057	-0.283743	-0.105528
H114	H	0.162632	0.102312	0.117051
H115	H	0.818807	-0.506319	-0.155930
H116	H	0.734587	0.202520	0.172260
H117	H	0.162720	0.102319	-0.130576
C118	C	0.233098	0.200729	-0.122919
H119	H	0.185529	0.193311	-0.114951
H120	H	0.246874	0.184687	-0.171420
H121	H	0.238665	0.255150	-0.119860
C122	C	0.020940	0.099954	-0.149929
H123	H	-0.027399	0.099155	-0.140110
H124	H	0.038170	0.054160	-0.174997
H125	H	0.027476	0.146149	-0.180964
C126	C	0.619974	0.109969	-0.150520
H127	H	0.588036	0.109441	-0.191130
H128	H	0.653589	0.064454	-0.150406
H129	H	0.642882	0.156442	-0.156367
H130	H	0.816617	-0.655588	-0.146251
C131	C	0.467838	0.107428	-0.150368
H132	H	0.499800	0.107959	-0.191044
H133	H	0.434229	0.152948	-0.156156
H134	H	0.444927	0.060959	-0.150194
C135	C	0.820799	-0.369331	-0.116060
H136	H	0.820271	-0.405607	-0.154354
H137	H	0.861754	-0.343396	-0.120577
H138	H	0.780778	-0.331073	-0.121371
H139	H	0.818766	-0.506347	0.091698
C140	C	0.816388	-0.667363	0.121631
H141	H	0.816902	-0.631083	0.159924
H142	H	0.856402	-0.705622	0.126947
H143	H	0.775426	-0.693294	0.126145
H144	H	0.822006	-0.283772	0.142093
H145	H	0.824188	-0.134501	0.132421
C146	C	0.820013	-0.420763	0.102229
H147	H	0.820535	-0.384486	0.140524
H148	H	0.860025	-0.459025	0.107538
H149	H	0.779049	-0.446691	0.106748
