data_functionalizedCrystal
_audit_creation_method	'MofGen! by Chris Wilmer'
_symmetry_space_group_name_H-M	'P1'
_symmetry_Int_Tables_number	1
_symmetry_cell_setting	triclinic
loop_
_symmetry_equiv_pos_as_xyz
  x,y,z
_cell_length_a	14.908520
_cell_length_b	11.169417
_cell_length_c	11.169409
_cell_angle_alpha	90.020564
_cell_angle_beta	86.739567
_cell_angle_gamma	93.321403
loop_
_atom_site_label
_atom_site_type_symbol
_atom_site_fract_x
_atom_site_fract_y
_atom_site_fract_z
Zn1	Zn	-0.359063	1.807307	0.706060
Zn2	Zn	-0.025730	2.140641	1.039393
Zn3	Zn	0.307604	2.473974	1.372727
Zn4	Zn	-0.509955	1.795569	0.516941
Zn5	Zn	-0.176622	2.128902	0.850274
Zn6	Zn	0.156712	2.462235	1.183607
Zn7	Zn	-0.359118	1.606586	0.505398
Zn8	Zn	-0.025785	1.939920	0.838732
Zn9	Zn	0.307549	2.273253	1.172065
Zn10	Zn	-0.509882	1.594981	0.717580
Zn11	Zn	-0.176548	1.928314	1.050913
Zn12	Zn	0.156785	2.261648	1.384246
O13	O	-0.434504	1.701111	0.611495
O14	O	-0.101171	2.034444	0.944828
O15	O	0.232162	2.367778	1.278161
O16	O	-0.379087	1.973699	0.680982
O17	O	-0.045754	2.307033	1.014315
O18	O	0.287580	2.640366	1.347649
O19	O	-0.490000	1.770444	0.347464
O20	O	-0.156666	2.103778	0.680797
O21	O	0.176667	2.437111	1.014130
O22	O	-0.232867	1.642982	0.522365
O23	O	0.100467	1.976315	0.855698
O24	O	0.433800	2.309649	1.189032
O25	O	-0.489947	1.965075	0.542037
O26	O	-0.156613	2.298408	0.875370
O27	O	0.176720	2.631742	1.208704
O28	O	-0.232826	1.790451	0.669790
O29	O	0.100507	2.123784	1.003124
O30	O	0.433840	2.457118	1.336457
O31	O	-0.379180	1.631600	0.338984
O32	O	-0.045847	1.964933	0.672317
O33	O	0.287486	2.298266	1.005650
O34	O	-0.379109	1.437098	0.533535
O35	O	-0.045776	1.770431	0.866869
O36	O	0.287557	2.103765	1.200202
O37	O	-0.489822	1.623202	0.883997
O38	O	-0.156488	1.956536	1.217331
O39	O	0.176845	2.289869	1.550664
O40	O	-0.489875	1.428571	0.689424
O41	O	-0.156542	1.761905	1.022758
O42	O	0.176792	2.095238	1.356091
O43	O	-0.379016	1.779198	0.875534
O44	O	-0.045683	2.112531	1.208867
O45	O	0.287651	2.445864	1.542200
O46	O	-0.636189	1.759191	0.553207
O47	O	-0.302856	2.092524	0.886541
O48	O	0.030477	2.425858	1.219874
O49	O	-0.636135	1.611820	0.700616
O50	O	-0.302802	1.945153	1.033949
O51	O	0.030531	2.278487	1.367283
C52	C	-0.434491	1.389287	0.611478
C53	C	-0.101157	1.722621	0.944812
C54	C	0.232176	2.055954	1.278145
C55	C	-0.434507	1.255886	0.611501
C56	C	-0.101173	1.589219	0.944835
C57	C	0.232160	1.922553	1.278168
C58	C	-0.668896	1.683005	0.629440
C59	C	-0.335563	2.016338	0.962774
C60	C	-0.002229	2.349672	1.296107
C61	C	-0.769170	1.675369	0.637158
C62	C	-0.435836	2.008702	0.970491
C63	C	-0.102503	2.342036	1.303824
C64	C	-0.957589	1.814635	0.498287
C65	C	-0.624256	2.147968	0.831620
C66	C	-0.290923	2.481302	1.164953
C67	C	-1.051806	1.807464	0.505534
C68	C	-0.718472	2.140798	0.838867
C69	C	-0.385139	2.474131	1.172201
C70	C	-1.051820	1.653864	0.658905
C71	C	-0.718486	1.987197	0.992238
C72	C	-0.385153	2.320530	1.325572
C73	C	-0.957603	1.661034	0.651658
C74	C	-0.624270	1.994368	0.984991
C75	C	-0.290937	2.327701	1.318324
C76	C	-0.910492	1.741422	0.571345
C77	C	-0.577158	2.074755	0.904678
C78	C	-0.243825	2.408088	1.238011
C79	C	-0.816274	1.748585	0.564092
C80	C	-0.482941	2.081919	0.897425
C81	C	-0.149607	2.415252	1.230759
C82	C	-0.816290	1.594991	0.717468
C83	C	-0.482956	1.928325	1.050802
C84	C	-0.149623	2.261658	1.384135
C85	C	-0.910506	1.587821	0.724716
C86	C	-0.577172	1.921154	1.058049
C87	C	-0.243839	2.254487	1.391382
C88	C	-0.199198	1.719320	0.593505
C89	C	0.134136	2.052654	0.926838
C90	C	0.467469	2.385987	1.260172
C91	C	-0.098924	1.727080	0.585839
C92	C	0.234409	2.060414	0.919172
C93	C	0.567743	2.393747	1.252506
C94	C	-0.434404	1.701215	0.924530
C95	C	-0.101071	2.034548	1.257863
C96	C	0.232262	2.367881	1.591196
C97	C	-0.434362	1.701259	1.057926
C98	C	-0.101029	2.034592	1.391260
C99	C	0.232305	2.367926	1.724593
C100	C	-0.434519	2.014152	0.611512
C101	C	-0.101185	2.347485	0.944845
C102	C	0.232148	2.680819	1.278179
C103	C	-0.434525	2.147552	0.611519
C104	C	-0.101192	2.480885	0.944853
C105	C	0.232142	2.814218	1.278186
C106	C	-0.434539	1.701082	0.299673
C107	C	-0.101206	2.034415	0.633006
C108	C	0.232128	2.367748	0.966339
C109	C	-0.434327	1.701289	0.166257
C110	C	-0.100994	2.034623	0.499590
C111	C	0.232339	2.367956	0.832924
H112	H	-0.777916	1.814037	0.498694
H113	H	-0.444583	2.147371	0.832027
H114	H	-0.111250	2.480704	1.165361
H115	H	-0.919230	1.880081	0.432884
H116	H	-0.585897	2.213415	0.766217
H117	H	-0.252564	2.546748	1.099551
Cl118	Cl	-1.111011	1.899511	0.413688
Cl119	Cl	-0.777678	2.232845	0.747022
Cl120	Cl	-0.444345	2.566178	1.080355
H121	H	-0.777932	1.535372	0.776954
H122	H	-0.444599	1.868705	1.110287
H123	H	-0.111265	2.202039	1.443620
Cl124	Cl	-1.111061	1.552830	0.759877
Cl125	Cl	-0.777728	1.886164	1.093210
Cl126	Cl	-0.444394	2.219497	1.426543
Cl127	Cl	-0.969740	1.486772	0.825678
Cl128	Cl	-0.636407	1.820106	1.159012
Cl129	Cl	-0.303074	2.153439	1.492345
