data_functionalizedCrystal
_audit_creation_method	'MofGen! by Chris Wilmer'
_symmetry_space_group_name_H-M	'P1'
_symmetry_Int_Tables_number	1
_symmetry_cell_setting	triclinic
loop_
_symmetry_equiv_pos_as_xyz
  x,y,z
_cell_length_a	8.497374
_cell_length_b	8.497374
_cell_length_c	12.645331
_cell_angle_alpha	90.003750
_cell_angle_beta	89.999928
_cell_angle_gamma	90.005237
loop_
_atom_site_label
_atom_site_type_symbol
_atom_site_fract_x
_atom_site_fract_y
_atom_site_fract_z
Zn1	Zn	0.628372	0.892192	1.620656
Zn2	Zn	0.892118	0.628457	1.620647
Zn3	Zn	0.628341	0.628409	1.443429
Zn4	Zn	0.892100	0.892179	1.443403
O5	O	0.760233	0.760309	1.532034
O6	O	0.663380	0.857232	1.769002
O7	O	0.857122	0.407689	1.597146
O8	O	0.407583	0.663386	1.466952
O9	O	0.857153	0.663467	1.768995
O10	O	0.407606	0.857185	1.597160
O11	O	0.663326	0.407654	1.466944
O12	O	0.663309	0.663374	1.295078
O13	O	0.857121	1.112943	1.466909
O14	O	0.857091	0.857165	1.295059
O15	O	0.663362	1.112952	1.597135
O16	O	1.112878	0.663455	1.597121
O17	O	1.112864	0.857211	1.466901
C18	C	0.760195	0.760264	1.256604
C19	C	0.760217	0.760282	1.138774
C20	C	1.170113	0.760332	1.532020
C21	C	1.348757	0.760306	1.532048
C22	C	0.760235	1.171790	1.532026
C23	C	0.760252	1.350434	1.532028
C24	C	0.637749	0.639040	0.971186
C25	C	0.638065	0.638506	1.093746
C26	C	0.926390	0.714905	1.094296
C27	C	0.925721	0.714078	0.971698
C28	C	0.718095	0.927368	0.971579
C29	C	0.714382	0.926439	1.094184
C30	C	0.760272	0.760356	1.808539
C31	C	0.760288	0.760376	1.926369
H32	H	0.514840	0.666944	1.123816
H33	H	0.592099	0.960656	1.123257
H34	H	0.599040	0.968642	0.940650
H35	H	0.797128	1.021675	1.124837
H36	H	0.514153	0.667172	0.941692
N37	N	1.044141	0.820104	0.934517
N38	N	1.127025	0.894466	0.999116
H39	H	1.210666	0.969339	0.972863
N40	N	0.830044	1.040782	0.935202
N41	N	0.785396	1.155771	0.881358
H42	H	0.864467	1.235855	0.855660
H43	H	0.961508	0.592000	0.943086
H44	H	0.962793	0.594137	1.124985
H45	H	1.020129	0.800508	1.123465
N46	N	0.672304	0.484719	0.932504
N47	N	0.671915	0.458399	0.835250
H48	H	0.696325	0.349411	0.807926
N49	N	0.673046	0.483260	1.130509
N50	N	0.697313	0.374971	1.065621
H51	H	0.722024	0.265322	1.091583
