data_functionalizedCrystal
_audit_creation_method	'MofGen! by Chris Wilmer'
_symmetry_space_group_name_H-M	'P1'
_symmetry_Int_Tables_number	1
_symmetry_cell_setting	triclinic
loop_
_symmetry_equiv_pos_as_xyz
  x,y,z
_cell_length_a	16.974818
_cell_length_b	16.992695
_cell_length_c	13.930277
_cell_angle_alpha	89.998101
_cell_angle_beta	86.347952
_cell_angle_gamma	92.974585
loop_
_atom_site_label
_atom_site_type_symbol
_atom_site_fract_x
_atom_site_fract_y
_atom_site_fract_z
O1	O	1.055455	-0.099942	-0.002199
O2	O	0.826054	-0.112667	0.015633
O3	O	0.939835	0.007837	0.006781
O4	O	0.941674	-0.220446	0.006653
O5	O	0.939823	0.007834	-0.152880
O6	O	0.826042	-0.112670	-0.144028
O7	O	1.055443	-0.099946	-0.161859
Zn8	Zn	0.940741	-0.106309	-0.178293
Zn9	Zn	0.940756	-0.106304	0.032067
O10	O	0.941662	-0.220450	-0.153008
C11	C	0.796559	-0.112184	-0.061906
C12	C	0.708692	-0.110731	-0.055076
C13	C	0.937463	0.037045	-0.072866
C14	C	0.930403	0.124082	-0.072317
C15	C	1.084938	-0.100429	-0.084319
C16	C	1.172805	-0.101882	-0.091142
N17	N	0.940736	-0.106311	-0.321859
C18	C	1.214088	-0.102564	-0.007318
C19	C	1.296649	-0.103923	-0.013732
C20	C	1.337927	-0.104606	-0.103972
C21	C	1.296639	-0.103921	-0.187803
C22	C	1.214079	-0.102557	-0.181388
C23	C	1.584844	-0.108682	-0.132492
C24	C	1.667409	-0.110049	-0.138901
C25	C	1.667414	-0.110049	0.035171
C26	C	1.584852	-0.108689	0.041579
C27	C	1.543572	-0.108001	-0.042252
N28	N	1.422318	-0.105997	-0.110531
N29	N	1.459183	-0.106603	-0.035693
C30	C	0.944034	-0.249658	-0.073359
C31	C	0.951094	-0.336695	-0.073902
C32	C	0.998518	0.174395	-0.077612
C33	C	0.991880	0.256174	-0.077087
C34	C	0.917127	0.287639	-0.071273
C35	C	0.849007	0.237320	-0.065974
C36	C	0.855645	0.155542	-0.066493
C37	C	0.889612	0.531208	-0.069121
C38	C	0.882979	0.612992	-0.068606
C39	C	1.025853	0.631841	-0.079717
C40	C	1.032485	0.550061	-0.080241
C41	C	0.964365	0.499749	-0.074937
N42	N	0.910340	0.371231	-0.070739
N43	N	0.971153	0.416159	-0.075464
C44	C	0.890346	-0.159654	-0.368202
C45	C	0.991131	-0.052965	-0.376021
C46	C	0.991139	-0.052962	-0.476518
C47	C	0.940749	-0.106305	-0.522861
C48	C	0.890350	-0.159651	-0.468708
C49	C	1.041531	0.000389	-0.530678
C50	C	1.041541	0.000394	-0.631181
C51	C	0.991154	-0.052953	-0.677526
C52	C	0.940754	-0.106302	-0.623366
C53	C	0.890364	-0.159645	-0.669709
C54	C	0.839967	-0.212998	-0.615552
C55	C	0.839963	-0.212998	-0.515053
C56	C	0.991157	-0.052952	-0.778025
C57	C	0.890368	-0.159641	-0.770215
N58	N	0.940767	-0.106295	0.175632
H59	H	1.180485	-0.102013	0.066166
H60	H	0.800178	0.114577	-0.062180
H61	H	1.032154	-0.009531	-0.338285
F62	F	0.836715	-0.216437	-0.310567
H63	H	1.180468	-0.102010	-0.249647
F64	F	1.078082	0.140915	-0.083809
H65	H	0.849337	-0.203083	-0.807941
F66	F	1.064378	0.309718	-0.082725
F67	F	1.711354	-0.110777	0.124384
F68	F	1.540920	-0.107966	-0.221713
F69	F	0.817112	0.477672	-0.063474
F70	F	1.112048	0.516580	-0.086404
H71	H	1.701015	-0.110610	-0.212389
F72	F	1.340572	-0.104646	-0.283844
H73	H	1.032186	-0.009510	-0.822115
H74	H	1.082577	0.043836	-0.675270
H75	H	1.082554	0.043823	-0.492942
H76	H	1.081313	0.672814	-0.084034
F77	F	0.769448	0.270810	-0.059776
H78	H	0.798935	-0.256427	-0.653296
F79	F	1.340581	-0.104645	0.075486
F80	F	0.786330	-0.269775	-0.457411
H81	H	0.822102	0.638607	-0.063887
H82	H	1.551250	-0.108132	0.115062
