data_functionalizedCrystal
_audit_creation_method	'MofGen! by Chris Wilmer'
_symmetry_space_group_name_H-M	'P1'
_symmetry_Int_Tables_number	1
_symmetry_cell_setting	triclinic
loop_
_symmetry_equiv_pos_as_xyz
  x,y,z
_cell_length_a	12.594516
_cell_length_b	12.594517
_cell_length_c	21.395355
_cell_angle_alpha	89.984992
_cell_angle_beta	89.988593
_cell_angle_gamma	90.011939
loop_
_atom_site_label
_atom_site_type_symbol
_atom_site_fract_x
_atom_site_fract_y
_atom_site_fract_z
Zn1	Zn	-0.423982	1.627304	-0.354133
Zn2	Zn	-0.601947	1.627184	-0.249368
Zn3	Zn	-0.423970	1.449297	-0.249387
Zn4	Zn	-0.601906	1.449290	-0.354126
O5	O	-0.512951	1.538269	-0.301754
O6	O	-0.447612	1.776234	-0.340231
O7	O	-0.578349	1.603539	-0.161693
O8	O	-0.275026	1.472963	-0.263292
O9	O	-0.578361	1.776146	-0.263261
O10	O	-0.275035	1.603744	-0.340249
O11	O	-0.447590	1.472847	-0.161707
O12	O	-0.447551	1.300350	-0.263286
O13	O	-0.578293	1.472951	-0.441805
O14	O	-0.578281	1.300345	-0.340237
O15	O	-0.447573	1.603737	-0.441810
O16	O	-0.750887	1.603533	-0.263254
O17	O	-0.750857	1.472835	-0.340219
C18	C	-0.512911	1.261728	-0.301763
C19	C	-0.512919	1.143422	-0.301782
C20	C	-0.584162	1.074197	-0.343555
C21	C	-0.487123	1.003390	-0.358963
C22	C	-0.610039	1.003430	-0.286360
C23	C	-0.415829	1.074174	-0.317220
C24	C	-0.538810	1.074220	-0.244591
C25	C	-0.441704	1.003445	-0.259977
C26	C	-0.789492	1.538199	-0.301747
C27	C	-0.907798	1.538266	-0.301766
C28	C	-0.977073	1.467173	-0.343598
C29	C	-1.047912	1.441234	-0.286428
C30	C	-1.047758	1.564303	-0.358945
C31	C	-0.977078	1.512276	-0.244566
C32	C	-0.976918	1.635390	-0.317121
C33	C	-1.047724	1.609488	-0.259913
C34	C	-0.235330	1.538368	-0.301773
C35	C	-0.117025	1.538410	-0.301782
C36	C	-0.512930	1.538357	-0.465177
C37	C	-0.512921	1.538395	-0.534818
C38	C	-0.512992	1.815889	-0.301744
C39	C	-0.513010	1.934195	-0.301740
C40	C	-0.444852	1.606492	-0.567535
C41	C	-0.444806	1.606491	-0.632970
C42	C	-0.512848	1.538403	-0.665687
C43	C	-0.580922	1.470292	-0.632962
C44	C	-0.580958	1.470288	-0.567528
C45	C	-0.608685	1.529974	-0.769360
C46	C	-0.608650	1.529986	-0.834793
C47	C	-0.512736	1.538410	-0.867507
C48	C	-0.416852	1.546844	-0.834781
C49	C	-0.416889	1.546840	-0.769347
C50	C	-0.512816	1.538399	-0.736639
C51	C	-0.444611	1.606509	-0.971177
C52	C	-0.444564	1.606500	-1.036613
C53	C	-0.580689	1.470307	-1.036604
C54	C	-0.580727	1.470311	-0.971168
C55	C	-0.512690	1.538417	-0.938459
C56	C	-0.512896	1.538242	-0.138966
C57	C	-0.512605	1.538410	-0.069325
H58	H	-0.692133	0.972350	-0.273336
F59	F	-0.308493	1.114617	-0.334318
F60	F	-1.088018	1.688154	-0.213632
H61	H	-0.636079	1.414858	-1.063241
F62	F	-0.314846	1.555810	-0.734519
F63	F	-0.362918	0.963092	-0.213780
F64	F	-0.567413	1.114887	-0.181405
H65	H	-0.389449	1.661948	-0.540907
H66	H	-0.389370	1.661941	-0.659614
H67	H	-0.945713	1.717440	-0.330124
H68	H	-1.078805	1.586266	-0.407294
H69	H	-0.465257	0.972278	-0.407311
H70	H	-0.644294	1.105266	-0.378926
F71	F	-1.088669	1.333958	-0.269454
F72	F	-0.936521	1.388453	-0.389770
H73	H	-0.946160	1.490217	-0.196203
F74	F	-0.314765	1.555813	-0.869592
F75	F	-0.372197	1.678988	-0.936363
F76	F	-0.372124	1.678995	-1.071433
H77	H	-0.636162	1.414865	-0.944530
H78	H	-0.686724	1.523125	-0.861434
F79	F	-0.710780	1.521033	-0.734549
F80	F	-0.653333	1.397825	-0.667782
H81	H	-0.636386	1.414830	-0.540890
