data_functionalizedCrystal
_audit_creation_method	'MofGen! by Chris Wilmer'
_symmetry_space_group_name_H-M	'P1'
_symmetry_Int_Tables_number	1
_symmetry_cell_setting	triclinic
loop_
_symmetry_equiv_pos_as_xyz
  x,y,z
_cell_length_a	16.109302
_cell_length_b	10.654541
_cell_length_c	14.586319
_cell_angle_alpha	89.996435
_cell_angle_beta	89.994552
_cell_angle_gamma	83.972855
loop_
_atom_site_label
_atom_site_type_symbol
_atom_site_fract_x
_atom_site_fract_y
_atom_site_fract_z
O1	O	1.104089	0.161424	-0.076281
O2	O	0.862147	0.181511	-0.076274
O3	O	0.988682	-0.011348	-0.076272
O4	O	0.977554	0.354282	-0.076283
O5	O	0.988673	-0.011351	0.076209
O6	O	0.862138	0.181508	0.076207
O7	O	1.104080	0.161421	0.076200
Cu8	Cu	0.983108	0.171464	0.090126
Cu9	Cu	0.983119	0.171468	-0.090200
O10	O	0.977545	0.354279	0.076198
C11	C	0.831163	0.180696	-0.000033
C12	C	0.738853	0.178256	-0.000030
C13	C	0.526473	0.172612	0.083079
C14	C	0.439740	0.170306	0.083076
C15	C	0.439760	0.170316	-0.083167
C16	C	0.526493	0.172613	-0.083163
C17	C	0.569847	0.173767	-0.000038
C18	C	0.396380	0.169164	-0.000045
C19	C	0.302340	0.166664	-0.000049
C20	C	0.663894	0.176266	-0.000033
C21	C	0.987861	-0.058136	-0.000032
C22	C	0.985417	-0.197546	-0.000034
C23	C	1.136724	-0.227569	-0.000027
C24	C	1.211227	-0.308074	-0.000021
C25	C	1.208926	-0.439061	-0.000024
C26	C	1.132115	-0.489544	-0.000035
C27	C	1.057613	-0.409040	-0.000040
C28	C	1.059922	-0.278052	-0.000035
C29	C	0.906307	-0.379017	-0.000054
C30	C	0.908606	-0.248030	-0.000045
C31	C	0.829496	-0.429501	-0.000065
C32	C	0.754992	-0.348995	-0.000064
C33	C	0.757296	-0.218001	-0.000060
C34	C	0.834104	-0.167525	-0.000050
C35	C	1.135065	0.162236	-0.000044
C36	C	1.227374	0.164676	-0.000053
C37	C	0.978366	0.401068	-0.000044
C38	C	0.980810	0.540478	-0.000049
N39	N	0.983107	0.171461	0.216958
N40	N	0.983127	0.171461	-0.217032
C41	C	1.039156	0.086092	0.451965
C42	C	1.039158	0.086089	0.547946
C43	C	0.927072	0.256834	0.547954
C44	C	0.927066	0.256830	0.451975
C45	C	0.983113	0.171460	0.403983
C46	C	0.983121	0.171461	0.595943
C47	C	0.983123	0.171459	0.700010
C48	C	0.983110	0.171461	0.299909
H49	H	0.404450	0.169377	-0.150845
H50	H	0.696627	-0.152460	-0.000068
H51	H	0.561770	0.173553	0.150765
H52	H	0.561809	0.173550	-0.150851
C53	C	1.088862	0.010185	0.304832
C54	C	1.100715	-0.007812	0.399210
H55	H	1.126859	-0.047805	0.272267
H56	H	1.033288	-0.003417	0.289142
H57	H	1.098417	0.093980	0.289079
H58	H	1.091154	-0.091605	0.414964
H59	H	1.156302	0.005780	0.414906
H60	H	0.404429	0.169366	0.150757
C61	C	1.222403	-0.056276	-0.000004
C62	C	1.139255	-0.083587	-0.000016
H63	H	1.223965	0.032613	-0.000003
H64	H	1.249805	-0.091457	0.053168
H65	H	1.249826	-0.091448	-0.053179
H66	H	1.111834	-0.048423	0.053163
H67	H	1.111843	-0.048391	-0.053194
C68	C	0.879492	0.474218	0.577489
C69	C	0.865469	0.350677	0.600705
H70	H	0.841455	0.532152	0.610049
H71	H	0.935048	0.487877	0.593215
H72	H	0.871469	0.486412	0.513457
H73	H	0.873498	0.338480	0.664736
H74	H	0.809899	0.337012	0.584985
C75	C	0.814072	0.284037	0.344054
C76	C	0.865461	0.350677	0.399224
H77	H	0.776039	0.341972	0.311492
H78	H	0.847447	0.233201	0.301742
H79	H	0.783869	0.231760	0.381516
H80	H	0.895670	0.402948	0.361761
H81	H	0.832083	0.401536	0.441540
C82	C	1.340914	-0.293311	-0.078398
C83	C	1.295654	-0.252575	-0.000013
H84	H	1.393032	-0.259043	-0.078397
H85	H	1.350205	-0.382832	-0.078391
H86	H	1.310204	-0.265665	-0.131566
H87	H	1.326362	-0.280229	0.053155
H88	H	1.286365	-0.163035	-0.000012
C89	C	1.294121	-0.603780	-0.078407
C90	C	1.290818	-0.527559	-0.000021
H91	H	1.344681	-0.658408	-0.078406
H92	H	1.248053	-0.652581	-0.078404
H93	H	1.291885	-0.552037	-0.131574
H94	H	1.293049	-0.579301	0.053146
H95	H	1.336900	-0.478753	-0.000016
C96	C	0.785026	-0.608958	-0.078465
C97	C	0.826967	-0.573483	-0.000073
H98	H	0.783469	-0.697849	-0.078470
H99	H	0.729670	-0.568245	-0.078464
H100	H	0.813506	-0.584856	-0.131628
H101	H	0.798484	-0.597577	0.053090
H102	H	0.882334	-0.614211	-0.000067
C103	C	0.625330	-0.363731	-0.078468
C104	C	0.670570	-0.404492	-0.000081
H105	H	0.573213	-0.398003	-0.078479
H106	H	0.616036	-0.274210	-0.078452
H107	H	0.656056	-0.391356	-0.131634
H108	H	0.639846	-0.376859	0.053086
H109	H	0.679861	-0.494031	-0.000089
C110	C	0.796209	0.028280	0.078339
C111	C	0.836641	-0.023544	-0.000042
H112	H	0.797783	0.117167	0.078344
H113	H	0.739809	0.009746	0.078324
H114	H	0.823624	-0.006915	0.131509
H115	H	0.809221	0.011644	-0.053212
H116	H	0.893051	-0.005000	-0.000035
C117	C	1.086739	-0.131291	0.577491
C118	C	1.100765	-0.007749	0.600687
H119	H	1.124779	-0.189224	0.610047
H120	H	1.031185	-0.144950	0.593236
H121	H	1.094758	-0.143489	0.513459
H122	H	1.092741	0.004452	0.664719
H123	H	1.156333	0.005915	0.584948
H124	H	1.130248	-0.596202	-0.000048
