data_functionalizedCrystal
_audit_creation_method	'MofGen! by Chris Wilmer'
_symmetry_space_group_name_H-M	'P1'
_symmetry_Int_Tables_number	1
_symmetry_cell_setting	triclinic
loop_
_symmetry_equiv_pos_as_xyz
  x,y,z
_cell_length_a	10.654556
_cell_length_b	10.654551
_cell_length_c	9.730223
_cell_angle_alpha	89.998425
_cell_angle_beta	89.998368
_cell_angle_gamma	84.486449
loop_
_atom_site_label
_atom_site_type_symbol
_atom_site_fract_x
_atom_site_fract_y
_atom_site_fract_z
O1	O	1.667835	0.176437	-0.114229
O2	O	1.302358	0.193234	-0.114242
O3	O	1.493499	0.002097	-0.114236
O4	O	1.476694	0.367574	-0.114235
O5	O	1.493486	0.002091	0.114344
O6	O	1.302345	0.193229	0.114338
O7	O	1.667823	0.176431	0.114351
Zn8	Zn	1.485082	0.184829	0.150637
Zn9	Zn	1.485098	0.184836	-0.150527
O10	O	1.476682	0.367569	0.114345
C11	C	1.255554	0.191997	0.000046
C12	C	1.116111	0.188302	0.000041
C13	C	0.919572	0.183102	-0.124547
C14	C	1.050594	0.186566	-0.124556
C15	C	1.050600	0.186560	0.124655
C16	C	0.919581	0.183087	0.124662
C17	C	1.492258	-0.044704	0.000051
C18	C	1.488566	-0.184147	0.000042
C19	C	1.486840	-0.249656	-0.124555
C20	C	1.483360	-0.380677	-0.124549
C21	C	1.483336	-0.380668	0.124662
C22	C	1.486808	-0.249649	0.124654
C23	C	1.488599	-0.184155	-0.249167
C24	C	1.486875	-0.249664	-0.373774
C25	C	1.483395	-0.380685	-0.373768
C26	C	1.481638	-0.446196	-0.249155
C27	C	1.714627	0.177669	0.000060
C28	C	1.854070	0.181364	0.000057
C29	C	1.477922	0.414370	0.000055
C30	C	1.481614	0.553813	0.000056
N31	N	1.485080	0.184824	0.356173
N32	N	1.485110	0.184832	-0.356064
C33	C	1.569746	0.100224	0.428102
C34	C	1.569759	0.100225	0.571985
C35	C	1.400435	0.269436	0.571998
C36	C	1.400417	0.269428	0.428117
H37	H	0.866237	0.181698	-0.226009
H38	H	1.331466	0.338320	0.369549
H39	H	1.488293	-0.196315	-0.475229
F40	F	1.492308	-0.044713	-0.249184
F41	F	1.488650	-0.179926	0.257264
H42	H	1.481978	-0.434017	-0.475228
F43	F	1.477922	-0.585639	-0.249155
H44	H	1.103921	0.187979	-0.226021
H45	H	1.103954	0.187965	0.226103
F46	F	0.849864	0.181234	0.257289
H47	H	1.481907	-0.434018	0.226116
F48	F	1.659869	0.010180	0.648532
F49	F	1.659849	0.010177	0.351539
H50	H	1.331506	0.338320	0.630589
