data_functionalizedCrystal
_audit_creation_method	'MofGen! by Chris Wilmer'
_symmetry_space_group_name_H-M	'P1'
_symmetry_Int_Tables_number	1
_symmetry_cell_setting	triclinic
loop_
_symmetry_equiv_pos_as_xyz
  x,y,z
_cell_length_a	21.295418
_cell_length_b	21.295418
_cell_length_c	21.295411
_cell_angle_alpha	90.027030
_cell_angle_beta	90.035622
_cell_angle_gamma	90.043213
loop_
_atom_site_label
_atom_site_type_symbol
_atom_site_fract_x
_atom_site_fract_y
_atom_site_fract_z
Zn1	Zn	0.962319	-0.250371	0.356241
Zn2	Zn	1.462319	0.249629	0.856241
Zn3	Zn	0.962242	-0.355636	0.250969
Zn4	Zn	1.462242	0.144364	0.750969
Zn5	Zn	0.857057	-0.250414	0.250951
Zn6	Zn	1.357057	0.249586	0.750951
Zn7	Zn	0.857017	-0.355636	0.356166
Zn8	Zn	1.357017	0.144364	0.856166
O9	O	0.909659	-0.303014	0.303582
O10	O	1.409659	0.196986	0.803582
O11	O	1.050398	-0.264317	0.342316
O12	O	1.550398	0.235683	0.842316
O13	O	0.948273	-0.341696	0.162878
O14	O	1.448273	0.158304	0.662878
O15	O	0.871069	-0.162319	0.264941
O16	O	1.371069	0.337681	0.764941
O17	O	1.050342	-0.341655	0.264973
O18	O	1.550342	0.158345	0.764973
O19	O	0.948405	-0.162287	0.342298
O20	O	1.448405	0.337713	0.842298
O21	O	0.870994	-0.264390	0.162864
O22	O	1.370994	0.235610	0.662864
O23	O	0.768962	-0.264389	0.264869
O24	O	1.268962	0.235611	0.764869
O25	O	0.871001	-0.341654	0.444265
O26	O	1.371001	0.158346	0.944265
O27	O	0.768933	-0.341695	0.342170
O28	O	1.268933	0.158305	0.842170
O29	O	0.948366	-0.264317	0.444320
O30	O	1.448366	0.235683	0.944320
O31	O	0.948235	-0.443725	0.264900
O32	O	1.448235	0.056275	0.764900
O33	O	0.870927	-0.443725	0.342188
O34	O	1.370927	0.056275	0.842188
C35	C	0.746107	-0.303047	0.303509
C36	C	1.246107	0.196953	0.803509
C37	C	0.676139	-0.303077	0.303493
C38	C	1.176139	0.196923	0.803493
C39	C	0.909585	-0.466566	0.303552
C40	C	1.409585	0.033434	0.803552
C41	C	0.909611	-0.536534	0.303560
C42	C	1.409611	-0.036534	0.803560
C43	C	0.950064	-1.035971	0.263440
C44	C	1.450064	-0.535971	0.763440
C45	C	0.950040	-0.970229	0.263425
C46	C	1.450040	-0.470229	0.763425
C47	C	0.909747	-0.937373	0.303626
C48	C	1.409747	-0.437373	0.803626
C49	C	0.869464	-0.970266	0.343833
C50	C	1.369464	-0.470266	0.843833
C51	C	0.869485	-1.036007	0.343843
C52	C	1.369485	-0.536007	0.843843
N53	N	0.904851	-0.834125	0.358707
N54	N	1.404851	-0.334125	0.858707
N55	N	0.904835	-0.771673	0.358697
N56	N	1.404835	-0.271673	0.858697
C57	C	0.909682	-0.739299	0.303599
C58	C	1.409682	-0.239299	0.803599
N59	N	0.914558	-0.771734	0.248512
N60	N	1.414558	-0.271734	0.748512
N61	N	0.914577	-0.834192	0.248523
N62	N	1.414577	-0.334192	0.748523
C63	C	0.909720	-0.866088	0.303620
C64	C	1.409720	-0.366088	0.803620
C65	C	0.949934	-0.635128	0.263375
C66	C	1.449934	-0.135128	0.763375
C67	C	0.949905	-0.569385	0.263359
C68	C	1.449905	-0.069385	0.763359
C69	C	0.869332	-0.569423	0.343773
C70	C	1.369332	-0.069423	0.843773
C71	C	0.869357	-0.635166	0.343784
C72	C	1.369357	-0.135166	0.843784
C73	C	0.909661	-0.668014	0.303586
C74	C	1.409661	-0.168014	0.803586
C75	C	0.643274	-0.343383	0.343684
C76	C	1.143274	0.156617	0.843684
C77	C	0.577531	-0.343368	0.343712
C78	C	1.077531	0.156632	0.843712
C79	C	0.544657	-0.303052	0.303539
C80	C	1.044657	0.196948	0.803539
C81	C	0.577530	-0.262738	0.263345
C82	C	1.077530	0.237262	0.763345
C83	C	0.643271	-0.262750	0.263323
C84	C	1.143271	0.237250	0.763323
N85	N	0.441388	-0.298132	0.248481
N86	N	0.941388	0.201868	0.748481
N87	N	0.378937	-0.298124	0.248504
N88	N	0.878937	0.201876	0.748504
C89	C	0.346582	-0.303012	0.303605
C90	C	0.846582	0.196988	0.803605
N91	N	0.379038	-0.307921	0.358684
N92	N	0.879038	0.192079	0.858684
N93	N	0.441495	-0.307932	0.358660
N94	N	0.941495	0.192068	0.858660
C95	C	0.473371	-0.303034	0.303559
C96	C	0.973371	0.196966	0.803559
C97	C	0.242431	-0.343304	0.343830
C98	C	0.742431	0.156696	0.843830
C99	C	0.176687	-0.343284	0.343859
C100	C	0.676687	0.156716	0.843859
C101	C	0.176687	-0.262657	0.263487
C102	C	0.676687	0.237343	0.763487
C103	C	0.242430	-0.262674	0.263463
C104	C	0.742430	0.237326	0.763463
C105	C	0.275298	-0.303001	0.303634
C106	C	0.775298	0.196999	0.803634
C107	C	1.073849	-0.302981	0.303655
C108	C	1.573849	0.197019	0.803655
C109	C	1.143817	-0.302967	0.303686
C110	C	1.643817	0.197033	0.803686
C111	C	0.909688	-0.302981	0.467772
C112	C	1.409688	0.197019	0.967772
C113	C	0.909700	-0.302966	0.537740
C114	C	1.409700	0.197034	1.037740
C115	C	0.909750	-0.138824	0.303626
C116	C	1.409750	0.361176	0.803626
C117	C	0.909789	-0.068856	0.303644
C118	C	1.409789	0.431144	0.803644
C119	C	0.909666	-0.303002	0.140030
C120	C	1.409666	0.196998	0.640030
C121	C	0.909776	-0.302839	0.070063
C122	C	1.409776	0.197161	0.570063
C123	C	0.950010	-0.343089	1.037206
C124	C	1.450010	0.156911	1.537206
C125	C	0.949998	-0.343109	0.971464
C126	C	1.449998	0.156891	1.471464
C127	C	0.909760	-0.302868	0.938580
C128	C	1.409760	0.197132	1.438580
C129	C	0.869518	-0.262615	0.971444
C130	C	1.369518	0.237385	1.471444
C131	C	0.869526	-0.262601	1.037186
C132	C	1.369526	0.237399	1.537186
N133	N	0.904948	-0.247790	0.835371
N134	N	1.404948	0.252210	1.335371
N135	N	0.904944	-0.247806	0.772920
N136	N	1.404944	0.252194	1.272920
C137	C	0.909732	-0.302911	0.740505
C138	C	1.409732	0.197089	1.240505
N139	N	0.914536	-0.358001	0.772901
N140	N	1.414536	0.141999	1.272901
N141	N	0.914543	-0.357984	0.835358
N142	N	1.414543	0.142016	1.335358
C143	C	0.909746	-0.302880	0.867295
C144	C	1.409746	0.197120	1.367295
C145	C	0.949956	-0.343186	0.636363
C146	C	1.449956	0.156814	1.136363
C147	C	0.949940	-0.343207	0.570619
C148	C	1.449940	0.156793	1.070619
C149	C	0.869463	-0.262707	0.570601
C150	C	1.369463	0.237293	1.070601
C151	C	0.869475	-0.262692	0.636344
C152	C	1.369475	0.237308	1.136344
C153	C	0.909725	-0.302930	0.669221
C154	C	1.409725	0.197070	1.169221
H155	H	0.982881	-1.062712	0.230705
H156	H	1.482881	-0.562712	0.730705
H157	H	0.670030	-0.229926	0.230594
H158	H	1.170030	0.270074	0.730594
N159	N	0.991184	-0.936638	0.222349
N160	N	1.491184	-0.436638	0.722349
N161	N	1.027163	-0.965975	0.186460
N162	N	1.527163	-0.465975	0.686460
H163	H	1.056222	-0.942253	0.157449
H164	H	1.556222	-0.442253	0.657449
N165	N	0.991056	-0.384312	0.537059
N166	N	1.491056	0.115688	1.037059
N167	N	1.031175	-0.362153	0.500405
N168	N	1.531175	0.137847	1.000405
H169	H	1.060217	-0.391181	0.476704
H170	H	1.560217	0.108819	0.976704
H171	H	0.836562	-0.661941	0.376525
H172	H	1.336562	-0.161941	0.876525
H173	H	0.836523	-0.542673	0.376503
H174	H	1.336523	-0.042673	0.876503
H175	H	0.836762	-0.229823	1.063937
H176	H	1.336762	0.270177	1.563937
N177	N	0.276019	-0.384478	0.384869
N178	N	0.776019	0.115522	0.884869
N179	N	0.334716	-0.384484	0.384844
N180	N	0.834716	0.115516	0.884844
H181	H	0.358438	-0.413562	0.413830
H182	H	0.858438	0.086438	0.913830
H183	H	0.836698	-0.229944	0.543828
H184	H	1.336698	0.270056	1.043828
N185	N	0.676849	-0.384563	0.384725
N186	N	1.176849	0.115437	0.884725
N187	N	0.713592	-0.362478	0.424867
N188	N	1.213592	0.137522	0.924867
H189	H	0.737308	-0.391561	0.453853
H190	H	1.237308	0.108439	0.953853
N191	N	0.276014	-0.221516	0.222402
N192	N	0.776014	0.278484	0.722402
N193	N	0.334711	-0.221533	0.222386
N194	N	0.834711	0.278467	0.722386
H195	H	0.358432	-0.192463	0.193386
H196	H	0.858432	0.307537	0.693386
H197	H	0.550767	-0.376190	0.376442
H198	H	1.050767	0.123810	0.876442
H199	H	0.982771	-0.375879	0.944707
H200	H	1.482771	0.124121	1.444707
N201	N	0.143124	-0.384457	0.384925
N202	N	0.643124	0.115543	0.884925
N203	N	0.172481	-0.420455	0.420787
N204	N	0.672481	0.079545	0.920787
H205	H	0.148777	-0.449534	0.449792
H206	H	0.648777	0.050466	0.949792
N207	N	0.828374	-0.221572	0.669900
N208	N	1.328374	0.278428	1.169900
N209	N	0.792446	-0.185647	0.640535
N210	N	1.292446	0.314353	1.140535
H211	H	0.763414	-0.156606	0.664233
H212	H	1.263414	0.343394	1.164233
H213	H	0.982728	-0.375952	0.663133
H214	H	1.482728	0.124048	1.163133
H215	H	0.149921	-0.229829	0.230780
H216	H	0.649921	0.270171	0.730780
H217	H	0.550759	-0.229912	0.230637
H218	H	1.050759	0.270088	0.730637
N219	N	0.828420	-0.221497	0.937867
N220	N	1.328420	0.278503	1.437867
N221	N	0.792503	-0.185556	0.967215
N222	N	1.292503	0.314444	1.467215
H223	H	0.763475	-0.156515	0.943502
H224	H	1.263475	0.343485	1.443502
N225	N	0.828306	-0.936699	0.384891
N226	N	1.328306	-0.436699	0.884891
N227	N	0.828294	-0.878002	0.384878
N228	N	1.328294	-0.378002	0.884878
H229	H	0.799223	-0.854294	0.413874
H230	H	1.299223	-0.354294	0.913874
H231	H	0.982782	-0.375856	1.063971
H232	H	1.482782	0.124144	1.563971
N233	N	0.828336	-1.069592	0.384915
N234	N	1.328336	-0.569592	0.884915
N235	N	0.792358	-1.040253	0.420802
N236	N	1.292358	-0.540253	0.920802
H237	H	0.763296	-1.063973	0.449811
H238	H	1.263296	-0.563973	0.949811
H239	H	0.982751	-0.661875	0.230643
H240	H	1.482751	-0.161875	0.730643
H241	H	0.982700	-0.542609	0.230616
H242	H	1.482700	-0.042609	0.730616
