data_functionalizedCrystal
_audit_creation_method	'MofGen! by Chris Wilmer'
_symmetry_space_group_name_H-M	'P1'
_symmetry_Int_Tables_number	1
_symmetry_cell_setting	triclinic
loop_
_symmetry_equiv_pos_as_xyz
  x,y,z
_cell_length_a	14.044220
_cell_length_b	19.188924
_cell_length_c	13.101039
_cell_angle_alpha	93.348752
_cell_angle_beta	86.340132
_cell_angle_gamma	88.165421
loop_
_atom_site_label
_atom_site_type_symbol
_atom_site_fract_x
_atom_site_fract_y
_atom_site_fract_z
O1	O	1.262226	0.164759	-0.085114
O2	O	1.762226	0.664759	0.414886
O3	O	0.986284	0.158686	-0.085140
O4	O	1.486284	0.658686	0.414860
O5	O	1.132221	0.060581	-0.085114
O6	O	1.632221	0.560581	0.414886
O7	O	1.116289	0.262864	-0.085140
O8	O	1.616289	0.762864	0.414860
O9	O	1.121750	0.067633	0.085314
O10	O	1.621750	0.567633	0.585314
O11	O	0.975813	0.165737	0.085288
O12	O	1.475813	0.665737	0.585288
O13	O	1.251756	0.171811	0.085314
O14	O	1.751756	0.671811	0.585314
Zn15	Zn	1.112122	0.169894	0.112360
Zn16	Zn	1.612122	0.669894	0.612360
Zn17	Zn	1.125918	0.160603	-0.112186
Zn18	Zn	1.625918	0.660603	0.387814
O19	O	1.105819	0.269916	0.085288
O20	O	1.605819	0.769916	0.585288
C21	C	0.945746	0.159553	0.000071
C22	C	1.445746	0.659553	0.500071
C23	C	0.840553	0.151624	0.000062
C24	C	1.340553	0.651624	0.500062
C25	C	0.647951	0.137129	0.000084
C26	C	1.147951	0.637129	0.500084
C27	C	0.590083	0.193364	0.000081
C28	C	1.090083	0.693364	0.500081
C29	C	0.482913	0.185299	0.000093
C30	C	0.982913	0.685299	0.500093
C31	C	0.755132	0.145193	0.000072
C32	C	1.255132	0.645193	0.500072
C33	C	1.126471	0.038063	0.000101
C34	C	1.626471	0.538063	0.500101
C35	C	1.124925	-0.039542	0.000103
C36	C	1.624925	0.460458	0.500103
C37	C	1.129911	-0.079831	-0.092797
C38	C	1.629911	0.420169	0.407203
C39	C	1.128446	-0.152748	-0.092805
C40	C	1.628446	0.347252	0.407195
C41	C	1.122013	-0.185374	0.000093
C42	C	1.622013	0.314626	0.500093
C43	C	1.117021	-0.145076	0.093006
C44	C	1.617021	0.354924	0.593006
C45	C	1.118477	-0.072159	0.093011
C46	C	1.618477	0.427841	0.593011
N47	N	1.169405	-0.298844	0.069239
N48	N	1.669405	0.201156	0.569239
N49	N	1.168025	-0.368112	0.069228
N50	N	1.668025	0.131888	0.569228
C51	C	1.117624	-0.405067	0.000083
C52	C	1.617624	0.094933	0.500083
N53	N	1.068670	-0.370139	-0.069067
N54	N	1.568670	0.129861	0.430933
N55	N	1.070055	-0.300865	-0.069059
N56	N	1.570055	0.199135	0.430941
C57	C	1.120433	-0.264440	0.000097
C58	C	1.620433	0.235560	0.500097
C59	C	1.121021	-0.524422	-0.092833
C60	C	1.621021	-0.024422	0.407167
C61	C	1.119550	-0.597341	-0.092837
C62	C	1.619550	-0.097341	0.407163
C63	C	1.108134	-0.589667	0.092976
C64	C	1.608134	-0.089667	0.592976
C65	C	1.109596	-0.516750	0.092978
C66	C	1.609596	-0.016750	0.592978
C67	C	1.116044	-0.484132	0.000070
C68	C	1.616044	0.015868	0.500070
C69	C	1.292294	0.170943	0.000101
C70	C	1.792294	0.670943	0.500101
C71	C	1.397487	0.178872	0.000103
C72	C	1.897487	0.678872	0.500103
C73	C	1.111569	0.292434	0.000071
C74	C	1.611569	0.792434	0.500071
C75	C	1.113115	0.370038	0.000062
C76	C	1.613115	0.870038	0.500062
N77	N	1.102714	0.176235	0.265607
N78	N	1.602714	0.676235	0.765607
N79	N	1.135334	0.154257	-0.265433
N80	N	1.635334	0.654257	0.234567
C81	C	1.089913	0.184868	0.474647
C82	C	1.589913	0.684868	0.974647
C83	C	1.148131	0.145626	0.525533
C84	C	1.648131	0.645626	1.025533
C85	C	1.141009	0.150430	0.641851
C86	C	1.641009	0.650430	1.141851
C87	C	1.097034	0.180065	0.358320
C88	C	1.597034	0.680065	0.858320
H89	H	1.135159	-0.053278	-0.168450
H90	H	1.635159	0.446722	0.331550
O91	O	1.221239	0.096345	0.467531
O92	O	1.721239	0.596345	0.967531
H93	H	1.293868	0.110611	0.488053
H94	H	1.793868	0.610611	0.988053
O95	O	1.127963	-0.489236	-0.193036
O96	O	1.627963	0.010764	0.306964
H97	H	1.064330	-0.453991	-0.197475
H98	H	1.564330	0.046009	0.302525
O99	O	0.631061	0.265163	0.000069
O100	O	1.131061	0.765163	0.500069
H101	H	0.610854	0.291039	-0.069393
H102	H	1.110854	0.791039	0.430607
H103	H	1.034726	0.222069	0.518435
H104	H	1.534726	0.722069	1.018435
O105	O	1.133827	-0.196218	-0.193008
O106	O	1.633827	0.303782	0.306992
H107	H	1.138559	-0.161286	-0.257610
H108	H	1.638559	0.338714	0.242390
H109	H	1.123606	-0.630144	-0.168491
H110	H	1.623606	-0.130144	0.331509
O111	O	0.606965	0.065338	0.000096
O112	O	1.106965	0.565338	0.500096
H113	H	0.665886	0.025383	0.000101
H114	H	1.165886	0.525383	0.500101
O115	O	1.110099	-0.180266	0.193201
O116	O	1.610099	0.319734	0.693201
H117	H	1.044599	-0.211111	0.197636
H118	H	1.544599	0.288889	0.697636
O119	O	1.113115	-0.028698	0.193214
O120	O	1.613115	0.471302	0.693214
H121	H	1.108403	-0.063631	0.257814
H122	H	1.608403	0.436369	0.757814
H123	H	1.102889	-0.616230	0.168616
H124	H	1.602889	-0.116230	0.668616
H125	H	1.105543	-0.483946	0.168628
H126	H	1.605543	0.016054	0.668628
