data_functionalizedCrystal
_audit_creation_method	'MofGen! by Chris Wilmer'
_symmetry_space_group_name_H-M	'P1'
_symmetry_Int_Tables_number	1
_symmetry_cell_setting	triclinic
loop_
_symmetry_equiv_pos_as_xyz
  x,y,z
_cell_length_a	10.723022
_cell_length_b	10.723023
_cell_length_c	7.088929
_cell_angle_alpha	83.717996
_cell_angle_beta	96.263369
_cell_angle_gamma	84.467387
loop_
_atom_site_label
_atom_site_type_symbol
_atom_site_fract_x
_atom_site_fract_y
_atom_site_fract_z
O1	O	1.644490	0.187735	-0.158971
O2	O	1.281337	0.204491	-0.158977
O3	O	1.471291	0.014536	-0.158966
O4	O	1.454535	0.377690	-0.158982
O5	O	1.496676	-0.010907	0.159010
O6	O	1.306722	0.179048	0.158999
O7	O	1.669875	0.162292	0.159005
Cu8	Cu	1.490616	0.168347	0.188036
Cu9	Cu	1.460595	0.198436	-0.188008
O10	O	1.479920	0.352247	0.158994
C11	C	1.247529	0.190551	0.000010
C12	C	1.108975	0.186904	0.000008
C13	C	1.060414	0.077364	0.000012
C14	C	0.917211	0.073592	0.000009
C15	C	1.482764	-0.044685	0.000020
C16	C	1.479116	-0.183239	0.000014
C17	C	1.464340	-0.231824	-0.164710
C18	C	1.460570	-0.375026	-0.164721
C19	C	1.703682	0.176233	0.000014
C20	C	1.842235	0.179880	0.000003
C21	C	1.468447	0.411468	0.000004
C22	C	1.472093	0.550023	-0.000003
N23	N	1.511740	0.147182	0.452525
N24	N	1.439481	0.219591	-0.452497
H25	H	1.124857	-0.013625	0.000007
H26	H	1.044531	0.277894	-0.000005
Br27	Br	0.911907	0.336212	0.000021
H28	H	1.488968	-0.247659	0.141032
Br29	Br	0.847535	-0.082739	0.000038
Br30	Br	1.493205	-0.380274	0.235073
Br31	Br	1.447934	-0.124466	-0.399766
H32	H	1.586642	0.072150	0.534186
H33	H	1.447919	-0.416859	-0.305747
H34	H	1.364593	0.294627	0.465852
