data_functionalizedCrystal
_audit_creation_method	'MofGen! by Chris Wilmer'
_symmetry_space_group_name_H-M	'P1'
_symmetry_Int_Tables_number	1
_symmetry_cell_setting	triclinic
loop_
_symmetry_equiv_pos_as_xyz
  x,y,z
_cell_length_a	16.120484
_cell_length_b	19.805407
_cell_length_c	19.805407
_cell_angle_alpha	89.994842
_cell_angle_beta	87.113740
_cell_angle_gamma	87.078256
loop_
_atom_site_label
_atom_site_type_symbol
_atom_site_fract_x
_atom_site_fract_y
_atom_site_fract_z
Zn1	Zn	-0.332148	-1.020969	0.396379
Zn2	Zn	0.001185	-0.687636	0.729712
Zn3	Zn	0.334519	-0.354302	1.063046
Zn4	Zn	-0.471529	-1.015174	0.288926
Zn5	Zn	-0.138196	-0.681841	0.622259
Zn6	Zn	0.195138	-0.348507	0.955593
Zn7	Zn	-0.332123	-0.907812	0.283204
Zn8	Zn	0.001211	-0.574479	0.616537
Zn9	Zn	0.334544	-0.241146	0.949870
Zn10	Zn	-0.471514	-0.902010	0.402073
Zn11	Zn	-0.138181	-0.568677	0.735406
Zn12	Zn	0.195152	-0.235343	1.068739
O13	O	-0.401828	-0.961491	0.342645
O14	O	-0.068495	-0.628158	0.675979
O15	O	0.264838	-0.294825	1.009312
O16	O	-0.350654	-1.114916	0.382137
O17	O	-0.017321	-0.781583	0.715471
O18	O	0.316013	-0.448249	1.048804
O19	O	-0.453032	-1.000935	0.193450
O20	O	-0.119699	-0.667602	0.526783
O21	O	0.213635	-0.334269	0.860117
O22	O	-0.215459	-0.927676	0.293439
O23	O	0.117875	-0.594343	0.626772
O24	O	0.451208	-0.261010	0.960106
O25	O	-0.453057	-1.110659	0.303192
O26	O	-0.119723	-0.777325	0.636525
O27	O	0.213610	-0.443992	0.969859
O28	O	-0.215477	-1.010812	0.376589
O29	O	0.117856	-0.677479	0.709922
O30	O	0.451189	-0.344145	1.043255
O31	O	-0.350611	-0.922057	0.189246
O32	O	-0.017278	-0.588724	0.522579
O33	O	0.316056	-0.255391	0.855913
O34	O	-0.350597	-0.812327	0.298960
O35	O	-0.017263	-0.478994	0.632293
O36	O	0.316070	-0.145660	0.965626
O37	O	-0.453031	-0.917787	0.496034
O38	O	-0.119698	-0.584454	0.829368
O39	O	0.213635	-0.251121	1.162701
O40	O	-0.453007	-0.808064	0.386292
O41	O	-0.119673	-0.474731	0.719626
O42	O	0.213660	-0.141397	1.052959
O43	O	-0.350639	-1.005186	0.491851
O44	O	-0.017306	-0.671852	0.825184
O45	O	0.316027	-0.338519	1.158518
O46	O	-0.588194	-0.995309	0.308713
O47	O	-0.254861	-0.661976	0.642046
O48	O	0.078472	-0.328642	0.975379
O49	O	-0.588183	-0.912168	0.391841
O50	O	-0.254850	-0.578835	0.725175
O51	O	0.078483	-0.245501	1.058508
C52	C	-0.401798	-0.785637	0.342623
C53	C	-0.068465	-0.452303	0.675957
C54	C	0.264869	-0.118970	1.009290
C55	C	-0.401805	-0.710404	0.342631
C56	C	-0.068472	-0.377071	0.675964
C57	C	0.264862	-0.043738	1.009298
C58	C	-0.348577	-0.677274	0.383807
C59	C	-0.015244	-0.343941	0.717140
C60	C	0.318089	-0.010607	1.050473
C61	C	-0.348580	-0.606585	0.383808
C62	C	-0.015247	-0.273252	0.717141
C63	C	0.318087	0.060081	1.050474
C64	C	-0.401815	-0.569028	0.342636
C65	C	-0.068482	-0.235695	0.675969
C66	C	0.264852	0.097638	1.009303
C67	C	-0.455045	-0.602164	0.301456
C68	C	-0.121712	-0.268830	0.634789
C69	C	0.211622	0.064503	0.968122
C70	C	-0.455038	-0.672851	0.301451
C71	C	-0.121704	-0.339518	0.634785
C72	C	0.211629	-0.006184	0.968118
C73	C	-0.455075	-0.317089	0.301471
C74	C	-0.121742	0.016244	0.634804
C75	C	0.211591	0.349578	0.968137
C76	C	-0.455080	-0.246397	0.301479
C77	C	-0.121747	0.086937	0.634813
C78	C	0.211586	0.420270	0.968146
C79	C	-0.348618	-0.250823	0.383827
C80	C	-0.015284	0.082510	0.717160
C81	C	0.318049	0.415843	1.050493
C82	C	-0.348610	-0.321511	0.383823
C83	C	-0.015277	0.011823	0.717156
C84	C	0.318056	0.345156	1.050489
C85	C	-0.401837	-0.354640	0.342640
C86	C	-0.068503	-0.021307	0.675973
C87	C	0.264830	0.312027	1.009307
C88	C	-0.401832	-0.431289	0.342638
C89	C	-0.068499	-0.097955	0.675972
C90	C	0.264834	0.235378	1.009305
C91	C	-0.401824	-0.492381	0.342641
C92	C	-0.068491	-0.159047	0.675974
C93	C	0.264842	0.174286	1.009307
C94	C	-0.618439	-0.952498	0.351531
C95	C	-0.285106	-0.619165	0.684864
C96	C	0.048227	-0.285832	1.018197
C97	C	-0.711107	-0.948713	0.355354
C98	C	-0.377773	-0.615380	0.688688
C99	C	-0.044440	-0.282046	1.022021
C100	C	-0.880770	-0.941806	0.362349
C101	C	-0.547437	-0.608473	0.695683
C102	C	-0.214104	-0.275139	1.029016
C103	C	-0.922046	-0.981298	0.322952
C104	C	-0.588713	-0.647965	0.656286
C105	C	-0.255379	-0.314631	0.989619
C106	C	-1.016453	-0.977455	0.326845
C107	C	-0.683119	-0.644121	0.660178
C108	C	-0.349786	-0.310788	0.993511
C109	C	-0.786355	-0.945648	0.358458
C110	C	-0.453022	-0.612315	0.691792
C111	C	-0.119688	-0.278982	1.025125
C112	C	-0.184372	-0.970538	0.333740
C113	C	0.148962	-0.637205	0.667074
C114	C	0.482295	-0.303871	1.000407
C115	C	-0.091705	-0.974393	0.329945
C116	C	0.241629	-0.641060	0.663279
C117	C	0.574962	-0.307726	0.996612
C118	C	-0.401837	-0.961486	0.519188
C119	C	-0.068503	-0.628152	0.852522
C120	C	0.264830	-0.294819	1.185855
C121	C	-0.401840	-0.961483	0.594420
C122	C	-0.068507	-0.628150	0.927754
C123	C	0.264827	-0.294817	1.261087
C124	C	-0.401853	-0.138033	0.342661
C125	C	-0.068520	0.195300	0.675995
C126	C	0.264813	0.528634	1.009328
C127	C	-0.401848	-0.213265	0.342652
C128	C	-0.068515	0.120068	0.675985
C129	C	0.264819	0.453401	1.009319
C130	C	-0.348519	-1.006990	1.054034
C131	C	-0.015185	-0.673657	1.387368
C132	C	0.318148	-0.340324	1.720701
C133	C	-0.348523	-1.006992	0.983346
C134	C	-0.015189	-0.673659	1.316679
C135	C	0.318144	-0.340326	1.650013
C136	C	-0.401833	-0.961489	0.950182
C137	C	-0.068500	-0.628155	1.283515
C138	C	0.264833	-0.294822	1.616849
C139	C	-0.455150	-0.915985	0.987710
C140	C	-0.121816	-0.582652	1.321044
C141	C	0.211517	-0.249318	1.654377
C142	C	-0.455149	-0.915987	1.058397
C143	C	-0.121816	-0.582653	1.391731
C144	C	0.211517	-0.249320	1.725064
C145	C	-0.455152	-0.915978	0.702637
C146	C	-0.121819	-0.582644	1.035970
C147	C	0.211514	-0.249311	1.369304
C148	C	-0.455147	-0.915978	0.631945
C149	C	-0.121813	-0.582645	0.965278
C150	C	0.211520	-0.249311	1.298611
C151	C	-0.348526	-1.006983	0.627586
C152	C	-0.015192	-0.673650	0.960919
C153	C	0.318141	-0.340316	1.294252
C154	C	-0.348525	-1.006985	0.698273
C155	C	-0.015192	-0.673651	1.031606
C156	C	0.318141	-0.340318	1.364939
C157	C	-0.401844	-0.961484	0.735795
C158	C	-0.068511	-0.628150	1.069128
C159	C	0.264822	-0.294817	1.402462
C160	C	-0.401841	-0.961483	0.812443
C161	C	-0.068507	-0.628150	1.145777
C162	C	0.264826	-0.294816	1.479110
C163	C	-0.401833	-0.961486	0.873535
C164	C	-0.068500	-0.628152	1.206868
C165	C	0.264833	-0.294819	1.540201
C166	C	-0.401837	-0.961490	1.166790
C167	C	-0.068504	-0.628157	1.500123
C168	C	0.264829	-0.294823	1.833456
C169	C	-0.401829	-0.961489	1.091557
C170	C	-0.068496	-0.628155	1.424891
C171	C	0.264837	-0.294822	1.758224
H172	H	-0.305238	-0.579614	0.417338
H173	H	0.028095	-0.246280	0.750672
H174	H	0.361428	0.087053	1.084005
C175	C	-0.513636	-0.205085	0.256184
C176	C	-0.180302	0.128248	0.589517
C177	C	0.153031	0.461581	0.922850
H178	H	-0.545329	-0.234939	0.231651
H179	H	-0.211995	0.098394	0.564984
H180	H	0.121338	0.431727	0.898317
H181	H	-0.550017	-0.176007	0.283518
H182	H	-0.216684	0.157326	0.616852
H183	H	0.116649	0.490660	0.950185
H184	H	-0.481677	-0.178830	0.225428
H185	H	-0.148344	0.154504	0.558761
H186	H	0.184989	0.487837	0.892095
C187	C	-0.513789	-0.865931	0.951232
C188	C	-0.180455	-0.532598	1.284565
C189	C	0.152878	-0.199264	1.617898
H190	H	-0.506148	-0.872441	0.903758
H191	H	-0.172815	-0.539108	1.237092
H192	H	0.160519	-0.205774	1.570425
H193	H	-0.569808	-0.873505	0.965111
H194	H	-0.236474	-0.540171	1.298444
H195	H	0.096859	-0.206838	1.631777
H196	H	-0.501572	-0.820961	0.962315
H197	H	-0.168239	-0.487627	1.295648
H198	H	0.165095	-0.154294	1.628982
H199	H	-0.498386	-0.571579	0.267930
H200	H	-0.165053	-0.238246	0.601263
H201	H	0.168281	0.095087	0.934596
C202	C	-0.513625	-0.353523	0.256174
C203	C	-0.180291	-0.020189	0.589507
C204	C	0.153042	0.313144	0.922841
H205	H	-0.545335	-0.321029	0.231661
H206	H	-0.212001	0.012304	0.564994
H207	H	0.121332	0.345638	0.898328
H208	H	-0.481672	-0.382415	0.225412
H209	H	-0.148339	-0.049082	0.558745
H210	H	0.184994	0.284252	0.892078
H211	H	-0.550003	-0.379596	0.283509
H212	H	-0.216670	-0.046262	0.616842
H213	H	0.116663	0.287071	0.950176
C214	C	-0.513595	-0.709294	0.256164
C215	C	-0.180261	-0.375961	0.589497
C216	C	0.153072	-0.042628	0.922831
H217	H	-0.545308	-0.676804	0.231650
H218	H	-0.211974	-0.343470	0.564983
H219	H	0.121359	-0.010137	0.898316
H220	H	-0.481646	-0.738190	0.225403
H221	H	-0.148313	-0.404857	0.558736
H222	H	0.185021	-0.071524	0.892069
H223	H	-0.549970	-0.735364	0.283505
H224	H	-0.216637	-0.402031	0.616839
H225	H	0.116697	-0.068697	0.950172
H226	H	-0.886481	-1.017994	0.286300
H227	H	-0.553148	-0.684660	0.619633
H228	H	-0.219815	-0.351327	0.952967
H229	H	-0.305102	-1.044040	1.081031
H230	H	0.028232	-0.710707	1.414364
H231	H	0.361565	-0.377374	1.747697
H232	H	-0.916333	-0.905112	0.398998
H233	H	-0.582999	-0.571779	0.732331
H234	H	-0.249666	-0.238446	1.065665
H235	H	-0.498561	-0.878935	1.088948
H236	H	-0.165228	-0.545602	1.422281
H237	H	0.168106	-0.212269	1.755615
C238	C	-0.290061	-0.214380	0.429121
C239	C	0.043273	0.118954	0.762454
C240	C	0.376606	0.452287	1.095788
H241	H	-0.297680	-0.166902	0.423223
H242	H	0.035654	0.166431	0.756557
H243	H	0.368987	0.499765	1.089890
H244	H	-0.302351	-0.225461	0.475085
H245	H	0.030982	0.107872	0.808418
H246	H	0.364316	0.441205	1.141752
H247	H	-0.234021	-0.228287	0.416987
H248	H	0.099312	0.105046	0.750320
H249	H	0.432645	0.438380	1.083653
H250	H	-0.305114	-1.044046	0.952798
H251	H	0.028219	-0.710713	1.286131
H252	H	0.361553	-0.377379	1.619464
H253	H	-0.305111	-1.044036	0.725271
H254	H	0.028222	-0.710703	1.058604
H255	H	0.361555	-0.377369	1.391938
H256	H	-0.305113	-1.044034	0.597026
H257	H	0.028220	-0.710701	0.930360
H258	H	0.361554	-0.377367	1.263693
H259	H	-0.305264	-0.352086	0.417351
H260	H	0.028070	-0.018753	0.750684
H261	H	0.361403	0.314580	1.084018
C262	C	-0.513794	-0.865926	0.595462
C263	C	-0.180460	-0.532593	0.928796
C264	C	0.152873	-0.199260	1.262129
H265	H	-0.506148	-0.872439	0.547990
H266	H	-0.172815	-0.539106	0.881323
H267	H	0.160518	-0.205772	1.214656
H268	H	-0.569812	-0.873504	0.609339
H269	H	-0.236479	-0.540171	0.942673
H270	H	0.096855	-0.206838	1.276006
H271	H	-0.501585	-0.820954	0.606543
H272	H	-0.168251	-0.487620	0.939877
H273	H	0.165082	-0.154287	1.273210
C274	C	-0.290018	-0.718581	0.429096
C275	C	0.043316	-0.385247	0.762429
C276	C	0.376649	-0.051914	1.095763
H277	H	-0.258313	-0.688723	0.453614
H278	H	0.075021	-0.355389	0.786947
H279	H	0.408354	-0.022056	1.120280
H280	H	-0.321962	-0.744838	0.459854
H281	H	0.011371	-0.411504	0.793188
H282	H	0.344704	-0.078171	1.126521
H283	H	-0.253635	-0.747657	0.401754
H284	H	0.079698	-0.414324	0.735087
H285	H	0.413032	-0.080991	1.068421
C286	C	-0.513791	-0.865921	0.743902
C287	C	-0.180458	-0.532588	1.077236
C288	C	0.152875	-0.199255	1.410569
H289	H	-0.545531	-0.838817	0.714025
H290	H	-0.212198	-0.505483	1.047358
H291	H	0.121135	-0.172150	1.380691
H292	H	-0.550126	-0.890297	0.772969
H293	H	-0.216792	-0.556964	1.106303
H294	H	0.116541	-0.223630	1.439636
H295	H	-0.481887	-0.837756	0.770166
H296	H	-0.148554	-0.504422	1.103499
H297	H	0.184780	-0.171089	1.436833
