data_functionalizedCrystal
_audit_creation_method	'MofGen! by Chris Wilmer'
_symmetry_space_group_name_H-M	'P1'
_symmetry_Int_Tables_number	1
_symmetry_cell_setting	triclinic
loop_
_symmetry_equiv_pos_as_xyz
  x,y,z
_cell_length_a	11.169409
_cell_length_b	21.395362
_cell_length_c	21.395362
_cell_angle_alpha	90.051515
_cell_angle_beta	90.041677
_cell_angle_gamma	90.043300
loop_
_atom_site_label
_atom_site_type_symbol
_atom_site_fract_x
_atom_site_fract_y
_atom_site_fract_z
Zn1	Zn	-0.679193	-0.957834	0.249122
Zn2	Zn	-0.478477	-0.957729	0.353919
Zn3	Zn	-0.478447	-0.853050	0.249188
Zn4	Zn	-0.679042	-0.853009	0.353895
O5	O	-0.578790	-0.905406	0.301531
O6	O	-0.652643	-1.045498	0.263006
O7	O	-0.310523	-0.943816	0.340063
O8	O	-0.505128	-0.867011	0.161501
O9	O	-0.505177	-1.045421	0.340000
O10	O	-0.652614	-0.943996	0.161453
O11	O	-0.310501	-0.866909	0.263118
O12	O	-0.504981	-0.765367	0.263095
O13	O	-0.847012	-0.866941	0.339960
O14	O	-0.652357	-0.765337	0.340023
O15	O	-0.847123	-0.943956	0.262984
O16	O	-0.505031	-0.943776	0.441594
O17	O	-0.652386	-0.866839	0.441576
C18	C	-0.578650	-0.742618	0.301564
C19	C	-0.578619	-0.672977	0.301594
C20	C	-0.578721	-0.905309	0.464319
C21	C	-0.578732	-0.905325	0.533960
C22	C	-0.891832	-0.905456	0.301462
C23	C	-1.025232	-0.905477	0.301432
C24	C	-0.266965	-0.905392	0.301555
C25	C	-0.133566	-0.905492	0.301408
C26	C	-0.578930	-1.068829	0.301498
C27	C	-0.578990	-1.138470	0.301484
C28	C	-0.655243	-0.640264	0.341703
C29	C	-0.655296	-0.574829	0.341688
C30	C	-0.578705	-0.542108	0.301569
C31	C	-0.502076	-0.574829	0.261452
C32	C	-0.502033	-0.640263	0.261464
C33	C	-0.470659	-0.438385	0.296542
C34	C	-0.470700	-0.372952	0.296534
C35	C	-0.578837	-0.340288	0.301529
C36	C	-0.686937	-0.373065	0.306544
C37	C	-0.686894	-0.438499	0.306556
C38	C	-0.578743	-0.471156	0.301552
C39	C	-0.655525	-0.236623	0.341623
C40	C	-0.655581	-0.171186	0.341604
C41	C	-0.502350	-0.171187	0.261371
C42	C	-0.502305	-0.236623	0.261388
C43	C	-0.578891	-0.269336	0.301517
C44	C	-0.655582	-0.945384	0.566591
C45	C	-0.655608	-0.945400	0.632027
C46	C	-0.578764	-0.905362	0.664828
C47	C	-0.501909	-0.865295	0.632189
C48	C	-0.501893	-0.865276	0.566755
C49	C	-0.470646	-0.900475	0.768550
C50	C	-0.470660	-0.900498	0.833983
C51	C	-0.578814	-0.905416	0.866649
C52	C	-0.686957	-0.910324	0.833875
C53	C	-0.686941	-0.910305	0.768440
C54	C	-0.578773	-0.905378	0.735781
C55	C	-0.655699	-0.945494	0.970233
C56	C	-0.655727	-0.945505	1.035669
C57	C	-0.502017	-0.865404	1.035831
C58	C	-0.501999	-0.865389	0.970395
C59	C	-0.578838	-0.905438	0.937600
C60	C	-0.578874	-0.905494	1.138108
C61	C	-0.578883	-0.905466	1.068467
H62	H	-0.717697	-0.548189	0.374349
C63	C	-0.418734	-0.821826	1.071401
C64	C	-0.444739	-0.759823	1.055553
C65	C	-0.368055	-0.719658	1.088316
H66	H	-0.338070	-0.830930	1.060729
H67	H	-0.429758	-0.827528	1.115051
H68	H	-0.433704	-0.754124	1.011912
H69	H	-0.525388	-0.750700	1.066226
H70	H	-0.379079	-0.725360	1.131967
H71	H	-0.287396	-0.728768	1.077642
H72	H	-0.385696	-0.677585	1.077572
H73	H	-0.774913	-0.465183	0.310638
H74	H	-0.439993	-0.144547	0.228703
H75	H	-0.439344	-0.832695	0.658901
C76	C	-0.353084	-0.895155	0.733200
C77	C	-0.258382	-0.890881	0.775905
C78	C	-0.150072	-0.885983	0.743364
H79	H	-0.354383	-0.858829	0.707716
H80	H	-0.342544	-0.931068	0.707647
H81	H	-0.268920	-0.854972	0.801446
H82	H	-0.257044	-0.927202	0.801390
H83	H	-0.139531	-0.921896	0.717812
H84	H	-0.151383	-0.849658	0.717882
H85	H	-0.085803	-0.883089	0.772334
H86	H	-0.439637	-0.666897	0.228800
H87	H	-0.718313	-0.978126	1.062236
C88	C	-0.418748	-0.821823	0.934931
C89	C	-0.486596	-0.781624	0.897394
C90	C	-0.409947	-0.741473	0.864723
H91	H	-0.366482	-0.845724	0.909349
H92	H	-0.373006	-0.797943	0.963817
H93	H	-0.532318	-0.805501	0.868511
H94	H	-0.538859	-0.757709	0.922960
H95	H	-0.364204	-0.717593	0.893609
H96	H	-0.357685	-0.765380	0.839144
H97	H	-0.455971	-0.714190	0.839255
H98	H	-0.382595	-0.464974	0.292472
H99	H	-0.382604	-0.896506	0.860663
H100	H	-0.439312	-0.832654	0.540186
H101	H	-0.717607	-0.666896	0.374379
H102	H	-0.774993	-0.914300	0.741757
C103	C	-0.738484	-0.272177	0.385263
C104	C	-0.670361	-0.309645	0.425403
C105	C	-0.746741	-0.342398	0.465617
H106	H	-0.790866	-0.297812	0.361404
H107	H	-0.784113	-0.243339	0.409182
H108	H	-0.624753	-0.338480	0.401486
H109	H	-0.617982	-0.284026	0.449275
H110	H	-0.792370	-0.313560	0.489536
H111	H	-0.799120	-0.368029	0.441753
H112	H	-0.700531	-0.367819	0.492860
H113	H	-0.717985	-0.144553	0.374265
H114	H	-0.439903	-0.263257	0.228730
H115	H	-0.774993	-0.346471	0.310610
C116	C	-0.353221	-0.337482	0.291051
C117	C	-0.258514	-0.380090	0.286653
C118	C	-0.150274	-0.347440	0.281593
H119	H	-0.342384	-0.311909	0.326930
H120	H	-0.354871	-0.312009	0.254712
H121	H	-0.256862	-0.405552	0.322989
H122	H	-0.269311	-0.405664	0.250775
H123	H	-0.151925	-0.321967	0.245254
H124	H	-0.139449	-0.321869	0.317473
H125	H	-0.086004	-0.376345	0.278603
H126	H	-0.439717	-0.548184	0.228786
H127	H	-0.718152	-0.977993	0.539891
H128	H	-0.718203	-0.978016	0.658600
C129	C	-0.804410	-0.915789	0.869296
C130	C	-0.860838	-0.972036	0.853303
C131	C	-0.969027	-0.977096	0.885929
H132	H	-0.854940	-0.881738	0.858612
H133	H	-0.788986	-0.915129	0.912967
H134	H	-0.876267	-0.972690	0.809643
H135	H	-0.810343	-1.006097	0.863989
H136	H	-0.953603	-0.976437	0.929599
H137	H	-1.019546	-0.943042	0.875242
H138	H	-1.007321	-1.015262	0.875087
C139	C	-0.739271	-0.988987	0.934734
C140	C	-0.806616	-1.024056	0.977321
C141	C	-0.883631	-1.064119	0.944645
H142	H	-0.693563	-1.016350	0.909194
H143	H	-0.791558	-0.965007	0.909228
H144	H	-0.754336	-1.048033	1.002817
H145	H	-0.852349	-0.996709	1.002863
H146	H	-0.935918	-1.040139	0.919138
H147	H	-0.837913	-1.091478	0.919105
H148	H	-0.929341	-1.087914	0.973534
