data_functionalizedCrystal
_audit_creation_method	'MofGen! by Chris Wilmer'
_symmetry_space_group_name_H-M	'P1'
_symmetry_Int_Tables_number	1
_symmetry_cell_setting	triclinic
loop_
_symmetry_equiv_pos_as_xyz
  x,y,z
_cell_length_a	14.044220
_cell_length_b	19.188930
_cell_length_c	12.503572
_cell_angle_alpha	93.506241
_cell_angle_beta	86.164750
_cell_angle_gamma	88.166830
loop_
_atom_site_label
_atom_site_type_symbol
_atom_site_fract_x
_atom_site_fract_y
_atom_site_fract_z
O1	O	1.262485	0.164589	-0.089229
O2	O	1.762485	0.664589	0.410771
O3	O	0.986542	0.158515	-0.089255
O4	O	1.486542	0.658515	0.410745
O5	O	1.132475	0.060411	-0.089220
O6	O	1.632475	0.560411	0.410780
O7	O	1.116552	0.262693	-0.089264
O8	O	1.616552	0.762693	0.410736
O9	O	1.121500	0.067803	0.089419
O10	O	1.621500	0.567803	0.589419
O11	O	0.975567	0.165907	0.089384
O12	O	1.475567	0.665907	0.589384
O13	O	1.251510	0.171980	0.089411
O14	O	1.751510	0.671980	0.589411
Cu15	Cu	1.112536	0.169618	0.105709
Cu16	Cu	1.612536	0.669618	0.605709
Cu17	Cu	1.125516	0.160877	-0.105553
Cu18	Cu	1.625516	0.660877	0.394447
O19	O	1.105577	0.270084	0.089376
O20	O	1.605577	0.770084	0.589376
C21	C	0.945752	0.159553	0.000061
C22	C	1.445752	0.659553	0.500061
C23	C	0.840559	0.151624	0.000052
C24	C	1.340559	0.651624	0.500052
C25	C	1.126472	0.038063	0.000102
C26	C	1.626472	0.538063	0.500102
C27	C	1.124923	-0.039541	0.000112
C28	C	1.624923	0.460459	0.500112
C29	C	0.647956	0.137129	0.000077
C30	C	1.147956	0.637129	0.500077
C31	C	0.590090	0.193363	0.000069
C32	C	1.090090	0.693363	0.500069
C33	C	0.482920	0.185298	0.000083
C34	C	0.982920	0.685298	0.500083
C35	C	0.755137	0.145193	0.000063
C36	C	1.255137	0.645193	0.500063
C37	C	1.210552	-0.078939	0.000125
C38	C	1.710552	0.421061	0.500125
C39	C	1.209099	-0.151857	0.000108
C40	C	1.709099	0.348143	0.500108
C41	C	1.122010	-0.185374	0.000098
C42	C	1.622010	0.314626	0.500098
C43	C	1.036370	-0.145968	0.000079
C44	C	1.536370	0.354032	0.500079
C45	C	1.037826	-0.073051	0.000086
C46	C	1.537826	0.426949	0.500086
N47	N	1.051706	-0.295160	0.060886
N48	N	1.551706	0.204840	0.560886
N49	N	1.050328	-0.364427	0.060882
N50	N	1.550328	0.135573	0.560882
C51	C	1.117616	-0.405067	0.000076
C52	C	1.617616	0.094933	0.500076
N53	N	1.186348	-0.373823	-0.060712
N54	N	1.686348	0.126177	0.439288
N55	N	1.187729	-0.304548	-0.060704
N56	N	1.687729	0.195452	0.439296
C57	C	1.120421	-0.264440	0.000091
C58	C	1.620421	0.235560	0.500091
C59	C	1.201676	-0.523532	0.000069
C60	C	1.701676	-0.023532	0.500069
C61	C	1.200219	-0.596451	0.000045
C62	C	1.700219	-0.096451	0.500045
C63	C	1.027487	-0.590560	0.000028
C64	C	1.527487	-0.090560	0.500028
C65	C	1.028947	-0.517642	0.000041
C66	C	1.528947	-0.017642	0.500041
C67	C	1.116043	-0.484132	0.000067
C68	C	1.616043	0.015868	0.500067
C69	C	1.292301	0.170943	0.000092
C70	C	1.792301	0.670943	0.500092
C71	C	1.397493	0.178872	0.000094
C72	C	1.897493	0.678872	0.500094
C73	C	1.111580	0.292433	0.000051
C74	C	1.611580	0.792433	0.500051
C75	C	1.113129	0.370037	0.000034
C76	C	1.613129	0.870037	0.500034
N77	N	1.103414	0.175766	0.254299
N78	N	1.603414	0.675766	0.754299
N79	N	1.134645	0.154724	-0.254143
N80	N	1.634645	0.654724	0.245857
C81	C	1.089995	0.184816	0.473411
C82	C	1.589995	0.684816	0.973411
C83	C	1.148061	0.145676	0.526752
C84	C	1.648061	0.645676	1.026752
C85	C	1.140595	0.150712	0.648673
C86	C	1.640595	0.650712	1.148673
C87	C	1.097461	0.179782	0.351478
C88	C	1.597461	0.679782	0.851478
H89	H	0.617011	0.082933	0.000094
H90	H	1.117011	0.582933	0.500094
O91	O	0.951692	-0.178414	0.000023
O92	O	1.451692	0.321586	0.500023
C93	C	0.780519	-0.164874	0.000062
C94	C	1.280519	0.335126	0.500062
C95	C	0.876354	-0.128042	0.000107
C96	C	1.376354	0.371958	0.500107
H97	H	0.719582	-0.124164	0.000152
H98	H	1.219582	0.375836	0.500152
H99	H	0.780051	-0.201929	-0.074719
H100	H	1.280051	0.298071	0.425281
H101	H	0.770976	-0.195801	0.074802
H102	H	1.270976	0.304199	0.574802
H103	H	0.885958	-0.097078	-0.074582
H104	H	1.385958	0.402922	0.425418
H105	H	0.876778	-0.091028	0.074937
H106	H	1.376778	0.408972	0.574937
O107	O	1.213863	0.101111	0.471837
O108	O	1.713863	0.601111	0.971837
C109	C	1.281085	0.055152	0.298482
C110	C	1.781085	0.555152	0.798482
C111	C	1.206653	0.105749	0.360543
C112	C	1.706653	0.605749	0.860543
H113	H	1.275269	0.058873	0.208490
H114	H	1.775269	0.558873	0.708490
H115	H	1.355790	0.069619	0.320273
H116	H	1.855790	0.569619	0.820273
H117	H	1.267255	-0.000538	0.320749
H118	H	1.767255	0.499462	0.820749
H119	H	1.220394	0.161455	0.338310
H120	H	1.720394	0.661455	0.838310
H121	H	1.131973	0.091222	0.338747
H122	H	1.631973	0.591222	0.838747
H123	H	1.281473	-0.051660	0.000142
H124	H	1.781473	0.448340	0.500142
H125	H	1.034680	0.222105	0.519305
H126	H	1.534680	0.722105	1.019305
O127	O	1.292367	-0.190031	0.000171
O128	O	1.792367	0.309969	0.500171
C129	C	1.463847	-0.188187	0.000145
C130	C	1.963847	0.311813	0.500145
C131	C	1.369617	-0.144873	0.000097
C132	C	1.869617	0.355127	0.500097
H133	H	1.526330	-0.151696	0.000062
H134	H	2.026330	0.348304	0.500062
H135	H	1.462945	-0.219368	0.074922
H136	H	1.962945	0.280632	0.574922
H137	H	1.472026	-0.225574	-0.074598
H138	H	1.972026	0.274426	0.425402
H139	H	1.361378	-0.107448	0.074790
H140	H	1.861378	0.392552	0.574790
H141	H	1.370561	-0.113739	-0.074729
H142	H	1.870561	0.386261	0.425271
H143	H	0.968095	-0.040973	0.000075
H144	H	1.468095	0.459027	0.500075
O145	O	0.627054	0.258005	-0.000164
O146	O	1.127054	0.758005	0.499836
C147	C	0.731105	0.335435	-0.092762
C148	C	1.231105	0.835435	0.407238
C149	C	0.689297	0.262211	-0.092629
C150	C	1.189297	0.762211	0.407371
H151	H	0.781452	0.338855	-0.167500
H152	H	1.281452	0.838855	0.332500
H153	H	0.670665	0.376528	-0.092845
H154	H	1.170665	0.876528	0.407155
H155	H	0.772201	0.345116	-0.017983
H156	H	1.272201	0.845116	0.482017
H157	H	0.648211	0.252463	-0.167395
H158	H	1.148211	0.752463	0.332605
H159	H	0.749778	0.221158	-0.092489
H160	H	1.249778	0.721158	0.407511
O161	O	1.286364	-0.491088	0.000028
O162	O	1.786364	0.008912	0.500028
C163	C	1.457530	-0.504624	0.000086
C164	C	1.957530	-0.004624	0.500086
C165	C	1.361691	-0.541453	0.000114
C166	C	1.861691	-0.041453	0.500114
H167	H	1.518456	-0.545326	0.000179
H168	H	2.018456	-0.045326	0.500179
H169	H	1.467182	-0.473739	-0.074688
H170	H	1.967182	0.026261	0.425312
H171	H	1.457894	-0.467530	0.074833
H172	H	1.957894	0.032470	0.574833
H173	H	1.361259	-0.578580	-0.074582
H174	H	1.861259	-0.078580	0.425418
H175	H	1.352077	-0.572293	0.074938
H176	H	1.852077	-0.072293	0.574938
H177	H	1.269952	-0.628529	0.000050
H178	H	1.769952	-0.128529	0.500050
O179	O	0.942968	-0.623218	0.000061
O180	O	1.442968	-0.123218	0.500061
C181	C	0.864176	-0.732943	-0.000039
C182	C	1.364176	-0.232943	0.499961
C183	C	0.959960	-0.696041	-0.000043
C184	C	1.459960	-0.196041	0.499957
H185	H	0.877882	-0.791826	-0.000145
H186	H	1.377882	-0.291826	0.499855
H187	H	0.817261	-0.714124	0.074734
H188	H	1.317261	-0.214124	0.574734
H189	H	0.826472	-0.720192	-0.074786
H190	H	1.326472	-0.220192	0.425214
H191	H	0.997744	-0.708775	0.074654
H192	H	1.497744	-0.208775	0.574654
H193	H	1.006805	-0.714863	-0.074865
H194	H	1.506805	-0.214863	0.425135
H195	H	0.959218	-0.485563	0.000036
H196	H	1.459218	0.014437	0.500036
