data_functionalizedCrystal
_audit_creation_method	'MofGen! by Chris Wilmer'
_symmetry_space_group_name_H-M	'P1'
_symmetry_Int_Tables_number	1
_symmetry_cell_setting	triclinic
loop_
_symmetry_equiv_pos_as_xyz
  x,y,z
_cell_length_a	10.654562
_cell_length_b	10.654550
_cell_length_c	9.130313
_cell_angle_alpha	89.998370
_cell_angle_beta	90.006034
_cell_angle_gamma	95.512497
loop_
_atom_site_label
_atom_site_type_symbol
_atom_site_fract_x
_atom_site_fract_y
_atom_site_fract_z
O1	O	1.667830	-0.176471	0.121892
O2	O	1.302353	-0.193261	0.121873
O3	O	1.493495	-0.002127	0.121877
O4	O	1.476689	-0.367605	0.121887
O5	O	1.493482	-0.002128	-0.121721
O6	O	1.302341	-0.193261	-0.121726
O7	O	1.667817	-0.176472	-0.121707
Cu8	Cu	1.485078	-0.184867	-0.143959
Cu9	Cu	1.485093	-0.184866	0.144125
O10	O	1.476676	-0.367606	-0.121711
C11	C	1.255549	-0.192025	0.000071
C12	C	1.116107	-0.188327	0.000064
C13	C	1.050569	-0.186602	-0.132710
C14	C	0.919547	-0.183137	-0.132686
C15	C	0.919611	-0.183127	0.132899
C16	C	1.050632	-0.186583	0.132873
C17	C	1.050531	-0.186613	-0.286044
C18	C	0.919508	-0.183148	-0.286019
C19	C	1.714621	-0.177708	0.000098
C20	C	1.854064	-0.181406	0.000115
C21	C	1.492254	0.044671	0.000080
C22	C	1.488563	0.184114	0.000085
C23	C	1.477916	-0.414403	0.000090
C24	C	1.481608	-0.553847	0.000094
N25	N	1.485076	-0.184867	-0.346582
C26	C	1.601103	0.263595	0.000086
C27	C	1.597627	0.394615	0.000096
C28	C	1.369059	0.366662	0.000097
C29	C	1.372537	0.235644	0.000098
C30	C	1.733066	0.279734	0.000079
C31	C	1.729589	0.410755	0.000089
C32	C	1.569751	-0.100253	-0.576570
C33	C	1.569740	-0.100261	-0.423233
C34	C	1.400426	-0.269479	-0.423275
C35	C	1.400443	-0.269476	-0.576609
C36	C	1.667499	-0.002553	-0.576544
C37	C	1.667489	-0.002561	-0.423207
N38	N	1.485104	-0.184856	0.346748
H39	H	1.096787	-0.099819	-0.344929
N40	N	1.089718	-0.307938	-0.349051
H41	H	1.012284	-0.364016	-0.379480
H42	H	1.145486	-0.288416	-0.437174
H43	H	1.331529	-0.338377	-0.639043
H44	H	1.758677	-0.033142	-0.375626
N45	N	1.801451	0.240834	0.135098
H46	H	1.803998	0.146317	0.135142
H47	H	1.890341	0.283384	0.135047
N48	N	1.121317	-0.188443	0.276081
H49	H	1.214254	-0.190896	0.255917
H50	H	1.107921	-0.110115	0.334062
H51	H	0.889918	-0.091554	-0.333601
N52	N	1.627096	0.118268	-0.639578
H53	H	1.697321	0.160413	-0.701834
H54	H	1.549320	0.098588	-0.701808
N55	N	0.858186	-0.298119	-0.363979
H56	H	0.880171	-0.376716	-0.311875
H57	H	0.763676	-0.295548	-0.363984
H58	H	1.646031	0.093972	-0.381599
H59	H	0.866285	-0.181708	0.241027
N60	N	1.243917	0.422233	0.000103
H61	H	1.237384	0.475966	0.090407
H62	H	1.237445	0.475910	-0.090257
H63	H	1.280895	0.170935	0.000117
N64	N	1.795354	-0.031029	-0.631621
H65	H	1.814430	-0.116540	-0.594776
H66	H	1.795347	-0.030960	-0.742237
N67	N	1.788599	0.232509	-0.139297
H68	H	1.812894	0.306060	-0.206630
H69	H	1.865846	0.188515	-0.115091
N70	N	1.782431	0.471224	0.139400
H71	H	1.777943	0.565383	0.134318
H72	H	1.731541	0.435647	0.225762
N73	N	1.795415	0.466106	-0.134938
H74	H	1.886021	0.445614	-0.135016
H75	H	1.751301	0.429140	-0.225228
N76	N	1.309117	-0.360743	-0.340610
H77	H	1.321951	-0.347911	-0.231837
H78	H	1.219903	-0.345402	-0.367433
