data_functionalizedCrystal
_audit_creation_method	'MofGen! by Chris Wilmer'
_symmetry_space_group_name_H-M	'P1'
_symmetry_Int_Tables_number	1
_symmetry_cell_setting	triclinic
loop_
_symmetry_equiv_pos_as_xyz
  x,y,z
_cell_length_a	15.995350
_cell_length_b	15.995343
_cell_length_c	14.185197
_cell_angle_alpha	75.226476
_cell_angle_beta	75.223458
_cell_angle_gamma	83.490780
loop_
_atom_site_label
_atom_site_type_symbol
_atom_site_fract_x
_atom_site_fract_y
_atom_site_fract_z
O1	O	1.094050	0.090987	0.083346
O2	O	0.850270	0.104310	0.083368
O3	O	0.978831	-0.024236	0.083338
O4	O	0.965489	0.219533	0.083376
O5	O	1.012715	0.009671	-0.083503
O6	O	0.884154	0.138216	-0.083473
O7	O	1.127934	0.124893	-0.083495
Cu8	Cu	1.009138	0.134651	-0.098718
Cu9	Cu	0.969066	0.094553	0.098591
O10	O	0.999373	0.253439	-0.083465
C11	C	0.836017	0.120712	-0.000050
C12	C	0.743065	0.119058	-0.000042
C13	C	0.995224	-0.038477	-0.000085
C14	C	0.993576	-0.131426	-0.000093
C15	C	0.990578	-0.301617	-0.000070
C16	C	0.897778	-0.324965	-0.000059
C17	C	0.895953	-0.421722	0.000331
C18	C	0.987625	-0.469181	-0.000048
C19	C	1.014975	-0.459405	0.095031
C20	C	1.016062	-0.362626	0.095099
C21	C	1.055954	-0.324171	-0.094637
C22	C	1.052780	-0.420415	-0.095876
C23	C	0.985960	-0.563883	-0.000033
C24	C	0.992244	-0.206917	-0.000079
C25	C	0.405322	0.113131	-0.000064
C26	C	0.452837	0.021657	-0.000451
C27	C	0.549449	0.023231	-0.000067
C28	C	0.572880	0.116071	-0.000054
C29	C	0.512442	0.141865	0.095224
C30	C	0.415791	0.139550	0.095296
C31	C	0.453985	0.180000	-0.094433
C32	C	0.551185	0.180232	-0.095685
C33	C	0.667576	0.117737	-0.000045
C34	C	0.310625	0.111466	-0.000067
C35	C	1.142187	0.108491	-0.000075
C36	C	1.235137	0.110143	-0.000076
C37	C	0.982980	0.267680	-0.000039
C38	C	0.984626	0.360628	-0.000025
N39	N	1.037328	0.162853	-0.237495
C40	C	0.858111	-0.016490	-0.605109
C41	C	0.879454	0.004867	-0.710135
C42	C	0.980996	0.106485	-0.710116
C43	C	0.959664	0.085133	-0.605088
C44	C	0.898221	0.023646	-0.552593
C45	C	0.999774	0.125270	-0.552572
C46	C	0.978441	0.103923	-0.447553
C47	C	0.916998	0.042440	-0.395050
C48	C	0.876888	0.002299	-0.447574
C49	C	1.061213	0.186761	-0.605069
C50	C	1.101323	0.226897	-0.552553
C51	C	1.079994	0.205546	-0.447532
C52	C	1.018552	0.144063	-0.395030
C53	C	1.120105	0.245687	-0.395009
C54	C	1.098772	0.224340	-0.289990
C55	C	0.997219	0.122717	-0.290011
N56	N	0.940882	0.066344	0.237368
H57	H	0.873258	-0.426899	-0.067806
N58	N	1.146677	-0.305346	-0.095877
H59	H	1.188394	-0.319959	-0.156793
H60	H	1.163235	-0.341516	-0.033129
N61	N	0.606324	0.155546	-0.189058
H62	H	0.642959	0.205321	-0.231355
H63	H	0.567702	0.141742	-0.228789
H64	H	1.081723	-0.491914	0.098294
H65	H	0.826859	-0.047774	-0.404829
H66	H	0.845678	-0.454088	0.068897
H67	H	1.120842	-0.452137	-0.101909
N68	N	1.186364	0.312012	-0.451633
H69	H	1.193788	0.319448	-0.526131
H70	H	1.243533	0.291776	-0.433288
N71	N	0.868468	-0.269531	-0.090365
H72	H	0.915055	-0.228741	-0.132161
H73	H	0.813526	-0.234972	-0.067347
N74	N	0.530946	0.081225	0.189134
H75	H	0.476823	0.050645	0.229989
H76	H	0.550010	0.115435	0.230078
N77	N	1.167594	0.293208	-0.609184
H78	H	1.224800	0.273007	-0.590913
H79	H	1.147290	0.350381	-0.590874
N80	N	1.047266	0.172801	-0.766732
H81	H	1.019662	0.222621	-0.810294
H82	H	1.097081	0.145156	-0.810255
H83	H	0.969635	-0.350335	0.166449
H84	H	1.083291	-0.348875	0.099145
H85	H	0.808082	-0.066563	-0.562364
H86	H	0.567715	0.249104	-0.101430
H87	H	1.131430	0.257027	-0.247230
N88	N	0.446227	0.159800	-0.190102
H89	H	0.383132	0.162580	-0.191446
H90	H	0.472486	0.099803	-0.193197
H91	H	1.041318	-0.281256	-0.166730
H92	H	0.968533	-0.493926	0.166066
N93	N	0.832588	-0.304908	0.090133
H94	H	0.862906	-0.280762	0.130984
H95	H	0.804107	-0.359684	0.132679
H96	H	0.422350	0.247629	-0.095068
N97	N	0.408621	-0.044900	0.089532
H98	H	0.387253	-0.091423	0.066259
H99	H	0.357973	-0.015994	0.130518
H100	H	1.033087	-0.424685	-0.166217
H101	H	0.899626	0.025065	-0.309537
N102	N	1.084191	0.209909	-0.718339
H103	H	1.030647	0.233817	-0.743567
H104	H	1.108158	0.156444	-0.743704
N105	N	0.930958	0.056387	-0.233379
H106	H	0.873746	0.076571	-0.251641
H107	H	0.923611	0.048986	-0.158901
N108	N	0.836192	-0.038418	-0.766790
H109	H	0.771561	-0.025647	-0.748508
H110	H	0.849063	-0.103029	-0.748512
N111	N	0.605479	-0.005401	-0.090539
H112	H	0.591711	-0.066115	-0.088073
H113	H	0.668468	-0.004380	-0.090417
N114	N	0.446693	-0.008426	-0.090962
H115	H	0.413047	0.036945	-0.132595
H116	H	0.416125	-0.064538	-0.068162
N117	N	0.567949	-0.042519	0.090547
H118	H	0.530189	-0.027743	0.153581
H119	H	0.630872	-0.041746	0.091085
N120	N	0.372382	0.076750	0.189614
H121	H	0.309292	0.074618	0.190603
H122	H	0.377234	0.096406	0.250169
N123	N	0.371883	0.227411	0.101014
H124	H	0.400850	0.272560	0.041126
H125	H	0.376568	0.241884	0.164684
N126	N	0.530195	0.231252	0.099949
H127	H	0.577701	0.255946	0.040229
H128	H	0.548874	0.227554	0.163807
