data_functionalizedCrystal
_audit_creation_method	'MofGen! by Chris Wilmer'
_symmetry_space_group_name_H-M	'P1'
_symmetry_Int_Tables_number	1
_symmetry_cell_setting	triclinic
loop_
_symmetry_equiv_pos_as_xyz
  x,y,z
_cell_length_a	19.077236
_cell_length_b	12.645330
_cell_length_c	19.076919
_cell_angle_alpha	92.274320
_cell_angle_beta	89.887323
_cell_angle_gamma	92.305532
loop_
_atom_site_label
_atom_site_type_symbol
_atom_site_fract_x
_atom_site_fract_y
_atom_site_fract_z
Zn1	Zn	1.058344	-0.384815	-0.440554
Zn2	Zn	1.063007	-0.554702	-0.323053
Zn3	Zn	0.945559	-0.384260	-0.318334
Zn4	Zn	0.940828	-0.568845	-0.435791
O5	O	1.001934	-0.473156	-0.379433
O6	O	1.157295	-0.401665	-0.428935
O7	O	1.051358	-0.525941	-0.224096
O8	O	0.960549	-0.235985	-0.334565
O9	O	1.160721	-0.526480	-0.342608
O10	O	1.043411	-0.236394	-0.424360
O11	O	0.965070	-0.400718	-0.220629
O12	O	0.846598	-0.414431	-0.329947
O13	O	0.952485	-0.550584	-0.534754
O14	O	0.843122	-0.550046	-0.416242
O15	O	1.038823	-0.415379	-0.538253
O16	O	1.046771	-0.704926	-0.337989
O17	O	0.957007	-0.715317	-0.420818
C18	C	0.819364	-0.483714	-0.372066
C19	C	0.741259	-0.488257	-0.368931
C20	C	0.702779	-0.425519	-0.412473
C21	C	0.629391	-0.429782	-0.409522
C22	C	0.594484	-0.496790	-0.363031
C23	C	0.632969	-0.559531	-0.319484
C24	C	0.706356	-0.555261	-0.322433
C25	C	0.375194	-0.516511	-0.349382
C26	C	0.301802	-0.520779	-0.346439
C27	C	0.298229	-0.391028	-0.436475
C28	C	0.371617	-0.386769	-0.439423
C29	C	0.410095	-0.449505	-0.395874
N30	N	0.519470	-0.501152	-0.360015
N31	N	0.485108	-0.445137	-0.398887
C32	C	1.001900	-0.748586	-0.379415
C33	C	1.001948	-0.866414	-0.379433
C34	C	1.058336	-1.027396	-0.327212
C35	C	1.058507	-0.904834	-0.327353
C36	C	1.019051	-0.914301	-0.454310
C37	C	1.019492	-1.036856	-0.454039
C38	C	0.928407	-1.036854	-0.357507
C39	C	0.928830	-0.914124	-0.355860
C40	C	1.185218	-0.462557	-0.386829
C41	C	1.263322	-0.458041	-0.389981
C42	C	0.994606	-0.484621	-0.562713
C43	C	0.991483	-0.489507	-0.640816
C44	C	1.001987	-0.196649	-0.379467
C45	C	1.002010	-0.078819	-0.379482
C46	C	1.034966	-0.421411	-0.679331
C47	C	1.032023	-0.425999	-0.752717
C48	C	0.985601	-0.498688	-0.787586
C49	C	0.942114	-0.566786	-0.749064
C50	C	0.945054	-0.562193	-0.675680
C51	C	0.971986	-0.519969	-1.006866
C52	C	0.969051	-0.524559	-1.080255
C53	C	1.058959	-0.383769	-1.083903
C54	C	1.061898	-0.379187	-1.010517
C55	C	1.018408	-0.447282	-0.972002
N56	N	0.982594	-0.503381	-0.862597
N57	N	1.021413	-0.442583	-0.896991
C58	C	1.009274	-0.461656	-0.196868
C59	C	1.012533	-0.456463	-0.118771
H60	H	0.400033	-0.332208	-0.477283
H61	H	1.067433	-0.370550	-0.784073
Br62	Br	0.577171	-0.344634	-0.468618
Br63	Br	0.246004	-0.305890	-0.495575
H64	H	0.604543	-0.614085	-0.281627
H65	H	0.912280	-1.065577	-0.303702
H66	H	0.884841	-0.888289	-0.390899
H67	H	1.099702	-0.319998	-0.982132
Br68	Br	0.254427	-0.611756	-0.283360
Br69	Br	0.952534	-0.873811	-0.521176
Br70	Br	0.758580	-0.640407	-0.263337
Br71	Br	1.117976	-0.291358	-1.136176
Br72	Br	0.907241	-0.861528	-0.263995
H73	H	1.048152	-0.872097	-0.271926
Br74	Br	0.953807	-1.094360	-0.521421
H75	H	1.048145	-1.054196	-0.271632
Br76	Br	0.750145	-0.334583	-0.475576
H77	H	0.886476	-1.070699	-0.395541
Br78	Br	0.427406	-0.601625	-0.290261
H79	H	1.072137	-0.881428	-0.472820
H80	H	1.112622	-1.055734	-0.341832
H81	H	0.909639	-0.617634	-0.644321
Br82	Br	1.149470	-0.851807	-0.351977
Br83	Br	0.906043	-0.623211	-1.127577
Br84	Br	1.109014	-1.080824	-0.484484
Br85	Br	0.879107	-0.665431	-0.796385
Br86	Br	1.097976	-0.322765	-0.632017
H87	H	0.936584	-0.575431	-0.975516
