data_functionalizedCrystal
_audit_creation_method	'MofGen! by Chris Wilmer'
_symmetry_space_group_name_H-M	'P1'
_symmetry_Int_Tables_number	1
_symmetry_cell_setting	triclinic
loop_
_symmetry_equiv_pos_as_xyz
  x,y,z
_cell_length_a	6.817900
_cell_length_b	11.102288
_cell_length_c	16.418042
_cell_angle_alpha	93.889468
_cell_angle_beta	103.389568
_cell_angle_gamma	108.605689
loop_
_atom_site_label
_atom_site_type_symbol
_atom_site_fract_x
_atom_site_fract_y
_atom_site_fract_z
V1	V	-4.051821	-0.176872	-0.261154
O2	O	-4.011990	0.007436	-0.256182
O3	O	-4.029007	-0.349685	-0.259368
O4	O	-4.002561	-0.174618	-0.375052
O5	O	-4.038619	-0.168843	-0.139697
V6	V	-4.532245	-0.154772	-0.246627
O7	O	-4.319877	-0.225351	-0.293020
O8	O	-4.714386	-0.106292	-0.214760
O9	O	-4.331853	0.018042	-0.248413
O10	O	-4.689473	-0.339080	-0.251598
O11	O	-4.662844	-0.162801	-0.368083
O12	O	-4.358299	-0.157026	-0.132728
C13	C	-3.880259	-0.391799	-0.255248
C14	C	-3.942887	-0.533079	-0.254547
C15	C	-4.155362	-0.605942	-0.258396
C16	C	-4.214199	-0.738691	-0.257744
C17	C	-3.848063	-0.725700	-0.249390
C18	C	-3.789232	-0.592955	-0.250048
C19	C	-3.846524	-0.168481	-0.402814
C20	C	-3.887701	-0.167782	-0.495926
C21	C	-4.165424	-0.172509	-0.714412
C22	C	-4.204093	-0.171841	-0.801899
C23	C	-3.837997	-0.159128	-0.793357
C24	C	-3.799326	-0.159787	-0.705870
C25	C	-3.963050	-0.166484	-0.666400
C26	C	-4.040390	-0.165157	-0.841375
C27	C	-4.082316	-0.164432	-0.936232
C28	C	-3.921121	-0.167207	-0.571536
C29	C	-4.143943	0.060149	-0.252530
C30	C	-4.060554	0.201427	-0.253237
C31	C	-4.177678	-0.163166	-0.104962
C32	C	-4.115739	-0.163860	-0.011849
H33	H	-3.722970	-0.774467	-0.245725
H34	H	-3.616205	-0.533628	-0.246916
H35	H	-4.298739	-0.177961	-0.682279
C36	C	-4.423993	-0.178656	-0.854011
C37	C	-4.579219	-0.292563	-0.846619
C38	C	-4.781817	-0.298892	-0.894621
H39	H	-4.456424	-0.106987	-0.833823
H40	H	-4.423704	-0.177373	-0.911785
H41	H	-4.579513	-0.293834	-0.788856
H42	H	-4.546859	-0.364251	-0.866812
H43	H	-4.781528	-0.297609	-0.952395
H44	H	-4.814225	-0.227218	-0.874428
H45	H	-4.887159	-0.376182	-0.889618
C46	C	-3.579802	-0.153510	-0.653678
C47	C	-3.601201	-0.263420	-0.614501
C48	C	-3.399038	-0.257694	-0.566416
H49	H	-3.487704	-0.149515	-0.689638
H50	H	-3.520260	-0.079068	-0.611660
H51	H	-3.660711	-0.337842	-0.656513
H52	H	-3.693260	-0.267436	-0.578526
H53	H	-3.339497	-0.183252	-0.524399
H54	H	-3.306956	-0.253697	-0.602383
H55	H	-3.413533	-0.332259	-0.539823
H56	H	-3.704707	-0.153678	-0.825504
H57	H	-4.280480	-0.557195	-0.262059
H58	H	-4.387212	-0.798012	-0.260880
