data_functionalizedCrystal
_audit_creation_method	'MofGen! by Chris Wilmer'
_symmetry_space_group_name_H-M	'P1'
_symmetry_Int_Tables_number	1
_symmetry_cell_setting	triclinic
loop_
_symmetry_equiv_pos_as_xyz
  x,y,z
_cell_length_a	10.540510
_cell_length_b	10.540539
_cell_length_c	13.596369
_cell_angle_alpha	89.996161
_cell_angle_beta	89.994444
_cell_angle_gamma	84.519401
loop_
_atom_site_label
_atom_site_type_symbol
_atom_site_fract_x
_atom_site_fract_y
_atom_site_fract_z
O1	O	1.685911	0.178723	-0.081793
O2	O	2.185911	0.678723	0.418207
O3	O	1.316493	0.195618	-0.081793
O4	O	1.816493	0.695618	0.418207
O5	O	1.509630	0.002463	-0.081791
O6	O	2.009630	0.502463	0.418209
O7	O	1.492774	0.371878	-0.081794
O8	O	1.992774	0.871878	0.418206
O9	O	1.509610	0.002452	0.081792
O10	O	2.009610	0.502452	0.581792
O11	O	1.316473	0.195607	0.081790
O12	O	1.816473	0.695607	0.581790
O13	O	1.685891	0.178712	0.081790
O14	O	2.185891	0.678712	0.581790
Zn15	Zn	1.501179	0.187158	0.107763
Zn16	Zn	2.001179	0.687158	0.607763
Zn17	Zn	1.501205	0.187172	-0.107765
Zn18	Zn	2.001205	0.687172	0.392235
O19	O	1.492754	0.371867	0.081789
O20	O	1.992754	0.871867	0.581789
C21	C	1.269179	0.194354	-0.000001
C22	C	1.769179	0.694354	0.499999
C23	C	1.128229	0.190587	-0.000001
C24	C	1.628229	0.690587	0.499999
C25	C	0.910774	0.324771	-0.000378
C26	C	1.410774	0.824771	0.499622
C27	C	1.057370	0.328789	-0.000004
C28	C	1.557370	0.828789	0.499996
C29	C	1.083459	0.119835	0.093411
C30	C	1.583459	0.619835	0.593411
C31	C	0.936697	0.116796	0.093483
C32	C	1.436697	0.616796	0.593483
C33	C	0.936914	0.113929	-0.092541
C34	C	1.436914	0.613929	0.407459
C35	C	1.083255	0.120485	-0.093770
C36	C	1.583255	0.620485	0.406230
C37	C	1.508356	-0.044845	-0.000002
C38	C	2.008356	0.455155	0.499998
C39	C	1.504574	-0.185793	-0.000007
C40	C	2.004574	0.314207	0.499993
C41	C	1.359655	-0.369204	-0.000374
C42	C	1.859655	0.130796	0.499626
C43	C	1.363489	-0.222587	-0.000006
C44	C	1.863489	0.277413	0.499994
C45	C	1.572459	-0.247464	0.093407
C46	C	2.072459	0.252536	0.593407
C47	C	1.567644	-0.394008	0.093486
C48	C	2.067644	0.105992	0.593486
C49	C	1.570536	-0.394514	-0.092539
C50	C	2.070536	0.105486	0.407461
C51	C	1.571835	-0.247533	-0.093774
C52	C	2.071835	0.252467	0.406226
C53	C	1.733204	0.179976	-0.000003
C54	C	2.233204	0.679976	0.499997
C55	C	1.874154	0.183743	-0.000009
C56	C	2.374154	0.683743	0.499991
C57	C	1.494028	0.419175	-0.000003
C58	C	1.994028	0.919175	0.499997
C59	C	1.497810	0.560123	-0.000004
C60	C	1.997810	1.060123	0.499996
N61	N	1.501171	0.187148	0.254854
N62	N	2.001171	0.687148	0.754854
N63	N	1.501223	0.187172	-0.254857
N64	N	2.001223	0.687172	0.245143
C65	C	1.501203	0.187173	0.656145
C66	C	2.001203	0.687173	1.156145
C67	C	1.501190	0.187170	0.544494
C68	C	2.001190	0.687170	1.044494
C69	C	1.501188	0.187162	0.455503
C70	C	2.001188	0.687162	0.955503
C71	C	1.501174	0.187157	0.343845
C72	C	2.001174	0.687157	0.843845
H73	H	1.111881	0.171963	-0.162876
H74	H	1.611881	0.671963	0.337124
H75	H	0.913702	0.013429	0.097727
H76	H	1.413702	0.513429	0.597727
O77	O	1.148228	-0.013177	-0.101245
O78	O	1.648228	0.486823	0.398755
H79	H	1.213877	-0.031816	-0.037958
H80	H	1.713877	0.468184	0.462042
O81	O	1.292231	-0.167275	0.088851
O82	O	1.792231	0.332725	0.588851
H83	H	1.211701	-0.098989	0.064448
H84	H	1.711701	0.401011	0.564448
H85	H	1.114305	0.168962	0.162927
H86	H	1.614305	0.668962	0.662927
O87	O	1.708093	-0.215472	-0.101246
O88	O	2.208093	0.284528	0.398754
H89	H	1.752709	-0.260499	-0.168181
H90	H	2.252709	0.239501	0.331819
O91	O	1.146251	-0.014925	0.098029
O92	O	1.646251	0.485075	0.598029
H93	H	1.120523	-0.067831	0.031490
H94	H	1.620523	0.432169	0.531490
O95	O	0.853143	0.395678	0.087857
O96	O	1.353143	0.895678	0.587857
H97	H	0.879569	0.495110	0.086882
H98	H	1.379569	0.995110	0.586882
O99	O	0.880724	0.171793	-0.186335
O100	O	1.380724	0.671793	0.313665
H101	H	0.807430	0.250966	-0.168043
H102	H	1.307430	0.750966	0.331957
H103	H	1.522164	-0.206665	-0.162879
H104	H	2.022164	0.293335	0.337121
H105	H	1.086723	0.384139	-0.066968
H106	H	1.586723	0.884139	0.433032
O107	O	1.285820	-0.407065	-0.089102
O108	O	1.785820	0.092935	0.410898
H109	H	1.199684	-0.451085	-0.064489
H110	H	1.699684	0.048915	0.435511
O111	O	0.907569	-0.023514	-0.093391
O112	O	1.407569	0.476486	0.406609
H113	H	0.848580	-0.042074	-0.028268
H114	H	1.348580	0.457926	0.471732
O115	O	1.292710	-0.166121	-0.088690
O116	O	1.792710	0.333879	0.411310
H117	H	1.255425	-0.243531	-0.132226
H118	H	1.755425	0.256469	0.367774
H119	H	0.896473	0.165139	0.163309
H120	H	1.396473	0.665139	0.663309
H121	H	1.304142	-0.399410	0.066239
H122	H	1.804142	0.100590	0.566239
O123	O	1.501154	-0.431376	0.185972
O124	O	2.001154	0.068624	0.685972
H125	H	1.472730	-0.344814	0.230218
H126	H	1.972730	0.155186	0.730218
H127	H	1.085765	0.384467	0.067070
H128	H	1.585765	0.884467	0.567070
H129	H	1.669110	-0.441987	0.097724
H130	H	2.169110	0.058013	0.597724
H131	H	1.676068	-0.225121	0.096880
H132	H	2.176068	0.274879	0.596880
O133	O	1.705526	-0.457069	-0.093378
O134	O	2.205526	0.042931	0.406622
H135	H	1.721643	-0.514331	-0.161520
H136	H	2.221643	-0.014331	0.338480
H137	H	0.868829	0.378617	-0.067370
H138	H	1.368829	0.878617	0.432630
H139	H	1.525286	-0.204864	0.162922
H140	H	2.025286	0.295136	0.662922
H141	H	1.524882	-0.426058	-0.163340
H142	H	2.024882	0.073942	0.336660
