data_functionalizedCrystal
_audit_creation_method	'MofGen! by Chris Wilmer'
_symmetry_space_group_name_H-M	'P1'
_symmetry_Int_Tables_number	1
_symmetry_cell_setting	triclinic
loop_
_symmetry_equiv_pos_as_xyz
  x,y,z
_cell_length_a	12.759401
_cell_length_b	21.295417
_cell_length_c	12.759393
_cell_angle_alpha	90.038095
_cell_angle_beta	90.019676
_cell_angle_gamma	90.030933
loop_
_atom_site_label
_atom_site_type_symbol
_atom_site_fract_x
_atom_site_fract_y
_atom_site_fract_z
Zn1	Zn	1.606151	-0.250572	0.593929
Zn2	Zn	1.605994	-0.355854	0.418226
Zn3	Zn	1.430450	-0.250603	0.418268
Zn4	Zn	1.430393	-0.355808	0.593867
O5	O	1.518247	-0.303209	0.506073
O6	O	1.753151	-0.264544	0.570630
O7	O	1.582665	-0.341924	0.271210
O8	O	1.453846	-0.162509	0.441614
O9	O	1.753035	-0.341894	0.441542
O10	O	1.582933	-0.162486	0.570671
O11	O	1.453694	-0.264597	0.271242
O12	O	1.283421	-0.264553	0.441553
O13	O	1.453750	-0.341815	0.740896
O14	O	1.283380	-0.341846	0.570565
O15	O	1.582878	-0.264499	0.740942
O16	O	1.582610	-0.443937	0.441482
O17	O	1.453597	-0.443903	0.570524
C18	C	1.245279	-0.303198	0.506058
C19	C	1.128503	-0.303209	0.506076
C20	C	1.073702	-0.263005	0.573396
C21	C	0.963978	-0.263012	0.573403
C22	C	0.963866	-0.343430	0.438767
C23	C	1.073588	-0.343420	0.438756
C24	C	0.814092	-0.188813	0.611188
C25	C	0.759287	-0.148615	0.678524
C26	C	0.794950	-0.139021	0.781065
C27	C	0.885416	-0.169634	0.816290
C28	C	0.940216	-0.209836	0.748959
C29	C	0.904554	-0.219419	0.646404
C30	C	1.223475	-0.417620	0.400982
C31	C	1.278276	-0.457826	0.333656
C32	C	1.242615	-0.467427	0.231113
C33	C	1.152146	-0.436825	0.195892
C34	C	1.097345	-0.396619	0.263218
C35	C	1.133013	-0.387017	0.365759
C36	C	1.518109	-0.466761	0.506014
C37	C	1.518146	-0.536729	0.506025
C38	C	1.585383	-0.569592	0.438901
C39	C	1.585432	-0.635335	0.438925
C40	C	1.518226	-0.668211	0.506061
C41	C	1.450985	-0.635340	0.573198
C42	C	1.450945	-0.569599	0.573180
N43	N	1.426319	-0.771477	0.514065
N44	N	1.426360	-0.833928	0.514076
C45	C	1.518344	-0.866286	0.506121
N46	N	1.610287	-0.833833	0.498134
N47	N	1.610245	-0.771376	0.498117
C48	C	1.518262	-0.739497	0.506089
C49	C	1.585639	-0.970435	0.439019
C50	C	1.585690	-1.036178	0.439050
C51	C	1.451233	-1.036183	0.573318
C52	C	1.451192	-0.970440	0.573293
C53	C	1.518393	-0.937570	0.506138
C54	C	1.792280	-0.303220	0.506088
C55	C	1.909057	-0.303225	0.506095
C56	C	1.518325	-0.303149	0.780106
C57	C	1.518359	-0.303123	0.896883
C58	C	1.518414	-0.139019	0.506154
C59	C	1.518485	-0.069051	0.506189
C60	C	1.518229	-0.303224	0.233105
C61	C	1.518399	-0.303072	0.116329
C62	C	1.585601	-0.262858	0.951770
C63	C	1.585619	-0.262831	1.061494
C64	C	1.451149	-0.343339	1.061434
C65	C	1.451127	-0.343363	0.951712
C66	C	1.623265	-0.188561	1.211488
C67	C	1.690524	-0.148301	1.266379
C68	C	1.793041	-0.138650	1.230788
C69	C	1.828321	-0.169267	1.140307
C70	C	1.761068	-0.209531	1.085421
C71	C	1.658536	-0.219171	1.121011
C72	C	1.413492	-0.417633	0.801716
C73	C	1.346243	-0.457901	0.746829
C74	C	1.243724	-0.467559	0.782418
C75	C	1.208448	-0.436953	0.872902
C76	C	1.275697	-0.396685	0.927790
C77	C	1.378215	-0.387026	0.892193
H78	H	0.685630	-0.123690	0.649834
H79	H	1.123106	-0.444645	0.112395
N80	N	1.382569	-1.069747	0.641897
N81	N	1.322532	-1.040393	0.701820
H82	H	1.274037	-1.064100	0.750259
H83	H	1.911804	-0.161409	1.111341
H84	H	1.640363	-0.943671	0.384341
H85	H	1.023679	-0.371701	0.234532
H86	H	1.396437	-0.943681	0.627947
H87	H	1.640449	-1.062935	0.384392
N88	N	1.382257	-0.536036	0.641758
N89	N	1.322262	-0.565394	0.701706
H90	H	1.273749	-0.541690	0.750140
H91	H	0.785054	-0.196614	0.527688
H92	H	1.124970	-0.444819	0.901883
H93	H	1.640188	-0.662097	0.384265
H94	H	1.789793	-0.234461	1.011757
N95	N	1.654250	-0.221741	0.895763
N96	N	1.617308	-0.181639	0.834557
H97	H	1.665790	-0.152596	0.795004
N98	N	0.921850	-0.159825	0.921033
N99	N	1.011112	-0.137475	0.936637
H100	H	1.036848	-0.130544	1.010612
N101	N	1.861734	-0.097528	1.286872
N102	N	1.830229	-0.070201	1.367656
H103	H	1.878738	-0.041156	1.407269
N104	N	0.738988	-0.097962	0.849866
N105	N	0.701772	-0.118580	0.933671
H106	H	0.662250	-0.089580	0.982259
H107	H	1.287225	-0.500184	0.176309
H108	H	1.246967	-0.371764	1.001468
H109	H	1.661790	-0.123373	1.340049
N110	N	0.907753	-0.384500	0.370011
N111	N	0.809788	-0.384504	0.370030
H112	H	0.770158	-0.413511	0.321471
H113	H	1.539785	-0.196411	1.240470
N114	N	1.370682	-0.489087	0.369651
N115	N	1.402520	-0.480508	0.461208
H116	H	1.467782	-0.502585	0.486631
N117	N	1.382483	-0.384436	1.117459
N118	N	1.382511	-0.384411	1.215424
H119	H	1.334015	-0.413437	1.254992
H120	H	1.396267	-0.662112	0.627862
N121	N	1.259930	-0.407809	0.505721
N122	N	1.340706	-0.435137	0.537155
H123	H	1.366457	-0.428208	0.611125
H124	H	1.640105	-0.542831	0.384222
N125	N	1.175047	-0.508700	0.726346
N126	N	1.206552	-0.536032	0.645566
H127	H	1.158048	-0.565086	0.605967
N128	N	1.518210	-0.407753	0.765350
N129	N	1.533755	-0.385419	0.676124
H130	H	1.607713	-0.378442	0.650440
N131	N	1.129781	-0.221927	0.642164
N132	N	1.080833	-0.186033	0.702264
H133	H	1.120435	-0.157018	0.750832
N134	N	1.032612	-0.241104	0.784947
N135	N	1.064442	-0.232538	0.876510
H136	H	1.129702	-0.254619	0.901929
H137	H	1.374978	-0.482828	0.673158
