data_functionalizedCrystal
_audit_creation_method	'MofGen! by Chris Wilmer'
_symmetry_space_group_name_H-M	'P1'
_symmetry_Int_Tables_number	1
_symmetry_cell_setting	triclinic
loop_
_symmetry_equiv_pos_as_xyz
  x,y,z
_cell_length_a	19.288856
_cell_length_b	18.366186
_cell_length_c	19.288857
_cell_angle_alpha	90.003709
_cell_angle_beta	96.867065
_cell_angle_gamma	89.991641
loop_
_atom_site_label
_atom_site_type_symbol
_atom_site_fract_x
_atom_site_fract_y
_atom_site_fract_z
O1	O	-0.921352	0.060586	0.086616
O2	O	-0.671352	0.310586	0.336616
O3	O	-0.421352	0.560586	0.586616
O4	O	-0.171352	0.810586	0.836616
O5	O	-0.719090	0.060581	0.098311
O6	O	-0.469090	0.310581	0.348311
O7	O	-0.219090	0.560581	0.598311
O8	O	0.030910	0.810581	0.848311
O9	O	-0.826068	0.060575	-0.008667
O10	O	-0.576068	0.310575	0.241333
O11	O	-0.326068	0.560575	0.491333
O12	O	-0.076068	0.810575	0.741333
O13	O	-0.814374	0.060592	0.193595
O14	O	-0.564374	0.310592	0.443595
O15	O	-0.314374	0.560592	0.693595
O16	O	-0.064374	0.810592	0.943595
O17	O	-0.826054	-0.060524	-0.008663
O18	O	-0.576054	0.189476	0.241337
O19	O	-0.326054	0.439476	0.491337
O20	O	-0.076054	0.689476	0.741337
O21	O	-0.719076	-0.060518	0.098315
O22	O	-0.469076	0.189482	0.348315
O23	O	-0.219076	0.439482	0.598315
O24	O	0.030924	0.689482	0.848315
O25	O	-0.921338	-0.060513	0.086620
O26	O	-0.671338	0.189487	0.336620
O27	O	-0.421338	0.439487	0.586620
O28	O	-0.171338	0.689487	0.836620
Zn29	Zn	-0.820205	-0.079743	0.092468
Zn30	Zn	-0.570205	0.170257	0.342468
Zn31	Zn	-0.320205	0.420257	0.592468
Zn32	Zn	-0.070205	0.670257	0.842468
Zn33	Zn	-0.820223	0.079811	0.092463
Zn34	Zn	-0.570223	0.329811	0.342463
Zn35	Zn	-0.320223	0.579811	0.592463
Zn36	Zn	-0.070223	0.829811	0.842463
O37	O	-0.814360	-0.060507	0.193598
O38	O	-0.564360	0.189493	0.443598
O39	O	-0.314360	0.439493	0.693598
O40	O	-0.064360	0.689493	0.943598
C41	C	-0.693207	0.000030	0.097938
C42	C	-0.443207	0.250030	0.347938
C43	C	-0.193207	0.500030	0.597938
C44	C	0.056793	0.750030	0.847938
C45	C	-0.616103	0.000028	0.096811
C46	C	-0.366103	0.250028	0.346811
C47	C	-0.116103	0.500028	0.596811
C48	C	0.133897	0.750028	0.846811
C49	C	-0.052060	0.000022	0.151959
C50	C	0.197940	0.250022	0.401959
C51	C	0.447940	0.500022	0.651959
C52	C	0.697940	0.750022	0.901959
C53	C	-0.124507	0.000028	0.153024
C54	C	0.125493	0.250028	0.403024
C55	C	0.375493	0.500028	0.653024
C56	C	0.625493	0.750028	0.903024
C57	C	-0.169215	0.000022	0.090254
C58	C	0.080785	0.250022	0.340254
C59	C	0.330785	0.500022	0.590254
C60	C	0.580785	0.750022	0.840254
C61	C	-0.141472	0.000029	0.026415
C62	C	0.108528	0.250029	0.276415
C63	C	0.358528	0.500029	0.526415
C64	C	0.608528	0.750029	0.776415
C65	C	-0.069026	0.000031	0.025352
C66	C	0.180974	0.250031	0.275352
C67	C	0.430974	0.500031	0.525352
C68	C	0.680974	0.750031	0.775352
C69	C	-0.290482	-0.042409	0.043441
C70	C	-0.040482	0.207591	0.293441
C71	C	0.209518	0.457591	0.543441
C72	C	0.459518	0.707591	0.793441
C73	C	-0.362926	-0.042415	0.044507
C74	C	-0.112926	0.207585	0.294507
C75	C	0.137074	0.457585	0.544507
C76	C	0.387074	0.707585	0.794507
C77	C	-0.392661	0.000019	0.093530
C78	C	-0.142661	0.250019	0.343530
C79	C	0.107339	0.500019	0.593530
C80	C	0.357339	0.750019	0.843530
C81	C	-0.349942	0.042451	0.141499
C82	C	-0.099942	0.292451	0.391499
C83	C	0.150058	0.542451	0.641499
C84	C	0.400058	0.792451	0.891499
C85	C	-0.277497	0.042453	0.140436
C86	C	-0.027497	0.292453	0.390436
C87	C	0.222503	0.542453	0.640436
C88	C	0.472503	0.792453	0.890436
C89	C	-0.247771	0.000020	0.091400
C90	C	0.002229	0.250020	0.341400
C91	C	0.252229	0.500020	0.591400
C92	C	0.502229	0.750020	0.841400
C93	C	-0.498951	0.000023	0.158520
C94	C	-0.248951	0.250023	0.408520
C95	C	0.001049	0.500023	0.658520
C96	C	0.251049	0.750023	0.908520
C97	C	-0.571399	0.000033	0.159582
C98	C	-0.321399	0.250033	0.409582
C99	C	-0.071399	0.500033	0.659582
C100	C	0.178601	0.750033	0.909582
C101	C	-0.588363	0.000027	0.032971
C102	C	-0.338363	0.250027	0.282971
C103	C	-0.088363	0.500027	0.532971
C104	C	0.161637	0.750027	0.782971
C105	C	-0.515916	0.000024	0.031910
C106	C	-0.265916	0.250024	0.281910
C107	C	-0.015916	0.500024	0.531910
C108	C	0.234084	0.750024	0.781910
C109	C	-0.471214	0.000019	0.094687
C110	C	-0.221214	0.250019	0.344687
C111	C	0.028786	0.500019	0.594687
C112	C	0.278786	0.750019	0.844687
N113	N	-0.820198	-0.188634	0.092471
N114	N	-0.570198	0.061366	0.342471
N115	N	-0.320198	0.311366	0.592471
N116	N	-0.070198	0.561366	0.842471
C117	C	-0.862228	-0.773179	0.134468
C118	C	-0.612228	-0.523179	0.384468
C119	C	-0.362228	-0.273179	0.634468
C120	C	-0.112228	-0.023179	0.884468
C121	C	-0.862221	-0.696951	0.134474
C122	C	-0.612221	-0.446951	0.384474
C123	C	-0.362221	-0.196951	0.634474
C124	C	-0.112221	0.053049	0.884474
C125	C	-0.820230	-0.658845	0.092455
C126	C	-0.570230	-0.408845	0.342455
C127	C	-0.320230	-0.158845	0.592455
C128	C	-0.070230	0.091155	0.842455
C129	C	-0.778230	-0.696974	0.050440
C130	C	-0.528230	-0.446974	0.300440
C131	C	-0.278230	-0.196974	0.550440
C132	C	-0.028230	0.053026	0.800440
C133	C	-0.778233	-0.773200	0.050440
C134	C	-0.528233	-0.523200	0.300440
C135	C	-0.278233	-0.273200	0.550440
C136	C	-0.028233	-0.023200	0.800440
C137	C	-0.818505	-0.538085	0.029831
C138	C	-0.568505	-0.288085	0.279831
C139	C	-0.318505	-0.038085	0.529831
C140	C	-0.068505	0.211915	0.779831
C141	C	-0.818506	-0.461860	0.029830
C142	C	-0.568506	-0.211860	0.279830
C143	C	-0.318506	0.038140	0.529830
C144	C	-0.068506	0.288140	0.779830
C145	C	-0.820216	-0.423738	0.092457
C146	C	-0.570216	-0.173738	0.342457
C147	C	-0.320216	0.076262	0.592457
C148	C	-0.070216	0.326262	0.842457
C149	C	-0.821938	-0.461850	0.155087
C150	C	-0.571938	-0.211850	0.405087
C151	C	-0.321938	0.038150	0.655087
C152	C	-0.071938	0.288150	0.905087
C153	C	-0.821941	-0.538077	0.155087
C154	C	-0.571941	-0.288077	0.405087
C155	C	-0.321941	-0.038077	0.655087
C156	C	-0.071941	0.211923	0.905087
C157	C	-0.820221	-0.576191	0.092452
C158	C	-0.570221	-0.326191	0.342452
C159	C	-0.320221	-0.076191	0.592452
C160	C	-0.070221	0.173809	0.842452
C161	C	-0.862202	-0.302963	0.134481
C162	C	-0.612202	-0.052963	0.384481
C163	C	-0.362202	0.197037	0.634481
C164	C	-0.112202	0.447037	0.884481
C165	C	-0.862190	-0.226734	0.134489
C166	C	-0.612190	0.023266	0.384489
C167	C	-0.362190	0.273266	0.634489
C168	C	-0.112190	0.523266	0.884489
C169	C	-0.778203	-0.226759	0.050449
C170	C	-0.528203	0.023241	0.300449
C171	C	-0.278203	0.273241	0.550449
C172	C	-0.028203	0.523241	0.800449
C173	C	-0.778211	-0.302987	0.050447
C174	C	-0.528211	-0.052987	0.300447
C175	C	-0.278211	0.197013	0.550447
C176	C	-0.028211	0.447013	0.800447
C177	C	-0.820214	-0.341084	0.092462
C178	C	-0.570214	-0.091084	0.342462
C179	C	-0.320214	0.158916	0.592462
C180	C	-0.070214	0.408916	0.842462
C181	C	0.052779	0.000034	0.086996
C182	C	0.302779	0.250034	0.336996
C183	C	0.552779	0.500034	0.586996
C184	C	0.802779	0.750034	0.836996
C185	C	-0.024324	0.000026	0.088129
C186	C	0.225676	0.250026	0.338129
C187	C	0.475676	0.500026	0.588129
C188	C	0.725676	0.750026	0.838129
C189	C	-0.825686	0.000025	-0.034542
C190	C	-0.575686	0.250025	0.215458
C191	C	-0.325686	0.500025	0.465458
C192	C	-0.075686	0.750025	0.715458
C193	C	-0.824559	0.000023	-0.111646
C194	C	-0.574559	0.250023	0.138354
C195	C	-0.324559	0.500023	0.388354
C196	C	-0.074559	0.750023	0.638354
N197	N	-0.820236	0.188702	0.092455
N198	N	-0.570236	0.438702	0.342455
N199	N	-0.320236	0.688702	0.592455
N200	N	-0.070236	0.938702	0.842455
C201	C	-0.824041	0.066034	-0.147858
C202	C	-0.574041	0.316034	0.102142
C203	C	-0.324041	0.566034	0.352142
C204	C	-0.074041	0.816034	0.602142
C205	C	-0.822972	0.066039	-0.220304
C206	C	-0.572972	0.316039	0.029696
C207	C	-0.322972	0.566039	0.279696
C208	C	-0.072972	0.816039	0.529696
C209	C	-0.822436	0.000030	-0.256537
C210	C	-0.572436	0.250030	-0.006537
C211	C	-0.322436	0.500030	0.243463
C212	C	-0.072436	0.750030	0.493463
C213	C	-0.822950	-0.065991	-0.220315
C214	C	-0.572950	0.184009	0.029685
C215	C	-0.322950	0.434009	0.279685
C216	C	-0.072950	0.684009	0.529685
C217	C	-0.824012	-0.065994	-0.147869
C218	C	-0.574012	0.184006	0.102131
C219	C	-0.324012	0.434006	0.352131
C220	C	-0.074012	0.684006	0.602131
C221	C	-0.861432	-0.050537	-0.376768
C222	C	-0.611432	0.199463	-0.126768
C223	C	-0.361432	0.449463	0.123232
C224	C	-0.111432	0.699463	0.373232
C225	C	-0.860374	-0.050531	-0.449213
C226	C	-0.610374	0.199469	-0.199213
C227	C	-0.360374	0.449469	0.050787
C228	C	-0.110374	0.699469	0.300787
C229	C	-0.819158	0.000038	-0.479982
C230	C	-0.569158	0.250038	-0.229982
C231	C	-0.319158	0.500038	0.020018
C232	C	-0.069158	0.750038	0.270018
C233	C	-0.779008	0.050612	-0.438300
C234	C	-0.529008	0.300612	-0.188300
C235	C	-0.279008	0.550612	0.061700
C236	C	-0.029008	0.800612	0.311700
C237	C	-0.780070	0.050608	-0.365854
C238	C	-0.530070	0.300608	-0.115854
C239	C	-0.280070	0.550608	0.134146
C240	C	-0.030070	0.800608	0.384146
C241	C	-0.821284	0.000026	-0.335092
C242	C	-0.571284	0.250026	-0.085092
C243	C	-0.321284	0.500026	0.164908
C244	C	-0.071284	0.750026	0.414908
C245	C	-0.817480	0.066059	-0.594749
C246	C	-0.567480	0.316059	-0.344749
C247	C	-0.317480	0.566059	-0.094749
C248	C	-0.067480	0.816059	0.155251
C249	C	-0.816407	0.066062	-0.667196
C250	C	-0.566407	0.316062	-0.417196
C251	C	-0.316407	0.566062	-0.167196
C252	C	-0.066407	0.816062	0.082804
C253	C	-0.816392	-0.065970	-0.667206
C254	C	-0.566392	0.184030	-0.417206
C255	C	-0.316392	0.434030	-0.167206
C256	C	-0.066392	0.684030	0.082794
C257	C	-0.817458	-0.065970	-0.594760
C258	C	-0.567458	0.184030	-0.344760
C259	C	-0.317458	0.434030	-0.094760
C260	C	-0.067458	0.684030	0.155240
C261	C	-0.818005	0.000046	-0.558536
C262	C	-0.568005	0.250046	-0.308536
C263	C	-0.318005	0.500046	-0.058536
C264	C	-0.068005	0.750046	0.191464
C265	C	-0.814742	0.000045	0.219473
C266	C	-0.564742	0.250045	0.469473
C267	C	-0.314742	0.500045	0.719473
C268	C	-0.064742	0.750045	0.969473
C269	C	-0.815869	0.000052	0.296577
C270	C	-0.565869	0.250052	0.546577
C271	C	-0.315869	0.500052	0.796577
C272	C	-0.065869	0.750052	1.046577
H273	H	-0.624764	0.000028	-0.018138
H274	H	-0.374764	0.250028	0.231862
H275	H	-0.124764	0.500028	0.481862
H276	H	0.125236	0.750028	0.731862
H277	H	-0.374151	0.077003	0.181420
H278	H	-0.124151	0.327003	0.431420
H279	H	0.125849	0.577003	0.681420
H280	H	0.375849	0.827003	0.931420
H281	H	-0.896414	-0.665908	0.168689
H282	H	-0.646414	-0.415908	0.418689
H283	H	-0.396414	-0.165908	0.668689
H284	H	-0.146414	0.084092	0.918689
H285	H	-0.817921	0.119814	-0.565254
H286	H	-0.567921	0.369814	-0.315254
H287	H	-0.317921	0.619814	-0.065254
H288	H	-0.067921	0.869814	0.184746
H289	H	-0.397702	-0.076969	0.005451
H290	H	-0.147702	0.173031	0.255451
H291	H	0.102298	0.423031	0.505451
H292	H	0.352298	0.673031	0.755451
Cl293	Cl	-0.915002	-0.350861	0.187302
Cl294	Cl	-0.665002	-0.100861	0.437302
Cl295	Cl	-0.415002	0.149139	0.687302
Cl296	Cl	-0.165002	0.399139	0.937302
Cl297	Cl	-0.253113	-0.095718	-0.018228
Cl298	Cl	-0.003113	0.154282	0.231772
Cl299	Cl	0.246887	0.404282	0.481772
Cl300	Cl	0.496887	0.654282	0.731772
H301	H	-0.823330	-0.430813	0.206084
H302	H	-0.573330	-0.180813	0.456084
H303	H	-0.323330	0.069187	0.706084
H304	H	-0.073330	0.319187	0.956084
H305	H	-0.745446	0.091790	-0.463350
H306	H	-0.495446	0.341790	-0.213350
H307	H	-0.245446	0.591790	0.036650
H308	H	0.004554	0.841790	0.286650
H309	H	-0.817886	-0.119724	-0.565276
H310	H	-0.567886	0.130276	-0.315276
H311	H	-0.317886	0.380276	-0.065276
H312	H	-0.067886	0.630276	0.184724
H313	H	-0.822512	-0.119736	-0.249820
H314	H	-0.572512	0.130264	0.000180
H315	H	-0.322512	0.380264	0.250180
H316	H	-0.072512	0.630264	0.500180
Cl317	Cl	-0.729595	0.114181	-0.313455
Cl318	Cl	-0.479595	0.364181	-0.063455
Cl319	Cl	-0.229595	0.614181	0.186545
Cl320	Cl	0.020405	0.864181	0.436545
H321	H	-0.896383	-0.195699	0.168706
H322	H	-0.646383	0.054301	0.418706
H323	H	-0.396383	0.304301	0.668706
H324	H	-0.146383	0.554301	0.918706
Cl325	Cl	-0.197676	0.000025	-0.052496
Cl326	Cl	0.052324	0.250025	0.197504
Cl327	Cl	0.302324	0.500025	0.447504
Cl328	Cl	0.552324	0.750025	0.697504
H329	H	-0.822546	0.119795	-0.249794
H330	H	-0.572546	0.369795	0.000206
H331	H	-0.322546	0.619795	0.250206
H332	H	-0.072546	0.869795	0.500206
Cl333	Cl	-0.159383	0.000021	0.233275
Cl334	Cl	0.090617	0.250021	0.483275
Cl335	Cl	0.340617	0.500021	0.733275
Cl336	Cl	0.590617	0.750021	0.983275
H337	H	-0.824484	0.119790	-0.118369
H338	H	-0.574484	0.369790	0.131631
H339	H	-0.324484	0.619790	0.381631
H340	H	-0.074484	0.869790	0.631631
Cl341	Cl	-0.725421	-0.350911	-0.002376
Cl342	Cl	-0.475421	-0.100911	0.247624
Cl343	Cl	-0.225421	0.149089	0.497624
Cl344	Cl	0.024579	0.399089	0.747624
H345	H	-0.823342	-0.569105	0.206082
H346	H	-0.573342	-0.319105	0.456082
H347	H	-0.323342	-0.069105	0.706082
H348	H	-0.073342	0.180895	0.956082
Cl349	Cl	-0.913270	-0.114099	-0.338097
Cl350	Cl	-0.663270	0.135901	-0.088097
Cl351	Cl	-0.413270	0.385901	0.161903
Cl352	Cl	-0.163270	0.635901	0.411903
H353	H	-0.815950	-0.119716	-0.696705
H354	H	-0.565950	0.130284	-0.446705
H355	H	-0.315950	0.380284	-0.196705
H356	H	-0.065950	0.630284	0.053295
H357	H	-0.046446	0.000034	-0.026628
H358	H	0.203554	0.250034	0.223372
H359	H	0.453554	0.500034	0.473372
H360	H	0.703554	0.750034	0.723372
Cl361	Cl	-0.824663	-0.148987	-0.102342
Cl362	Cl	-0.574663	0.101013	0.147658
Cl363	Cl	-0.324663	0.351013	0.397658
Cl364	Cl	-0.074663	0.601013	0.647658
Cl365	Cl	-0.725408	-0.178862	-0.002370
Cl366	Cl	-0.475408	0.071138	0.247630
Cl367	Cl	-0.225408	0.321138	0.497630
Cl368	Cl	0.024592	0.571138	0.747630
H369	H	-0.815981	0.119819	-0.696678
H370	H	-0.565981	0.369819	-0.446678
H371	H	-0.315981	0.619819	-0.196678
H372	H	-0.065981	0.869819	0.053322
H373	H	-0.817109	-0.430834	-0.021167
H374	H	-0.567109	-0.180834	0.228833
H375	H	-0.317109	0.069166	0.478833
H376	H	-0.067109	0.319166	0.728833
H377	H	-0.893069	-0.091709	-0.483146
H378	H	-0.643069	0.158291	-0.233146
H379	H	-0.393069	0.408291	0.016854
H380	H	-0.143069	0.658291	0.266854
H381	H	-0.817106	-0.569117	-0.021171
H382	H	-0.567106	-0.319117	0.228829
H383	H	-0.317106	-0.069117	0.478829
H384	H	-0.067106	0.180883	0.728829
Cl385	Cl	0.004133	0.000025	0.230878
Cl386	Cl	0.254133	0.250025	0.480878
Cl387	Cl	0.504133	0.500025	0.730878
Cl388	Cl	0.754133	0.750025	0.980878
H389	H	-0.744039	-0.665944	0.016230
H390	H	-0.494039	-0.415944	0.266230
H391	H	-0.244039	-0.165944	0.516230
H392	H	0.005961	0.084056	0.766230
H393	H	-0.744037	-0.804237	0.016227
H394	H	-0.494037	-0.554237	0.266227
H395	H	-0.244037	-0.304237	0.516227
H396	H	0.005963	-0.054237	0.766227
H397	H	-0.493334	0.000023	-0.020068
H398	H	-0.243334	0.250023	0.229932
H399	H	0.006666	0.500023	0.479932
H400	H	0.256666	0.750023	0.729932
H401	H	-0.242718	0.077003	0.179493
H402	H	0.007282	0.327003	0.429493
H403	H	0.257282	0.577003	0.679493
H404	H	0.507282	0.827003	0.929493
H405	H	-0.896429	-0.804193	0.168681
H406	H	-0.646429	-0.554193	0.418681
H407	H	-0.396429	-0.304193	0.668681
H408	H	-0.146429	-0.054193	0.918681
H409	H	-0.593979	0.000036	0.211563
H410	H	-0.343979	0.250036	0.461563
H411	H	-0.093979	0.500036	0.711563
H412	H	0.156021	0.750036	0.961563
Cl413	Cl	-0.442751	0.000019	0.237437
Cl414	Cl	-0.192751	0.250019	0.487437
Cl415	Cl	0.057249	0.500019	0.737437
Cl416	Cl	0.307249	0.750019	0.987437
