data_functionalizedCrystal
_audit_creation_method	'MofGen! by Chris Wilmer'
_symmetry_space_group_name_H-M	'P1'
_symmetry_Int_Tables_number	1
_symmetry_cell_setting	triclinic
loop_
_symmetry_equiv_pos_as_xyz
  x,y,z
_cell_length_a	16.625548
_cell_length_b	19.077068
_cell_length_c	19.077271
_cell_angle_alpha	85.514665
_cell_angle_beta	87.708466
_cell_angle_gamma	92.328114
loop_
_atom_site_label
_atom_site_type_symbol
_atom_site_fract_x
_atom_site_fract_y
_atom_site_fract_z
Zn1	Zn	1.200011	-0.296772	0.409854
Zn2	Zn	1.700011	0.203228	0.909854
Zn3	Zn	1.199937	-0.409895	0.296697
Zn4	Zn	1.699937	0.090105	0.796697
Zn5	Zn	1.070851	-0.292027	0.291982
Zn6	Zn	1.570851	0.207973	0.791982
Zn7	Zn	1.059490	-0.414625	0.414542
Zn8	Zn	1.559490	0.085375	0.914542
O9	O	1.132572	-0.353330	0.353269
O10	O	1.632572	0.146670	0.853269
O11	O	1.312833	-0.311784	0.394854
O12	O	1.812833	0.188216	0.894854
O13	O	1.187537	-0.390294	0.197424
O14	O	1.687537	0.109706	0.697424
O15	O	1.092769	-0.194006	0.303683
O16	O	1.592769	0.305994	0.803683
O17	O	1.312778	-0.394895	0.311718
O18	O	1.812778	0.105105	0.811718
O19	O	1.187663	-0.197492	0.390282
O20	O	1.687663	0.302508	0.890282
O21	O	1.092697	-0.303697	0.193960
O22	O	1.592697	0.196303	0.693960
O23	O	0.956512	-0.308284	0.308229
O24	O	1.456512	0.191716	0.808229
O25	O	1.073408	-0.402957	0.512568
O26	O	1.573408	0.097043	1.012568
O27	O	0.948166	-0.398356	0.398273
O28	O	1.448166	0.101644	0.898273
O29	O	1.176648	-0.316370	0.509123
O30	O	1.676648	0.183630	1.009123
O31	O	1.176521	-0.509173	0.316264
O32	O	1.676521	-0.009173	0.816264
O33	O	1.073336	-0.512648	0.402845
O34	O	1.573336	-0.012648	0.902845
C35	C	1.123709	-0.536490	0.360590
C36	C	1.623709	-0.036490	0.860590
C37	C	1.119989	-0.614848	0.363746
C38	C	1.619989	-0.114848	0.863746
C39	C	0.923083	-0.353319	0.353249
C40	C	1.423083	0.146681	0.853249
C41	C	0.833461	-0.353332	0.353257
C42	C	1.333461	0.146668	0.853257
C43	C	1.172003	-0.649829	0.320188
C44	C	1.672003	-0.149829	0.820188
C45	C	1.168510	-0.723455	0.323161
C46	C	1.668510	-0.223455	0.823161
C47	C	1.112998	-0.762098	0.369688
C48	C	1.612998	-0.262098	0.869688
C49	C	1.060981	-0.727111	0.413250
C50	C	1.560981	-0.227111	0.913250
C51	C	1.064479	-0.653487	0.410281
C52	C	1.564479	-0.153487	0.910281
C53	C	1.096774	-0.982487	0.383401
C54	C	1.596774	-0.482487	0.883401
C55	C	1.093279	-1.056117	0.386366
C56	C	1.593279	-0.556117	0.886366
C57	C	1.200809	-1.052455	0.296277
C58	C	1.700809	-0.552455	0.796277
C59	C	1.204298	-0.978829	0.293309
C60	C	1.704298	-0.478829	0.793309
C61	C	1.152285	-0.943850	0.336874
C62	C	1.652285	-0.443850	0.836874
N63	N	1.109424	-0.837355	0.372725
N64	N	1.609424	-0.337355	0.872725
N65	N	1.155864	-0.868594	0.333839
N66	N	1.655864	-0.368594	0.833839
C67	C	0.505283	-0.353338	0.353288
C68	C	1.005283	0.146662	0.853288
C69	C	0.596593	-0.353334	0.353277
C70	C	1.096593	0.146666	0.853277
C71	C	0.669369	-0.353335	0.353272
C72	C	1.169369	0.146665	0.853272
C73	C	0.760684	-0.353331	0.353262
C74	C	1.260684	0.146669	0.853262
C75	C	1.342880	-0.353341	0.353289
C76	C	1.842880	0.146659	0.853289
C77	C	1.432500	-0.353346	0.353298
C78	C	1.932500	0.146654	0.853298
C79	C	1.123769	-0.360720	0.537139
C80	C	1.623769	0.139280	1.037139
C81	C	1.120017	-0.363870	0.615494
C82	C	1.620017	0.136130	1.115494
C83	C	1.141492	-0.169455	0.345934
C84	C	1.641492	0.330545	0.845934
C85	C	1.145293	-0.091098	0.342808
C86	C	1.645293	0.408902	0.842808
C87	C	1.172003	-0.320271	0.650513
C88	C	1.672003	0.179729	1.150513
C89	C	1.168469	-0.323227	0.724135
C90	C	1.668469	0.176773	1.224135
C91	C	1.112951	-0.369787	0.762738
C92	C	1.612951	0.130213	1.262738
C93	C	1.060959	-0.413388	0.727713
C94	C	1.560959	0.086612	1.227713
C95	C	1.064490	-0.410428	0.654092
C96	C	1.564490	0.089572	1.154092
C97	C	1.096622	-0.383473	0.983114
C98	C	1.596622	0.116527	1.483114
C99	C	1.093096	-0.386432	1.056740
C100	C	1.593096	0.113568	1.556740
C101	C	1.200605	-0.296269	1.053157
C102	C	1.700605	0.203731	1.553157
C103	C	1.204135	-0.293316	0.979535
C104	C	1.704135	0.206684	1.479535
C105	C	1.152140	-0.336914	0.944517
C106	C	1.652140	0.163086	1.444517
N107	N	1.109338	-0.372812	0.837992
N108	N	1.609338	0.127188	1.337992
N109	N	1.155749	-0.333885	0.869264
N110	N	1.655749	0.166115	1.369264
C111	C	1.141334	-0.345983	1.170114
C112	C	1.641334	0.154017	1.670114
C113	C	1.145082	-0.342832	1.091759
C114	C	1.645082	0.157168	1.591759
H115	H	1.210865	-0.751933	0.287691
H116	H	1.710865	-0.251933	0.787691
H117	H	1.243156	-1.080944	0.260810
H118	H	1.743156	-0.580944	0.760810
H119	H	1.048083	-1.087578	0.424266
H120	H	1.548083	-0.587578	0.924266
H121	H	1.210803	-0.287726	0.752645
H122	H	1.710803	0.212274	1.252645
C123	C	1.039414	-0.431415	0.944603
C124	C	1.539414	0.068585	1.444603
H125	H	1.005846	-0.459566	0.978139
H126	H	1.505846	0.040434	1.478139
H127	H	1.006974	-0.403275	0.914812
H128	H	1.506974	0.096725	1.414812
H129	H	1.070128	-0.460987	0.917103
H130	H	1.570128	0.039013	1.417103
H131	H	1.054422	-0.954012	0.418872
H132	H	1.554422	-0.454012	0.918872
H133	H	1.249501	-0.947368	0.255423
H134	H	1.749501	-0.447368	0.755423
H135	H	1.015752	-0.451296	0.759149
H136	H	1.515752	0.048704	1.259149
H137	H	1.015786	-0.758580	0.451136
H138	H	1.515786	-0.258580	0.951136
H139	H	1.022125	-0.625006	0.445751
H140	H	1.522125	-0.125006	0.945751
H141	H	1.217214	-0.282359	0.619088
H142	H	1.717214	0.217641	1.119088
H143	H	1.249345	-0.255404	0.948109
H144	H	1.749345	0.244596	1.448109
H145	H	1.242935	-0.260773	1.081676
H146	H	1.742935	0.239227	1.581676
H147	H	1.047884	-0.424348	1.088168
H148	H	1.547884	0.075652	1.588168
C149	C	1.007325	-0.458404	0.615572
C150	C	1.507325	0.041596	1.115572
H151	H	0.973764	-0.486567	0.649105
H152	H	1.473764	0.013433	1.149105
H153	H	0.974873	-0.430294	0.585764
H154	H	1.474873	0.069706	1.085764
H155	H	1.038077	-0.487965	0.588091
H156	H	1.538077	0.012035	1.088091
H157	H	1.217204	-0.618371	0.282298
H158	H	1.717204	-0.118371	0.782298
