data_functionalizedCrystal
_audit_creation_method	'MofGen! by Chris Wilmer'
_symmetry_space_group_name_H-M	'P1'
_symmetry_Int_Tables_number	1
_symmetry_cell_setting	triclinic
loop_
_symmetry_equiv_pos_as_xyz
  x,y,z
_cell_length_a	14.519731
_cell_length_b	19.288865
_cell_length_c	18.366186
_cell_angle_alpha	90.011479
_cell_angle_beta	90.009136
_cell_angle_gamma	83.412550
loop_
_atom_site_label
_atom_site_type_symbol
_atom_site_fract_x
_atom_site_fract_y
_atom_site_fract_z
O1	O	-1.223283	-0.091121	-0.060560
O2	O	-0.723283	0.408879	0.439440
O3	O	-0.954741	-0.101828	-0.060562
O4	O	-0.454741	0.398172	0.439438
O5	O	-1.096772	0.004627	-0.060547
O6	O	-0.596772	0.504627	0.439453
O7	O	-1.081253	-0.197577	-0.060575
O8	O	-0.581253	0.302423	0.439425
O9	O	-1.096748	0.004633	0.060553
O10	O	-0.596748	0.504633	0.560553
O11	O	-0.954717	-0.101823	0.060537
O12	O	-0.454717	0.398177	0.560537
O13	O	-1.223259	-0.091116	0.060539
O14	O	-0.723259	0.408884	0.560539
Zn15	Zn	-1.088984	-0.096469	0.079766
Zn16	Zn	-0.588984	0.403531	0.579766
Zn17	Zn	-1.089016	-0.096476	-0.079788
Zn18	Zn	-0.589016	0.403524	0.420212
O19	O	-1.081229	-0.197571	0.060524
O20	O	-0.581229	0.302429	0.560524
C21	C	-0.920373	-0.101324	-0.000012
C22	C	-0.420373	0.398676	0.499988
C23	C	-0.818002	-0.099820	-0.000013
C24	C	-0.318002	0.400180	0.499987
C25	C	-1.096260	0.030508	0.000005
C26	C	-0.596260	0.530508	0.500005
C27	C	-1.094761	0.107617	0.000012
C28	C	-0.594761	0.607617	0.500012
C29	C	-1.257627	-0.091620	-0.000012
C30	C	-0.757627	0.408380	0.499988
C31	C	-1.359998	-0.093124	-0.000016
C32	C	-0.859998	0.406876	0.499984
C33	C	-0.734866	-0.098599	-0.000015
C34	C	-0.234866	0.401401	0.499985
C35	C	-0.630567	-0.097073	-0.000015
C36	C	-0.130567	0.402927	0.499985
C37	C	-0.547435	-0.095861	-0.000015
C38	C	-0.047435	0.404139	0.499985
C39	C	-0.443130	-0.094335	-0.000017
C40	C	0.056870	0.405665	0.499983
N41	N	-1.088969	-0.096463	0.188657
N42	N	-0.588969	0.403537	0.688657
C43	C	-1.081740	-0.223452	-0.000030
C44	C	-0.581740	0.276548	0.499970
C45	C	-1.083239	-0.300561	-0.000041
C46	C	-0.583239	0.199439	0.499959
C47	C	-1.178099	0.152009	0.000016
C48	C	-0.678099	0.652009	0.500016
C49	C	-1.176690	0.224461	0.000004
C50	C	-0.676690	0.724461	0.500004
C51	C	-1.091940	0.252518	0.000003
C52	C	-0.591940	0.752518	0.500003
C53	C	-1.008592	0.208117	-0.000005
C54	C	-0.508592	0.708117	0.499995
C55	C	-1.010003	0.135666	-0.000001
C56	C	-0.510003	0.635666	0.499999
C57	C	-1.025308	0.361051	0.042421
C58	C	-0.525308	0.861051	0.542421
C59	C	-1.023901	0.433501	0.042422
C60	C	-0.523901	0.933501	0.542422
C61	C	-1.087586	0.475980	-0.000013
C62	C	-0.587586	0.975980	0.499987
C63	C	-1.152693	0.446002	-0.042438
C64	C	-0.652693	0.946002	0.457562
C65	C	-1.154104	0.373551	-0.042434
C66	C	-0.654104	0.873551	0.457566
C67	C	-1.090401	0.331078	-0.000002
C68	C	-0.590401	0.831078	0.499998
C69	C	-1.169402	0.598933	-0.000022
C70	C	-0.669402	1.098933	0.499978
C71	C	-1.167990	0.671386	-0.000038
C72	C	-0.667990	1.171386	0.499962
C73	C	-0.999889	0.655041	-0.000041
C74	C	-0.499889	1.155041	0.499959
C75	C	-1.001303	0.582589	-0.000032
C76	C	-0.501303	1.082589	0.499968
C77	C	-1.086062	0.554540	-0.000019
C78	C	-0.586062	1.054540	0.499981
N79	N	-1.089038	-0.096475	-0.188679
N80	N	-0.589038	0.403525	0.311321
C81	C	-1.151881	-0.049348	0.226764
C82	C	-0.651881	0.450652	0.726764
C83	C	-1.151887	-0.049345	0.302992
C84	C	-0.651887	0.450655	0.802992
C85	C	-1.088990	-0.096469	0.341109
C86	C	-0.588990	0.403531	0.841109
C87	C	-1.026066	-0.143588	0.302993
C88	C	-0.526066	0.356412	0.802993
C89	C	-1.026056	-0.143585	0.226767
C90	C	-0.526056	0.356415	0.726767
C91	C	-1.076645	-0.159712	0.461861
C92	C	-0.576645	0.340288	0.961861
C93	C	-1.076661	-0.159716	0.538086
C94	C	-0.576661	0.340284	1.038086
C95	C	-1.089016	-0.096478	0.576217
C96	C	-0.589016	0.403522	1.076217
C97	C	-1.101374	-0.033234	0.538114
C98	C	-0.601374	0.466766	1.038114
C99	C	-1.101364	-0.033231	0.461888
C100	C	-0.601364	0.466769	0.961888
C101	C	-1.088994	-0.096477	0.423764
C102	C	-0.588994	0.403523	0.923764
C103	C	-1.151938	-0.049356	0.696979
C104	C	-0.651938	0.450644	1.196979
C105	C	-1.151937	-0.049351	0.773208
C106	C	-0.651937	0.450649	1.273208
C107	C	-1.026121	-0.143600	0.773208
C108	C	-0.526121	0.356400	1.273208
C109	C	-1.026117	-0.143598	0.696980
C110	C	-0.526117	0.356402	1.196980
C111	C	-1.089030	-0.096477	0.658870
C112	C	-0.589030	0.403523	1.158870
H113	H	-1.247116	0.129176	0.000024
H114	H	-0.747116	0.629176	0.500024
H115	H	-0.974853	-0.181956	0.334032
H116	H	-0.474853	0.318044	0.834032
H117	H	-1.066568	-0.211211	0.430820
H118	H	-0.566568	0.288789	0.930820
H119	H	-1.066605	-0.211213	0.569103
H120	H	-0.566605	0.288787	1.069103
H121	H	-1.203164	-0.010981	0.804236
H122	H	-0.703164	0.489019	1.304236
H123	H	-0.942137	0.099522	-0.000004
H124	H	-0.442137	0.599522	0.499996
N125	N	-0.911413	0.534710	-0.000024
N126	N	-0.411413	1.034710	0.499976
H127	H	-0.908244	0.504297	0.044870
H128	H	-0.408244	1.004297	0.544870
H129	H	-0.908310	0.504320	-0.044943
H130	H	-0.408310	1.004320	0.455057
N131	N	-0.958276	-0.194423	0.814312
N132	N	-0.458276	0.305577	1.314312
H133	H	-0.918418	-0.224271	0.778601
H134	H	-0.418418	0.275729	1.278601
H135	H	-0.917628	-0.167753	0.845949
H136	H	-0.417628	0.332247	1.345949
H137	H	-0.974892	-0.181967	0.665951
H138	H	-0.474892	0.318033	1.165951
H139	H	-0.974825	-0.181953	0.195739
H140	H	-0.474825	0.318047	0.695739
H141	H	-1.244556	0.260612	0.000005
H142	H	-0.744556	0.760612	0.500005
N143	N	-1.257879	0.719270	-0.000037
N144	N	-0.757879	1.219270	0.499963
H145	H	-1.311783	0.690504	-0.000026
H146	H	-0.811783	1.190504	0.499974
H147	H	-1.260938	0.749697	0.044854
H148	H	-0.760938	1.249697	0.544854
H149	H	-1.238417	0.576094	-0.000015
H150	H	-0.738417	1.076094	0.499985
N151	N	-0.917178	0.238369	-0.000005
N152	N	-0.417178	0.738369	0.499995
H153	H	-0.912855	0.268057	-0.044897
H154	H	-0.412855	0.768057	0.455103
H155	H	-0.912889	0.268037	0.044916
H156	H	-0.412889	0.768037	0.544916
H157	H	-1.203106	-0.010977	0.195737
H158	H	-0.703106	0.489023	0.695737
H159	H	-1.203163	-0.010984	0.665949
H160	H	-0.703163	0.489016	1.165949
H161	H	-1.111423	0.018265	0.430867
H162	H	-0.611423	0.518265	0.930867
N163	N	-1.224318	0.341216	-0.088190
N164	N	-0.724318	0.841216	0.411810
H165	H	-1.264452	0.379115	-0.115074
H166	H	-0.764452	0.879115	0.384926
H167	H	-1.190973	0.307848	-0.124426
H168	H	-0.690973	0.807848	0.375574
H169	H	-1.111434	0.018261	0.569159
H170	H	-0.611434	0.518261	1.069159
N171	N	-1.221392	0.491807	-0.088209
N172	N	-0.721392	0.991807	0.411791
H173	H	-1.210619	0.542253	-0.081779
H174	H	-0.710619	1.042253	0.418221
H175	H	-1.213028	0.478289	-0.141127
H176	H	-0.713028	0.978289	0.358873
H177	H	-1.203119	-0.010977	0.334024
H178	H	-0.703119	0.489023	0.834024
H179	H	-0.930884	0.677884	-0.000045
H180	H	-0.430884	1.177884	0.499955
H181	H	-0.970883	0.457903	0.076963
H182	H	-0.470883	0.957903	0.576963
H183	H	-0.973446	0.326470	0.076981
H184	H	-0.473446	0.826470	0.576981
