data_functionalizedCrystal
_audit_creation_method	'MofGen! by Chris Wilmer'
_symmetry_space_group_name_H-M	'P1'
_symmetry_Int_Tables_number	1
_symmetry_cell_setting	triclinic
loop_
_symmetry_equiv_pos_as_xyz
  x,y,z
_cell_length_a	13.032831
_cell_length_b	19.120786
_cell_length_c	13.033109
_cell_angle_alpha	95.029172
_cell_angle_beta	76.665514
_cell_angle_gamma	84.950973
loop_
_atom_site_label
_atom_site_type_symbol
_atom_site_fract_x
_atom_site_fract_y
_atom_site_fract_z
Zn1	Zn	1.664547	-0.487709	-0.770884
Zn2	Zn	1.634649	-0.586845	-0.586046
Zn3	Zn	1.466832	-0.453966	-0.573235
Zn4	Zn	1.479668	-0.586784	-0.741094
O5	O	1.561424	-0.528826	-0.667814
O6	O	1.808185	-0.515007	-0.764193
O7	O	1.594503	-0.555122	-0.436741
O8	O	1.500199	-0.361368	-0.606559
O9	O	1.786220	-0.587842	-0.628393
O10	O	1.645460	-0.386159	-0.751771
O11	O	1.471209	-0.457496	-0.427329
O12	O	1.320930	-0.457437	-0.577673
O13	O	1.522077	-0.587738	-0.892651
O14	O	1.330361	-0.555018	-0.700999
O15	O	1.657907	-0.514948	-0.914537
O16	O	1.606951	-0.683911	-0.599507
O17	O	1.493087	-0.683866	-0.713421
C18	C	1.287374	-0.502560	-0.634714
C19	C	1.170135	-0.491342	-0.620577
C20	C	1.122544	-0.534681	-0.675192
C21	C	1.001372	-0.523088	-0.660583
C22	C	1.548199	-0.709063	-0.654648
C23	C	1.542642	-0.786182	-0.649062
C24	C	1.615617	-0.835260	-0.722091
C25	C	1.610391	-0.907722	-0.716844
C26	C	1.532195	-0.931103	-0.638563
C27	C	1.459212	-0.882019	-0.565531
C28	C	1.464434	-0.809559	-0.570783
C29	C	1.512643	-1.149242	-0.618923
C30	C	1.507429	-1.221708	-0.613674
C31	C	1.658607	-1.247405	-0.764989
C32	C	1.663826	-1.174943	-0.770231
C33	C	1.590840	-1.125865	-0.697202
C34	C	1.526853	-1.005170	-0.633196
C35	C	1.596177	-1.051800	-0.702575
C36	C	1.836545	-0.555195	-0.701045
C37	C	1.953785	-0.566432	-0.715206
C38	C	1.594759	-0.555100	-0.942936
C39	C	1.608964	-0.566296	-1.060177
C40	C	1.574732	-0.347890	-0.681059
C41	C	1.580404	-0.270786	-0.686703
C42	C	1.554294	-0.522985	-1.107789
C43	C	1.568974	-0.534556	-1.228964
C44	C	1.528283	-0.502610	-0.393774
C45	C	1.514296	-0.491238	-0.276573
H46	H	1.002743	-0.612119	-0.772791
H47	H	1.666637	-0.611944	-1.109122
H48	H	1.718027	-1.287371	-0.824446
H49	H	1.463188	-1.024215	-0.569456
H50	H	0.952415	-0.477396	-0.603009
H51	H	1.171507	-0.580365	-0.732771
H52	H	1.121174	-0.445654	-0.563007
H53	H	1.405009	-0.769599	-0.511317
H54	H	1.496615	-0.477340	-1.058843
H55	H	1.395539	-0.901062	-0.501796
H56	H	1.659842	-1.032761	-0.766315
H57	H	1.679297	-0.816229	-0.785832
H58	H	1.669822	-0.947679	-0.776304
H59	H	1.727500	-1.155908	-0.833973
H60	H	1.626651	-0.580206	-1.277905
H61	H	1.443747	-1.240741	-0.549927
H62	H	1.456616	-0.445589	-1.227632
H63	H	1.453217	-1.109288	-0.559459
