data_functionalizedCrystal
_audit_creation_method	'MofGen! by Chris Wilmer'
_symmetry_space_group_name_H-M	'P1'
_symmetry_Int_Tables_number	1
_symmetry_cell_setting	triclinic
loop_
_symmetry_equiv_pos_as_xyz
  x,y,z
_cell_length_a	21.606444
_cell_length_b	12.970454
_cell_length_c	12.970454
_cell_angle_alpha	60.000396
_cell_angle_beta	89.998909
_cell_angle_gamma	60.000971
loop_
_atom_site_label
_atom_site_type_symbol
_atom_site_fract_x
_atom_site_fract_y
_atom_site_fract_z
Zr1	Zr	0.596224	1.128553	-0.135326
O2	O	0.497403	1.343634	-0.299942
O3	O	0.626518	0.913467	-0.084863
O4	O	0.626519	1.128555	-0.299951
O5	O	0.497401	1.128547	0.084813
O6	O	0.728369	1.128562	-0.299957
O7	O	0.497401	1.128547	-0.084854
O8	O	0.728367	0.743809	0.084796
O9	O	0.497403	1.513300	-0.299940
O10	O	0.715447	1.001942	-0.063345
O11	O	0.639438	1.001938	0.063280
O12	O	0.639439	1.255176	-0.189958
O13	O	0.563429	1.255171	-0.063333
Zr14	Zr	0.758662	1.128566	0.135263
Zr15	Zr	0.758663	1.128565	-0.135335
Zr16	Zr	0.596223	1.128555	0.135273
Zr17	Zr	0.596225	1.399151	-0.135323
Zr18	Zr	0.758661	0.857969	0.135261
O19	O	0.728368	1.343653	0.084801
O20	O	0.728369	1.343651	-0.299956
O21	O	0.497401	1.343636	0.084815
O22	O	0.857483	0.913485	0.299879
O23	O	0.857485	0.913483	-0.084877
O24	O	0.626516	0.913469	0.299893
O25	O	0.857485	1.128572	-0.084875
O26	O	0.728366	1.128565	0.299889
O27	O	0.626517	1.128558	0.299895
O28	O	0.857484	1.128573	0.084791
O29	O	0.626520	1.513310	-0.299948
O30	O	0.728366	0.743810	0.299885
O31	O	0.857483	0.743819	0.299878
O32	O	0.857484	0.743818	0.084788
O33	O	0.497402	1.513301	-0.084850
O34	O	0.626519	1.513311	-0.084858
O35	O	0.715446	1.001944	0.189896
O36	O	0.791456	1.001949	0.063271
O37	O	0.715448	1.255182	-0.063343
O38	O	0.639438	1.255177	0.063282
C39	C	0.677442	0.790083	-0.000034
C40	C	0.677442	0.675208	-0.000035
C41	C	0.474257	1.128545	-0.000019
C42	C	0.405298	1.128540	-0.000015
C43	C	0.412574	0.996356	0.066072
C44	C	0.347776	0.996360	0.066073
C45	C	0.275704	1.128550	-0.000021
C46	C	0.268429	1.260744	-0.066109
C47	C	0.333225	1.260739	-0.066102
C48	C	0.007111	1.260770	-0.066137
C49	C	-0.057687	1.260765	-0.066142
C50	C	0.021662	0.996391	0.066038
C51	C	0.086458	0.996385	0.066045
C52	C	0.079178	1.128579	-0.000038
C53	C	0.149439	1.128573	-0.000036
C54	C	0.205443	1.128557	-0.000030
C55	C	0.880629	1.128574	-0.000044
C56	C	0.949588	1.128579	-0.000048
C57	C	0.677444	1.128558	-0.338509
C58	C	0.677445	1.128557	-0.453385
C59	C	0.677444	1.467036	-0.000028
C60	C	0.677444	1.581912	-0.000027
C61	C	0.677441	1.128562	0.338446
C62	C	0.677441	1.128562	0.453322
C63	C	0.880628	0.790098	-0.000046
C64	C	0.949587	0.675227	-0.000052
C65	C	0.677441	0.790085	0.338443
C66	C	0.677440	0.675210	0.453319
C67	C	0.880627	0.790100	0.338431
C68	C	0.949585	0.675230	0.453302
C69	C	0.474259	1.467020	-0.338494
C70	C	0.405300	1.581890	-0.453365
C71	C	0.474258	1.467022	-0.000016
C72	C	0.405299	1.581892	-0.000011
C73	C	0.677445	1.467034	-0.338506
C74	C	0.677446	1.581910	-0.453381
C75	C	0.942295	0.621279	-0.066157
C76	C	1.007084	0.513361	-0.066187
C77	C	1.079163	0.459385	-0.000104
C78	C	1.086453	0.513343	0.066004
C79	C	1.021666	0.621267	0.066026
C80	C	1.021652	0.621288	0.441150
C81	C	1.086452	0.513370	0.549073
C82	C	1.079184	0.459389	0.669147
C83	C	1.007110	0.513341	0.681297
C84	C	0.942311	0.621264	0.573375
C85	C	0.333233	1.635845	-0.441212
C86	C	0.268433	1.743796	-0.549136
C87	C	0.275702	1.797783	-0.669210
C88	C	0.347776	1.743824	-0.681360
C89	C	0.412575	1.635882	-0.573438
C90	C	0.412590	1.635852	0.066084
C91	C	0.347802	1.743800	0.066084
C92	C	0.275723	1.797780	-0.000004
C93	C	0.268432	1.743816	-0.066106
C94	C	0.333220	1.635877	-0.066113
H95	H	0.353708	0.888722	0.119889
H96	H	1.027585	0.665224	0.343389
H97	H	0.471275	1.591909	0.119908
H98	H	0.222975	1.885670	0.000012
C99	C	0.189150	1.406157	-0.138829
C100	C	0.181147	1.551559	-0.211532
C101	C	0.101869	1.696975	-0.284265
C102	C	0.030592	1.696990	-0.284295
C103	C	0.038592	1.551583	-0.211589
C104	C	0.117871	1.406166	-0.138856
H105	H	0.233912	1.551553	-0.211513
H106	H	0.095947	1.804615	-0.338087
H107	H	-0.028095	1.804636	-0.338137
H108	H	-0.014173	1.551589	-0.211609
H109	H	0.123793	1.298526	-0.085034
H110	H	1.145133	0.469453	0.539158
C111	C	0.165738	0.850975	0.138752
C112	C	0.173744	0.705570	0.211456
C113	C	0.253024	0.560157	0.284170
C114	C	0.324298	0.560148	0.284180
C115	C	0.316295	0.705558	0.211473
C116	C	0.237015	0.850971	0.138759
H117	H	0.120980	0.705572	0.211451
H118	H	0.258948	0.452514	0.337992
H119	H	0.382986	0.452504	0.338007
H120	H	0.369059	0.705556	0.211478
H121	H	0.231091	0.958614	0.084936
C122	C	0.189140	1.803191	-0.138783
C123	C	0.133679	1.966438	-0.245984
C124	C	0.054384	2.025806	-0.318648
C125	C	0.030552	1.921929	-0.284111
C126	C	0.086014	1.758672	-0.176904
C127	C	0.165309	1.699303	-0.104240
H128	H	0.151320	2.043343	-0.271555
H129	H	0.013327	2.146660	-0.398009
H130	H	-0.028147	1.965877	-0.337901
H131	H	0.068373	1.681766	-0.151333
H132	H	0.206366	1.578449	-0.024879
C133	C	0.863013	0.680646	-0.138864
C134	C	0.855008	0.621297	-0.211586
C135	C	0.775729	0.680663	-0.284305
C136	C	0.704454	0.799378	-0.284303
C137	C	0.712456	0.858733	-0.211578
C138	C	0.791736	0.799368	-0.138859
H139	H	0.907772	0.533411	-0.211591
H140	H	0.769805	0.636723	-0.338141
H141	H	0.645766	0.843324	-0.338134
H142	H	0.659692	0.946619	-0.211574
H143	H	0.797659	0.843307	-0.085024
C144	C	1.165745	0.453946	0.138703
C145	C	1.189597	0.557789	0.104213
C146	C	1.268892	0.498378	0.176919
C147	C	1.324334	0.335124	0.284116
C148	C	1.300483	0.231271	0.318611
C149	C	1.221189	0.290682	0.245905
H150	H	1.148554	0.678648	0.024855
H151	H	1.286547	0.575257	0.151383
H152	H	1.383032	0.291144	0.337938
H153	H	1.341526	0.110412	0.397969
H154	H	1.203533	0.213803	0.271441
C155	C	0.189158	1.803123	-0.535750
C156	C	0.165348	1.877276	-0.466338
C157	C	0.086076	1.936596	-0.452949
C158	C	0.030614	1.921763	-0.508972
C159	C	0.054424	1.847606	-0.578389
C160	C	0.133696	1.788286	-0.591778
H161	H	0.206404	1.888259	-0.424862
H162	H	0.068451	1.991491	-0.401561
H163	H	-0.028068	1.965675	-0.499061
H164	H	0.013367	1.836623	-0.619865
H165	H	0.151321	1.733391	-0.643166
C166	C	0.491848	1.576530	-0.586818
C167	C	0.499833	1.635920	-0.718902
C168	C	0.579105	1.576578	-0.732293
C169	C	0.650391	1.457844	-0.613600
C170	C	0.642408	1.398447	-0.481506
C171	C	0.563136	1.457790	-0.468115
H172	H	0.447061	1.723820	-0.806774
H173	H	0.585014	1.620548	-0.830078
H174	H	0.709072	1.413915	-0.623512
H175	H	0.695180	1.310548	-0.393634
H176	H	0.557227	1.413819	-0.370330
H177	H	0.471256	0.888712	0.119898
H178	H	1.027614	0.665178	0.119865
H179	H	0.883633	0.665170	0.583287
H180	H	0.027583	0.888753	0.119848
H181	H	-0.116374	1.368417	-0.119966
H182	H	1.131911	0.371505	-0.000131
H183	H	0.001173	1.368410	-0.119969
H184	H	0.327296	1.368377	-0.119901
H185	H	1.001133	0.469441	-0.120020
H186	H	1.131953	0.371511	0.757014
H187	H	1.001203	0.469374	0.779076
H188	H	0.327301	1.591895	-0.343452
H189	H	0.222932	1.885676	-0.757077
H190	H	0.353685	1.787794	-0.779137
H191	H	0.353753	1.787719	0.119917
H192	H	0.327272	1.591947	-0.119932
