data_functionalizedCrystal
_audit_creation_method	'MofGen! by Chris Wilmer'
_symmetry_space_group_name_H-M	'P1'
_symmetry_Int_Tables_number	1
_symmetry_cell_setting	triclinic
loop_
_symmetry_equiv_pos_as_xyz
  x,y,z
_cell_length_a	19.121102
_cell_length_b	19.121063
_cell_length_c	16.625539
_cell_angle_alpha	92.410374
_cell_angle_beta	87.544243
_cell_angle_gamma	90.126902
loop_
_atom_site_label
_atom_site_type_symbol
_atom_site_fract_x
_atom_site_fract_y
_atom_site_fract_z
Zn1	Zn	1.059831	-0.324912	-0.523634
Zn2	Zn	1.559831	0.175088	-0.023634
Zn3	Zn	1.054741	-0.442148	-0.394284
Zn4	Zn	1.554741	0.057852	0.105716
Zn5	Zn	0.942598	-0.319923	-0.382837
Zn6	Zn	1.442598	0.180077	0.117163
Zn7	Zn	0.937556	-0.437102	-0.523095
Zn8	Zn	1.437556	0.062898	-0.023095
O9	O	0.998681	-0.381021	-0.455962
O10	O	1.498681	0.118979	0.044038
O11	O	1.157260	-0.344663	-0.511492
O12	O	1.657260	0.155337	-0.011492
O13	O	1.039846	-0.425959	-0.279933
O14	O	1.539846	0.074041	0.220067
O15	O	0.962390	-0.222482	-0.396949
O16	O	1.462390	0.277518	0.103051
O17	O	1.153521	-0.430796	-0.416459
O18	O	1.653521	0.069204	0.083541
O19	O	1.048520	-0.226147	-0.500392
O20	O	1.548520	0.273853	-0.000392
O21	O	0.957455	-0.336161	-0.271523
O22	O	1.457455	0.163839	0.228477
O23	O	0.843824	-0.331268	-0.396426
O24	O	1.343824	0.168732	0.103574
O25	O	0.953795	-0.422196	-0.635998
O26	O	1.453795	0.077804	-0.135998
O27	O	0.840120	-0.417359	-0.499473
O28	O	1.340120	0.082641	0.000527
O29	O	1.043630	-0.339770	-0.636395
O30	O	1.543630	0.160230	-0.136395
O31	O	1.034956	-0.539582	-0.415935
O32	O	1.534956	-0.039582	0.084065
O33	O	0.948860	-0.535875	-0.510572
O34	O	1.448860	-0.035875	-0.010572
C35	C	0.816535	-0.373225	-0.446649
C36	C	1.316535	0.126775	0.053351
C37	C	0.738611	-0.369906	-0.442684
C38	C	1.238611	0.130094	0.057316
C39	C	0.990828	-0.563167	-0.464456
C40	C	1.490828	-0.063167	0.035544
C41	C	0.987532	-0.641092	-0.468120
C42	C	1.487532	-0.141092	0.031880
C43	C	0.700088	-0.413238	-0.494395
C44	C	1.200088	0.086762	0.005605
C45	C	0.626871	-0.410111	-0.490674
C46	C	1.126871	0.089889	0.009326
C47	C	0.592177	-0.363655	-0.435237
C48	C	1.092177	0.136345	0.064763
C49	C	0.630704	-0.320319	-0.383524
C50	C	1.130704	0.179681	0.116476
C51	C	0.703921	-0.323443	-0.387250
C52	C	1.203921	0.176557	0.112750
C53	C	0.371207	-0.351973	-0.421310
C54	C	0.871207	0.148027	0.078690
C55	C	0.297985	-0.348853	-0.417586
C56	C	0.797985	0.151147	0.082414
C57	C	0.294157	-0.438644	-0.524738
C58	C	0.794157	0.061356	-0.024738
C59	C	0.367374	-0.441767	-0.528455
C60	C	0.867374	0.058233	-0.028455
C61	C	0.405896	-0.398429	-0.476745
C62	C	0.905896	0.101571	0.023255
C63	C	0.517337	-0.360459	-0.431430
C64	C	1.017337	0.139541	0.068570
C65	C	0.480735	-0.401622	-0.480557
C66	C	0.980735	0.098378	0.019443
C67	C	1.030844	-0.679610	-0.420613
C68	C	1.530844	-0.179610	0.079387
C69	C	1.027749	-0.752829	-0.424064
C70	C	1.527749	-0.252829	0.075936
C71	C	0.981338	-0.787529	-0.475018
C72	C	1.481338	-0.287529	0.024982
C73	C	0.938024	-0.749006	-0.522530
C74	C	1.438024	-0.249006	-0.022530
C75	C	0.941123	-0.675788	-0.519083
C76	C	1.441123	-0.175788	-0.019083
C77	C	0.969738	-1.008503	-0.487893
C78	C	1.469738	-0.508503	0.012107
C79	C	0.966641	-1.081726	-0.491335
C80	C	1.466641	-0.581726	0.008665
C81	C	1.056367	-1.085544	-0.392870
C82	C	1.556367	-0.585544	0.107130
C83	C	1.059460	-1.012325	-0.389424
C84	C	1.559460	-0.512325	0.110576
C85	C	1.016148	-0.973808	-0.436939
C86	C	1.516148	-0.473808	0.063061
C87	C	0.978171	-0.862370	-0.478545
C88	C	1.478171	-0.362370	0.021455
C89	C	1.019319	-0.898968	-0.433416
C90	C	1.519319	-0.398968	0.066584
C91	C	1.181540	-0.388849	-0.465313
C92	C	1.681540	0.111151	0.034687
C93	C	1.259463	-0.392184	-0.469297
C94	C	1.759463	0.107816	0.030703
C95	C	0.998718	-0.380977	-0.666271
C96	C	1.498718	0.119023	-0.166271
C97	C	0.998733	-0.380958	-0.755892
C98	C	1.498733	0.119042	-0.255892
C99	C	1.006585	-0.198166	-0.447454
C100	C	1.506585	0.301834	0.052546
C101	C	1.009953	-0.120244	-0.443828
C102	C	1.509953	0.379756	0.056172
C103	C	0.998745	-0.380943	-0.828674
C104	C	1.498745	0.119057	-0.328674
C105	C	0.998763	-0.380917	-0.919982
C106	C	1.498763	0.119083	-0.419982
C107	C	0.998780	-0.380893	-0.992759
C108	C	1.498780	0.119107	-0.492759
C109	C	0.998799	-0.380869	-1.084073
C110	C	1.498799	0.119131	-0.584073
C111	C	0.998688	-0.381017	-0.246472
C112	C	1.498688	0.118983	0.253528
C113	C	0.998817	-0.380845	-0.156849
C114	C	1.498817	0.119155	0.343151
H115	H	0.728331	-0.451070	-0.539535
H116	H	1.228331	0.048930	-0.039535
Br117	Br	0.574593	-0.468919	-0.560858
Br118	Br	1.074593	0.031081	-0.060858
Br119	Br	0.250900	-0.285809	-0.342337
Br120	Br	0.750900	0.214191	0.157663
H121	H	0.940381	-0.890631	-0.520030
H122	H	1.440381	-0.390631	-0.020030
H123	H	0.934471	-0.977148	-0.526580
H124	H	1.434471	-0.477148	-0.026580
H125	H	0.508986	-0.439443	-0.525696
H126	H	1.008986	0.060557	-0.025696
Br127	Br	0.875042	-0.796097	-0.591690
Br128	Br	1.375042	-0.296097	-0.091690
H129	H	0.262785	-0.473927	-0.566838
H130	H	0.762785	0.026073	-0.066838
H131	H	1.063018	-0.784187	-0.385379
H132	H	1.563018	-0.284187	0.114621
Br133	Br	0.583621	-0.257264	-0.308295
Br134	Br	1.083621	0.242736	0.191705
H135	H	1.097251	-0.984074	-0.347933
H136	H	1.597251	-0.484074	0.152067
Br137	Br	0.882344	-0.623513	-0.583564
Br138	Br	1.382344	-0.123513	-0.083564
H139	H	0.402562	-0.316688	-0.379198
H140	H	0.902562	0.183312	0.120802
Br141	Br	1.115147	-1.137820	-0.328393
Br142	Br	1.615147	-0.637820	0.171607
H143	H	0.735285	-0.288154	-0.345146
H144	H	1.235285	0.211846	0.154854
H145	H	0.928855	-1.109976	-0.532842
H146	H	1.428855	-0.609976	-0.032842
Br147	Br	0.414454	-0.504821	-0.603689
Br148	Br	0.914454	-0.004821	-0.103689
H149	H	1.057110	-0.870714	-0.391932
H150	H	1.557110	-0.370714	0.108068
H151	H	0.489081	-0.322636	-0.386291
H152	H	0.989081	0.177364	0.113709
Br153	Br	1.093828	-0.632524	-0.351451
Br154	Br	1.593828	-0.132524	0.148549
