data_functionalizedCrystal
_audit_creation_method	'MofGen! by Chris Wilmer'
_symmetry_space_group_name_H-M	'P1'
_symmetry_Int_Tables_number	1
_symmetry_cell_setting	triclinic
loop_
_symmetry_equiv_pos_as_xyz
  x,y,z
_cell_length_a	14.519709
_cell_length_b	10.489741
_cell_length_c	12.996460
_cell_angle_alpha	89.994152
_cell_angle_beta	90.000034
_cell_angle_gamma	84.109659
loop_
_atom_site_label
_atom_site_type_symbol
_atom_site_fract_x
_atom_site_fract_y
_atom_site_fract_z
O1	O	1.224780	0.167204	-0.085432
O2	O	1.558113	0.500537	0.247901
O3	O	1.891446	0.833870	0.581235
O4	O	0.956410	0.186894	-0.085464
O5	O	1.289744	0.520227	0.247870
O6	O	1.623077	0.853561	0.581203
O7	O	1.096702	-0.008613	-0.085441
O8	O	1.430035	0.324721	0.247892
O9	O	1.763368	0.658054	0.581226
O10	O	1.084488	0.362710	-0.085455
O11	O	1.417822	0.696044	0.247879
O12	O	1.751155	1.029377	0.581212
O13	O	1.096687	-0.008624	0.085693
O14	O	1.430020	0.324710	0.419026
O15	O	1.763354	0.658043	0.752359
O16	O	0.956395	0.186883	0.085670
O17	O	1.289729	0.520216	0.419004
O18	O	1.623062	0.853550	0.752337
O19	O	1.224765	0.167193	0.085702
O20	O	1.558098	0.500526	0.419035
O21	O	1.891432	0.833859	0.752368
Cu22	Cu	1.090579	0.177037	0.101312
Cu23	Cu	1.423912	0.510370	0.434645
Cu24	Cu	1.757246	0.843704	0.767978
Cu25	Cu	1.090596	0.177050	-0.101074
Cu26	Cu	1.423930	0.510383	0.232260
Cu27	Cu	1.757263	0.843716	0.565593
O28	O	1.084474	0.362699	0.085679
O29	O	1.417807	0.696033	0.419012
O30	O	1.751140	1.029366	0.752346
C31	C	0.922038	0.185971	0.000099
C32	C	1.255371	0.519304	0.333433
C33	C	1.588705	0.852637	0.666766
C34	C	0.819642	0.183221	0.000088
C35	C	1.152975	0.516554	0.333421
C36	C	1.486308	0.849888	0.666754
C37	C	1.095772	-0.056140	0.000125
C38	C	1.429105	0.277193	0.333458
C39	C	1.762438	0.610526	0.666792
C40	C	1.093012	-0.197741	0.000123
C41	C	1.426345	0.135592	0.333456
C42	C	1.759679	0.468926	0.666790
C43	C	0.444691	0.173098	0.000135
C44	C	0.778024	0.506431	0.333468
C45	C	1.111357	0.839764	0.666801
C46	C	0.549014	0.175909	0.000121
C47	C	0.882347	0.509242	0.333455
C48	C	1.215681	0.842575	0.666788
C49	C	0.632163	0.178159	0.000110
C50	C	0.965496	0.511492	0.333443
C51	C	1.298830	0.844826	0.666777
C52	C	0.736493	0.180971	0.000099
C53	C	1.069826	0.514304	0.333432
C54	C	1.403160	0.847637	0.666765
C55	C	1.003749	-0.264951	0.000105
C56	C	1.337082	0.068383	0.333438
C57	C	1.670415	0.401716	0.666772
C58	C	1.045909	-0.357518	0.084488
C59	C	1.379242	-0.024185	0.417821
C60	C	1.712575	0.309149	0.751154
C61	C	1.045944	-0.357482	-0.084237
C62	C	1.379278	-0.024149	0.249097
C63	C	1.712611	0.309185	0.582430
C64	C	1.135209	-0.288443	0.084575
C65	C	1.468542	0.044890	0.417909
C66	C	1.801875	0.378223	0.751242
C67	C	1.135232	-0.288398	-0.084225
C68	C	1.468565	0.044936	0.249108
C69	C	1.801899	0.378269	0.582442
C70	C	1.177457	-0.380938	0.000178
C71	C	1.510790	-0.047605	0.333512
C72	C	1.844123	0.285728	0.666845
C73	C	1.259137	0.168116	0.000136
C74	C	1.592471	0.501449	0.333470
C75	C	1.925804	0.834783	0.666803
C76	C	1.361533	0.170866	0.000142
C77	C	1.694867	0.504199	0.333475
C78	C	2.028200	0.837532	0.666808
C79	C	1.085403	0.410227	0.000111
C80	C	1.418737	0.743560	0.333444
C81	C	1.752070	1.076894	0.666777
C82	C	1.088163	0.551828	0.000106
C83	C	1.421497	0.885161	0.333439
C84	C	1.754830	1.218494	0.666773
N85	N	1.090573	0.177027	0.243659
N86	N	1.423907	0.510360	0.576992
N87	N	1.757240	0.843694	0.910326
N88	N	1.090609	0.177049	-0.243421
N89	N	1.423943	0.510383	0.089913
N90	N	1.757276	0.843716	0.423246
C91	C	1.090595	0.177051	0.663473
C92	C	1.423928	0.510384	0.996807
C93	C	1.757262	0.843718	1.330140
C94	C	1.090586	0.177049	0.546668
C95	C	1.423920	0.510382	0.880001
C96	C	1.757253	0.843715	1.213335
C97	C	1.090585	0.177040	0.453570
C98	C	1.423918	0.510373	0.786903
C99	C	1.757251	0.843707	1.120236
C100	C	1.090575	0.177036	0.336757
C101	C	1.423908	0.510369	0.670091
C102	C	1.757242	0.843702	1.003424
H103	H	0.930357	-0.214534	0.000181
H104	H	1.263690	0.118799	0.333515
H105	H	1.597024	0.452132	0.666848
H106	H	1.008133	-0.388140	0.155819
H107	H	1.341466	-0.054807	0.489152
H108	H	1.674800	0.278526	0.822485
H109	H	1.172975	-0.257742	-0.155560
H110	H	1.506309	0.075591	0.177774
H111	H	1.839642	0.408925	0.511107
H112	H	1.172939	-0.258009	0.155995
H113	H	1.506272	0.075324	0.489328
H114	H	1.839606	0.408658	0.822661
H115	H	1.008170	-0.388048	-0.155583
H116	H	1.341503	-0.054714	0.177751
H117	H	1.674837	0.278619	0.511084
H118	H	1.250914	-0.431128	0.000234
H119	H	1.584248	-0.097795	0.333567
H120	H	1.917581	0.235539	0.666901
