data_functionalizedCrystal
_audit_creation_method	'MofGen! by Chris Wilmer'
_symmetry_space_group_name_H-M	'P1'
_symmetry_Int_Tables_number	1
_symmetry_cell_setting	triclinic
loop_
_symmetry_equiv_pos_as_xyz
  x,y,z
_cell_length_a	13.033293
_cell_length_b	12.759400
_cell_length_c	13.032268
_cell_angle_alpha	97.151488
_cell_angle_beta	89.079182
_cell_angle_gamma	97.183247
loop_
_atom_site_label
_atom_site_type_symbol
_atom_site_fract_x
_atom_site_fract_y
_atom_site_fract_z
Zn1	Zn	1.498485	-0.326864	-0.781500
Zn2	Zn	1.998485	0.173136	-0.281500
Zn3	Zn	1.520239	-0.477844	-0.609535
Zn4	Zn	2.020239	0.022156	-0.109535
Zn5	Zn	1.348345	-0.321315	-0.587675
Zn6	Zn	1.848345	0.178685	-0.087675
Zn7	Zn	1.326493	-0.521641	-0.759577
Zn8	Zn	1.826493	-0.021641	-0.259577
O9	O	1.423390	-0.411916	-0.684572
O10	O	1.923390	0.088084	-0.184572
O11	O	1.645289	-0.330884	-0.777011
O12	O	2.145289	0.169116	-0.277011
O13	O	1.515686	-0.436429	-0.462725
O14	O	2.015686	0.063571	0.037275
O15	O	1.368303	-0.175028	-0.613413
O16	O	1.868303	0.324972	-0.113413
O17	O	1.661271	-0.441809	-0.650669
O18	O	2.161271	0.058191	-0.150669
O19	O	1.478610	-0.179105	-0.755815
O20	O	1.978610	0.320895	-0.255815
O21	O	1.389396	-0.321428	-0.446665
O22	O	1.889396	0.178572	0.053335
O23	O	1.201529	-0.363896	-0.592155
O24	O	1.701529	0.136104	-0.092155
O25	O	1.331059	-0.516455	-0.906395
O26	O	1.831059	-0.016455	-0.406395
O27	O	1.185474	-0.511075	-0.718451
O28	O	1.685474	-0.011075	-0.218451
O29	O	1.457421	-0.373352	-0.922501
O30	O	1.957421	0.126648	-0.422501
O31	O	1.494496	-0.630677	-0.629412
O32	O	1.994496	-0.130677	-0.129412
O33	O	1.352152	-0.662854	-0.739647
O34	O	1.852152	-0.162854	-0.239647
C35	C	1.156185	-0.441637	-0.650553
C36	C	1.656185	0.058363	-0.150553
C37	C	1.041870	-0.454381	-0.636023
C38	C	1.541870	0.045619	-0.136023
C39	C	0.982985	-0.405292	-0.692154
C40	C	1.482985	0.094708	-0.192154
C41	C	0.864834	-0.418461	-0.677139
C42	C	1.364834	0.081539	-0.177139
C43	C	1.423339	-0.684887	-0.684548
C44	C	1.923339	-0.184887	-0.184548
C45	C	1.423406	-0.801660	-0.684585
C46	C	1.923406	-0.301660	-0.184585
C47	C	1.480803	-0.858576	-0.758783
C48	C	1.980803	-0.358576	-0.258783
C49	C	1.480848	-0.968298	-0.758815
C50	C	1.980848	-0.468298	-0.258815
C51	C	1.366096	-0.964178	-0.610440
C52	C	1.866096	-0.464178	-0.110440
C53	C	1.366047	-0.854459	-0.610414
C54	C	1.866047	-0.354459	-0.110414
C55	C	1.538163	-0.805777	-0.832955
C56	C	2.038163	-0.305777	-0.332955
C57	C	1.595566	-0.862693	-0.907158
C58	C	2.095566	-0.362693	-0.407158
C59	C	1.595610	-0.972416	-0.907189
C60	C	2.095610	-0.472416	-0.407189
C61	C	1.538252	-1.025222	-0.833017
C62	C	2.038252	-0.525222	-0.333017
C63	C	1.691639	-0.382080	-0.718724
C64	C	2.191639	0.117920	-0.218724
C65	C	1.805951	-0.369366	-0.733278
C66	C	2.305951	0.130634	-0.233278
C67	C	1.389376	-0.450408	-0.952805
C68	C	1.889376	0.049592	-0.452805
C69	C	1.374880	-0.466811	-1.067111
C70	C	1.874880	0.033189	-0.567111
C71	C	1.423468	-0.137879	-0.684621
C72	C	1.923468	0.362121	-0.184621
C73	C	1.423501	-0.021101	-0.684642
C74	C	1.923501	0.478899	-0.184642
C75	C	1.430940	-0.403319	-1.126041
C76	C	1.930940	0.096681	-0.626041
C77	C	1.415960	-0.420271	-1.244181
C78	C	1.915960	0.079729	-0.744181
C79	C	1.457332	-0.373492	-0.417389
C80	C	1.957332	0.126508	0.082611
C81	C	1.472026	-0.356771	-0.303110
C82	C	1.972026	0.143229	0.196890
H83	H	0.827783	-0.470239	-0.617961
H84	H	1.327783	0.029761	-0.117961
Cl85	Cl	1.324725	-0.523574	-1.301308
Cl86	Cl	1.824725	-0.023574	-0.801308
Cl87	Cl	1.522139	-0.299993	-1.068905
Cl88	Cl	2.022139	0.200007	-0.568905
H89	H	1.004814	-0.506155	-0.576850
H90	H	1.504814	-0.006155	-0.076850
H91	H	1.531110	-0.289854	-1.266104
H92	H	2.031110	0.210146	-0.766104
Cl93	Cl	1.283650	-0.570108	-1.124242
Cl94	Cl	1.783650	-0.070108	-0.624242
H95	H	1.642341	-1.018756	-0.967617
H96	H	2.142341	-0.518756	-0.467617
Cl97	Cl	1.040188	-0.325346	-0.783511
Cl98	Cl	1.540188	0.174654	-0.283511
H99	H	1.538135	-0.716435	-0.832936
H100	H	2.038135	-0.216435	-0.332936
Cl101	Cl	0.863147	-0.289409	-0.824634
Cl102	Cl	1.363147	0.210591	-0.324634
H103	H	1.642258	-0.819694	-0.967553
H104	H	2.142258	-0.319694	-0.467553
Cl105	Cl	1.293996	-1.030563	-0.517200
Cl106	Cl	1.793996	-0.530563	-0.017200
Cl107	Cl	1.538486	-1.163120	-0.832923
Cl108	Cl	2.038486	-0.663120	-0.332923
Cl109	Cl	1.293893	-0.782901	-0.517131
Cl110	Cl	1.793893	-0.282901	-0.017131
