data_functionalizedCrystal
_audit_creation_method	'MofGen! by Chris Wilmer'
_symmetry_space_group_name_H-M	'P1'
_symmetry_Int_Tables_number	1
_symmetry_cell_setting	triclinic
loop_
_symmetry_equiv_pos_as_xyz
  x,y,z
_cell_length_a	11.792241
_cell_length_b	26.210047
_cell_length_c	11.792241
_cell_angle_alpha	89.995333
_cell_angle_beta	95.806584
_cell_angle_gamma	90.012238
loop_
_atom_site_label
_atom_site_type_symbol
_atom_site_fract_x
_atom_site_fract_y
_atom_site_fract_z
O1	O	1.506929	0.042380	-0.155565
O2	O	2.006929	0.542380	0.344435
O3	O	1.176588	0.042392	-0.171598
O4	O	1.676588	0.542392	0.328402
O5	O	1.349775	0.042382	0.001589
O6	O	1.849775	0.542382	0.501589
O7	O	1.333742	0.042389	-0.328752
O8	O	1.833742	0.542389	0.171248
O9	O	1.349720	-0.042476	0.001589
O10	O	1.849720	0.457524	0.501589
O11	O	1.176533	-0.042466	-0.171598
O12	O	1.676533	0.457534	0.328402
O13	O	1.506874	-0.042478	-0.155565
O14	O	2.006874	0.457522	0.344435
Cu15	Cu	1.341698	-0.050221	-0.163581
Cu16	Cu	1.841698	0.449779	0.336419
Cu17	Cu	1.341763	0.050134	-0.163582
Cu18	Cu	1.841763	0.550134	0.336418
O19	O	1.333687	-0.042469	-0.328752
O20	O	1.833687	0.457531	0.171248
C21	C	1.134269	-0.000036	-0.170591
C22	C	1.634269	0.499964	0.329409
C23	C	1.008255	-0.000032	-0.167576
C24	C	1.508255	0.499968	0.332424
N25	N	1.341661	-0.120805	-0.163580
N26	N	1.841661	0.379195	0.336420
C27	C	0.777543	-0.000046	-0.162034
C28	C	1.277543	0.499954	0.337966
C29	C	0.905928	-0.000038	-0.165113
C30	C	1.405928	0.499962	0.334887
C31	C	1.411010	-0.473320	-0.232872
C32	C	1.911010	0.026680	0.267128
C33	C	1.411044	-0.686978	-0.232872
C34	C	1.911044	-0.186978	0.267128
O35	O	1.469981	-0.714601	-0.291774
O36	O	1.969981	-0.214601	0.208226
N37	N	1.341790	-0.713698	-0.163571
N38	N	1.841790	-0.213698	0.336429
C39	C	1.272529	-0.687001	-0.094259
C40	C	1.772529	-0.187001	0.405741
O41	O	1.213634	-0.714631	-0.035305
O42	O	1.713634	-0.214631	0.464695
C43	C	1.272502	-0.473343	-0.094254
C44	C	1.772502	0.026657	0.405746
C45	C	1.341751	-0.446626	-0.163569
C46	C	1.841751	0.053374	0.336431
C47	C	1.480255	-0.446602	-0.302180
C48	C	1.980255	0.053398	0.197820
C49	C	1.480241	-0.393191	-0.302184
C50	C	1.980241	0.106809	0.197816
C51	C	1.410983	-0.366497	-0.232881
C52	C	1.910983	0.133503	0.267119
C53	C	1.341738	-0.393214	-0.163573
C54	C	1.841738	0.106786	0.336427
C55	C	1.203247	-0.446647	-0.024938
C56	C	1.703247	0.053353	0.475062
C57	C	1.203249	-0.393229	-0.024940
C58	C	1.703249	0.106771	0.475060
C59	C	1.272498	-0.366511	-0.094255
C60	C	1.772498	0.133489	0.405745
C61	C	1.272465	-0.313109	-0.094273
C62	C	1.772465	0.186891	0.405727
N63	N	1.341719	-0.286389	-0.163574
N64	N	1.841719	0.213611	0.336426
C65	C	1.410978	-0.313083	-0.232878
C66	C	1.910978	0.186917	0.267122
C67	C	1.272546	-0.799174	-0.094268
C68	C	1.772546	-0.299174	0.405732
C69	C	1.272551	-0.852588	-0.094271
C70	C	1.772551	-0.352588	0.405729
C71	C	1.411068	-0.852562	-0.232882
C72	C	1.911068	-0.352562	0.267118
C73	C	1.411056	-0.799147	-0.232885
C74	C	1.911056	-0.299147	0.267115
C75	C	1.341799	-0.772454	-0.163569
C76	C	1.841799	-0.272454	0.336431
C77	C	1.410943	-0.200915	-0.232882
C78	C	1.910943	0.299085	0.267118
C79	C	1.410919	-0.147498	-0.232884
C80	C	1.910919	0.352502	0.267116
C81	C	1.272407	-0.147529	-0.094268
C82	C	1.772407	0.352471	0.405732
C83	C	1.272426	-0.200941	-0.094271
C84	C	1.772426	0.299059	0.405729
C85	C	1.341703	-0.227632	-0.163581
C86	C	1.841703	0.272368	0.336419
O87	O	1.213569	-0.285453	-0.035392
O88	O	1.713569	0.214547	0.464608
O89	O	1.469883	-0.285444	-0.291804
O90	O	1.969883	0.214556	0.208196
C91	C	1.411024	-0.526731	-0.232868
C92	C	1.911024	-0.026731	0.267132
C93	C	1.341779	-0.553449	-0.163561
C94	C	1.841779	-0.053449	0.336439
C95	C	1.272520	-0.526755	-0.094257
C96	C	1.772520	-0.026755	0.405743
C97	C	1.341784	-0.606863	-0.163563
C98	C	1.841784	-0.106863	0.336437
C99	C	1.411042	-0.633557	-0.232867
C100	C	1.911042	-0.133557	0.267133
C101	C	1.480296	-0.606836	-0.302168
C102	C	1.980296	-0.106836	0.197832
C103	C	1.480282	-0.553425	-0.302172
C104	C	1.980282	-0.053425	0.197828
C105	C	1.203266	-0.553475	-0.024956
C106	C	1.703266	-0.053475	0.475044
C107	C	1.203285	-0.606887	-0.024958
C108	C	1.703285	-0.106887	0.475042
C109	C	1.272544	-0.633580	-0.094262
C110	C	1.772544	-0.133580	0.405738
C111	C	1.549192	-0.000050	-0.156572
C112	C	2.049192	0.499950	0.343428
C113	C	1.675206	-0.000051	-0.159587
C114	C	2.175206	0.499949	0.340413
C115	C	1.348740	-0.000047	0.043880
C116	C	1.848740	0.499953	0.543880
C117	C	1.345726	-0.000046	0.169894
C118	C	1.845726	0.499954	0.669894
N119	N	1.341809	0.120718	-0.163574
N120	N	1.841809	0.620718	0.336426
C121	C	1.334721	-0.000039	-0.371043
C122	C	1.834721	0.499961	0.128957
C123	C	1.337736	-0.000036	-0.497057
C124	C	1.837736	0.499964	0.002943
C125	C	1.340183	-0.000038	0.400606
C126	C	1.840183	0.499962	0.900606
C127	C	1.343262	-0.000042	0.272221
C128	C	1.843262	0.499958	0.772221
H129	H	1.467311	-0.125747	-0.289333
H130	H	1.967311	0.374253	0.210667
H131	H	1.146869	-0.531746	0.031483
H132	H	1.646869	-0.031746	0.531483
H133	H	1.536673	-0.531676	-0.358615
H134	H	2.036673	-0.031676	0.141385
H135	H	1.536683	-0.628580	-0.358603
H136	H	2.036683	-0.128580	0.141397
H137	H	1.146858	-0.468391	0.031507
H138	H	1.646858	0.031609	0.531507
H139	H	1.467355	-0.222640	-0.289321
H140	H	1.967355	0.277360	0.210679
H141	H	1.146882	-0.628635	0.031483
H142	H	1.646882	-0.128635	0.531483
H143	H	1.216147	-0.874337	-0.037841
H144	H	1.716147	-0.374337	0.462159
H145	H	1.216146	-0.777446	-0.037820
H146	H	1.716146	-0.277446	0.462180
H147	H	1.536636	-0.371442	-0.358622
H148	H	2.036636	0.128558	0.141378
H149	H	1.216023	-0.222696	-0.037844
H150	H	1.716023	0.277304	0.462156
H151	H	1.467444	-0.777397	-0.289327
H152	H	1.967444	-0.277397	0.210673
H153	H	1.467456	-0.874305	-0.289316
H154	H	1.967456	-0.374305	0.210684
H155	H	1.536660	-0.468331	-0.358616
H156	H	2.036660	0.031669	0.141384
H157	H	1.146851	-0.371498	0.031507
H158	H	1.646851	0.128502	0.531507
H159	H	1.216016	-0.125786	-0.037846
H160	H	1.716016	0.374214	0.462154
