data_functionalizedCrystal
_audit_creation_method	'MofGen! by Chris Wilmer'
_symmetry_space_group_name_H-M	'P1'
_symmetry_Int_Tables_number	1
_symmetry_cell_setting	triclinic
loop_
_symmetry_equiv_pos_as_xyz
  x,y,z
_cell_length_a	17.038272
_cell_length_b	17.699083
_cell_length_c	16.176319
_cell_angle_alpha	89.995661
_cell_angle_beta	90.000383
_cell_angle_gamma	92.802714
loop_
_atom_site_label
_atom_site_type_symbol
_atom_site_fract_x
_atom_site_fract_y
_atom_site_fract_z
O1	O	1.037101	-0.164334	0.068646
O2	O	0.809475	-0.161724	0.068670
O3	O	0.929719	-0.053265	0.068650
O4	O	0.916857	-0.272793	0.068666
O5	O	0.929705	-0.053264	-0.068843
O6	O	0.809460	-0.161723	-0.068823
O7	O	1.037087	-0.164333	-0.068847
Cu8	Cu	0.923272	-0.163028	-0.081389
Cu9	Cu	0.923289	-0.163029	0.081213
O10	O	0.916843	-0.272792	-0.068827
C11	C	0.780343	-0.159350	-0.000073
C12	C	0.693562	-0.152270	-0.000064
C13	C	0.929251	-0.025037	-0.000096
C14	C	0.927868	0.059072	-0.000096
N15	N	0.923266	-0.163027	-0.195754
C16	C	0.643342	-0.217280	-0.000060
C17	C	0.561802	-0.210622	-0.000072
C18	C	0.530484	-0.138953	-0.000082
C19	C	0.580710	-0.073938	-0.000089
C20	C	0.662249	-0.080597	-0.000083
C21	C	0.284764	-0.115431	-0.000106
C22	C	0.203220	-0.108777	-0.000109
C23	C	0.184317	-0.245462	-0.000094
C24	C	0.265857	-0.252114	-0.000083
C25	C	0.316077	-0.187099	-0.000094
C26	C	0.447137	-0.132147	-0.000091
C27	C	0.399422	-0.193906	-0.000091
C28	C	1.066218	-0.166707	-0.000102
C29	C	1.153000	-0.173787	-0.000105
C30	C	0.917311	-0.301020	-0.000078
C31	C	0.918693	-0.385129	-0.000073
C32	C	0.998449	0.103023	-0.000105
C33	C	0.997145	0.182053	-0.000098
C34	C	0.925260	0.217130	-0.000087
C35	C	0.854674	0.173173	-0.000076
C36	C	0.855978	0.094145	-0.000078
C37	C	0.849411	0.491885	-0.000069
C38	C	0.848112	0.570919	-0.000070
C39	C	0.990578	0.579792	-0.000089
C40	C	0.991882	0.500764	-0.000090
C41	C	0.921297	0.456814	-0.000075
C42	C	0.922711	0.371121	-0.000081
C43	C	0.923844	0.302821	-0.000087
C44	C	0.970588	-0.212007	-0.239017
C45	C	0.970596	-0.212004	-0.325564
C46	C	0.923278	-0.163025	-0.368847
C47	C	0.875955	-0.114040	-0.325578
C48	C	0.875951	-0.114039	-0.239033
C49	C	0.875969	-0.114042	-0.674607
C50	C	0.875975	-0.114048	-0.761158
C51	C	0.970615	-0.212007	-0.761138
C52	C	0.970611	-0.212006	-0.674592
C53	C	0.923291	-0.163018	-0.631331
C54	C	0.923283	-0.163020	-0.537487
C55	C	0.923281	-0.163026	-0.462689
N56	N	0.923301	-0.163025	0.195578
H57	H	0.668834	-0.275640	-0.000051
H58	H	1.048052	0.615585	-0.000097
C59	C	0.546263	0.004896	-0.000098
H60	H	0.490509	-0.000448	-0.000092
H61	H	0.563511	0.031886	-0.048046
H62	H	0.563509	0.031882	0.047854
H63	H	0.325644	-0.062490	-0.000115
H64	H	0.177724	-0.050413	-0.000117
H65	H	0.791935	0.456110	-0.000057
H66	H	1.009139	-0.251893	-0.639355
H67	H	0.291350	-0.310474	-0.000065
C68	C	0.778342	0.045796	-0.000068
H69	H	0.789413	-0.006294	-0.000061
H70	H	0.748850	0.056925	-0.048009
H71	H	0.748869	0.056922	0.047891
H72	H	1.054619	0.217834	-0.000107
C73	C	0.717491	-0.009085	-0.000079
H74	H	0.687162	0.034552	-0.000077
H75	H	0.749696	-0.008839	-0.048022
H76	H	0.749686	-0.008845	0.047878
H77	H	0.837417	-0.074155	-0.203810
C78	C	1.070956	0.462183	-0.000098
H79	H	1.112806	0.499677	-0.000094
H80	H	1.074424	0.431540	-0.048044
H81	H	1.074426	0.431537	0.047856
C82	C	1.022643	-0.265881	-0.191413
H83	H	1.050833	-0.295045	-0.229577
H84	H	0.990545	-0.298630	-0.157647
H85	H	1.058681	-0.237197	-0.157656
H86	H	0.424924	-0.252259	-0.000087
C87	C	0.769034	0.609502	-0.000048
H88	H	0.727182	0.572010	-0.000030
H89	H	0.765553	0.640151	-0.047993
H90	H	0.765580	0.640143	0.047907
H91	H	0.520915	-0.263561	-0.000068
C92	C	0.775599	0.211753	-0.000059
H93	H	0.733750	0.174257	-0.000045
H94	H	0.772119	0.242402	-0.048003
H95	H	0.772139	0.242391	0.047897
C96	C	1.077524	0.064445	-0.000116
H97	H	1.119372	0.101942	-0.000113
H98	H	1.080992	0.033804	-0.048063
H99	H	1.080998	0.033798	0.047836
C100	C	1.022647	-0.265885	-0.373149
H101	H	1.050819	-0.295061	-0.334976
H102	H	1.058689	-0.237214	-0.406910
H103	H	0.990540	-0.298634	-0.406909
H104	H	0.421629	-0.073793	-0.000123
C105	C	0.129075	-0.316971	-0.000093
H106	H	0.076028	-0.302745	-0.000105
H107	H	0.138551	-0.346146	0.047855
H108	H	0.138559	-0.346138	-0.048045
H109	H	1.009147	-0.251893	-0.796371
C110	C	0.823924	-0.060167	-0.808768
H111	H	0.795746	-0.030987	-0.770609
H112	H	0.787888	-0.088844	-0.842527
H113	H	0.856035	-0.027421	-0.842533
C114	C	0.823912	-0.060165	-0.627030
H115	H	0.795726	-0.031003	-0.665206
H116	H	0.856008	-0.027413	-0.593270
H117	H	0.787870	-0.088845	-0.593270
H118	H	0.837432	-0.074157	-0.360826
