data_functionalizedCrystal
_audit_creation_method	'MofGen! by Chris Wilmer'
_symmetry_space_group_name_H-M	'P1'
_symmetry_Int_Tables_number	1
_symmetry_cell_setting	triclinic
loop_
_symmetry_equiv_pos_as_xyz
  x,y,z
_cell_length_a	25.639239
_cell_length_b	25.639242
_cell_length_c	25.639233
_cell_angle_alpha	89.977834
_cell_angle_beta	90.018747
_cell_angle_gamma	89.965787
loop_
_atom_site_label
_atom_site_type_symbol
_atom_site_fract_x
_atom_site_fract_y
_atom_site_fract_z
Zn1	Zn	-0.208277	-0.799225	0.295742
Zn2	Zn	0.125057	-0.465892	0.629076
Zn3	Zn	0.458390	-0.132558	0.962409
Zn4	Zn	-0.295696	-0.799149	0.208307
Zn5	Zn	0.037638	-0.465815	0.541640
Zn6	Zn	0.370971	-0.132482	0.874973
Zn7	Zn	-0.208269	-0.711801	0.208306
Zn8	Zn	0.125064	-0.378468	0.541640
Zn9	Zn	0.458398	-0.045135	0.874973
Zn10	Zn	-0.295676	-0.711746	0.295696
Zn11	Zn	0.037657	-0.378413	0.629030
Zn12	Zn	0.370990	-0.045080	0.962363
O13	O	-0.251979	-0.755480	0.252013
O14	O	0.081354	-0.422147	0.585346
O15	O	0.414687	-0.088814	0.918680
O16	O	-0.219884	-0.872380	0.284163
O17	O	0.113449	-0.539047	0.617496
O18	O	0.446782	-0.205713	0.950830
O19	O	-0.284103	-0.787553	0.135141
O20	O	0.049230	-0.454219	0.468475
O21	O	0.382563	-0.120886	0.801808
O22	O	-0.135105	-0.723453	0.219924
O23	O	0.198228	-0.390120	0.553257
O24	O	0.531562	-0.056787	0.886591
O25	O	-0.284111	-0.872324	0.219924
O26	O	0.049223	-0.538991	0.553258
O27	O	0.382556	-0.205657	0.886591
O28	O	-0.135111	-0.787683	0.284163
O29	O	0.198223	-0.454350	0.617496
O30	O	0.531556	-0.121016	0.950829
O31	O	-0.219871	-0.723379	0.135141
O32	O	0.113462	-0.390046	0.468474
O33	O	0.446795	-0.056712	0.801808
O34	O	-0.219853	-0.638629	0.219880
O35	O	0.113481	-0.305296	0.553213
O36	O	0.446814	0.028038	0.886546
O37	O	-0.284078	-0.723360	0.368868
O38	O	0.049256	-0.390026	0.702201
O39	O	0.382589	-0.056693	1.035534
O40	O	-0.284070	-0.638589	0.284085
O41	O	0.049263	-0.305255	0.617418
O42	O	0.382597	0.028078	0.950751
O43	O	-0.219866	-0.787630	0.368901
O44	O	0.113468	-0.454297	0.702235
O45	O	0.446801	-0.120963	1.035568
O46	O	-0.368858	-0.787499	0.219880
O47	O	-0.035525	-0.454166	0.553213
O48	O	0.297808	-0.120833	0.886547
O49	O	-0.368844	-0.723286	0.284085
O50	O	-0.035511	-0.389952	0.617418
O51	O	0.297823	-0.056619	0.950752
C52	C	-0.387822	-0.755392	0.251989
C53	C	-0.054489	-0.422059	0.585322
C54	C	0.278845	-0.088726	0.918656
C55	C	-0.445936	-0.755403	0.251996
C56	C	-0.112603	-0.422069	0.585330
C57	C	0.220731	-0.088736	0.918663
C58	C	-0.251959	-0.619638	0.251977
C59	C	0.081375	-0.286304	0.585311
C60	C	0.414708	0.047029	0.918644
C61	C	-0.251963	-0.561524	0.251975
C62	C	0.081371	-0.228190	0.585308
C63	C	0.414704	0.105143	0.918641
C64	C	-0.806294	-0.789004	0.218638
C65	C	-0.472961	-0.455670	0.551972
C66	C	-0.139627	-0.122337	0.885305
C67	C	-0.860898	-0.789024	0.218645
C68	C	-0.527565	-0.455691	0.551979
C69	C	-0.194232	-0.122357	0.885312
O70	O	-0.889131	-0.817502	0.190257
O71	O	-0.555797	-0.484168	0.523590
O72	O	-0.222464	-0.150835	0.856924
N73	N	-0.888218	-0.755572	0.252048
N74	N	-0.554885	-0.422239	0.585381
N75	N	-0.221552	-0.088906	0.918714
C76	C	-0.860932	-0.722102	0.285449
C77	C	-0.527598	-0.388768	0.618782
C78	C	-0.194265	-0.055435	0.952115
O79	O	-0.889184	-0.693651	0.313861
O80	O	-0.555850	-0.360317	0.647194
O81	O	-0.222517	-0.026984	0.980528
C82	C	-0.806328	-0.722085	0.285444
C83	C	-0.472995	-0.388751	0.618777
C84	C	-0.139662	-0.055418	0.952111
C85	C	-0.779011	-0.755535	0.252036
C86	C	-0.445678	-0.422201	0.585369
C87	C	-0.112344	-0.088868	0.918702
C88	C	-0.778976	-0.822452	0.185233
C89	C	-0.445643	-0.489118	0.518567
C90	C	-0.112310	-0.155785	0.851900
C91	C	-0.724376	-0.822431	0.185226
C92	C	-0.391043	-0.489097	0.518559
C93	C	-0.057709	-0.155764	0.851892
C94	C	-0.697093	-0.788962	0.218623
C95	C	-0.363760	-0.455628	0.551957
C96	C	-0.030426	-0.122295	0.885290
C97	C	-0.724410	-0.755514	0.252028
C98	C	-0.391077	-0.422180	0.585362
C99	C	-0.057744	-0.088847	0.918695
C100	C	-0.779042	-0.688617	0.318847
C101	C	-0.445709	-0.355284	0.652181
C102	C	-0.112376	-0.021950	0.985514
C103	C	-0.724435	-0.688603	0.318840
C104	C	-0.391102	-0.355270	0.652173
C105	C	-0.057769	-0.021936	0.985507
C106	C	-0.697118	-0.722053	0.285432
C107	C	-0.363785	-0.388720	0.618765
C108	C	-0.030451	-0.055387	0.952099
C109	C	-0.642527	-0.722024	0.285418
C110	C	-0.309193	-0.388690	0.618751
C111	C	0.024140	-0.055357	0.952085
N112	N	-0.615206	-0.755475	0.252016
N113	N	-0.281873	-0.422142	0.585349
N114	N	0.051460	-0.088809	0.918683
C115	C	-0.642490	-0.788944	0.218618
C116	C	-0.309156	-0.455611	0.551952
C117	C	0.024177	-0.122278	0.885285
C118	C	-0.975602	-0.722141	0.285457
C119	C	-0.642269	-0.388808	0.618790
C120	C	-0.308936	-0.055474	0.952123
C121	C	-1.030204	-0.722155	0.285459
C122	C	-0.696871	-0.388822	0.618793
C123	C	-0.363538	-0.055489	0.952126
C124	C	-1.030167	-0.789078	0.218656
C125	C	-0.696834	-0.455745	0.551990
C126	C	-0.363501	-0.122412	0.885323
C127	C	-0.975564	-0.789061	0.218652
C128	C	-0.642231	-0.455728	0.551985
C129	C	-0.308897	-0.122395	0.885318
C130	C	-0.948282	-0.755593	0.252055
C131	C	-0.614949	-0.422260	0.585388
C132	C	-0.281615	-0.088926	0.918721
C133	C	-0.527824	-0.788897	0.218605
C134	C	-0.194491	-0.455564	0.551938
C135	C	0.138842	-0.122231	0.885272
C136	C	-0.473219	-0.788872	0.218599
C137	C	-0.139886	-0.455538	0.551932
C138	C	0.193448	-0.122205	0.885265
C139	C	-0.473261	-0.721951	0.285403
C140	C	-0.139928	-0.388617	0.618737
C141	C	0.193406	-0.055284	0.952070
C142	C	-0.527862	-0.721974	0.285408
C143	C	-0.194528	-0.388641	0.618741
C144	C	0.138805	-0.055307	0.952074
C145	C	-0.555142	-0.755452	0.252007
C146	C	-0.221809	-0.422118	0.585340
C147	C	0.111525	-0.088785	0.918673
O148	O	-0.614260	-0.693562	0.313793
O149	O	-0.280926	-0.360229	0.647127
O150	O	0.052407	-0.026895	0.980460
O151	O	-0.614231	-0.817396	0.190216
O152	O	-0.280898	-0.484062	0.523549
O153	O	0.052436	-0.150729	0.856883
C154	C	-0.251970	-0.755497	0.388386
C155	C	0.081363	-0.422164	0.721719
C156	C	0.414696	-0.088831	1.055053
C157	C	-0.251966	-0.755504	0.446500
C158	C	0.081367	-0.422171	0.779833
C159	C	0.414700	-0.088838	1.113167
C160	C	-0.115606	-0.755583	0.252048
C161	C	0.217727	-0.422250	0.585382
C162	C	0.551060	-0.088916	0.918715
C163	C	-0.057492	-0.755627	0.252064
C164	C	0.275841	-0.422293	0.585397
C165	C	0.609174	-0.088960	0.918730
C166	C	-0.252000	-0.891853	0.252049
C167	C	0.081333	-0.558520	0.585382
C168	C	0.414666	-0.225187	0.918715
C169	C	-0.252009	-0.949967	0.252064
C170	C	0.081324	-0.616634	0.585397
C171	C	0.414657	-0.283301	0.918731
C172	C	-0.285473	-0.201149	0.285413
C173	C	0.047860	0.132185	0.618746
C174	C	0.381193	0.465518	0.952080
C175	C	-0.285477	-0.146544	0.285421
C176	C	0.047857	0.186789	0.618754
C177	C	0.381190	0.520122	0.952088
O178	O	-0.313943	-0.118297	0.313821
O179	O	0.019390	0.215036	0.647155
O180	O	0.352724	0.548369	0.980488
N181	N	-0.251994	-0.119241	0.252047
N182	N	0.081340	0.214092	0.585380
N183	N	0.414673	0.547425	0.918714
C184	C	-0.218502	-0.146545	0.218666
C185	C	0.114831	0.186788	0.552000
C186	C	0.448165	0.520121	0.885333
O187	O	-0.190022	-0.118308	0.190280
O188	O	0.143311	0.215025	0.523613
O189	O	0.476644	0.548359	0.856947
C190	C	-0.218496	-0.201149	0.218661
C191	C	0.114837	0.132185	0.551994
C192	C	0.448170	0.465518	0.885328
C193	C	-0.251985	-0.228449	0.252034
C194	C	0.081348	0.104884	0.585367
C195	C	0.414681	0.438218	0.918700
C196	C	-0.318959	-0.228449	0.318783
C197	C	0.014374	0.104885	0.652116
C198	C	0.347708	0.438218	0.985450
C199	C	-0.318956	-0.283049	0.318774
C200	C	0.014377	0.050284	0.652107
C201	C	0.347710	0.383617	0.985441
C202	C	-0.285468	-0.310350	0.285395
C203	C	0.047865	0.022984	0.618728
C204	C	0.381199	0.356317	0.952061
C205	C	-0.251983	-0.283049	0.252024
C206	C	0.081351	0.050284	0.585358
C207	C	0.414684	0.383617	0.918691
C208	C	-0.185002	-0.228452	0.185283
C209	C	0.148331	0.104881	0.518617
C210	C	0.481664	0.438215	0.851950
C211	C	-0.185000	-0.283059	0.185281
C212	C	0.148334	0.050274	0.518615
C213	C	0.481667	0.383608	0.851948
C214	C	-0.218488	-0.310359	0.218654
C215	C	0.114845	0.022974	0.551987
C216	C	0.448178	0.356308	0.885320
C217	C	-0.218492	-0.364950	0.218636
C218	C	0.114842	-0.031617	0.551969
C219	C	0.448175	0.301716	0.885303
N220	N	-0.251974	-0.392253	0.252010
N221	N	0.081359	-0.058920	0.585344
N222	N	0.414692	0.274413	0.918677
C223	C	-0.285463	-0.364953	0.285389
C224	C	0.047871	-0.031620	0.618723
C225	C	0.381204	0.301714	0.952056
C226	C	-0.218515	-0.031875	0.218680
C227	C	0.114818	0.301459	0.552014
C228	C	0.448151	0.634792	0.885347
C229	C	-0.218523	0.022728	0.218683
C230	C	0.114810	0.356061	0.552016
C231	C	0.448144	0.689394	0.885349
C232	C	-0.285497	0.022725	0.285438
C233	C	0.047836	0.356058	0.618772
C234	C	0.381170	0.689392	0.952105
C235	C	-0.285492	-0.031878	0.285433
C236	C	0.047842	0.301455	0.618766
C237	C	0.381175	0.634788	0.952100
C238	C	-0.251998	-0.059178	0.252054
C239	C	0.081335	0.274156	0.585388
C240	C	0.414669	0.607489	0.918721
C241	C	-0.285455	-0.479618	0.285368
C242	C	0.047878	-0.146285	0.618701
C243	C	0.381212	0.187049	0.952034
C244	C	-0.285451	-0.534223	0.285354
C245	C	0.047883	-0.200890	0.618687
C246	C	0.381216	0.132443	0.952021
C247	C	-0.218475	-0.534216	0.218601
C248	C	0.114858	-0.200883	0.551934
C249	C	0.448192	0.132451	0.885267
C250	C	-0.218481	-0.479615	0.218612
C251	C	0.114853	-0.146282	0.551945
C252	C	0.448186	0.187051	0.885279
C253	C	-0.251972	-0.452318	0.252000
C254	C	0.081361	-0.118984	0.585333
C255	C	0.414694	0.214349	0.918666
O256	O	-0.190038	-0.393232	0.190252
O257	O	0.143295	-0.059899	0.523585
O258	O	0.476628	0.273435	0.856918
O259	O	-0.313933	-0.393197	0.313776
O260	O	0.019401	-0.059864	0.647109
O261	O	0.352734	0.273470	0.980442
C262	C	-0.251951	-0.755494	0.116170
C263	C	0.081383	-0.422160	0.449504
C264	C	0.414716	-0.088827	0.782837
C265	C	-0.251807	-0.755588	0.058057
C266	C	0.081526	-0.422254	0.391390
C267	C	0.414859	-0.088921	0.724723
C268	C	-0.218432	-0.789012	0.806886
C269	C	0.114902	-0.455679	1.140220
C270	C	0.448235	-0.122346	1.473553
C271	C	-0.218417	-0.789019	0.861491
C272	C	0.114916	-0.455685	1.194824
C273	C	0.448249	-0.122352	1.528157
O274	O	-0.189967	-0.817466	0.889747
O275	O	0.143367	-0.484133	1.223080
O276	O	0.476700	-0.150799	1.556414
N277	N	-0.251844	-0.755562	0.888783
N278	N	0.081490	-0.422229	1.222116
N279	N	0.414823	-0.088895	1.555449
C280	C	-0.285283	-0.722093	0.861468
C281	C	0.048050	-0.388760	1.194801
C282	C	0.381384	-0.055426	1.528134
O283	O	-0.313713	-0.693636	0.889695
O284	O	0.019620	-0.360302	1.223029
O285	O	0.352954	-0.026969	1.556362
C286	C	-0.285294	-0.722084	0.806864
C287	C	0.048039	-0.388751	1.140198
C288	C	0.381372	-0.055418	1.473531
C289	C	-0.251870	-0.755547	0.779575
C290	C	0.081464	-0.422214	1.112908
C291	C	0.414797	-0.088880	1.446242
C292	C	-0.185009	-0.822472	0.779597
C293	C	0.148324	-0.489138	1.112930
C294	C	0.481657	-0.155805	1.446264
C295	C	-0.185025	-0.822466	0.724997
C296	C	0.148309	-0.489133	1.058330
C297	C	0.481642	-0.155799	1.391663
C298	C	-0.218462	-0.789000	0.697685
C299	C	0.114871	-0.455667	1.031019
C300	C	0.448204	-0.122334	1.364352
C301	C	-0.251885	-0.755541	0.724974
C302	C	0.081448	-0.422208	1.058308
C303	C	0.414782	-0.088874	1.391641
C304	C	-0.318731	-0.688613	0.779550
C305	C	0.014603	-0.355280	1.112883
C306	C	0.347936	-0.021946	1.446217
C307	C	-0.318739	-0.688607	0.724943
C308	C	0.014594	-0.355273	1.058276
C309	C	0.347928	-0.021940	1.391610
C310	C	-0.285314	-0.722069	0.697654
C311	C	0.048019	-0.388736	1.030987
C312	C	0.381352	-0.055403	1.364320
C313	C	-0.285338	-0.722070	0.643063
C314	C	0.047995	-0.388736	0.976396
C315	C	0.381329	-0.055403	1.309729
N316	N	-0.251912	-0.755526	0.615771
N317	N	0.081422	-0.422193	0.949104
N318	N	0.414755	-0.088860	1.282437
C319	C	-0.218474	-0.788992	0.643082
C320	C	0.114860	-0.455658	0.976415
C321	C	0.448193	-0.122325	1.309749
C322	C	-0.285256	-0.722113	0.976138
C323	C	0.048077	-0.388780	1.309472
C324	C	0.381411	-0.055446	1.642805
C325	C	-0.285247	-0.722124	1.030741
C326	C	0.048086	-0.388791	1.364074
C327	C	0.381419	-0.055457	1.697407
C328	C	-0.218381	-0.789049	1.030760
C329	C	0.114952	-0.455716	1.364093
C330	C	0.448286	-0.122383	1.697427
C331	C	-0.218392	-0.789041	0.976157
C332	C	0.114941	-0.455707	1.309490
C333	C	0.448274	-0.122374	1.642823
C334	C	-0.251829	-0.755570	0.948846
C335	C	0.081504	-0.422237	1.282180
C336	C	0.414837	-0.088903	1.615513
C337	C	-0.218509	-0.788977	0.528417
C338	C	0.114825	-0.455644	0.861750
C339	C	0.448158	-0.122311	1.195083
C340	C	-0.218529	-0.788970	0.473811
C341	C	0.114805	-0.455636	0.807145
C342	C	0.448138	-0.122303	1.140478
C343	C	-0.285393	-0.722043	0.473797
C344	C	0.047940	-0.388710	0.807130
C345	C	0.381274	-0.055376	1.140463
C346	C	-0.285375	-0.722052	0.528397
C347	C	0.047958	-0.388719	0.861731
C348	C	0.381291	-0.055385	1.195064
C349	C	-0.251929	-0.755521	0.555706
C350	C	0.081404	-0.422187	0.889039
C351	C	0.414738	-0.088854	1.222373
O352	O	-0.313773	-0.693635	0.614771
O353	O	0.019561	-0.360302	0.948105
O354	O	0.352894	-0.026969	1.281438
O355	O	-0.190044	-0.817439	0.614847
O356	O	0.143290	-0.484106	0.948181
O357	O	0.476623	-0.150773	1.281514
H358	H	-0.450979	-0.816111	0.191392
H359	H	-0.117646	-0.482777	0.524725
H360	H	0.215688	-0.149444	0.858059
H361	H	-0.191258	0.044951	0.191502
H362	H	0.142075	0.378284	0.524835
H363	H	0.475408	0.711617	0.858169
H364	H	-0.157734	-0.206233	0.158106
H365	H	0.175600	0.127100	0.491440
H366	H	0.508933	0.460433	0.824773
H367	H	-0.550030	-0.816159	0.191408
H368	H	-0.216696	-0.482826	0.524741
H369	H	0.116637	-0.149492	0.858074
H370	H	-0.346229	-0.206227	0.345967
H371	H	-0.012896	0.127107	0.679301
H372	H	0.320437	0.460440	1.012634
H373	H	-0.157777	-0.849723	0.801828
H374	H	0.175556	-0.516390	1.135162
H375	H	0.508889	-0.183057	1.468495
H376	H	-0.312597	-0.694809	0.550617
H377	H	0.020736	-0.361475	0.883951
H378	H	0.354069	-0.028142	1.217284
N379	N	-0.150777	-0.310936	0.151186
N380	N	0.182556	0.022398	0.484519
N381	N	0.515889	0.355731	0.817853
N382	N	-0.120880	-0.286549	0.121397
N383	N	0.212453	0.046784	0.454730
N384	N	0.545787	0.380117	0.788064
H385	H	-0.096710	-0.306236	0.097317
H386	H	0.236623	0.027097	0.430651
H387	H	0.569956	0.360431	0.763984
H388	H	-0.191211	-0.556454	0.191422
H389	H	0.142122	-0.223121	0.524756
H390	H	0.475455	0.110213	0.858089
N391	N	-0.319697	-0.059771	0.319517
N392	N	0.013636	0.273563	0.652851
N393	N	0.346970	0.606896	0.986184
N394	N	-0.352984	-0.090215	0.301060
N395	N	-0.019651	0.243119	0.634393
N396	N	0.313683	0.576452	0.967727
H397	H	-0.377143	-0.109912	0.325133
H398	H	-0.043810	0.223421	0.658467
H399	H	0.289524	0.556754	0.991800
N400	N	-0.184276	-0.451734	0.184515
N401	N	0.149057	-0.118401	0.517848
N402	N	0.482391	0.214933	0.851182
N403	N	-0.154380	-0.476119	0.154713
N404	N	0.178953	-0.142785	0.488046
N405	N	0.512287	0.190548	0.821380
H406	H	-0.130219	-0.456431	0.130634
H407	H	0.203115	-0.123098	0.463968
H408	H	0.536448	0.210236	0.797301
H409	H	-0.312763	0.044963	0.312619
H410	H	0.020570	0.378296	0.645953
H411	H	0.353903	0.711629	0.979286
N412	N	-0.319394	-0.687953	1.058620
N413	N	0.013939	-0.354620	1.391954
N414	N	0.347272	-0.021287	1.725287
N415	N	-0.352708	-0.706325	1.089092
N416	N	-0.019374	-0.372992	1.422426
N417	N	0.313959	-0.039658	1.755759
H418	H	-0.376823	-0.682190	1.108782
H419	H	-0.043490	-0.348856	1.442115
H420	H	0.289843	-0.015523	1.775448
N421	N	-1.058050	-0.823263	0.184543
N422	N	-0.724717	-0.489930	0.517876
N423	N	-0.391384	-0.156596	0.851209
N424	N	-1.106803	-0.823271	0.184557
N425	N	-0.773469	-0.489937	0.517890
N426	N	-0.440136	-0.156604	0.851223
H427	H	-1.126497	-0.847411	0.160465
H428	H	-0.793164	-0.514078	0.493798
H429	H	-0.459830	-0.180744	0.827132
H430	H	-0.191241	-0.054099	0.191496
H431	H	0.142092	0.279235	0.524829
H432	H	0.475425	0.612568	0.858162
H433	H	-1.052442	-0.694912	0.312659
H434	H	-0.719108	-0.361579	0.645992
H435	H	-0.385775	-0.028245	0.979325
N436	N	-0.806839	-0.856633	0.151105
N437	N	-0.473506	-0.523300	0.484439
N438	N	-0.140172	-0.189966	0.817772
N439	N	-0.837332	-0.838269	0.117766
N440	N	-0.503999	-0.504935	0.451099
N441	N	-0.170666	-0.171602	0.784433
H442	H	-0.857007	-0.862408	0.093657
H443	H	-0.523674	-0.529075	0.426991
H444	H	-0.190341	-0.195742	0.760324
N445	N	-0.319652	-0.562110	0.319452
N446	N	0.013681	-0.228776	0.652786
N447	N	0.347014	0.104557	0.986119
N448	N	-0.301306	-0.592606	0.352800
N449	N	0.032028	-0.259273	0.686133
N450	N	0.365361	0.074061	1.019466
H451	H	-0.325459	-0.612299	0.376882
H452	H	0.007874	-0.278966	0.710215
H453	H	0.341208	0.054367	1.043548
N454	N	-0.184383	-0.823159	0.445945
N455	N	0.148950	-0.489825	0.779278
N456	N	0.482283	-0.156492	1.112612
N457	N	-0.154531	-0.853035	0.470341
N458	N	0.178802	-0.519701	0.803674
N459	N	0.512136	-0.186368	1.137008
H460	H	-0.130416	-0.877180	0.450662
H461	H	0.202917	-0.543847	0.783996
H462	H	0.536250	-0.210513	1.117329
N463	N	-0.352879	-0.654425	0.807403
N464	N	-0.019545	-0.321092	1.140736
N465	N	0.313788	0.012242	1.474070
N466	N	-0.349405	-0.606183	0.801282
N467	N	-0.016072	-0.272850	1.134615
N468	N	0.317262	0.060484	1.467948
H469	H	-0.373526	-0.582036	0.820950
H470	H	-0.040193	-0.248702	1.154283
H471	H	0.293140	0.084631	1.487616
N472	N	-0.947655	-0.823224	0.184527
N473	N	-0.614322	-0.489891	0.517860
N474	N	-0.280989	-0.156557	0.851194
N475	N	-0.917217	-0.804842	0.151187
N476	N	-0.583884	-0.471509	0.484520
N477	N	-0.250551	-0.138175	0.817853
H478	H	-0.897509	-0.828971	0.127084
H479	H	-0.564175	-0.495637	0.460417
H480	H	-0.230842	-0.162304	0.793751
H481	H	-0.312487	-0.694857	0.953905
H482	H	0.020846	-0.361523	1.287239
H483	H	0.354180	-0.028190	1.620572
N484	N	-0.696576	-0.654415	0.352968
N485	N	-0.363243	-0.321081	0.686301
N486	N	-0.029910	0.012252	1.019635
N487	N	-0.720978	-0.624555	0.382792
N488	N	-0.387645	-0.291222	0.716126
N489	N	-0.054311	0.042112	1.049459
H490	H	-0.701304	-0.600409	0.406895
H491	H	-0.367971	-0.267076	0.740228
H492	H	-0.034637	0.066258	1.073562
N493	N	-0.184339	-0.823165	0.556299
N494	N	0.148995	-0.489831	0.889632
N495	N	0.482328	-0.156498	1.222965
N496	N	-0.154501	-0.853033	0.531918
N497	N	0.178832	-0.519700	0.865251
N498	N	0.512166	-0.186367	1.198585
H499	H	-0.130369	-0.877180	0.551609
H500	H	0.202964	-0.543846	0.884942
H501	H	0.536297	-0.210513	1.218275
N502	N	-0.150879	-0.856651	0.697134
N503	N	0.182455	-0.523318	1.030467
N504	N	0.515788	-0.189985	1.363800
N505	N	-0.121028	-0.886526	0.721534
N506	N	0.212305	-0.553192	1.054868
N507	N	0.545638	-0.219859	1.388201
H508	H	-0.096910	-0.910671	0.701860
H509	H	0.236423	-0.577337	1.035193
H510	H	0.569756	-0.244004	1.368526
H511	H	-0.191174	-0.816288	0.953941
H512	H	0.142159	-0.482955	1.287275
H513	H	0.475493	-0.149621	1.620608
H514	H	-0.702137	-0.849670	0.158024
H515	H	-0.368804	-0.516337	0.491357
H516	H	-0.035471	-0.183003	0.824690
H517	H	-0.191153	-0.816298	1.053007
H518	H	0.142181	-0.482964	1.386340
H519	H	0.475514	-0.149631	1.719673
N520	N	-0.555761	-0.687794	0.319527
N521	N	-0.222427	-0.354461	0.652860
N522	N	0.110906	-0.021128	0.986193
N523	N	-0.531392	-0.657910	0.349339
N524	N	-0.198058	-0.324577	0.682672
N525	N	0.135275	0.008757	1.016006
H526	H	-0.551092	-0.633771	0.373439
H527	H	-0.217758	-0.300438	0.706772
H528	H	0.115575	0.032896	1.040105
H529	H	-0.345963	-0.661345	0.702710
H530	H	-0.012629	-0.328011	1.036043
H531	H	0.320704	0.005322	1.369376
N532	N	-0.947744	-0.687947	0.319581
N533	N	-0.614411	-0.354613	0.652914
N534	N	-0.281078	-0.021280	0.986248
N535	N	-0.972149	-0.658084	0.349400
N536	N	-0.638816	-0.324751	0.682733
N537	N	-0.305482	0.008583	1.016067
H538	H	-0.952477	-0.633935	0.373501
H539	H	-0.619144	-0.300601	0.706835
H540	H	-0.285811	0.032732	1.040168
N541	N	-0.319548	-0.687868	0.445885
N542	N	0.013785	-0.354534	0.779218
N543	N	0.347119	-0.021201	1.112552
N544	N	-0.319552	-0.687871	0.397133
N545	N	0.013781	-0.354538	0.730466
N546	N	0.347115	-0.021204	1.063799
H547	H	-0.343673	-0.663733	0.377418
H548	H	-0.010340	-0.330400	0.710751
H549	H	0.322994	0.002933	1.044084
H550	H	-0.801275	-0.661376	0.346049
H551	H	-0.467942	-0.328042	0.679383
H552	H	-0.134608	0.005291	1.012716
N553	N	-0.445377	-0.687772	0.319516
N554	N	-0.112043	-0.354439	0.652850
N555	N	0.221290	-0.021106	0.986183
N556	N	-0.414873	-0.706142	0.352843
N557	N	-0.081540	-0.372809	0.686177
N558	N	0.251793	-0.039476	1.019510
H559	H	-0.395177	-0.682006	0.376938
H560	H	-0.061844	-0.348673	0.710271
H561	H	0.271489	-0.015340	1.043605
H562	H	-0.312726	-0.457399	0.312556
H563	H	0.020608	-0.124065	0.645890
H564	H	0.353941	0.209268	0.979223
H565	H	-0.346225	-0.305272	0.345950
H566	H	-0.012892	0.028061	0.679284
H567	H	0.320441	0.361394	1.012617
