data_functionalizedCrystal
_audit_creation_method	'MofGen! by Chris Wilmer'
_symmetry_space_group_name_H-M	'P1'
_symmetry_Int_Tables_number	1
_symmetry_cell_setting	triclinic
loop_
_symmetry_equiv_pos_as_xyz
  x,y,z
_cell_length_a	14.853569
_cell_length_b	14.853559
_cell_length_c	13.330367
_cell_angle_alpha	89.997552
_cell_angle_beta	89.994419
_cell_angle_gamma	83.633509
loop_
_atom_site_label
_atom_site_type_symbol
_atom_site_fract_x
_atom_site_fract_y
_atom_site_fract_z
O1	O	1.196364	0.117711	-0.083373
O2	O	1.696364	0.617711	0.416627
O3	O	0.933905	0.131731	-0.083384
O4	O	1.433905	0.631731	0.416616
O5	O	1.072149	-0.006510	-0.083377
O6	O	1.572149	0.493490	0.416623
O7	O	1.058120	0.255951	-0.083380
O8	O	1.558120	0.755951	0.416620
O9	O	1.072129	-0.006513	0.083470
O10	O	1.572129	0.493487	0.583470
O11	O	0.933885	0.131728	0.083463
O12	O	1.433885	0.631728	0.583463
O13	O	1.196344	0.117708	0.083475
O14	O	1.696344	0.617708	0.583475
Cu15	Cu	1.065113	0.124717	0.098703
Cu16	Cu	1.565113	0.624717	0.598703
Cu17	Cu	1.065136	0.124721	-0.098613
Cu18	Cu	1.565136	0.624721	0.401387
O19	O	1.058100	0.255948	0.083467
O20	O	1.558100	0.755948	0.583467
C21	C	0.900306	0.131094	0.000038
C22	C	1.400306	0.631094	0.500038
C23	C	0.800222	0.129189	0.000033
C24	C	1.300222	0.629189	0.500033
C25	C	0.763848	0.046178	0.000031
C26	C	1.263848	0.546178	0.500031
C27	C	0.742554	0.210411	0.000040
C28	C	1.242554	0.710411	0.500040
C29	C	0.648520	0.208625	0.000041
C30	C	1.148520	0.708625	0.500041
C31	C	0.612146	0.125614	0.000039
C32	C	1.112146	0.625614	0.500039
C33	C	0.669806	0.044389	0.000035
C34	C	1.169806	0.544389	0.500035
C35	C	0.590853	0.289848	0.000055
C36	C	1.090853	0.789848	0.500055
C37	C	0.496812	0.288065	0.000058
C38	C	0.996812	0.788065	0.500058
C39	C	0.460437	0.205053	0.000048
C40	C	0.960437	0.705053	0.500048
C41	C	0.518103	0.123825	0.000043
C42	C	1.018103	0.623825	0.500043
C43	C	0.481729	0.040813	0.000040
C44	C	0.981729	0.540813	0.500040
C45	C	0.539394	-0.040416	0.000028
C46	C	1.039394	0.459584	0.500028
C47	C	0.633430	-0.038623	0.000025
C48	C	1.133430	0.461377	0.500025
C49	C	0.366401	0.203260	0.000051
C50	C	0.866401	0.703260	0.500051
C51	C	0.387687	0.039024	0.000044
C52	C	0.887687	0.539024	0.500044
C53	C	1.071505	-0.040100	0.000045
C54	C	1.571505	0.459900	0.500045
C55	C	1.069604	-0.140184	0.000039
C56	C	1.569604	0.359816	0.500039
C57	C	1.061551	-0.563357	-0.090910
C58	C	1.561551	-0.063357	0.409090
C59	C	1.061529	-0.563356	0.090993
C60	C	1.561529	-0.063356	0.590993
C61	C	1.063323	-0.469322	0.090994
C62	C	1.563323	0.030678	0.590994
C63	C	1.064229	-0.422302	0.000042
C64	C	1.564229	0.077698	0.500042
C65	C	1.063342	-0.469315	-0.090912
C66	C	1.563342	0.030685	0.409088
C67	C	1.064201	-0.422301	0.181946
C68	C	1.564201	0.077699	0.681946
C69	C	1.065993	-0.328262	0.181951
C70	C	1.565993	0.171738	0.681951
C71	C	1.066906	-0.281241	0.090997
C72	C	1.566906	0.218759	0.590997
C73	C	1.066020	-0.328260	0.000040
C74	C	1.566020	0.171740	0.500040
C75	C	1.066926	-0.281239	-0.090913
C76	C	1.566926	0.218761	0.409087
C77	C	1.066047	-0.328258	-0.181871
C78	C	1.566047	0.171742	0.318129
C79	C	1.064255	-0.422294	-0.181865
C80	C	1.564255	0.077706	0.318135
C81	C	1.068698	-0.187204	0.090992
C82	C	1.568698	0.312796	0.590992
C83	C	1.068717	-0.187197	-0.090914
C84	C	1.568717	0.312803	0.409086
C85	C	1.229943	0.118345	0.000050
C86	C	1.729943	0.618345	0.500050
C87	C	1.330027	0.120249	0.000048
C88	C	1.830027	0.620249	0.500048
C89	C	1.058744	0.289538	0.000044
C90	C	1.558744	0.789538	0.500044
C91	C	1.060645	0.389622	0.000043
C92	C	1.560645	0.889622	0.500043
N93	N	1.065102	0.124714	0.237485
N94	N	1.565102	0.624714	0.737485
N95	N	1.065154	0.124717	-0.237394
N96	N	1.565154	0.624717	0.262606
C97	C	1.003919	0.185910	0.710105
C98	C	1.503919	0.685910	1.210105
C99	C	1.126378	0.063525	0.710079
C100	C	1.626378	0.563525	1.210079
C101	C	1.126368	0.063522	0.605060
C102	C	1.626368	0.563522	1.105060
C103	C	1.065133	0.124715	0.552559
C104	C	1.565133	0.624715	1.052559
C105	C	1.003909	0.185911	0.605076
C106	C	1.503909	0.685911	1.105076
C107	C	1.187597	0.002334	0.552535
C108	C	1.687597	0.502334	1.052535
C109	C	1.187590	0.002330	0.447511
C110	C	1.687590	0.502330	0.947511
C111	C	1.126350	0.063519	0.395008
C112	C	1.626350	0.563519	0.895008
C113	C	1.065123	0.124716	0.447531
C114	C	1.565123	0.624716	0.947531
C115	C	1.003888	0.185909	0.395030
C116	C	1.503888	0.685909	0.895030
C117	C	0.942656	0.247102	0.447552
C118	C	1.442656	0.747102	0.947552
C119	C	0.942669	0.247100	0.552573
C120	C	1.442669	0.747100	1.052573
C121	C	1.126337	0.063522	0.289986
C122	C	1.626337	0.563522	0.789986
C123	C	1.003878	0.185910	0.290002
C124	C	1.503878	0.685910	0.790002
H125	H	0.620476	0.357431	0.000064
H126	H	1.120476	0.857431	0.500064
H127	H	0.810803	-0.019956	0.000017
H128	H	1.310803	0.480044	0.500017
H129	H	0.319454	0.269396	0.000070
H130	H	0.819454	0.769396	0.500070
O131	O	1.060567	-0.614075	0.189083
O132	O	1.560567	-0.114075	0.689083
H133	H	0.998359	-0.648968	0.193435
H134	H	1.498359	-0.148968	0.693435
H135	H	0.772176	0.277995	0.000049
H136	H	1.272176	0.777995	0.500049
H137	H	0.449869	0.354207	0.000066
H138	H	0.949869	0.854207	0.500066
H139	H	1.069393	-0.148924	0.165048
H140	H	1.569393	0.351076	0.665048
O141	O	0.937834	0.251914	0.233375
O142	O	1.437834	0.751914	0.733375
H143	H	0.895266	0.294465	0.287543
H144	H	1.395266	0.794465	0.787543
O145	O	1.192424	-0.002466	0.766705
O146	O	1.692424	0.497534	1.266705
H147	H	1.235000	-0.045013	0.712541
H148	H	1.735000	0.454987	1.212541
O149	O	1.253645	-0.063659	0.609158
O150	O	1.753645	0.436341	1.109158
H151	H	1.215649	-0.107554	0.657008
H152	H	1.715649	0.392446	1.157008
O153	O	0.876602	0.313086	0.390911
O154	O	1.376602	0.813086	0.890911
H155	H	0.914594	0.356969	0.343042
H156	H	1.414594	0.856969	0.843042
H157	H	1.063538	-0.460584	-0.255919
H158	H	1.563538	0.039416	0.244081
H159	H	0.892816	0.296922	0.595343
H160	H	1.392816	0.796922	1.095343
O161	O	0.937888	0.251921	0.766744
O162	O	1.437888	0.751921	1.266744
H163	H	0.867595	0.240307	0.746608
H164	H	1.367595	0.740307	1.246608
O165	O	1.253619	-0.063677	0.390863
O166	O	1.753619	0.436323	0.890863
H167	H	1.296195	-0.106232	0.445016
H168	H	1.796195	0.393768	0.945016
O169	O	1.069687	-0.136481	-0.189014
O170	O	1.569687	0.363519	0.310986
H171	H	1.068765	-0.184975	-0.252256
H172	H	1.568765	0.315025	0.247744
H173	H	1.060839	-0.601644	-0.164966
H174	H	1.560839	-0.101644	0.335034
H175	H	0.358079	-0.028574	0.000037
H176	H	0.858079	0.471426	0.500037
H177	H	0.509766	-0.108003	0.000020
H178	H	1.009766	0.391997	0.500020
H179	H	1.066778	-0.289961	-0.255924
H180	H	1.566778	0.210039	0.244076
O181	O	1.063245	-0.473013	0.280041
O182	O	1.563245	0.026987	0.780041
H183	H	1.061872	-0.546304	0.264759
H184	H	1.561872	-0.046304	0.764759
H185	H	1.176196	0.013703	0.247228
H186	H	1.676196	0.513703	0.747228
O187	O	0.695621	-0.126230	0.000032
O188	O	1.195621	0.373770	0.500032
H189	H	0.767121	-0.111037	0.000047
H190	H	1.267121	0.388963	0.500047
O191	O	1.066961	-0.277553	0.280048
O192	O	1.566961	0.222447	0.780048
H193	H	1.066040	-0.326050	0.343292
H194	H	1.566040	0.173950	0.843292
