data_functionalizedCrystal
_audit_creation_method	'MofGen! by Chris Wilmer'
_symmetry_space_group_name_H-M	'P1'
_symmetry_Int_Tables_number	1
_symmetry_cell_setting	triclinic
loop_
_symmetry_equiv_pos_as_xyz
  x,y,z
_cell_length_a	19.188879
_cell_length_b	19.188925
_cell_length_c	17.666332
_cell_angle_alpha	90.000135
_cell_angle_beta	89.982473
_cell_angle_gamma	96.866687
loop_
_atom_site_label
_atom_site_type_symbol
_atom_site_fract_x
_atom_site_fract_y
_atom_site_fract_z
O1	O	-0.087155	0.926126	0.062981
O2	O	0.412845	1.426126	0.562981
O3	O	-0.098894	0.722812	0.062981
O4	O	0.401106	1.222812	0.562981
O5	O	0.008634	0.830354	0.062957
O6	O	0.508634	1.330354	0.562957
O7	O	-0.194683	0.818583	0.063005
O8	O	0.305317	1.318583	0.563005
O9	O	0.008644	0.830357	-0.062940
O10	O	0.508644	1.330357	0.437060
O11	O	-0.098883	0.722814	-0.062916
O12	O	0.401117	1.222814	0.437084
O13	O	-0.087145	0.926128	-0.062916
O14	O	0.412855	1.426128	0.437084
Cu15	Cu	-0.093013	0.824471	-0.074411
Cu16	Cu	0.406987	1.324471	0.425589
Cu17	Cu	-0.093026	0.824468	0.074476
Cu18	Cu	0.406974	1.324468	0.574476
O19	O	-0.194672	0.818585	-0.062892
O20	O	0.305328	1.318585	0.437108
C21	C	-0.098509	0.696802	0.000032
C22	C	0.401491	1.196802	0.500032
C23	C	-0.097370	0.619297	0.000031
C24	C	0.402630	1.119297	0.500031
C25	C	-0.152835	0.057517	0.000046
C26	C	0.347165	0.557517	0.500046
C27	C	-0.153912	0.130340	0.000050
C28	C	0.346088	0.630340	0.500050
C29	C	-0.090818	0.175286	0.000034
C30	C	0.409182	0.675286	0.500034
C31	C	-0.026643	0.147403	0.000033
C32	C	0.473357	0.647403	0.500033
C33	C	-0.025568	0.074582	0.000036
C34	C	0.474432	0.574582	0.500036
N35	N	-0.045137	0.295972	-0.042833
N36	N	0.454863	0.795972	0.457167
N37	N	-0.046162	0.365149	-0.042837
N38	N	0.453838	0.865149	0.457163
C39	C	-0.094052	0.394694	0.000026
C40	C	0.405948	0.894694	0.500026
N41	N	-0.140889	0.352448	0.042885
N42	N	0.359111	0.852448	0.542885
N43	N	-0.139865	0.283264	0.042886
N44	N	0.360135	0.783264	0.542886
C45	C	-0.091976	0.254250	0.000031
C46	C	0.408024	0.754250	0.500031
C47	C	-0.159390	0.501532	0.000037
C48	C	0.340610	1.001532	0.500037
C49	C	-0.160464	0.574356	0.000046
C50	C	0.339536	1.074356	0.500046
C51	C	-0.033194	0.591419	0.000021
C52	C	0.466806	1.091419	0.500021
C53	C	-0.032122	0.518595	0.000020
C54	C	0.467878	1.018595	0.500020
C55	C	-0.095222	0.473656	0.000024
C56	C	0.404778	0.973656	0.500024
C57	C	-0.220689	0.818959	0.000062
C58	C	0.279311	1.318959	0.500062
C59	C	-0.298195	0.820086	0.000081
C60	C	0.201805	1.320086	0.500081
C61	C	-0.334572	0.820634	-0.068549
C62	C	0.165428	1.320634	0.431451
C63	C	-0.407395	0.821712	-0.068563
C64	C	0.092605	1.321712	0.431437
C65	C	-0.443837	0.822255	0.000058
C66	C	0.056163	1.322255	0.500058
C67	C	-0.407452	0.821703	0.068698
C68	C	0.092548	1.321703	0.568698
C69	C	-0.334631	0.820619	0.068709
C70	C	0.165369	1.320619	0.568709
N71	N	-0.552860	0.863691	0.051121
N72	N	-0.052860	1.363691	0.551121
N73	N	-0.622037	0.864723	0.051106
N74	N	-0.122037	1.364723	0.551106
C75	C	-0.663241	0.825522	0.000029
C76	C	-0.163241	1.325522	0.500029
N77	N	-0.632656	0.785259	-0.051044
N78	N	-0.132656	1.285259	0.448956
N79	N	-0.563472	0.784230	-0.051031
N80	N	-0.063472	1.284230	0.448969
C81	C	-0.522799	0.823431	0.000054
C82	C	-0.022799	1.323431	0.500054
C83	C	-0.778581	0.827238	-0.068620
C84	C	-0.278581	1.327238	0.431380
C85	C	-0.851406	0.828311	-0.068631
C86	C	-0.351406	1.328311	0.431369
C87	C	-0.851461	0.828310	0.068631
C88	C	-0.351461	1.328310	0.568631
C89	C	-0.778638	0.827229	0.068640
C90	C	-0.278638	1.327229	0.568640
C91	C	-0.742202	0.826697	0.000012
C92	C	-0.242202	1.326697	0.500012
C93	C	0.034651	0.829980	0.000004
C94	C	0.534651	1.329980	0.500004
C95	C	0.112157	0.828854	-0.000009
C96	C	0.612157	1.328854	0.499991
C97	C	-0.087529	0.952138	0.000034
C98	C	0.412471	1.452138	0.500034
C99	C	-0.088669	1.029642	0.000041
C100	C	0.411331	1.529642	0.500041
N101	N	-0.093029	0.824467	0.179196
N102	N	0.406971	1.324467	0.679196
N103	N	-0.093003	0.824478	-0.179131
N104	N	0.406997	1.324478	0.320869
C105	C	-0.045509	0.872171	0.218795
C106	C	0.454491	1.372171	0.718795
C107	C	-0.045508	0.872177	0.298043
C108	C	0.454492	1.372177	0.798043
C109	C	-0.093020	0.824467	0.337688
C110	C	0.406980	1.324467	0.837688
C111	C	-0.140550	0.776759	0.298079
C112	C	0.359450	1.276759	0.798079
C113	C	-0.140554	0.776759	0.218833
C114	C	0.359446	1.276759	0.718833
N115	N	-0.101948	0.762658	0.462115
N116	N	0.398052	1.262658	0.962115
N117	N	-0.101940	0.762661	0.537395
N118	N	0.398060	1.262661	1.037395
C119	C	-0.093010	0.824466	0.576452
C120	C	0.406990	1.324466	1.076452
N121	N	-0.084076	0.886271	0.537384
N122	N	0.415924	1.386271	1.037384
N123	N	-0.084081	0.886268	0.462097
N124	N	0.415919	1.386268	0.962097
C125	C	-0.093021	0.824462	0.423617
C126	C	0.406979	1.324462	0.923617
C127	C	-0.045486	0.872181	0.701980
C128	C	0.454514	1.372181	1.201980
C129	C	-0.045490	0.872188	0.781229
C130	C	0.454510	1.372188	1.281229
C131	C	-0.140528	0.776764	0.781264
C132	C	0.359472	1.276764	1.281264
C133	C	-0.140528	0.776763	0.702017
C134	C	0.359472	1.276763	1.202017
C135	C	-0.093003	0.824471	0.662380
C136	C	0.406997	1.324471	1.162380
H137	H	-0.210770	0.464940	0.000042
H138	H	0.289230	0.964940	0.500042
H139	H	-0.006810	0.911026	0.330290
H140	H	0.493190	1.411026	0.830290
H141	H	-0.179252	0.737911	0.186591
H142	H	0.320748	1.237911	0.686591
F143	F	-0.191118	0.725984	0.340273
F144	F	0.308882	1.225984	0.840273
H145	H	-0.748914	0.826798	-0.124502
H146	H	-0.248914	1.326798	0.375498
F147	F	0.033956	0.639249	0.000014
F148	F	0.533956	1.139249	0.500014
F149	F	-0.219993	0.009693	0.000058
F150	F	0.280007	0.509693	0.500058
H151	H	-0.437020	0.822145	-0.124451
H152	H	0.062980	1.322145	0.375549
F153	F	0.005091	0.922959	0.659795
F154	F	0.505091	1.422959	1.159795
H155	H	-0.749019	0.826788	0.124526
H156	H	-0.249019	1.326788	0.624526
F157	F	-0.191099	0.725991	0.823454
F158	F	0.308901	1.225991	1.323454
F159	F	-0.890122	0.828883	-0.141681
F160	F	-0.390122	1.328883	0.358319
H161	H	-0.881132	0.828744	0.124504
H162	H	-0.381132	1.328744	0.624504
F163	F	0.005086	0.922968	0.823376
F164	F	0.505086	1.422968	1.323376
F165	F	-0.446236	0.822284	0.141729
F166	F	0.053764	1.322284	0.641729
H167	H	-0.179221	0.737914	0.669773
H168	H	0.320779	1.237914	1.169773
H169	H	-0.006813	0.911019	0.186525
H170	H	0.493187	1.411019	0.686525
H171	H	-0.304911	0.820200	-0.124432
H172	H	0.195089	1.320200	0.375568
F173	F	0.036174	0.488928	0.000016
F174	F	0.536174	0.988928	0.500016
F175	F	-0.222209	0.160013	0.000055
F176	F	0.277791	0.660013	0.500055
H177	H	0.024728	0.184003	0.000022
H178	H	0.524728	0.684003	0.500022
F179	F	-0.295915	0.820036	0.141758
F180	F	0.204085	1.320036	0.641758
H181	H	0.026685	0.051888	0.000032
H182	H	0.526685	0.551888	0.500032
H183	H	-0.212718	0.597049	0.000057
H184	H	0.287282	1.097049	0.500057
