data_functionalizedCrystal
_audit_creation_method	'MofGen! by Chris Wilmer'
_symmetry_space_group_name_H-M	'P1'
_symmetry_Int_Tables_number	1
_symmetry_cell_setting	triclinic
loop_
_symmetry_equiv_pos_as_xyz
  x,y,z
_cell_length_a	14.044191
_cell_length_b	9.065218
_cell_length_c	12.503572
_cell_angle_alpha	93.577298
_cell_angle_beta	86.162165
_cell_angle_gamma	89.103831
loop_
_atom_site_label
_atom_site_type_symbol
_atom_site_fract_x
_atom_site_fract_y
_atom_site_fract_z
O1	O	-1.266161	-0.348307	0.089260
O2	O	-0.990082	-0.335446	0.089274
O3	O	-1.133828	-0.127867	0.089265
O4	O	-1.122415	-0.555886	0.089270
O5	O	-1.123018	-0.143507	-0.089377
O6	O	-0.979272	-0.351086	-0.089367
O7	O	-1.255351	-0.363947	-0.089381
Cu8	Cu	-1.116324	-0.358944	-0.105685
Cu9	Cu	-1.129109	-0.340449	0.105578
O10	O	-1.111605	-0.571526	-0.089372
C11	C	-0.949314	-0.337640	-0.000045
C12	C	-0.843944	-0.320858	-0.000039
C13	C	-1.296119	-0.361753	-0.000060
C14	C	-1.401489	-0.378534	-0.000058
C15	C	-0.594416	-0.409195	-0.000049
C16	C	-0.651023	-0.290204	-0.000049
C17	C	-0.758374	-0.307264	-0.000043
C18	C	-0.487055	-0.392137	-0.000054
C19	C	-1.127326	-0.080579	-0.000054
C20	C	-1.124047	0.083628	-0.000049
C21	C	-1.118107	-0.618814	-0.000050
C22	C	-1.121387	-0.783021	-0.000049
N23	N	-1.107339	-0.371953	-0.254277
C24	C	-1.094122	-0.391102	-0.473392
C25	C	-1.151315	-0.308285	-0.526722
C26	C	-1.143961	-0.318940	-0.648645
C27	C	-1.101475	-0.380449	-0.351458
N28	N	-1.138101	-0.327430	0.254170
H29	H	-0.618868	-0.175512	0.000026
O30	O	-1.029208	-0.485208	-0.528316
C31	C	-1.036220	-0.475014	-0.639585
H32	H	-1.110236	-0.430907	-0.654798
H33	H	-1.024209	-0.589175	-0.682421
H34	H	-0.979885	-0.396720	-0.671510
O35	O	-0.632832	-0.545958	0.000153
C36	C	-0.695121	-0.554762	0.092665
H37	H	-0.674865	-0.468898	0.157322
H38	H	-0.689270	-0.669920	0.123732
H39	H	-0.771595	-0.532590	0.071751
H40	H	-1.205803	-0.229383	-0.480813
