data_functionalizedCrystal
_audit_creation_method	'MofGen! by Chris Wilmer'
_symmetry_space_group_name_H-M	'P1'
_symmetry_Int_Tables_number	1
_symmetry_cell_setting	triclinic
loop_
_symmetry_equiv_pos_as_xyz
  x,y,z
_cell_length_a	18.101395
_cell_length_b	18.215407
_cell_length_c	18.215399
_cell_angle_alpha	90.019833
_cell_angle_beta	89.973573
_cell_angle_gamma	89.968448
loop_
_atom_site_label
_atom_site_type_symbol
_atom_site_fract_x
_atom_site_fract_y
_atom_site_fract_z
Zn1	Zn	-0.294828	-1.125040	-0.416124
Zn2	Zn	-0.418675	-1.124935	-0.293061
Zn3	Zn	-0.294853	-1.001973	-0.293071
Zn4	Zn	-0.418634	-1.001925	-0.416086
O5	O	-0.356747	-1.063468	-0.354585
O6	O	-0.311264	-1.228010	-0.399811
O7	O	-0.402277	-1.108600	-0.190078
O8	O	-0.191216	-1.018362	-0.309415
O9	O	-0.402253	-1.227933	-0.309397
O10	O	-0.191199	-1.108779	-0.399821
O11	O	-0.311305	-1.018260	-0.190085
O12	O	-0.311265	-0.898982	-0.309378
O13	O	-0.402183	-1.018281	-0.519075
O14	O	-0.402207	-0.898947	-0.399756
O15	O	-0.311224	-1.108733	-0.519103
O16	O	-0.522302	-1.108554	-0.309360
O17	O	-0.522272	-1.018179	-0.399746
C18	C	-0.356735	-0.872262	-0.354564
C19	C	-0.356747	-0.790463	-0.354572
C20	C	-0.549158	-1.063370	-0.354564
C21	C	-0.631472	-1.063395	-0.354579
C22	C	-0.356696	-1.063513	-0.546538
C23	C	-0.356675	-1.063532	-0.628337
C24	C	-0.930563	-1.063557	-0.354619
C25	C	-0.899249	-1.006827	-0.411628
C26	C	-0.813632	-1.006557	-0.411450
C27	C	-0.782180	-1.063476	-0.354600
C28	C	-0.813331	-1.042479	-0.277038
C29	C	-0.898976	-1.042113	-0.277380
C30	C	-0.898906	-1.141408	-0.374487
C31	C	-0.813255	-1.140950	-0.376188
C32	C	-0.698321	-1.063432	-0.354584
C33	C	-1.014422	-1.063599	-0.354629
C34	C	-0.163585	-1.063587	-0.354623
C35	C	-0.081271	-1.063638	-0.354639
C36	C	-0.356761	-1.255421	-0.354607
C37	C	-0.356766	-1.337220	-0.354616
C38	C	-0.404175	-0.602270	-0.401573
C39	C	-0.404177	-0.525412	-0.401583
C40	C	-0.309333	-0.525418	-0.307613
C41	C	-0.309328	-0.602276	-0.307608
C42	C	-0.356753	-0.640700	-0.354587
C43	C	-0.356761	-0.486984	-0.354601
C44	C	-0.356763	-0.403650	-0.354611
C45	C	-0.356750	-0.724039	-0.354579
C46	C	-0.309268	-1.110648	-0.816547
C47	C	-0.309246	-1.110656	-0.893406
C48	C	-0.403967	-1.016469	-0.893365
C49	C	-0.403984	-1.016457	-0.816508
C50	C	-0.356636	-1.063551	-0.778101
C51	C	-0.356597	-1.063571	-0.931817
C52	C	-0.356574	-1.063580	-1.015151
C53	C	-0.356657	-1.063541	-0.694762
C54	C	-0.356745	-1.063466	-0.163379
C55	C	-0.356558	-1.063590	-0.081580
H56	H	-0.919798	-1.019834	-0.469325
C57	C	-0.257151	-1.162470	-0.935697
H58	H	-0.263917	-1.155731	-0.986972
H59	H	-0.268001	-1.211906	-0.923106
H60	H	-0.207391	-1.151729	-0.923111
H61	H	-0.442792	-0.494126	-0.439845
C62	C	-0.456053	-0.964675	-0.935612
H63	H	-0.484261	-0.936619	-0.901705
H64	H	-0.488314	-0.992813	-0.965591
H65	H	-0.427712	-0.932628	-0.965595
H66	H	-0.920455	-1.160552	-0.430081
H67	H	-0.270712	-1.148992	-0.785278
C68	C	-0.784454	-0.966412	-0.253890
H69	H	-0.803610	-0.954193	-0.206879
H70	H	-0.799910	-0.930715	-0.288657
H71	H	-0.732022	-0.967404	-0.251843
C72	C	-0.785173	-1.024278	-0.489145
H73	H	-0.825954	-1.031706	-0.521103
H74	H	-0.755868	-1.067529	-0.487650
H75	H	-0.756149	-0.984513	-0.506626
C76	C	-0.928401	-0.929344	-0.394072
H77	H	-0.959570	-0.931416	-0.352149
H78	H	-0.955646	-0.911263	-0.434799
H79	H	-0.887966	-0.897552	-0.384421
H80	H	-0.270707	-0.633566	-0.269346
C81	C	-0.926186	-1.198490	-0.318347
H82	H	-0.956729	-1.175035	-0.282975
H83	H	-0.884954	-1.220183	-0.294476
H84	H	-0.953701	-1.235456	-0.342941
C85	C	-0.257179	-0.483150	-0.255932
H86	H	-0.263979	-0.431872	-0.262658
H87	H	-0.207432	-0.495771	-0.266782
H88	H	-0.267962	-0.495723	-0.206465
H89	H	-0.792893	-1.156785	-0.433269
H90	H	-0.442556	-0.978100	-0.785204
H91	H	-0.793209	-0.948852	-0.398289
H92	H	-0.919019	-0.985204	-0.260549
C93	C	-0.926966	-1.095495	-0.218033
H94	H	-0.885992	-1.117304	-0.193818
H95	H	-0.956078	-1.132712	-0.240312
H96	H	-0.956086	-1.069389	-0.183341
H97	H	-0.792959	-1.082498	-0.233404
H98	H	-0.791842	-1.185453	-0.337692
H99	H	-0.442789	-0.633553	-0.439829
