data_functionalizedCrystal
_audit_creation_method	'MofGen! by Chris Wilmer'
_symmetry_space_group_name_H-M	'P1'
_symmetry_Int_Tables_number	1
_symmetry_cell_setting	triclinic
loop_
_symmetry_equiv_pos_as_xyz
  x,y,z
_cell_length_a	16.120531
_cell_length_b	14.908783
_cell_length_c	14.908308
_cell_angle_alpha	96.759523
_cell_angle_beta	84.017827
_cell_angle_gamma	90.528115
loop_
_atom_site_label
_atom_site_type_symbol
_atom_site_fract_x
_atom_site_fract_y
_atom_site_fract_z
Zn1	Zn	0.427080	1.329258	-0.456616
Zn2	Zn	0.558895	1.330191	-0.312922
Zn3	Zn	0.411908	1.187520	-0.313139
Zn4	Zn	0.558848	1.170167	-0.472979
O5	O	0.489183	1.254284	-0.388914
O6	O	0.450934	1.455670	-0.430616
O7	O	0.533067	1.318918	-0.185920
O8	O	0.297261	1.213194	-0.325415
O9	O	0.547778	1.456356	-0.325044
O10	O	0.308408	1.317328	-0.430827
O11	O	0.425076	1.214099	-0.186080
O12	O	0.425031	1.058930	-0.341281
O13	O	0.547699	1.183618	-0.597839
O14	O	0.532987	1.046181	-0.458715
O15	O	0.450889	1.300501	-0.585817
O16	O	0.675548	1.302092	-0.340911
O17	O	0.675514	1.184523	-0.458504
C18	C	0.705782	1.241549	-0.401478
C19	C	0.798450	1.236182	-0.406879
C20	C	0.477359	1.019810	-0.401798
C21	C	0.472321	0.919499	-0.407332
C22	C	0.500981	1.240020	-0.625686
C23	C	0.506009	1.233941	-0.726585
C24	C	0.968116	1.226386	-0.416757
C25	C	1.009408	1.282219	-0.361017
C26	C	1.103816	1.276769	-0.366514
C27	C	0.873699	1.231835	-0.411262
C28	C	1.271738	1.267061	-0.376305
C29	C	1.179069	1.272427	-0.370893
C30	C	0.501054	1.489674	-0.375981
C31	C	0.506112	1.589983	-0.370469
C32	C	0.414778	1.777760	-0.470065
C33	C	0.419529	1.872010	-0.464890
C34	C	0.520368	1.872732	-0.354948
C35	C	0.515618	1.778482	-0.360123
C36	C	0.462820	1.731000	-0.417683
C37	C	0.458065	1.636750	-0.422853
C38	C	0.558909	1.637473	-0.312917
C39	C	0.563659	1.731722	-0.307741
C40	C	0.414629	1.344228	-0.903666
C41	C	0.419351	1.338520	-0.998468
C42	C	0.520168	1.216813	-1.010994
C43	C	0.515447	1.222521	-0.916191
C44	C	0.462676	1.286232	-0.862530
C45	C	0.457960	1.291944	-0.767726
C46	C	0.558772	1.170233	-0.780254
C47	C	0.563494	1.164525	-0.875056
C48	C	0.477373	1.268548	-0.153056
C49	C	0.472119	1.274815	-0.052135
H50	H	0.973857	1.334111	-0.309168
C51	C	1.016136	1.156280	-0.486788
H52	H	1.074207	1.161765	-0.481330
H53	H	1.005587	1.166558	-0.546259
H54	H	0.998253	1.097259	-0.475962
H55	H	0.371780	1.739101	-0.516924
C56	C	0.611626	1.106434	-0.735003
H57	H	0.601255	1.118953	-0.670857
H58	H	0.669077	1.115409	-0.753063
H59	H	0.597138	1.045576	-0.753164
C60	C	0.621539	1.094449	-0.934083
H61	H	0.649475	1.060724	-0.896004
H62	H	0.661441	1.124608	-0.971275
H63	H	0.589506	1.054771	-0.971377
C64	C	0.399997	1.584519	-0.486171
H65	H	0.372074	1.625870	-0.516635
H66	H	0.360085	1.551981	-0.451371
H67	H	0.432017	1.543494	-0.529589
C68	C	0.366507	1.402320	-1.043719
H69	H	0.376872	1.389795	-1.107865
H70	H	0.380990	1.463172	-1.025553
H71	H	0.309051	1.393341	-1.025664
C72	C	0.578440	1.924972	-0.291641
H73	H	0.574384	1.987800	-0.296061
H74	H	0.634337	1.905428	-0.309011
H75	H	0.562412	1.913928	-0.230785
C76	C	0.366685	1.923447	-0.522509
H77	H	0.377080	1.986379	-0.511190
H78	H	0.309231	1.912100	-0.506835
H79	H	0.381159	1.903604	-0.585058
C80	C	0.621728	1.783958	-0.244427
H81	H	0.617673	1.846787	-0.248841
H82	H	0.677626	1.764414	-0.261793
H83	H	0.605695	1.772907	-0.183574
H84	H	0.598029	1.599391	-0.270265
H85	H	0.414993	1.343822	-0.724036
H86	H	0.371666	1.396108	-0.859974
H87	H	0.563130	1.164942	-1.054701
