data_functionalizedCrystal
_audit_creation_method	'MofGen! by Chris Wilmer'
_symmetry_space_group_name_H-M	'P1'
_symmetry_Int_Tables_number	1
_symmetry_cell_setting	triclinic
loop_
_symmetry_equiv_pos_as_xyz
  x,y,z
_cell_length_a	19.288864
_cell_length_b	14.048226
_cell_length_c	14.971486
_cell_angle_alpha	89.993360
_cell_angle_beta	83.375187
_cell_angle_gamma	89.979690
loop_
_atom_site_label
_atom_site_type_symbol
_atom_site_fract_x
_atom_site_fract_y
_atom_site_fract_z
O1	O	0.921714	-0.079466	0.111581
O2	O	0.719502	-0.079401	0.126633
O3	O	0.826028	-0.079429	-0.011122
O4	O	0.815188	-0.079439	0.249337
O5	O	0.826015	0.078892	-0.011130
O6	O	0.719489	0.078920	0.126625
O7	O	0.921701	0.078855	0.111573
Zn8	Zn	0.820593	0.104024	0.119098
Zn9	Zn	0.820610	-0.104571	0.119109
O10	O	0.815175	0.078882	0.249329
C11	C	0.693618	-0.000232	0.126145
C12	C	0.616510	-0.000207	0.124691
N13	N	0.820587	0.246385	0.119090
C14	C	0.825537	-0.000268	-0.044448
C15	C	0.824084	-0.000269	-0.143737
C16	C	0.572077	-0.000226	0.205520
C17	C	0.499625	-0.000236	0.204154
C18	C	0.471610	-0.000247	0.121955
C19	C	0.516052	-0.000224	0.041116
C20	C	0.588502	-0.000204	0.042484
C21	C	0.363142	-0.055744	0.057340
C22	C	0.290693	-0.055770	0.055975
C23	C	0.248150	-0.000305	0.117732
C24	C	0.278064	0.055174	0.180868
C25	C	0.350514	0.055194	0.182236
C26	C	0.393051	-0.000269	0.120462
C27	C	0.125157	-0.000333	0.197085
C28	C	0.052704	-0.000338	0.195715
C29	C	0.069133	-0.000335	0.032675
C30	C	0.141584	-0.000321	0.034046
C31	C	0.169591	-0.000324	0.116254
C32	C	0.947586	-0.000316	0.112062
C33	C	1.024694	-0.000347	0.113516
N34	N	0.820622	-0.246932	0.119109
C35	C	0.867771	0.296191	0.058117
C36	C	0.867776	0.395849	0.058117
C37	C	0.820599	0.445698	0.119094
C38	C	0.773410	0.395886	0.180070
C39	C	0.773402	0.296230	0.180066
C40	C	0.773430	0.603600	0.180077
C41	C	0.773438	0.703263	0.180082
C42	C	0.867803	0.703219	0.058128
C43	C	0.867796	0.603563	0.058123
C44	C	0.820607	0.553757	0.119101
C45	C	0.886665	-0.000288	-0.201301
C46	C	0.885296	-0.000297	-0.294593
C47	C	0.821345	-0.000280	-0.330320
C48	C	0.758759	-0.000264	-0.272749
C49	C	0.760129	-0.000261	-0.179458
C50	C	0.755909	-0.000266	-0.467196
C51	C	0.754538	-0.000267	-0.560492
C52	C	0.881075	-0.000302	-0.582330
C53	C	0.882445	-0.000300	-0.489040
C54	C	0.819859	-0.000281	-0.431475
C55	C	0.815667	-0.000280	0.282655
C56	C	0.817119	-0.000286	0.381944
H57	H	0.594875	-0.000230	0.272460
H58	H	0.906226	0.743776	0.008478
Br59	Br	0.709409	0.770909	0.262841
H60	H	0.906214	0.562975	0.008475
H61	H	0.906191	0.255610	0.008466
H62	H	0.177762	-0.000311	-0.031773
H63	H	0.938741	-0.000296	-0.172220
Br64	Br	0.667747	-0.000239	-0.608978
H65	H	0.735001	0.563051	0.229728
H66	H	0.397774	-0.100916	0.007049
Br67	Br	0.439312	-0.000255	0.313858
Br68	Br	0.970231	-0.000324	-0.372713
Br69	Br	0.709377	0.463535	0.262821
H70	H	0.704944	-0.000254	-0.420328
Br71	Br	0.671968	-0.000256	-0.321233
H72	H	0.934519	-0.000307	-0.459955
H73	H	0.243428	0.100339	0.231155
H74	H	0.709169	-0.000246	-0.132590
Br75	Br	0.478033	-0.000230	-0.070441
Br76	Br	0.709359	0.228636	0.262813
H77	H	0.374867	0.100369	0.233641
Br78	Br	0.163171	-0.000331	0.308649
Br79	Br	0.648808	-0.000177	-0.067221
H80	H	0.932035	-0.000320	-0.629204
H81	H	0.016527	-0.000347	0.261539
H82	H	0.046324	-0.000404	-0.034253
Br83	Br	0.931810	0.463446	-0.024637
Br84	Br	0.250101	-0.131074	-0.029697
