data_functionalizedCrystal
_audit_creation_method	'MofGen! by Chris Wilmer'
_symmetry_space_group_name_H-M	'P1'
_symmetry_Int_Tables_number	1
_symmetry_cell_setting	triclinic
loop_
_symmetry_equiv_pos_as_xyz
  x,y,z
_cell_length_a	19.805407
_cell_length_b	14.908520
_cell_length_c	19.805399
_cell_angle_alpha	86.730950
_cell_angle_beta	90.015116
_cell_angle_gamma	93.317992
loop_
_atom_site_label
_atom_site_type_symbol
_atom_site_fract_x
_atom_site_fract_y
_atom_site_fract_z
Zn1	Zn	1.019183	-0.359232	0.398240
Zn2	Zn	1.012578	-0.510101	0.291583
Zn3	Zn	0.906002	-0.359253	0.285069
Zn4	Zn	0.899439	-0.510042	0.404731
O5	O	0.959300	-0.434657	0.344906
O6	O	1.113022	-0.379260	0.384102
O7	O	0.998423	-0.490124	0.196004
O8	O	0.926526	-0.233006	0.294639
O9	O	1.108170	-0.490103	0.305741
O10	O	1.009679	-0.232990	0.377785
O11	O	0.920122	-0.379297	0.191218
O12	O	0.810415	-0.379240	0.300933
O13	O	0.915341	-0.490003	0.498585
O14	O	0.805594	-0.490024	0.388848
O15	O	1.003316	-0.379203	0.493816
O16	O	0.992060	-0.636337	0.312036
O17	O	0.908937	-0.636294	0.395165
C18	C	0.783446	-0.434629	0.344888
C19	C	0.708213	-0.434638	0.344898
C20	C	0.675392	-0.377025	0.385770
C21	C	0.604703	-0.377029	0.385773
C22	C	0.566837	-0.434653	0.344907
C23	C	0.599663	-0.492269	0.304029
C24	C	0.670351	-0.492259	0.304024
C25	C	0.314588	-0.492310	0.304052
C26	C	0.243896	-0.492317	0.304063
C27	C	0.248941	-0.377080	0.385801
C28	C	0.319628	-0.377070	0.385795
C29	C	0.352448	-0.434682	0.344916
C30	C	0.429097	-0.434675	0.344912
C31	C	0.490189	-0.434665	0.344913
C32	C	0.949088	-0.669050	0.355026
C33	C	0.944781	-0.769324	0.359378
C34	C	1.023333	-0.957734	0.281064
C35	C	1.019288	-1.051950	0.285151
C36	C	0.932651	-1.051975	0.371642
C37	C	0.936696	-0.957759	0.367555
C38	C	0.982037	-0.910641	0.322264
C39	C	0.986078	-0.816423	0.318174
C40	C	0.899445	-0.816450	0.404668
C41	C	0.895400	-0.910666	0.408755
C42	C	1.135842	-0.434686	0.344924
C43	C	1.211073	-0.434698	0.344932
C44	C	0.959333	-0.434594	0.521446
C45	C	0.959347	-0.434568	0.596677
C46	C	0.969571	-0.199349	0.334761
C47	C	0.973948	-0.099074	0.330438
C48	C	0.959310	-0.434654	0.169050
C49	C	0.959438	-0.434427	0.093808
C50	C	0.918588	-0.376855	0.629528
C51	C	0.918598	-0.376837	0.700216
C52	C	0.959371	-0.434529	0.738051
C53	C	1.000132	-0.492248	0.705195
C54	C	1.000117	-0.492269	0.634509
C55	C	1.000189	-0.492164	0.990265
C56	C	1.000201	-0.492136	1.060956
C57	C	0.918669	-0.376731	1.055972
C58	C	0.918655	-0.376753	0.985286
C59	C	0.959413	-0.434475	0.952436
C60	C	0.959400	-0.434494	0.875788
C61	C	0.959387	-0.434505	0.814697
H62	H	0.706218	-0.330103	0.419050
F63	F	1.043571	-0.553592	0.955312
H64	H	0.885480	-0.329734	1.082727
H65	H	0.697073	-0.539174	0.270741
F66	F	1.063242	-1.102066	0.241302
H67	H	1.060247	-0.919370	0.244181
F68	F	0.569775	-0.315711	0.429276
H69	H	0.895741	-1.090355	0.408521
H70	H	1.033326	-0.539226	0.736006
H71	H	0.865817	-0.778096	0.438214
H72	H	1.022995	-0.778061	0.281294
F73	F	0.847150	-0.960822	0.456957
F74	F	0.875194	-0.315446	0.589267
H75	H	0.341302	-0.539222	0.270766
H76	H	0.885405	-0.329845	0.726960
H77	H	0.350455	-0.330150	0.419075
F78	F	1.043599	-0.553543	1.101221
F79	F	0.875261	-0.315346	0.945022
H80	H	1.033313	-0.539258	0.607762
H81	H	0.213067	-0.539244	0.270782
H82	H	0.222210	-0.330166	0.419085
H83	H	0.568827	-0.539183	0.270752
