data_functionalizedCrystal
_audit_creation_method	'MofGen! by Chris Wilmer'
_symmetry_space_group_name_H-M	'P1'
_symmetry_Int_Tables_number	1
_symmetry_cell_setting	triclinic
loop_
_symmetry_equiv_pos_as_xyz
  x,y,z
_cell_length_a	21.295420
_cell_length_b	21.295417
_cell_length_c	18.101389
_cell_angle_alpha	90.022566
_cell_angle_beta	90.019054
_cell_angle_gamma	90.026289
loop_
_atom_site_label
_atom_site_type_symbol
_atom_site_fract_x
_atom_site_fract_y
_atom_site_fract_z
Zn1	Zn	0.962321	-0.250746	0.418713
Zn2	Zn	1.212321	-0.000746	0.668713
Zn3	Zn	1.462321	0.249254	0.918713
Zn4	Zn	1.712321	0.499254	1.168713
Zn5	Zn	0.962233	-0.356000	0.294863
Zn6	Zn	1.212233	-0.106000	0.544863
Zn7	Zn	1.462233	0.144000	0.794863
Zn8	Zn	1.712233	0.394000	1.044863
Zn9	Zn	0.857054	-0.250740	0.294886
Zn10	Zn	1.107054	-0.000740	0.544886
Zn11	Zn	1.357054	0.249260	0.794886
Zn12	Zn	1.607054	0.499260	1.044886
Zn13	Zn	0.857014	-0.355974	0.418663
Zn14	Zn	1.107014	-0.105974	0.668663
Zn15	Zn	1.357014	0.144026	0.918663
Zn16	Zn	1.607014	0.394026	1.168663
O17	O	0.909656	-0.303365	0.356781
O18	O	1.159656	-0.053365	0.606781
O19	O	1.409656	0.196635	0.856781
O20	O	1.659656	0.446635	1.106781
O21	O	1.050399	-0.264721	0.402296
O22	O	1.300399	-0.014721	0.652296
O23	O	1.550399	0.235279	0.902296
O24	O	1.800399	0.485279	1.152296
O25	O	0.948262	-0.342045	0.191233
O26	O	1.198262	-0.092045	0.441233
O27	O	1.448262	0.157955	0.691233
O28	O	1.698262	0.407955	0.941233
O29	O	0.871072	-0.162652	0.311342
O30	O	1.121072	0.087348	0.561342
O31	O	1.371072	0.337348	0.811342
O32	O	1.621072	0.587348	1.061342
O33	O	1.050334	-0.342051	0.311303
O34	O	1.300334	-0.092051	0.561303
O35	O	1.550334	0.157949	0.811303
O36	O	1.800334	0.407949	1.061303
O37	O	0.948411	-0.162656	0.402318
O38	O	1.198411	0.087344	0.652318
O39	O	1.448411	0.337344	0.902318
O40	O	1.698411	0.587344	1.152318
O41	O	0.870987	-0.264712	0.191250
O42	O	1.120987	-0.014712	0.441250
O43	O	1.370987	0.235288	0.691250
O44	O	1.620987	0.485288	0.941250
O45	O	0.768960	-0.264687	0.311294
O46	O	1.018960	-0.014687	0.561294
O47	O	1.268960	0.235313	0.811294
O48	O	1.518960	0.485313	1.061294
O49	O	0.871002	-0.342006	0.522302
O50	O	1.121002	-0.092006	0.772302
O51	O	1.371002	0.157994	1.022302
O52	O	1.621002	0.407994	1.272302
O53	O	0.768930	-0.342001	0.402232
O54	O	1.018930	-0.092001	0.652232
O55	O	1.268930	0.157999	0.902232
O56	O	1.518930	0.407999	1.152232
O57	O	0.948371	-0.264696	0.522339
O58	O	1.198371	-0.014696	0.772339
O59	O	1.448371	0.235304	1.022339
O60	O	1.698371	0.485304	1.272339
O61	O	0.948222	-0.444086	0.311254
O62	O	1.198222	-0.194086	0.561254
O63	O	1.448222	0.055914	0.811254
O64	O	1.698222	0.305914	1.061254
O65	O	0.870918	-0.444066	0.402210
O66	O	1.120918	-0.194066	0.652210
O67	O	1.370918	0.055934	0.902210
O68	O	1.620918	0.305934	1.152210
C69	C	0.746104	-0.303341	0.356760
C70	C	0.996104	-0.053341	0.606760
C71	C	1.246104	0.196659	0.856760
C72	C	1.496104	0.446659	1.106760
C73	C	0.676136	-0.303346	0.356769
C74	C	0.926136	-0.053346	0.606769
C75	C	1.176136	0.196654	0.856769
C76	C	1.426136	0.446654	1.106769
C77	C	0.176711	-0.263194	0.404249
C78	C	0.426711	-0.013194	0.654249
C79	C	0.676711	0.236806	0.904249
C80	C	0.926711	0.486806	1.154249
C81	C	0.242453	-0.263190	0.404249
C82	C	0.492453	-0.013190	0.654249
C83	C	0.742453	0.236810	0.904249
C84	C	0.992453	0.486810	1.154249
C85	C	0.275296	-0.303384	0.356798
C86	C	0.525296	-0.053384	0.606798
C87	C	0.775296	0.196616	0.856798
C88	C	1.025296	0.446616	1.106798
C89	C	0.242392	-0.343597	0.309358
C90	C	0.492392	-0.093597	0.559358
C91	C	0.742392	0.156403	0.809358
C92	C	0.992392	0.406403	1.059358
C93	C	0.176650	-0.343605	0.309364
C94	C	0.426650	-0.093605	0.559364
C95	C	0.676650	0.156395	0.809364
C96	C	0.926650	0.406395	1.059364
N97	N	0.378492	-0.308121	0.291953
N98	N	0.628492	-0.058121	0.541953
N99	N	0.878492	0.191879	0.791953
N100	N	1.128492	0.441879	1.041953
N101	N	0.440943	-0.308109	0.291948
N102	N	0.690943	-0.058109	0.541948
N103	N	0.940943	0.191891	0.791948
N104	N	1.190943	0.441891	1.041948
C105	C	0.473371	-0.303363	0.356777
C106	C	0.723371	-0.053363	0.606777
C107	C	0.973371	0.196637	0.856777
C108	C	1.223371	0.446637	1.106777
N109	N	0.440988	-0.298617	0.421610
N110	N	0.690988	-0.048617	0.671610
N111	N	0.940988	0.201383	0.921610
N112	N	1.190988	0.451383	1.171610
N113	N	0.378531	-0.298625	0.421614
N114	N	0.628531	-0.048625	0.671614
N115	N	0.878531	0.201375	0.921614
N116	N	1.128531	0.451375	1.171614
C117	C	0.346582	-0.303380	0.356786
C118	C	0.596582	-0.053380	0.606786
C119	C	0.846582	0.196620	0.856786
C120	C	1.096582	0.446620	1.106786
C121	C	0.577553	-0.263151	0.404218
C122	C	0.827553	-0.013151	0.654218
C123	C	1.077553	0.236849	0.904218
C124	C	1.327553	0.486849	1.154218
C125	C	0.643297	-0.263150	0.404219
C126	C	0.893297	-0.013150	0.654219
C127	C	1.143297	0.236850	0.904219
C128	C	1.393297	0.486850	1.154219
C129	C	0.643234	-0.343555	0.309321
C130	C	0.893234	-0.093555	0.559321
C131	C	1.143234	0.156445	0.809321
C132	C	1.393234	0.406445	1.059321
C133	C	0.577492	-0.343558	0.309327
C134	C	0.827492	-0.093558	0.559327
C135	C	1.077492	0.156442	0.809327
C136	C	1.327492	0.406442	1.059327
C137	C	0.544655	-0.303353	0.356774
C138	C	0.794655	-0.053353	0.606774
C139	C	1.044655	0.196647	0.856774
C140	C	1.294655	0.446647	1.106774
C141	C	0.909573	-0.466917	0.356740
C142	C	1.159573	-0.216917	0.606740
C143	C	1.409573	0.033083	0.856740
C144	C	1.659573	0.283083	1.106740
C145	C	0.909595	-0.536885	0.356747
C146	C	1.159595	-0.286885	0.606747
C147	C	1.409595	-0.036885	0.856747
C148	C	1.659595	0.213115	1.106747
C149	C	0.949884	-0.569740	0.309435
C150	C	1.199884	-0.319740	0.559435
C151	C	1.449884	-0.069740	0.809435
C152	C	1.699884	0.180260	1.059435
C153	C	0.949913	-0.635483	0.309452
C154	C	1.199913	-0.385483	0.559452
C155	C	1.449913	-0.135483	0.809452
C156	C	1.699913	0.114517	1.059452
C157	C	0.909643	-0.668367	0.356773
C158	C	1.159643	-0.418367	0.606773
C159	C	1.409643	-0.168367	0.856773
C160	C	1.659643	0.081633	1.106773
C161	C	0.869352	-0.635504	0.404094
C162	C	1.119352	-0.385504	0.654094
C163	C	1.369352	-0.135504	0.904094
C164	C	1.619352	0.114496	1.154094
C165	C	0.869328	-0.569762	0.404081
C166	C	1.119328	-0.319762	0.654081
C167	C	1.369328	-0.069762	0.904081
C168	C	1.619328	0.180238	1.154081
N169	N	0.854576	-0.771630	0.362411
N170	N	1.104576	-0.521630	0.612411
N171	N	1.354576	-0.271630	0.862411
N172	N	1.604576	-0.021630	1.112411
N173	N	0.854600	-0.834081	0.362419
N174	N	1.104600	-0.584081	0.612419
N175	N	1.354600	-0.334081	0.862419
N176	N	1.604600	-0.084081	1.112419
C177	C	0.909714	-0.866442	0.356815
C178	C	1.159714	-0.616442	0.606815
C179	C	1.409714	-0.366442	0.856815
C180	C	1.659714	-0.116442	1.106815
N181	N	0.964803	-0.833992	0.351189
N182	N	1.214803	-0.583992	0.601189
N183	N	1.464803	-0.333992	0.851189
N184	N	1.714803	-0.083992	1.101189
N185	N	0.964778	-0.771535	0.351177
N186	N	1.214778	-0.521535	0.601177
N187	N	1.464778	-0.271535	0.851177
N188	N	1.714778	-0.021535	1.101177
C189	C	0.909665	-0.739653	0.356792
C190	C	1.159665	-0.489653	0.606792
C191	C	1.409665	-0.239653	0.856792
C192	C	1.659665	0.010347	1.106792
C193	C	0.950037	-0.970583	0.309519
C194	C	1.200037	-0.720583	0.559519
C195	C	1.450037	-0.470583	0.809519
C196	C	1.700037	-0.220583	1.059519
C197	C	0.950068	-1.036327	0.309541
C198	C	1.200068	-0.786327	0.559541
C199	C	1.450068	-0.536327	0.809541
C200	C	1.700068	-0.286327	1.059541
C201	C	0.869501	-1.036346	0.404179
C202	C	1.119501	-0.786346	0.654179
C203	C	1.369501	-0.536346	0.904179
C204	C	1.619501	-0.286346	1.154179
C205	C	0.869476	-0.970604	0.404161
C206	C	1.119476	-0.720604	0.654161
C207	C	1.369476	-0.470604	0.904161
C208	C	1.619476	-0.220604	1.154161
C209	C	0.909743	-0.937726	0.356827
C210	C	1.159743	-0.687726	0.606827
C211	C	1.409743	-0.437726	0.856827
C212	C	1.659743	-0.187726	1.106827
C213	C	1.073846	-0.303390	0.356803
C214	C	1.323846	-0.053390	0.606803
C215	C	1.573846	0.196610	0.856803
C216	C	1.823846	0.446610	1.106803
C217	C	1.143814	-0.303400	0.356812
C218	C	1.393814	-0.053400	0.606812
C219	C	1.643814	0.196600	0.856812
C220	C	1.893814	0.446600	1.106812
C221	C	0.909692	-0.303349	0.549943
C222	C	1.159692	-0.053349	0.799943
C223	C	1.409692	0.196651	1.049943
C224	C	1.659692	0.446651	1.299943
C225	C	0.909707	-0.303342	0.632257
C226	C	1.159707	-0.053342	0.882257
C227	C	1.409707	0.196658	1.132257
C228	C	1.659707	0.446658	1.382257
C229	C	0.909756	-0.139175	0.356838
C230	C	1.159756	0.110825	0.606838
C231	C	1.409756	0.360825	0.856838
C232	C	1.659756	0.610825	1.106838
C233	C	0.909798	-0.069207	0.356863
C234	C	1.159798	0.180793	0.606863
C235	C	1.409798	0.430793	0.856863
C236	C	1.659798	0.680793	1.106863
C237	C	0.909656	-0.303335	0.164371
C238	C	1.159656	-0.053335	0.414371
C239	C	1.409656	0.196665	0.664371
C240	C	1.659656	0.446665	0.914371
C241	C	0.909762	-0.303165	0.082057
C242	C	1.159762	-0.053165	0.332057
C243	C	1.409762	0.196835	0.582057
C244	C	1.659762	0.446835	0.832057
C245	C	0.909744	-0.303224	0.931348
C246	C	1.159744	-0.053224	1.181348
C247	C	1.409744	0.196776	1.431348
C248	C	1.659744	0.446776	1.681348
C249	C	0.860898	-0.351711	0.900000
C250	C	1.110898	-0.101711	1.150000
C251	C	1.360898	0.148289	1.400000
C252	C	1.610898	0.398289	1.650000
C253	C	0.861030	-0.351936	0.814381
C254	C	1.111030	-0.101936	1.064381
C255	C	1.361030	0.148064	1.314381
C256	C	1.611030	0.398064	1.564381
C257	C	0.909725	-0.303283	0.782966
C258	C	1.159725	-0.053283	1.032966
C259	C	1.409725	0.196717	1.282966
C260	C	1.659725	0.446717	1.532966
C261	C	0.976048	-0.321294	0.814063
C262	C	1.226048	-0.071294	1.064063
C263	C	1.476048	0.178706	1.314063
C264	C	1.726048	0.428706	1.564063
C265	C	0.975776	-0.321613	0.899708
C266	C	1.225776	-0.071613	1.149708
C267	C	1.475776	0.178387	1.399708
C268	C	1.725776	0.428387	1.649708
C269	C	0.892844	-0.236618	0.899780
C270	C	1.142844	0.013382	1.149780
C271	C	1.392844	0.263382	1.399780
C272	C	1.642844	0.513382	1.649780
C273	C	0.891368	-0.237003	0.814129
C274	C	1.141368	0.012997	1.064129
C275	C	1.391368	0.262997	1.314129
C276	C	1.641368	0.512997	1.564129
C277	C	0.909719	-0.303315	0.699106
C278	C	1.159719	-0.053315	0.949106
C279	C	1.409719	0.196685	1.199106
C280	C	1.659719	0.446685	1.449106
C281	C	0.909755	-0.303194	1.015208
C282	C	1.159755	-0.053194	1.265208
C283	C	1.409755	0.196806	1.515208
C284	C	1.659755	0.446806	1.765208
H285	H	0.670081	-0.230412	0.442853
H286	H	0.920081	0.019588	0.692853
H287	H	1.170081	0.269588	0.942853
H288	H	1.420081	0.519588	1.192853
H289	H	0.924349	-0.198959	0.792745
H290	H	1.174349	0.051041	1.042745
H291	H	1.424349	0.301041	1.292745
H292	H	1.674349	0.551041	1.542745
H293	H	0.872188	-0.401307	0.793894
H294	H	1.122188	-0.151307	1.043894
H295	H	1.372188	0.098693	1.293894
H296	H	1.622188	0.348693	1.543894
H297	H	0.842561	-0.223420	0.793804
H298	H	1.092561	0.026580	1.043804
H299	H	1.342561	0.276580	1.293804
H300	H	1.592561	0.526580	1.543804
H301	H	0.149979	-0.230459	0.442887
H302	H	0.399979	0.019541	0.692887
H303	H	0.649979	0.269541	0.942887
H304	H	0.899979	0.519541	1.192887
H305	H	0.550707	-0.376295	0.270695
H306	H	0.800707	-0.126295	0.520695
H307	H	1.050707	0.123705	0.770695
H308	H	1.300707	0.373705	1.020695
H309	H	0.990103	-0.370303	0.919685
H310	H	1.240103	-0.120303	1.169685
H311	H	1.490103	0.129697	1.419685
H312	H	1.740103	0.379697	1.669685
H313	H	0.928421	-0.200493	0.920055
H314	H	1.178421	0.049507	1.170055
H315	H	1.428421	0.299507	1.420055
H316	H	1.678421	0.549507	1.670055
H317	H	0.836667	-0.943851	0.442684
H318	H	1.086667	-0.693851	0.692684
H319	H	1.336667	-0.443851	0.942684
H320	H	1.586667	-0.193851	1.192684
H321	H	0.845322	-0.220209	0.921373
H322	H	1.095322	0.029791	1.171373
H323	H	1.345322	0.279791	1.421373
H324	H	1.595322	0.529791	1.671373
H325	H	0.982673	-0.542973	0.270895
H326	H	1.232673	-0.292973	0.520895
H327	H	1.482673	-0.042973	0.770895
H328	H	1.732673	0.207027	1.020895
H329	H	0.811569	-0.340555	0.920592
H330	H	1.061569	-0.090555	1.170592
H331	H	1.311569	0.159445	1.420592
H332	H	1.561569	0.409445	1.670592
H333	H	0.269243	-0.230447	0.442877
H334	H	0.519243	0.019553	0.692877
H335	H	0.769243	0.269553	0.942877
H336	H	1.019243	0.519553	1.192877
H337	H	0.836715	-1.063120	0.442712
H338	H	1.086715	-0.813120	0.692712
H339	H	1.336715	-0.563120	0.942712
H340	H	1.586715	-0.313120	1.192712
H341	H	0.269137	-0.376326	0.270725
H342	H	0.519137	-0.126326	0.520725
H343	H	0.769137	0.123674	0.770725
H344	H	1.019137	0.373674	1.020725
H345	H	0.811849	-0.340664	0.793355
H346	H	1.061849	-0.090664	1.043355
H347	H	1.311849	0.159336	1.293355
H348	H	1.561849	0.409336	1.543355
H349	H	1.013404	-0.287830	0.920447
H350	H	1.263404	-0.037830	1.170447
H351	H	1.513404	0.212170	1.420447
H352	H	1.763404	0.462170	1.670447
H353	H	0.149866	-0.376347	0.270734
H354	H	0.399866	-0.126347	0.520734
H355	H	0.649866	0.123653	0.770734
H356	H	0.899866	0.373653	1.020734
H357	H	1.013420	-0.287089	0.793716
H358	H	1.263420	-0.037089	1.043716
H359	H	1.513420	0.212911	1.293716
H360	H	1.763420	0.462911	1.543716
H361	H	0.871945	-0.400780	0.921520
H362	H	1.121945	-0.150780	1.171520
H363	H	1.371945	0.099220	1.421520
H364	H	1.621945	0.349220	1.671520
H365	H	0.990623	-0.369467	0.792615
H366	H	1.240623	-0.119467	1.042615
H367	H	1.490623	0.130533	1.292615
H368	H	1.740623	0.380533	1.542615
H369	H	0.550817	-0.230413	0.442852
H370	H	0.800817	0.019587	0.692852
H371	H	1.050817	0.269587	0.942852
H372	H	1.300817	0.519587	1.192852
H373	H	0.669975	-0.376287	0.270692
H374	H	0.919975	-0.126287	0.520692
H375	H	1.169975	0.123713	0.770692
H376	H	1.419975	0.373713	1.020692
H377	H	0.982723	-0.662239	0.270925
H378	H	1.232723	-0.412239	0.520925
H379	H	1.482723	-0.162239	0.770925
H380	H	1.732723	0.087761	1.020925
H381	H	0.836565	-0.662282	0.442624
H382	H	1.086565	-0.412282	0.692624
H383	H	1.336565	-0.162282	0.942624
H384	H	1.586565	0.087718	1.192624
H385	H	0.982827	-0.943813	0.270979
H386	H	1.232827	-0.693813	0.520979
H387	H	1.482827	-0.443813	0.770979
H388	H	1.732827	-0.193813	1.020979
H389	H	0.836520	-0.543011	0.442609
H390	H	1.086520	-0.293011	0.692609
H391	H	1.336520	-0.043011	0.942609
H392	H	1.586520	0.206989	1.192609
H393	H	0.982879	-1.063077	0.271015
H394	H	1.232879	-0.813077	0.521015
H395	H	1.482879	-0.563077	0.771015
H396	H	1.732879	-0.313077	1.021015
