data_functionalizedCrystal
_audit_creation_method	'MofGen! by Chris Wilmer'
_symmetry_space_group_name_H-M	'P1'
_symmetry_Int_Tables_number	1
_symmetry_cell_setting	triclinic
loop_
_symmetry_equiv_pos_as_xyz
  x,y,z
_cell_length_a	19.077105
_cell_length_b	18.101395
_cell_length_c	18.101390
_cell_angle_alpha	90.031247
_cell_angle_beta	92.314759
_cell_angle_gamma	87.727498
loop_
_atom_site_label
_atom_site_type_symbol
_atom_site_fract_x
_atom_site_fract_y
_atom_site_fract_z
Zn1	Zn	1.075931	-0.340355	0.464170
Zn2	Zn	1.575931	0.159645	0.964170
Zn3	Zn	1.075835	-0.464207	0.340328
Zn4	Zn	1.575835	0.035793	0.840328
Zn5	Zn	0.958239	-0.335405	0.335374
Zn6	Zn	1.458239	0.164595	0.835374
Zn7	Zn	0.958189	-0.459174	0.459161
Zn8	Zn	1.458189	0.040826	0.959161
O9	O	1.017048	-0.399785	0.399758
O10	O	1.517048	0.100215	0.899758
O11	O	1.174409	-0.360962	0.451912
O12	O	1.674409	0.139038	0.951912
O13	O	1.060217	-0.447157	0.236037
O14	O	1.560217	0.052843	0.736037
O15	O	0.973912	-0.232432	0.352482
O16	O	1.473912	0.267568	0.852482
O17	O	1.174338	-0.451956	0.360926
O18	O	1.674338	0.048044	0.860926
O19	O	1.060380	-0.236068	0.447108
O20	O	1.560380	0.263932	0.947108
O21	O	0.973819	-0.352527	0.232397
O22	O	1.473819	0.147473	0.732397
O23	O	0.859742	-0.347646	0.347624
O24	O	1.359742	0.152354	0.847624
O25	O	0.973827	-0.443377	0.563459
O26	O	1.473827	0.056623	1.063459
O27	O	0.859705	-0.438578	0.438570
O28	O	1.359705	0.061422	0.938570
O29	O	1.060331	-0.356081	0.567140
O30	O	1.560331	0.143919	1.067140
O31	O	1.060168	-0.567170	0.356069
O32	O	1.560168	-0.067170	0.856069
O33	O	0.973734	-0.563472	0.443375
O34	O	1.473734	-0.063472	0.943375
C35	C	0.834186	-0.392029	0.392017
C36	C	1.334186	0.107971	0.892017
C37	C	0.755956	-0.388729	0.388722
C38	C	1.255956	0.111271	0.888722
C39	C	0.719203	-0.434593	0.434451
C40	C	1.219203	0.065407	0.934451
C41	C	0.645698	-0.431482	0.431359
C42	C	1.145698	0.068518	0.931359
C43	C	0.608948	-0.382511	0.382534
C44	C	1.108948	0.117489	0.882534
C45	C	0.645706	-0.336641	0.336804
C46	C	1.145706	0.163359	0.836804
C47	C	0.719210	-0.339749	0.339900
C48	C	1.219210	0.160251	0.839900
C49	C	0.389116	-0.368129	0.368209
C50	C	0.889116	0.131871	0.868209
C51	C	0.315607	-0.365026	0.365114
C52	C	0.815607	0.134974	0.865114
C53	C	0.315605	-0.459867	0.459671
C54	C	0.815605	0.040133	0.959671
C55	C	0.389110	-0.462973	0.462759
C56	C	0.889110	0.037027	0.962759
C57	C	0.425861	-0.417101	0.417032
C58	C	0.925861	0.082899	0.917032
N59	N	0.533814	-0.379331	0.379371
N60	N	1.033814	0.120669	0.879371
N61	N	0.500994	-0.420277	0.420199
N62	N	1.000994	0.079723	0.920199
C63	C	1.016954	-0.592192	0.399733
C64	C	1.516954	-0.092192	0.899733
C65	C	1.016978	-0.674507	0.399749
C66	C	1.516978	-0.174507	0.899749
C67	C	1.017133	-0.973604	0.399795
C68	C	1.517133	-0.473604	0.899795
C69	C	0.962877	-0.939989	0.454873
C70	C	1.462877	-0.439989	0.954873
C71	C	0.962619	-0.854360	0.454683
C72	C	1.462619	-0.354360	0.954683
C73	C	1.017056	-0.825219	0.399773
C74	C	1.517056	-0.325219	0.899773
C75	C	0.996977	-0.855525	0.320876
C76	C	1.496977	-0.355525	0.820876
C77	C	0.996628	-0.941156	0.321204
C78	C	1.496628	-0.441156	0.821204
C79	C	1.091586	-0.945099	0.422933
C80	C	1.591586	-0.445099	0.922933
C81	C	1.091149	-0.859429	0.424626
C82	C	1.591149	-0.359429	0.924626
C83	C	1.017014	-0.741357	0.399756
C84	C	1.517014	-0.241357	0.899756
C85	C	1.017173	-1.057466	0.399808
C86	C	1.517173	-0.557466	0.899808
C87	C	1.200625	-0.407572	0.407531
C88	C	1.700625	0.092428	0.907531
C89	C	1.278854	-0.410891	0.410843
C90	C	1.778854	0.089109	0.910843
C91	C	1.017084	-0.399719	0.592922
C92	C	1.517084	0.100281	1.092922
C93	C	1.017099	-0.399691	0.675237
C94	C	1.517099	0.100309	1.175237
C95	C	1.017162	-0.206628	0.399801
C96	C	1.517162	0.293372	0.899801
C97	C	1.017211	-0.124316	0.399819
C98	C	1.517211	0.375684	0.899819
C99	C	1.017053	-0.399799	0.207348
C100	C	1.517053	0.100201	0.707348
C101	C	1.017174	-0.399624	0.125039
C102	C	1.517174	0.100376	0.625039
C103	C	1.017124	-0.399669	0.825946
C104	C	1.517124	0.100331	1.325946
C105	C	1.071553	-0.344740	0.859616
C106	C	1.571553	0.155260	1.359616
C107	C	1.071780	-0.344905	0.945244
C108	C	1.571780	0.155095	1.445244
C109	C	1.017149	-0.399646	0.974330
C110	C	1.517149	0.100354	1.474330
C111	C	1.036989	-0.478598	0.944059
C112	C	1.536989	0.021402	1.444059
C113	C	1.037370	-0.478297	0.858430
C114	C	1.537370	0.021703	1.358430
C115	C	0.942724	-0.376319	0.854362
C116	C	1.442724	0.123681	1.354362
C117	C	0.943138	-0.374601	0.940030
C118	C	1.443138	0.125399	1.440030
C119	C	1.017162	-0.399638	1.058190
C120	C	1.517162	0.100362	1.558190
C121	C	1.017113	-0.399683	0.742086
C122	C	1.517113	0.100317	1.242086
H123	H	0.285674	-0.497212	0.496900
H124	H	0.785674	0.002788	0.996900
N125	N	1.142290	-0.972651	0.372650
N126	N	1.642290	-0.472651	0.872650
N127	N	1.123768	-1.013107	0.319986
N128	N	1.623768	-0.513107	0.819986
H129	H	1.159572	-1.032568	0.284470
H130	H	1.659572	-0.532568	0.784470
N131	N	0.426659	-0.321277	0.321504
N132	N	0.926659	0.178723	0.821504
N133	N	0.467704	-0.275848	0.349367
N134	N	0.967704	0.224152	0.849367
H135	H	0.494221	-0.242758	0.316380
H136	H	0.994221	0.257242	0.816380
H137	H	1.126370	-0.360289	0.840416
H138	H	1.626370	0.139711	1.340416
N139	N	0.608141	-0.478327	0.478060
N140	N	1.108141	0.021673	0.978060
N141	N	0.567153	-0.450601	0.523571
N142	N	1.067153	0.049399	1.023571
H143	H	0.540625	-0.483686	0.556554
H144	H	1.040625	0.016314	1.056554
N145	N	0.608158	-0.286616	0.286940
N146	N	1.108158	0.213384	0.786940
N147	N	0.542531	-0.283847	0.284181
N148	N	1.042531	0.216153	0.784181
H149	H	0.516012	-0.248516	0.248963
H150	H	1.016012	0.251484	0.748963
H151	H	0.907432	-0.831601	0.439109
H152	H	1.407432	-0.331601	0.939109
H153	H	1.059385	-0.286470	0.965755
H154	H	1.559385	0.213530	1.465755
N155	N	0.278077	-0.314995	0.315234
N156	N	0.778077	0.185005	0.815234
N157	N	0.310899	-0.274042	0.274411
N158	N	0.810899	0.225958	0.774411
H159	H	0.284393	-0.238710	0.239184
H160	H	0.784393	0.261290	0.739184
N161	N	0.756744	-0.292887	0.293191
N162	N	1.256744	0.207113	0.793191
N163	N	0.723925	-0.249162	0.249604
N164	N	1.223925	0.250838	0.749604
H165	H	0.750432	-0.216060	0.216617
H166	H	1.250432	0.283940	0.716617
H167	H	0.419027	-0.502853	0.502516
H168	H	0.919027	-0.002853	1.002516
H169	H	0.900444	-0.411413	0.959595
H170	H	1.400444	0.088587	1.459595
H171	H	0.975181	-0.833824	0.513086
H172	H	1.475181	-0.333824	1.013086
N173	N	0.978520	-0.966374	0.528378
N174	N	1.478520	-0.466374	1.028378
N175	N	1.029834	-1.010268	0.541031
N176	N	1.529834	-0.510268	1.041031
H177	H	1.040897	-1.028889	0.592950
H178	H	1.540897	-0.528889	1.092950
H179	H	0.908025	-0.959254	0.439480
H180	H	1.408025	-0.459254	0.939480
H181	H	0.902175	-0.416286	0.832358
H182	H	1.402175	0.083714	1.332358
N183	N	0.924343	-0.301693	0.964734
N184	N	1.424343	0.198307	1.464734
N185	N	0.913004	-0.250618	0.918829
N186	N	1.413004	0.249382	1.418829
H187	H	0.899729	-0.199127	0.936279
H188	H	1.399729	0.300873	1.436279
N189	N	0.928348	-0.963415	0.297094
N190	N	1.428348	-0.463415	0.797094
N191	N	0.893105	-1.000972	0.338817
N192	N	1.393105	-0.500972	0.838817
H193	H	0.844880	-1.016689	0.321791
H194	H	1.344880	-0.516689	0.821791
N195	N	1.044036	-0.969150	0.267740
N196	N	1.544036	-0.469150	0.767740
N197	N	1.077272	-0.925439	0.230300
N198	N	1.577272	-0.425439	0.730300
H199	H	1.110747	-0.945206	0.192532
H200	H	1.610747	-0.445206	0.692532
N201	N	1.044997	-0.832008	0.267824
N202	N	1.544997	-0.332008	0.767824
N203	N	1.094672	-0.792554	0.287619
N204	N	1.594672	-0.292554	0.787619
H205	H	1.128588	-0.775944	0.250153
H206	H	1.628588	-0.275944	0.750153
H207	H	0.749120	-0.474474	0.474207
H208	H	1.249120	0.025526	0.974207
H209	H	0.943129	-0.831862	0.301362
H210	H	1.443129	-0.331862	0.801362
H211	H	1.106290	-0.839703	0.482705
H212	H	1.606290	-0.339703	0.982705
N213	N	1.114562	-0.973104	0.494077
N214	N	1.614562	-0.473104	0.994077
N215	N	1.121653	-1.041298	0.504475
N216	N	1.621653	-0.541298	1.004475
H217	H	1.137874	-1.061078	0.554723
H218	H	1.637874	-0.561078	1.054723
N219	N	1.144545	-0.834828	0.378288
N220	N	1.644545	-0.334828	0.878288
N221	N	1.155514	-0.767412	0.373477
N222	N	1.655514	-0.267412	0.873477
H223	H	1.193223	-0.750038	0.340744
H224	H	1.693223	-0.250038	0.840744
N225	N	1.056187	-0.271221	0.833152
N226	N	1.556187	0.228779	1.333152
N227	N	1.004945	-0.258447	0.789165
N228	N	1.504945	0.241553	1.289165
H229	H	0.994091	-0.206523	0.770470
H230	H	1.494091	0.293477	1.270470
N231	N	1.140951	-0.364626	0.973872
N232	N	1.640951	0.135374	1.473872
N233	N	1.189207	-0.378317	0.930598
N234	N	1.689207	0.121683	1.430598
H235	H	1.238062	-0.392250	0.950815
H236	H	1.738062	0.107750	1.450815
H237	H	1.091748	-0.497685	0.840757
H238	H	1.591748	0.002315	1.340757
H239	H	0.999420	-0.520786	0.836072
H240	H	1.499420	-0.020786	1.336072
N241	N	0.988784	-0.531501	0.967529
N242	N	1.488784	-0.031501	1.467529
N243	N	0.939152	-0.511559	1.006922
N244	N	1.439152	-0.011559	1.506922
H245	H	0.905106	-0.548920	1.023499
H246	H	1.405106	-0.048920	1.523499
H247	H	1.090767	-0.498260	0.967803
H248	H	1.590767	0.001740	1.467803
N249	N	0.920004	-0.305118	0.826332
N250	N	1.420004	0.194882	1.326332
N251	N	0.955476	-0.250007	0.841014
N252	N	1.455476	0.249993	1.341014
H253	H	0.939438	-0.199718	0.821218
H254	H	1.439438	0.300282	1.321218
