data_functionalizedCrystal
_audit_creation_method	'MofGen! by Chris Wilmer'
_symmetry_space_group_name_H-M	'P1'
_symmetry_Int_Tables_number	1
_symmetry_cell_setting	triclinic
loop_
_symmetry_equiv_pos_as_xyz
  x,y,z
_cell_length_a	17.699097
_cell_length_b	17.699104
_cell_length_c	16.776229
_cell_angle_alpha	90.008328
_cell_angle_beta	90.004801
_cell_angle_gamma	83.289974
loop_
_atom_site_label
_atom_site_type_symbol
_atom_site_fract_x
_atom_site_fract_y
_atom_site_fract_z
O1	O	1.004073	0.095761	0.066356
O2	O	0.783697	0.108203	0.066343
O3	O	0.900103	-0.008205	0.066343
O4	O	0.887667	0.212170	0.066356
O5	O	0.900101	-0.008216	-0.066234
O6	O	0.783695	0.108193	-0.066233
O7	O	1.004071	0.095751	-0.066220
Zn8	Zn	0.893882	0.101970	-0.087276
Zn9	Zn	0.893885	0.101984	0.087399
O10	O	0.887665	0.212160	-0.066220
C11	C	0.755499	0.107751	0.000053
C12	C	0.671481	0.106408	0.000048
C13	C	0.155763	0.098184	0.072347
C14	C	0.234707	0.099441	0.072344
C15	C	0.274172	0.100064	0.000073
C16	C	0.234690	0.099424	-0.072199
C17	C	0.155748	0.098162	-0.072194
C18	C	0.553054	0.104511	-0.072219
C19	C	0.632002	0.105775	-0.072218
C20	C	0.632014	0.105790	0.072318
C21	C	0.553072	0.104528	0.072323
C22	C	0.513597	0.103884	0.000052
C23	C	0.427997	0.102520	0.000057
C24	C	0.359770	0.101433	0.000067
C25	C	0.899653	-0.036407	0.000055
C26	C	0.898308	-0.120425	0.000054
C27	C	1.032268	0.096204	0.000071
C28	C	1.116286	0.097546	0.000082
C29	C	0.959052	-0.645293	0.000080
C30	C	0.960311	-0.566349	0.000073
C31	C	0.891976	-0.517735	0.000067
C32	C	0.822378	-0.548068	0.000061
C33	C	0.821119	-0.627010	0.000062
C34	C	0.827451	-0.229702	0.000054
C35	C	0.828715	-0.150754	0.000055
C36	C	0.966642	-0.169040	0.000066
C37	C	0.965384	-0.247983	0.000067
C38	C	0.895786	-0.278309	0.000056
C39	C	0.894422	-0.363909	0.000062
C40	C	0.893340	-0.432136	0.000067
C41	C	0.888114	0.240362	0.000070
C42	C	0.889459	0.324379	0.000076
N43	N	0.893887	0.101988	0.206610
N44	N	0.893886	0.101961	-0.206487
C45	C	0.945527	0.050543	0.248327
C46	C	0.945530	0.050541	0.331779
C47	C	0.893889	0.101981	0.373513
C48	C	0.842246	0.153431	0.331790
C49	C	0.842248	0.153436	0.248340
C50	C	0.842240	0.153413	0.668338
C51	C	0.842242	0.153402	0.751794
C52	C	0.945523	0.050518	0.751777
C53	C	0.945524	0.050523	0.668327
C54	C	0.893885	0.101975	0.626611
C55	C	0.893883	0.101978	0.536123
C56	C	0.893886	0.101975	0.464000
H57	H	0.266847	0.099955	0.131190
H58	H	0.266829	0.099927	-0.131043
C59	C	0.510332	0.103862	-0.150766
C60	C	0.561790	0.104704	-0.214055
C61	C	0.522458	0.104119	-0.286427
H62	H	0.485382	0.059264	-0.153890
H63	H	0.473702	0.147507	-0.153809
H64	H	0.598408	0.061064	-0.211013
H65	H	0.586743	0.149299	-0.210957
H66	H	0.485827	0.147763	-0.289470
H67	H	0.497508	0.059519	-0.289542
H68	H	0.557364	0.104697	-0.329377
H69	H	0.520943	0.104024	0.131173
H70	H	0.987573	0.008634	0.634350
H71	H	0.766739	-0.508480	0.000051
H72	H	0.987580	0.008652	0.365745
H73	H	0.123606	0.097651	-0.131040
H74	H	1.014698	-0.684870	0.000092
H75	H	0.123636	0.097682	0.131199
H76	H	0.987573	0.008625	0.785751
C77	C	1.039554	-0.300799	0.000238
C78	C	1.042871	-0.346629	0.068457
C79	C	1.111191	-0.395284	0.068645
H80	H	1.042002	-0.332053	-0.045939
H81	H	1.081204	-0.271455	0.000282
H82	H	1.001233	-0.375971	0.068406
H83	H	1.040436	-0.315396	0.114645
H84	H	1.152841	-0.365940	0.068689
H85	H	1.113633	-0.426533	0.022465
H86	H	1.113454	-0.426381	0.114934
C87	C	0.754460	-0.098060	0.000167
C88	C	0.712530	-0.111749	0.068357
C89	C	0.644124	-0.063229	0.068483
H90	H	0.765072	-0.046676	0.000212
H91	H	0.725878	-0.107256	-0.046046
H92	H	0.741106	-0.102547	0.114559
H93	H	0.701898	-0.163124	0.068327
H94	H	0.615542	-0.072425	0.022270
H95	H	0.654743	-0.011848	0.068526
H96	H	0.615663	-0.072516	0.114745
H97	H	0.770780	-0.254383	0.000055
H98	H	0.764450	-0.651702	0.000052
C99	C	1.001678	-0.005345	0.203164
C100	C	1.046914	-0.050386	0.257564
C101	C	1.098656	-0.101873	0.215992
H102	H	0.974663	-0.036947	0.170599
H103	H	1.033118	0.021888	0.170635
H104	H	1.015478	-0.077617	0.290080
H105	H	1.073946	-0.018805	0.290131
H106	H	1.130097	-0.074639	0.183463
H107	H	1.071635	-0.133469	0.183429
H108	H	1.129360	-0.132434	0.252896
C109	C	1.042132	-0.135967	0.000028
C110	C	1.028614	-0.056428	0.000002
C111	C	1.098134	-0.025937	-0.000040
H112	H	1.070318	-0.152569	0.046252
H113	H	1.070270	-0.152627	-0.046219
H114	H	1.000488	-0.039774	0.046244
H115	H	1.000439	-0.039805	-0.046218
H116	H	1.126272	-0.042598	-0.046288
H117	H	1.126315	-0.042544	0.046184
H118	H	1.088972	0.028033	-0.000066
H119	H	0.664132	0.106283	-0.131074
C120	C	0.786264	0.209403	0.377058
C121	C	0.798274	0.283804	0.356795
C122	C	0.746722	0.335384	0.398486
H123	H	0.735763	0.201251	0.363407
H124	H	0.793661	0.202082	0.432741
H125	H	0.790871	0.291122	0.301124
H126	H	0.848765	0.291980	0.370447
H127	H	0.754119	0.328064	0.454168
H128	H	0.696224	0.327226	0.384832
H129	H	0.754868	0.385871	0.384749
C130	C	1.035948	-0.533568	0.000117
C131	C	1.095522	-0.593039	0.000146
C132	C	1.165212	-0.562871	0.000194
H133	H	1.039414	-0.503175	-0.046106
H134	H	1.039348	-0.503164	0.046365
H135	H	1.092124	-0.623430	-0.046097
H136	H	1.092081	-0.623437	0.046366
H137	H	1.168612	-0.532467	0.046442
H138	H	1.168671	-0.532478	-0.046029
H139	H	1.205642	-0.603216	0.000222
C140	C	0.674816	0.106639	0.150811
C141	C	0.647002	0.171438	0.194401
C142	C	0.686416	0.172255	0.266704
H143	H	0.667755	0.062371	0.180603
H144	H	0.727485	0.107519	0.140494
H145	H	0.594345	0.170551	0.204720
H146	H	0.654063	0.215716	0.164633
H147	H	0.739086	0.173135	0.256387
H148	H	0.679353	0.127984	0.296489
H149	H	0.667555	0.216224	0.296286
C150	C	0.786141	0.209344	0.796963
C151	C	0.740931	0.254420	0.742570
C152	C	0.689253	0.305965	0.784151
H153	H	0.754669	0.182178	0.829510
H154	H	0.813229	0.240910	0.829512
H155	H	0.713845	0.222859	0.710036
H156	H	0.772382	0.281603	0.710022
H157	H	0.716341	0.337531	0.816699
H158	H	0.657787	0.278793	0.816696
H159	H	0.658577	0.336560	0.747252
C160	C	0.786132	0.209148	0.622955
C161	C	0.739974	0.168797	0.575016
C162	C	0.688281	0.220117	0.533189
H163	H	0.755304	0.239799	0.659676
H164	H	0.813210	0.240677	0.590366
H165	H	0.712898	0.137281	0.607602
H166	H	0.770782	0.138149	0.538281
H167	H	0.715359	0.251645	0.500600
H168	H	0.657458	0.250764	0.569915
H169	H	0.656962	0.192746	0.500652
C170	C	0.786299	0.209376	0.203003
C171	C	0.826433	0.255763	0.155126
C172	C	0.774920	0.307314	0.113361
H173	H	0.754882	0.182215	0.170373
H174	H	0.755553	0.240054	0.239785
H175	H	0.857166	0.225089	0.118349
H176	H	0.857847	0.282941	0.187736
H177	H	0.744174	0.337992	0.150143
H178	H	0.743506	0.280147	0.080735
H179	H	0.802144	0.338798	0.080877
