data_functionalizedCrystal
_audit_creation_method	'MofGen! by Chris Wilmer'
_symmetry_space_group_name_H-M	'P1'
_symmetry_Int_Tables_number	1
_symmetry_cell_setting	triclinic
loop_
_symmetry_equiv_pos_as_xyz
  x,y,z
_cell_length_a	13.033293
_cell_length_b	16.120531
_cell_length_c	16.120256
_cell_angle_alpha	84.387676
_cell_angle_beta	85.311795
_cell_angle_gamma	79.562967
loop_
_atom_site_label
_atom_site_type_symbol
_atom_site_fract_x
_atom_site_fract_y
_atom_site_fract_z
Zn1	Zn	1.543876	0.208073	-0.638603
Zn2	Zn	2.043876	0.708073	-0.138603
Zn3	Zn	1.543726	0.340772	-0.505890
Zn4	Zn	2.043726	0.840772	-0.005890
Zn5	Zn	1.378441	0.216937	-0.482865
Zn6	Zn	1.878441	0.716937	0.017135
Zn7	Zn	1.359708	0.365540	-0.627834
Zn8	Zn	1.859708	0.865540	-0.127834
O9	O	1.456438	0.282831	-0.563798
O10	O	1.956438	0.782831	-0.063798
O11	O	1.690103	0.211600	-0.635142
O12	O	2.190103	0.711600	-0.135142
O13	O	1.529577	0.317690	-0.386625
O14	O	2.029577	0.817690	0.113375
O15	O	1.408289	0.098035	-0.498395
O16	O	1.908289	0.598035	0.001605
O17	O	1.689993	0.309094	-0.537639
O18	O	2.189993	0.809094	-0.037639
O19	O	1.529834	0.091522	-0.612815
O20	O	2.029834	0.591522	-0.112815
O21	O	1.408144	0.226709	-0.369708
O22	O	1.908144	0.726709	0.130292
O23	O	1.229709	0.250725	-0.487952
O24	O	1.729709	0.750725	0.012048
O25	O	1.376361	0.351308	-0.745473
O26	O	1.876361	0.851308	-0.245473
O27	O	1.215945	0.359903	-0.594460
O28	O	1.715945	0.859903	-0.094460
O29	O	1.511669	0.235617	-0.753385
O30	O	2.011669	0.735617	-0.253385
O31	O	1.511412	0.461784	-0.527196
O32	O	2.011412	0.961784	-0.027196
O33	O	1.376215	0.479981	-0.616787
O34	O	1.876215	0.979981	-0.116787
C35	C	1.184907	0.308964	-0.537539
C36	C	1.684907	0.808964	-0.037539
C37	C	1.068742	0.320166	-0.526326
C38	C	1.568742	0.820166	-0.026326
C39	C	1.016996	0.277006	-0.569651
C40	C	1.516996	0.777006	-0.069651
C41	C	0.896934	0.288582	-0.558063
C42	C	1.396934	0.788582	-0.058063
C43	C	1.441792	0.501406	-0.573342
C44	C	1.941792	1.001406	-0.073342
C45	C	1.435620	0.594906	-0.577462
C46	C	1.935620	1.094906	-0.077462
C47	C	1.424356	0.766090	-0.585001
C48	C	1.924356	1.266090	-0.085001
C49	C	1.488561	0.798724	-0.542552
C50	C	1.988561	1.298724	-0.042552
C51	C	1.482294	0.893977	-0.546747
C52	C	1.982294	1.393977	-0.046747
C53	C	1.430622	0.670829	-0.580807
C54	C	1.930622	1.170829	-0.080807
C55	C	1.729029	0.256595	-0.590160
C56	C	2.229029	0.756595	-0.090160
C57	C	1.845191	0.245416	-0.601394
C58	C	2.345191	0.745416	-0.101394
C59	C	1.471132	1.063403	-0.554219
C60	C	1.971132	1.563403	-0.054219
C61	C	1.477301	0.969903	-0.550089
C62	C	1.977301	1.469903	-0.050089
C63	C	1.441942	0.295236	-0.780404
C64	C	1.941942	0.795236	-0.280404
C65	C	1.435765	0.300523	-0.872708
C66	C	1.935765	0.800523	-0.372708
C67	C	1.488651	0.255241	-1.086746
C68	C	1.988651	0.755241	-0.586746
C69	C	1.424454	0.310143	-1.041700
C70	C	1.924454	0.810143	-0.541700
C71	C	1.430749	0.304788	-0.947664
C72	C	1.930749	0.804788	-0.447664
C73	C	1.482357	0.260594	-1.180791
C74	C	1.982357	0.760594	-0.680791
C75	C	1.470941	0.270407	-0.348038
C76	C	1.970941	0.770407	0.151962
C77	C	1.477337	0.264864	-0.255743
C78	C	1.977337	0.764864	0.244257
H79	H	0.852354	0.334104	-0.512386
H80	H	1.352354	0.834104	-0.012386
Cl81	Cl	1.085822	0.206719	-0.640165
Cl82	Cl	1.585822	0.706719	-0.140165
H83	H	1.548335	0.204221	-1.054691
H84	H	2.048335	0.704221	-0.554691
H85	H	1.024158	0.365685	-0.480653
H86	H	1.524158	0.865685	0.019347
Cl87	Cl	1.580691	0.731415	-0.481573
Cl88	Cl	2.080691	1.231415	0.018427
Cl89	Cl	1.332300	0.388923	-1.091191
Cl90	Cl	1.832300	0.888923	-0.591191
Cl91	Cl	0.914010	0.175121	-0.671907
Cl92	Cl	1.414010	0.675121	-0.171907
Cl93	Cl	1.332226	0.833400	-0.645969
Cl94	Cl	1.832226	1.333400	-0.145969
