data_functionalizedCrystal
_audit_creation_method	'MofGen! by Chris Wilmer'
_symmetry_space_group_name_H-M	'P1'
_symmetry_Int_Tables_number	1
_symmetry_cell_setting	triclinic
loop_
_symmetry_equiv_pos_as_xyz
  x,y,z
_cell_length_a	19.188930
_cell_length_b	17.699083
_cell_length_c	16.176319
_cell_angle_alpha	90.002310
_cell_angle_beta	89.998695
_cell_angle_gamma	96.786101
loop_
_atom_site_label
_atom_site_type_symbol
_atom_site_fract_x
_atom_site_fract_y
_atom_site_fract_z
O1	O	0.088281	-1.003960	0.068640
O2	O	0.588281	-0.503960	0.568640
O3	O	0.099769	-0.783567	0.068668
O4	O	0.599769	-0.283567	0.568668
O5	O	-0.007624	-0.900123	0.068637
O6	O	0.492376	-0.400123	0.568637
O7	O	0.195674	-0.887403	0.068671
O8	O	0.695674	-0.387403	0.568671
O9	O	-0.007604	-0.900112	-0.068856
O10	O	0.492396	-0.400112	0.431144
O11	O	0.099788	-0.783555	-0.068825
O12	O	0.599788	-0.283555	0.431175
O13	O	0.088301	-1.003949	-0.068853
O14	O	0.588301	-0.503949	0.431147
Cu15	Cu	0.094046	-0.893751	-0.081393
Cu16	Cu	0.594046	-0.393751	0.418607
Cu17	Cu	0.094023	-0.893764	0.081208
Cu18	Cu	0.594023	-0.393764	0.581208
O19	O	0.195693	-0.887392	-0.068822
O20	O	0.695693	-0.387392	0.431178
C21	C	-0.033625	-0.899706	-0.000112
C22	C	0.466375	-0.399706	0.499888
C23	C	-0.111131	-0.898469	-0.000119
C24	C	0.388869	-0.398469	0.499881
C25	C	0.099367	-0.755365	-0.000075
C26	C	0.599367	-0.255365	0.499925
C27	C	0.098132	-0.671348	-0.000065
C28	C	0.598132	-0.171348	0.499935
C29	C	0.088703	-1.032151	-0.000108
C30	C	0.588703	-0.532151	0.499892
C31	C	0.089938	-1.116167	-0.000113
C32	C	0.589938	-0.616167	0.499887
C33	C	-0.155978	-0.966861	-0.000131
C34	C	0.344022	-0.466861	0.499869
C35	C	-0.228804	-0.965699	-0.000118
C36	C	0.271196	-0.465699	0.499882
C37	C	-0.256778	-0.896142	-0.000108
C38	C	0.243222	-0.396142	0.499892
C39	C	-0.211921	-0.827741	-0.000091
C40	C	0.288079	-0.327741	0.499909
C41	C	-0.139097	-0.828905	-0.000096
C42	C	0.360903	-0.328905	0.499904
N43	N	-0.364836	-0.842970	-0.046893
N44	N	0.135164	-0.342970	0.453107
N45	N	-0.434016	-0.841869	-0.046890
N46	N	0.065984	-0.341869	0.453110
C47	C	-0.476191	-0.892632	-0.000091
C48	C	0.023809	-0.392632	0.499909
N49	N	-0.446574	-0.944548	0.046694
N50	N	0.053426	-0.444548	0.546694
N51	N	-0.377388	-0.945651	0.046687
N52	N	0.122612	-0.445651	0.546687
C53	C	-0.335742	-0.894873	-0.000102
C54	C	0.164258	-0.394873	0.499898
C55	C	-0.600004	-0.959769	-0.000088
C56	C	-0.100004	-0.459769	0.499912
C57	C	-0.672830	-0.958604	-0.000070
C58	C	-0.172830	-0.458604	0.499930
C59	C	-0.655946	-0.820644	-0.000051
C60	C	-0.155946	-0.320644	0.499949
C61	C	-0.583121	-0.821811	-0.000061
C62	C	-0.083121	-0.321811	0.499939
C63	C	-0.555155	-0.891375	-0.000084
C64	C	-0.055155	-0.391375	0.499916
C65	C	0.221695	-0.887810	-0.000071
C66	C	0.721695	-0.387810	0.499929
C67	C	0.299201	-0.889046	-0.000059
C68	C	0.799201	-0.389046	0.499941
N69	N	0.094062	-0.893747	-0.195758
N70	N	0.594062	-0.393747	0.304242
C71	C	0.161169	-0.622644	-0.000055
C72	C	0.661169	-0.122644	0.499945
C73	C	0.160004	-0.543702	-0.000065
C74	C	0.660004	-0.043702	0.499935
C75	C	0.095802	-0.513466	-0.000081
C76	C	0.595802	-0.013466	0.499919
C77	C	0.032761	-0.562176	-0.000093
C78	C	0.532761	-0.062176	0.499907
C79	C	0.033926	-0.641117	-0.000088
C80	C	0.533926	-0.141117	0.499912
C81	C	0.028060	-0.243819	-0.000115
C82	C	0.528060	0.256181	0.499885
C83	C	0.026900	-0.164873	-0.000117
C84	C	0.526900	0.335127	0.499883
C85	C	0.154139	-0.146405	-0.000092
C86	C	0.654139	0.353595	0.499908
C87	C	0.155304	-0.225345	-0.000087
C88	C	0.655304	0.274655	0.499913
C89	C	0.092263	-0.274049	-0.000104
C90	C	0.592263	0.225951	0.499896
C91	C	0.093526	-0.359646	-0.000094
C92	C	0.593526	0.140354	0.499906
C93	C	0.094538	-0.427870	-0.000085
C94	C	0.594538	0.072130	0.499915
C95	C	0.051714	-0.848012	-0.761150
C96	C	0.551714	-0.348012	-0.261150
C97	C	0.051720	-0.848011	-0.674603
C98	C	0.551720	-0.348011	-0.174603
C99	C	0.094017	-0.893768	-0.631334
C100	C	0.594017	-0.393768	-0.131334
C101	C	0.136307	-0.939535	-0.674617
C102	C	0.636307	-0.439535	-0.174617
C103	C	0.136297	-0.939540	-0.761162
C104	C	0.636297	-0.439540	-0.261162
C105	C	0.136346	-0.939516	-0.325588
C106	C	0.636346	-0.439516	0.174412
C107	C	0.136354	-0.939506	-0.239037
C108	C	0.636354	-0.439506	0.260963
C109	C	0.051769	-0.847987	-0.239029
C110	C	0.551769	-0.347987	0.260971
C111	C	0.051759	-0.847992	-0.325574
C112	C	0.551759	-0.347992	0.174426
C113	C	0.094045	-0.893762	-0.368850
C114	C	0.594045	-0.393762	0.131150
C115	C	0.094038	-0.893764	-0.462694
C116	C	0.594038	-0.393764	0.037306
C117	C	0.094029	-0.893762	-0.537491
C118	C	0.594029	-0.393762	-0.037491
N119	N	0.094002	-0.893774	0.195574
N120	N	0.594002	-0.393774	0.695574
H121	H	-0.133213	-1.023506	-0.000147
H122	H	0.366787	-0.523506	0.499853
O123	O	-0.029545	-0.532681	-0.000073
O124	O	0.470455	-0.032681	0.499927
C125	C	-0.017058	-0.452563	-0.000094
C126	C	0.482942	0.047437	0.499906
H127	H	0.037455	-0.433841	0.025947
H128	H	0.537455	0.066159	0.525947
H129	H	-0.058139	-0.428459	0.039815
H130	H	0.441861	0.071541	0.539815
H131	H	-0.020394	-0.430602	-0.066058
H132	H	0.479606	0.069398	0.433942
H133	H	-0.017406	-0.680771	-0.000096
H134	H	0.482594	-0.180771	0.499904
H135	H	0.017274	-0.810747	-0.796373
H136	H	0.517274	-0.310747	-0.296373
O137	O	0.221259	-0.496425	0.000095
O138	O	0.721259	0.003575	0.500095
C139	C	0.260239	-0.510106	0.071305
C140	C	0.760239	-0.010106	0.571305
H141	H	0.223322	-0.537203	0.121069
H142	H	0.723322	-0.037203	0.621069
H143	H	0.288331	-0.454002	0.095210
H144	H	0.788331	0.045998	0.595210
H145	H	0.300584	-0.550175	0.055221
H146	H	0.800584	-0.050175	0.555221
O147	O	0.177541	-0.983917	-0.197096
O148	O	0.677541	-0.483917	0.302904
C149	C	0.248436	-0.962706	-0.218241
C150	C	0.748436	-0.462706	0.281759
H151	H	0.251464	-0.933351	-0.281082
H152	H	0.751464	-0.433351	0.218918
H153	H	0.276965	-1.015603	-0.221201
H154	H	0.776965	-0.515603	0.278799
H155	H	0.274207	-0.922015	-0.169540
H156	H	0.774207	-0.422015	0.330460
H157	H	-0.265325	-1.021394	-0.000125
H158	H	0.234675	-0.521394	0.499875
H159	H	-0.102582	-0.773210	-0.000086
H160	H	0.397418	-0.273210	0.499914
O161	O	0.010681	-0.803604	-0.632436
O162	O	0.510681	-0.303604	-0.132436
C163	C	0.019778	-0.813386	-0.546770
C164	C	0.519778	-0.313386	-0.046770
H165	H	0.039588	-0.870655	-0.534945
H166	H	0.539588	-0.370655	-0.034945
H167	H	-0.032538	-0.811616	-0.513861
H168	H	0.467462	-0.311616	-0.013861
H169	H	0.059639	-0.765800	-0.522234
H170	H	0.559639	-0.265800	-0.022234
H171	H	-0.234702	-0.771107	-0.000081
H172	H	0.265298	-0.271107	0.499919
O173	O	0.010606	-0.803525	-0.367478
O174	O	0.510606	-0.303525	0.132522
C175	C	-0.026707	-0.763118	-0.310724
C176	C	0.473293	-0.263118	0.189276
H177	H	-0.030812	-0.794454	-0.249028
H178	H	0.469188	-0.294454	0.250972
H179	H	-0.081608	-0.758613	-0.335724
H180	H	0.418392	-0.258613	0.164276
H181	H	0.002124	-0.703613	-0.301529
H182	H	0.502124	-0.203613	0.198471
H183	H	-0.577233	-1.016412	-0.000103
H184	H	-0.077233	-0.516412	0.499897
H185	H	-0.709345	-1.014299	-0.000076
H186	H	-0.209345	-0.514299	0.499924
H187	H	-0.678722	-0.764009	-0.000039
H188	H	-0.178722	-0.264009	0.499961
O189	O	-0.539652	-0.755304	-0.000096
O190	O	-0.039652	-0.255304	0.499904
C191	C	-0.579956	-0.693660	-0.000064
C192	C	-0.079956	-0.193660	0.499936
H193	H	-0.634343	-0.713050	-0.026092
H194	H	-0.134343	-0.213050	0.473908
H195	H	-0.553013	-0.645751	-0.039979
H196	H	-0.053013	-0.145751	0.460021
H197	H	-0.585102	-0.672331	0.065901
H198	H	-0.085102	-0.172331	0.565901
H199	H	0.170779	-0.976784	-0.360813
H200	H	0.670779	-0.476784	0.139187
H201	H	0.213450	-0.647256	-0.000042
H202	H	0.713450	-0.147256	0.499958
H203	H	0.207584	-0.249959	-0.000070
H204	H	0.707584	0.250041	0.499930
O205	O	0.215315	-0.098986	-0.000120
O206	O	0.715315	0.401014	0.499880
C207	C	0.200525	-0.022826	-0.000110
C208	C	0.700525	0.477174	0.499890
H209	H	0.145695	-0.019981	-0.026155
H210	H	0.645695	0.480019	0.473845
H211	H	0.240724	0.013069	-0.040020
H212	H	0.740724	0.513069	0.459980
H213	H	0.203198	0.000019	0.065852
H214	H	0.703198	0.500019	0.565852
O215	O	0.010785	-0.803485	-0.196900
O216	O	0.510785	-0.303485	0.303100
C217	C	0.053426	-0.751685	-0.146861
C218	C	0.553426	-0.251685	0.353139
H219	H	0.105204	-0.775067	-0.133899
H220	H	0.605204	-0.275067	0.366101
H221	H	0.025372	-0.743341	-0.086000
H222	H	0.525372	-0.243341	0.414000
H223	H	0.064183	-0.694763	-0.180220
H224	H	0.564183	-0.194763	0.319780
H225	H	-0.025384	-0.140258	-0.000131
H226	H	0.474616	0.359742	0.499869
O227	O	0.177475	-0.983870	-0.632550
O228	O	0.677475	-0.483870	-0.132550
C229	C	0.225165	-0.937560	-0.582484
C230	C	0.725165	-0.437560	-0.082484
H231	H	0.232730	-0.877314	-0.608569
H232	H	0.732730	-0.377314	-0.108569
H233	H	0.277732	-0.961569	-0.581510
H234	H	0.777732	-0.461569	-0.081510
H235	H	0.203599	-0.936349	-0.516889
H236	H	0.703599	-0.436349	-0.016889
O237	O	-0.033240	-0.291015	-0.000091
O238	O	0.466760	0.208985	0.499909
C239	C	-0.090153	-0.247397	-0.000124
C240	C	0.409847	0.252603	0.499876
H241	H	-0.072333	-0.188418	0.025911
H242	H	0.427667	0.311582	0.525911
H243	H	-0.134321	-0.276661	0.039784
H244	H	0.365679	0.223339	0.539784
H245	H	-0.109827	-0.241840	-0.066091
H246	H	0.390173	0.258160	0.433909
O247	O	0.177441	-0.984013	-0.803076
O248	O	0.677441	-0.484013	-0.303076
C249	C	0.214763	-1.024413	-0.746330
C250	C	0.714763	-0.524413	-0.246330
H251	H	0.218885	-0.993064	-0.684639
H252	H	0.718885	-0.493064	-0.184639
H253	H	0.269658	-1.028928	-0.771347
H254	H	0.769658	-0.528928	-0.271347
H255	H	0.185929	-1.083914	-0.737117
H256	H	0.685929	-0.583914	-0.237117
