data_functionalizedCrystal
_audit_creation_method	'MofGen! by Chris Wilmer'
_symmetry_space_group_name_H-M	'P1'
_symmetry_Int_Tables_number	1
_symmetry_cell_setting	triclinic
loop_
_symmetry_equiv_pos_as_xyz
  x,y,z
_cell_length_a	11.792241
_cell_length_b	10.868271
_cell_length_c	16.109301
_cell_angle_alpha	89.994353
_cell_angle_beta	83.827448
_cell_angle_gamma	90.008606
loop_
_atom_site_label
_atom_site_type_symbol
_atom_site_fract_x
_atom_site_fract_y
_atom_site_fract_z
O1	O	1.505895	-0.102207	0.113955
O2	O	1.755895	0.147793	0.363955
O3	O	2.005895	0.397793	0.613955
O4	O	2.255895	0.647793	0.863955
O5	O	1.175451	-0.102236	0.125699
O6	O	1.425451	0.147764	0.375699
O7	O	1.675451	0.397764	0.625699
O8	O	1.925451	0.647764	0.875699
O9	O	1.349750	-0.102208	-0.001161
O10	O	1.599750	0.147792	0.248839
O11	O	1.849750	0.397792	0.498839
O12	O	2.099750	0.647792	0.748839
O13	O	1.331595	-0.102235	0.240815
O14	O	1.581595	0.147765	0.490815
O15	O	1.831595	0.397765	0.740815
O16	O	2.081595	0.647765	0.990815
O17	O	1.349765	0.102436	-0.001166
O18	O	1.599765	0.352436	0.248834
O19	O	1.849765	0.602436	0.498834
O20	O	2.099765	0.852436	0.748834
O21	O	1.175465	0.102409	0.125694
O22	O	1.425465	0.352409	0.375694
O23	O	1.675465	0.602409	0.625694
O24	O	1.925465	0.852409	0.875694
O25	O	1.505909	0.102438	0.113950
O26	O	1.755909	0.352438	0.363950
O27	O	2.005909	0.602438	0.613950
O28	O	2.255909	0.852438	0.863950
Zn29	Zn	1.340689	0.134915	0.119821
Zn30	Zn	1.590689	0.384915	0.369821
Zn31	Zn	1.840689	0.634915	0.619821
Zn32	Zn	2.090689	0.884915	0.869821
Zn33	Zn	1.340670	-0.134713	0.119828
Zn34	Zn	1.590670	0.115287	0.369828
Zn35	Zn	1.840670	0.365287	0.619828
Zn36	Zn	2.090670	0.615287	0.869828
O37	O	1.331609	0.102410	0.240810
O38	O	1.581609	0.352410	0.490810
O39	O	1.831609	0.602410	0.740810
O40	O	2.081609	0.852410	0.990810
C41	C	1.133173	0.000083	0.124959
C42	C	1.383173	0.250083	0.374959
C43	C	1.633173	0.500083	0.624959
C44	C	1.883173	0.750083	0.874959
C45	C	1.007179	0.000072	0.122751
C46	C	1.257179	0.250072	0.372751
C47	C	1.507179	0.500072	0.622751
C48	C	1.757179	0.750072	0.872751
N49	N	1.340658	-0.318727	0.119826
N50	N	1.590658	-0.068727	0.369826
N51	N	1.840658	0.181273	0.619826
N52	N	2.090658	0.431273	0.869826
C53	C	1.349022	0.000115	-0.032142
C54	C	1.599022	0.250115	0.217858
C55	C	1.849022	0.500115	0.467858
C56	C	2.099022	0.750115	0.717858
C57	C	1.346817	0.000116	-0.124448
C58	C	1.596817	0.250116	0.125552
C59	C	1.846817	0.500116	0.375552
C60	C	2.096817	0.750116	0.625552
C61	C	0.776502	0.000108	0.118690
C62	C	1.026502	0.250108	0.368690
C63	C	1.276502	0.500108	0.618690
C64	C	1.526502	0.750108	0.868690
C65	C	0.904868	0.000088	0.120946
C66	C	1.154868	0.250088	0.370946
C67	C	1.404868	0.500088	0.620946
C68	C	1.654868	0.750088	0.870946
C69	C	1.548186	0.000116	0.114690
C70	C	1.798186	0.250116	0.364690
C71	C	2.048186	0.500116	0.614690
C72	C	2.298186	0.750116	0.864690
C73	C	1.674181	0.000119	0.116898
C74	C	1.924181	0.250119	0.366898
C75	C	2.174181	0.500119	0.616898
C76	C	2.424181	0.750119	0.866898
C77	C	1.340666	-0.430065	0.119826
C78	C	1.590666	-0.180065	0.369826
C79	C	1.840666	0.069935	0.619826
C80	C	2.090666	0.319935	0.869826
C81	C	1.340687	-0.569743	0.119823
C82	C	1.590687	-0.319743	0.369823
C83	C	1.840687	-0.069743	0.619823
C84	C	2.090687	0.180257	0.869823
N85	N	1.340710	0.318929	0.119816
N86	N	1.590710	0.568929	0.369816
N87	N	1.840710	0.818929	0.619816
N88	N	2.090710	1.068929	0.869816
C89	C	1.445116	0.000105	-0.346258
C90	C	1.695116	0.250105	-0.096258
C91	C	1.945116	0.500105	0.153742
C92	C	2.195116	0.750105	0.403742
C93	C	1.443036	0.000095	-0.432988
C94	C	1.693036	0.250095	-0.182988
C95	C	1.943036	0.500095	0.067012
C96	C	2.193036	0.750095	0.317012
C97	C	1.236235	0.000082	-0.414087
C98	C	1.486235	0.250082	-0.164087
C99	C	1.736235	0.500082	0.085913
C100	C	1.986235	0.750082	0.335913
C101	C	1.238317	0.000083	-0.327358
C102	C	1.488317	0.250083	-0.077358
C103	C	1.738317	0.500083	0.172642
C104	C	1.988317	0.750083	0.422642
C105	C	1.342761	0.000101	-0.293446
C106	C	1.592761	0.250101	-0.043446
C107	C	1.842761	0.500101	0.206554
C108	C	2.092761	0.750101	0.456554
C109	C	1.338599	0.000089	-0.466905
C110	C	1.588599	0.250089	-0.216905
C111	C	1.838599	0.500089	0.033095
C112	C	2.088599	0.750089	0.283095
C113	C	1.336342	0.000078	-0.560942
C114	C	1.586342	0.250078	-0.310942
C115	C	1.836342	0.500078	-0.060942
C116	C	2.086342	0.750078	0.189058
C117	C	1.345018	0.000110	-0.199404
C118	C	1.595018	0.250110	0.050596
C119	C	1.845018	0.500110	0.300596
C120	C	2.095018	0.750110	0.550596
C121	C	1.332338	0.000084	0.271791
C122	C	1.582338	0.250084	0.521791
C123	C	1.832338	0.500084	0.771791
C124	C	2.082338	0.750084	1.021791
C125	C	1.334542	0.000074	0.364097
C126	C	1.584542	0.250074	0.614097
C127	C	1.834542	0.500074	0.864097
C128	C	2.084542	0.750074	1.114097
H129	H	1.530161	0.000117	-0.318650
H130	H	1.780161	0.250117	-0.068650
H131	H	2.030161	0.500117	0.181350
H132	H	2.280161	0.750117	0.431350
H133	H	1.526384	0.000096	-0.475984
H134	H	1.776384	0.250096	-0.225984
H135	H	2.026384	0.500096	0.024016
H136	H	2.276384	0.750096	0.274016
H137	H	1.154962	0.000076	-0.284357
H138	H	1.404962	0.250076	-0.034357
H139	H	1.654962	0.500076	0.215643
H140	H	1.904962	0.750076	0.465643
H141	H	1.151201	0.000069	-0.441709
H142	H	1.401201	0.250069	-0.191709
H143	H	1.651201	0.500069	0.058291
H144	H	1.901201	0.750069	0.308291
