data_functionalizedCrystal
_audit_creation_method	'MofGen! by Chris Wilmer'
_symmetry_space_group_name_H-M	'P1'
_symmetry_Int_Tables_number	1
_symmetry_cell_setting	triclinic
loop_
_symmetry_equiv_pos_as_xyz
  x,y,z
_cell_length_a	10.654550
_cell_length_b	10.723024
_cell_length_c	9.198806
_cell_angle_alpha	89.998000
_cell_angle_beta	89.992790
_cell_angle_gamma	84.476386
loop_
_atom_site_label
_atom_site_type_symbol
_atom_site_fract_x
_atom_site_fract_y
_atom_site_fract_z
O1	O	-1.667814	-0.175272	0.121008
O2	O	-1.302333	-0.191971	0.120984
O3	O	-1.493504	-0.002047	0.120991
O4	O	-1.476643	-0.365196	0.121001
O5	O	-1.493489	-0.002046	-0.120794
O6	O	-1.302318	-0.191970	-0.120801
O7	O	-1.667799	-0.175271	-0.120777
Cu8	Cu	-1.485058	-0.183621	-0.142866
Cu9	Cu	-1.485074	-0.183622	0.143073
O10	O	-1.476629	-0.365196	-0.120784
C11	C	-1.255528	-0.190745	0.000089
C12	C	-1.116085	-0.187076	0.000080
C13	C	-1.492269	0.044454	0.000100
C14	C	-1.488598	0.183008	0.000105
C15	C	-1.714604	-0.176498	0.000122
C16	C	-1.854047	-0.180166	0.000140
C17	C	-1.036583	-0.298901	0.000104
C18	C	-0.905562	-0.295446	0.000129
C19	C	-0.933560	-0.068333	0.000112
C20	C	-1.064578	-0.071789	0.000076
C21	C	-1.088090	-0.414188	0.000107
C22	C	-1.008586	-0.526022	0.000133
C23	C	-0.877566	-0.522567	0.000158
C24	C	-0.826049	-0.407279	0.000158
C25	C	-1.477863	-0.411696	0.000110
C26	C	-1.481534	-0.550251	0.000115
N27	N	-1.485055	-0.183620	-0.343980
C28	C	-1.595568	0.257975	0.000114
C29	C	-1.591776	0.401179	0.000119
C30	C	-1.411839	-0.111245	-0.416218
C31	C	-1.411856	-0.111241	-0.583630
N32	N	-1.485087	-0.183613	0.344187
H33	H	-1.050540	-0.619885	0.000122
C34	C	-1.357809	0.362741	0.000104
C35	C	-1.263023	0.369072	-0.125453
C36	C	-1.139299	0.282053	-0.125464
C37	C	-1.110361	0.188704	0.000083
C38	C	-1.205149	0.182370	0.125650
C39	C	-1.328873	0.269388	0.125661
H40	H	-1.284443	0.438178	-0.218399
H41	H	-1.069131	0.286743	-0.218418
H42	H	-1.018773	0.124288	0.000075
H43	H	-1.183730	0.113264	0.218596
H44	H	-1.399042	0.264699	0.218615
H45	H	-1.129311	0.019269	0.000060
H46	H	-0.891604	0.025529	0.000135
H47	H	-1.349176	-0.049275	-0.645754
C48	C	-1.569777	-0.267330	-0.571912
C49	C	-1.671332	-0.207915	-0.467210
C50	C	-1.756022	-0.291631	-0.383296
C51	C	-1.739155	-0.434762	-0.404084
C52	C	-1.637595	-0.494185	-0.508790
C53	C	-1.552906	-0.410468	-0.592704
H54	H	-1.683822	-0.101953	-0.451817
H55	H	-1.831203	-0.247642	-0.305785
H56	H	-1.801847	-0.496734	-0.341966
H57	H	-1.625106	-0.600146	-0.524183
H58	H	-1.477724	-0.454458	-0.670215
H59	H	-1.194772	-0.417014	0.000094
H60	H	-0.812837	-0.613628	0.000165
H61	H	-0.719363	-0.404476	0.000155
H62	H	-1.689955	0.216139	0.000112
H63	H	-1.349139	-0.049290	-0.354124
H64	H	-1.683350	0.465598	0.000121
H65	H	-1.394211	0.224844	0.000109
H66	H	-1.547743	-0.245586	-0.406074
