data_functionalizedCrystal
_audit_creation_method	'MofGen! by Chris Wilmer'
_symmetry_space_group_name_H-M	'P1'
_symmetry_Int_Tables_number	1
_symmetry_cell_setting	triclinic
loop_
_symmetry_equiv_pos_as_xyz
  x,y,z
_cell_length_a	6.817900
_cell_length_b	13.167930
_cell_length_c	19.453114
_cell_angle_alpha	100.361600
_cell_angle_beta	101.709288
_cell_angle_gamma	105.754568
loop_
_atom_site_label
_atom_site_type_symbol
_atom_site_fract_x
_atom_site_fract_y
_atom_site_fract_z
V1	V	-4.025468	-0.150065	-0.228780
O2	O	-3.993989	0.006058	-0.214435
O3	O	-3.995283	-0.296444	-0.236822
O4	O	-3.968158	-0.148262	-0.324175
O5	O	-4.021301	-0.143149	-0.126478
V6	V	-4.507890	-0.131331	-0.215376
O7	O	-4.289141	-0.191159	-0.258181
O8	O	-4.694414	-0.090237	-0.185975
O9	O	-4.314868	0.015048	-0.207334
O10	O	-4.656765	-0.287453	-0.229721
O11	O	-4.629453	-0.138246	-0.317678
O12	O	-4.341992	-0.133133	-0.119981
C13	C	-3.845003	-0.332112	-0.235692
C14	C	-3.901551	-0.451782	-0.242904
C15	C	-3.935149	-0.645250	-0.125749
C16	C	-3.988280	-0.757690	-0.132522
C17	C	-4.060956	-0.789104	-0.263221
C18	C	-4.007826	-0.676664	-0.256448
C19	C	-3.944920	-0.604741	-0.187710
C20	C	-3.891775	-0.492298	-0.180938
C21	C	-3.964467	-0.523714	-0.311637
C22	C	-4.017597	-0.636154	-0.318410
C23	C	-3.810402	-0.143091	-0.347118
C24	C	-3.844950	-0.142586	-0.425168
C25	C	-4.043635	-0.147752	-0.465762
C26	C	-4.076096	-0.147278	-0.539098
C27	C	-3.909872	-0.141659	-0.571840
C28	C	-3.711156	-0.136485	-0.531236
C29	C	-3.678695	-0.136949	-0.457900
N30	N	-3.857204	-0.198510	-0.694335
N31	N	-3.888054	-0.198072	-0.764002
C32	C	-4.007664	-0.140259	-0.792797
N33	N	-4.095296	-0.082915	-0.749297
N34	N	-4.064451	-0.083358	-0.679625
C35	C	-3.945051	-0.141155	-0.651360
C36	C	-4.241560	-0.144910	-0.912910
C37	C	-4.274011	-0.144429	-0.986246
C38	C	-3.909071	-0.133647	-0.978385
C39	C	-3.876620	-0.134118	-0.905049
C40	C	-4.042874	-0.139754	-0.872317
C41	C	-4.128490	0.050711	-0.208462
C42	C	-4.051180	0.170380	-0.201255
C43	C	-4.163091	-0.138308	-0.097034
C44	C	-4.107782	-0.138808	-0.018984
H45	H	-3.980320	-0.790668	-0.082066
H46	H	-3.575816	-0.131907	-0.557899
C47	C	-3.726231	-0.127488	-1.014401
N48	N	-3.588515	-0.122855	-1.041533
C49	C	-4.130131	-0.868237	-0.338826
N50	N	-4.182219	-0.927840	-0.395773
C51	C	-4.424433	-0.151096	-0.876900
N52	N	-4.562175	-0.155753	-0.849779
C53	C	-4.294681	-0.152973	-0.583761
N54	N	-4.459322	-0.157268	-0.617401
H55	H	-3.714836	-0.129922	-0.871998
C56	C	-4.086770	-0.715281	-0.394017
N57	N	-4.138855	-0.774878	-0.450966
H58	H	-3.972413	-0.490720	-0.362090
H59	H	-3.516895	-0.132734	-0.424847
H60	H	-3.840543	-0.433739	-0.124967
H61	H	-3.883901	-0.586688	-0.069779
H62	H	-4.179013	-0.152337	-0.439116
H63	H	-4.435803	-0.148628	-1.019296
