data_functionalizedCrystal
_audit_creation_method	'MofGen! by Chris Wilmer'
_symmetry_space_group_name_H-M	'P1'
_symmetry_Int_Tables_number	1
_symmetry_cell_setting	triclinic
loop_
_symmetry_equiv_pos_as_xyz
  x,y,z
_cell_length_a	18.215407
_cell_length_b	12.827892
_cell_length_c	18.215399
_cell_angle_alpha	90.023838
_cell_angle_beta	90.017368
_cell_angle_gamma	90.012645
loop_
_atom_site_label
_atom_site_type_symbol
_atom_site_fract_x
_atom_site_fract_y
_atom_site_fract_z
Zn1	Zn	1.125121	-0.416115	0.416088
Zn2	Zn	1.458455	-0.082782	0.749422
Zn3	Zn	1.791788	0.250552	1.082755
Zn4	Zn	1.125051	-0.590874	0.293031
Zn5	Zn	1.458384	-0.257541	0.626364
Zn6	Zn	1.791717	0.075792	0.959698
Zn7	Zn	1.002054	-0.416140	0.293041
Zn8	Zn	1.335387	-0.082807	0.626374
Zn9	Zn	1.668721	0.250527	0.959708
Zn10	Zn	1.002041	-0.590807	0.416061
Zn11	Zn	1.335374	-0.257474	0.749395
Zn12	Zn	1.668707	0.075860	1.082728
O13	O	1.063567	-0.503484	0.354555
O14	O	1.396900	-0.170151	0.687889
O15	O	1.730233	0.163183	1.021222
O16	O	1.228096	-0.439315	0.399772
O17	O	1.561430	-0.105982	0.733105
O18	O	1.894763	0.227352	1.066438
O19	O	1.108711	-0.567734	0.190048
O20	O	1.442044	-0.234401	0.523381
O21	O	1.775378	0.098933	0.856715
O22	O	1.018414	-0.269901	0.309379
O23	O	1.351748	0.063433	0.642713
O24	O	1.685081	0.396766	0.976046
O25	O	1.228044	-0.567710	0.309362
O26	O	1.561378	-0.234376	0.642695
O27	O	1.894711	0.098957	0.976029
O28	O	1.108831	-0.269882	0.399782
O29	O	1.442165	0.063451	0.733115
O30	O	1.775498	0.396784	1.066448
O31	O	1.018346	-0.439358	0.190056
O32	O	1.351679	-0.106024	0.523389
O33	O	1.685012	0.227309	0.856722
O34	O	0.899068	-0.439292	0.309353
O35	O	1.232401	-0.105959	0.642686
O36	O	1.565735	0.227374	0.976020
O37	O	1.018392	-0.567595	0.519049
O38	O	1.351725	-0.234262	0.852382
O39	O	1.685058	0.099072	1.185716
O40	O	0.899058	-0.567619	0.399735
O41	O	1.232392	-0.234286	0.733069
O42	O	1.565725	0.099047	1.066402
O43	O	1.108819	-0.439250	0.519069
O44	O	1.442152	-0.105916	0.852403
O45	O	1.775485	0.227417	1.185736
O46	O	1.108698	-0.737101	0.309336
O47	O	1.442031	-0.403768	0.642669
O48	O	1.775365	-0.070435	0.976002
O49	O	1.018323	-0.737052	0.399725
O50	O	1.351656	-0.403719	0.733059
O51	O	1.684990	-0.070385	1.066392
C52	C	0.872360	-0.503452	0.354543
C53	C	1.205694	-0.170119	0.687876
C54	C	1.539027	0.163215	1.021209
C55	C	0.790562	-0.503463	0.354555
C56	C	1.123895	-0.170130	0.687888
C57	C	1.457228	0.163203	1.021221
C58	C	0.602394	-0.436746	0.401705
C59	C	0.935727	-0.103412	0.735039
C60	C	1.269060	0.229921	1.068372
C61	C	0.525535	-0.436755	0.401708
C62	C	0.858868	-0.103421	0.735041
C63	C	1.192202	0.229912	1.068374
C64	C	0.525492	-0.570252	0.307419
C65	C	0.858825	-0.236918	0.640752
C66	C	1.192158	0.096415	0.974085
C67	C	0.602349	-0.570237	0.307413
C68	C	0.935682	-0.236903	0.640746
C69	C	1.269016	0.096430	0.974080
C70	C	0.640798	-0.503485	0.354560
C71	C	0.974131	-0.170152	0.687894
C72	C	1.307465	0.163181	1.021227
C73	C	0.487082	-0.503509	0.354569
C74	C	0.820415	-0.170176	0.687902
C75	C	1.153749	0.163157	1.021235
C76	C	0.403748	-0.503519	0.354571
C77	C	0.737082	-0.170186	0.687904
C78	C	1.070415	0.163147	1.021238
C79	C	0.724137	-0.503473	0.354557
C80	C	1.057470	-0.170140	0.687891
C81	C	1.390804	0.163193	1.021224
C82	C	1.063521	-0.774994	0.354542
C83	C	1.396855	-0.441661	0.687876
C84	C	1.730188	-0.108327	1.021209
C85	C	1.063569	-0.891147	0.354562
C86	C	1.396903	-0.557814	0.687895
C87	C	1.730236	-0.224480	1.021228
C88	C	1.108339	-1.062884	0.399354
C89	C	1.441672	-0.729550	0.732688
C90	C	1.775006	-0.396217	1.066021
C91	C	1.108291	-0.942833	0.399336
C92	C	1.441624	-0.609500	0.732669
C93	C	1.774957	-0.276167	1.066002
C94	C	1.255520	-0.503517	0.354569
C95	C	1.588853	-0.170184	0.687902
C96	C	1.922186	0.163150	1.021236
C97	C	1.337318	-0.503531	0.354575
C98	C	1.670652	-0.170198	0.687908
C99	C	2.003985	0.163135	1.021241
C100	C	1.063612	-0.503412	0.546508
C101	C	1.396945	-0.170079	0.879842
C102	C	1.730278	0.163255	1.213175
C103	C	1.063631	-0.503381	0.628307
C104	C	1.396964	-0.170048	0.961641
C105	C	1.730297	0.163285	1.294974
C106	C	1.063632	-0.230914	0.354585
C107	C	1.396966	0.102419	0.687918
C108	C	1.730299	0.435753	1.021251
C109	C	1.063660	-0.114761	0.354597
C110	C	1.396994	0.218573	0.687930
C111	C	1.730327	0.551906	1.021264
C112	C	1.063564	-0.503480	0.163349
C113	C	1.396898	-0.170147	0.496683
C114	C	1.730231	0.163186	0.830016
C115	C	1.063688	-0.503217	0.081551
C116	C	1.397021	-0.169883	0.414884
C117	C	1.730355	0.163450	0.748217
C118	C	1.110733	-0.436489	0.816513
C119	C	1.444066	-0.103156	1.149846
C120	C	1.777400	0.230177	1.483180
C121	C	1.110742	-0.436459	0.893372
C122	C	1.444075	-0.103126	1.226705
C123	C	1.777408	0.230208	1.560039
C124	C	1.016580	-0.570112	0.893340
C125	C	1.349914	-0.236778	1.226673
C126	C	1.683247	0.096555	1.560006
C127	C	1.016569	-0.570136	0.816482
C128	C	1.349902	-0.236803	1.149816
C129	C	1.683235	0.096531	1.483149
C130	C	1.063649	-0.503327	0.778071
C131	C	1.396982	-0.169993	1.111404
C132	C	1.730316	0.163340	1.444738
C133	C	1.063670	-0.503272	0.931787
C134	C	1.397003	-0.169938	1.265120
C135	C	1.730336	0.163395	1.598454
C136	C	1.063679	-0.503239	1.015121
C137	C	1.397012	-0.169906	1.348454
C138	C	1.730345	0.163428	1.681788
C139	C	1.063639	-0.503357	0.694732
C140	C	1.396972	-0.170024	1.028065
C141	C	1.730306	0.163309	1.361399
H142	H	0.633619	-0.624585	0.269018
H143	H	0.966952	-0.291252	0.602351
H144	H	1.300285	0.042082	0.935685
H145	H	1.149067	-0.382086	0.785241
H146	H	1.482400	-0.048753	1.118574
H147	H	1.815733	0.284581	1.451907
O148	O	1.153902	-0.889459	0.444983
O149	O	1.487236	-0.556125	0.778316
O150	O	1.820569	-0.222792	1.111650
C151	C	1.143690	-0.781478	0.434812
C152	C	1.477024	-0.448144	0.768145
C153	C	1.810357	-0.114811	1.101478
H154	H	1.119605	-0.766753	0.377985
H155	H	1.452939	-0.433420	0.711318
H156	H	1.786272	-0.100087	1.044651
H157	H	1.104442	-0.750509	0.478405
H158	H	1.437775	-0.417175	0.811738
H159	H	1.771108	-0.083842	1.145072
C160	C	1.247670	-0.743334	0.511374
C161	C	1.581004	-0.410001	0.844707
C162	C	1.914337	-0.076667	1.178041
C163	C	1.218094	-0.725249	0.441575
C164	C	1.551428	-0.391916	0.774909
C165	C	1.884761	-0.058582	1.108242
H166	H	1.293565	-0.708648	0.515549
H167	H	1.626898	-0.375314	0.848883
H168	H	1.960232	-0.041981	1.182216
H169	H	1.254549	-0.816083	0.518229
H170	H	1.587882	-0.482749	0.851563
H171	H	1.921216	-0.149416	1.184896
H172	H	1.214956	-0.717526	0.547694
H173	H	1.548289	-0.384193	0.881027
H174	H	1.881623	-0.050860	1.214361
H175	H	1.250804	-0.751068	0.405258
H176	H	1.584137	-0.417735	0.738591
H177	H	1.917471	-0.084401	1.071924
H178	H	1.211223	-0.652503	0.434714
H179	H	1.544556	-0.319170	0.768048
H180	H	1.877890	0.014164	1.101381
H181	H	1.149081	-0.382032	0.924668
H182	H	1.482414	-0.048698	1.258001
H183	H	1.815748	0.284635	1.591335
H184	H	0.978251	-0.624508	0.924624
H185	H	1.311584	-0.291175	1.257957
H186	H	1.644918	0.042159	1.591290
H187	H	1.146629	-1.107347	0.437684
H188	H	1.479962	-0.774013	0.771017
H189	H	1.813295	-0.440680	1.104350
H190	H	0.978222	-0.624562	0.785182
H191	H	1.311555	-0.291229	1.118515
H192	H	1.644889	0.042105	1.451849
H193	H	0.633697	-0.382389	0.440093
H194	H	0.967030	-0.049056	0.773427
H195	H	1.300363	0.284277	1.106760
H196	H	0.494270	-0.382407	0.440097
H197	H	0.827603	-0.049074	0.773430
H198	H	1.160936	0.284260	1.106763
H199	H	0.494177	-0.624599	0.269034
H200	H	0.827511	-0.291266	0.602367
H201	H	1.160844	0.042067	0.935700
H202	H	1.025313	-0.935753	0.316245
H203	H	1.358646	-0.602420	0.649578
H204	H	1.691979	-0.269086	0.982911
H205	H	1.025376	-1.070299	0.316262
H206	H	1.358709	-0.736966	0.649595
H207	H	1.692043	-0.403632	0.982928
