data_functionalizedCrystal
_audit_creation_method	'MofGen! by Chris Wilmer'
_symmetry_space_group_name_H-M	'P1'
_symmetry_Int_Tables_number	1
_symmetry_cell_setting	triclinic
loop_
_symmetry_equiv_pos_as_xyz
  x,y,z
_cell_length_a	16.992695
_cell_length_b	17.699083
_cell_length_c	16.776229
_cell_angle_alpha	89.995692
_cell_angle_beta	90.003864
_cell_angle_gamma	93.024381
loop_
_atom_site_label
_atom_site_type_symbol
_atom_site_fract_x
_atom_site_fract_y
_atom_site_fract_z
O1	O	1.040087	-0.160466	0.066259
O2	O	0.811805	-0.158705	0.066268
O3	O	0.932396	-0.049798	0.066256
O4	O	0.919497	-0.269373	0.066271
O5	O	0.932382	-0.049797	-0.066320
O6	O	0.811792	-0.158704	-0.066309
O7	O	1.040074	-0.160465	-0.066317
Zn8	Zn	0.925930	-0.159584	-0.087362
Zn9	Zn	0.925948	-0.159586	0.087313
O10	O	0.919483	-0.269372	-0.066306
C11	C	0.782590	-0.156440	-0.000019
C12	C	0.695559	-0.149683	-0.000016
C13	C	1.069289	-0.162730	-0.000028
C14	C	1.156320	-0.169487	-0.000026
C15	C	0.931927	-0.021572	-0.000032
C16	C	0.930540	0.062533	-0.000032
C17	C	1.206685	-0.104290	-0.000028
C18	C	1.288459	-0.110643	-0.000030
C19	C	1.319867	-0.182195	-0.000025
C20	C	1.269496	-0.247398	-0.000026
C21	C	1.187723	-0.241043	-0.000029
C22	C	1.563415	-0.208531	-0.000020
C23	C	1.645194	-0.214881	-0.000015
C24	C	1.664152	-0.078125	-0.000020
C25	C	1.582376	-0.071777	-0.000019
C26	C	1.532012	-0.136980	-0.000024
N27	N	1.403454	-0.188691	-0.000025
N28	N	1.448427	-0.130483	-0.000030
C29	C	0.919952	-0.297598	-0.000016
C30	C	0.921339	-0.381703	-0.000010
N31	N	0.925924	-0.159583	-0.206574
C32	C	1.001324	0.106747	-0.000036
C33	C	1.000017	0.185771	-0.000029
C34	C	0.927924	0.220581	-0.000024
C35	C	0.857135	0.176361	-0.000018
C36	C	0.858443	0.097338	-0.000019
C37	C	0.851857	0.495053	-0.000011
C38	C	0.850554	0.574082	-0.000012
C39	C	0.993430	0.583486	-0.000021
C40	C	0.994739	0.504463	-0.000022
C41	C	0.923950	0.460250	-0.000012
C42	C	0.925368	0.374563	-0.000018
C43	C	0.926505	0.306267	-0.000023
C44	C	0.973382	-0.208387	-0.248286
C45	C	0.973391	-0.208384	-0.331738
C46	C	0.925937	-0.159582	-0.373476
C47	C	0.878477	-0.110773	-0.331758
C48	C	0.878473	-0.110772	-0.248308
C49	C	0.878492	-0.110775	-0.668306
C50	C	0.878498	-0.110781	-0.751762
C51	C	0.973411	-0.208387	-0.751736
C52	C	0.973407	-0.208386	-0.668285
C53	C	0.925950	-0.159575	-0.626574
C54	C	0.925942	-0.159577	-0.536086
C55	C	0.925940	-0.159583	-0.463963
N56	N	0.925961	-0.159581	0.206524
H57	H	1.181119	-0.046024	-0.000027
H58	H	1.522418	-0.261624	-0.000020
H59	H	0.791844	0.602420	-0.000009
Cl60	Cl	0.769453	0.041754	-0.000011
Cl61	Cl	0.762864	0.439481	0.000004
Cl62	Cl	1.124407	-0.323010	-0.000033
Cl63	Cl	1.308981	-0.337349	-0.000021
H64	H	1.329463	-0.057552	-0.000035
H65	H	1.670763	-0.273150	-0.000022
Cl66	Cl	1.033074	-0.269749	-0.804178
Cl67	Cl	1.091960	0.062995	-0.000051
Cl68	Cl	0.818838	-0.049424	-0.804232
H69	H	0.839827	-0.071031	-0.214347
H70	H	0.798436	0.204709	-0.000009
H71	H	1.012020	-0.248132	-0.214308
H72	H	1.012037	-0.248124	-0.365697
H73	H	1.012046	-0.248129	-0.634306
Cl74	Cl	0.818801	-0.049440	-0.615880
H75	H	0.839843	-0.071034	-0.365748
Cl76	Cl	1.542898	0.018177	0.000004
Cl77	Cl	1.089007	0.241352	-0.000036
H78	H	1.705166	-0.025041	-0.000017
Cl79	Cl	1.085373	0.460707	-0.000026
H80	H	1.051070	0.619494	-0.000025
