data_functionalizedCrystal
_audit_creation_method	'MofGen! by Chris Wilmer'
_symmetry_space_group_name_H-M	'P1'
_symmetry_Int_Tables_number	1
_symmetry_cell_setting	triclinic
loop_
_symmetry_equiv_pos_as_xyz
  x,y,z
_cell_length_a	29.839131
_cell_length_b	17.640112
_cell_length_c	29.839135
_cell_angle_alpha	78.815776
_cell_angle_beta	90.015241
_cell_angle_gamma	101.262129
loop_
_atom_site_label
_atom_site_type_symbol
_atom_site_fract_x
_atom_site_fract_y
_atom_site_fract_z
Zn1	Zn	-0.039919	1.208270	0.115396
Zn2	Zn	0.293414	1.541603	0.448729
Zn3	Zn	0.626747	1.874937	0.782062
Zn4	Zn	-0.115029	1.208178	0.040266
Zn5	Zn	0.218305	1.541511	0.373599
Zn6	Zn	0.551638	1.874845	0.706933
Zn7	Zn	-0.055111	1.076115	0.055436
Zn8	Zn	0.278223	1.409448	0.388770
Zn9	Zn	0.611556	1.742781	0.722103
Zn10	Zn	-0.130241	1.076024	0.130525
Zn11	Zn	0.203092	1.409357	0.463859
Zn12	Zn	0.536425	1.742690	0.797192
O13	O	-0.085075	1.142147	0.085406
O14	O	0.248258	1.475480	0.418739
O15	O	0.581592	1.808813	0.752072
O16	O	-0.037159	1.318872	0.092749
O17	O	0.296175	1.652205	0.426082
O18	O	0.629508	1.985539	0.759416
O19	O	-0.107072	1.190659	-0.020589
O20	O	0.226262	1.523993	0.312745
O21	O	0.559595	1.857326	0.646078
O22	O	0.009780	1.093722	0.063407
O23	O	0.343114	1.427055	0.396740
O24	O	0.676447	1.760389	0.730073
O25	O	-0.092341	1.318805	0.037552
O26	O	0.240992	1.652138	0.370885
O27	O	0.574325	1.985471	0.704218
O28	O	0.020941	1.190816	0.107459
O29	O	0.354275	1.524149	0.440792
O30	O	0.687608	1.857482	0.774125
O31	O	-0.063050	1.093633	-0.009443
O32	O	0.270283	1.426966	0.323890
O33	O	0.603617	1.760300	0.657223
O34	O	-0.077801	0.965488	0.078078
O35	O	0.255532	1.298822	0.411411
O36	O	0.588865	1.632155	0.744744
O37	O	-0.118269	1.093567	0.191385
O38	O	0.215064	1.426900	0.524719
O39	O	0.548398	1.760233	0.858052
O40	O	-0.132999	0.965421	0.133245
O41	O	0.200334	1.298755	0.466579
O42	O	0.533667	1.632088	0.799912
O43	O	-0.051910	1.190727	0.180270
O44	O	0.281424	1.524061	0.513603
O45	O	0.614757	1.857394	0.846936
O46	O	-0.179923	1.190571	0.052222
O47	O	0.153411	1.523904	0.385556
O48	O	0.486744	1.857238	0.718889
O49	O	-0.191099	1.093478	0.118535
O50	O	0.142234	1.426811	0.451869
O51	O	0.475567	1.760144	0.785202
C52	C	-0.108700	0.936774	0.108950
C53	C	0.224634	1.270107	0.442283
C54	C	0.557967	1.603440	0.775616
C55	C	-0.118817	0.848914	0.119032
C56	C	0.214516	1.182248	0.452366
C57	C	0.547849	1.515581	0.785699
C58	C	-0.008205	0.560020	0.008812
C59	C	0.325128	0.893353	0.342145
C60	C	0.658461	1.226687	0.675479
C61	C	-0.017721	0.477463	0.018292
C62	C	0.315612	0.810796	0.351626
C63	C	0.648945	1.144129	0.684959
C64	C	-0.075278	0.477447	0.075639
C65	C	0.258055	0.810781	0.408973
C66	C	0.591389	1.144114	0.742306
C67	C	-0.065765	0.560006	0.066165
C68	C	0.267568	0.893340	0.399499
C69	C	0.600901	1.226673	0.732832
C70	C	-0.032229	0.601286	0.032751
C71	C	0.301105	0.934619	0.366084
C72	C	0.634438	1.267953	0.699417
C73	C	-0.089789	0.601272	0.090104
C74	C	0.243544	0.934606	0.423437
C75	C	0.576878	1.267939	0.756771
C76	C	-0.080278	0.683824	0.080629
C77	C	0.253055	1.017158	0.413962
C78	C	0.586388	1.350491	0.747296
C79	C	-0.046744	0.725110	0.047215
C80	C	0.286589	1.058443	0.380548
C81	C	0.619922	1.391776	0.713882
C82	C	-0.022718	0.683838	0.023276
C83	C	0.310615	1.017171	0.356609
C84	C	0.643948	1.350505	0.689942
C85	C	-0.123328	0.559991	0.123516
C86	C	0.210006	0.893324	0.456850
C87	C	0.543339	1.226658	0.790183
C88	C	-0.147351	0.601257	0.147455
C89	C	0.185982	0.934591	0.480788
C90	C	0.519316	1.267924	0.814122
C91	C	-0.137838	0.683811	0.137982
C92	C	0.195495	1.017144	0.471316
C93	C	0.528828	1.350477	0.804649
C94	C	-0.104304	0.725096	0.104569
C95	C	0.229029	1.058430	0.437902
C96	C	0.562362	1.391763	0.771235
C97	C	-0.161865	0.725083	0.161922
C98	C	0.171469	1.058416	0.495255
C99	C	0.504802	1.391749	0.828589
C100	C	-0.152354	0.807634	0.152447
C101	C	0.180979	1.140968	0.485780
C102	C	0.514313	1.474301	0.819114
C103	C	-0.094794	0.807648	0.095093
C104	C	0.238539	1.140981	0.428427
C105	C	0.571873	1.474315	0.761760
C106	C	-0.201812	1.142026	0.085382
C107	C	0.131522	1.475359	0.418715
C108	C	0.464855	1.808693	0.752048
C109	C	-0.251744	1.142047	0.085378
C110	C	0.081590	1.475380	0.418712
C111	C	0.414923	1.808713	0.752045
C112	C	-0.555530	1.192692	0.108386
C113	C	-0.222197	1.526026	0.441719
C114	C	0.111136	1.859359	0.775053
C115	C	-0.743194	1.192778	0.108403
C116	C	-0.409860	1.526111	0.441736
C117	C	-0.076527	1.859445	0.775070
O118	O	-0.762492	1.235721	0.127950
O119	O	-0.429159	1.569054	0.461284
O120	O	-0.095826	1.902387	0.794617
N121	N	-0.772502	1.142281	0.085440
N122	N	-0.439168	1.475614	0.418774
N123	N	-0.105835	1.808947	0.752107
C124	C	-0.754892	1.091755	0.062474
C125	C	-0.421559	1.425088	0.395807
C126	C	-0.088225	1.758421	0.729141
O127	O	-0.784127	1.048800	0.042947
O128	O	-0.450794	1.382133	0.376281
O129	O	-0.117461	1.715467	0.709614
C130	C	-0.567230	1.091666	0.062460
C131	C	-0.233897	1.424999	0.395793
C132	C	0.099436	1.758332	0.729127
C133	C	-0.537923	1.142172	0.085420
C134	C	-0.204590	1.475505	0.418754
C135	C	0.128743	1.808839	0.752087
C136	C	-0.526224	1.243194	0.131345
C137	C	-0.192891	1.576527	0.464678
C138	C	0.140443	1.909860	0.798012
C139	C	-0.479311	1.243175	0.131338
C140	C	-0.145977	1.576508	0.464672
C141	C	0.187356	1.909842	0.798005
C142	C	-0.461704	1.192654	0.108373
C143	C	-0.128370	1.525988	0.441706
C144	C	0.204963	1.859321	0.775039
C145	C	-0.491010	1.142153	0.085414
C146	C	-0.157677	1.475486	0.418747
C147	C	0.175657	1.808820	0.752080
C148	C	-0.549622	1.041136	0.039497
C149	C	-0.216288	1.374470	0.372830
C150	C	0.117045	1.707803	0.706163
C151	C	-0.502703	1.041117	0.039496
C152	C	-0.169370	1.374450	0.372830
C153	C	0.163964	1.707784	0.706163
C154	C	-0.473396	1.091623	0.062457
C155	C	-0.140063	1.424957	0.395790
C156	C	0.193270	1.758290	0.729123
C157	C	-0.426490	1.091614	0.062442
C158	C	-0.093157	1.424947	0.395775
C159	C	0.240177	1.758280	0.729108
N160	N	-0.397182	1.142111	0.085404
N161	N	-0.063848	1.475444	0.418738
N162	N	0.269485	1.808778	0.752071
C163	C	-0.414789	1.192631	0.108370
C164	C	-0.081455	1.525965	0.441703
C165	C	0.251878	1.859298	0.775037
C166	C	-0.853417	1.091806	0.062482
C167	C	-0.520083	1.425140	0.395816
C168	C	-0.186750	1.758473	0.729149
C169	C	-0.900332	1.091829	0.062485
C170	C	-0.566999	1.425163	0.395819
C171	C	-0.233665	1.758496	0.729152
C172	C	-0.888630	1.192852	0.108415
C173	C	-0.555297	1.526185	0.441748
C174	C	-0.221964	1.859519	0.775082
C175	C	-0.841714	1.192832	0.108409
C176	C	-0.508380	1.526165	0.441742
C177	C	-0.175047	1.859499	0.775076
C178	C	-0.824109	1.142304	0.085445
C179	C	-0.490775	1.475637	0.418778
C180	C	-0.157442	1.808970	0.752112
C181	C	-0.316268	1.192588	0.108354
C182	C	0.017066	1.525922	0.441687
C183	C	0.350399	1.859255	0.775021
C184	C	-0.269351	1.192567	0.108344
C185	C	0.063983	1.525901	0.441677
C186	C	0.397316	1.859234	0.775010
C187	C	-0.281057	1.091542	0.062416
C188	C	0.052277	1.424876	0.395750
C189	C	0.385610	1.758209	0.729083
C190	C	-0.327969	1.091566	0.062424
C191	C	0.005364	1.424899	0.395758
C192	C	0.338697	1.758233	0.729091
C193	C	-0.345574	1.142092	0.085396
C194	C	-0.012240	1.475425	0.418730
C195	C	0.321093	1.808758	0.752063
O196	O	-0.407160	1.048687	0.042909
O197	O	-0.073827	1.382021	0.376242
O198	O	0.259507	1.715354	0.709575
O199	O	-0.385548	1.235567	0.127902
O200	O	-0.052214	1.568901	0.461236
O201	O	0.281119	1.902234	0.794569
C202	C	-0.602444	1.192711	0.108392
C203	C	-0.269110	1.526045	0.441726
C204	C	0.064223	1.859378	0.775059
C205	C	-0.631750	1.142210	0.085434
C206	C	-0.298417	1.475543	0.418767
C207	C	0.034917	1.808876	0.752100
C208	C	-0.614143	1.091689	0.062468
C209	C	-0.280810	1.425023	0.395801
C210	C	0.052524	1.758356	0.729135
C211	C	-0.678665	1.142233	0.085436
C212	C	-0.345332	1.475566	0.418770
C213	C	-0.011998	1.808900	0.752103
C214	C	-0.696272	1.192753	0.108402
C215	C	-0.362939	1.526087	0.441735
C216	C	-0.029605	1.859420	0.775069
C217	C	-0.666964	1.243251	0.131365
C218	C	-0.333631	1.576584	0.464698
C219	C	-0.000297	1.909917	0.798031
C220	C	-0.620051	1.243232	0.131358
C221	C	-0.286717	1.576565	0.464691
C222	C	0.046616	1.909898	0.798025
C223	C	-0.643451	1.041192	0.039505
C224	C	-0.310118	1.374525	0.372839
C225	C	0.023216	1.707859	0.706172
C226	C	-0.690364	1.041216	0.039513
C227	C	-0.357031	1.374549	0.372847
C228	C	-0.023697	1.707882	0.706180
C229	C	-0.707971	1.091736	0.062479
C230	C	-0.374638	1.425069	0.395812
C231	C	-0.041304	1.758403	0.729145
C232	C	0.032120	1.142289	0.085437
C233	C	0.365453	1.475622	0.418771
C234	C	0.698786	1.808956	0.752104
C235	C	0.082061	1.142350	0.085451
C236	C	0.415394	1.475683	0.418784
C237	C	0.748728	1.809017	0.752117
C238	C	-0.085092	1.142147	0.202584
C239	C	0.248242	1.475481	0.535917
C240	C	0.581575	1.808814	0.869251
C241	C	-0.085099	1.142147	0.252518
C242	C	0.248235	1.475481	0.585852
C243	C	0.581568	1.808814	0.919185
C244	C	-0.061358	1.348321	0.061770
C245	C	0.271975	1.681655	0.395104
C246	C	0.605308	2.014988	0.728437
C247	C	-0.051252	1.436181	0.051698
C248	C	0.282081	1.769514	0.385032
C249	C	0.615415	2.102848	0.718365
C250	C	-0.050525	1.192737	0.556377
C251	C	0.282808	1.526071	0.889710
C252	C	0.616141	1.859404	1.223044
C253	C	-0.050519	1.192743	0.744049
C254	C	0.282814	1.526077	1.077383
C255	C	0.616147	1.859410	1.410716
O256	O	-0.021126	1.235740	0.763398
O257	O	0.312207	1.569073	1.096731
O258	O	0.645541	1.902407	1.430064
N259	N	-0.085069	1.142160	0.773302
N260	N	0.248264	1.475493	1.106635
N261	N	0.581598	1.808827	1.439969
C262	C	-0.119621	1.091568	0.755635
C263	C	0.213712	1.424901	1.088968
C264	C	0.547046	1.758234	1.422301
O265	O	-0.149005	1.048538	0.784823
O266	O	0.184329	1.381871	1.118156
O267	O	0.517662	1.715205	1.451489
C268	C	-0.119625	1.091558	0.567964
C269	C	0.213709	1.424892	0.901297
C270	C	0.547042	1.758225	1.234630
C271	C	-0.085075	1.142151	0.538712
C272	C	0.248258	1.475484	0.872046
C273	C	0.581591	1.808817	1.205379
C274	C	-0.015978	1.243325	0.527126
C275	C	0.317355	1.576658	0.860460
C276	C	0.650688	1.909991	1.193793
C277	C	-0.015982	1.243326	0.480211
C278	C	0.317352	1.576659	0.813544
C279	C	0.650685	1.909993	1.146877
C280	C	-0.050532	1.192739	0.462546
C281	C	0.282802	1.526073	0.795879
C282	C	0.616135	1.859406	1.129213
C283	C	-0.085078	1.142152	0.491797
C284	C	0.248255	1.475485	0.825130
C285	C	0.581588	1.808819	1.158463
C286	C	-0.154174	1.040963	0.550297
C287	C	0.179159	1.374296	0.883631
C288	C	0.512492	1.707630	1.216964
C289	C	-0.154171	1.040964	0.503376
C290	C	0.179162	1.374297	0.836710
C291	C	0.512495	1.707630	1.170043
C292	C	-0.119622	1.091556	0.474125
C293	C	0.213711	1.424889	0.807458
C294	C	0.547045	1.758223	1.140792
C295	C	-0.119632	1.091566	0.427216
C296	C	0.213702	1.424900	0.760550
C297	C	0.547035	1.758233	1.093883
N298	N	-0.085082	1.142150	0.397964
N299	N	0.248251	1.475483	0.731297
N300	N	0.581585	1.808816	1.064630
C301	C	-0.050532	1.192736	0.415628
C302	C	0.282801	1.526070	0.748962
C303	C	0.616135	1.859403	1.082295
C304	C	-0.119617	1.091577	0.854164
C305	C	0.213716	1.424911	1.187498
C306	C	0.547050	1.758244	1.520831
C307	C	-0.119617	1.091581	0.901082
C308	C	0.213717	1.424914	1.234415
C309	C	0.547050	1.758247	1.567748
C310	C	-0.050515	1.192755	0.889493
C311	C	0.282819	1.526088	1.222827
C312	C	0.616152	1.859422	1.556160
C313	C	-0.050517	1.192755	0.842575
C314	C	0.282816	1.526089	1.175908
C315	C	0.616149	1.859422	1.509241
C316	C	-0.085067	1.142161	0.824912
C317	C	0.248266	1.475494	1.158245
C318	C	0.581599	1.808827	1.491578
C319	C	-0.050542	1.192735	0.317103
C320	C	0.282792	1.526068	0.650436
C321	C	0.616125	1.859402	0.983769
C322	C	-0.050549	1.192734	0.270183
C323	C	0.282785	1.526067	0.603517
C324	C	0.616118	1.859401	0.936850
C325	C	-0.119649	1.091557	0.281776
C326	C	0.213684	1.424890	0.615109
C327	C	0.547017	1.758223	0.948443
C328	C	-0.119644	1.091561	0.328691
C329	C	0.213690	1.424894	0.662024
C330	C	0.547023	1.758227	0.995358
C331	C	-0.085086	1.142152	0.346353
C332	C	0.248248	1.475486	0.679686
C333	C	0.581581	1.808819	1.013020
O334	O	-0.149007	1.048586	0.407837
O335	O	0.184327	1.381919	0.741171
O336	O	0.517660	1.715252	1.074504
O337	O	-0.021147	1.235747	0.386434
O338	O	0.312186	1.569081	0.719768
O339	O	0.645520	1.902414	1.053101
C340	C	-0.050522	1.192736	0.603293
C341	C	0.282811	1.526070	0.936626
C342	C	0.616145	1.859403	1.269959
C343	C	-0.085069	1.142149	0.632543
C344	C	0.248264	1.475482	0.965877
C345	C	0.581598	1.808815	1.299210
C346	C	-0.119619	1.091562	0.614879
C347	C	0.213714	1.424896	0.948212
C348	C	0.547048	1.758229	1.281545
C349	C	-0.085069	1.142152	0.679461
C350	C	0.248265	1.475485	1.012794
C351	C	0.581598	1.808819	1.346128
C352	C	-0.050519	1.192738	0.697126
C353	C	0.282815	1.526072	1.030459
C354	C	0.616148	1.859405	1.363792
C355	C	-0.015969	1.243322	0.667873
C356	C	0.317364	1.576655	1.001206
C357	C	0.650698	1.909988	1.334540
C358	C	-0.015972	1.243323	0.620958
C359	C	0.317361	1.576656	0.954291
C360	C	0.650695	1.909989	1.287624
C361	C	-0.154168	1.040979	0.644131
C362	C	0.179165	1.374312	0.977465
C363	C	0.512498	1.707646	1.310798
C364	C	-0.154163	1.040983	0.691046
C365	C	0.179171	1.374316	1.024380
C366	C	0.512504	1.707649	1.357713
C367	C	-0.119613	1.091569	0.708711
C368	C	0.213721	1.424902	1.042045
C369	C	0.547054	1.758236	1.375378
C370	C	-0.085070	1.142147	0.968683
C371	C	0.248263	1.475480	1.302017
C372	C	0.581596	1.808814	1.635350
C373	C	-0.085067	1.142167	0.918746
C374	C	0.248267	1.475500	1.252080
C375	C	0.581600	1.808834	1.585413
H376	H	-0.174658	0.567636	0.174660
H377	H	0.158675	0.900969	0.507993
H378	H	0.492009	1.234303	0.841327
F379	F	-0.544955	1.296966	0.155792
F380	F	-0.211622	1.630300	0.489126
F381	F	0.121712	1.963633	0.822459
F382	F	-0.036624	0.812970	0.037129
F383	F	0.296709	1.146303	0.370462
F384	F	0.630042	1.479637	0.703795
H385	H	-0.131070	0.492772	0.131230
H386	H	0.202263	0.826105	0.464563
H387	H	0.535597	1.159439	0.797896
F388	F	-0.177923	0.851555	0.177924
F389	F	0.155410	1.184889	0.511258
F390	F	0.488743	1.518222	0.844591
F391	F	-0.013744	1.246593	0.908301
F392	F	0.319590	1.579927	1.241635
F393	F	0.652923	1.913260	1.574968
H394	H	-0.924189	1.050711	0.043783
H395	H	-0.590856	1.384044	0.377116
H396	H	-0.257523	1.717377	0.710449
H397	H	0.001847	0.443867	-0.001201
H398	H	0.335181	0.777200	0.332132
H399	H	0.668514	1.110533	0.665466
F400	F	-0.834687	1.038021	0.038041
F401	F	-0.501353	1.371354	0.371374
F402	F	-0.168020	1.704688	0.704707
H403	H	-0.573476	1.000009	0.020800
H404	H	-0.240143	1.333342	0.354133
H405	H	0.093191	1.666676	0.687466
F406	F	-0.359160	1.037822	0.037981
F407	F	-0.025826	1.371155	0.371314
F408	F	0.307507	1.704488	0.704647
H409	H	-0.245489	1.233698	0.127040
H410	H	0.087844	1.567032	0.460374
H411	H	0.421177	1.900365	0.793707
H412	H	0.012153	1.284522	0.456398
H413	H	0.345486	1.617855	0.789731
H414	H	0.678819	1.951189	1.123065
F415	F	-0.190945	0.987111	0.484581
F416	F	0.142388	1.320444	0.817915
F417	F	0.475722	1.653778	1.151248
H418	H	0.004597	0.717450	-0.003927
H419	H	0.337931	1.050784	0.329406
H420	H	0.671264	1.384117	0.662740
H421	H	-0.147755	1.050378	0.839788
H422	H	0.185578	1.383711	1.173121
H423	H	0.518912	1.717044	1.506455
F424	F	-0.907377	1.246620	0.132856
F425	F	-0.574043	1.579953	0.466190
F426	F	-0.240710	1.913287	0.799523
H427	H	0.012162	1.284520	0.597145
H428	H	0.345495	1.617853	0.930478
H429	H	0.678828	1.951187	1.263811
F430	F	0.020795	1.297178	0.545918
F431	F	0.354128	1.630511	0.879251
F432	F	0.687461	1.963844	1.212585
H433	H	-0.189173	0.691460	0.189125
H434	H	0.144160	1.024793	0.522458
H435	H	0.477494	1.358127	0.855791
H436	H	-0.488372	0.999968	0.020797
H437	H	-0.155039	1.333301	0.354130
H438	H	0.178295	1.666635	0.687464
F439	F	-0.059097	0.851586	0.059533
F440	F	0.274236	1.184919	0.392866
F441	F	0.607569	1.518252	0.726199
F442	F	-0.262309	1.037778	0.037975
F443	F	0.071024	1.371112	0.371309
F444	F	0.404357	1.704445	0.704642
H445	H	-0.147780	1.050373	0.267384
H446	H	0.185553	1.383706	0.600718
H447	H	0.518886	1.717040	0.934051
H448	H	-0.596192	1.284358	0.150055
H449	H	-0.262858	1.617692	0.483388
H450	H	0.070475	1.951025	0.816721
F451	F	-0.448126	1.296926	0.155779
F452	F	-0.114793	1.630260	0.489113
F453	F	0.218540	1.963593	0.822446
H454	H	-0.714222	1.000089	0.020812
H455	H	-0.380889	1.333422	0.354145
H456	H	-0.047555	1.666755	0.687478
F457	F	-0.013745	1.246601	0.811447
F458	F	0.319588	1.579934	1.144781
F459	F	0.652922	1.913268	1.478114
H460	H	-0.330596	1.233726	0.127064
H461	H	0.002738	1.567059	0.460397
H462	H	0.336071	1.900392	0.793731
H463	H	-0.817854	1.233958	0.127106
H464	H	-0.484521	1.567291	0.460439
H465	H	-0.151188	1.900625	0.793772
F466	F	0.020801	1.297162	0.686681
F467	F	0.354134	1.630496	1.020015
F468	F	0.687467	1.963829	1.353348
F469	F	-0.190943	0.987134	0.625338
F470	F	0.142390	1.320467	0.958671
F471	F	0.475724	1.653800	1.292005
H472	H	-0.681307	1.284389	0.150062
H473	H	-0.347974	1.617722	0.483395
H474	H	-0.014640	1.951056	0.816729
H475	H	-0.182301	0.999786	0.714859
H476	H	0.151032	1.333119	1.048193
H477	H	0.484366	1.666452	1.381526
H478	H	-0.022400	1.233929	0.331477
H479	H	0.310933	1.567262	0.664811
H480	H	0.644267	1.900596	0.998144
F481	F	-0.624720	0.987415	0.015063
F482	F	-0.291387	1.320748	0.348397
F483	F	0.041947	1.654081	0.681730
F484	F	-0.190948	0.987117	0.581419
F485	F	0.142385	1.320451	0.914752
F486	F	0.475718	1.653784	1.248085
H487	H	-0.022414	1.233935	0.246368
H488	H	0.310919	1.567268	0.579701
H489	H	0.644253	1.900602	0.913035
F490	F	-0.156417	1.037720	0.359823
F491	F	0.176916	1.371053	0.693156
F492	F	0.510250	1.704387	1.026490
F493	F	0.027491	0.603957	-0.026749
F494	F	0.360825	0.937291	0.306584
F495	F	0.694158	1.270624	0.639918
F496	F	-0.156394	1.037745	0.932207
F497	F	0.176939	1.371078	1.265540
F498	F	0.510273	1.704411	1.598874
F499	F	-0.110974	0.433506	0.111196
F500	F	0.222360	0.766839	0.444529
F501	F	0.555693	1.100172	0.777862
