data_functionalizedCrystal
_audit_creation_method	'MofGen! by Chris Wilmer'
_symmetry_space_group_name_H-M	'P1'
_symmetry_Int_Tables_number	1
_symmetry_cell_setting	triclinic
loop_
_symmetry_equiv_pos_as_xyz
  x,y,z
_cell_length_a	10.489711
_cell_length_b	15.944493
_cell_length_c	9.565339
_cell_angle_alpha	90.006105
_cell_angle_beta	89.994873
_cell_angle_gamma	84.001026
loop_
_atom_site_label
_atom_site_type_symbol
_atom_site_fract_x
_atom_site_fract_y
_atom_site_fract_z
O1	O	1.692396	0.118385	-0.116290
O2	O	1.321038	0.129535	-0.116280
O3	O	1.516896	0.001742	-0.116297
O4	O	1.496537	0.246177	-0.116273
O5	O	1.516881	0.001750	0.116223
O6	O	1.321022	0.129543	0.116240
O7	O	1.692381	0.118393	0.116230
Zn8	Zn	1.506699	0.123969	0.153152
Zn9	Zn	1.506719	0.123959	-0.153203
O10	O	1.496522	0.246185	0.116247
C11	C	1.273509	0.128702	-0.000019
C12	C	1.131914	0.126198	-0.000016
C13	C	0.948437	0.203049	-0.000025
C14	C	1.041135	0.164657	-0.114671
C15	C	1.041093	0.164644	0.114576
C16	C	0.972337	0.083304	-0.114787
C17	C	0.972286	0.083302	0.114562
C18	C	1.064957	0.044851	-0.000112
C19	C	1.516057	-0.029554	-0.000043
C20	C	1.513562	-0.122817	-0.000061
C21	C	1.628849	-0.357892	-0.000037
C22	C	1.566687	-0.408833	-0.114680
C23	C	1.508939	-0.293566	-0.000044
C24	C	1.566643	-0.408802	0.114567
C25	C	1.504483	-0.458502	-0.000021
C26	C	1.446809	-0.343278	-0.114780
C27	C	1.446784	-0.343243	0.114569
C28	C	1.384533	-0.394152	-0.000101
C29	C	1.511510	-0.198550	-0.000058
C30	C	1.501903	-0.553514	-0.000016
C31	C	1.739909	0.119226	-0.000034
C32	C	1.881505	0.121729	-0.000046
C33	C	1.497362	0.277481	-0.000010
C34	C	1.499857	0.370745	-0.000002
N35	N	1.506694	0.123976	0.362232
N36	N	1.506734	0.123945	-0.362282
C37	C	1.416089	0.183056	0.453443
C38	C	1.531347	0.200044	0.546621
C39	C	1.391487	0.106994	0.546609
C40	C	1.622010	0.141002	0.453358
C41	C	1.482074	0.047919	0.453338
C42	C	1.597415	0.064875	0.546474
H43	H	1.071648	0.199064	-0.211586
C44	C	0.931012	0.036865	0.245493
H45	H	0.954275	0.065839	0.326881
H46	H	0.972512	-0.019016	0.246314
H47	H	0.840767	0.035143	0.244077
H48	H	1.461187	-0.016367	0.412333
H49	H	1.281166	-0.410233	-0.000161
H50	H	0.942023	0.048924	-0.211826
H51	H	1.071554	0.199070	0.211502
C52	C	1.768372	-0.335942	-0.000193
H53	H	1.810792	-0.358511	-0.081755
H54	H	1.811372	-0.359356	0.080423
H55	H	1.769023	-0.276409	0.000628
H56	H	1.294041	0.092645	0.587574
C57	C	1.701047	-0.002644	0.601318
H58	H	1.661900	-0.042599	0.655978
H59	H	1.760493	0.023456	0.657237
H60	H	1.744670	-0.030453	0.524562
H61	H	1.396182	-0.314580	0.211498
H62	H	1.115363	-0.022050	-0.000176
C63	C	1.635100	-0.447543	-0.245609
H64	H	1.721852	-0.435383	-0.245475
H65	H	1.593366	-0.424231	-0.327023
H66	H	1.632315	-0.506905	-0.245084
H67	H	1.339536	0.233064	0.412595
C68	C	1.378471	-0.304765	-0.245868
H69	H	1.380542	-0.245341	-0.245102
H70	H	1.291956	-0.317396	-0.246203
H71	H	1.420784	-0.327790	-0.327177
C72	C	1.635066	-0.447465	0.245499
H73	H	1.721809	-0.435286	0.245344
H74	H	1.632288	-0.506823	0.245020
H75	H	1.593327	-0.424120	0.326913
H76	H	0.897799	0.269888	-0.000132
C77	C	1.559508	0.286910	0.601994
H78	H	1.495040	0.328837	0.570153
H79	H	1.640741	0.299374	0.568700
H80	H	1.560085	0.286112	0.701301
C81	C	1.753675	0.160501	0.398267
H82	H	1.752842	0.160424	0.298951
H83	H	1.818081	0.118776	0.430861
H84	H	1.771316	0.214349	0.430984
