data_functionalizedCrystal
_audit_creation_method	'MofGen! by Chris Wilmer'
_symmetry_space_group_name_H-M	'P1'
_symmetry_Int_Tables_number	1
_symmetry_cell_setting	triclinic
loop_
_symmetry_equiv_pos_as_xyz
  x,y,z
_cell_length_a	14.044220
_cell_length_b	14.519709
_cell_length_c	13.101018
_cell_angle_alpha	93.379581
_cell_angle_beta	93.666689
_cell_angle_gamma	91.565489
loop_
_atom_site_label
_atom_site_type_symbol
_atom_site_fract_x
_atom_site_fract_y
_atom_site_fract_z
O1	O	1.252875	-0.227025	-0.085111
O2	O	1.502875	0.022975	0.164889
O3	O	1.752875	0.272975	0.414889
O4	O	2.002875	0.522975	0.664889
O5	O	0.976891	-0.219003	-0.085137
O6	O	1.226891	0.030997	0.164863
O7	O	1.476891	0.280997	0.414863
O8	O	1.726891	0.530997	0.664863
O9	O	1.122201	-0.089365	-0.085114
O10	O	1.372201	0.160635	0.164886
O11	O	1.622201	0.410635	0.414886
O12	O	1.872201	0.660635	0.664886
O13	O	1.107565	-0.356663	-0.085134
O14	O	1.357565	-0.106663	0.164866
O15	O	1.607565	0.143337	0.414866
O16	O	1.857565	0.393337	0.664866
O17	O	1.132618	-0.080034	0.085318
O18	O	1.382618	0.169966	0.335318
O19	O	1.632618	0.419966	0.585318
O20	O	1.882618	0.669966	0.835318
O21	O	0.987308	-0.209671	0.085295
O22	O	1.237308	0.040329	0.335295
O23	O	1.487308	0.290329	0.585295
O24	O	1.737308	0.540329	0.835295
O25	O	1.263292	-0.217694	0.085321
O26	O	1.513292	0.032306	0.335321
O27	O	1.763292	0.282306	0.585321
O28	O	2.013292	0.532306	0.835321
Zn29	Zn	1.126954	-0.212201	0.112368
Zn30	Zn	1.376954	0.037799	0.362368
Zn31	Zn	1.626954	0.287799	0.612368
Zn32	Zn	1.876954	0.537799	0.862368
Zn33	Zn	1.113229	-0.224496	-0.112184
Zn34	Zn	1.363229	0.025504	0.137816
Zn35	Zn	1.613229	0.275504	0.387816
Zn36	Zn	1.863229	0.525504	0.637816
O37	O	1.117982	-0.347332	0.085298
O38	O	1.367982	-0.097332	0.335298
O39	O	1.617982	0.152668	0.585298
O40	O	1.867982	0.402668	0.835298
C41	C	0.946779	-0.210825	0.000076
C42	C	1.196779	0.039175	0.250076
C43	C	1.446779	0.289175	0.500076
C44	C	1.696779	0.539175	0.750076
C45	C	0.841535	-0.200348	0.000066
C46	C	1.091535	0.049652	0.250066
C47	C	1.341535	0.299652	0.500066
C48	C	1.591535	0.549652	0.750066
C49	C	0.648842	-0.181193	0.000088
C50	C	0.898842	0.068807	0.250088
C51	C	1.148842	0.318807	0.500088
C52	C	1.398842	0.568807	0.750088
C53	C	0.591335	-0.255501	0.000087
C54	C	0.841335	-0.005501	0.250087
C55	C	1.091335	0.244499	0.500087
C56	C	1.341335	0.494499	0.750087
C57	C	0.484114	-0.244842	0.000099
C58	C	0.734114	0.005158	0.250099
C59	C	0.984114	0.255158	0.500099
C60	C	1.234114	0.505158	0.750099
C61	C	0.756073	-0.191850	0.000076
C62	C	1.006073	0.058150	0.250076
C63	C	1.256073	0.308150	0.500076
C64	C	1.506073	0.558150	0.750076
C65	C	1.126727	-0.050285	0.000102
C66	C	1.376727	0.199715	0.250102
C67	C	1.626727	0.449715	0.500102
C68	C	1.876727	0.699715	0.750102
C69	C	1.124684	0.052261	0.000102
C70	C	1.374684	0.302261	0.250102
C71	C	1.624684	0.552261	0.500102
C72	C	1.874684	0.802261	0.750102
C73	C	1.293404	-0.225872	0.000106
C74	C	1.543404	0.024128	0.250106
C75	C	1.793404	0.274128	0.500106
C76	C	2.043404	0.524128	0.750106
C77	C	1.398648	-0.236349	0.000108
C78	C	1.648648	0.013651	0.250108
C79	C	1.898648	0.263651	0.500108
C80	C	2.148648	0.513651	0.750108
C81	C	1.113456	-0.386412	0.000080
C82	C	1.363456	-0.136412	0.250080
C83	C	1.613456	0.113588	0.500080
C84	C	1.863456	0.363588	0.750080
C85	C	1.115499	-0.488959	0.000072
C86	C	1.365499	-0.238959	0.250072
C87	C	1.615499	0.011041	0.500072
C88	C	1.865499	0.261041	0.750072
N89	N	1.103863	-0.232879	-0.265434
N90	N	1.353863	0.017121	-0.015434
N91	N	1.603863	0.267121	0.234566
N92	N	1.853863	0.517121	0.484566
C93	C	1.117158	0.427762	0.000075
C94	C	1.367158	0.677762	0.250075
C95	C	1.617158	0.927762	0.500075
C96	C	1.867158	1.177762	0.750075
C97	C	1.119248	0.323286	0.000083
C98	C	1.369248	0.573286	0.250083
C99	C	1.619248	0.823286	0.500083
C100	C	1.869248	1.073286	0.750083
C101	C	1.120921	0.240015	0.000090
C102	C	1.370921	0.490015	0.250090
C103	C	1.620921	0.740015	0.500090
C104	C	1.870921	0.990015	0.750090
C105	C	1.123011	0.135532	0.000096
C106	C	1.373011	0.385532	0.250096
C107	C	1.623011	0.635532	0.500096
C108	C	1.873011	0.885532	0.750096
C109	C	1.149075	-0.192409	-0.525337
C110	C	1.399075	0.057591	-0.275337
C111	C	1.649075	0.307591	-0.025337
C112	C	1.899075	0.557591	0.224663
C113	C	1.091119	-0.244278	-0.474473
C114	C	1.341119	0.005722	-0.224473
C115	C	1.591119	0.255722	0.025527
C116	C	1.841119	0.505722	0.275527
C117	C	1.098212	-0.237934	-0.358153
C118	C	1.348212	0.012066	-0.108153
C119	C	1.598212	0.262066	0.141847
C120	C	1.848212	0.512066	0.391847
C121	C	1.141983	-0.198752	-0.641667
C122	C	1.391983	0.051248	-0.391667
C123	C	1.641983	0.301248	-0.141667
C124	C	1.891983	0.551248	0.108333
N125	N	1.136328	-0.203811	0.265618
N126	N	1.386328	0.046189	0.515618
N127	N	1.636328	0.296189	0.765618
N128	N	1.886328	0.546189	1.015618
H129	H	0.622627	-0.327123	0.000076
H130	H	0.872627	-0.077123	0.250076
H131	H	1.122627	0.172877	0.500076
H132	H	1.372627	0.422877	0.750076
C133	C	0.606575	-0.084445	0.000089
C134	C	0.856575	0.165555	0.250089
C135	C	1.106575	0.415555	0.500089
C136	C	1.356575	0.665555	0.750089
H137	H	0.539009	-0.089885	0.000085
H138	H	0.789009	0.160115	0.250085
H139	H	1.039009	0.410115	0.500085
H140	H	1.289009	0.660115	0.750085
H141	H	0.630951	-0.048621	0.059517
H142	H	0.880951	0.201379	0.309517
H143	H	1.130951	0.451379	0.559517
H144	H	1.380951	0.701379	0.809517
H145	H	0.623669	-0.055148	-0.059357
H146	H	0.873669	0.194852	0.190643
H147	H	1.123669	0.444852	0.440643
H148	H	1.373669	0.694852	0.690643
H149	H	1.036175	-0.293448	-0.518287
H150	H	1.286175	-0.043448	-0.268287
H151	H	1.536175	0.206552	-0.018287
H152	H	1.786175	0.456552	0.231713
C153	C	1.223286	-0.125980	-0.466156
C154	C	1.473286	0.124020	-0.216156
C155	C	1.723286	0.374020	0.033844
C156	C	1.973286	0.624020	0.283844
H157	H	1.218367	-0.130372	-0.394608
H158	H	1.468367	0.119628	-0.144608
H159	H	1.718367	0.369628	0.105392
H160	H	1.968367	0.619628	0.355392
H161	H	1.285557	-0.142048	-0.483665
H162	H	1.535557	0.107952	-0.233665
H163	H	1.785557	0.357952	0.016335
H164	H	2.035557	0.607952	0.266335
H165	H	1.211700	-0.064529	-0.483666
H166	H	1.461700	0.185471	-0.233666
H167	H	1.711700	0.435471	0.016334
H168	H	1.961700	0.685471	0.266334
