data_functionalizedCrystal
_audit_creation_method	'MofGen! by Chris Wilmer'
_symmetry_space_group_name_H-M	'P1'
_symmetry_Int_Tables_number	1
_symmetry_cell_setting	triclinic
loop_
_symmetry_equiv_pos_as_xyz
  x,y,z
_cell_length_a	18.050589
_cell_length_b	13.897449
_cell_length_c	13.897441
_cell_angle_alpha	90.026069
_cell_angle_beta	89.972127
_cell_angle_gamma	89.971851
loop_
_atom_site_label
_atom_site_type_symbol
_atom_site_fract_x
_atom_site_fract_y
_atom_site_fract_z
Zn1	Zn	-0.295637	-1.474632	-0.545537
Zn2	Zn	-0.045637	-1.224632	-0.295537
Zn3	Zn	0.204363	-0.974632	-0.045537
Zn4	Zn	0.454363	-0.724632	0.204463
Zn5	Zn	-0.419841	-1.474496	-0.384246
Zn6	Zn	-0.169841	-1.224496	-0.134246
Zn7	Zn	0.080159	-0.974496	0.115754
Zn8	Zn	0.330159	-0.724496	0.365754
Zn9	Zn	-0.295670	-1.313321	-0.384240
Zn10	Zn	-0.045670	-1.063321	-0.134240
Zn11	Zn	0.204330	-0.813321	0.115760
Zn12	Zn	0.454330	-0.563321	0.365760
Zn13	Zn	-0.419790	-1.313273	-0.545483
Zn14	Zn	-0.169790	-1.063273	-0.295483
Zn15	Zn	0.080210	-0.813273	-0.045483
Zn16	Zn	0.330210	-0.563273	0.204517
O17	O	-0.357734	-1.393931	-0.464876
O18	O	-0.107734	-1.143931	-0.214876
O19	O	0.142266	-0.893931	0.035124
O20	O	0.392266	-0.643931	0.285124
O21	O	-0.312121	-1.609596	-0.524166
O22	O	-0.062121	-1.359596	-0.274166
O23	O	0.187879	-1.109596	-0.024166
O24	O	0.437879	-0.859596	0.225834
O25	O	-0.403405	-1.453080	-0.249263
O26	O	-0.153405	-1.203080	0.000737
O27	O	0.096595	-0.953080	0.250737
O28	O	0.346595	-0.703080	0.500737
O29	O	-0.191741	-1.334796	-0.405656
O30	O	0.058259	-1.084796	-0.155656
O31	O	0.308259	-0.834796	0.094344
O32	O	0.558259	-0.584796	0.344344
O33	O	-0.403374	-1.609496	-0.405666
O34	O	-0.153374	-1.359496	-0.155666
O35	O	0.096626	-1.109496	0.094334
O36	O	0.346626	-0.859496	0.344334
O37	O	-0.191717	-1.453311	-0.524160
O38	O	0.058283	-1.203311	-0.274160
O39	O	0.308283	-0.953311	-0.024160
O40	O	0.558283	-0.703311	0.225840
O41	O	-0.312176	-1.334665	-0.249259
O42	O	-0.062176	-1.084665	0.000741
O43	O	0.187824	-0.834665	0.250741
O44	O	0.437824	-0.584665	0.500741
O45	O	-0.312126	-1.178333	-0.405605
O46	O	-0.062126	-0.928333	-0.155605
O47	O	0.187874	-0.678333	0.094395
O48	O	0.437874	-0.428333	0.344395
O49	O	-0.403285	-1.334715	-0.680472
O50	O	-0.153285	-1.084715	-0.430472
O51	O	0.096715	-0.834715	-0.180472
O52	O	0.346715	-0.584715	0.069528
O53	O	-0.403317	-1.178298	-0.524069
O54	O	-0.153317	-0.928298	-0.274069
O55	O	0.096683	-0.678298	-0.024069
O56	O	0.346683	-0.428298	0.225931
O57	O	-0.312071	-1.453264	-0.680511
O58	O	-0.062071	-1.203264	-0.430511
O59	O	0.187929	-0.953264	-0.180511
O60	O	0.437929	-0.703264	0.069489
O61	O	-0.523759	-1.453033	-0.405614
O62	O	-0.273759	-1.203033	-0.155614
O63	O	-0.023759	-0.953033	0.094386
O64	O	0.226241	-0.703033	0.344386
O65	O	-0.523721	-1.334583	-0.524075
O66	O	-0.273721	-1.084583	-0.274075
O67	O	-0.023721	-0.834583	-0.024075
O68	O	0.226279	-0.584583	0.225925
C69	C	-0.357720	-1.143316	-0.464831
C70	C	-0.107720	-0.893316	-0.214831
C71	C	0.142280	-0.643316	0.035169
C72	C	0.392280	-0.393316	0.285169
C73	C	-0.357732	-1.036103	-0.464835
C74	C	-0.107732	-0.786103	-0.214835
C75	C	0.142268	-0.536103	0.035165
C76	C	0.392268	-0.286103	0.285165
C77	C	-0.550687	-1.393814	-0.464860
C78	C	-0.300687	-1.143814	-0.214860
C79	C	-0.050687	-0.893814	0.035140
C80	C	0.199313	-0.643814	0.285140
C81	C	-0.633232	-1.393853	-0.464886
C82	C	-0.383232	-1.143853	-0.214886
C83	C	-0.133232	-0.893853	0.035114
C84	C	0.116768	-0.643853	0.285114
C85	C	-0.357733	-0.949033	-0.464847
C86	C	-0.107733	-0.699033	-0.214847
C87	C	0.142267	-0.449033	0.035153
C88	C	0.392267	-0.199033	0.285153
C89	C	-0.357737	-0.839800	-0.464871
C90	C	-0.107737	-0.589800	-0.214871
C91	C	0.142263	-0.339800	0.035129
C92	C	0.392263	-0.089800	0.285129
C93	C	-0.832689	-1.329503	-0.529282
C94	C	-0.582689	-1.079503	-0.279282
C95	C	-0.332689	-0.829503	-0.029282
C96	C	-0.082689	-0.579503	0.220718
C97	C	-0.882135	-1.305986	-0.441261
C98	C	-0.632135	-1.055986	-0.191261
C99	C	-0.382135	-0.805986	0.058739
C100	C	-0.132135	-0.555986	0.308739
C101	C	-0.784363	-1.393948	-0.464898
C102	C	-0.534363	-1.143948	-0.214898
C103	C	-0.284363	-0.893948	0.035102
C104	C	-0.034363	-0.643948	0.285102
C105	C	-0.881999	-1.417512	-0.552929
C106	C	-0.631999	-1.167512	-0.302929
C107	C	-0.381999	-0.917512	-0.052929
C108	C	-0.131999	-0.667512	0.197071
C109	C	-0.930348	-1.394037	-0.464918
C110	C	-0.680348	-1.144037	-0.214918
C111	C	-0.430348	-0.894037	0.035082
C112	C	-0.180348	-0.644037	0.285082
C113	C	-0.832721	-1.370384	-0.376831
C114	C	-0.582721	-1.120384	-0.126831
C115	C	-0.332721	-0.870384	0.123169
C116	C	-0.082721	-0.620384	0.373169
C117	C	-0.832581	-1.481951	-0.488558
C118	C	-0.582581	-1.231951	-0.238558
C119	C	-0.332581	-0.981951	0.011442
C120	C	-0.082581	-0.731951	0.261442
C121	C	-0.882004	-1.458468	-0.400477
C122	C	-0.632004	-1.208468	-0.150477
C123	C	-0.382004	-0.958468	0.099523
C124	C	-0.132004	-0.708468	0.349523
C125	C	-0.700264	-1.393893	-0.464888
C126	C	-0.450264	-1.143893	-0.214888
C127	C	-0.200264	-0.893893	0.035112
C128	C	0.049736	-0.643893	0.285112
C129	C	-1.014444	-1.394092	-0.464919
C130	C	-0.764444	-1.144092	-0.214919
C131	C	-0.514444	-0.894092	0.035081
C132	C	-0.264444	-0.644092	0.285081
C133	C	-0.164029	-1.394074	-0.464914
C134	C	0.085971	-1.144074	-0.214914
C135	C	0.335971	-0.894074	0.035086
C136	C	0.585971	-0.644074	0.285086
C137	C	-0.081483	-1.394135	-0.464930
C138	C	0.168517	-1.144135	-0.214930
C139	C	0.418517	-0.894135	0.035070
C140	C	0.668517	-0.644135	0.285070
C141	C	-0.357669	-1.393999	-0.716470
C142	C	-0.107669	-1.143999	-0.466470
C143	C	0.142331	-0.893999	-0.216470
C144	C	0.392331	-0.643999	0.033530
C145	C	-0.357641	-1.394028	-0.823684
C146	C	-0.107641	-1.144028	-0.573684
C147	C	0.142359	-0.894028	-0.323684
C148	C	0.392359	-0.644028	-0.073684
C149	C	-0.357746	-0.645524	-0.464911
C150	C	-0.107746	-0.395524	-0.214911
C151	C	0.142254	-0.145524	0.035089
C152	C	0.392254	0.104476	0.285089
C153	C	-0.357744	-0.752738	-0.464896
C154	C	-0.107744	-0.502738	-0.214896
C155	C	0.142256	-0.252738	0.035104
C156	C	0.392256	-0.002738	0.285104
C157	C	-0.357591	-1.394055	-1.019979
C158	C	-0.107591	-1.144055	-0.769979
C159	C	0.142409	-0.894055	-0.519979
C160	C	0.392409	-0.644055	-0.269979
C161	C	-0.357621	-1.394037	-0.910746
C162	C	-0.107621	-1.144037	-0.660746
C163	C	0.142379	-0.894037	-0.410746
C164	C	0.392379	-0.644037	-0.160746
C165	C	-0.357746	-1.393918	-0.214262
C166	C	-0.107746	-1.143918	0.035738
C167	C	0.142254	-0.893918	0.285738
C168	C	0.392254	-0.643918	0.535738
C169	C	-0.357565	-1.394076	-0.107049
C170	C	-0.107565	-1.144076	0.142951
C171	C	0.142435	-0.894076	0.392951
C172	C	0.392435	-0.644076	0.642951
H173	H	-0.811035	-1.274924	-0.583652
H174	H	-0.561035	-1.024924	-0.333652
H175	H	-0.311035	-0.774924	-0.083652
H176	H	-0.061035	-0.524924	0.166348
H177	H	-0.903521	-1.513005	-0.345975
H178	H	-0.653521	-1.263005	-0.095975
H179	H	-0.403521	-1.013005	0.154025
H180	H	-0.153521	-0.763005	0.404025
H181	H	-0.903645	-1.437407	-0.627368
H182	H	-0.653645	-1.187407	-0.377368
H183	H	-0.403645	-0.937407	-0.127368
H184	H	-0.153645	-0.687407	0.122632
H185	H	-0.810800	-1.556314	-0.508594
H186	H	-0.560800	-1.306314	-0.258594
H187	H	-0.310800	-1.056314	-0.008594
H188	H	-0.060800	-0.806314	0.241406
H189	H	-0.903917	-1.231606	-0.421268
H190	H	-0.653917	-0.981606	-0.171268
H191	H	-0.403917	-0.731606	0.078732
H192	H	-0.153917	-0.481606	0.328732
H193	H	-0.811164	-1.350403	-0.302372
H194	H	-0.561164	-1.100403	-0.052372
H195	H	-0.311164	-0.850403	0.197628
H196	H	-0.061164	-0.600403	0.447628
