data_functionalizedCrystal
_audit_creation_method	'MofGen! by Chris Wilmer'
_symmetry_space_group_name_H-M	'P1'
_symmetry_Int_Tables_number	1
_symmetry_cell_setting	triclinic
loop_
_symmetry_equiv_pos_as_xyz
  x,y,z
_cell_length_a	13.032831
_cell_length_b	12.594516
_cell_length_c	13.032268
_cell_angle_alpha	97.152436
_cell_angle_beta	90.886977
_cell_angle_gamma	82.821304
loop_
_atom_site_label
_atom_site_type_symbol
_atom_site_fract_x
_atom_site_fract_y
_atom_site_fract_z
Zn1	Zn	1.498496	-0.718822	-0.780872
Zn2	Zn	1.520242	-0.877407	-0.608900
Zn3	Zn	1.348353	-0.674358	-0.587111
Zn4	Zn	1.326490	-0.871652	-0.759025
O5	O	1.423395	-0.785560	-0.683977
O6	O	1.645302	-0.760876	-0.776322
O7	O	1.515691	-0.834272	-0.462092
O8	O	1.368319	-0.531320	-0.612838
O9	O	1.661279	-0.877387	-0.649975
O10	O	1.478628	-0.563987	-0.755193
O11	O	1.389406	-0.685093	-0.446084
O12	O	1.201532	-0.679512	-0.591654
O13	O	1.331056	-0.867579	-0.905841
O14	O	1.185469	-0.824463	-0.717958
O15	O	1.457428	-0.755295	-0.921892
O16	O	1.494491	-1.025580	-0.628791
O17	O	1.352143	-1.021351	-0.739087
C18	C	1.156183	-0.746539	-0.650071
C19	C	1.041866	-0.729875	-0.635591
C20	C	0.982991	-0.794257	-0.691535
C21	C	0.864838	-0.777035	-0.676569
C22	C	1.423329	-1.062090	-0.683958
C23	C	1.423391	-1.180408	-0.683997
C24	C	1.345967	-1.247394	-0.743938
C25	C	1.332833	-1.304009	-0.646920
C26	C	1.436617	-1.334607	-0.781043
C27	C	1.410213	-1.235453	-0.586923
C28	C	1.514033	-1.266057	-0.721115
C29	C	1.500943	-1.322639	-0.624037
C30	C	1.691651	-0.824733	-0.718016
C31	C	1.805965	-0.841426	-0.732521
C32	C	1.389378	-0.815755	-0.952226
C33	C	1.374882	-0.828622	-1.066537
C34	C	1.423487	-0.507956	-0.684022
C35	C	1.423526	-0.389658	-0.684041
C36	C	1.430945	-0.778803	-1.125443
C37	C	1.415964	-0.792101	-1.243590
C38	C	1.457340	-0.755414	-0.416779
C39	C	1.472035	-0.742276	-0.302494
H40	H	1.020059	-0.862124	-0.750512
C41	C	1.666461	-1.178169	-0.687554
C42	C	1.617400	-1.242783	-0.763505
H43	H	1.730278	-1.163809	-0.713732
H44	H	1.623355	-1.112149	-0.669186
H45	H	1.679038	-1.214742	-0.628241
H46	H	1.604816	-1.206207	-0.822815
H47	H	1.660516	-1.308815	-0.781888
H48	H	1.531123	-0.689768	-1.265462
C49	C	1.068867	-0.582007	-0.507110
C50	C	0.991838	-0.638246	-0.555976
H51	H	1.037981	-0.525435	-0.457963
H52	H	1.115750	-0.629943	-0.472963
H53	H	1.105099	-0.552488	-0.557266
H54	H	0.955612	-0.667773	-0.505820
H55	H	0.944937	-0.590302	-0.590123
C56	C	1.345329	-0.983219	-1.185637
C57	C	1.295114	-0.899501	-1.116520
H58	H	1.296082	-1.026981	-1.216485
H59	H	1.378547	-0.953683	-1.237898
H60	H	1.395403	-1.025781	-1.149393
H61	H	1.245045	-0.856934	-1.152765
H62	H	1.261879	-0.929038	-1.064251
C63	C	0.707453	-0.686099	-0.597512
C64	C	0.814816	-0.685418	-0.596934
H65	H	0.676574	-0.629547	-0.548341
H66	H	0.681150	-0.675857	-0.664420
H67	H	0.691824	-0.753352	-0.580151
H68	H	0.830445	-0.618167	-0.614302
H69	H	0.841128	-0.695652	-0.530011
C70	C	1.300546	-1.196915	-0.437157
C71	C	1.395059	-1.177463	-0.476105
H72	H	1.291193	-1.161118	-0.368743
H73	H	1.245812	-1.170568	-0.479792
H74	H	1.300544	-1.272254	-0.436508
H75	H	1.395057	-1.102124	-0.476762
H76	H	1.449807	-1.203804	-0.433459
H77	H	0.843026	-0.909296	-0.791506
C78	C	1.162690	-1.221379	-0.773138
C79	C	1.257459	-1.202853	-0.812235
H80	H	1.108050	-1.193873	-0.815296
H81	H	1.161757	-1.296668	-0.773140
H82	H	1.153985	-1.186142	-0.704467
H83	H	1.266167	-1.238097	-0.880904
H84	H	1.258393	-1.127550	-0.812244
H85	H	1.566484	-1.355404	-0.573298
C86	C	1.230979	-1.438571	-0.604157
C87	C	1.229438	-1.327257	-0.604554
H88	H	1.167147	-1.452918	-0.578002
H89	H	1.240854	-1.473923	-0.672665
H90	H	1.285973	-1.464360	-0.561519
H91	H	1.174449	-1.301469	-0.647199
H92	H	1.219552	-1.291892	-0.536036
C93	C	1.609303	-0.748672	-1.114277
C94	C	1.510719	-0.707931	-1.075462
H95	H	1.658550	-0.704911	-1.083427
H96	H	1.626533	-0.820406	-1.098611
H97	H	1.609685	-0.748309	-1.187117
H98	H	1.510334	-0.708301	-1.002622
H99	H	1.493484	-0.636178	-1.091120
C100	C	1.386407	-0.946702	-1.362685
C101	C	1.336192	-0.862984	-1.293568
H102	H	1.337161	-0.990464	-1.393533
H103	H	1.419626	-0.917165	-1.414946
H104	H	1.436481	-0.989263	-1.326442
H105	H	1.286124	-0.820417	-1.329813
H106	H	1.302957	-0.892521	-1.241299
H107	H	1.447750	-1.377685	-0.863096
