data_functionalizedCrystal
_audit_creation_method	'MofGen! by Chris Wilmer'
_symmetry_space_group_name_H-M	'P1'
_symmetry_Int_Tables_number	1
_symmetry_cell_setting	triclinic
loop_
_symmetry_equiv_pos_as_xyz
  x,y,z
_cell_length_a	17.917603
_cell_length_b	16.704494
_cell_length_c	16.704495
_cell_angle_alpha	54.477050
_cell_angle_beta	85.845648
_cell_angle_gamma	60.540889
loop_
_atom_site_label
_atom_site_type_symbol
_atom_site_fract_x
_atom_site_fract_y
_atom_site_fract_z
Zr1	Zr	0.802732	0.799987	-0.107209
O2	O	0.696673	0.977817	-0.249714
O3	O	0.829039	0.629962	-0.057883
O4	O	0.849786	0.795379	-0.232831
O5	O	0.666620	0.813312	0.056819
O6	O	0.977624	0.782865	-0.225930
O7	O	0.675926	0.812400	-0.074766
O8	O	0.940511	0.486964	0.087020
O9	O	0.703733	1.109214	-0.256130
O10	O	0.943160	0.687666	-0.038511
O11	O	0.840811	0.697686	0.054540
O12	O	0.865239	0.892443	-0.151439
O13	O	0.762890	0.902463	-0.058388
Zr14	Zr	0.991777	0.781484	0.113661
Zr15	Zr	1.006619	0.780029	-0.096203
Zr16	Zr	0.787890	0.801442	0.102655
Zr17	Zr	0.813992	1.009549	-0.117443
Zr18	Zr	0.980517	0.571922	0.123894
O19	O	0.965470	0.951509	0.064335
O20	O	0.986574	0.949440	-0.234064
O21	O	0.675570	0.979887	0.048685
O22	O	1.097836	0.603654	0.256166
O23	O	1.118939	0.601584	-0.042233
O24	O	0.807935	0.632031	0.240516
O25	O	1.127889	0.768159	-0.050367
O26	O	0.944723	0.786092	0.239283
O27	O	0.816885	0.798606	0.232382
O28	O	1.118583	0.769071	0.081218
O29	O	0.865796	1.093350	-0.247382
O30	O	0.928713	0.488121	0.253834
O31	O	1.090776	0.472257	0.262582
O32	O	1.102573	0.471100	0.095769
O33	O	0.691936	1.110371	-0.089317
O34	O	0.853999	1.094507	-0.080568
O35	O	0.929270	0.689028	0.157891
O36	O	1.031619	0.679008	0.064840
O37	O	0.953698	0.883785	-0.048088
O38	O	0.851349	0.893805	0.044963
C39	C	0.642224	0.815700	-0.010542
C40	C	0.555668	0.824172	-0.015214
C41	C	0.883170	0.528605	0.016026
C42	C	0.878390	0.439640	0.020370
C43	C	0.915820	0.788915	-0.259282
C44	C	0.922120	0.788297	-0.348375
C45	C	0.397209	0.839648	-0.023748
C46	C	0.397294	0.741828	0.030197
C47	C	0.309122	0.750439	0.025449
C48	C	0.485388	0.831040	-0.019001
C49	C	1.152286	0.765771	0.016994
C50	C	1.238841	0.757299	0.021666
C51	C	0.976282	0.261987	-0.068604
C52	C	0.971794	0.178396	-0.064524
C53	C	0.864930	0.188860	0.032614
C54	C	0.869419	0.272451	0.028535
C55	C	0.925096	0.309012	-0.022077
C56	C	0.929579	0.392611	-0.026162
C57	C	0.822721	0.403067	0.070982
C58	C	0.818232	0.319476	0.075061
C59	C	0.911339	1.052866	-0.009574
C60	C	0.916119	1.141831	-0.013918
C61	C	0.793082	0.800947	-0.523408
C62	C	0.798998	0.800366	-0.607119
C63	C	0.939866	0.786565	-0.599513
C64	C	0.933950	0.787145	-0.515802
C65	C	0.860556	0.794334	-0.477752
C66	C	0.854643	0.794906	-0.394035
C67	C	0.995507	0.781113	-0.386436
C68	C	1.001424	0.780533	-0.470147
C69	C	0.878689	0.792556	0.265734
C70	C	0.872389	0.793174	0.354827
C71	C	1.138201	0.503641	0.029794
C72	C	1.219976	0.406203	0.038811
C73	C	0.864605	0.530425	0.278534
C74	C	0.853524	0.442079	0.371971
C75	C	1.119636	0.505461	0.292302
C76	C	1.195111	0.408642	0.390411
C77	C	0.674873	1.076010	-0.285850
C78	C	0.599399	1.172829	-0.383959
C79	C	0.656308	1.077830	-0.023342
C80	C	0.574533	1.175268	-0.032359
C81	C	0.929904	1.051045	-0.272082
C82	C	0.940985	1.139392	-0.365519
C83	C	1.212205	0.364965	-0.010912
C84	C	1.289036	0.273424	-0.002460
C85	C	1.373636	0.223118	0.055721
C86	C	1.381406	0.264365	0.105444
C87	C	1.304577	0.355910	0.096986
C88	C	0.894495	0.396071	0.469807
C89	C	0.884080	0.313072	0.557608
C90	C	0.832699	0.276076	0.547572
C91	C	0.791724	0.322092	0.449725
C92	C	0.802134	0.405096	0.361926
C93	C	1.283988	0.357943	0.387914
C94	C	1.354913	0.266982	0.480090
C95	C	1.336959	0.226715	0.574763
C96	C	1.248073	0.277423	0.577258
C97	C	1.177150	0.368388	0.485082
C98	C	0.510522	1.223538	-0.381462
C99	C	0.439598	1.314525	-0.473640
C100	C	0.457553	1.354796	-0.568313
C101	C	0.546439	1.304083	-0.570808
C102	C	0.617361	1.213103	-0.478631
C103	C	0.582305	1.216515	0.017355
C104	C	0.505478	1.308078	0.008879
C105	C	0.420877	1.358387	-0.049305
C106	C	0.413107	1.317136	-0.099025
C107	C	0.489934	1.225580	-0.090554
C108	C	0.992371	1.176361	-0.355449
C109	C	1.002800	1.259360	-0.443234
C110	C	0.961837	1.305394	-0.541087
C111	C	0.910448	1.268417	-0.551155
C112	C	0.900025	1.185414	-0.463371
H113	H	0.463587	0.651613	0.079947
N114	N	0.492185	1.182413	-0.284756
N115	N	0.555505	1.101187	-0.202454
H116	H	0.542549	1.072151	-0.134156
N117	N	1.024060	0.130366	-0.112062
N118	N	1.020042	0.055739	-0.108421
H119	H	1.056955	0.021817	-0.141998
H120	H	0.399795	1.428878	-0.643361
N121	N	0.808047	0.151530	0.084293
N122	N	0.725285	0.225292	0.054616
H123	H	0.685107	0.198932	0.091113
H124	H	1.021610	0.291764	-0.109823
H125	H	0.330921	0.929855	-0.073495
H126	H	0.772905	0.289693	0.116272
H127	H	0.781037	0.441369	0.108863
N128	N	0.986442	0.429961	-0.077877
N129	N	1.032137	0.387964	-0.119418
H130	H	1.072298	0.414340	-0.155944
H131	H	1.233467	0.244624	0.654353
H132	H	0.794884	0.800755	-0.363052
N133	N	0.718117	0.808274	-0.484538
N134	N	0.657881	0.814166	-0.525307
H135	H	0.604935	0.819340	-0.497857
H136	H	0.561047	1.336884	-0.647902
H137	H	1.298624	0.390715	0.310835
N138	N	0.739252	0.284292	0.439466
N139	N	0.702677	0.325364	0.352110
H140	H	0.665622	0.298661	0.344865
H141	H	0.744054	0.805753	-0.644291
H142	H	0.999617	0.780723	-0.630512
H143	H	0.768773	0.442545	0.282267
N144	N	1.076375	0.773211	-0.509042
N145	N	1.081645	0.772707	-0.583791
H146	H	1.134580	0.767538	-0.611262
H147	H	0.689727	1.171817	-0.480676
N148	N	1.034226	1.129361	-0.255509
N149	N	1.080109	1.162386	-0.246551
H150	H	1.109676	1.129191	-0.175970
N151	N	0.326681	1.368507	-0.158425
N152	N	0.297365	1.305722	-0.134789
H153	H	0.236323	1.341998	-0.176731
N154	N	1.086370	0.420156	0.487661
N155	N	1.070362	0.384182	0.572202
H156	H	1.006248	0.420739	0.574032
H157	H	1.050451	0.775724	-0.349250
H158	H	0.651184	1.175560	0.064740
N159	N	1.055294	1.297127	-0.432952
N160	N	1.122874	1.281114	-0.464206
H161	H	1.159948	1.307785	-0.456944
N162	N	0.348816	1.366303	-0.471059
N163	N	0.332805	1.330319	-0.386517
H164	H	0.268692	1.366884	-0.384690
H165	H	1.143327	0.405923	-0.058301
H166	H	1.282691	0.239853	-0.042953
N167	N	0.946965	0.433879	0.480055
N168	N	0.956257	0.507995	0.401666
H169	H	0.993311	0.534699	0.408909
N170	N	1.452090	0.129514	0.064444
N171	N	1.445120	0.092647	0.020109
H172	H	1.500520	0.026500	0.026307
H173	H	1.450298	0.223393	0.152814
H174	H	1.310917	0.389474	0.137483
N175	N	0.481971	1.183465	-0.141344
N176	N	0.406426	1.228401	-0.193286
H177	H	0.400795	1.198663	-0.229162
N178	N	0.972500	1.390175	-0.630741
N179	N	1.018386	1.423167	-0.621724
H180	H	1.025919	1.483046	-0.685038
H181	H	0.877098	1.305911	-0.630839
H182	H	0.917452	0.275614	0.637271
N183	N	1.445705	0.215166	0.477546
N184	N	1.509029	0.133946	0.559844
H185	H	1.573150	0.097349	0.558047
N186	N	0.822094	0.191261	0.637266
N187	N	0.848299	0.094908	0.658053
H188	H	0.840816	0.035002	0.721404
N189	N	1.409421	0.133796	0.668904
N190	N	1.488770	0.088543	0.666648
H191	H	1.539951	0.022916	0.733132
N192	N	0.513444	1.350190	0.059675
N193	N	0.588987	1.305245	0.111628
H194	H	0.594616	1.334984	0.147504
H195	H	0.358326	1.432937	-0.056194
H196	H	0.858177	1.155324	-0.471585
