data_functionalizedCrystal
_audit_creation_method	'MofGen! by Chris Wilmer'
_symmetry_space_group_name_H-M	'P1'
_symmetry_Int_Tables_number	1
_symmetry_cell_setting	triclinic
loop_
_symmetry_equiv_pos_as_xyz
  x,y,z
_cell_length_a	12.759400
_cell_length_b	19.805407
_cell_length_c	19.805399
_cell_angle_alpha	90.019573
_cell_angle_beta	89.976763
_cell_angle_gamma	89.985315
loop_
_atom_site_label
_atom_site_type_symbol
_atom_site_fract_x
_atom_site_fract_y
_atom_site_fract_z
Zn1	Zn	-0.418291	-1.034791	-0.382740
Zn2	Zn	-0.593984	-1.034729	-0.269560
Zn3	Zn	-0.418320	-0.921605	-0.269565
Zn4	Zn	-0.593928	-0.921592	-0.382707
O5	O	-0.506131	-0.978179	-0.326143
O6	O	-0.441608	-1.129499	-0.367739
O7	O	-0.570717	-1.019702	-0.174844
O8	O	-0.271295	-0.936651	-0.284593
O9	O	-0.570689	-1.129454	-0.284586
O10	O	-0.271273	-1.019808	-0.367743
O11	O	-0.441657	-0.936591	-0.174848
O12	O	-0.441603	-0.826887	-0.284561
O13	O	-0.570594	-0.936629	-0.477428
O14	O	-0.570622	-0.826877	-0.367687
O15	O	-0.441554	-1.019795	-0.477452
O16	O	-0.740998	-1.019689	-0.284554
O17	O	-0.740957	-0.936568	-0.367682
C18	C	-0.506110	-0.802323	-0.326121
C19	C	-0.506127	-0.727091	-0.326128
C20	C	-0.779098	-0.978139	-0.326129
C21	C	-0.895875	-0.978184	-0.326146
C22	C	-0.506064	-0.978217	-0.502686
C23	C	-0.506036	-0.978233	-0.577918
C24	C	-0.950723	-1.021513	-0.282908
C25	C	-1.060447	-1.021555	-0.282929
C26	C	-1.060464	-0.934932	-0.369426
C27	C	-0.950742	-0.934894	-0.369408
C28	C	-0.895855	-1.064802	-0.239646
C29	C	-0.950704	-1.108135	-0.196404
C30	C	-1.060428	-1.108176	-0.196425
C31	C	-1.115303	-1.064886	-0.239687
C32	C	-0.232097	-0.978238	-0.326172
C33	C	-0.115321	-0.978263	-0.326184
C34	C	-0.506152	-1.154722	-0.326165
C35	C	-0.506160	-1.229954	-0.326175
C36	C	-0.573408	-0.691760	-0.369341
C37	C	-0.573410	-0.621071	-0.369351
C38	C	-0.506135	-0.585716	-0.326143
C39	C	-0.438847	-0.621052	-0.282928
C40	C	-0.438840	-0.691739	-0.282922
C41	C	-0.438870	-0.335979	-0.282950
C42	C	-0.438884	-0.265287	-0.282958
C43	C	-0.573440	-0.265311	-0.369379
C44	C	-0.573433	-0.335998	-0.369373
C45	C	-0.506141	-0.371328	-0.326161
C46	C	-0.506139	-0.447977	-0.326152
C47	C	-0.506142	-0.509069	-0.326148
C48	C	-0.438842	-1.021539	-0.613276
C49	C	-0.438811	-1.021546	-0.683964
C50	C	-0.505981	-0.978250	-0.719294
C51	C	-0.573179	-0.934940	-0.683931
C52	C	-0.573203	-0.934930	-0.613244
C53	C	-0.573081	-0.934978	-0.969004
C54	C	-0.573054	-0.934992	-1.039696
C55	C	-0.438689	-1.021594	-1.039725
C56	C	-0.438713	-1.021584	-0.969038
C57	C	-0.505906	-0.978272	-0.933681
C58	C	-0.505937	-0.978264	-0.857033
C59	C	-0.505957	-0.978261	-0.795941
C60	C	-0.506121	-0.978180	-0.150287
C61	C	-0.505853	-0.978295	-0.075055
H62	H	-0.806512	-1.064772	-0.239622
H63	H	-1.105083	-1.143464	-0.161221
O64	O	-0.645951	-0.729893	-0.415955
H65	H	-0.699350	-0.762081	-0.385609
O66	O	-0.366191	-1.068292	-1.077868
H67	H	-0.413194	-1.102718	-1.110087
H68	H	-0.627754	-0.899733	-1.068460
H69	H	-0.384020	-1.056843	-0.940276
O70	O	-0.366283	-0.582918	-0.236328
H71	H	-0.319489	-0.619364	-0.206283
H72	H	-0.628228	-0.236536	-0.404567
O73	O	-0.891527	-1.154838	-0.149757
H74	H	-0.806015	-1.147530	-0.157004
O75	O	-0.645558	-0.888265	-0.930878
H76	H	-0.634287	-0.895522	-0.875789
O77	O	-1.233650	-1.064926	-0.239712
H78	H	-1.262574	-1.102327	-0.202376
H79	H	-0.628219	-0.364781	-0.404555
H80	H	-0.384094	-0.236502	-0.247773
H81	H	-0.627909	-0.899659	-0.584456
H82	H	-1.105153	-0.899686	-0.404648
O83	O	-0.891572	-0.888157	-0.416035
H84	H	-0.948156	-0.858052	-0.446113
H85	H	-0.628198	-0.592308	-0.404539
H86	H	-0.384085	-0.364736	-0.247759
H87	H	-0.384048	-0.720505	-0.247737
O88	O	-0.366394	-1.068237	-0.575171
H89	H	-0.319657	-1.098347	-0.611636
O90	O	-0.366344	-1.068258	-0.722103
H91	H	-0.319652	-1.098370	-0.685661
H92	H	-0.627866	-0.899685	-0.712702
