data_functionalizedCrystal
_audit_creation_method	'MofGen! by Chris Wilmer'
_symmetry_space_group_name_H-M	'P1'
_symmetry_Int_Tables_number	1
_symmetry_cell_setting	triclinic
loop_
_symmetry_equiv_pos_as_xyz
  x,y,z
_cell_length_a	15.538191
_cell_length_b	14.044190
_cell_length_c	14.185569
_cell_angle_alpha	75.616153
_cell_angle_beta	97.875798
_cell_angle_gamma	70.231935
loop_
_atom_site_label
_atom_site_type_symbol
_atom_site_fract_x
_atom_site_fract_y
_atom_site_fract_z
O1	O	1.205754	-0.271180	-0.083403
O2	O	0.940434	-0.164805	-0.083413
O3	O	1.069112	-0.354612	-0.083388
O4	O	1.077075	-0.081372	-0.083428
O5	O	1.107126	-0.410679	0.083453
O6	O	0.978447	-0.220871	0.083429
O7	O	1.243767	-0.327246	0.083439
Cu8	Cu	1.114578	-0.279178	0.098668
Cu9	Cu	1.069623	-0.212873	-0.098642
O10	O	1.115088	-0.137438	0.083414
C11	C	0.925280	-0.181708	0.000007
C12	C	0.823492	-0.148557	0.000004
C13	C	0.508026	-0.477909	0.000036
C14	C	0.412379	-0.446734	0.000031
C15	C	0.404669	-0.271384	0.000006
C16	C	0.500318	-0.302546	0.000016
C17	C	0.551989	-0.405809	0.000030
C18	C	0.544281	-0.230446	0.000010
C19	C	0.639921	-0.261604	0.000015
C20	C	0.691597	-0.364862	0.000025
C21	C	0.647629	-0.436967	0.000034
C22	C	0.492607	-0.127181	-0.000011
C23	C	0.536570	-0.055081	-0.000017
C24	C	0.632213	-0.086241	-0.000005
C25	C	0.683889	-0.189498	0.000005
C26	C	0.676181	-0.014135	-0.000015
C27	C	0.771821	-0.045293	-0.000010
C28	C	0.779529	-0.220656	0.000010
C29	C	1.084632	-0.416761	0.000035
C30	C	1.074232	-0.518411	0.000044
C31	C	1.128981	-0.787524	0.000006
C32	C	1.055222	-0.704519	0.000011
C33	C	1.065802	-0.600960	0.000029
C34	C	1.118402	-0.891094	-0.000012
C35	C	1.258920	-0.310342	0.000017
C36	C	1.360707	-0.343491	0.000013
C37	C	1.099568	-0.075289	-0.000012
C38	C	1.109967	0.026363	-0.000027
N39	N	1.146203	-0.325816	0.237445
N40	N	1.038004	-0.166245	-0.237419
C41	C	0.945084	-0.029262	0.605057
C42	C	0.969047	-0.064585	0.710083
C43	C	1.083021	-0.232622	0.710065
C44	C	1.059065	-0.197314	0.605037
C45	C	0.990097	-0.095633	0.552541
C46	C	1.104077	-0.263686	0.552521
C47	C	1.080126	-0.228378	0.447502
C48	C	1.011162	-0.126699	0.394999
C49	C	0.966145	-0.060325	0.447522
C50	C	1.173050	-0.365364	0.605020
C51	C	1.218062	-0.431735	0.552504
C52	C	1.194106	-0.396431	0.447483
C53	C	1.125143	-0.294752	0.394979
C54	C	1.239123	-0.462805	0.394960
C55	C	1.215172	-0.427497	0.289941
C56	C	1.101191	-0.259445	0.289960
H57	H	0.769470	-0.390224	0.000016
H58	H	0.414730	-0.101814	-0.000018
H59	H	0.984130	-0.711233	0.000002
H60	H	1.274219	-0.514524	0.595258
N61	N	1.263689	-0.499099	0.233294
H62	H	1.238044	-0.461304	0.158799
H63	H	1.333719	-0.516954	0.251619
N64	N	1.223151	-0.778647	0.000038
H65	H	1.217457	-0.704851	0.000057
H66	H	1.271571	-0.833423	0.061896
N67	N	0.348935	-0.160009	-0.000015
H68	H	0.281676	-0.151209	-0.000019
H69	H	0.378059	-0.147956	0.061834
N70	N	0.364959	-0.524502	0.000031
H71	H	0.412207	-0.594643	0.000038
H72	H	0.339535	-0.536182	0.061878
H73	H	0.991665	-0.097952	0.309486
N74	N	0.835269	-0.332039	0.000039
H75	H	0.806225	-0.344175	-0.061802
H76	H	0.902515	-0.340760	0.000079
H77	H	1.045023	-0.176650	0.247216
N78	N	0.703374	-0.548349	0.000064
H79	H	0.661014	-0.589303	0.000073
H80	H	0.729133	-0.544313	-0.061784
H81	H	0.909977	0.022470	0.404777
H82	H	0.550101	-0.561998	0.000053
H83	H	0.494485	0.028998	-0.000033
N84	N	0.620443	0.097242	-0.000045
H85	H	0.553183	0.106041	-0.000053
H86	H	0.649561	0.109305	0.061802
H87	H	0.807618	0.013415	-0.000005
H88	H	0.888917	0.053533	0.562312
H89	H	0.932388	-0.010528	0.752836
N90	N	1.157410	-0.342286	0.766688
H91	H	1.165756	-0.354583	0.841187
H92	H	1.137156	-0.397839	0.748342
N93	N	1.198882	-0.403443	0.718290
H94	H	1.186084	-0.469975	0.743596
H95	H	1.267972	-0.419835	0.743488
H96	H	1.295284	-0.545591	0.437716
