data_functionalizedCrystal
_audit_creation_method	'MofGen! by Chris Wilmer'
_symmetry_space_group_name_H-M	'P1'
_symmetry_Int_Tables_number	1
_symmetry_cell_setting	triclinic
loop_
_symmetry_equiv_pos_as_xyz
  x,y,z
_cell_length_a	12.645331
_cell_length_b	12.645330
_cell_length_c	16.120256
_cell_angle_alpha	92.878509
_cell_angle_beta	92.878155
_cell_angle_gamma	90.016671
loop_
_atom_site_label
_atom_site_type_symbol
_atom_site_fract_x
_atom_site_fract_y
_atom_site_fract_z
Zn1	Zn	1.590309	-0.452508	-0.471418
Zn2	Zn	1.599187	-0.620792	-0.332017
Zn3	Zn	1.422020	-0.443541	-0.332020
Zn4	Zn	1.413008	-0.629725	-0.471383
O5	O	1.506131	-0.536641	-0.401710
O6	O	1.739833	-0.474846	-0.452940
O7	O	1.583172	-0.589788	-0.215354
O8	O	1.444400	-0.296384	-0.350528
O9	O	1.746356	-0.598484	-0.350522
O10	O	1.568042	-0.302972	-0.452943
O11	O	1.453008	-0.459562	-0.215356
O12	O	1.272478	-0.468223	-0.350494
O13	O	1.429041	-0.613708	-0.588052
O14	O	1.265857	-0.605012	-0.452883
O15	O	1.559303	-0.483508	-0.588077
O16	O	1.574434	-0.770324	-0.350488
O17	O	1.437649	-0.776886	-0.452880
C18	C	1.230703	-0.536615	-0.401686
C19	C	1.112872	-0.536630	-0.401695
C20	C	0.949415	-0.450223	-0.337637
C21	C	1.071993	-0.450417	-0.337355
C22	C	1.069901	-0.646754	-0.377697
C23	C	0.947330	-0.646277	-0.377260
C24	C	0.940025	-0.513992	-0.489998
C25	C	1.062662	-0.511466	-0.489507
C26	C	1.506054	-0.812070	-0.401698
C27	C	1.506117	-0.929902	-0.401721
C28	C	1.420390	-1.101651	-0.466334
C29	C	1.419987	-0.979079	-0.466126
C30	C	1.481541	-0.968821	-0.313860
C31	C	1.481018	-1.091444	-0.314252
C32	C	1.616964	-1.098449	-0.424256
C33	C	1.616152	-0.975966	-0.426177
C34	C	1.782635	-0.536669	-0.401734
C35	C	1.900464	-0.536681	-0.401745
C36	C	1.492177	-0.550604	-0.619160
C37	C	1.486230	-0.556555	-0.711824
C38	C	1.506236	-0.260138	-0.401740
C39	C	1.506280	-0.142309	-0.401752
C40	C	1.537140	-0.505585	-0.922783
C41	C	1.475338	-0.567374	-0.881478
C42	C	1.481400	-0.561352	-0.787074
C43	C	1.531079	-0.511605	-1.017195
C44	C	1.520092	-0.522656	-0.185105
C45	C	1.526244	-0.516408	-0.092442
H46	H	1.096151	-0.712647	-0.422925
H47	H	1.337817	-0.948879	-0.451218
H48	H	1.541169	-1.117889	-0.264493
C49	C	1.310068	-1.142095	-0.446451
H50	H	1.316123	-1.183647	-0.398960
H51	H	1.281059	-1.184072	-0.492590
H52	H	1.264963	-1.083506	-0.435516
H53	H	1.594600	-0.448168	-0.887248
C54	C	1.703297	-1.133396	-0.360658
H55	H	1.672101	-1.174531	-0.320591
H56	H	1.736274	-1.072629	-0.333613
H57	H	1.754759	-1.174582	-0.388520
C58	C	1.371943	-1.128545	-0.288508
H59	H	1.328367	-1.068681	-0.277913
H60	H	1.380528	-1.167264	-0.239636
H61	H	1.339631	-1.172564	-0.332108
C62	C	1.397725	-0.644963	-0.929479
H63	H	1.403792	-0.638896	-0.987552
H64	H	1.327394	-0.628571	-0.915250
H65	H	1.414132	-0.715301	-0.915261
H66	H	0.907719	-0.435391	-0.511822
H67	H	0.907963	-0.577034	-0.537764
C68	C	1.111357	-0.339863	-0.357668
H69	H	1.186495	-0.339835	-0.357526
H70	H	1.088792	-0.288912	-0.317020
H71	H	1.083075	-0.322641	-0.411003
H72	H	1.634788	-0.950992	-0.490838
H73	H	0.918991	-0.368124	-0.352517
H74	H	1.104675	-0.667120	-0.313873
H75	H	0.914804	-0.712570	-0.421918
H76	H	1.090072	-0.570299	-0.539827
H77	H	0.922763	-0.464579	-0.272623
H78	H	1.105491	-0.464956	-0.271956
C79	C	1.439833	-0.944022	-0.554140
H80	H	1.448213	-1.004737	-0.590345
H81	H	1.502234	-0.901966	-0.552442
H82	H	1.381265	-0.903753	-0.573942
H83	H	1.401676	-0.936955	-0.294452
H84	H	0.922848	-0.666184	-0.312743
H85	H	1.090598	-0.430455	-0.507603
H86	H	1.434922	-1.135285	-0.531696
C87	C	1.563698	-0.925119	-0.247072
H88	H	1.547348	-0.949622	-0.194441
H89	H	1.562141	-0.849931	-0.244996
H90	H	1.632296	-0.948861	-0.260572
C91	C	1.648745	-1.145602	-0.509336
H92	H	1.594800	-1.192484	-0.531931
H93	H	1.713323	-1.183295	-0.502589
H94	H	1.657691	-1.090113	-0.545986
H95	H	1.683060	-0.942500	-0.382564
