data_functionalizedCrystal
_audit_creation_method	'MofGen! by Chris Wilmer'
_symmetry_space_group_name_H-M	'P1'
_symmetry_Int_Tables_number	1
_symmetry_cell_setting	triclinic
loop_
_symmetry_equiv_pos_as_xyz
  x,y,z
_cell_length_a	16.109301
_cell_length_b	16.109301
_cell_length_c	9.730223
_cell_angle_alpha	90.002516
_cell_angle_beta	89.997247
_cell_angle_gamma	83.461481
loop_
_atom_site_label
_atom_site_type_symbol
_atom_site_fract_x
_atom_site_fract_y
_atom_site_fract_z
O1	O	0.106864	1.103127	-0.114207
O2	O	0.120163	0.861065	-0.114230
O3	O	-0.007518	0.988746	-0.114204
O4	O	0.234544	0.975446	-0.114233
O5	O	-0.007515	0.988744	0.114376
O6	O	0.120166	0.861064	0.114350
O7	O	0.106867	1.103126	0.114373
Zn8	Zn	0.113517	0.982094	0.150653
Zn9	Zn	0.113513	0.982096	-0.150511
O10	O	0.234547	0.975445	0.114347
C11	C	0.119626	0.830090	0.000057
C12	C	0.118011	0.737794	0.000049
C13	C	0.190018	0.515522	0.000057
C14	C	0.188494	0.428801	0.000066
C15	C	0.037006	0.448676	0.000078
C16	C	0.038530	0.535394	0.000079
C17	C	0.115039	0.568815	0.000061
C18	C	0.111990	0.395376	0.000069
C19	C	0.110337	0.301350	0.000079
C20	C	0.116693	0.662847	0.000054
C21	C	-0.038491	0.988206	0.000087
C22	C	-0.130786	0.986591	0.000088
C23	C	-0.353059	1.058599	0.000073
C24	C	-0.439779	1.057075	0.000062
C25	C	-0.419905	0.905586	0.000053
C26	C	-0.333186	0.907111	0.000055
C27	C	-0.299766	0.983620	0.000072
C28	C	-0.473205	0.980571	0.000059
C29	C	-0.567231	0.978918	0.000046
C30	C	-0.205734	0.985273	0.000082
C31	C	0.265521	0.975984	0.000053
C32	C	0.357816	0.977600	0.000042
C33	C	0.107404	1.134101	0.000082
C34	C	0.109019	1.226397	0.000081
N35	N	0.113519	0.982099	0.356190
N36	N	0.113504	0.982098	-0.356047
C37	C	0.057001	1.038650	0.428127
C38	C	0.056991	1.038648	0.572010
C39	C	0.170024	0.925541	0.572006
C40	C	0.170030	0.925540	0.428125
C41	C	-0.008255	1.103955	0.428131
C42	C	-0.008265	1.103953	0.572014
H43	H	0.252317	0.542730	0.000053
F44	F	0.009599	1.187300	0.623068
F45	F	-0.455481	0.824164	0.000034
H46	H	-0.072036	1.090333	0.389083
H47	H	0.216044	0.879484	0.369555
F48	F	0.268298	0.372086	0.000063
F49	F	-0.044416	0.413100	0.000091
F50	F	-0.276464	0.827304	0.000043
F51	F	-0.041277	0.592117	0.000093
H52	H	-0.068477	1.084294	0.616635
H53	H	-0.483168	1.118130	0.000060
F54	F	-0.317493	1.140026	0.000090
H55	H	0.216033	0.879491	0.630591
F56	F	0.017514	1.182617	0.369798
