data_functionalizedCrystal
_audit_creation_method	'MofGen! by Chris Wilmer'
_symmetry_space_group_name_H-M	'P1'
_symmetry_Int_Tables_number	1
_symmetry_cell_setting	triclinic
loop_
_symmetry_equiv_pos_as_xyz
  x,y,z
_cell_length_a	10.654556
_cell_length_b	10.489716
_cell_length_c	9.130313
_cell_angle_alpha	89.999518
_cell_angle_beta	89.998135
_cell_angle_gamma	84.508336
loop_
_atom_site_label
_atom_site_type_symbol
_atom_site_fract_x
_atom_site_fract_y
_atom_site_fract_z
O1	O	1.667903	0.179203	-0.121730
O2	O	1.302432	0.196264	-0.121743
O3	O	1.493500	0.002130	-0.121741
O4	O	1.476835	0.373337	-0.121732
O5	O	1.493487	0.002124	0.121857
O6	O	1.302419	0.196258	0.121856
O7	O	1.667890	0.179197	0.121869
Cu8	Cu	1.485153	0.187727	0.144105
Cu9	Cu	1.485169	0.187734	-0.143979
O10	O	1.476822	0.373331	0.121867
C11	C	1.255627	0.195007	0.000054
C12	C	1.116183	0.191253	0.000048
C13	C	0.919643	0.185972	-0.132726
C14	C	1.050666	0.189491	-0.132735
C15	C	1.050671	0.189484	0.132850
C16	C	0.919651	0.185957	0.132857
C17	C	1.492241	-0.045405	0.000054
C18	C	1.488495	-0.187034	0.000040
C19	C	1.605664	-0.284762	0.000058
C20	C	1.543756	-0.362091	-0.120048
C21	C	1.543716	-0.362061	0.120122
C22	C	1.426636	-0.262498	-0.120165
C23	C	1.426613	-0.262462	0.120113
C24	C	1.364619	-0.339743	-0.000022
C25	C	1.714695	0.180454	0.000069
C26	C	1.854139	0.184207	0.000065
C27	C	1.478081	0.420866	0.000069
C28	C	1.481827	0.562495	0.000073
N29	N	1.485151	0.187722	0.346728
N30	N	1.485181	0.187729	-0.346602
C31	C	1.569785	0.101795	0.423380
C32	C	1.569797	0.101796	0.576717
C33	C	1.400538	0.273659	0.576735
C34	C	1.400521	0.273652	0.423401
H35	H	0.866316	0.184518	0.240998
O36	O	1.727249	-0.255382	-0.000366
C37	C	1.788587	-0.306356	-0.127237
H38	H	1.715524	-0.321180	-0.215280
H39	H	1.856467	-0.237009	-0.169190
H40	H	1.843371	-0.402097	-0.099835
H41	H	1.331596	0.343624	0.360986
H42	H	1.377189	-0.218924	0.221655
H43	H	0.866307	0.184546	-0.240854
H44	H	1.593223	-0.405607	-0.221587
H45	H	1.377207	-0.219169	-0.221817
O46	O	1.318287	0.356959	0.651384
C47	C	1.240195	0.287911	0.740076
H48	H	1.289330	0.188567	0.763042
H49	H	1.220818	0.340971	0.847901
H50	H	1.147292	0.278362	0.681006
H51	H	1.103994	0.190926	-0.240867
H52	H	1.104026	0.190912	0.240964
O53	O	1.651960	0.018155	0.651015
C54	C	1.630405	-0.108318	0.613582
H55	H	1.581986	-0.108623	0.502260
H56	H	1.724248	-0.170239	0.608321
H57	H	1.567553	-0.148362	0.699893
O58	O	1.242926	-0.368781	-0.000355
C59	C	1.181625	-0.317582	-0.127139
H60	H	1.254686	-0.302941	-0.215250
H61	H	1.113496	-0.386689	-0.169055
H62	H	1.127123	-0.221718	-0.099636
H63	H	1.593197	-0.405558	0.221659
H64	H	1.638695	0.031824	0.360956
