data_functionalizedCrystal
_audit_creation_method	'MofGen! by Chris Wilmer'
_symmetry_space_group_name_H-M	'P1'
_symmetry_Int_Tables_number	1
_symmetry_cell_setting	triclinic
loop_
_symmetry_equiv_pos_as_xyz
  x,y,z
_cell_length_a	17.038272
_cell_length_b	19.188937
_cell_length_c	16.098538
_cell_angle_alpha	87.287428
_cell_angle_beta	92.930266
_cell_angle_gamma	87.129493
loop_
_atom_site_label
_atom_site_type_symbol
_atom_site_fract_x
_atom_site_fract_y
_atom_site_fract_z
O1	O	-1.040403	-0.148678	-0.069155
O2	O	-0.540403	0.351322	0.430845
O3	O	-0.812780	-0.146270	-0.069180
O4	O	-0.312780	0.353730	0.430820
O5	O	-0.933157	-0.046226	-0.069159
O6	O	-0.433157	0.453774	0.430841
O7	O	-0.920026	-0.248721	-0.069176
O8	O	-0.420026	0.251279	0.430824
O9	O	-0.926125	-0.052046	0.069353
O10	O	-0.426125	0.447954	0.569353
O11	O	-0.805749	-0.152089	0.069332
O12	O	-0.305749	0.347911	0.569332
O13	O	-1.033371	-0.154497	0.069356
O14	O	-0.533371	0.345503	0.569356
Zn15	Zn	-0.918443	-0.154217	0.091336
Zn16	Zn	-0.418443	0.345783	0.591336
Zn17	Zn	-0.927708	-0.146550	-0.091159
Zn18	Zn	-0.427708	0.353450	0.408841
O19	O	-0.912994	-0.254540	0.069336
O20	O	-0.412994	0.245460	0.569336
C21	C	-0.929215	-0.023099	0.000097
C22	C	-0.429215	0.476901	0.500097
C23	C	-0.927936	0.054485	0.000097
C24	C	-0.427936	0.554485	0.500097
C25	C	-0.780143	-0.146990	0.000073
C26	C	-0.280143	0.353010	0.500073
C27	C	-0.693371	-0.140458	0.000064
C28	C	-0.193371	0.359542	0.500064
C29	C	-0.915003	0.605139	0.075587
C30	C	-0.415003	1.105139	0.575587
C31	C	-0.916196	0.532240	0.075591
C32	C	-0.416196	1.032240	0.575591
C33	C	-0.920630	0.498955	0.000088
C34	C	-0.420630	0.998955	0.500088
C35	C	-0.923850	0.538574	-0.075423
C36	C	-0.423850	1.038574	0.424577
C37	C	-0.922649	0.611471	-0.075425
C38	C	-0.422649	1.111471	0.424575
N39	N	-0.969850	0.389411	-0.056106
N40	N	-0.469850	0.889411	0.443894
N41	N	-0.970992	0.320162	-0.056099
N42	N	-0.470992	0.820162	0.443901
C43	C	-0.924247	0.279321	0.000089
C44	C	-0.424247	0.779321	0.500089
N45	N	-0.876326	0.310345	0.056282
N46	N	-0.376326	0.810345	0.556282
N47	N	-0.875187	0.379600	0.056278
N48	N	-0.375187	0.879600	0.556278
C49	C	-0.921932	0.419911	0.000082
C50	C	-0.421932	0.919911	0.500082
C51	C	-0.922315	0.160665	0.075600
C52	C	-0.422315	0.660665	0.575600
C53	C	-0.923504	0.087765	0.075600
C54	C	-0.423504	0.587765	0.575600
C55	C	-0.931166	0.094101	-0.075416
C56	C	-0.431166	0.594101	0.424584
C57	C	-0.929969	0.167000	-0.075414
C58	C	-0.429969	0.667000	0.424586
C59	C	-0.925548	0.200277	0.000096
C60	C	-0.425548	0.700277	0.500096
C61	C	-1.066008	-0.153776	0.000102
C62	C	-0.566008	0.346224	0.500102
C63	C	-1.152781	-0.160308	0.000105
C64	C	-0.652781	0.339692	0.500105
C65	C	-0.643071	-0.200424	0.000060
C66	C	-0.143071	0.299576	0.500060
C67	C	-0.561539	-0.194284	0.000072
C68	C	-0.061539	0.305716	0.500072
C69	C	-0.530309	-0.128176	0.000082
C70	C	-0.030309	0.371824	0.500082
C71	C	-0.580615	-0.068205	0.000089
C72	C	-0.080615	0.431795	0.500089
C73	C	-0.662145	-0.074347	0.000083
C74	C	-0.162145	0.425653	0.500083
C75	C	-0.284617	-0.106479	0.000106
C76	C	0.215383	0.393521	0.500106
C77	C	-0.203080	-0.100342	0.000110
C78	C	0.296920	0.399658	0.500110
C79	C	-0.184010	-0.226421	0.000094
C80	C	0.315990	0.273579	0.500094
C81	C	-0.265543	-0.232557	0.000083
C82	C	0.234457	0.267443	0.500083
C83	C	-0.315842	-0.172586	0.000094
C84	C	0.184158	0.327414	0.500094
C85	C	-0.446970	-0.121898	0.000092
C86	C	0.053030	0.378102	0.500092
C87	C	-0.399178	-0.178865	0.000091
C88	C	0.100822	0.321135	0.500091
N89	N	-0.912126	-0.159450	0.215884
N90	N	-0.412126	0.340550	0.715884
C91	C	-0.916939	0.722332	0.000081
C92	C	-0.416939	1.222332	0.500081
C93	C	-0.918228	0.644749	0.000085
C94	C	-0.418228	1.144749	0.500085
N95	N	-0.934031	-0.141312	-0.215707
N96	N	-0.434031	0.358688	0.284293
C97	C	-0.963237	-0.117005	0.259478
C98	C	-0.463237	0.382995	0.759478
C99	C	-0.958826	-0.120672	0.346666
C100	C	-0.458826	0.379328	0.846666
C101	C	-0.903306	-0.166789	0.390259
C102	C	-0.403306	0.333211	0.890259
C103	C	-0.852189	-0.209236	0.346659
C104	C	-0.352189	0.290764	0.846659
C105	C	-0.856598	-0.205564	0.259472
C106	C	-0.356598	0.294436	0.759472
C107	C	-0.887323	-0.180087	0.653506
C108	C	-0.387323	0.319913	1.153506
C109	C	-0.882920	-0.183757	0.740699
C110	C	-0.382920	0.316243	1.240699
C111	C	-0.989556	-0.095192	0.740700
C112	C	-0.489556	0.404808	1.240700
C113	C	-0.993963	-0.091527	0.653512
C114	C	-0.493963	0.408473	1.153512
C115	C	-0.942844	-0.133972	0.609919
C116	C	-0.442844	0.366028	1.109919
C117	C	-0.898796	-0.170540	0.479379
C118	C	-0.398796	0.329460	0.979379
C119	C	-0.947350	-0.130216	0.520801
C120	C	-0.447350	0.369784	1.020801
H121	H	-0.913556	0.499982	0.137075
H122	H	-0.413556	0.999982	0.637075
H123	H	-0.927457	0.511469	-0.136898
H124	H	-0.427457	1.011469	0.363102
H125	H	-0.290965	-0.286388	0.000065
H126	H	0.209035	0.213612	0.500065
H127	H	-0.925274	0.643722	-0.136909
H128	H	-0.425274	1.143722	0.363091
H129	H	-0.806979	-0.246782	0.382157
H130	H	-0.306979	0.253218	0.882157
H131	H	-0.555180	-0.014379	0.000109
H132	H	-0.055180	0.485621	0.500109
N133	N	-1.044689	-0.049415	0.787716
N134	N	-0.544689	0.450585	1.287716
H135	H	-1.033474	-0.058736	0.849563
H136	H	-0.533474	0.441264	1.349563
H137	H	-1.036600	0.001288	0.772488
H138	H	-0.536600	0.501288	1.272488
N139	N	-0.338861	-0.041800	0.000124
N140	N	0.161139	0.458200	0.500124
H141	H	-0.306703	0.001009	0.000130
H142	H	0.193297	0.501009	0.500130
H143	H	-0.375708	-0.039438	-0.051223
H144	H	0.124292	0.460562	0.448777
H145	H	-0.814976	-0.240126	0.223979
H146	H	-0.314976	0.259874	0.723979
H147	H	-0.992552	-0.092665	0.485305
H148	H	-0.492552	0.407335	0.985305
H149	H	-0.911402	0.632229	0.137073
H150	H	-0.411402	1.132229	0.637073
N151	N	-0.920023	0.045038	0.157038
N152	N	-0.420023	0.545038	0.657038
H153	H	-0.917043	0.077184	0.204869
H154	H	-0.417043	0.577184	0.704869
H155	H	-0.968801	0.017435	0.160324
H156	H	-0.468801	0.517435	0.660324
H157	H	-0.932600	0.199251	-0.136896
H158	H	-0.432600	0.699251	0.363104
H159	H	-0.668492	-0.254256	0.000051
H160	H	-0.168492	0.245744	0.500051
H161	H	-0.177656	-0.046506	0.000117
H162	H	0.322344	0.453494	0.500117
H163	H	-0.853592	-0.208091	0.514880
H164	H	-0.353592	0.291909	1.014880
H165	H	-0.934766	0.067001	-0.136891
H166	H	-0.434766	0.567001	0.363109
N167	N	-0.917543	0.196564	0.157037
N168	N	-0.417543	0.696564	0.657037
H169	H	-0.915675	0.160406	0.204869
H170	H	-0.415675	0.660406	0.704869
H171	H	-0.868433	0.223893	0.160321
H172	H	-0.368433	0.723893	0.660321
H173	H	-0.520588	-0.243115	0.000067
H174	H	-0.020588	0.256885	0.500067
H175	H	-0.421532	-0.068073	0.000124
H176	H	0.078468	0.431927	0.500124
H177	H	-1.039172	-0.053976	0.618020
H178	H	-0.539172	0.446024	1.118020
N179	N	-0.129761	-0.291100	0.000083
N180	N	0.370239	0.208900	0.500083
H181	H	-0.073372	-0.277182	0.000089
H182	H	0.426628	0.222818	0.500089
H183	H	-0.137249	-0.321859	0.051428
H184	H	0.362751	0.178141	0.551428
H185	H	-0.703099	-0.025516	0.000086
H186	H	-0.203099	0.474484	0.500086
N187	N	-0.432852	-0.250168	0.000078
N188	N	0.067148	0.249832	0.500078
H189	H	-0.463656	-0.257686	0.051421
H190	H	0.036344	0.242314	0.551421
H191	H	-0.468817	-0.253316	-0.051305
H192	H	0.031183	0.246684	0.448695
H193	H	-1.008451	-0.079455	0.223990
H194	H	-0.508451	0.420545	0.723990
H195	H	-1.000444	-0.086110	0.382160
H196	H	-0.500444	0.413890	0.882160
H197	H	-0.845701	-0.214648	0.618020
H198	H	-0.345701	0.285352	1.118020
N199	N	-0.823043	-0.233506	0.787720
N200	N	-0.323043	0.266494	1.287720
H201	H	-0.791328	-0.259839	0.746876
H202	H	-0.291328	0.240161	1.246876
H203	H	-0.786752	-0.206238	0.823913
H204	H	-0.286752	0.293762	1.323913
