data_functionalizedCrystal
_audit_creation_method	'MofGen! by Chris Wilmer'
_symmetry_space_group_name_H-M	'P1'
_symmetry_Int_Tables_number	1
_symmetry_cell_setting	triclinic
loop_
_symmetry_equiv_pos_as_xyz
  x,y,z
_cell_length_a	9.065215
_cell_length_b	10.540510
_cell_length_c	8.140239
_cell_angle_alpha	89.998951
_cell_angle_beta	89.997810
_cell_angle_gamma	84.764004
loop_
_atom_site_label
_atom_site_type_symbol
_atom_site_fract_x
_atom_site_fract_y
_atom_site_fract_z
O1	O	1.959448	0.186128	-0.136584
O2	O	1.530084	0.201401	-0.136591
O3	O	1.754584	0.009092	-0.136587
O4	O	1.734947	0.378437	-0.136588
O5	O	1.754572	0.009089	0.136640
O6	O	1.530072	0.201398	0.136636
O7	O	1.959435	0.186126	0.136643
Zn8	Zn	1.744751	0.193762	0.180020
Zn9	Zn	1.744768	0.193765	-0.179968
O10	O	1.734935	0.378435	0.136639
C11	C	1.475099	0.199933	0.000022
C12	C	1.311278	0.195546	0.000019
C13	C	1.753115	-0.038218	0.000023
C14	C	1.748737	-0.179185	0.000013
C15	C	1.904696	-0.396065	0.000642
C16	C	1.909366	-0.249452	0.000017
C17	C	1.666517	-0.224245	-0.156011
C18	C	1.662985	-0.371019	-0.156133
C19	C	1.659625	-0.370843	0.154577
C20	C	1.667244	-0.224473	0.156631
C21	C	2.014421	0.187594	0.000027
C22	C	2.178241	0.191980	0.000019
C23	C	1.736404	0.425745	0.000025
C24	C	1.740782	0.566711	0.000024
N25	N	1.744751	0.193759	0.425703
N26	N	1.744780	0.193758	-0.425651
H27	H	1.973698	-0.219872	0.111859
O28	O	1.978701	-0.447727	-0.132213
C29	C	1.883005	-0.517443	-0.225685
H30	H	1.763185	-0.480713	-0.199159
H31	H	1.907179	-0.505391	-0.361950
H32	H	1.901269	-0.622597	-0.191533
O33	O	1.734439	-0.187029	-0.294585
C34	C	1.633357	-0.107098	-0.388087
H35	H	1.541973	-0.062368	-0.304559
H36	H	1.693791	-0.028767	-0.447671
H37	H	1.582570	-0.165523	-0.487638
H38	H	1.710666	-0.412837	0.272844
H39	H	1.719184	-0.411026	-0.272761
O40	O	1.519658	-0.398935	-0.164904
C41	C	1.454829	-0.347243	-0.310470
H42	H	1.545343	-0.333039	-0.404149
H43	H	1.375988	-0.415296	-0.362685
H44	H	1.390733	-0.251598	-0.282286
O45	O	1.525505	-0.168076	-0.162742
C46	C	1.498998	-0.087040	-0.026054
H47	H	1.608861	-0.057950	0.022760
H48	H	1.425764	0.001620	-0.064660
H49	H	1.440937	-0.139260	0.074264
H50	H	1.974082	-0.220807	-0.112018
H51	H	1.967271	-0.437790	0.112535
O52	O	1.738738	-0.189926	0.294176
C53	C	1.861963	-0.125150	0.249082
H54	H	1.843877	-0.083375	0.120711
H55	H	1.875651	-0.045073	0.340405
H56	H	1.966004	-0.194621	0.249667
O57	O	1.527317	-0.166540	0.168160
C58	C	1.458428	-0.209948	0.310180
H59	H	1.546712	-0.247305	0.402234
H60	H	1.385433	-0.127895	0.367562
H61	H	1.387436	-0.289743	0.275588
O62	O	1.515803	-0.397954	0.155627
C63	C	1.488531	-0.472928	0.017373
H64	H	1.597259	-0.524135	-0.027573
H65	H	1.408934	-0.546142	0.052510
H66	H	1.437347	-0.409136	-0.084613
