data_functionalizedCrystal
_audit_creation_method	'MofGen! by Chris Wilmer'
_symmetry_space_group_name_H-M	'P1'
_symmetry_Int_Tables_number	1
_symmetry_cell_setting	triclinic
loop_
_symmetry_equiv_pos_as_xyz
  x,y,z
_cell_length_a	25.639239
_cell_length_b	18.050591
_cell_length_c	18.050583
_cell_angle_alpha	90.012201
_cell_angle_beta	89.961658
_cell_angle_gamma	89.961418
loop_
_atom_site_label
_atom_site_type_symbol
_atom_site_fract_x
_atom_site_fract_y
_atom_site_fract_z
Zn1	Zn	-0.208115	-1.135247	-0.419826
Zn2	Zn	-0.295563	-1.135132	-0.295632
Zn3	Zn	-0.208144	-1.011063	-0.295659
Zn4	Zn	-0.295521	-1.010991	-0.419789
O5	O	-0.251836	-1.073108	-0.357726
O6	O	-0.219721	-1.239156	-0.403356
O7	O	-0.283997	-1.118657	-0.191711
O8	O	-0.134975	-1.027615	-0.312157
O9	O	-0.283969	-1.239072	-0.312111
O10	O	-0.134953	-1.118852	-0.403382
O11	O	-0.219770	-1.027504	-0.191730
O12	O	-0.219729	-0.907129	-0.312120
O13	O	-0.283896	-1.027491	-0.523718
O14	O	-0.283924	-0.907076	-0.403318
O15	O	-0.219679	-1.118781	-0.523746
O16	O	-0.368723	-1.118586	-0.312074
O17	O	-0.368692	-1.027381	-0.403292
C18	C	-0.251825	-0.880156	-0.357718
C19	C	-0.251834	-0.797610	-0.357732
C20	C	-0.286819	-0.548777	-0.407256
C21	C	-0.299552	-0.598143	-0.339470
C22	C	-0.251854	-0.500490	-0.357728
C23	C	-0.239135	-0.598206	-0.425512
C24	C	-0.251845	-0.646475	-0.357734
C25	C	-0.264612	-0.548768	-0.289906
C26	C	-0.204173	-0.548827	-0.375995
C27	C	-0.216888	-0.598170	-0.308162
C28	C	-0.251860	-0.416392	-0.357726
C29	C	-0.251839	-0.730572	-0.357729
C30	C	-0.387678	-1.072983	-0.357692
C31	C	-0.445792	-1.072998	-0.357703
C32	C	-0.806159	-1.120723	-0.310310
C33	C	-0.860763	-1.120752	-0.310320
O34	O	-0.889003	-1.161200	-0.269988
N35	N	-0.888075	-1.073239	-0.357775
C36	C	-0.860779	-1.025699	-0.405229
O37	O	-0.889023	-0.985289	-0.445595
C38	C	-0.806176	-1.025675	-0.405223
C39	C	-0.778867	-1.073186	-0.357759
C40	C	-0.778850	-1.168231	-0.262851
C41	C	-0.724250	-1.168201	-0.262840
C42	C	-0.696958	-1.120663	-0.310289
C43	C	-0.724267	-1.073156	-0.357748
C44	C	-0.778881	-0.978139	-0.452679
C45	C	-0.724274	-0.978119	-0.452669
C46	C	-0.696965	-1.025630	-0.405205
C47	C	-0.642374	-1.025588	-0.405186
N48	N	-0.615063	-1.073101	-0.357731
C49	C	-0.642355	-1.120639	-0.310282
C50	C	-0.975450	-1.025755	-0.405241
C51	C	-1.030052	-1.025775	-0.405244
C52	C	-1.030033	-1.120829	-0.310336
C53	C	-0.975429	-1.120805	-0.310329
C54	C	-0.948138	-1.073268	-0.357785
C55	C	-0.527690	-1.120572	-0.310263
C56	C	-0.473084	-1.120535	-0.310254
C57	C	-0.473108	-1.025485	-0.405165
C58	C	-0.527709	-1.025518	-0.405171
C59	C	-0.554998	-1.073068	-0.357717
O60	O	-0.614100	-0.985163	-0.445499
O61	O	-0.614104	-1.161049	-0.269930
C62	C	-0.115463	-1.073254	-0.357777
C63	C	-0.057349	-1.073316	-0.357798
C64	C	-0.251780	-1.073141	-0.551432
C65	C	-0.251756	-1.073155	-0.633978
C66	C	-0.251850	-0.266814	-0.357732
C67	C	-0.251864	-0.349360	-0.357729
C68	C	-0.216818	-1.122848	-0.833444
C69	C	-0.204022	-1.055118	-0.882844
C70	C	-0.251747	-1.073185	-0.785108
C71	C	-0.264511	-1.140943	-0.882790
C72	C	-0.251737	-1.073220	-0.931093
C73	C	-0.238926	-1.005419	-0.833421
C74	C	-0.299437	-1.091289	-0.833363
C75	C	-0.286659	-1.023512	-0.882741
C76	C	-0.251751	-1.073166	-0.701010
C77	C	-0.251733	-1.073231	-1.015190
C78	C	-0.251854	-1.073118	-0.164774
C79	C	-0.251730	-1.073248	-0.082229
H80	H	-0.228382	-0.619922	-0.482834
C81	C	-0.238341	-1.245744	-0.955866
C82	C	-0.279093	-1.218277	-0.912065
H83	H	-0.247341	-1.293490	-0.973932
H84	H	-0.232550	-1.213264	-0.996434
H85	H	-0.207497	-1.249119	-0.926931
H86	H	-0.309936	-1.214897	-0.941001
H87	H	-0.284891	-1.250765	-0.871491
C88	C	-0.478558	-1.214500	-0.216442
C89	C	-0.443068	-1.172766	-0.258081
H90	H	-0.460027	-1.246747	-0.184239
H91	H	-0.499894	-1.182172	-0.188013
H92	H	-0.499817	-1.242894	-0.248838
H93	H	-0.421811	-1.144368	-0.225686
H94	H	-0.421723	-1.205098	-0.286513
H95	H	-0.228080	-0.948115	-0.811826
H96	H	-0.953232	-0.987039	-0.443883
C97	C	-0.113023	-0.545574	-0.345743
C98	C	-0.149761	-0.519552	-0.396881
H99	H	-0.079432	-0.527502	-0.358647
H100	H	-0.122011	-0.528673	-0.297558
H101	H	-0.112707	-0.598196	-0.346352
H102	H	-0.150080	-0.466930	-0.396268
H103	H	-0.140771	-0.536449	-0.445078
C104	C	-0.150284	-1.034068	-0.989764
C105	C	-0.149574	-1.034473	-0.912200
H106	H	-0.116670	-1.021327	-1.007887
H107	H	-0.159602	-1.081845	-1.007380
H108	H	-0.175058	-0.998748	-1.006629
H109	H	-0.124803	-1.069798	-0.895335
H110	H	-0.140250	-0.986690	-0.894578
C111	C	-0.313032	-0.895918	-0.886730
C112	C	-0.326528	-0.966774	-0.911788
H113	H	-0.337643	-0.860891	-0.904669
H114	H	-0.313051	-0.895319	-0.834114
H115	H	-0.279253	-0.883488	-0.904427
H116	H	-0.360306	-0.979207	-0.894087
H117	H	-0.326515	-0.967375	-0.964416
C118	C	-0.589004	-1.220538	-0.300041
C119	C	-0.557675	-1.172850	-0.258106
H120	H	-0.607511	-1.252816	-0.267840
H121	H	-0.613091	-1.192254	-0.328289
H122	H	-0.567655	-1.248896	-0.332425
H123	H	-0.579024	-1.144488	-0.225726
H124	H	-0.533585	-1.201138	-0.229846
H125	H	-0.702019	-1.206890	-0.224194
C126	C	-0.301089	-0.476841	-0.517275
C127	C	-0.326766	-0.519495	-0.463725
H128	H	-0.325752	-0.458767	-0.552136
H129	H	-0.284160	-0.436278	-0.493959
H130	H	-0.275946	-0.506557	-0.542055
H131	H	-0.351907	-0.489777	-0.438941
H132	H	-0.343703	-0.560064	-0.487043
C133	C	-0.390539	-0.602463	-0.370537
C134	C	-0.353979	-0.627392	-0.318606
H135	H	-0.424140	-0.620522	-0.357661
H136	H	-0.391013	-0.549848	-0.370824
H137	H	-0.381264	-0.620125	-0.418345
H138	H	-0.363252	-0.609726	-0.270799
H139	H	-0.353507	-0.680018	-0.318311
C140	C	-0.279097	-0.442013	-0.213211
C141	C	-0.279200	-0.519583	-0.212503
H142	H	-0.288108	-0.423997	-0.165428
H143	H	-0.245338	-0.424722	-0.226255
H144	H	-0.303781	-0.424716	-0.248423
H145	H	-0.254513	-0.536881	-0.177294
H146	H	-0.312964	-0.536881	-0.199449
H147	H	-0.339760	-1.106611	-0.811614
C148	C	-0.176985	-0.704840	-0.252451
C149	C	-0.176965	-0.627272	-0.251565
H150	H	-0.152337	-0.722806	-0.217513
H151	H	-0.210747	-0.722468	-0.239883
H152	H	-0.167875	-0.721851	-0.300558
H153	H	-0.186079	-0.610261	-0.203460
H154	H	-0.143196	-0.609637	-0.264129
C155	C	-0.773332	-1.262171	-0.169032
C156	C	-0.808844	-1.220486	-0.210685
H157	H	-0.791847	-1.294426	-0.136819
H158	H	-0.752002	-1.290547	-0.201414
H159	H	-0.752070	-1.229808	-0.140607
H160	H	-0.830103	-1.252849	-0.239115
H161	H	-0.830183	-1.192108	-0.178299
H162	H	-1.052282	-0.987080	-0.443887
H163	H	-0.450879	-0.986778	-0.443795
H164	H	-0.953198	-1.159493	-0.271681
H165	H	-0.702056	-0.939410	-0.491316
H166	H	-1.052264	-1.159540	-0.271703
C167	C	-0.795630	-0.941911	-0.578412
C168	C	-0.808888	-0.925918	-0.504860
H169	H	-0.814157	-0.909673	-0.610629
H170	H	-0.759207	-0.935097	-0.585182
H171	H	-0.804543	-0.991809	-0.589310
H172	H	-0.799972	-0.876022	-0.493961
H173	H	-0.845319	-0.932726	-0.498087
C174	C	-0.522241	-0.931563	-0.498987
C175	C	-0.557730	-0.973294	-0.457343
H176	H	-0.540773	-0.899330	-0.531203
H177	H	-0.500989	-0.903161	-0.466601
H178	H	-0.500898	-0.963899	-0.527409
H179	H	-0.579070	-0.940958	-0.428916
H180	H	-0.578991	-1.001698	-0.489733
H181	H	-0.187261	-1.164778	-0.811795
