data_functionalizedCrystal
_audit_creation_method	'MofGen! by Chris Wilmer'
_symmetry_space_group_name_H-M	'P1'
_symmetry_Int_Tables_number	1
_symmetry_cell_setting	triclinic
loop_
_symmetry_equiv_pos_as_xyz
  x,y,z
_cell_length_a	26.809956
_cell_length_b	11.792241
_cell_length_c	11.792241
_cell_angle_alpha	95.806584
_cell_angle_beta	89.995768
_cell_angle_gamma	89.995319
loop_
_atom_site_label
_atom_site_type_symbol
_atom_site_fract_x
_atom_site_fract_y
_atom_site_fract_z
O1	O	0.041431	-1.506918	0.155552
O2	O	0.541431	-1.006918	0.655552
O3	O	0.041443	-1.176577	0.171585
O4	O	0.541443	-0.676577	0.671585
O5	O	0.041433	-1.349763	-0.001602
O6	O	0.541433	-0.849763	0.498398
O7	O	0.041441	-1.333731	0.328739
O8	O	0.541441	-0.833731	0.828739
O9	O	-0.041526	-1.349731	-0.001576
O10	O	0.458474	-0.849731	0.498424
O11	O	-0.041516	-1.176544	0.171611
O12	O	0.458484	-0.676544	0.671611
O13	O	-0.041528	-1.506885	0.155578
O14	O	0.458472	-1.006885	0.655578
Zn15	Zn	-0.054694	-1.341709	0.163599
Zn16	Zn	0.445306	-0.841709	0.663599
Zn17	Zn	0.054609	-1.341752	0.163564
Zn18	Zn	0.554609	-0.841752	0.663564
O19	O	-0.041518	-1.333698	0.328765
O20	O	0.458482	-0.833698	0.828765
C21	C	-0.000035	-1.134269	0.170591
C22	C	0.499965	-0.634269	0.670591
C23	C	-0.000031	-1.008255	0.167576
C24	C	0.499969	-0.508255	0.667576
N25	N	-0.129290	-1.341688	0.163622
N26	N	0.370710	-0.841688	0.663622
C27	C	-0.000046	-1.348740	-0.043880
C28	C	0.499954	-0.848740	0.456120
C29	C	-0.000045	-1.345726	-0.169894
C30	C	0.499955	-0.845726	0.330106
C31	C	-0.473920	-1.418430	0.086896
C32	C	0.026080	-0.918430	0.586896
C33	C	-0.682798	-1.418456	0.086879
C34	C	-0.182798	-0.918456	0.586879
O35	O	-0.709805	-1.483659	0.021650
O36	O	-0.209805	-0.983659	0.521650
N37	N	-0.708917	-1.341758	0.163539
N38	N	-0.208917	-0.841758	0.663539
C39	C	-0.682813	-1.265043	0.240204
C40	C	-0.182813	-0.765043	0.740204
O41	O	-0.709822	-1.199799	0.305400
O42	O	-0.209822	-0.699799	0.805400
C43	C	-0.473936	-1.265011	0.240215
C44	C	0.026064	-0.765011	0.740215
C45	C	-0.447820	-1.341722	0.163557
C46	C	0.052180	-0.841722	0.663557
C47	C	-0.447803	-1.495134	0.010244
C48	C	0.052197	-0.995134	0.510244
C49	C	-0.395587	-1.495130	0.010253
C50	C	0.104413	-0.995130	0.510253
C51	C	-0.369487	-1.418423	0.086914
C52	C	0.130513	-0.918423	0.586914
C53	C	-0.395604	-1.341719	0.163567
C54	C	0.104396	-0.841719	0.663567
C55	C	-0.447834	-1.188292	0.316874
C56	C	0.052166	-0.688292	0.816874
C57	C	-0.395611	-1.188289	0.316868
C58	C	0.104389	-0.688289	0.816868
C59	C	-0.369495	-1.265000	0.240210
C60	C	0.130505	-0.765000	0.740210
C61	C	-0.317288	-1.265009	0.240237
C62	C	0.182712	-0.765009	0.740237
N63	N	-0.291169	-1.341707	0.163577
N64	N	0.208831	-0.841707	0.663577
C65	C	-0.317268	-1.418414	0.086916
C66	C	0.182732	-0.918414	0.586916
C67	C	-0.792476	-1.265066	0.240195
C68	C	-0.292476	-0.765066	0.740195
C69	C	-0.844695	-1.265075	0.240194
C70	C	-0.344695	-0.765075	0.740194
C71	C	-0.844676	-1.418488	0.086866
C72	C	-0.344676	-0.918488	0.586866
C73	C	-0.792456	-1.418483	0.086874
C74	C	-0.292456	-0.918483	0.586874
C75	C	-0.766357	-1.341764	0.163534
C76	C	-0.266357	-0.841764	0.663534
C77	C	-0.207610	-1.418402	0.086941
C78	C	0.292390	-0.918402	0.586941
C79	C	-0.155389	-1.418395	0.086961
C80	C	0.344611	-0.918395	0.586961
C81	C	-0.155413	-1.264979	0.240283
C82	C	0.344587	-0.764979	0.740283
C83	C	-0.207630	-1.264990	0.240268
C84	C	0.292370	-0.764990	0.740268
C85	C	-0.233727	-1.341705	0.163588
C86	C	0.266273	-0.841705	0.663588
O87	O	-0.290248	-1.199832	0.305423
O88	O	0.209752	-0.699832	0.805423
O89	O	-0.290251	-1.483631	0.021712
O90	O	0.209749	-0.983631	0.521712
C91	C	-0.526136	-1.418433	0.086887
C92	C	-0.026136	-0.918433	0.586887
C93	C	-0.552253	-1.341729	0.163539
C94	C	-0.052253	-0.841729	0.663539
C95	C	-0.526153	-1.265022	0.240200
C96	C	-0.026153	-0.765022	0.740200
C97	C	-0.604472	-1.341738	0.163538
C98	C	-0.104472	-0.841738	0.663538
C99	C	-0.630571	-1.418445	0.086876
C100	C	-0.130571	-0.918445	0.586876
C101	C	-0.604452	-1.495143	0.010216
C102	C	-0.104452	-0.995143	0.510216
C103	C	-0.552236	-1.495140	0.010225
C104	C	-0.052236	-0.995140	0.510225
C105	C	-0.552272	-1.188324	0.316861
C106	C	-0.052272	-0.688324	0.816861
C107	C	-0.604488	-1.188334	0.316846
C108	C	-0.104488	-0.688334	0.816846
C109	C	-0.630588	-1.265041	0.240185
C110	C	-0.130588	-0.765041	0.740185
N111	N	0.129205	-1.341782	0.163532
N112	N	0.629205	-0.841782	0.663532
C113	C	-0.000049	-1.549192	0.156572
C114	C	0.499951	-1.049192	0.656572
C115	C	-0.000050	-1.675206	0.159587
C116	C	0.499950	-1.175206	0.659587
C117	C	-0.000045	-0.777543	0.162034
C118	C	0.499955	-0.277543	0.662034
C119	C	-0.000037	-0.905928	0.165113
C120	C	0.499963	-0.405928	0.665113
C121	C	-0.000037	-1.340183	-0.400606
C122	C	0.499963	-0.840183	0.099394
C123	C	-0.000042	-1.343262	-0.272221
C124	C	0.499958	-0.843262	0.227779
C125	C	-0.000038	-1.334721	0.371043
C126	C	0.499962	-0.834721	0.871043
C127	C	-0.000035	-1.337736	0.497057
C128	C	0.499965	-0.837736	0.997057
H129	H	-0.134127	-1.480866	0.024537
H130	H	0.365873	-0.980866	0.524537
H131	H	-0.134155	-1.202528	0.302703
H132	H	0.365845	-0.702528	0.802703
Cl133	Cl	-0.480606	-1.591579	-0.086143
Cl134	Cl	0.019394	-1.091579	0.413857
H135	H	-0.625711	-1.557606	-0.052201
H136	H	-0.125711	-1.057606	0.447799
Cl137	Cl	-0.759672	-1.168615	0.336581
Cl138	Cl	-0.259672	-0.668615	0.836581
H139	H	-0.531025	-1.125858	0.379287
H140	H	-0.031025	-0.625858	0.879287
Cl141	Cl	-0.877498	-1.514917	-0.009508
Cl142	Cl	-0.377498	-1.014917	0.490492
H143	H	-0.530976	-1.557605	-0.052197
H144	H	-0.030976	-1.057605	0.447803
H145	H	-0.228853	-1.480870	0.024500
H146	H	0.271147	-0.980870	0.524500
Cl147	Cl	-0.362761	-1.591563	-0.086128
Cl148	Cl	0.137239	-1.091563	0.413872
Cl149	Cl	-0.637315	-1.091892	0.413230
Cl150	Cl	-0.137315	-0.591892	0.913230
Cl151	Cl	-0.480655	-1.091848	0.413245
Cl152	Cl	0.019345	-0.591848	0.913245
H153	H	-0.771195	-1.480947	0.024452
H154	H	-0.271195	-0.980947	0.524452
H155	H	-0.865956	-1.202622	0.302627
H156	H	-0.365956	-0.702622	0.802627
H157	H	-0.374364	-1.125811	0.379293
H158	H	0.125636	-0.625811	0.879293
H159	H	-0.228894	-1.202536	0.302701
H160	H	0.271106	-0.702536	0.802701
