data_functionalizedCrystal
_audit_creation_method	'MofGen! by Chris Wilmer'
_symmetry_space_group_name_H-M	'P1'
_symmetry_Int_Tables_number	1
_symmetry_cell_setting	triclinic
loop_
_symmetry_equiv_pos_as_xyz
  x,y,z
_cell_length_a	12.759395
_cell_length_b	18.101395
_cell_length_c	12.759387
_cell_angle_alpha	89.967189
_cell_angle_beta	89.979491
_cell_angle_gamma	90.032641
loop_
_atom_site_label
_atom_site_type_symbol
_atom_site_fract_x
_atom_site_fract_y
_atom_site_fract_z
Zn1	Zn	1.606149	-0.294760	-0.593990
Zn2	Zn	2.106149	0.205240	-0.093990
Zn3	Zn	1.605989	-0.418620	-0.418305
Zn4	Zn	2.105989	0.081380	0.081695
Zn5	Zn	1.430447	-0.294801	-0.418327
Zn6	Zn	1.930447	0.205199	0.081673
Zn7	Zn	1.430389	-0.418568	-0.593944
Zn8	Zn	1.930389	0.081432	-0.093944
O9	O	1.518244	-0.356687	-0.506141
O10	O	2.018244	0.143313	-0.006141
O11	O	1.753149	-0.311196	-0.570695
O12	O	2.253149	0.188804	-0.070695
O13	O	1.582661	-0.402234	-0.271286
O14	O	2.082661	0.097766	0.228714
O15	O	1.453845	-0.191162	-0.441658
O16	O	1.953845	0.308838	0.058342
O17	O	1.753032	-0.402195	-0.441620
O18	O	2.253032	0.097805	0.058380
O19	O	1.582933	-0.191133	-0.570717
O20	O	2.082933	0.308867	-0.070717
O21	O	1.453691	-0.311264	-0.271303
O22	O	1.953691	0.188736	0.228697
O23	O	1.283418	-0.311213	-0.441613
O24	O	1.783418	0.188787	0.058387
O25	O	1.453747	-0.402105	-0.740971
O26	O	1.953747	0.097895	-0.240971
O27	O	1.283376	-0.402145	-0.570638
O28	O	1.783376	0.097855	-0.070638
O29	O	1.582877	-0.311145	-0.741005
O30	O	2.082877	0.188855	-0.241005
O31	O	1.582604	-0.522246	-0.441575
O32	O	2.082604	-0.022246	0.058425
O33	O	1.453592	-0.522208	-0.570616
O34	O	1.953592	-0.022208	-0.070616
C35	C	1.245276	-0.356678	-0.506123
C36	C	1.745276	0.143322	-0.006123
C37	C	1.128499	-0.356692	-0.506141
C38	C	1.628499	0.143308	-0.006141
C39	C	1.128494	-0.451532	-0.640277
C40	C	1.628494	0.048468	-0.140277
C41	C	1.073630	-0.498958	-0.707348
C42	C	1.573630	0.001042	-0.207348
C43	C	0.963908	-0.498967	-0.707361
C44	C	1.463908	0.001033	-0.207361
C45	C	0.909048	-0.451543	-0.640297
C46	C	1.409048	0.048457	-0.140297
C47	C	0.963912	-0.404118	-0.573226
C48	C	1.463912	0.095882	-0.073226
C49	C	1.073636	-0.404115	-0.573219
C50	C	1.573636	0.095885	-0.073219
C51	C	0.963917	-0.309275	-0.439097
C52	C	1.463917	0.190725	0.060903
C53	C	1.073639	-0.309269	-0.439077
C54	C	1.573639	0.190731	0.060923
C55	C	0.909057	-0.261852	-0.372034
C56	C	1.409057	0.238148	0.127966
C57	C	0.963921	-0.214429	-0.304956
C58	C	1.463921	0.285571	0.195044
C59	C	1.073649	-0.214422	-0.304945
C60	C	1.573649	0.285578	0.195055
C61	C	1.128503	-0.261843	-0.372006
C62	C	1.628503	0.238157	0.127994
C63	C	1.518103	-0.549098	-0.506111
C64	C	2.018103	-0.049098	-0.006111
C65	C	1.518139	-0.631412	-0.506133
C66	C	2.018139	-0.131412	-0.006133
C67	C	1.518370	-0.930503	-0.506189
C68	C	2.018370	-0.430503	-0.006189
C69	C	1.437387	-0.899184	-0.587580
C70	C	1.937387	-0.399184	-0.087580
C71	C	1.437002	-0.813566	-0.587325
C72	C	1.937002	-0.313566	-0.087325
C73	C	1.518255	-0.782120	-0.506162
C74	C	2.018255	-0.282120	-0.006162
C75	C	1.488272	-0.813280	-0.395437
C76	C	1.988272	-0.313280	0.104563
C77	C	1.487750	-0.898925	-0.395924
C78	C	1.987750	-0.398925	0.104076
C79	C	1.629513	-0.898842	-0.534549
C80	C	2.129513	-0.398842	-0.034549
C81	C	1.628859	-0.813191	-0.536977
C82	C	2.128859	-0.313191	-0.036977
C83	C	1.518192	-0.698261	-0.506140
C84	C	2.018192	-0.198261	-0.006140
C85	C	1.518430	-1.014362	-0.506204
C86	C	2.018430	-0.514362	-0.006204
C87	C	1.792277	-0.356697	-0.506160
C88	C	2.292277	0.143303	-0.006160
C89	C	1.909054	-0.356701	-0.506168
C90	C	2.409054	0.143299	-0.006168
C91	C	1.518323	-0.356615	-0.780175
C92	C	2.018323	0.143385	-0.280175
C93	C	1.518357	-0.356584	-0.896952
C94	C	2.018357	0.143416	-0.396952
C95	C	1.518413	-0.163525	-0.506196
C96	C	2.018413	0.336475	-0.006196
C97	C	1.518486	-0.081211	-0.506219
C98	C	2.018486	0.418789	-0.006219
C99	C	1.652829	-0.261872	-0.897007
C100	C	2.152829	0.238128	-0.397007
C101	C	1.720080	-0.214506	-0.951896
C102	C	2.220080	0.285494	-0.451896
C103	C	1.720105	-0.214479	-1.061618
C104	C	2.220105	0.285521	-0.561618
C105	C	1.652871	-0.261822	-1.116453
C106	C	2.152871	0.238178	-0.616453
C107	C	1.585620	-0.309189	-1.061565
C108	C	2.085620	0.190811	-0.561565
C109	C	1.585604	-0.309212	-0.951840
C110	C	2.085604	0.190788	-0.451840
C111	C	1.451144	-0.403895	-1.061509
C112	C	1.951144	0.096105	-0.561509
C113	C	1.451122	-0.403927	-0.951788
C114	C	1.951122	0.096073	-0.451788
C115	C	1.383910	-0.451238	-1.116345
C116	C	1.883910	0.048762	-0.616345
C117	C	1.316662	-0.498610	-1.061456
C118	C	1.816662	0.001390	-0.561456
C119	C	1.316641	-0.498636	-0.951728
C120	C	1.816641	0.001364	-0.451728
C121	C	1.383872	-0.451294	-0.896899
C122	C	1.883872	0.048706	-0.396899
C123	C	1.518225	-0.356706	-0.233174
C124	C	2.018225	0.143294	0.266826
C125	C	1.518395	-0.356528	-0.116398
C126	C	2.018395	0.143472	0.383602
H127	H	1.217844	-0.261844	-0.372001
H128	H	1.717844	0.238156	0.127999
H129	H	0.819716	-0.261859	-0.372054
H130	H	1.319716	0.238141	0.127946
H131	H	0.919238	-0.537581	-0.761981
H132	H	1.419238	-0.037581	-0.261981
H133	H	1.407887	-0.791898	-0.370982
H134	H	1.907887	-0.291898	0.129018
H135	H	1.652889	-0.261789	-1.205794
H136	H	2.152889	0.238211	-0.705794
Cl137	Cl	1.142611	-0.154794	-0.220627
Cl138	Cl	1.642611	0.345206	0.279373
H139	H	1.544176	-0.919645	-0.333213
H140	H	2.044176	-0.419645	0.166787
H141	H	0.919245	-0.175817	-0.250364
H142	H	1.419245	0.324183	0.249636
Cl143	Cl	1.804633	-0.154920	-1.130623
Cl144	Cl	2.304633	0.345080	-0.630623
H145	H	1.383931	-0.451210	-1.205686
H146	H	1.883931	0.048790	-0.705686
H147	H	1.545401	-0.792913	-0.333141
H148	H	2.045401	-0.292913	0.166859
H149	H	1.118309	-0.537568	-0.761951
H150	H	1.618309	-0.037568	-0.261951
Cl151	Cl	0.771111	-0.451546	-0.640331
Cl152	Cl	1.271111	0.048454	-0.140331
Cl153	Cl	1.309809	-0.782033	-0.558327
Cl154	Cl	1.809809	-0.282033	-0.058327
H155	H	1.383865	-0.451313	-0.807558
H156	H	1.883865	0.048687	-0.307558
H157	H	1.455761	-0.792496	-0.669427
H158	H	1.955761	-0.292496	-0.169427
H159	H	1.689848	-0.919095	-0.475269
H160	H	2.189848	-0.419095	0.024731
Cl161	Cl	1.266430	-0.451535	-0.640251
Cl162	Cl	1.766430	0.048465	-0.140251
H163	H	1.261920	-0.537149	-1.106112
H164	H	1.761920	-0.037149	-0.606112
Cl165	Cl	1.232086	-0.558182	-0.882735
Cl166	Cl	1.732086	-0.058182	-0.382735
H167	H	1.656847	-0.920385	-0.613914
H168	H	2.156847	-0.420385	-0.113914
H169	H	1.455960	-0.919726	-0.669948
H170	H	1.955960	-0.419726	-0.169948
H171	H	1.406505	-0.918971	-0.371899
H172	H	1.906505	-0.418971	0.128101
Cl173	Cl	1.310971	-0.932532	-0.558966
Cl174	Cl	1.810971	-0.432532	-0.058966
Cl175	Cl	1.726950	-0.780132	-0.452130
Cl176	Cl	2.226950	-0.280132	0.047870
Cl177	Cl	1.663773	-0.781744	-0.662789
Cl178	Cl	2.163773	-0.281744	-0.162789
H179	H	1.652825	-0.261897	-0.807666
H180	H	2.152825	0.238103	-0.307666
Cl181	Cl	1.804573	-0.154974	-0.882955
Cl182	Cl	2.304573	0.345026	-0.382955
