data_functionalizedCrystal
_audit_creation_method	'MofGen! by Chris Wilmer'
_symmetry_space_group_name_H-M	'P1'
_symmetry_Int_Tables_number	1
_symmetry_cell_setting	triclinic
loop_
_symmetry_equiv_pos_as_xyz
  x,y,z
_cell_length_a	8.497371
_cell_length_b	12.759400
_cell_length_c	12.759393
_cell_angle_alpha	89.968436
_cell_angle_beta	90.003047
_cell_angle_gamma	89.993228
loop_
_atom_site_label
_atom_site_type_symbol
_atom_site_fract_x
_atom_site_fract_y
_atom_site_fract_z
Zn1	Zn	-2.411906	0.418806	0.593377
Zn2	Zn	-2.411747	0.594525	0.417697
Zn3	Zn	-2.148083	0.418795	0.417783
Zn4	Zn	-2.148066	0.594378	0.593405
O5	O	-2.279950	0.506626	0.505565
O6	O	-2.632647	0.442182	0.570025
O7	O	-2.376712	0.571271	0.270687
O8	O	-2.183153	0.271775	0.441100
O9	O	-2.632530	0.571282	0.440954
O10	O	-2.376982	0.271784	0.570108
O11	O	-2.182999	0.442163	0.270750
O12	O	-1.927318	0.442020	0.441127
O13	O	-2.183124	0.571031	0.740422
O14	O	-1.927306	0.571020	0.570155
O15	O	-2.376966	0.442039	0.740402
O16	O	-2.376696	0.741527	0.440981
O17	O	-2.182970	0.741418	0.570073
C18	C	-2.279857	0.779593	0.505544
C19	C	-2.279961	0.896370	0.505569
C20	C	-2.280061	0.506520	0.779599
C21	C	-2.280108	0.506475	0.896376
C22	C	-2.280087	0.232593	0.505610
C23	C	-2.280146	0.115816	0.505630
C24	C	-1.870070	0.506557	0.505611
C25	C	-1.691426	0.506682	0.505521
C26	C	-2.279931	0.506656	0.232598
C27	C	-2.280190	0.506405	0.115822
C28	C	-2.380946	0.951253	0.438426
C29	C	-2.381043	1.060977	0.438458
C30	C	-2.179156	1.060925	0.572781
C31	C	-2.179069	0.951203	0.572753
C32	C	-2.497498	0.951285	0.360872
C33	C	-2.497595	1.061009	0.360904
C34	C	-2.381055	0.439302	0.951229
C35	C	-2.381093	0.439264	1.060953
C36	C	-2.179231	0.573580	1.060961
C37	C	-2.179187	0.573612	0.951239
C38	C	-2.497604	0.361759	0.951225
C39	C	-2.497641	0.361721	1.060949
H40	H	-2.096853	0.906518	0.627436
C41	C	-2.068170	1.121251	0.646672
N42	N	-1.984569	1.166688	0.702325
H43	H	-2.619825	0.383544	1.090697
C44	C	-2.662503	0.910984	0.390353
N45	N	-2.786782	0.880631	0.412559
H46	H	-2.453765	0.917326	0.283557
C47	C	-2.068113	0.647491	0.890904
N48	N	-1.984444	0.703137	0.845460
H49	H	-2.613632	0.390957	0.917160
H50	H	-2.464916	0.280387	0.921477
H51	H	-2.613673	1.094982	0.390087
C52	C	-2.453491	1.101345	0.250979
N53	N	-2.420267	1.131726	0.168186
H54	H	-2.097061	0.628239	1.105644
H55	H	-2.453925	0.284401	1.095008
