data_functionalizedCrystal
_audit_creation_method	'MofGen! by Chris Wilmer'
_symmetry_space_group_name_H-M	'P1'
_symmetry_Int_Tables_number	1
_symmetry_cell_setting	triclinic
loop_
_symmetry_equiv_pos_as_xyz
  x,y,z
_cell_length_a	12.837943
_cell_length_b	11.792241
_cell_length_c	11.295663
_cell_angle_alpha	94.129270
_cell_angle_beta	85.468589
_cell_angle_gamma	89.511178
loop_
_atom_site_label
_atom_site_type_symbol
_atom_site_fract_x
_atom_site_fract_y
_atom_site_fract_z
O1	O	1.370171	0.302118	0.099009
O2	O	1.870171	0.802118	0.599009
O3	O	1.068283	0.287534	0.099014
O4	O	1.568283	0.787534	0.599014
O5	O	1.226554	0.130398	0.099003
O6	O	1.726554	0.630398	0.599003
O7	O	1.211901	0.459254	0.099020
O8	O	1.711901	0.959254	0.599020
O9	O	1.240426	0.116618	-0.099043
O10	O	1.740426	0.616618	0.400957
O11	O	1.082155	0.273754	-0.099032
O12	O	1.582155	0.773754	0.400968
O13	O	1.384043	0.288338	-0.099037
O14	O	1.884043	0.788338	0.400963
Cu15	Cu	1.234366	0.279788	-0.117118
Cu16	Cu	1.734366	0.779788	0.382882
Cu17	Cu	1.217961	0.296084	0.117095
Cu18	Cu	1.717961	0.796084	0.617095
O19	O	1.225773	0.445474	-0.099026
O20	O	1.725773	0.945474	0.400974
C21	C	1.036571	0.275717	-0.000008
C22	C	1.536571	0.775717	0.499992
C23	C	0.921411	0.261024	-0.000006
C24	C	1.421411	0.761024	0.499994
C25	C	1.232569	0.081123	-0.000020
C26	C	1.732569	0.581123	0.499980
C27	C	1.229815	-0.045170	-0.000018
C28	C	1.729815	0.454830	0.499982
C29	C	1.224748	-0.276394	0.000002
C30	C	1.724748	0.223606	0.500002
C31	C	1.227563	-0.147724	-0.000009
C32	C	1.727563	0.352276	0.499991
C33	C	1.415755	0.300155	-0.000012
C34	C	1.915755	0.800155	0.499988
C35	C	1.530915	0.314849	-0.000007
C36	C	2.030915	0.814849	0.499993
C37	C	1.770882	0.138201	-0.000028
C38	C	2.270882	0.638201	0.499972
C39	C	1.879085	0.152003	-0.000023
C40	C	2.379085	0.652003	0.499977
C41	C	1.855526	0.356251	0.000001
C42	C	2.355526	0.856251	0.500001
C43	C	1.747323	0.342449	-0.000004
C44	C	2.247323	0.842449	0.499996
C45	C	1.705005	0.233422	-0.000017
C46	C	2.205005	0.733422	0.499983
C47	C	1.596799	0.219622	-0.000014
C48	C	2.096799	0.719622	0.499986
C49	C	1.573244	0.423868	0.000001
C50	C	2.073244	0.923868	0.500001
C51	C	1.681447	0.437670	0.000007
C52	C	2.181447	0.937670	0.500007
C53	C	1.219757	0.494748	-0.000001
C54	C	1.719757	0.994748	0.499999
C55	C	1.222511	0.621042	0.000006
C56	C	1.722511	1.121042	0.500006
N57	N	1.245912	0.268326	-0.281850
N58	N	1.745912	0.768326	0.218150
C59	C	1.329132	0.185774	-0.468842
C60	C	1.829132	0.685774	0.031158
C61	C	1.320384	0.194442	-0.344181
C62	C	1.820384	0.694442	0.155819
C63	C	1.180185	0.333548	-0.344189
C64	C	1.680185	0.833548	0.155811
C65	C	1.188933	0.324880	-0.468849
C66	C	1.688933	0.824880	0.031151
C67	C	1.263408	0.250989	-0.531172
C68	C	1.763408	0.750989	-0.031172
C69	C	1.272150	0.242315	-0.655835
C70	C	1.772150	0.742315	-0.155835
C71	C	1.131956	0.381427	-0.655840
C72	C	1.631956	0.881427	-0.155840
C73	C	1.123209	0.390095	-0.531179
C74	C	1.623209	0.890095	-0.031179
N75	N	1.206423	0.307538	0.281827
N76	N	1.706423	0.807538	0.781827
H77	H	1.562346	0.130846	-0.000020
H78	H	2.062346	0.630846	0.499980
H79	H	1.389765	0.125601	-0.519586
H80	H	1.889765	0.625601	-0.019586
N81	N	1.946362	0.054725	-0.000044
N82	N	2.446362	0.554725	0.499956
N83	N	1.908560	-0.042610	-0.000063
N84	N	2.408560	0.457390	0.499937
H85	H	1.956075	-0.111318	-0.000081
H86	H	2.456075	0.388682	0.499919
N87	N	1.898771	0.467607	-0.000017
N88	N	2.398771	0.967607	0.499983
N89	N	1.962368	0.492275	-0.083504
N90	N	2.462368	0.992275	0.416496
H91	H	1.992912	0.570921	-0.083521
H92	H	2.492912	1.070921	0.416479
H93	H	1.332788	0.182147	-0.706576
H94	H	1.832788	0.682147	-0.206576
H95	H	1.736425	0.049427	-0.000027
H96	H	2.236425	0.549427	0.499973
N97	N	1.104112	0.409027	-0.280535
N98	N	1.604112	0.909027	0.219465
N99	N	1.045434	0.467254	-0.336197
N100	N	1.545434	0.967254	0.163803
H101	H	0.991708	0.520565	-0.291242
H102	H	1.491708	1.020565	0.208758
H103	H	1.373904	0.141339	-0.293436
H104	H	1.873904	0.641339	0.206564
N105	N	1.064801	0.448052	-0.719486
N106	N	1.564801	0.948052	-0.219486
N107	N	0.967948	0.437034	-0.705567
N108	N	1.467948	0.937034	-0.205567
H109	H	0.920516	0.484086	-0.750515
H110	H	1.420516	0.984086	-0.250515
H111	H	1.062575	0.450259	-0.480422
H112	H	1.562575	0.950259	0.019578
H113	H	1.715918	0.526437	0.000013
H114	H	2.215918	1.026437	0.500013
H115	H	1.519595	0.501404	0.000011
H116	H	2.019595	1.001404	0.500011
