data_functionalizedCrystal
_audit_creation_method	'MofGen! by Chris Wilmer'
_symmetry_space_group_name_H-M	'P1'
_symmetry_Int_Tables_number	1
_symmetry_cell_setting	triclinic
loop_
_symmetry_equiv_pos_as_xyz
  x,y,z
_cell_length_a	18.215407
_cell_length_b	21.395361
_cell_length_c	18.215399
_cell_angle_alpha	90.032630
_cell_angle_beta	90.016416
_cell_angle_gamma	90.028167
loop_
_atom_site_label
_atom_site_type_symbol
_atom_site_fract_x
_atom_site_fract_y
_atom_site_fract_z
Zn1	Zn	1.125039	-0.249485	0.416036
Zn2	Zn	1.458372	0.083848	0.749370
Zn3	Zn	1.791705	0.417182	1.082703
Zn4	Zn	1.124936	-0.354265	0.292961
Zn5	Zn	1.458269	-0.020932	0.626294
Zn6	Zn	1.791602	0.312402	0.959628
Zn7	Zn	1.001972	-0.249501	0.292990
Zn8	Zn	1.335306	0.083833	0.626323
Zn9	Zn	1.668639	0.417166	0.959657
Zn10	Zn	1.001925	-0.354224	0.415992
Zn11	Zn	1.335258	-0.020891	0.749326
Zn12	Zn	1.668591	0.312443	1.082659
O13	O	1.063468	-0.301869	0.354495
O14	O	1.396801	0.031465	0.687828
O15	O	1.730134	0.364798	1.021162
O16	O	1.228009	-0.263395	0.399717
O17	O	1.561343	0.069939	0.733050
O18	O	1.894676	0.403272	1.066383
O19	O	1.108601	-0.340392	0.189981
O20	O	1.441934	-0.007058	0.523314
O21	O	1.775268	0.326275	0.856647
O22	O	1.018360	-0.161821	0.309343
O23	O	1.351694	0.171513	0.642676
O24	O	1.685027	0.504846	0.976010
O25	O	1.227933	-0.340376	0.309294
O26	O	1.561267	-0.007043	0.642627
O27	O	1.894600	0.326290	0.975960
O28	O	1.108777	-0.161809	0.399745
O29	O	1.442110	0.171524	0.733078
O30	O	1.775443	0.504858	1.066411
O31	O	1.018260	-0.263422	0.190002
O32	O	1.351594	0.069912	0.523335
O33	O	1.684927	0.403245	0.856669
O34	O	0.898982	-0.263382	0.309300
O35	O	1.232315	0.069951	0.642634
O36	O	1.565648	0.403285	0.975967
O37	O	1.018279	-0.340306	0.518982
O38	O	1.351612	-0.006973	0.852316
O39	O	1.684946	0.326360	1.185649
O40	O	0.898947	-0.340322	0.399669
O41	O	1.232280	-0.006988	0.733003
O42	O	1.565613	0.326345	1.066336
O43	O	1.108730	-0.263355	0.519015
O44	O	1.442064	0.069978	0.852348
O45	O	1.775397	0.403312	1.185682
O46	O	1.108555	-0.441937	0.309251
O47	O	1.441888	-0.108604	0.642584
O48	O	1.775221	0.224729	0.975917
O49	O	1.018179	-0.441907	0.399641
O50	O	1.351512	-0.108574	0.732974
O51	O	1.684846	0.224759	1.066308
C52	C	1.063371	-0.464656	0.354454
C53	C	1.396704	-0.131323	0.687787
C54	C	1.730037	0.202010	1.021121
C55	C	1.063396	-0.534298	0.354461
C56	C	1.396730	-0.200964	0.687794
C57	C	1.730063	0.132369	1.021128
C58	C	0.872261	-0.301849	0.354484
C59	C	1.205595	0.031484	0.687817
C60	C	1.538928	0.364817	1.021150
C61	C	0.790463	-0.301856	0.354496
C62	C	1.123796	0.031477	0.687830
C63	C	1.457129	0.364810	1.021163
C64	C	1.110497	-0.567006	0.307443
C65	C	1.443830	-0.233672	0.640776
C66	C	1.777163	0.099661	0.974110
C67	C	1.110531	-0.632441	0.307459
C68	C	1.443864	-0.299108	0.640793
C69	C	1.777198	0.034226	0.974126
C70	C	1.063452	-0.665166	0.354486
C71	C	1.396785	-0.331832	0.687820
C72	C	1.730118	0.001501	1.021153
C73	C	1.016348	-0.632450	0.401514
C74	C	1.349681	-0.299117	0.734847
C75	C	1.683015	0.034217	1.068180
C76	C	1.016320	-0.567016	0.401501
C77	C	1.349654	-0.233682	0.734834
C78	C	1.682987	0.099651	1.068168
C79	C	0.997188	-0.768878	0.360257
C80	C	1.330521	-0.435544	0.693590
C81	C	1.663855	-0.102211	1.026923
C82	C	0.997214	-0.834310	0.360264
C83	C	1.330548	-0.500977	0.693597
C84	C	1.663881	-0.167644	1.026931
C85	C	1.063537	-0.866987	0.354529
C86	C	1.396871	-0.533653	0.687863
C87	C	1.730204	-0.200320	1.021196
C88	C	1.129836	-0.834222	0.348772
C89	C	1.463169	-0.500888	0.682105
C90	C	1.796503	-0.167555	1.015439
C91	C	1.129808	-0.768787	0.348759
C92	C	1.463142	-0.435454	0.682093
C93	C	1.796475	-0.102121	1.015426
C94	C	1.063477	-0.736118	0.354506
C95	C	1.396810	-0.402785	0.687839
C96	C	1.730143	-0.069452	1.021172
C97	C	1.110679	-0.970647	0.307527
C98	C	1.444012	-0.637314	0.640860
C99	C	1.777345	-0.303980	0.974193
C100	C	1.110714	-1.036084	0.307548
C101	C	1.444048	-0.702750	0.640882
C102	C	1.777381	-0.369417	0.974215
C103	C	1.016525	-1.036091	0.401599
C104	C	1.349858	-0.702758	0.734932
C105	C	1.683192	-0.369425	1.068265
C106	C	1.016496	-0.970656	0.401581
C107	C	1.349829	-0.637323	0.734914
C108	C	1.683163	-0.303989	1.068248
C109	C	1.063572	-0.937938	0.354541
C110	C	1.396905	-0.604604	0.687874
C111	C	1.730239	-0.271271	1.021208
C112	C	0.525406	-0.341997	0.401486
C113	C	0.858739	-0.008664	0.734819
C114	C	1.192073	0.324670	1.068152
C115	C	0.602265	-0.341992	0.401482
C116	C	0.935598	-0.008658	0.734815
C117	C	1.268931	0.324675	1.068149
C118	C	0.602271	-0.261754	0.307517
C119	C	0.935604	0.071579	0.640851
C120	C	1.268937	0.404912	0.974184
C121	C	0.525413	-0.261763	0.307518
C122	C	0.858747	0.071570	0.640851
C123	C	1.192080	0.404903	0.974184
C124	C	0.486983	-0.301884	0.354506
C125	C	0.820316	0.031450	0.687839
C126	C	1.153650	0.364783	1.021173
C127	C	0.640699	-0.301869	0.354502
C128	C	0.974032	0.031464	0.687835
C129	C	1.307366	0.364797	1.021169
C130	C	0.724033	-0.301863	0.354498
C131	C	1.057366	0.031470	0.687831
C132	C	1.390699	0.364803	1.021164
C133	C	0.403644	-0.301891	0.354509
C134	C	0.736977	0.031443	0.687843
C135	C	1.070311	0.364776	1.021176
C136	C	1.255421	-0.301888	0.354507
C137	C	1.588754	0.031445	0.687840
C138	C	1.922087	0.364778	1.021173
C139	C	1.337220	-0.301897	0.354512
C140	C	1.670553	0.031437	0.687845
C141	C	2.003886	0.364770	1.021178
C142	C	1.063511	-0.301824	0.546448
C143	C	1.396844	0.031509	0.879781
C144	C	1.730178	0.364842	1.213115
C145	C	1.063529	-0.301805	0.628247
C146	C	1.396863	0.031528	0.961580
C147	C	1.730196	0.364861	1.294914
C148	C	1.063585	-0.138445	0.354552
C149	C	1.396919	0.194888	0.687885
C150	C	1.730252	0.528221	1.021219
C151	C	1.063635	-0.068804	0.354577
C152	C	1.396969	0.264529	0.687910
C153	C	1.730302	0.597863	1.021243
C154	C	1.063467	-0.301868	0.163289
C155	C	1.396800	0.031466	0.496622
C156	C	1.730134	0.364799	0.829955
C157	C	1.063591	-0.301710	0.081490
C158	C	1.396925	0.031623	0.414824
C159	C	1.730258	0.364957	0.748157
C160	C	1.110655	-0.261683	0.893323
C161	C	1.443988	0.071651	1.226656
C162	C	1.777321	0.404984	1.559989
C163	C	1.110646	-0.261700	0.816464
C164	C	1.443979	0.071634	1.149797
C165	C	1.777313	0.404967	1.483131
C166	C	1.016464	-0.341837	0.816420
C167	C	1.349797	-0.008504	1.149753
C168	C	1.683131	0.324830	1.483086
C169	C	1.016477	-0.341823	0.893277
C170	C	1.349810	-0.008490	1.226610
C171	C	1.683144	0.324844	1.559944
C172	C	1.063571	-0.301742	0.931727
C173	C	1.396904	0.031591	1.265060
C174	C	1.730238	0.364925	1.598393
C175	C	1.063549	-0.301773	0.778010
C176	C	1.396883	0.031560	1.111344
C177	C	1.730216	0.364893	1.444677
C178	C	1.063540	-0.301792	0.694677
C179	C	1.396873	0.031541	1.028010
C180	C	1.730206	0.364875	1.361343
C181	C	1.063582	-0.301724	1.015066
C182	C	1.396915	0.031609	1.348399
C183	C	1.730249	0.364943	1.681732
H184	H	1.148888	-0.659077	0.269172
H185	H	1.482222	-0.325744	0.602505
H186	H	1.815555	0.007590	0.935838
O187	O	0.483958	-0.218500	0.256844
O188	O	0.817291	0.114833	0.590178
O189	O	1.150624	0.448166	0.923511
H190	H	0.498721	-0.169335	0.269569
H191	H	0.832054	0.163999	0.602902
H192	H	1.165387	0.497332	0.936235
O193	O	1.201383	-0.869447	0.342584
O194	O	1.534716	-0.536114	0.675917
O195	O	1.868049	-0.202781	1.009250
H196	H	1.208889	-0.899216	0.391900
H197	H	1.542222	-0.565882	0.725233
H198	H	1.875555	-0.232549	1.058566
O199	O	0.965661	-0.385054	0.774944
O200	O	1.298994	-0.051721	1.108278
O201	O	1.632328	0.281613	1.441611
H202	H	0.932925	-0.412910	0.814564
H203	H	1.266259	-0.079576	1.147897
H204	H	1.599592	0.253757	1.481230
O205	O	0.483928	-0.385271	0.452138
O206	O	0.817262	-0.051938	0.785472
O207	O	1.150595	0.281396	1.118805
H208	H	0.448890	-0.417098	0.419106
H209	H	0.782223	-0.083765	0.752439
H210	H	1.115556	0.249569	1.085772
O211	O	0.643710	-0.385252	0.452158
O212	O	0.977043	-0.051918	0.785491
O213	O	1.310376	0.281415	1.118824
H214	H	0.604072	-0.413145	0.484834
H215	H	0.937405	-0.079812	0.818167
H216	H	1.270738	0.253521	1.151500
H217	H	0.978135	-0.374447	0.924546
H218	H	1.311469	-0.041114	1.257880
H219	H	1.644802	0.292219	1.591213
H220	H	1.183790	-0.742112	0.344073
H221	H	1.517124	-0.408778	0.677407
H222	H	1.850457	-0.075445	1.010740
H223	H	1.149074	-1.062713	0.269262
H224	H	1.482407	-0.729380	0.602595
H225	H	1.815740	-0.396047	0.935929
O226	O	0.965571	-0.667745	0.452235
O227	O	1.298904	-0.334412	0.785569
O228	O	1.632237	-0.001079	1.118902
H229	H	0.932817	-0.634005	0.484934
H230	H	1.266150	-0.300672	0.818267
H231	H	1.599483	0.032662	1.151600
H232	H	0.977965	-0.540384	0.439790
H233	H	1.311298	-0.207051	0.773123
H234	H	1.644632	0.126282	1.106456
H235	H	1.148830	-0.540368	0.269142
H236	H	1.482164	-0.207035	0.602475
H237	H	1.815497	0.126298	0.935809
H238	H	1.149013	-0.944007	0.269226
H239	H	1.482347	-0.610674	0.602559
H240	H	1.815680	-0.277340	0.935893
O241	O	0.965741	-1.071377	0.452320
O242	O	1.299074	-0.738043	0.785653
O243	O	1.632407	-0.404710	1.118987
H244	H	0.973668	-1.122373	0.444427
H245	H	1.307001	-0.789040	0.777760
H246	H	1.640335	-0.455706	1.111093
H247	H	0.633570	-0.229089	0.269262
H248	H	0.966903	0.104244	0.602595
H249	H	1.300237	0.437578	0.935929
H250	H	1.149001	-0.229046	0.924626
H251	H	1.482335	0.104287	1.257959
H252	H	1.815668	0.437621	1.591293
O253	O	0.965676	-0.935371	0.452274
O254	O	1.299009	-0.602038	0.785608
O255	O	1.632343	-0.268705	1.118941
H256	H	0.932935	-0.969118	0.484971
H257	H	1.266268	-0.635785	0.818304
H258	H	1.599602	-0.302451	1.151637
O259	O	0.925712	-0.869649	0.366473
O260	O	1.259045	-0.536316	0.699806
O261	O	1.592378	-0.202982	1.033140
H262	H	0.879590	-0.835936	0.370474
H263	H	1.212923	-0.502603	0.703807
H264	H	1.546256	-0.169269	1.037140
O265	O	1.161428	-0.218493	0.775040
O266	O	1.494761	0.114841	1.108373
O267	O	1.828094	0.448174	1.441706
H268	H	1.194172	-0.190619	0.814691
H269	H	1.527506	0.142714	1.148024
H270	H	1.860839	0.476047	1.481357
H271	H	0.943175	-0.742279	0.364929
H272	H	1.276509	-0.408946	0.698263
H273	H	1.609842	-0.075612	1.031596
