data_functionalizedCrystal
_audit_creation_method	'MofGen! by Chris Wilmer'
_symmetry_space_group_name_H-M	'P1'
_symmetry_Int_Tables_number	1
_symmetry_cell_setting	triclinic
loop_
_symmetry_equiv_pos_as_xyz
  x,y,z
_cell_length_a	14.908520
_cell_length_b	11.169417
_cell_length_c	11.169409
_cell_angle_alpha	90.022423
_cell_angle_beta	93.260433
_cell_angle_gamma	86.680427
loop_
_atom_site_label
_atom_site_type_symbol
_atom_site_fract_x
_atom_site_fract_y
_atom_site_fract_z
Zn1	Zn	-0.359109	-1.807304	-0.706122
Zn2	Zn	-0.025776	-1.473971	-0.372789
Zn3	Zn	0.307558	-1.140637	-0.039455
Zn4	Zn	-0.510001	-1.795565	-0.517002
Zn5	Zn	-0.176667	-1.462232	-0.183669
Zn6	Zn	0.156666	-1.128899	0.149664
Zn7	Zn	-0.359159	-1.606583	-0.505454
Zn8	Zn	-0.025825	-1.273250	-0.172120
Zn9	Zn	0.307508	-0.939917	0.161213
Zn10	Zn	-0.509922	-1.594978	-0.717635
Zn11	Zn	-0.176589	-1.261645	-0.384301
Zn12	Zn	0.156744	-0.928311	-0.050968
O13	O	-0.434548	-1.701108	-0.611553
O14	O	-0.101214	-1.367774	-0.278220
O15	O	0.232119	-1.034441	0.055114
O16	O	-0.379137	-1.973695	-0.681050
O17	O	-0.045804	-1.640362	-0.347717
O18	O	0.287530	-1.307029	-0.014383
O19	O	-0.490045	-1.770441	-0.347525
O20	O	-0.156711	-1.437107	-0.014191
O21	O	0.176622	-1.103774	0.319142
O22	O	-0.232908	-1.642979	-0.522422
O23	O	0.100425	-1.309645	-0.189088
O24	O	0.433758	-0.976312	0.144245
O25	O	-0.489997	-1.965071	-0.542104
O26	O	-0.156663	-1.631738	-0.208771
O27	O	0.176670	-1.298405	0.124562
O28	O	-0.232872	-1.790447	-0.669852
O29	O	0.100461	-1.457114	-0.336518
O30	O	0.433795	-1.123781	-0.003185
O31	O	-0.379222	-1.631596	-0.339040
O32	O	-0.045889	-1.298263	-0.005707
O33	O	0.287445	-0.964930	0.327627
O34	O	-0.379146	-1.437095	-0.533585
O35	O	-0.045813	-1.103762	-0.200252
O36	O	0.287521	-0.770428	0.133082
O37	O	-0.489863	-1.623199	-0.884053
O38	O	-0.156530	-1.289866	-0.550720
O39	O	0.176804	-0.956533	-0.217387
O40	O	-0.489911	-1.428569	-0.689473
O41	O	-0.156578	-1.095235	-0.356140
O42	O	0.176755	-0.761902	-0.022807
O43	O	-0.379061	-1.779194	-0.875595
O44	O	-0.045728	-1.445861	-0.542262
O45	O	0.287606	-1.112527	-0.208928
O46	O	-0.636234	-1.759187	-0.553268
O47	O	-0.302901	-1.425854	-0.219934
O48	O	0.030433	-1.092521	0.113399
O49	O	-0.636176	-1.611817	-0.700672
O50	O	-0.302843	-1.278483	-0.367338
O51	O	0.030490	-0.945150	-0.034005
C52	C	-0.434526	-1.389285	-0.611526
C53	C	-0.101193	-1.055951	-0.278193
C54	C	0.232141	-0.722618	0.055141
C55	C	-0.434539	-1.255884	-0.611544
C56	C	-0.101205	-0.922550	-0.278211
C57	C	0.232128	-0.589217	0.055122
C58	C	-0.668939	-1.683002	-0.629498
C59	C	-0.335605	-1.349668	-0.296165
C60	C	-0.002272	-1.016335	0.037168
C61	C	-0.769212	-1.675366	-0.637215
C62	C	-0.435879	-1.342032	-0.303882
C63	C	-0.102546	-1.008699	0.029451
C64	C	-0.957636	-1.814632	-0.498349
C65	C	-0.624302	-1.481298	-0.165016
C66	C	-0.290969	-1.147965	0.168318
C67	C	-1.051852	-1.807461	-0.505596
C68	C	-0.718518	-1.474128	-0.172263
C69	C	-0.385185	-1.140794	0.161071
C70	C	-1.051862	-1.653860	-0.658962
C71	C	-0.718528	-1.320527	-0.325628
C72	C	-0.385195	-0.987194	0.007705
C73	C	-0.957646	-1.661031	-0.651715
C74	C	-0.624312	-1.327698	-0.318381
C75	C	-0.290979	-0.994364	0.014952
C76	C	-0.910536	-1.741418	-0.571404
C77	C	-0.577203	-1.408085	-0.238071
C78	C	-0.243869	-1.074751	0.095262
C79	C	-0.816318	-1.748582	-0.564152
C80	C	-0.482985	-1.415249	-0.230819
C81	C	-0.149652	-1.081915	0.102515
C82	C	-0.816330	-1.594988	-0.717523
C83	C	-0.482997	-1.261655	-0.384190
C84	C	-0.149664	-0.928322	-0.050856
C85	C	-0.910546	-1.587818	-0.724770
C86	C	-0.577213	-1.254484	-0.391437
C87	C	-0.243879	-0.921151	-0.058103
C88	C	-0.199241	-1.719317	-0.593564
C89	C	0.134092	-1.385984	-0.260231
C90	C	0.467425	-1.052650	0.073102
C91	C	-0.098968	-1.727077	-0.585898
C92	C	0.234366	-1.393743	-0.252565
C93	C	0.567699	-1.060410	0.080768
C94	C	-0.434448	-1.701211	-0.924588
C95	C	-0.101114	-1.367878	-0.591255
C96	C	0.232219	-1.034545	-0.257921
C97	C	-0.434405	-1.701256	-1.057985
C98	C	-0.101072	-1.367922	-0.724652
C99	C	0.232262	-1.034589	-0.391318
C100	C	-0.434562	-1.014149	-0.611571
C101	C	-0.101229	-0.680815	-0.278238
C102	C	0.232104	-0.347482	0.055096
C103	C	-0.434549	-1.147550	-0.611553
C104	C	-0.101216	-0.814216	-0.278220
C105	C	0.232117	-0.480883	0.055114
C106	C	-0.434582	-1.701078	-0.299731
C107	C	-0.101249	-1.367745	0.033602
C108	C	0.232085	-1.034412	0.366936
C109	C	-0.434371	-1.701286	-0.166315
C110	C	-0.101037	-1.367953	0.167018
C111	C	0.232296	-1.034619	0.500351
H112	H	-0.777963	-1.814034	-0.498756
H113	H	-0.444629	-1.480700	-0.165423
H114	H	-0.111296	-1.147367	0.167910
Br115	Br	-0.893697	-1.923701	-0.389338
Br116	Br	-0.560363	-1.590368	-0.056004
Br117	Br	-0.227030	-1.257035	0.277329
H118	H	-1.090235	-1.588421	-0.724354
H119	H	-0.756901	-1.255088	-0.391021
H120	H	-0.423568	-0.921755	-0.057688
Br121	Br	-0.974488	-1.478733	-0.833764
Br122	Br	-0.641155	-1.145400	-0.500431
Br123	Br	-0.307822	-0.812067	-0.167097
Br124	Br	-1.115771	-1.906832	-0.406451
Br125	Br	-0.782437	-1.573499	-0.073118
Br126	Br	-0.449104	-1.240166	0.260215
H127	H	-0.777971	-1.535369	-0.777006
H128	H	-0.444638	-1.202036	-0.443673
H129	H	-0.111304	-0.868702	-0.110340
