data_functionalizedCrystal
_audit_creation_method	'MofGen! by Chris Wilmer'
_symmetry_space_group_name_H-M	'P1'
_symmetry_Int_Tables_number	1
_symmetry_cell_setting	triclinic
loop_
_symmetry_equiv_pos_as_xyz
  x,y,z
_cell_length_a	25.639240
_cell_length_b	12.645331
_cell_length_c	12.645324
_cell_angle_alpha	89.983975
_cell_angle_beta	89.966247
_cell_angle_gamma	90.031294
loop_
_atom_site_label
_atom_site_type_symbol
_atom_site_fract_x
_atom_site_fract_y
_atom_site_fract_z
Zn1	Zn	-0.208122	1.620628	-0.599235
Zn2	Zn	0.291878	2.120628	-0.099235
Zn3	Zn	-0.295571	1.620465	-0.421969
Zn4	Zn	0.204429	2.120465	0.078031
Zn5	Zn	-0.208150	1.443342	-0.422001
Zn6	Zn	0.291850	1.943342	0.077999
Zn7	Zn	-0.295527	1.443280	-0.599206
Zn8	Zn	0.204473	1.943280	-0.099206
O9	O	-0.251843	1.531929	-0.510603
O10	O	0.248157	2.031929	-0.010603
O11	O	-0.219729	1.768954	-0.575720
O12	O	0.280271	2.268954	-0.075720
O13	O	-0.284005	1.596926	-0.273626
O14	O	0.215995	2.096926	0.226374
O15	O	-0.134981	1.466954	-0.445537
O16	O	0.365019	1.966954	0.054463
O17	O	-0.283977	1.768834	-0.445483
O18	O	0.216023	2.268834	0.054517
O19	O	-0.134960	1.597205	-0.575750
O20	O	0.365040	2.097205	-0.075750
O21	O	-0.219777	1.466795	-0.273650
O22	O	0.280223	1.966795	0.226350
O23	O	-0.219734	1.294987	-0.445509
O24	O	0.280266	1.794987	0.054491
O25	O	-0.283902	1.466849	-0.747557
O26	O	0.216098	1.966849	-0.247557
O27	O	-0.283930	1.294941	-0.575701
O28	O	0.216070	1.794941	-0.075701
O29	O	-0.219686	1.597145	-0.747579
O30	O	0.280314	2.097145	-0.247579
O31	O	-0.368730	1.596866	-0.445455
O32	O	0.131270	2.096866	0.054545
O33	O	-0.368698	1.466690	-0.575670
O34	O	0.131302	1.966690	-0.075670
C35	C	-0.251831	1.256499	-0.510606
C36	C	0.248169	1.756499	-0.010606
C37	C	-0.251838	1.138669	-0.510632
C38	C	0.248162	1.638669	-0.010632
C39	C	-0.292445	0.971112	-0.592109
C40	C	0.207555	1.471112	-0.092109
C41	C	-0.292314	1.093672	-0.592449
C42	C	0.207686	1.593672	-0.092449
C43	C	-0.196768	1.094219	-0.541157
C44	C	0.303232	1.594219	-0.041157
C45	C	-0.197016	0.971621	-0.541731
C46	C	0.302984	1.471621	-0.041731
C47	C	-0.265858	0.971416	-0.398372
C48	C	0.234142	1.471416	0.101628
C49	C	-0.267063	1.094021	-0.398977
C50	C	0.232937	1.594021	0.101023
C51	C	-0.387685	1.531782	-0.510579
C52	C	0.112315	2.031782	-0.010579
C53	C	-0.445799	1.531817	-0.510604
C54	C	0.054201	2.031817	-0.010604
C55	C	-0.696930	1.599745	-0.578474
C56	C	-0.196930	2.099745	-0.078474
C57	C	-0.642326	1.599713	-0.578466
C58	C	-0.142326	2.099713	-0.078466
O59	O	-0.614037	1.657346	-0.636137
O60	O	-0.114037	2.157346	-0.136137
N61	N	-0.615073	1.531933	-0.510617
N62	N	-0.115073	2.031933	-0.010617
C63	C	-0.642427	1.464188	-0.442763
C64	C	-0.142427	1.964188	0.057237
O65	O	-0.614232	1.406533	-0.385051
O66	O	-0.114232	1.906533	0.114949
C67	C	-0.697030	1.464226	-0.442767
C68	C	-0.197030	1.964226	0.057233
C69	C	-0.724281	1.532003	-0.510628
C70	C	-0.224281	2.032003	-0.010628
C71	C	-0.724181	1.667517	-0.646329
C72	C	-0.224181	2.167517	-0.146329
C73	C	-0.778781	1.667547	-0.646339
C74	C	-0.278781	2.167547	-0.146339
C75	C	-0.806131	1.599805	-0.578493
C76	C	-0.306131	2.099805	-0.078493
C77	C	-0.778881	1.532033	-0.510637
C78	C	-0.278881	2.032033	-0.010637
C79	C	-0.724383	1.396487	-0.374909
C80	C	-0.224383	1.896487	0.125091
C81	C	-0.778990	1.396531	-0.374918
C82	C	-0.278990	1.896531	0.125082
C83	C	-0.806241	1.464308	-0.442779
C84	C	-0.306241	1.964308	0.057221
C85	C	-0.860832	1.464321	-0.442801
C86	C	-0.360832	1.964321	0.057199
N87	N	-0.888085	1.532101	-0.510650
N88	N	-0.388085	2.032101	-0.010650
C89	C	-0.860735	1.599843	-0.578496
C90	C	-0.360735	2.099843	-0.078496
C91	C	-0.527756	1.464114	-0.442760
C92	C	-0.027756	1.964114	0.057240
C93	C	-0.473154	1.464070	-0.442761
C94	C	0.026846	1.964070	0.057239
C95	C	-0.473057	1.599597	-0.578463
C96	C	0.026943	2.099597	-0.078463
C97	C	-0.527660	1.599635	-0.578466
C98	C	-0.027660	2.099635	-0.078466
C99	C	-0.555010	1.531894	-0.510609
C100	C	-0.055010	2.031894	-0.010609
C101	C	-0.975400	1.599901	-0.578511
C102	C	-0.475400	2.099901	-0.078511
C103	C	-1.030005	1.599922	-0.578517
C104	C	-0.530005	2.099922	-0.078517
C105	C	-1.030098	1.464399	-0.442812
C106	C	-0.530098	1.964399	0.057188
C107	C	-0.975497	1.464374	-0.442809
C108	C	-0.475497	1.964374	0.057191
C109	C	-0.948149	1.532133	-0.510662
C110	C	-0.448149	2.032133	-0.010662
O111	O	-0.889156	1.406721	-0.385156
O112	O	-0.389156	1.906721	0.114844
O113	O	-0.888936	1.657498	-0.636189
O114	O	-0.388936	2.157498	-0.136189
C115	C	-0.115469	1.532105	-0.510651
C116	C	0.384531	2.032105	-0.010651
C117	C	-0.057355	1.532180	-0.510671
C118	C	0.442645	2.032180	-0.010671
C119	C	-0.251786	1.532008	-0.787108
C120	C	0.248214	2.032008	-0.287108
C121	C	-0.251761	1.532042	-0.904939
C122	C	0.248239	2.032042	-0.404939
C123	C	-0.251855	1.808434	-0.510601
C124	C	0.248145	2.308434	-0.010601
C125	C	-0.251860	1.926264	-0.510600
C126	C	0.248140	2.426264	-0.010600
C127	C	-0.211480	1.614331	-1.072516
C128	C	0.288520	2.114331	-0.572516
C129	C	-0.211335	1.614067	-0.949956
C130	C	0.288665	2.114067	-0.449956
C131	C	-0.236788	1.420368	-0.949431
C132	C	0.263212	1.920368	-0.449431
C133	C	-0.236482	1.420867	-1.072030
C134	C	0.263518	1.920867	-0.572030
C135	C	-0.307075	1.560522	-1.072129
C136	C	0.192925	2.060522	-0.572129
C137	C	-0.306797	1.562965	-0.949523
C138	C	0.193203	2.062965	-0.449523
C139	C	-0.251861	1.531911	-0.235173
C140	C	0.248139	2.031911	0.264827
C141	C	-0.251738	1.532082	-0.117344
C142	C	0.248262	2.032082	0.382656
H143	H	-0.283049	1.123026	-0.675606
H144	H	0.216951	1.623026	-0.175606
H145	H	-1.052190	1.655112	-0.633784
H146	H	-0.552190	2.155112	-0.133784
H147	H	-0.196789	1.395815	-0.918742
H148	H	0.303211	1.895815	-0.418742
Br149	Br	-0.938513	1.372387	-0.350715
Br150	Br	-0.438513	1.872387	0.149285
Br151	Br	-0.436178	1.372062	-0.350681
Br152	Br	0.063822	1.872062	0.149319
Br153	Br	-0.359484	1.470365	-0.898454
Br154	Br	0.140516	1.970365	-0.398454
Br155	Br	-0.226909	1.752816	-1.121658
Br156	Br	0.273091	2.252816	-0.621658
H157	H	-0.337072	1.500620	-1.101127
H158	H	0.162928	2.000620	-0.601127
H159	H	-0.185143	0.943053	-0.623775
H160	H	0.314857	1.443053	-0.123775
H161	H	-0.333151	1.123723	-0.573318
H162	H	0.166849	1.623723	-0.073318
H163	H	-0.450778	1.654758	-0.633705
H164	H	0.049222	2.154758	-0.133705
H165	H	-0.165693	0.941956	-0.485086
H166	H	0.334307	1.441956	0.014914
H167	H	-0.236297	0.942414	-0.337641
H168	H	0.263703	1.442414	0.162359
H169	H	-0.170342	1.595240	-0.920648
H170	H	0.329658	2.095240	-0.420648
Br171	Br	-0.815755	1.759531	-0.738446
Br172	Br	-0.315755	2.259531	-0.238446
H173	H	-0.318088	1.645148	-0.920442
H174	H	0.181912	2.145148	-0.420442
Br175	Br	-0.360738	0.921917	-0.560585
Br176	Br	0.139262	1.421917	-0.060585
Br177	Br	-0.226956	1.752093	-0.899812
Br178	Br	0.273044	2.252093	-0.399812
H179	H	-0.283300	0.940326	-0.674782
H180	H	0.216700	1.440326	-0.174782
H181	H	-0.165707	1.123367	-0.483645
H182	H	0.334293	1.623367	0.016355
H183	H	-0.184679	1.124951	-0.622312
H184	H	0.315321	1.624951	-0.122312
H185	H	-0.307586	1.123083	-0.375955
H186	H	0.192414	1.623083	0.124045
Br187	Br	-0.331643	0.919825	-0.352116
Br188	Br	0.168357	1.419825	0.147884
Br189	Br	-0.221367	1.145064	-0.292320
Br190	Br	0.278633	1.645064	0.207680
Br191	Br	-0.938294	1.691861	-0.670597
Br192	Br	-0.438294	2.191861	-0.170597
H193	H	-0.550021	1.408942	-0.387506
H194	H	-0.050021	1.908942	0.112494
H195	H	-0.701917	1.722686	-0.701577
H196	H	-0.201917	2.222686	-0.201577
Br197	Br	-0.564637	1.691622	-0.670566
Br198	Br	-0.064637	2.191622	-0.170566
H199	H	-0.702204	1.341297	-0.319650
H200	H	-0.202204	1.841297	0.180350
Br201	Br	-0.169071	1.380625	-1.119730
Br202	Br	0.330929	1.880625	-0.619730
Br203	Br	-0.816104	1.304597	-0.282816
Br204	Br	-0.316104	1.804597	0.217184
H205	H	-1.052376	1.409243	-0.387576
H206	H	-0.552376	1.909243	0.112424
H207	H	-0.170714	1.595745	-1.103345
H208	H	0.329286	2.095745	-0.603345
H209	H	-0.264529	1.357501	-1.101683
H210	H	0.235471	1.857501	-0.601683
Br211	Br	-0.284162	1.315446	-0.900847
Br212	Br	0.215838	1.815446	-0.400847
Br213	Br	-0.329771	1.693927	-1.123663
Br214	Br	0.170229	2.193927	-0.623663
