data_functionalizedCrystal
_audit_creation_method	'MofGen! by Chris Wilmer'
_symmetry_space_group_name_H-M	'P1'
_symmetry_Int_Tables_number	1
_symmetry_cell_setting	triclinic
loop_
_symmetry_equiv_pos_as_xyz
  x,y,z
_cell_length_a	9.065218
_cell_length_b	15.995350
_cell_length_c	7.540329
_cell_angle_alpha	89.998640
_cell_angle_beta	89.996962
_cell_angle_gamma	84.254130
loop_
_atom_site_label
_atom_site_type_symbol
_atom_site_fract_x
_atom_site_fract_y
_atom_site_fract_z
O1	O	1.957508	0.122770	-0.147477
O2	O	1.527986	0.132840	-0.147479
O3	O	1.754488	0.006007	-0.147476
O4	O	1.731005	0.249604	-0.147480
O5	O	1.754474	0.006005	0.147489
O6	O	1.527972	0.132839	0.147486
O7	O	1.957494	0.122769	0.147488
Cu8	Cu	1.742732	0.127804	0.174420
Cu9	Cu	1.742748	0.127805	-0.174411
O10	O	1.730992	0.249602	0.147485
C11	C	1.473015	0.131872	0.000003
C12	C	1.309240	0.128978	0.000002
C13	C	1.753510	-0.025196	0.000003
C14	C	1.750600	-0.118169	-0.000007
C15	C	1.740148	-0.455995	-0.000001
C16	C	1.578837	-0.409785	-0.000663
C17	C	1.581748	-0.313072	0.000001
C18	C	1.745332	-0.288396	-0.000005
C19	C	1.824889	-0.328871	0.168432
C20	C	1.820836	-0.425537	0.168573
C21	C	1.824184	-0.425868	-0.166858
C22	C	1.824146	-0.328923	-0.169084
C23	C	1.748271	-0.193676	-0.000001
C24	C	1.737214	-0.550716	0.000007
C25	C	2.012465	0.123737	0.000002
C26	C	2.176239	0.126631	-0.000009
C27	C	1.731969	0.280805	0.000002
C28	C	1.734880	0.373778	0.000001
N29	N	1.742731	0.127802	0.419768
N30	N	1.742760	0.127801	-0.419759
H31	H	1.519211	-0.285124	-0.120740
H32	H	1.943118	-0.456727	-0.167995
H33	H	1.939268	-0.456887	0.176210
H34	H	1.769622	-0.300909	0.293781
H35	H	1.514368	-0.428805	-0.121452
H36	H	1.514643	-0.429866	0.119452
C37	C	1.752943	-0.454147	-0.339324
H38	H	1.671271	-0.484594	-0.311176
H39	H	1.824124	-0.489081	-0.405097
H40	H	1.719443	-0.406202	-0.408081
H41	H	1.518779	-0.285686	0.120949
H42	H	1.765980	-0.302115	-0.293689
H43	H	1.762812	-0.444279	0.294486
C44	C	1.987237	-0.308554	0.176908
H45	H	2.007989	-0.275124	0.077564
H46	H	2.051207	-0.359356	0.175346
H47	H	2.002665	-0.278631	0.283039
C48	C	1.985304	-0.306956	-0.182833
H49	H	2.006730	-0.272632	-0.085194
H50	H	1.997804	-0.277516	-0.290338
H51	H	2.050811	-0.357176	-0.181404
