data_functionalizedCrystal
_audit_creation_method	'MofGen! by Chris Wilmer'
_symmetry_space_group_name_H-M	'P1'
_symmetry_Int_Tables_number	1
_symmetry_cell_setting	triclinic
loop_
_symmetry_equiv_pos_as_xyz
  x,y,z
_cell_length_a	12.759401
_cell_length_b	12.759400
_cell_length_c	19.805398
_cell_angle_alpha	89.976858
_cell_angle_beta	89.991014
_cell_angle_gamma	90.013326
loop_
_atom_site_label
_atom_site_type_symbol
_atom_site_fract_x
_atom_site_fract_y
_atom_site_fract_z
Zn1	Zn	1.606168	-0.418276	-0.382671
Zn2	Zn	1.606096	-0.593972	-0.269493
Zn3	Zn	1.430499	-0.418308	-0.269503
Zn4	Zn	1.430463	-0.593914	-0.382648
O5	O	1.518307	-0.506117	-0.326079
O6	O	1.753179	-0.441593	-0.367663
O7	O	1.582788	-0.570708	-0.174778
O8	O	1.453847	-0.271283	-0.284529
O9	O	1.753127	-0.570676	-0.284512
O10	O	1.582910	-0.271259	-0.367672
O11	O	1.453777	-0.441648	-0.174785
O12	O	1.283473	-0.441592	-0.284507
O13	O	1.453786	-0.570577	-0.477368
O14	O	1.283447	-0.570608	-0.367634
O15	O	1.582875	-0.441536	-0.477384
O16	O	1.582753	-0.740985	-0.284490
O17	O	1.453716	-0.740942	-0.367624
C18	C	1.245339	-0.506098	-0.326070
C19	C	1.128563	-0.506115	-0.326082
C20	C	1.073714	-0.573401	-0.369294
C21	C	0.963990	-0.573415	-0.369302
C22	C	0.963972	-0.438852	-0.282878
C23	C	1.073694	-0.438834	-0.282875
C24	C	1.128583	-0.640682	-0.412502
C25	C	1.073734	-0.707975	-0.455717
C26	C	0.964010	-0.707988	-0.455724
C27	C	0.909134	-0.640709	-0.412516
C28	C	1.518252	-0.779085	-0.326068
C29	C	1.518324	-0.895861	-0.326086
C30	C	1.585494	-0.950631	-0.369414
C31	C	1.585543	-1.060355	-0.369431
C32	C	1.451249	-1.060530	-0.282785
C33	C	1.451196	-0.950808	-0.282773
C34	C	1.652622	-0.895685	-0.412728
C35	C	1.719798	-0.950455	-0.456059
C36	C	1.719846	-1.060179	-0.456076
C37	C	1.652719	-1.115133	-0.412761
C38	C	1.792340	-0.506138	-0.326088
C39	C	1.909117	-0.506146	-0.326093
C40	C	1.518335	-0.506046	-0.502622
C41	C	1.518347	-0.506016	-0.577854
C42	C	1.518391	-0.232084	-0.326104
C43	C	1.518426	-0.115307	-0.326115
C44	C	1.585688	-0.573050	-1.039639
C45	C	1.585659	-0.573079	-0.968950
C46	C	1.518477	-0.505898	-0.933616
C47	C	1.451312	-0.438691	-0.968973
C48	C	1.451337	-0.438669	-1.039660
C49	C	1.451211	-0.438781	-0.683900
C50	C	1.451194	-0.438806	-0.613208
C51	C	1.585533	-0.573191	-0.613189
C52	C	1.585558	-0.573169	-0.683877
C53	C	1.518389	-0.505967	-0.719228
C54	C	1.518420	-0.505938	-0.795877
C55	C	1.518451	-0.505920	-0.856968
C56	C	1.518339	-0.506112	-0.150223
C57	C	1.518531	-0.505847	-0.074991
H58	H	0.919284	-0.384077	-0.247699
Br59	Br	1.810878	-0.875878	-0.514850
Br60	Br	1.360149	-0.347501	-0.921020
H61	H	1.396652	-0.383943	-1.068444
Br62	Br	1.148138	-0.347513	-0.224230
Br63	Br	1.359999	-0.347633	-0.731868
Br64	Br	1.676739	-0.664343	-0.731827
H65	H	1.396499	-0.906214	-0.247491
Br66	Br	1.652532	-0.746774	-0.412725
H67	H	1.774536	-1.104769	-0.491364
Br68	Br	1.652962	-1.264045	-0.412672
H69	H	0.919356	-0.762773	-0.490917
H70	H	1.396598	-1.105282	-0.247520
Br71	Br	1.676878	-0.664221	-1.087586
H72	H	1.640332	-0.627815	-0.940169
Br73	Br	1.277493	-0.640674	-0.412490
Br74	Br	1.676692	-0.664397	-0.565209
H75	H	1.396483	-0.384096	-0.584440
H76	H	0.819790	-0.640716	-0.412531
Br77	Br	1.148205	-0.799269	-0.514360
