data_functionalizedCrystal
_audit_creation_method	'MofGen! by Chris Wilmer'
_symmetry_space_group_name_H-M	'P1'
_symmetry_Int_Tables_number	1
_symmetry_cell_setting	triclinic
loop_
_symmetry_equiv_pos_as_xyz
  x,y,z
_cell_length_a	16.109318
_cell_length_b	15.186229
_cell_length_c	16.109301
_cell_angle_alpha	90.003755
_cell_angle_beta	83.465073
_cell_angle_gamma	89.999776
loop_
_atom_site_label
_atom_site_type_symbol
_atom_site_fract_x
_atom_site_fract_y
_atom_site_fract_z
O1	O	-1.103122	-0.073155	-0.106935
O2	O	-0.603122	0.426845	0.393065
O3	O	-0.861062	-0.073173	-0.120219
O4	O	-0.361062	0.426827	0.379781
O5	O	-0.988741	-0.073158	0.007454
O6	O	-0.488741	0.426842	0.507454
O7	O	-0.975442	-0.073171	-0.234607
O8	O	-0.475442	0.426829	0.265393
O9	O	-0.988733	0.073299	0.007456
O10	O	-0.488733	0.573299	0.507456
O11	O	-0.861053	0.073284	-0.120217
O12	O	-0.361053	0.573284	0.379783
O13	O	-1.103113	0.073302	-0.106933
O14	O	-0.603113	0.573302	0.393067
Zn15	Zn	-0.982082	0.096546	-0.113575
Zn16	Zn	-0.482082	0.596546	0.386425
Zn17	Zn	-0.982093	-0.096418	-0.113577
Zn18	Zn	-0.482093	0.403582	0.386423
O19	O	-0.975434	0.073287	-0.234606
O20	O	-0.475434	0.573287	0.265394
C21	C	-0.830083	0.000053	-0.119677
C22	C	-0.330083	0.500053	0.380323
C23	C	-0.737788	0.000047	-0.118057
C24	C	-0.237788	0.500047	0.381943
C25	C	-0.988198	0.000070	0.038430
C26	C	-0.488198	0.500070	0.538430
C27	C	-0.986583	0.000069	0.130725
C28	C	-0.486583	0.500069	0.630725
C29	C	-1.134092	0.000074	-0.107474
C30	C	-0.634092	0.500074	0.392526
C31	C	-1.226387	0.000075	-0.109095
C32	C	-0.726387	0.500075	0.390905
C33	C	-0.438719	-0.079772	-0.112823
C34	C	0.061281	0.420228	0.387177
C35	C	-0.525440	-0.079777	-0.114340
C36	C	-0.025440	0.420223	0.385660
C37	C	-0.525450	0.079899	-0.114327
C38	C	-0.025450	0.579899	0.385673
C39	C	-0.438731	0.079903	-0.112803
C40	C	0.061269	0.579903	0.387197
C41	C	-0.395367	0.000066	-0.112056
C42	C	0.104633	0.500066	0.387944
C43	C	-0.568808	0.000056	-0.115096
C44	C	-0.068808	0.500056	0.384904
C45	C	-0.662835	0.000050	-0.116742
C46	C	-0.162835	0.500050	0.383258
C47	C	-0.301335	0.000071	-0.110409
C48	C	0.198665	0.500071	0.389591
N49	N	-0.982080	0.228239	-0.113573
N50	N	-0.482080	0.728239	0.386427
N51	N	-0.982101	-0.228110	-0.113573
N52	N	-0.482101	0.271890	0.386427
C53	C	-1.038636	0.453969	-0.057058
C54	C	-0.538636	0.953969	0.442942
C55	C	-1.038639	0.546158	-0.057056
C56	C	-0.538639	1.046158	0.442944
C57	C	-0.925540	0.546154	-0.170090
C58	C	-0.425540	1.046154	0.329910
C59	C	-0.925534	0.453966	-0.170087
C60	C	-0.425534	0.953966	0.329913
C61	C	-0.982086	0.407876	-0.113572
C62	C	-0.482086	0.907876	0.386428
C63	C	-0.982095	0.592253	-0.113573
C64	C	-0.482095	1.092253	0.386427
C65	C	-0.982097	0.692209	-0.113571
C66	C	-0.482097	1.192209	0.386429
C67	C	-0.982083	0.307913	-0.113573
C68	C	-0.482083	0.807913	0.386427
C69	C	-0.975977	0.000057	-0.265581
C70	C	-0.475977	0.500057	0.234419
C71	C	-0.977592	0.000052	-0.357877
C72	C	-0.477592	0.500052	0.142123
C73	C	-1.057066	0.000059	0.439719
C74	C	-0.557066	0.500059	0.939719
C75	C	-1.058591	0.000064	0.352999
C76	C	-0.558591	0.500064	0.852999
C77	C	-0.907103	0.000065	0.333135
C78	C	-0.407103	0.500065	0.833135
C79	C	-0.905579	0.000066	0.419854
C80	C	-0.405579	0.500066	0.919854
C81	C	-0.980563	0.000058	0.473144
C82	C	-0.480563	0.500058	0.973144
C83	C	-0.983612	0.000063	0.299705
C84	C	-0.483612	0.500063	0.799705
C85	C	-0.985266	0.000068	0.205678
C86	C	-0.485266	0.500068	0.705678
C87	C	-0.978909	0.000055	0.567176
C88	C	-0.478909	0.500055	1.067176
H89	H	-0.560734	-0.144788	-0.114963
H90	H	-0.060734	0.355212	0.385037
N91	N	-0.391945	-0.165876	-0.111999
N92	N	0.108055	0.334124	0.388001
H93	H	-0.349212	-0.169437	-0.162875
H94	H	0.150788	0.330563	0.337125
H95	H	-0.432625	-0.216404	-0.112681
H96	H	0.067375	0.283596	0.387319
N97	N	-1.141104	0.000070	0.316946
N98	N	-0.641104	0.500070	0.816946
H99	H	-1.188371	0.000067	0.363867
H100	H	-0.688371	0.500067	0.863867
H101	H	-1.145037	-0.054221	0.281393
H102	H	-0.645037	0.445779	0.781393
H103	H	-0.879496	0.583690	-0.216104
H104	H	-0.379496	1.083690	0.283896
N105	N	-0.864531	0.404243	-0.231038
N106	N	-0.364531	0.904243	0.268962
H107	H	-0.828709	0.447428	-0.266843
H108	H	-0.328709	0.947428	0.233157
H109	H	-0.896342	0.365983	-0.267803
H110	H	-0.396342	0.865983	0.232197
N111	N	-0.572216	0.166008	-0.115144
N112	N	-0.072216	0.666008	0.384856
H113	H	-0.614953	0.169568	-0.064271
H114	H	-0.114953	0.669568	0.435729
H115	H	-0.601387	0.169511	-0.167319
H116	H	-0.101387	0.669511	0.332681
H117	H	-1.084685	0.583685	-0.011036
H118	H	-0.584685	1.083685	0.488964
H119	H	-1.118122	0.000053	0.483106
H120	H	-0.618122	0.500053	0.983106
H121	H	-0.846055	0.000069	0.289736
H122	H	-0.346055	0.500069	0.789736
H123	H	-0.843277	0.000069	0.447067
H124	H	-0.343277	0.500069	0.947067
H125	H	-0.403433	0.144920	-0.112178
H126	H	0.096567	0.644920	0.387822
H127	H	-1.084684	0.416444	-0.011039
H128	H	-0.584684	0.916444	0.488961
