data_functionalizedCrystal
_audit_creation_method	'MofGen! by Chris Wilmer'
_symmetry_space_group_name_H-M	'P1'
_symmetry_Int_Tables_number	1
_symmetry_cell_setting	triclinic
loop_
_symmetry_equiv_pos_as_xyz
  x,y,z
_cell_length_a	14.908571
_cell_length_b	12.645330
_cell_length_c	14.908858
_cell_angle_alpha	86.675335
_cell_angle_beta	89.795097
_cell_angle_gamma	86.714080
loop_
_atom_site_label
_atom_site_type_symbol
_atom_site_fract_x
_atom_site_fract_y
_atom_site_fract_z
Zn1	Zn	1.345338	-0.473528	-0.587620
Zn2	Zn	1.353919	-0.661599	-0.437265
Zn3	Zn	1.203647	-0.474732	-0.428614
Zn4	Zn	1.194952	-0.641127	-0.578920
O5	O	1.274464	-0.562747	-0.508105
O6	O	1.472303	-0.506540	-0.574937
O7	O	1.341215	-0.645882	-0.310291
O8	O	1.222490	-0.326227	-0.449726
O9	O	1.478608	-0.644715	-0.464472
O10	O	1.326590	-0.325342	-0.566547
O11	O	1.230811	-0.508592	-0.303934
O12	O	1.076667	-0.488741	-0.441290
O13	O	1.207672	-0.609823	-0.705901
O14	O	1.070279	-0.610991	-0.551719
O15	O	1.318160	-0.486689	-0.712293
O16	O	1.332785	-0.807229	-0.456036
O17	O	1.215992	-0.792188	-0.560109
C18	C	1.040848	-0.547776	-0.494622
C19	C	0.940904	-0.541395	-0.488876
C20	C	0.746505	-0.656926	-0.592913
C21	C	0.652599	-0.650934	-0.587517
C22	C	0.659184	-0.523414	-0.472693
C23	C	0.753090	-0.529406	-0.478089
C24	C	0.796747	-0.596165	-0.538200
C25	C	0.890655	-0.602162	-0.543591
C26	C	0.897238	-0.474638	-0.428772
C27	C	0.803332	-0.468646	-0.423376
C28	C	1.274399	-0.838173	-0.508088
C29	C	1.274452	-0.956005	-0.508116
C30	C	1.201252	-1.114154	-0.573819
C31	C	1.200911	-0.991588	-0.573574
C32	C	1.254270	-1.005757	-0.411878
C33	C	1.253823	-1.128298	-0.412277
C34	C	1.368302	-1.127446	-0.537907
C35	C	1.367599	-1.004653	-0.539945
C36	C	1.508993	-0.577776	-0.521640
C37	C	1.608935	-0.584181	-0.527408
C38	C	1.260989	-0.545838	-0.742635
C39	C	1.255246	-0.538633	-0.842577
C40	C	1.274553	-0.286245	-0.508142
C41	C	1.274591	-0.168416	-0.508158
C42	C	1.189677	-0.457000	-0.980132
C43	C	1.195069	-0.463768	-0.886227
C44	C	1.310037	-0.606732	-0.892840
C45	C	1.304644	-0.599964	-0.986745
C46	C	1.244462	-0.525097	-1.030388
C47	C	1.239065	-0.518335	-1.124295
C48	C	1.354037	-0.661293	-1.130906
C49	C	1.359429	-0.668061	-1.037001
C50	C	1.287939	-0.579516	-0.274490
C51	C	1.293856	-0.586434	-0.174558
H52	H	0.623622	-0.469055	-0.423759
H53	H	1.382918	-0.971736	-0.610798
N54	N	1.443218	-0.973159	-0.481788
H55	H	1.487273	-0.932757	-0.520070
H56	H	1.417987	-0.926738	-0.433774
H57	H	1.140670	-0.396044	-1.015667
H58	H	1.422874	-1.163380	-0.490150
N59	N	0.951416	-0.409091	-0.369750
H60	H	0.992758	-0.457591	-0.330256
H61	H	0.988235	-0.359879	-0.408654
N62	N	1.164733	-0.961368	-0.378902
H63	H	1.115737	-0.978660	-0.421378
H64	H	1.152427	-0.993880	-0.316918
N65	N	1.135988	-0.390314	-0.832021
H66	H	1.097049	-0.341859	-0.873921
H67	H	1.096598	-0.433599	-0.790649
N68	N	0.756244	-0.396668	-0.358526
H69	H	0.689131	-0.402099	-0.363402
H70	H	0.776342	-0.418764	-0.295237
N71	N	1.174154	-0.437594	-1.171371
H72	H	1.140269	-0.395481	-1.125281
H73	H	1.208533	-0.388074	-1.212452
N74	N	0.598407	-0.716477	-0.646519
H75	H	0.557062	-0.667979	-0.686011
H76	H	0.640376	-0.759670	-0.685358
H77	H	1.408431	-0.729013	-1.001454
H78	H	1.359040	-0.667679	-0.857290
N79	N	1.108745	-0.948401	-0.546889
H80	H	1.068181	-1.009003	-0.535234
H81	H	1.113603	-0.908385	-0.490579
H82	H	1.398651	-0.716737	-1.171835
N83	N	1.216785	-0.946319	-0.667872
H84	H	1.216589	-0.866434	-0.667893
H85	H	1.276810	-0.975308	-0.690160
H86	H	1.305218	-1.164898	-0.361392
N87	N	0.937747	-0.674168	-0.608417
H88	H	0.891666	-0.711747	-0.642260
H89	H	0.974332	-0.630573	-0.652328
H90	H	1.213085	-1.139524	-0.645229
N91	N	1.109643	-1.150638	-0.547453
H92	H	1.109345	-1.230188	-0.550591
H93	H	1.095334	-1.130693	-0.484143
H94	H	0.782052	-0.711290	-0.641853
H95	H	1.185482	-1.154015	-0.387712
H96	H	1.306234	-0.983554	-0.361378
H97	H	1.387782	-1.154913	-0.607180
