data_functionalizedCrystal
_audit_creation_method	'MofGen! by Chris Wilmer'
_symmetry_space_group_name_H-M	'P1'
_symmetry_Int_Tables_number	1
_symmetry_cell_setting	triclinic
loop_
_symmetry_equiv_pos_as_xyz
  x,y,z
_cell_length_a	9.482900
_cell_length_b	11.026607
_cell_length_c	10.967962
_cell_angle_alpha	96.380699
_cell_angle_beta	111.340236
_cell_angle_gamma	78.636152
loop_
_atom_site_label
_atom_site_type_symbol
_atom_site_fract_x
_atom_site_fract_y
_atom_site_fract_z
O1	O	-0.010590	-1.612868	-0.524834
O2	O	0.004836	-1.261464	-0.463270
O3	O	0.043641	-1.452558	-0.308348
O4	O	-0.049395	-1.421774	-0.679756
O5	O	-0.206075	-1.413738	-0.339978
O6	O	-0.244879	-1.222643	-0.494899
O7	O	-0.260305	-1.574048	-0.556464
Cu8	Cu	-0.275393	-1.394801	-0.528570
Cu9	Cu	0.019924	-1.440711	-0.491164
O10	O	-0.299110	-1.382953	-0.711385
C11	C	-0.117176	-1.197193	-0.467727
C12	C	-0.108693	-1.063525	-0.433870
N13	N	-0.483104	-1.362519	-0.554880
C14	C	-0.069118	-1.433841	-0.275875
C15	C	-0.033066	-1.435891	-0.131990
C16	C	-0.541285	-1.431181	-0.498915
C17	C	-0.714188	-1.404330	-0.520818
N18	N	0.227636	-1.473002	-0.464845
C19	C	-0.138290	-1.638319	-0.552006
C20	C	-0.146763	-1.771988	-0.585862
C21	C	-0.132110	-0.986833	-0.527354
C22	C	-0.123343	-0.848679	-0.492364
C23	C	-0.146352	-1.416695	-0.084220
C24	C	-0.109093	-1.418814	0.064493
C25	C	-0.186349	-1.401669	0.256142
C26	C	-0.222395	-1.399616	0.112258
H27	H	-0.792375	-1.325659	-0.584945
C28	C	-0.312420	-1.392439	-0.176524
C29	C	-0.337257	-1.286062	-0.245386
C30	C	-0.490227	-1.263667	-0.330417
H31	H	-0.333037	-1.461229	-0.236687
H32	H	-0.378727	-1.380593	-0.127320
H33	H	-0.270971	-1.297916	-0.294587
H34	H	-0.316675	-1.217251	-0.185258
H35	H	-0.556534	-1.251821	-0.281213
H36	H	-0.510829	-1.332464	-0.390571
H37	H	-0.507102	-1.191483	-0.377141
H38	H	-0.346975	-1.381617	0.043064
H39	H	-0.082118	-1.026911	-0.327925
H40	H	0.015486	-1.436824	0.133688
H41	H	-0.694174	-1.551665	-0.400707
H42	H	0.091504	-1.453900	-0.062791
H43	H	-0.463092	-1.509839	-0.434781
H44	H	-0.561295	-1.283853	-0.619003
H45	H	-0.158656	-1.023452	-0.633296
H46	H	-0.096765	-0.812071	-0.386412
C47	C	-0.182025	-0.821048	-0.727044
C48	C	-0.183640	-0.948333	-0.733678
C49	C	-0.216083	-0.993574	-0.863705
H50	H	-0.279573	-0.779728	-0.779995
H51	H	-0.105363	-0.806732	-0.757790
H52	H	-0.260297	-0.962639	-0.702949
H53	H	-0.086105	-0.989684	-0.680755
H54	H	-0.139421	-0.979257	-0.894451
H55	H	-0.313630	-0.952245	-0.916646
H56	H	-0.217169	-1.079942	-0.868222
