data_functionalizedCrystal
_audit_creation_method	'MofGen! by Chris Wilmer'
_symmetry_space_group_name_H-M	'P1'
_symmetry_Int_Tables_number	1
_symmetry_cell_setting	triclinic
loop_
_symmetry_equiv_pos_as_xyz
  x,y,z
_cell_length_a	17.699077
_cell_length_b	10.654550
_cell_length_c	16.776229
_cell_angle_alpha	89.994543
_cell_angle_beta	89.993415
_cell_angle_gamma	83.882740
loop_
_atom_site_label
_atom_site_type_symbol
_atom_site_fract_x
_atom_site_fract_y
_atom_site_fract_z
O1	O	1.005091	0.158773	-0.066276
O2	O	1.505091	0.658773	0.433724
O3	O	0.784843	0.179442	-0.066279
O4	O	1.284843	0.679442	0.433721
O5	O	0.900031	-0.013721	-0.066274
O6	O	1.400031	0.486279	0.433726
O7	O	0.889903	0.351936	-0.066280
O8	O	1.389903	0.851936	0.433720
O9	O	0.900015	-0.013732	0.066302
O10	O	1.400015	0.486268	0.566302
O11	O	0.784828	0.179430	0.066297
O12	O	1.284828	0.679430	0.566297
O13	O	1.005075	0.158761	0.066301
O14	O	1.505075	0.658761	0.566301
Zn15	Zn	0.894949	0.169094	0.087348
Zn16	Zn	1.394949	0.669094	0.587348
Zn17	Zn	0.894969	0.169109	-0.087327
Zn18	Zn	1.394969	0.669109	0.412673
O19	O	0.889888	0.351924	0.066296
O20	O	1.389888	0.851924	0.566296
C21	C	0.756634	0.178697	0.000008
C22	C	1.256634	0.678697	0.500008
C23	C	0.672601	0.176479	0.000007
C24	C	1.172601	0.676479	0.500007
C25	C	0.633119	0.175427	0.072275
C26	C	1.133119	0.675427	0.572275
C27	C	0.554163	0.173323	0.072276
C28	C	1.054163	0.673323	0.572276
C29	C	0.514690	0.172280	0.000008
C30	C	1.014690	0.672280	0.500008
C31	C	0.554178	0.173328	-0.072266
C32	C	1.054178	0.673328	0.427734
C33	C	0.633134	0.175423	-0.072266
C34	C	1.133134	0.675423	0.427734
C35	C	0.235761	0.164877	-0.072267
C36	C	0.735761	0.664877	0.427733
C37	C	0.156800	0.162785	-0.072262
C38	C	0.656800	0.662785	0.427738
C39	C	0.156791	0.162777	0.072275
C40	C	0.656791	0.662777	0.572275
C41	C	0.235746	0.164872	0.072275
C42	C	0.735746	0.664872	0.572275
C43	C	0.275228	0.165913	0.000002
C44	C	0.775228	0.665913	0.500002
C45	C	0.360841	0.168192	0.000001
C46	C	0.860841	0.668192	0.500001
C47	C	0.429078	0.170009	0.000007
C48	C	0.929078	0.670009	0.500007
C49	C	0.899279	-0.060511	0.000013
C50	C	1.399279	0.439489	0.500013
C51	C	0.897055	-0.199916	0.000010
C52	C	1.397055	0.300084	0.500010
C53	C	0.964875	-0.280591	0.000014
C54	C	1.464875	0.219409	0.500014
C55	C	0.962780	-0.411575	0.000008
C56	C	1.462780	0.088425	0.500008
C57	C	0.825038	-0.381196	-0.000001
C58	C	1.325038	0.118804	0.499999
C59	C	0.827134	-0.250214	-0.000001
C60	C	1.327134	0.249786	0.499999
C61	C	1.034796	-0.230292	0.000025
C62	C	1.534796	0.269708	0.500025
C63	C	1.102623	-0.310969	0.000030
C64	C	1.602623	0.189031	0.500030
C65	C	1.100527	-0.441953	0.000024
C66	C	1.600527	0.058047	0.500024
C67	C	1.030606	-0.492261	0.000014
C68	C	1.530606	0.007739	0.500014
C69	C	1.033285	0.159506	0.000011
C70	C	1.533285	0.659506	0.500011
C71	C	1.117317	0.161724	0.000008
C72	C	1.617317	0.661724	0.500008
C73	C	0.890639	0.398715	0.000007
C74	C	1.390639	0.898715	0.500007
C75	C	0.892864	0.538119	0.000005
C76	C	1.392864	1.038119	0.500005
N77	N	0.894941	0.169082	0.206560
N78	N	1.394941	0.669082	0.706560
N79	N	0.894984	0.169111	-0.206538
N80	N	1.394984	0.669111	0.293462
C81	C	0.945962	0.083585	0.248279
C82	C	1.445962	0.583585	0.748279
C83	C	0.945966	0.083584	0.331731
C84	C	1.445966	0.583584	0.831731
C85	C	0.894952	0.169087	0.373463
C86	C	1.394952	0.669087	0.873463
C87	C	0.843926	0.254589	0.331737
C88	C	1.343926	0.754589	0.831737
C89	C	0.843918	0.254583	0.248287
C90	C	1.343918	0.754583	0.748287
C91	C	0.843953	0.254613	0.668285
C92	C	1.343953	0.754613	1.168285
C93	C	0.843966	0.254615	0.751741
C94	C	1.343966	0.754615	1.251741
C95	C	0.946001	0.083615	0.751729
C96	C	1.446001	0.583615	1.251729
C97	C	0.945993	0.083609	0.668278
C98	C	1.445993	0.583609	1.168278
C99	C	0.894964	0.169105	0.626561
C100	C	1.394964	0.669105	1.126561
C101	C	0.894960	0.169104	0.536072
C102	C	1.394960	0.669104	1.036072
C103	C	0.894960	0.169096	0.463949
C104	C	1.394960	0.669096	0.963949
H105	H	0.124635	0.161923	0.131124
H106	H	0.624635	0.661923	0.631124
O107	O	1.037061	-0.089019	0.000036
O108	O	1.537061	0.410981	0.500036
H109	H	0.978153	-0.041369	0.000038
H110	H	1.478153	0.458631	0.500038
O111	O	1.173677	-0.528975	0.000032
O112	O	1.673677	-0.028975	0.500032
H113	H	1.222646	-0.471988	0.000048
H114	H	1.722646	0.028012	0.500048
O115	O	0.511619	0.172164	0.150248
O116	O	1.011619	0.672164	0.650248
H117	H	0.533114	0.087001	0.184879
H118	H	1.033114	0.587001	0.684879
H119	H	0.987506	0.013964	0.214307
H120	H	1.487506	0.513964	0.714307
O121	O	0.278335	0.166011	-0.150219
O122	O	0.778335	0.666011	0.349781
H123	H	0.339870	0.167630	-0.138084
H124	H	0.839870	0.667630	0.361916
O125	O	1.178036	-0.256721	0.000037
O126	O	1.678036	0.243279	0.500037
H127	H	1.168101	-0.152087	0.000048
H128	H	1.668101	0.347913	0.500048
H129	H	1.028906	-0.598918	0.000001
H130	H	1.528906	-0.098918	0.500001
O131	O	0.749626	-0.435447	0.000003
O132	O	1.249626	0.064553	0.500003
H133	H	0.759563	-0.540081	0.000015
H134	H	1.259563	-0.040081	0.500015
H135	H	0.802385	0.324203	0.365720
H136	H	1.302385	0.824203	0.865720
H137	H	0.802421	0.324245	0.785718
H138	H	1.302421	0.824245	1.285718
H139	H	0.124664	0.161934	-0.131115
H140	H	0.624664	0.661934	0.368885
O141	O	0.753987	-0.163186	0.000003
O142	O	1.253987	0.336814	0.500003
H143	H	0.705015	-0.220164	0.000009
H144	H	1.205015	0.279836	0.500009
O145	O	1.001009	-0.008608	0.376732
O146	O	1.501009	0.491392	0.876732
H147	H	1.036491	-0.068045	0.333693
H148	H	1.536491	0.431955	0.833693
H149	H	0.267880	0.165728	0.131123
H150	H	0.767880	0.665728	0.631123
H151	H	0.522034	0.172469	-0.131108
H152	H	1.022034	0.672469	0.368892
O153	O	0.675724	0.176565	-0.150212
O154	O	1.175724	0.676565	0.349788
H155	H	0.635012	0.175500	-0.200465
H156	H	1.135012	0.675500	0.299535
O157	O	0.788881	0.346778	0.203279
O158	O	1.288881	0.846778	0.703279
H159	H	0.821045	0.407738	0.165233
H160	H	1.321045	0.907738	0.665233
O161	O	1.001035	-0.008617	0.796723
O162	O	1.501035	0.491383	1.296723
H163	H	0.992467	0.005735	0.861763
H164	H	1.492467	0.505735	1.361763
O165	O	1.001007	-0.008623	0.623265
O166	O	1.501007	0.491377	1.123265
H167	H	1.060093	0.007235	0.639265
H168	H	1.560093	0.507235	1.139265
O169	O	0.675691	0.176569	0.150222
O170	O	1.175691	0.676569	0.650222
H171	H	0.634969	0.175478	0.200475
H172	H	1.134969	0.675478	0.700475
H173	H	0.802405	0.324230	0.634325
H174	H	1.302405	0.824230	1.134325
