data_functionalizedCrystal
_audit_creation_method	'MofGen! by Chris Wilmer'
_symmetry_space_group_name_H-M	'P1'
_symmetry_Int_Tables_number	1
_symmetry_cell_setting	triclinic
loop_
_symmetry_equiv_pos_as_xyz
  x,y,z
_cell_length_a	6.394989
_cell_length_b	10.654550
_cell_length_c	9.130313
_cell_angle_alpha	89.999724
_cell_angle_beta	89.998557
_cell_angle_gamma	85.491321
loop_
_atom_site_label
_atom_site_type_symbol
_atom_site_fract_x
_atom_site_fract_y
_atom_site_fract_z
O1	O	0.293442	1.670947	-0.121679
O2	O	0.321399	1.305765	-0.121705
O3	O	0.003431	1.493540	-0.121693
O4	O	0.611409	1.483173	-0.121691
O5	O	0.003422	1.493526	0.121906
O6	O	0.321389	1.305752	0.121894
O7	O	0.293432	1.670934	0.121920
Cu8	Cu	0.307410	1.488342	0.144149
Cu9	Cu	0.307421	1.488357	-0.143935
O10	O	0.611400	1.483159	0.121908
C11	C	0.319341	1.258939	0.000091
C12	C	0.313200	1.119430	0.000081
C13	C	0.500414	1.041927	0.000086
C14	C	0.494631	0.910845	0.000111
C15	C	0.114403	0.934782	0.000121
C16	C	0.120188	1.065861	0.000106
C17	C	0.689256	1.485216	0.000102
C18	C	0.925582	1.491480	0.000098
C19	C	0.295490	1.717760	0.000121
C20	C	0.301631	1.857269	0.000121
N21	N	0.307401	1.488340	0.346772
N22	N	0.307414	1.488369	-0.346557
C23	C	0.166665	1.571516	0.423429
C24	C	0.166665	1.571528	0.576766
C25	C	0.448157	1.405184	0.576775
C26	C	0.448145	1.405167	0.423441
H27	H	-0.042741	0.891149	0.000150
H28	H	0.052063	1.639256	0.639176
H29	H	0.647080	0.847747	0.000118
H30	H	0.562750	1.337468	0.639214
H31	H	-0.032274	1.128967	0.000106
C32	C	0.602966	1.313668	0.339104
C33	C	0.757871	1.222236	0.423428
C34	C	0.912677	1.130739	0.339090
C35	C	0.912577	1.130674	0.170428
C36	C	0.757666	1.222110	0.086096
C37	C	0.602860	1.313607	0.170434
H38	H	0.757950	1.222280	0.548289
H39	H	1.027352	1.063052	0.401519
H40	H	1.027173	1.062943	0.107996
H41	H	0.757587	1.222066	-0.038766
H42	H	0.488185	1.381294	0.108004
C43	C	0.011835	1.662994	0.339092
C44	C	-0.142980	1.754480	0.423422
C45	C	-0.297820	1.845958	0.339091
C46	C	-0.297845	1.845949	0.170430
C47	C	-0.143023	1.754460	0.086090
C48	C	0.011817	1.662982	0.170421
H49	H	-0.142967	1.754489	0.548284
H50	H	-0.412429	1.913684	0.401526
H51	H	-0.412466	1.913667	0.108003
H52	H	-0.143036	1.754451	-0.038772
H53	H	0.126425	1.595256	0.107987
H54	H	0.657577	1.085539	0.000076
