data_functionalizedCrystal
_audit_creation_method	'MofGen! by Chris Wilmer'
_symmetry_space_group_name_H-M	'P1'
_symmetry_Int_Tables_number	1
_symmetry_cell_setting	triclinic
loop_
_symmetry_equiv_pos_as_xyz
  x,y,z
_cell_length_a	15.944551
_cell_length_b	14.971486
_cell_length_c	13.448316
_cell_angle_alpha	90.001801
_cell_angle_beta	89.992444
_cell_angle_gamma	96.443566
loop_
_atom_site_label
_atom_site_type_symbol
_atom_site_fract_x
_atom_site_fract_y
_atom_site_fract_z
O1	O	0.109463	-1.186829	-0.082580
O2	O	0.122572	-0.926415	-0.082607
O3	O	-0.006250	-1.063733	-0.082584
O4	O	0.238286	-1.049511	-0.082603
O5	O	-0.006258	-1.063716	0.082800
O6	O	0.122564	-0.926398	0.082777
O7	O	0.109456	-1.186812	0.082804
Cu8	Cu	0.116009	-1.056603	0.097891
Cu9	Cu	0.116018	-1.056624	-0.097694
O10	O	0.238278	-1.049494	0.082781
C11	C	-0.037549	-1.063134	0.000108
C12	C	-0.130797	-1.061364	0.000109
C13	C	0.121982	-0.893082	0.000081
C14	C	0.120225	-0.793787	0.000071
C15	C	0.110046	-1.220145	0.000113
C16	C	0.111802	-1.319440	0.000117
C17	C	-0.345738	-0.972017	0.000086
C18	C	-0.406720	-1.013498	0.081634
C19	C	-0.301526	-1.058162	0.000101
C20	C	-0.406696	-1.013536	-0.081421
C21	C	-0.466441	-1.055062	0.000089
C22	C	-0.361279	-1.099667	0.081717
C23	C	-0.361248	-1.099692	-0.081412
C24	C	-0.422212	-1.141236	0.000156
C25	C	-0.206522	-1.059945	0.000109
C26	C	-0.561444	-1.053286	0.000088
C27	C	0.269576	-1.050093	0.000087
C28	C	0.362824	-1.051863	0.000080
N29	N	0.116002	-1.056595	0.235456
C30	C	0.195904	-0.736480	0.000067
C31	C	0.194249	-0.643182	0.000082
C32	C	0.116913	-0.607194	0.000094
C33	C	0.041227	-0.664508	0.000102
C34	C	0.042884	-0.757804	0.000094
C35	C	0.037780	-0.470049	0.000116
C36	C	0.036123	-0.376747	0.000122
C37	C	0.189145	-0.355428	0.000104
C38	C	0.190801	-0.448724	0.000096
C39	C	0.115116	-0.506032	0.000101
N40	N	0.116019	-1.056639	-0.235258
C41	C	0.058983	-1.117419	0.287506
C42	C	0.058982	-1.117425	0.391610
C43	C	0.116005	-1.056610	0.443660
C44	C	0.173027	-0.995780	0.391602
C45	C	0.173023	-0.995771	0.287501
C46	C	0.173033	-0.995805	0.608582
C47	C	0.173038	-0.995815	0.712691
C48	C	0.058992	-1.117459	0.712691
C49	C	0.058988	-1.117449	0.608590
C50	C	0.116011	-1.056620	0.556539
H51	H	-0.312499	-0.900512	0.000160
H52	H	0.258881	-0.765774	0.000056
O53	O	-0.337549	-1.143147	0.164090
C54	C	-0.382377	-1.221068	0.315060
C55	C	-0.409371	-1.171870	0.221806
H56	H	-0.440428	-1.244288	0.361760
H57	H	-0.349954	-1.281865	0.291740
H58	H	-0.336747	-1.173410	0.360756
H59	H	-0.455028	-1.219457	0.176069
H60	H	-0.441747	-1.111062	0.245194
H61	H	0.219453	-0.946260	0.433988
H62	H	-0.426866	-0.977055	0.150570
O63	O	0.003512	-1.176392	0.442210
C64	C	-0.111146	-1.195464	0.559798
C65	C	-0.048384	-1.128581	0.502541
H66	H	-0.153108	-1.156836	0.608605
H67	H	-0.151956	-1.238917	0.504753
H68	H	-0.074791	-1.240164	0.608477
H69	H	-0.084671	-1.083823	0.453861
H70	H	-0.007575	-1.085191	0.557640
H71	H	0.219452	-0.946241	0.245122
O72	O	-0.035819	-0.525592	0.000072
C73	C	-0.187770	-0.536897	0.000129
C74	C	-0.104487	-0.473893	0.000165
H75	H	-0.243310	-0.495124	0.000225
H76	H	-0.190869	-0.581086	-0.069107
H77	H	-0.190781	-0.581134	0.069319
H78	H	-0.101419	-0.429600	-0.068979
H79	H	-0.101422	-0.429766	0.069446
H80	H	-0.455303	-1.212804	0.000210
O81	O	-0.337203	-1.143002	-0.163754
C82	C	-0.332851	-1.146594	-0.342803
C83	C	-0.360113	-1.097458	-0.249625
H84	H	-0.351378	-1.109803	-0.412253
H85	H	-0.261525	-1.148064	-0.341682
H86	H	-0.365520	-1.218341	-0.343450
H87	H	-0.327503	-1.025690	-0.248918
H88	H	-0.431447	-1.096061	-0.250782
H89	H	0.012560	-1.166973	0.566210
H90	H	0.255875	-0.596526	0.000077
H91	H	0.012562	-1.166987	0.755077
O92	O	-0.430583	-0.969944	-0.163641
C93	C	-0.418478	-0.831451	-0.256510
C94	C	-0.391348	-0.880724	-0.163374
H95	H	-0.386783	-0.759303	-0.256315
H96	H	-0.398850	-0.867416	-0.326032
H97	H	-0.489944	-0.831147	-0.256100
H98	H	-0.319887	-0.881043	-0.163688
H99	H	-0.411038	-0.844744	-0.093894
H100	H	0.253775	-0.478022	0.000076
O101	O	0.228448	-0.936642	0.763101
C102	C	0.341572	-0.815994	0.752121
C103	C	0.278858	-0.882950	0.694909
H104	H	0.382356	-0.772579	0.697013
H105	H	0.305263	-0.771269	0.800841
H106	H	0.383567	-0.854616	0.800877
H107	H	0.236848	-0.844401	0.646099
H108	H	0.315219	-0.927674	0.646251
O109	O	0.228460	-0.936840	0.557908
C110	C	0.343176	-0.917797	0.440397
C111	C	0.280439	-0.984666	0.497706
H112	H	0.385229	-0.956439	0.391726
H113	H	0.306885	-0.873124	0.391606
H114	H	0.383898	-0.874317	0.495496
H115	H	0.239701	-1.028206	0.442679
H116	H	0.316781	-1.029278	0.546512
O117	O	0.262614	-0.299675	-0.000032
C118	C	0.349577	-0.182005	-0.085751
C119	C	0.266338	-0.245081	-0.085700
H120	H	0.352624	-0.137863	-0.155017
H121	H	0.352645	-0.137735	-0.016582
H122	H	0.405119	-0.223775	-0.085721
H123	H	0.210750	-0.203382	-0.085766
H124	H	0.263344	-0.289355	-0.154864
H125	H	-0.026851	-0.347448	0.000133
O126	O	-0.030653	-0.813439	-0.000083
C127	C	-0.160952	-0.860174	-0.085723
C128	C	-0.077692	-0.797132	-0.085663
H129	H	-0.199014	-0.846999	-0.154896
H130	H	-0.146533	-0.933053	-0.085792
H131	H	-0.198974	-0.847097	-0.016474
H132	H	-0.039629	-0.810128	-0.154900
H133	H	-0.092170	-0.724273	-0.085542
O134	O	0.003509	-1.176529	0.237103
C135	C	-0.109578	-1.297215	0.248103
C136	C	-0.046809	-1.230308	0.305304
H137	H	-0.150265	-1.340725	0.303218
H138	H	-0.151661	-1.258642	0.199407
H139	H	-0.073230	-1.341853	0.199324
H140	H	-0.083089	-1.185653	0.354137
H141	H	-0.004727	-1.268937	0.353936
H142	H	-0.021741	-0.635199	0.000126
