data_functionalizedCrystal
_audit_creation_method	'MofGen! by Chris Wilmer'
_symmetry_space_group_name_H-M	'P1'
_symmetry_Int_Tables_number	1
_symmetry_cell_setting	triclinic
loop_
_symmetry_equiv_pos_as_xyz
  x,y,z
_cell_length_a	12.759401
_cell_length_b	19.120786
_cell_length_c	12.759393
_cell_angle_alpha	92.477119
_cell_angle_beta	90.018496
_cell_angle_gamma	92.465417
loop_
_atom_site_label
_atom_site_type_symbol
_atom_site_fract_x
_atom_site_fract_y
_atom_site_fract_z
Zn1	Zn	1.588335	-0.279587	0.576097
Zn2	Zn	1.580700	-0.397064	0.392903
Zn3	Zn	1.412635	-0.279624	0.400435
Zn4	Zn	1.405099	-0.397010	0.568548
O5	O	1.496692	-0.338321	0.484496
O6	O	1.734343	-0.295178	0.551804
O7	O	1.558364	-0.381523	0.246879
O8	O	1.442291	-0.181328	0.430048
O9	O	1.728733	-0.381488	0.417212
O10	O	1.571377	-0.181301	0.559107
O11	O	1.434887	-0.295241	0.252412
O12	O	1.264615	-0.295188	0.422728
O13	O	1.429448	-0.381396	0.716573
O14	O	1.259078	-0.381431	0.546240
O15	O	1.564070	-0.295126	0.722120
O16	O	1.551057	-0.495348	0.409892
O17	O	1.422044	-0.495308	0.538937
C18	C	1.223726	-0.338308	0.484482
C19	C	1.106948	-0.338320	0.484500
C20	C	1.049227	-0.383298	0.548698
C21	C	0.939502	-0.383307	0.548708
C22	C	0.945231	-0.293357	0.420316
C23	C	1.054953	-0.293345	0.420312
C24	C	1.045918	-0.435233	0.622821
C25	C	0.936193	-0.435242	0.622832
C26	C	1.484933	-0.520814	0.472801
C27	C	1.479998	-0.598885	0.467833
C28	C	1.544838	-0.635488	0.532747
C29	C	1.540197	-0.708844	0.528081
C30	C	1.470721	-0.745595	0.458494
C31	C	1.405874	-0.708987	0.393577
C32	C	1.410510	-0.635632	0.398249
C33	C	1.453358	-0.967082	0.441028
C34	C	1.448729	-1.040442	0.436358
C35	C	1.583052	-1.040294	0.570864
C36	C	1.587686	-0.966938	0.575526
C37	C	1.522835	-0.930336	0.510612
C38	C	1.465978	-0.820577	0.453721
C39	C	1.527574	-0.855356	0.515392
C40	C	1.770725	-0.338335	0.484510
C41	C	1.887501	-0.338341	0.484516
C42	C	1.496770	-0.338251	0.758534
C43	C	1.496804	-0.338220	0.875312
C44	C	1.508526	-0.155117	0.496260
C45	C	1.513569	-0.077046	0.501273
C46	C	1.496678	-0.338341	0.211527
C47	C	1.496861	-0.338174	0.094762
C48	C	1.566911	-0.293295	0.933065
C49	C	1.566938	-0.293270	1.042790
C50	C	1.426746	-0.383101	1.037002
C51	C	1.426715	-0.383122	0.927278
C52	C	1.647853	-0.241434	0.936407
C53	C	1.647879	-0.241409	1.046133
H54	H	0.903440	-0.415824	0.701425
N55	N	1.113930	-0.247395	0.354757
N56	N	1.178043	-0.202662	0.394706
H57	H	1.219697	-0.170207	0.348407
N58	N	1.355081	-0.429006	0.868302
N59	N	1.292510	-0.469090	0.914716
H60	H	1.241913	-0.501497	0.873065
H61	H	1.076656	-0.420726	0.705155
N62	N	1.355159	-0.428957	1.090103
N63	N	1.355189	-0.428929	1.188070
H64	H	1.304629	-0.461316	1.225572
H65	H	1.400556	-0.937287	0.388171
H66	H	1.357710	-0.605830	0.345390
N67	N	1.615439	-0.176612	1.093067
N68	N	1.676139	-0.141045	1.153317
H69	H	1.653186	-0.095301	1.186491
N70	N	1.624884	-0.173207	0.903423
N71	N	1.546118	-0.165252	0.847606
H72	H	1.529892	-0.117069	0.824307
H73	H	1.723875	-0.260935	0.901124
H74	H	1.349301	-0.738915	0.336922
N75	N	1.748785	-0.259670	1.082339
N76	N	1.828442	-0.222661	1.061055
H77	H	1.899705	-0.235555	1.086628
N78	N	0.892101	-0.247420	0.354763
N79	N	0.794135	-0.247432	0.354781
H80	H	0.756612	-0.214988	0.308483
H81	H	1.076622	-0.486880	0.590233
N82	N	1.649300	-1.077683	0.637158
N83	N	1.713687	-1.118593	0.597646
H84	H	1.760477	-1.144999	0.644471
N85	N	0.894449	-0.503468	0.590951
N86	N	0.955019	-0.551528	0.568473
H87	H	0.925539	-0.599712	0.545956
H88	H	1.601418	-0.605570	0.589408
H89	H	1.593005	-0.738643	0.580933
N90	N	1.395060	-0.858129	0.382604
N91	N	1.402636	-0.849987	0.286184
H92	H	1.352560	-0.876514	0.235951
H93	H	1.644259	-0.937017	0.632189
H94	H	1.392148	-1.070363	0.379691
H95	H	1.584137	-0.825431	0.572054
