data_functionalizedCrystal
_audit_creation_method	'MofGen! by Chris Wilmer'
_symmetry_space_group_name_H-M	'P1'
_symmetry_Int_Tables_number	1
_symmetry_cell_setting	triclinic
loop_
_symmetry_equiv_pos_as_xyz
  x,y,z
_cell_length_a	29.839134
_cell_length_b	19.805407
_cell_length_c	19.805399
_cell_angle_alpha	90.019573
_cell_angle_beta	89.983892
_cell_angle_gamma	89.993986
loop_
_atom_site_label
_atom_site_type_symbol
_atom_site_fract_x
_atom_site_fract_y
_atom_site_fract_z
Zn1	Zn	0.178864	1.034832	0.382774
Zn2	Zn	0.678864	1.534832	0.882774
Zn3	Zn	0.253991	1.034787	0.269608
Zn4	Zn	0.753991	1.534787	0.769608
Zn5	Zn	0.178876	0.921646	0.269598
Zn6	Zn	0.678876	1.421646	0.769598
Zn7	Zn	0.253967	0.921650	0.382755
Zn8	Zn	0.753967	1.421650	0.882755
O9	O	0.216425	0.978229	0.326184
O10	O	0.716425	1.478229	0.826184
O11	O	0.188834	1.129542	0.367774
O12	O	0.688834	1.629542	0.867774
O13	O	0.244042	1.019758	0.174890
O14	O	0.744042	1.519758	0.674890
O15	O	0.116007	0.936678	0.284615
O16	O	0.616007	1.436678	0.784615
O17	O	0.244030	1.129509	0.284632
O18	O	0.744030	1.629509	0.784632
O19	O	0.115998	1.019835	0.367764
O20	O	0.615998	1.519835	0.867764
O21	O	0.188855	0.936634	0.174883
O22	O	0.688855	1.436634	0.674883
O23	O	0.188832	0.826930	0.284597
O24	O	0.688832	1.326930	0.784597
O25	O	0.243989	0.936684	0.477474
O26	O	0.743989	1.436684	0.977474
O27	O	0.244002	0.826933	0.367732
O28	O	0.744002	1.326933	0.867732
O29	O	0.188811	1.019838	0.477488
O30	O	0.688811	1.519838	0.977488
O31	O	0.316855	1.019762	0.284613
O32	O	0.816855	1.519762	0.784613
O33	O	0.316838	0.936641	0.367742
O34	O	0.816838	1.436641	0.867742
C35	C	0.216416	0.802373	0.326162
C36	C	0.716416	1.302373	0.826162
C37	C	0.216423	0.727141	0.326168
C38	C	0.716423	1.227141	0.826168
C39	C	0.099246	0.978261	0.326191
C40	C	0.599246	1.478261	0.826191
C41	C	0.049312	0.978274	0.326194
C42	C	0.549312	1.478274	0.826194
C43	C	0.245193	0.691816	0.369387
C44	C	0.745193	1.191816	0.869387
C45	C	0.245194	0.621127	0.369397
C46	C	0.745194	1.121127	0.869397
C47	C	0.216427	0.585765	0.326184
C48	C	0.716427	1.085765	0.826184
C49	C	0.187654	0.621095	0.282963
C50	C	0.687654	1.121095	0.782963
C51	C	0.187651	0.691782	0.282957
C52	C	0.687651	1.191782	0.782957
C53	C	0.187664	0.336022	0.282985
C54	C	0.687664	0.836022	0.782985
C55	C	0.187669	0.265330	0.282993
C56	C	0.687669	0.765330	0.782993
C57	C	0.245206	0.265367	0.369425
C58	C	0.745206	0.765367	0.869425
C59	C	0.245204	0.336054	0.369419
C60	C	0.745204	0.836054	0.869419
C61	C	0.216429	0.371378	0.326201
C62	C	0.716429	0.871378	0.826201
C63	C	0.216428	0.448026	0.326192
C64	C	0.716428	0.948026	0.826192
C65	C	0.216430	0.509118	0.326189
C66	C	0.716430	1.009118	0.826189
C67	C	-0.260330	0.934963	0.282918
C68	C	0.239670	1.434963	0.782918
C69	C	-0.448003	0.934967	0.282924
C70	C	0.051997	1.434967	0.782924
O71	O	-0.472266	0.898128	0.246129
O72	O	0.027734	1.398128	0.746129
N73	N	-0.471473	0.978264	0.326215
N74	N	0.028527	1.478264	0.826215
C75	C	-0.448023	1.021561	0.369510
C76	C	0.051977	1.521561	0.869510
O77	O	-0.472292	1.058383	0.406336
O78	O	0.027708	1.558383	0.906336
C79	C	-0.260350	1.021553	0.369506
C80	C	0.239650	1.521553	0.869506
C81	C	-0.236882	0.978257	0.326208
C82	C	0.263118	1.478257	0.826208
C83	C	-0.236862	0.891671	0.239624
C84	C	0.263138	1.391671	0.739624
C85	C	-0.189946	0.891673	0.239620
C86	C	0.310054	1.391673	0.739620
C87	C	-0.166499	0.934967	0.282911
C88	C	0.333501	1.434967	0.782911
C89	C	-0.189967	0.978259	0.326204
C90	C	0.310033	1.478259	0.826204
C91	C	-0.236900	1.064845	0.412804
C92	C	0.263100	1.564845	0.912804
C93	C	-0.189979	1.064838	0.412801
C94	C	0.310021	1.564838	0.912801
C95	C	-0.166511	1.021543	0.369503
C96	C	0.333489	1.521543	0.869503
C97	C	-0.119604	1.021556	0.369491
C98	C	0.380396	1.521556	0.869491
N99	N	-0.096134	0.978259	0.326201
N100	N	0.403866	1.478259	0.826201
C101	C	-0.119581	0.934964	0.282910
C102	C	0.380419	1.434964	0.782910
C103	C	-0.546553	1.021563	0.369507
C104	C	-0.046553	1.521563	0.869507
C105	C	-0.593471	1.021566	0.369508
C106	C	-0.093471	1.521566	0.869508
C107	C	-0.593448	0.934971	0.282923
C108	C	-0.093448	1.434971	0.782923
C109	C	-0.546529	0.934972	0.282920
C110	C	-0.046529	1.434972	0.782920
C111	C	-0.523083	0.978265	0.326217
C112	C	-0.023083	1.478265	0.826217
C113	C	-0.021055	0.934972	0.282905
C114	C	0.478945	1.434972	0.782905
C115	C	0.025864	0.934980	0.282904
C116	C	0.525864	1.434980	0.782904
C117	C	0.025837	1.021572	0.369490
C118	C	0.525837	1.521572	0.869490
C119	C	-0.021078	1.021567	0.369490
C120	C	0.478922	1.521567	0.869490
C121	C	-0.044523	0.978261	0.326195
C122	C	0.455477	1.478261	0.826195
O123	O	-0.095312	1.058370	0.406272
O124	O	0.404688	1.558370	0.906272
O125	O	-0.095304	0.898137	0.246100
O126	O	0.404696	1.398137	0.746100
C127	C	-0.307245	0.934961	0.282922
C128	C	0.192755	1.434961	0.782922
C129	C	-0.330713	0.978253	0.326216
C130	C	0.169287	1.478253	0.826216
C131	C	-0.307266	1.021548	0.369506
C132	C	0.192734	1.521548	0.869506
C133	C	-0.377631	0.978256	0.326216
C134	C	0.122369	1.478256	0.826216
C135	C	-0.401079	0.934962	0.282926
C136	C	0.098921	1.434962	0.782926
C137	C	-0.377608	0.891665	0.239635
C138	C	0.122392	1.391665	0.739635
C139	C	-0.330693	0.891667	0.239632
C140	C	0.169307	1.391667	0.739632
C141	C	-0.330736	1.064845	0.412796
C142	C	0.169264	1.564845	0.912796
C143	C	-0.377652	1.064840	0.412796
C144	C	0.122348	1.564840	0.912796
C145	C	-0.401099	1.021546	0.369506
C146	C	0.098901	1.521546	0.869506
C147	C	0.333147	0.978215	0.326191
C148	C	0.833147	1.478215	0.826191
C149	C	0.383082	0.978271	0.326217
C150	C	0.883082	1.478271	0.826217
C151	C	0.216396	0.978267	0.502726
C152	C	0.716396	1.478267	1.002726
C153	C	0.216384	0.978283	0.577958
C154	C	0.716384	1.478283	1.077958
C155	C	0.216434	1.154771	0.326206
C156	C	0.716434	1.654771	0.826206
C157	C	0.216437	1.230003	0.326216
C158	C	0.716437	1.730003	0.826216
C159	C	0.216420	0.978230	0.150328
C160	C	0.716420	1.478230	0.650328
C161	C	0.216306	0.978345	0.075096
C162	C	0.716306	1.478345	0.575096
C163	C	0.187651	1.021582	0.613311
C164	C	0.687651	1.521582	1.113311
C165	C	0.187638	1.021589	0.683999
C166	C	0.687638	1.521589	1.183999
C167	C	0.216361	0.978300	0.719334
C168	C	0.716361	1.478300	1.219334
C169	C	0.245095	0.934996	0.683977
C170	C	0.745095	1.434996	1.183977
C171	C	0.245105	0.934986	0.613290
C172	C	0.745105	1.434986	1.113290
C173	C	0.245053	0.935034	0.969050
C174	C	0.745053	1.435034	1.469050
C175	C	0.245041	0.935048	1.039742
C176	C	0.745041	1.435048	1.539742
C177	C	0.187586	1.021637	1.039760
C178	C	0.687586	1.521637	1.539760
C179	C	0.187597	1.021627	0.969073
C180	C	0.687597	1.521627	1.469073
C181	C	0.216329	0.978321	0.933722
C182	C	0.716329	1.478321	1.433722
C183	C	0.216342	0.978313	0.857073
C184	C	0.716342	1.478313	1.357073
C185	C	0.216350	0.978310	0.795981
C186	C	0.716350	1.478310	1.295981
H187	H	0.268620	0.720603	0.404574
H188	H	0.768620	1.220603	0.904574
Cl189	Cl	-0.266330	0.837234	0.185197
Cl190	Cl	0.233670	1.337234	0.685197
Cl191	Cl	0.281152	0.880622	1.084162
Cl192	Cl	0.781152	1.380622	1.584162
Cl193	Cl	-0.160507	1.119268	0.467235
Cl194	Cl	0.339493	1.619268	0.967235
Cl195	Cl	-0.160451	0.837236	0.185191
Cl196	Cl	0.339549	1.337236	0.685191
Cl197	Cl	-0.407094	0.837240	0.185212
Cl198	Cl	0.092906	1.337240	0.685212
Cl199	Cl	0.281202	0.880572	0.728398
Cl200	Cl	0.781202	1.380572	1.228398
Cl201	Cl	-0.407148	1.119276	0.467231
Cl202	Cl	0.092852	1.619276	0.967231
Cl203	Cl	0.151501	0.220875	0.228665
Cl204	Cl	0.651501	0.720875	0.728665
Cl205	Cl	-0.517084	1.075993	0.423946
Cl206	Cl	-0.017084	1.575993	0.923946
Cl207	Cl	0.281371	0.380505	0.423744
Cl208	Cl	0.781371	0.880505	0.923744
Cl209	Cl	0.281174	0.880592	0.924618
Cl210	Cl	0.781174	1.380592	1.424618
H211	H	0.044970	0.899723	0.247643
H212	H	0.544970	1.399723	0.747643
H213	H	0.268498	0.899720	0.584506
H214	H	0.768498	1.399720	1.084506
H215	H	-0.311650	1.100101	0.448049
H216	H	0.188350	1.600101	0.948049
H217	H	0.164189	1.056897	1.068552
H218	H	0.664189	1.556897	1.568552
Cl219	Cl	0.151535	1.076055	0.728440
Cl220	Cl	0.651535	1.576055	1.228440
H221	H	0.268622	0.592369	0.404589
H222	H	0.768622	1.092369	0.904589
H223	H	0.268634	0.236598	0.404617
H224	H	0.768634	0.736598	0.904617
Cl225	Cl	0.151489	0.380420	0.228656
Cl226	Cl	0.651489	0.880420	0.728656
H227	H	0.164209	1.056880	0.940307
H228	H	0.664209	1.556880	1.440307
Cl229	Cl	0.151486	0.576640	0.228642
Cl230	Cl	0.651486	1.076640	0.728642
Cl231	Cl	0.151480	0.736191	0.228625
Cl232	Cl	0.651480	1.236191	0.728625
H233	H	-0.040139	0.899708	0.247652
H234	H	0.459861	1.399708	0.747652
Cl235	Cl	-0.517032	0.880540	0.228488
Cl236	Cl	-0.017032	1.380540	0.728488
H237	H	-0.612547	0.899720	0.247673
H238	H	-0.112547	1.399720	0.747673
Cl239	Cl	-0.622968	1.076005	0.423932
Cl240	Cl	-0.122968	1.576005	0.923932
H241	H	-0.256002	1.100099	0.448061
H242	H	0.243998	1.600099	0.948061
Cl243	Cl	-0.301197	0.837234	0.185198
Cl244	Cl	0.198803	1.337234	0.685198
H245	H	-0.040186	1.056829	0.404740
H246	H	0.459814	1.556829	0.904740
H247	H	0.044937	1.056823	0.404734
H248	H	0.544937	1.556823	0.904734
H249	H	0.164264	1.056835	0.584546
H250	H	0.664264	1.556835	1.084546
