data_functionalizedCrystal
_audit_creation_method	'MofGen! by Chris Wilmer'
_symmetry_space_group_name_H-M	'P1'
_symmetry_Int_Tables_number	1
_symmetry_cell_setting	triclinic
loop_
_symmetry_equiv_pos_as_xyz
  x,y,z
_cell_length_a	16.109301
_cell_length_b	10.540510
_cell_length_c	14.586319
_cell_angle_alpha	89.998684
_cell_angle_beta	89.998857
_cell_angle_gamma	83.987447
loop_
_atom_site_label
_atom_site_type_symbol
_atom_site_fract_x
_atom_site_fract_y
_atom_site_fract_z
O1	O	1.104117	0.163163	-0.076185
O2	O	0.862178	0.183467	-0.076197
O3	O	0.988680	-0.011473	-0.076190
O4	O	0.977615	0.358103	-0.076192
O5	O	0.988671	-0.011476	0.076290
O6	O	0.862169	0.183465	0.076284
O7	O	1.104108	0.163160	0.076296
Cu8	Cu	0.983138	0.173312	0.090212
Cu9	Cu	0.983148	0.173315	-0.090114
O10	O	0.977606	0.358100	0.076289
C11	C	0.831194	0.182643	0.000042
C12	C	0.738883	0.180177	0.000037
C13	C	0.430536	0.287790	0.000052
C14	C	0.517270	0.290119	0.000047
C15	C	0.535745	0.058828	0.000036
C16	C	0.449012	0.056501	0.000034
C17	C	0.396409	0.170985	0.000047
C18	C	0.569877	0.175642	0.000043
C19	C	0.663918	0.178166	0.000038
C20	C	0.302362	0.168461	0.000051
C21	C	0.987851	-0.058766	0.000048
C22	C	0.985384	-0.199681	0.000042
C23	C	1.073265	-0.418389	0.000396
C24	C	1.075896	-0.271831	0.000048
C25	C	0.939056	-0.243777	-0.087032
C26	C	0.937065	-0.390510	-0.087100
C27	C	0.935170	-0.390295	0.086299
C28	C	0.939463	-0.244015	0.087445
C29	C	1.135092	0.163984	0.000055
C30	C	1.227403	0.166450	0.000054
C31	C	0.978435	0.405393	0.000049
C32	C	0.980902	0.546308	0.000048
N33	N	0.983136	0.173309	0.217044
N34	N	0.983156	0.173308	-0.216945
C35	C	1.039170	0.087018	0.452054
C36	C	1.039173	0.087015	0.548035
C37	C	0.927116	0.259603	0.548038
C38	C	0.927110	0.259599	0.452059
C39	C	0.983142	0.173308	0.404069
C40	C	0.983150	0.173309	0.596030
C41	C	0.983152	0.173306	0.700097
C42	C	0.983139	0.173309	0.299995
H43	H	0.545051	0.385232	0.000050
H44	H	1.084794	0.016753	0.412983
H45	H	0.387708	0.381010	0.000062
H46	H	0.578584	-0.034380	0.000027
H47	H	0.421227	-0.038621	0.000027
C48	C	1.124250	-0.233637	0.083331
C49	C	1.151355	-0.342615	0.134419
C50	C	1.195896	-0.307487	0.211153
H51	H	1.089149	-0.176386	0.120243
H52	H	1.171192	-0.193150	0.063811
H53	H	1.104420	-0.383082	0.153940
H54	H	1.186467	-0.399878	0.097534
H55	H	1.242838	-0.267000	0.191633
H56	H	1.160790	-0.250235	0.248057
H57	H	1.214299	-0.381423	0.245821
H58	H	1.108524	-0.460848	0.062842
H59	H	1.108327	-0.462393	-0.061693
H60	H	1.084795	0.016748	0.587101
H61	H	0.881497	0.329861	0.587121
C62	C	0.850148	-0.179552	-0.091322
C63	C	0.794234	-0.272676	-0.090100
C64	C	0.712327	-0.213555	-0.094040
H65	H	0.842712	-0.131124	-0.146177
H66	H	0.839946	-0.124717	-0.039954
H67	H	0.804432	-0.327489	-0.141464
H68	H	0.801643	-0.321110	-0.035250
H69	H	0.702125	-0.158720	-0.042672
H70	H	0.704900	-0.165128	-0.148895
H71	H	0.674379	-0.276729	-0.093203
C72	C	0.866411	0.353359	0.399838
C73	C	0.911151	0.431056	0.344711
C74	C	0.855264	0.517425	0.296584
H75	H	0.833023	0.404881	0.442060
H76	H	0.831546	0.307713	0.362349
H77	H	0.946001	0.476699	0.382197
H78	H	0.944536	0.379571	0.302472
H79	H	0.820399	0.471779	0.259094
H80	H	0.821880	0.568937	0.338812
H81	H	0.885612	0.570145	0.259168
H82	H	0.971236	-0.213378	-0.151829
C83	C	0.973313	-0.447175	0.174378
C84	C	1.003976	-0.350845	0.226602
C85	C	1.039118	-0.403196	0.307744
H86	H	1.017739	-0.510533	0.159959
H87	H	0.931916	-0.484657	0.208425
H88	H	1.045369	-0.313384	0.192562
H89	H	0.959566	-0.287480	0.241045
H90	H	0.997721	-0.440678	0.341791
H91	H	1.083541	-0.466554	0.293317
H92	H	1.059921	-0.337844	0.343192
C93	C	1.124513	-0.234381	-0.083251
C94	C	1.127028	-0.102008	-0.083770
C95	C	1.171811	-0.067466	-0.160492
H96	H	1.097926	-0.259411	-0.137474
H97	H	1.179785	-0.275702	-0.080711
H98	H	1.071767	-0.060702	-0.086318
H99	H	1.153622	-0.076946	-0.029565
H100	H	1.227083	-0.108786	-0.157952
H101	H	1.145219	-0.092503	-0.214709
H102	H	1.173530	0.022350	-0.160850
C103	C	0.979363	-0.444507	-0.173912
C104	C	1.006460	-0.344966	-0.225809
C105	C	1.045440	-0.394654	-0.305780
H106	H	0.940873	-0.486963	-0.208831
H107	H	1.025926	-0.503268	-0.158032
H108	H	0.959903	-0.286227	-0.241690
H109	H	1.044959	-0.302500	-0.190918
H110	H	1.092004	-0.453415	-0.289901
H111	H	1.006946	-0.437110	-0.340691
H112	H	1.063837	-0.327125	-0.340999
H113	H	0.869368	-0.412540	-0.091049
C114	C	0.851286	-0.177581	0.094489
C115	C	0.794136	-0.268917	0.093412
C116	C	0.712898	-0.207766	0.099901
H117	H	0.840687	-0.121218	0.044043
H118	H	0.845541	-0.130521	0.150084
H119	H	0.799878	-0.315955	0.037823
H120	H	0.804708	-0.325285	0.143855
H121	H	0.707153	-0.160706	0.155496
H122	H	0.702307	-0.151404	0.049453
H123	H	0.674112	-0.269728	0.099179
H124	H	0.973173	-0.215885	0.151862
H125	H	0.867213	-0.411476	0.086882
