data_functionalizedCrystal
_audit_creation_method	'MofGen! by Chris Wilmer'
_symmetry_space_group_name_H-M	'P1'
_symmetry_Int_Tables_number	1
_symmetry_cell_setting	triclinic
loop_
_symmetry_equiv_pos_as_xyz
  x,y,z
_cell_length_a	12.759399
_cell_length_b	19.077142
_cell_length_c	19.077271
_cell_angle_alpha	90.085571
_cell_angle_beta	87.710533
_cell_angle_gamma	92.289258
loop_
_atom_site_label
_atom_site_type_symbol
_atom_site_fract_x
_atom_site_fract_y
_atom_site_fract_z
Zn1	Zn	-0.508469	-1.058242	0.440465
Zn2	Zn	-0.677351	-1.062922	0.322965
Zn3	Zn	-0.494345	-0.945481	0.318255
Zn4	Zn	-0.676758	-0.940723	0.435712
O5	O	-0.589231	-1.001842	0.379349
O6	O	-0.537031	-1.157194	0.428838
O7	O	-0.647413	-1.051293	0.224009
O8	O	-0.349201	-0.960472	0.334485
O9	O	-0.661108	-1.160633	0.342511
O10	O	-0.359578	-1.043317	0.424272
O11	O	-0.512959	-0.965010	0.220549
O12	O	-0.512384	-0.846518	0.329876
O13	O	-0.660096	-0.952362	0.534673
O14	O	-0.646401	-0.843023	0.416171
O15	O	-0.536455	-1.038703	0.538165
O16	O	-0.824290	-1.046679	0.337903
O17	O	-0.823854	-0.956900	0.420738
C18	C	-0.862195	-1.001800	0.379332
C19	C	-0.978975	-1.001845	0.379350
C20	C	-0.577796	-0.819274	0.371997
C21	C	-0.572931	-0.741170	0.368869
C22	C	-0.599785	-0.994480	0.562628
C23	C	-0.604283	-0.991342	0.640731
C24	C	-1.034035	-1.048642	0.336271
C25	C	-1.143764	-1.048686	0.336296
C26	C	-1.143361	-0.955130	0.422482
C27	C	-1.033636	-0.955090	0.422460
C28	C	-1.297374	-1.132638	0.314625
C29	C	-1.352437	-1.179430	0.271534
C30	C	-1.313588	-1.193014	0.203409
C31	C	-1.219677	-1.159796	0.178359
C32	C	-1.164619	-1.113000	0.221446
C33	C	-1.203468	-1.099429	0.289582
C34	C	-0.880022	-0.871137	0.444124
C35	C	-0.824962	-0.824336	0.487207
C36	C	-0.863809	-0.810745	0.555333
C37	C	-0.957723	-0.843950	0.580380
C38	C	-1.012783	-0.890751	0.537297
C39	C	-0.973929	-0.904343	0.469171
C40	C	-0.315203	-1.001903	0.379383
C41	C	-0.198429	-1.001929	0.379398
C42	C	-0.640518	-0.702678	0.412258
C43	C	-0.635932	-0.629291	0.409322
C44	C	-0.563764	-0.594397	0.362993
C45	C	-0.496170	-0.632895	0.319602
C46	C	-0.500751	-0.706281	0.322542
C47	C	-0.542566	-0.375111	0.349392
C48	C	-0.537992	-0.301720	0.346454
C49	C	-0.677754	-0.298121	0.436175
C50	C	-0.682333	-0.371508	0.439108
C51	C	-0.614735	-0.409999	0.395720
N52	N	-0.559078	-0.519384	0.359989
N53	N	-0.619417	-0.485011	0.398728
C54	C	-0.600705	-0.185123	0.386722
C55	C	-0.605579	-0.263227	0.389842
C56	C	-0.542025	-1.034819	0.679242
C57	C	-0.546247	-1.031863	0.752628
C58	C	-0.612732	-0.985433	0.787500
C59	C	-0.674992	-0.941951	0.748983
C60	C	-0.670764	-0.944904	0.675599
C61	C	-0.632273	-0.971776	1.006779
C62	C	-0.636499	-0.968827	1.080169
C63	C	-0.507752	-1.058739	1.083809
C64	C	-0.503535	-1.061691	1.010423
C65	C	-0.565790	-1.018207	0.971912
N66	N	-0.617051	-0.982411	0.862511
N67	N	-0.561465	-1.021225	0.896902
C68	C	-0.578740	-1.009170	1.196783
C69	C	-0.574241	-1.012304	1.118681
H70	H	-0.989534	-1.086714	0.301170
O71	O	-0.468011	-0.267785	0.301389
C72	C	-0.522430	-0.227120	0.254242
H73	H	-0.606282	-0.249409	0.250661
H74	H	-0.481107	-0.228431	0.200186
H75	H	-0.523904	-0.170641	0.273753
O76	O	-0.743361	-0.260801	0.478426
C77	C	-0.725688	-0.275926	0.549203
H78	H	-0.688721	-0.329156	0.552837
H79	H	-0.803546	-0.277169	0.580730
H80	H	-0.670509	-0.233686	0.571275
H81	H	-0.487530	-0.406441	0.314057
O82	O	-0.752535	-0.405440	0.484017
C83	C	-0.820621	-0.449498	0.445637
H84	H	-0.822425	-0.429591	0.389402
H85	H	-0.903041	-0.449315	0.470996
H86	H	-0.791457	-0.505213	0.445478
H87	H	-0.682982	-0.936378	0.975433
H88	H	-1.088157	-1.085956	0.201052
H89	H	-0.437405	-0.604479	0.281883
O90	O	-0.485919	-1.074121	0.790121
C91	C	-0.551015	-1.117793	0.834388
H92	H	-0.629717	-1.092553	0.844369
H93	H	-0.511780	-1.125131	0.886378
H94	H	-0.564185	-1.171007	0.808215
O95	O	-0.435059	-0.743568	0.280319
C96	C	-0.370363	-0.697036	0.238808
H97	H	-0.409980	-0.644817	0.234230
H98	H	-0.357167	-0.720453	0.184306
H99	H	-0.291629	-0.688211	0.264317
H100	H	-1.089251	-0.917791	0.557697
H101	H	-0.449399	-1.099501	0.982035
H102	H	-0.699288	-0.731083	0.449982
O103	O	-0.701107	-0.923659	1.113933
C104	C	-0.755169	-0.885924	1.064208
H105	H	-0.708971	-0.885601	1.011805
H106	H	-0.764126	-0.829706	1.083182
H107	H	-0.836124	-0.911949	1.057429
O108	O	-0.810459	-0.765297	0.597275
C109	C	-0.864863	-0.760453	0.662789
H110	H	-0.951125	-0.776274	0.656708
H111	H	-0.858000	-0.704171	0.682761
H112	H	-0.829456	-0.796996	0.701874
O113	O	-0.733816	-0.792048	0.462770
C114	C	-0.753211	-0.751872	0.403028
H115	H	-0.827503	-0.773428	0.378026
H116	H	-0.683941	-0.754761	0.363638
H117	H	-0.763871	-0.694941	0.419111
H118	H	-0.457066	-1.094140	1.115172
O119	O	-1.182069	-1.173089	0.112170
C120	C	-1.250815	-1.221501	0.079506
H121	H	-1.298441	-1.253009	0.121291
H122	H	-1.203376	-1.258597	0.045079
H123	H	-1.306216	-1.192046	0.045736
H124	H	-0.729121	-0.904144	0.777381
H125	H	-1.187879	-0.917062	0.457579
O126	O	-1.335144	-1.119576	0.380826
C127	C	-1.342628	-1.182613	0.419516
H128	H	-1.348283	-1.229010	0.381943
H129	H	-1.415659	-1.182930	0.455963
H130	H	-1.269997	-1.186872	0.451927
O131	O	-0.731359	-0.902653	0.638294
C132	C	-0.790935	-0.861031	0.684807
H133	H	-0.799377	-0.887703	0.738281
H134	H	-0.872025	-0.854381	0.663294
H135	H	-0.749581	-0.807354	0.690458
H136	H	-1.358428	-1.231113	0.168325
O137	O	-0.477350	-1.079941	0.645480
C138	C	-0.423324	-1.117691	0.695212
H139	H	-0.420899	-1.086804	0.746362
H140	H	-0.339796	-1.126058	0.674324
H141	H	-0.465589	-1.170736	0.705166
H142	H	-1.428900	-1.206475	0.291936
H143	H	-0.848379	-0.882205	0.388651
O144	O	-0.995498	-0.830879	0.646579
C145	C	-1.002985	-0.893910	0.685280
H146	H	-1.008644	-0.940313	0.647714
H147	H	-1.076015	-0.894220	0.721727
H148	H	-0.930354	-0.898165	0.717691
H149	H	-0.690970	-0.597953	0.444653
