data_functionalizedCrystal
_audit_creation_method	'MofGen! by Chris Wilmer'
_symmetry_space_group_name_H-M	'P1'
_symmetry_Int_Tables_number	1
_symmetry_cell_setting	triclinic
loop_
_symmetry_equiv_pos_as_xyz
  x,y,z
_cell_length_a	12.759400
_cell_length_b	12.759401
_cell_length_c	14.909241
_cell_angle_alpha	93.315644
_cell_angle_beta	86.675800
_cell_angle_gamma	89.986693
loop_
_atom_site_label
_atom_site_type_symbol
_atom_site_fract_x
_atom_site_fract_y
_atom_site_fract_z
Zn1	Zn	-0.384000	-1.640520	-0.510103
Zn2	Zn	-0.569845	-1.630282	-0.359249
Zn3	Zn	-0.394176	-1.454690	-0.359259
Zn4	Zn	-0.559636	-1.464808	-0.510064
O5	O	-0.476914	-1.547575	-0.434669
O6	O	-0.408667	-1.786184	-0.490104
O7	O	-0.555074	-1.598469	-0.233005
O8	O	-0.245804	-1.479391	-0.379290
O9	O	-0.545207	-1.778662	-0.379272
O10	O	-0.238327	-1.615920	-0.490114
O11	O	-0.426011	-1.469463	-0.233012
O12	O	-0.416111	-1.309010	-0.379251
O13	O	-0.527806	-1.496637	-0.636315
O14	O	-0.537673	-1.316444	-0.490047
O15	O	-0.398767	-1.625731	-0.636344
O16	O	-0.715514	-1.608281	-0.379234
O17	O	-0.708012	-1.486708	-0.490037
C18	C	-0.476889	-1.274606	-0.434647
C19	C	-0.476902	-1.157830	-0.434659
C20	C	-0.547919	-0.989324	-0.376883
C21	C	-0.547900	-1.099047	-0.376870
C22	C	-0.405911	-1.106885	-0.492458
C23	C	-0.405925	-0.997163	-0.492465
C24	C	-0.618929	-0.930546	-0.319097
C25	C	-0.689919	-0.981484	-0.261297
C26	C	-0.689901	-1.091207	-0.261284
C27	C	-0.618892	-1.149993	-0.319071
C28	C	-0.749883	-1.547511	-0.434650
C29	C	-0.866658	-1.547582	-0.434672
C30	C	-0.925387	-1.610964	-0.377041
C31	C	-1.035109	-1.611030	-0.377068
C32	C	-1.027364	-1.484325	-0.492362
C33	C	-0.917643	-1.484265	-0.492338
C34	C	-0.874401	-1.674282	-0.319375
C35	C	-0.933130	-1.737667	-0.261738
C36	C	-1.042853	-1.737734	-0.261766
C37	C	-1.093846	-1.674414	-0.319431
C38	C	-0.202878	-1.547669	-0.434707
C39	C	-0.086101	-1.547709	-0.434724
C40	C	-0.461012	-1.563455	-0.669978
C41	C	-0.454235	-1.570222	-0.770253
C42	C	-0.476936	-0.821609	-0.434686
C43	C	-0.476935	-0.938386	-0.434680
C44	C	-0.575894	-1.448514	-0.958652
C45	C	-0.569530	-1.454869	-1.052870
C46	C	-0.435150	-1.589291	-1.052907
C47	C	-0.441514	-1.582936	-0.958690
C48	C	-0.511887	-1.512544	-0.911566
C49	C	-0.518245	-1.506185	-0.817347
C50	C	-0.383871	-1.640611	-0.817386
C51	C	-0.377507	-1.646966	-0.911603
C52	C	-0.492679	-1.531817	-0.200275
C53	C	-0.499160	-1.525254	-0.100000
H54	H	-0.747727	-0.933614	-0.214245
F55	F	-1.210642	-1.674129	-0.319165
H56	H	-1.068891	-1.432772	-0.539309
F57	F	-0.618864	-1.266770	-0.319043
H58	H	-0.747698	-1.132677	-0.214214
H59	H	-0.785061	-1.674232	-0.319343
F60	F	-0.637657	-1.386722	-1.102980
F61	F	-0.878858	-1.805061	-0.200378
H62	H	-0.348099	-1.154756	-0.539506
H63	H	-0.348119	-0.955688	-0.539525
F64	F	-0.855136	-1.416809	-0.553677
H65	H	-1.090667	-1.789353	-0.214842
H66	H	-0.575536	-1.448858	-0.778980
H67	H	-0.633175	-1.391179	-0.920283
F68	F	-0.360271	-1.664211	-1.103074
F69	F	-0.302618	-1.721881	-0.961765
F70	F	-0.315762	-1.708778	-0.767266
H71	H	-0.618953	-0.841204	-0.319103
