data_functionalizedCrystal
_audit_creation_method	'MofGen! by Chris Wilmer'
_symmetry_space_group_name_H-M	'P1'
_symmetry_Int_Tables_number	1
_symmetry_cell_setting	triclinic
loop_
_symmetry_equiv_pos_as_xyz
  x,y,z
_cell_length_a	27.440280
_cell_length_b	16.704494
_cell_length_c	27.440280
_cell_angle_alpha	123.368941
_cell_angle_beta	89.992545
_cell_angle_gamma	63.425370
loop_
_atom_site_label
_atom_site_type_symbol
_atom_site_fract_x
_atom_site_fract_y
_atom_site_fract_z
Zr1	Zr	0.496951	0.878483	0.091343
O2	O	0.424358	1.045960	0.174404
O3	O	0.515575	0.711025	0.062253
O4	O	0.520798	0.878490	0.169159
O5	O	0.419143	0.878482	-0.012704
O6	O	0.601001	0.878475	0.169148
O7	O	0.419135	0.878494	0.067498
O8	O	0.591658	0.578909	-0.022086
O9	O	0.428486	1.178048	0.178530
O10	O	0.587757	0.779884	0.054222
O11	O	0.527909	0.779887	-0.005624
O12	O	0.534059	0.977056	0.120243
O13	O	0.474211	0.977058	0.060397
Zr14	Zr	0.624878	0.878439	-0.036587
Zr15	Zr	0.624864	0.878458	0.091327
Zr16	Zr	0.496964	0.878464	-0.036570
Zr17	Zr	0.503535	1.089148	0.097925
Zr18	Zr	0.618293	0.667774	-0.043168
O19	O	0.606253	1.045897	-0.007496
O20	O	0.606234	1.045925	0.174380
O21	O	0.424377	1.045932	-0.007473
O22	O	0.697471	0.710962	-0.119647
O23	O	0.697452	0.710989	0.062229
O24	O	0.515594	0.710997	-0.119623
O25	O	0.702685	0.878440	0.067461
O26	O	0.601030	0.878432	-0.114402
O27	O	0.520828	0.878447	-0.114391
O28	O	0.702694	0.878428	-0.012741
O29	O	0.530160	1.178028	0.178517
O30	O	0.591668	0.578894	-0.123760
O31	O	0.693342	0.578874	-0.123773
O32	O	0.693332	0.578890	-0.022100
O33	O	0.428497	1.178032	0.076856
O34	O	0.530171	1.178013	0.076843
O35	O	0.587770	0.779866	-0.065486
O36	O	0.647618	0.779864	-0.005640
O37	O	0.593919	0.977035	0.060381
O38	O	0.534071	0.977038	0.000535
C39	C	0.552678	0.614952	0.019146
C40	C	0.549883	0.525519	0.016352
C41	C	0.607126	0.357447	0.073577
C42	C	0.604501	0.273417	0.070953
C43	C	0.542013	0.273422	0.008477
C44	C	0.544638	0.357452	0.011101
C45	C	0.577195	0.399463	0.043653
C46	C	0.579816	0.483500	0.046280
C47	C	0.517331	0.483498	-0.016200
C48	C	0.514706	0.399468	-0.018823
C49	C	0.400914	0.878492	0.027399
C50	C	0.346612	0.878502	0.027407
C51	C	0.037942	0.775521	-0.007101
C52	C	-0.013077	0.775514	-0.007107
O53	O	-0.015626	0.687984	-0.036434
N54	N	-0.066623	0.878435	0.027356
C55	C	-0.069151	0.981368	0.061822
O56	O	-0.119381	1.068909	0.091135
C57	C	-0.018133	0.981373	0.061824
C58	C	0.035413	0.878446	0.027363
C59	C	0.091486	0.672602	-0.041559
C60	C	0.142501	0.672609	-0.041553
C61	C	0.139972	0.775534	-0.007088
C62	C	0.086428	0.878453	0.027370
C63	C	-0.020661	1.084306	0.096286
C64	C	0.030363	1.084302	0.096284
C65	C	0.083909	0.981375	0.061824
C66	C	0.134915	0.981385	0.061841
N67	N	0.188461	0.878465	0.027378
C68	C	0.190990	0.775539	-0.007086
C69	C	-0.176290	0.981350	0.061815
C70	C	-0.227307	0.981346	0.061818
C71	C	-0.171230	0.775492	-0.007112
C72	C	-0.120212	0.775497	-0.007111
C73	C	-0.122743	0.878429	0.027352
C74	C	0.298123	0.775561	-0.007070
C75	C	0.349140	0.775577	-0.007058
C76	C	0.293058	0.981430	0.061869
C77	C	0.242045	0.981415	0.061860
C78	C	0.244582	0.878471	0.027386
O79	O	0.137509	1.068871	0.091151
O80	O	0.241223	0.688013	-0.036400
C81	C	0.720914	0.878430	0.027357
C82	C	0.775217	0.878420	0.027350
C83	C	0.560898	0.878485	0.187378
C84	C	0.560892	0.878493	0.241681
C85	C	0.569150	1.141970	0.035611
C86	C	0.571945	1.231403	0.038405
C87	C	0.516723	0.878470	0.476375
C88	C	0.516721	0.878470	0.425355
O89	O	0.479154	0.878439	0.398958
N90	N	0.560903	0.878469	0.399836
C91	C	0.605094	0.878456	0.425336
O92	O	0.642674	0.878454	0.398945
C93	C	0.605098	0.878447	0.476353
C94	C	0.560910	0.878460	0.501873
C95	C	0.472539	0.878481	0.501895
C96	C	0.472541	0.878482	0.552913
C97	C	0.516727	0.878473	0.578410
C98	C	0.560911	0.878461	0.552890
C99	C	0.649290	0.878426	0.501849
C100	C	0.649291	0.878416	0.552869
C101	C	0.605102	0.878429	0.578389
C102	C	0.605100	0.878453	0.629405
N103	N	0.560917	0.878454	0.654924
C104	C	0.516731	0.878464	0.629427
C105	C	0.605083	0.878473	0.318198
C106	C	0.605077	0.878489	0.267185
C107	C	0.516704	0.878502	0.267207
C108	C	0.516708	0.878493	0.318223
C109	C	0.560900	0.878474	0.343717
C110	C	0.516738	0.878468	0.736567
C111	C	0.516743	0.878474	0.787590
C112	C	0.605117	0.878456	0.787562
C113	C	0.605111	0.878456	0.736545
C114	C	0.560919	0.878458	0.711048
O115	O	0.642648	0.878480	0.655833
O116	O	0.479161	0.878451	0.655819
C117	C	0.560929	0.878446	0.867382
C118	C	0.560929	0.878464	0.813088
C119	C	0.712679	0.614921	0.019125
C120	C	0.764186	0.525478	0.016324
C121	C	0.552695	0.614928	-0.140854
C122	C	0.549906	0.525487	-0.197951
C123	C	0.712695	0.614897	-0.140875
C124	C	0.764208	0.525445	-0.197979
C125	C	0.409133	1.142025	0.195632
C126	C	0.357620	1.231477	0.252736
C127	C	0.409150	1.142001	0.035632
C128	C	0.357643	1.231444	0.038433
C129	C	0.569133	1.141994	0.195611
C130	C	0.571923	1.231435	0.252707
C131	C	0.757128	0.483485	0.046261
C132	C	0.805520	0.399455	0.043641
C133	C	0.860970	0.357414	0.011080
C134	C	0.868027	0.399415	-0.018858
C135	C	0.819635	0.483449	-0.016234
C136	C	0.579842	0.483474	-0.256016
C137	C	0.577219	0.399446	-0.309669
C138	C	0.544663	0.357428	-0.305255
C139	C	0.514723	0.399449	-0.247183
C140	C	0.517343	0.483481	-0.193531
C141	C	0.819645	0.483437	-0.193556
C142	C	0.868052	0.399400	-0.247206
C143	C	0.861022	0.357367	-0.305278
C144	C	0.805579	0.399384	-0.309699
C145	C	0.757174	0.483425	-0.256050
C146	C	0.302184	1.273495	0.248313
C147	C	0.253778	1.357559	0.301964
C148	C	0.260808	1.399596	0.360036
C149	C	0.316250	1.357574	0.364457
C150	C	0.364656	1.273518	0.310807
C151	C	0.364701	1.273446	0.008502
C152	C	0.316309	1.357498	0.011136
C153	C	0.260860	1.399543	0.043699
C154	C	0.253803	1.357538	0.073634
C155	C	0.302194	1.273492	0.071003
C156	C	0.604485	1.273427	0.248273
C157	C	0.607117	1.357455	0.301916
C158	C	0.577184	1.399495	0.359993
C159	C	0.544621	1.357495	0.364426
C160	C	0.541992	1.273463	0.310783
H161	H	0.488201	0.365248	-0.045328
C162	C	0.183963	1.093281	0.099303
C163	C	0.192671	1.183419	0.129481
C164	C	0.139183	1.286487	0.163972
H165	H	0.162847	1.097711	0.129043
H166	H	0.162891	1.097630	0.072482
H167	H	0.213734	1.179072	0.156300
H168	H	0.213778	1.179027	0.099756
H169	H	0.118111	1.290837	0.137152
H170	H	0.118071	1.290906	0.193709
H171	H	0.145084	1.347658	0.184448
C172	C	0.541920	0.266146	-0.363583
C173	C	0.575121	0.238332	-0.415377
C174	C	0.572618	0.154236	-0.469121
H175	H	0.503005	0.293575	-0.362815
H176	H	0.556627	0.200525	-0.365678
H177	H	0.560412	0.303940	-0.413282
H178	H	0.614041	0.210885	-0.416165
H179	H	0.587326	0.088615	-0.471217
H180	H	0.533702	0.181673	-0.468347
H181	H	0.595149	0.135346	-0.504270
H182	H	0.322067	1.391685	-0.013243
C183	C	0.479445	0.353614	-0.242527
C184	C	0.483583	0.271000	-0.301946
C185	C	0.451106	0.228725	-0.297684
H186	H	0.440198	0.413815	-0.219476
H187	H	0.493864	0.320755	-0.222389
H188	H	0.469161	0.303859	-0.322076
H189	H	0.522822	0.210778	-0.325008
H190	H	0.465526	0.195867	-0.277546
H191	H	0.411862	0.288934	-0.274631
H192	H	0.453914	0.172660	-0.337999
H193	H	0.628875	0.239209	0.095319
H194	H	0.900368	0.288988	0.008948
H195	H	0.409846	1.239220	-0.018018
H196	H	0.296439	1.239297	0.095376
H197	H	0.913180	0.365173	-0.045368
C198	C	0.697023	0.529040	-0.260946
C199	C	0.692101	0.577245	-0.290716
C200	C	0.636703	0.619257	-0.295250
H201	H	0.669142	0.585164	-0.220721
H202	H	0.690669	0.468702	-0.284064
H203	H	0.698449	0.637576	-0.267597
H204	H	0.719971	0.521142	-0.330945
H205	H	0.630349	0.558920	-0.318368
H206	H	0.608826	0.675378	-0.255023
H207	H	0.633358	0.651960	-0.315454
H208	H	0.825390	0.517629	-0.040616
C209	C	0.637053	1.227896	0.185278
C210	C	0.666143	1.282645	0.192889
C211	C	0.696161	1.240722	0.134873
H212	H	0.610576	1.241658	0.164456
H213	H	0.664169	1.148552	0.161586
H214	H	0.639030	1.361971	0.216572
H215	H	0.692629	1.268888	0.213700
H216	H	0.723277	1.161378	0.111181
H217	H	0.669681	1.254487	0.114056
H218	H	0.715906	1.277855	0.140029
C219	C	0.208394	1.490746	0.046450
C220	C	0.226450	1.518499	0.013250
C221	C	0.178137	1.602496	0.015760
H222	H	0.187319	1.556415	0.088277
H223	H	0.184452	1.463218	0.028835
H224	H	0.250383	1.546030	0.030868
H225	H	0.247519	1.452855	-0.028580
H226	H	0.154195	1.574968	-0.001855
H227	H	0.157065	1.668157	0.057588
H228	H	0.190381	1.621329	-0.006770
C229	C	0.653049	0.878307	0.239336
C230	C	0.643619	0.878229	0.189170
C231	C	0.687826	0.877962	0.163469
H232	H	0.689119	0.812405	0.225608
H233	H	0.653355	0.944100	0.269661
H234	H	0.643318	0.812443	0.158850
H235	H	0.607556	0.944126	0.202881
H236	H	0.688133	0.943754	0.193794
H237	H	0.723894	0.812059	0.149745
H238	H	0.681431	0.877919	0.129432
C239	C	0.468686	0.878728	0.346028
C240	C	0.439638	0.975874	0.407845
C241	C	0.395391	0.976133	0.433471
H242	H	0.484713	0.812957	0.343942
H243	H	0.442341	0.878798	0.323567
H244	H	0.465978	0.975793	0.430299
H245	H	0.423598	1.041661	0.409948
H246	H	0.369046	0.976204	0.411011
H247	H	0.411423	0.910358	0.431381
H248	H	0.375672	1.042050	0.475415
C249	C	0.193542	1.403349	0.297284
C250	C	0.152650	1.485987	0.356694
C251	C	0.097157	1.528201	0.352406
H252	H	0.187106	1.343126	0.274240
H253	H	0.190071	1.436175	0.277127
H254	H	0.156119	1.453161	0.376843
H255	H	0.159067	1.546231	0.379748
H256	H	0.093686	1.561027	0.332249
H257	H	0.090727	1.467970	0.329361
H258	H	0.069406	1.584282	0.392714
H259	H	0.515514	0.239190	-0.018033
H260	H	0.606353	0.517676	-0.259622
H261	H	0.492966	0.517677	-0.146254
H262	H	0.825380	0.517648	-0.146276
C263	C	0.512221	1.403133	0.427521
C264	C	0.551456	1.382721	0.458000
C265	C	0.521627	1.424769	0.516129
H266	H	0.492445	1.366149	0.422574
H267	H	0.485152	1.482499	0.451230
H268	H	0.578515	1.303370	0.434296
H269	H	0.571234	1.419705	0.462963
H270	H	0.494559	1.504135	0.539838
H271	H	0.501853	1.387782	0.511176
H272	H	0.548243	1.410935	0.536818
H273	H	0.409793	1.239307	0.314415
H274	H	0.492956	0.517720	-0.040563
H275	H	0.208649	1.391783	0.100146
H276	H	0.633632	1.391643	0.298295
C277	C	0.407221	0.663703	-0.044541
C278	C	0.398511	0.573567	-0.074738
C279	C	0.451998	0.470497	-0.109279
H280	H	0.428329	0.659263	-0.017769
H281	H	0.428302	0.659359	-0.074271
H282	H	0.377439	0.577909	-0.045012
H283	H	0.377412	0.577969	-0.101521
H284	H	0.473079	0.466154	-0.139009
H285	H	0.473102	0.466070	-0.082502
H286	H	0.446095	0.409328	-0.129777
C287	C	0.609797	0.353931	-0.372658
C288	C	0.638885	0.408688	-0.365035
C289	C	0.668908	0.366780	-0.423044
H290	H	0.583323	0.367698	-0.393482
H291	H	0.636914	0.274587	-0.396354
H292	H	0.611771	0.488014	-0.341348
H293	H	0.665368	0.394927	-0.344221
H294	H	0.696025	0.287436	-0.446740
H295	H	0.642430	0.380549	-0.443863
H296	H	0.688652	0.403919	-0.417880
H297	H	0.913191	0.365198	-0.243595
H298	H	0.579329	1.467920	0.403668
H299	H	0.900442	0.288935	-0.348958
H300	H	0.799864	0.365148	-0.356988
C301	C	0.506576	1.228074	0.315734
C302	C	0.480914	1.282909	0.378079
C303	C	0.448277	1.241142	0.382668
H304	H	0.531000	1.148742	0.294697
H305	H	0.477410	1.241899	0.297599
H306	H	0.510076	1.269075	0.396205
H307	H	0.456481	1.362240	0.399127
H308	H	0.419111	1.254967	0.364534
H309	H	0.472705	1.161810	0.361629
H310	H	0.430857	1.278348	0.424969
H311	H	0.633631	0.391661	0.100087
C312	C	0.615219	0.528925	0.081623
C313	C	0.640883	0.474115	0.107252
C314	C	0.673509	0.515913	0.139806
H315	H	0.590787	0.608258	0.113714
H316	H	0.644383	0.515104	0.054224
H317	H	0.611723	0.487944	0.134649
H318	H	0.665325	0.394783	0.075175
H319	H	0.702674	0.502093	0.112407
H320	H	0.649073	0.595246	0.171894
H321	H	0.690931	0.478724	0.157194
H322	H	-0.270903	1.065160	0.089886
C323	C	0.300846	0.663829	-0.044584
C324	C	0.273223	0.657773	-0.088319
C325	C	0.275726	0.554858	-0.122890
H326	H	0.282095	0.659439	-0.017823
H327	H	0.340039	0.602510	-0.065139
H328	H	0.234038	0.719075	-0.067766
H329	H	0.291968	0.662144	-0.115094
H330	H	0.314919	0.493539	-0.143445
H331	H	0.256975	0.550477	-0.096124
H332	H	0.256990	0.550731	-0.152572
H333	H	0.296448	1.239273	0.201033
H334	H	0.291009	1.065230	0.089931
C335	C	0.208323	1.490887	0.418355
C336	C	0.226339	1.518733	0.470163
C337	C	0.178004	1.602830	0.523894
H338	H	0.184349	1.463450	0.417578
H339	H	0.187290	1.556498	0.420440
H340	H	0.247362	1.453136	0.468079
H341	H	0.250306	1.546189	0.470960
H342	H	0.156972	1.668441	0.525979
H343	H	0.154034	1.575384	0.523111
H344	H	0.190222	1.621742	0.559053
C345	C	0.094360	0.560724	-0.078994
C346	C	0.152177	0.470609	-0.109153
C347	C	0.154854	0.367523	-0.143636
H348	H	0.075674	0.556260	-0.108745
H349	H	0.075649	0.556383	-0.052170
H350	H	0.170880	0.474948	-0.135976
H351	H	0.170874	0.475035	-0.079417
H352	H	0.136143	0.363182	-0.116811
H353	H	0.136165	0.363071	-0.173383
H354	H	0.194082	0.306368	-0.164098
C355	C	-0.062134	0.663628	-0.044595
C356	C	-0.070848	0.573498	-0.074786
C357	C	-0.017362	0.470424	-0.109331
H358	H	-0.041022	0.659187	-0.017826
H359	H	-0.041057	0.659282	-0.074328
H360	H	-0.091916	0.577841	-0.045056
H361	H	-0.091951	0.577902	-0.101565
H362	H	0.003715	0.466078	-0.139065
H363	H	0.003746	0.465994	-0.082558
H364	H	-0.023267	0.409258	-0.129825
H365	H	0.186096	0.588795	-0.069611
C366	C	-0.179009	1.093081	0.099131
C367	C	-0.151367	1.099120	0.059447
C368	C	-0.153870	1.202034	0.093797
H369	H	-0.160269	1.097482	0.128837
H370	H	-0.218201	1.154400	0.119638
H371	H	-0.112182	1.037817	0.038950
H372	H	-0.170100	1.094739	0.029741
H373	H	-0.193063	1.263354	0.114304
H374	H	-0.135131	1.206426	0.123502
H375	H	-0.135121	1.206150	0.066876
H376	H	-0.169179	0.691684	-0.035173
H377	H	-0.064252	1.168120	0.124346
C378	C	0.653110	0.878236	0.345828
C379	C	0.682165	0.781079	0.342571
C380	C	0.726416	0.780813	0.368007
H381	H	0.637085	0.944000	0.387794
H382	H	0.679450	0.878177	0.323316
H383	H	0.655830	0.781148	0.365084
H384	H	0.698203	0.715299	0.300612
H385	H	0.752756	0.780754	0.345495
H386	H	0.710386	0.846581	0.409972
H387	H	0.746139	0.714888	0.365796
H388	H	0.685279	0.878397	0.573622
C389	C	0.323912	1.402934	0.427482
C390	C	0.352362	1.313747	0.431088
C391	C	0.359414	1.355459	0.489143
H392	H	0.287163	1.458935	0.458820
H393	H	0.346158	1.435711	0.433075
H394	H	0.330116	1.280987	0.425502
H395	H	0.389116	1.257738	0.399763
H396	H	0.381660	1.388236	0.494735
H397	H	0.322663	1.411460	0.520476
H398	H	0.378723	1.294951	0.491595
H399	H	0.028296	1.168124	0.124341
H400	H	0.480757	0.878487	0.808368
H401	H	0.436560	0.878488	0.573687
C402	C	0.468744	0.878657	0.708889
C403	C	0.439712	0.975786	0.712117
C404	C	0.395500	0.976000	0.686623
H405	H	0.442375	0.878725	0.731365
H406	H	0.484818	0.812850	0.666921
H407	H	0.423638	1.041576	0.754078
H408	H	0.466065	0.975738	0.689639
H409	H	0.411574	0.910193	0.644655
H410	H	0.369136	0.976065	0.709101
H411	H	0.375800	1.041895	0.688804
C412	C	0.424636	0.878270	0.474117
C413	C	0.448492	0.781128	0.412300
C414	C	0.404374	0.780900	0.386701
H415	H	0.404838	0.944044	0.476205
H416	H	0.398328	0.878216	0.496593
H417	H	0.474790	0.781192	0.389831
H418	H	0.468285	0.715338	0.410195
H419	H	0.378066	0.780845	0.409177
H420	H	0.384579	0.846678	0.388794
H421	H	0.420554	0.714985	0.344758
C422	C	0.468717	0.878684	0.239514
C423	C	0.439690	0.975811	0.242740
C424	C	0.395488	0.976013	0.217229
H425	H	0.442344	0.878745	0.261980
H426	H	0.484801	0.812876	0.197545
H427	H	0.423606	1.041602	0.284702
H428	H	0.466047	0.975771	0.220272
H429	H	0.411571	0.910205	0.175260
H430	H	0.369119	0.976071	0.239697
H431	H	0.375791	1.041907	0.219409
C432	C	0.697337	0.878345	0.474216
C433	C	0.736039	0.878295	0.507462
C434	C	0.780314	0.878201	0.482019
H435	H	0.681325	0.944167	0.476353
H436	H	0.717139	0.812473	0.432266
H437	H	0.716239	0.944160	0.549401
H438	H	0.752066	0.812477	0.505328
H439	H	0.800116	0.812329	0.440069
H440	H	0.764297	0.944025	0.484157
H441	H	0.806581	0.878157	0.504568
H442	H	0.641088	0.878462	0.715772
C443	C	0.653047	0.878661	0.815295
C444	C	0.653253	0.975799	0.835425
C445	C	0.697398	0.976018	0.860978
H446	H	0.689166	0.812884	0.784922
H447	H	0.646725	0.878715	0.849357
H448	H	0.659579	0.975734	0.801367
H449	H	0.617144	1.041591	0.865805
H450	H	0.691076	0.976072	0.895040
H451	H	0.733515	0.910237	0.830601
H452	H	0.697541	1.041929	0.874645
H453	H	0.711983	0.517714	0.072783
C454	C	0.797808	0.353734	0.076047
C455	C	0.765057	0.305468	0.051668
C456	C	0.757946	0.263327	0.081498
H457	H	0.778458	0.413986	0.119042
H458	H	0.834555	0.297616	0.069814
H459	H	0.728317	0.361581	0.057906
H460	H	0.784398	0.245203	0.008676
H461	H	0.794693	0.207209	0.075265
H462	H	0.738597	0.323584	0.124492
H463	H	0.735729	0.230564	0.064957
