data_functionalizedCrystal
_audit_creation_method	'MofGen! by Chris Wilmer'
_symmetry_space_group_name_H-M	'P1'
_symmetry_Int_Tables_number	1
_symmetry_cell_setting	triclinic
loop_
_symmetry_equiv_pos_as_xyz
  x,y,z
_cell_length_a	16.959455
_cell_length_b	18.050589
_cell_length_c	16.959447
_cell_angle_alpha	89.967762
_cell_angle_beta	89.977004
_cell_angle_gamma	90.017554
loop_
_atom_site_label
_atom_site_type_symbol
_atom_site_fract_x
_atom_site_fract_y
_atom_site_fract_z
Zn1	Zn	1.208402	-0.295703	-0.447026
Zn2	Zn	1.708402	0.204297	0.052974
Zn3	Zn	1.208317	-0.419905	-0.314843
Zn4	Zn	1.708317	0.080095	0.185157
Zn5	Zn	1.076224	-0.295727	-0.314850
Zn6	Zn	1.576224	0.204273	0.185150
Zn7	Zn	1.076194	-0.419849	-0.446968
Zn8	Zn	1.576194	0.080151	0.053032
O9	O	1.142284	-0.357796	-0.380922
O10	O	1.642284	0.142204	0.119078
O11	O	1.319001	-0.312192	-0.429514
O12	O	1.819001	0.187808	0.070486
O13	O	1.190772	-0.403466	-0.204233
O14	O	1.690772	0.096534	0.295767
O15	O	1.093806	-0.191799	-0.332410
O16	O	1.593806	0.308201	0.167590
O17	O	1.318939	-0.403443	-0.332399
O18	O	1.818939	0.096557	0.167601
O19	O	1.190916	-0.191782	-0.429520
O20	O	1.690916	0.308218	0.070480
O21	O	1.093724	-0.312232	-0.204238
O22	O	1.593724	0.187768	0.295762
O23	O	0.965609	-0.312179	-0.332354
O24	O	1.465609	0.187821	0.167646
O25	O	1.093754	-0.403348	-0.557587
O26	O	1.593754	0.096652	-0.057587
O27	O	0.965587	-0.403371	-0.429421
O28	O	1.465587	0.096629	0.070579
O29	O	1.190887	-0.312138	-0.557629
O30	O	1.690887	0.187862	-0.057629
O31	O	1.190743	-0.523822	-0.332343
O32	O	1.690743	-0.023822	0.167657
O33	O	1.093672	-0.523781	-0.429414
O34	O	1.593672	-0.023781	0.070586
C35	C	0.936918	-0.357772	-0.380882
C36	C	1.436918	0.142228	0.119118
C37	C	0.849061	-0.357779	-0.380884
C38	C	1.349061	0.142221	0.119116
C39	C	0.477543	-0.405263	-0.330329
C40	C	0.977543	0.094737	0.169671
C41	C	0.477629	-0.310391	-0.431611
C42	C	0.977629	0.189609	0.068389
C43	C	0.560175	-0.310378	-0.431592
C44	C	1.060175	0.189622	0.068408
C45	C	0.601408	-0.357810	-0.380941
C46	C	1.101408	0.142190	0.119059
C47	C	0.560096	-0.405254	-0.330310
C48	C	1.060096	0.094746	0.169690
C49	C	0.601493	-0.262941	-0.482228
C50	C	1.101493	0.237059	0.017772
C51	C	0.684044	-0.262927	-0.482212
C52	C	1.184044	0.237073	0.017788
C53	C	0.725279	-0.310356	-0.431556
C54	C	1.225279	0.189644	0.068444
C55	C	0.683962	-0.357801	-0.380922
C56	C	1.183962	0.142199	0.119078
C57	C	0.725196	-0.405232	-0.330271
C58	C	1.225196	0.094768	0.169729
C59	C	0.683880	-0.452674	-0.279633
C60	C	1.183880	0.047326	0.220367
C61	C	0.601331	-0.452682	-0.279654
C62	C	1.101331	0.047318	0.220346
C63	C	0.807828	-0.310348	-0.431535
C64	C	1.307828	0.189652	0.068465
C65	C	0.807749	-0.405223	-0.330252
C66	C	1.307749	0.094777	0.169748
C67	C	1.142216	-0.550748	-0.380889
C68	C	1.642216	-0.050748	0.119111
C69	C	1.142260	-0.633294	-0.380901
C70	C	1.642260	-0.133294	0.119099
C71	C	1.195184	-0.882115	-0.328201
C72	C	1.695184	-0.382115	0.171799
C73	C	1.123066	-0.832781	-0.308781
C74	C	1.623066	-0.332781	0.191219
C75	C	1.142359	-0.930414	-0.380962
C76	C	1.642359	-0.430414	0.119038
C77	C	1.214423	-0.832666	-0.400315
C78	C	1.714423	-0.332666	0.099685
C79	C	1.142314	-0.784429	-0.380930
C80	C	1.642314	-0.284429	0.119070
C81	C	1.070203	-0.882168	-0.361505
C82	C	1.570203	-0.382168	0.138495
C83	C	1.161609	-0.882057	-0.453072
C84	C	1.661609	-0.382057	0.046928
C85	C	1.089442	-0.832746	-0.433679
C86	C	1.589442	-0.332746	0.066321
C87	C	1.142386	-1.014513	-0.380979
C88	C	1.642386	-0.514513	0.119021
C89	C	1.142279	-0.700333	-0.380914
C90	C	1.642279	-0.200333	0.119086
C91	C	1.348452	-0.357821	-0.380962
C92	C	1.848452	0.142179	0.119038
C93	C	1.436309	-0.357832	-0.380980
C94	C	1.936309	0.142168	0.119020
C95	C	1.142327	-0.357734	-0.587090
C96	C	1.642327	0.142266	-0.087090
C97	C	1.142345	-0.357708	-0.674947
C98	C	1.642345	0.142292	-0.174947
C99	C	1.142374	-0.164090	-0.380972
C100	C	1.642374	0.335910	0.119028
C101	C	1.142412	-0.081545	-0.380994
C102	C	1.642412	0.418455	0.119006
C103	C	1.091886	-0.310129	-1.046431
C104	C	1.591886	0.189871	-0.546431
C105	C	1.192943	-0.405131	-1.046414
C106	C	1.692943	0.094869	-0.546414
C107	C	1.192929	-0.405148	-0.963868
C108	C	1.692929	0.094852	-0.463868
C109	C	1.142392	-0.357656	-0.922600
C110	C	1.642392	0.142344	-0.422600
C111	C	1.091869	-0.310146	-0.963878
C112	C	1.591869	0.189854	-0.463878
C113	C	1.243446	-0.452662	-0.922584
C114	C	1.743446	0.047338	-0.422584
C115	C	1.243433	-0.452682	-0.840033
C116	C	1.743433	0.047318	-0.340033
C117	C	1.192900	-0.405185	-0.798763
C118	C	1.692900	0.094815	-0.298763
C119	C	1.142375	-0.357673	-0.840046
C120	C	1.642375	0.142327	-0.340046
C121	C	1.091838	-0.310181	-0.798778
C122	C	1.591838	0.189819	-0.298778
C123	C	1.041317	-0.262665	-0.840060
C124	C	1.541317	0.237335	-0.340060
C125	C	1.041335	-0.262650	-0.922608
C126	C	1.541335	0.237350	-0.422608
C127	C	1.192881	-0.405200	-0.716215
C128	C	1.692881	0.094800	-0.216215
C129	C	1.091821	-0.310198	-0.716225
C130	C	1.591821	0.189802	-0.216225
C131	C	1.142288	-0.357804	-0.175556
C132	C	1.642288	0.142196	0.324444
C133	C	1.142423	-0.357621	-0.087699
C134	C	1.642423	0.142379	0.412301
H135	H	0.567685	-0.491307	-0.238427
H136	H	1.067685	0.008693	0.261573
Br137	Br	0.863703	-0.469592	-0.261501
Br138	Br	1.363703	0.030408	0.238499
Br139	Br	0.739850	-0.517051	-0.210903
Br140	Br	1.239850	-0.017051	0.289097
H141	H	0.443900	-0.443887	-0.289098
H142	H	0.943900	0.056113	0.210902
H143	H	1.009223	-0.903820	-0.345054
H144	H	1.509223	-0.403820	0.154946
H145	H	0.444051	-0.271778	-0.472853
H146	H	0.944051	0.228222	0.027147
H147	H	1.044698	-0.811207	-0.478284
H148	H	1.544698	-0.311207	0.021716
H149	H	1.177937	-0.903720	-0.514051
H150	H	1.677937	-0.403720	-0.014051
Br151	Br	1.023329	-0.245641	-1.102452
Br152	Br	1.523329	0.254359	-0.602452
Br153	Br	0.545530	-0.198586	-0.550978
Br154	Br	1.045530	0.301414	-0.050978
H155	H	0.717676	-0.224297	-0.523445
H156	H	1.217676	0.275703	-0.023445
H157	H	0.841463	-0.271723	-0.472765
H158	H	1.341463	0.228277	0.027235
Br159	Br	1.316029	-0.796420	-0.427618
Br160	Br	1.816029	-0.296420	0.072382
H161	H	1.239820	-0.903791	-0.283563
H162	H	1.739820	-0.403791	0.216437
Br163	Br	1.095887	-0.796696	-0.207120
Br164	Br	1.595887	-0.296696	0.292880
Br165	Br	1.023238	-0.245735	-0.660224
Br166	Br	1.523238	0.254265	-0.160224
H167	H	1.000166	-0.224000	-0.806448
H168	H	1.500166	0.276000	-0.306448
H169	H	1.000203	-0.223965	-0.956227
H170	H	1.500203	0.276035	-0.456227
H171	H	1.234082	-0.443802	-1.080019
H172	H	1.734082	0.056198	-0.580019
Br173	Br	1.312016	-0.517122	-0.978593
Br174	Br	1.812016	-0.017122	-0.478593
H175	H	1.284570	-0.491373	-0.806429
H176	H	1.784570	0.008627	-0.306429
Br177	Br	1.261432	-0.469689	-0.660193
Br178	Br	1.761432	0.030311	-0.160193
