data_functionalizedCrystal
_audit_creation_method	'MofGen! by Chris Wilmer'
_symmetry_space_group_name_H-M	'P1'
_symmetry_Int_Tables_number	1
_symmetry_cell_setting	triclinic
loop_
_symmetry_equiv_pos_as_xyz
  x,y,z
_cell_length_a	31.640172
_cell_length_b	14.395555
_cell_length_c	14.395555
_cell_angle_alpha	60.002398
_cell_angle_beta	90.004893
_cell_angle_gamma	59.995569
loop_
_atom_site_label
_atom_site_type_symbol
_atom_site_fract_x
_atom_site_fract_y
_atom_site_fract_z
Zr1	Zr	0.407157	1.016715	-0.121794
O2	O	0.339663	1.210530	-0.270140
O3	O	0.427851	0.822907	-0.076317
O4	O	0.427846	1.016702	-0.270112
O5	O	0.339666	1.016742	0.076522
O6	O	0.497403	1.016683	-0.270091
O7	O	0.339667	1.016736	-0.076345
O8	O	0.497411	0.670019	0.076572
O9	O	0.339659	1.363406	-0.270141
O10	O	0.488582	0.902606	-0.056908
O11	O	0.436672	0.902625	0.057160
O12	O	0.436667	1.130794	-0.171009
O13	O	0.384757	1.130813	-0.056941
Zr14	Zr	0.518091	1.016695	0.122044
Zr15	Zr	0.518092	1.016684	-0.121762
Zr16	Zr	0.407156	1.016726	0.122011
Zr17	Zr	0.407151	1.260534	-0.121797
Zr18	Zr	0.518097	0.772876	0.122046
O19	O	0.497397	1.210502	0.076567
O20	O	0.497399	1.210487	-0.270093
O21	O	0.339661	1.210546	0.076520
O22	O	0.585585	0.822879	0.270389
O23	O	0.585587	0.822864	-0.076271
O24	O	0.427849	0.822923	0.270343
O25	O	0.585582	1.016667	-0.076273
O26	O	0.497402	1.016707	0.270362
O27	O	0.427845	1.016727	0.270341
O28	O	0.585581	1.016674	0.076595
O29	O	0.427838	1.363382	-0.270115
O30	O	0.497410	0.670028	0.270365
O31	O	0.585589	0.670004	0.270391
O32	O	0.585590	0.669995	0.076598
O33	O	0.339658	1.363415	-0.076348
O34	O	0.427837	1.363390	-0.076322
O35	O	0.488581	0.902616	0.171258
O36	O	0.540491	0.902596	0.057190
O37	O	0.488576	1.130785	-0.056910
O38	O	0.436666	1.130804	0.057158
C39	C	0.462632	0.711724	0.000128
C40	C	0.462634	0.608217	0.000129
C41	C	0.490933	0.547628	-0.062076
C42	C	0.511445	0.409518	0.045197
C43	C	0.442126	0.561892	-0.107133
C44	C	0.483175	0.471407	0.107466
C45	C	0.413828	0.623855	-0.044941
C46	C	0.434328	0.485754	0.062396
C47	C	0.323861	1.016743	0.000084
C48	C	0.276766	1.016756	0.000070
C49	C	0.011859	0.897581	0.059707
C50	C	-0.165126	0.897558	0.059730
O51	O	-0.164965	0.796257	0.110424
N52	N	-0.214355	1.016669	0.000169
C53	C	-0.219337	1.135794	-0.059396
O54	O	-0.265270	1.237105	-0.110046
C55	C	-0.042352	1.135815	-0.059411
C56	C	0.006876	1.016697	0.000144
C57	C	0.061085	0.778472	0.119259
C58	C	0.105328	0.778479	0.119248
C59	C	0.100345	0.897595	0.059685
C60	C	0.051119	1.016704	0.000133
C61	C	-0.047335	1.254939	-0.118968
C62	C	-0.003083	1.254934	-0.118964
C63	C	0.046145	1.135815	-0.059409
C64	C	0.090380	1.135826	-0.059441
N65	N	0.139609	1.016715	0.000120
C66	C	0.144591	0.897600	0.059683
C67	C	-0.312254	1.135774	-0.059385
C68	C	-0.356500	1.135769	-0.059383
C69	C	-0.302287	0.897533	0.059744
C70	C	-0.258040	0.897539	0.059735
C71	C	-0.263026	1.016663	0.000175
C72	C	0.237504	0.897623	0.059654
C73	C	0.281748	0.897640	0.059633
C74	C	0.227531	1.135876	-0.059489
C75	C	0.183290	1.135860	-0.059474
C76	C	0.188280	1.016722	0.000106
O77	O	0.090258	1.237074	-0.110098
O78	O	0.190529	0.796304	0.110346
C79	C	-0.032385	0.897574	0.059719
C80	C	-0.081611	1.016683	0.000167
C81	C	-0.086594	1.135799	-0.059396
C82	C	-0.125857	1.016678	0.000169
C83	C	-0.120874	0.897562	0.059732
C84	C	-0.071645	0.778451	0.119293
C85	C	-0.027402	0.778458	0.119281
C86	C	-0.135822	1.254910	-0.118957
C87	C	-0.180064	1.254893	-0.118942
C88	C	-0.175081	1.135777	-0.059379
C89	C	0.601387	1.016666	0.000166
C90	C	0.648482	1.016653	0.000179
C91	C	0.462625	1.016691	-0.304839
C92	C	0.462625	1.016686	-0.408340
C93	C	0.462616	1.321685	0.000122
C94	C	0.462614	1.425193	0.000121
C95	C	0.490934	0.892268	-0.406717
C96	C	0.442123	0.954475	-0.499753
C97	C	0.511425	0.954485	-0.499732
C98	C	0.413785	1.078894	-0.500014
C99	C	0.483123	1.078886	-0.499979
C100	C	0.434282	1.141183	-0.593033
C101	C	0.462623	1.016719	0.305088
C102	C	0.462623	1.016723	0.408590
C103	C	0.601395	0.711686	0.000169
C104	C	0.648493	0.608165	0.000184
C105	C	0.462631	0.711738	0.305092
C106	C	0.462633	0.608235	0.408595
C107	C	0.601394	0.711700	0.305132
C108	C	0.648491	0.608184	0.408649
C109	C	0.323854	1.321710	-0.304882
C110	C	0.276757	1.425226	-0.408399
C111	C	0.323853	1.321724	0.000081
C112	C	0.276755	1.425244	0.000066
C113	C	0.462617	1.321672	-0.304842
C114	C	0.462615	1.425175	-0.408345
C115	C	0.643514	0.559556	-0.059378
C116	C	0.687763	0.462301	-0.059387
C117	C	0.736990	0.413650	0.000173
C118	C	0.741968	0.462269	0.059736
C119	C	0.697719	0.559529	0.059738
C120	C	0.697710	0.559561	0.397719
C121	C	0.741967	0.462311	0.494975
C122	C	0.737004	0.413678	0.603159
C123	C	0.687781	0.462309	0.614087
C124	C	0.643525	0.559565	0.516832
C125	C	0.227538	1.473860	-0.397469
C126	C	0.183281	1.571141	-0.494725
C127	C	0.188244	1.619779	-0.602909
C128	C	0.237467	1.571141	-0.613837
C129	C	0.281723	1.473869	-0.516582
C130	C	0.281734	1.473864	0.059617
C131	C	0.237485	1.571146	0.059599
C132	C	0.188258	1.619800	0.000036
C133	C	0.183280	1.571176	-0.059523
C134	C	0.227529	1.473903	-0.059510
C135	C	0.434330	0.547656	0.406973
C136	C	0.483145	0.409540	0.500006
C137	C	0.413839	0.561897	0.499991
C138	C	0.511477	0.471420	0.500265
C139	C	0.442135	0.623851	0.500236
C140	C	0.490979	0.485745	0.593287
H141	H	0.500558	0.434017	0.198215
Br142	Br	0.704459	0.625549	0.250910
H143	H	0.410393	0.458737	0.115071
Br144	Br	0.413217	0.866853	-0.501315
Br145	Br	0.344964	1.166490	-0.498674
Br146	Br	0.808780	0.396226	0.140566
H147	H	0.410307	1.246477	-0.672669
H148	H	0.782043	0.422724	0.486057
H149	H	0.241502	1.610755	-0.701932
H150	H	0.603450	0.599141	0.525747
H151	H	0.514902	0.574700	-0.114589
Br152	Br	0.413234	0.623876	-0.258310
H153	H	0.552711	0.317878	0.083320
H154	H	0.372571	0.715518	-0.083090
H155	H	0.152203	1.698985	-0.682091
H156	H	0.321798	1.434272	-0.525495
H157	H	0.223468	1.434319	-0.108001
H158	H	0.152232	1.699007	0.000036
Br159	Br	0.348536	1.407860	0.140459
Br160	Br	0.512043	1.166448	-0.498351
Br161	Br	0.244252	1.637112	0.140438
Br162	Br	0.580296	0.409095	0.498921
Br163	Br	0.116468	1.637217	-0.140350
H164	H	0.552698	0.901873	-0.500618
H165	H	0.321832	0.800635	0.108134
Br166	Br	-0.295533	0.735876	0.140578
H167	H	0.773045	0.334486	0.682341
H168	H	0.410431	0.574744	0.327207
H169	H	0.500491	0.317911	0.500939
H170	H	0.241574	0.800610	0.108170
Br171	Br	0.576711	0.625563	-0.140223
H172	H	0.223488	1.434264	-0.309389
H173	H	0.683700	0.422727	-0.107890
Br174	Br	0.681055	0.396294	0.760917
H175	H	0.145409	0.681480	0.167739
Br176	Br	0.530932	0.440693	0.726018
Br177	Br	0.067861	0.616792	0.200111
H178	H	-0.217959	0.800542	0.108240
Br179	Br	0.413207	0.776617	0.498605
H180	H	0.143205	1.610726	-0.485805
H181	H	0.372570	0.599084	0.500895
Br182	Br	-0.064892	0.616795	0.200121
H183	H	-0.396581	1.232768	-0.107894
H184	H	-0.087412	1.351939	-0.167463
Br185	Br	-0.009854	1.416612	-0.199794
Br186	Br	-0.319031	1.297459	-0.140226
Br187	Br	0.116479	1.297521	-0.140327
H188	H	0.773016	0.334454	0.000164
H189	H	0.223483	1.232857	-0.107987
H190	H	-0.220146	1.351901	-0.167450
Br191	Br	-0.142596	1.416584	-0.199799
H192	H	0.012679	0.681459	0.167780
Br193	Br	0.704485	0.625481	0.140586
Br194	Br	0.530773	0.716921	-0.273768
