data_functionalizedCrystal
_audit_creation_method	'MofGen! by Chris Wilmer'
_symmetry_space_group_name_H-M	'P1'
_symmetry_Int_Tables_number	1
_symmetry_cell_setting	triclinic
loop_
_symmetry_equiv_pos_as_xyz
  x,y,z
_cell_length_a	12.827893
_cell_length_b	25.639239
_cell_length_c	12.827885
_cell_angle_alpha	89.964018
_cell_angle_beta	89.980538
_cell_angle_gamma	90.038657
loop_
_atom_site_label
_atom_site_type_symbol
_atom_site_fract_x
_atom_site_fract_y
_atom_site_fract_z
Zn1	Zn	1.597502	-0.208126	-0.590804
Zn2	Zn	1.597325	-0.295571	-0.416045
Zn3	Zn	1.422743	-0.208151	-0.416077
Zn4	Zn	1.422658	-0.295532	-0.590745
O5	O	1.510057	-0.251845	-0.503418
O6	O	1.743715	-0.219731	-0.567633
O7	O	1.574128	-0.284002	-0.269813
O8	O	1.446035	-0.134983	-0.439293
O9	O	1.743584	-0.283977	-0.439238
O10	O	1.574430	-0.134964	-0.567664
O11	O	1.445863	-0.219775	-0.269837
O12	O	1.276496	-0.219737	-0.439236
O13	O	1.445890	-0.283911	-0.736989
O14	O	1.276433	-0.283935	-0.567564
O15	O	1.574348	-0.219694	-0.737032
O16	O	1.574045	-0.368731	-0.439181
O17	O	1.445718	-0.368702	-0.567533
C18	C	1.238547	-0.251835	-0.503398
C19	C	1.122394	-0.251843	-0.503414
C20	C	1.070606	-0.283660	-0.566817
C21	C	0.950556	-0.283670	-0.566835
C22	C	1.509881	-0.387688	-0.503370
C23	C	1.509902	-0.445802	-0.503384
C24	C	1.577051	-0.806167	-0.436699
C25	C	1.577092	-0.860771	-0.436713
O26	O	1.634003	-0.889010	-0.379962
N27	N	1.510241	-0.888084	-0.503487
C28	C	1.443352	-0.860790	-0.570259
O29	O	1.386495	-0.889035	-0.627057
C30	C	1.443318	-0.806186	-0.570249
C31	C	1.510166	-0.778876	-0.503463
C32	C	1.643895	-0.778857	-0.369920
C33	C	1.643853	-0.724256	-0.369904
C34	C	1.576967	-0.696966	-0.436669
C35	C	1.510124	-0.724276	-0.503448
C36	C	1.376436	-0.778893	-0.637026
C37	C	1.376407	-0.724286	-0.637011
C38	C	1.443255	-0.696976	-0.570225
C39	C	1.443196	-0.642385	-0.570198
N40	N	1.510047	-0.615072	-0.503424
C41	C	1.576933	-0.642363	-0.436659
C42	C	1.443431	-0.975460	-0.570275
C43	C	1.443460	-1.030063	-0.570280
C44	C	1.577201	-1.030040	-0.436735
C45	C	1.577166	-0.975437	-0.436726
C46	C	1.510282	-0.948148	-0.503501
C47	C	1.576838	-0.527698	-0.436632
C48	C	1.576787	-0.473092	-0.436620
C49	C	1.443051	-0.473119	-0.570168
C50	C	1.443097	-0.527720	-0.570177
C51	C	1.510000	-0.555008	-0.503405
O52	O	1.386317	-0.614112	-0.626923
O53	O	1.633790	-0.614110	-0.379880
C54	C	1.782627	-0.251856	-0.503438
C55	C	1.898780	-0.251860	-0.503447
C56	C	1.510129	-0.251795	-0.775988
C57	C	1.510160	-0.251773	-0.892141
C58	C	1.510262	-0.115472	-0.503489
C59	C	1.510349	-0.057358	-0.503519
C60	C	1.573666	-0.283519	-1.063959
C61	C	1.573636	-0.283542	-0.943908
C62	C	1.510046	-0.251857	-0.231908
C63	C	1.510217	-0.251731	-0.115755
H64	H	0.943310	-0.224621	-0.449159
H65	H	1.455841	-0.224555	-0.936678
C66	C	1.370745	-1.059738	-0.642610
C67	C	1.303798	-1.091134	-0.583395
C68	C	1.236794	-1.118471	-0.649996
H69	H	1.410587	-1.081042	-0.688207
H70	H	1.330847	-1.035676	-0.682348
H71	H	1.343692	-1.115193	-0.543674
H72	H	1.263932	-1.069842	-0.537800
H73	H	1.196895	-1.094409	-0.689735
H74	H	1.276644	-1.139772	-0.695590
H75	H	1.191356	-1.139772	-0.609828
H76	H	0.906019	-0.310911	-0.621113
C77	C	1.649197	-0.443415	-0.363978
C78	C	1.590043	-0.412135	-0.296915
C79	C	1.656708	-0.384796	-0.229978
H80	H	1.694714	-0.422032	-0.403864
H81	H	1.689020	-0.467475	-0.324161
H82	H	1.550238	-0.388077	-0.336728
H83	H	1.544529	-0.433505	-0.257006
H84	H	1.696531	-0.408857	-0.190160
H85	H	1.702222	-0.363416	-0.269872
H86	H	1.616582	-0.363573	-0.184461
C87	C	1.370685	-0.557442	-0.642738
C88	C	1.429845	-0.588740	-0.709764
C89	C	1.363180	-0.616129	-0.776620
H90	H	1.330816	-0.533428	-0.682596
H91	H	1.325210	-0.578815	-0.602759
H92	H	1.475301	-0.567369	-0.749740
H93	H	1.469711	-0.612764	-0.669935
H94	H	1.317706	-0.637502	-0.736640
H95	H	1.323315	-0.592111	-0.816470
H96	H	1.403310	-0.637371	-0.822098
C97	C	1.437690	-0.215549	-1.056254
C98	C	1.370724	-0.245191	-0.993553
C99	C	1.303905	-0.211877	-0.938719
H100	H	1.397787	-0.195591	-1.104198
H101	H	1.477699	-0.192806	-1.013628
H102	H	1.330720	-0.267925	-1.036176
H103	H	1.410599	-0.265149	-0.945591
H104	H	1.343914	-0.189134	-0.896093
H105	H	1.264009	-0.191920	-0.986670
H106	H	1.258468	-0.231984	-0.896163
H107	H	1.627961	-0.310755	-0.899365
H108	H	1.115145	-0.310891	-0.621088
H109	H	1.321996	-0.801120	-0.691405
H110	H	1.077855	-0.224608	-0.449151
H111	H	1.631319	-0.549909	-0.382263
C112	C	1.716560	-0.694704	-0.297366
C113	C	1.775159	-0.730301	-0.238931
C114	C	1.842165	-0.703101	-0.172109
H115	H	1.676726	-0.673437	-0.251692
H116	H	1.762114	-0.673380	-0.337358
H117	H	1.729610	-0.751616	-0.198942
H118	H	1.815014	-0.751569	-0.284577
H119	H	1.887720	-0.681776	-0.212101
H120	H	1.802323	-0.681834	-0.126443
H121	H	1.881940	-0.727248	-0.132460
H122	H	1.698367	-0.801071	-0.315552
C123	C	1.649863	-0.945883	-0.364180
C124	C	1.708455	-0.981477	-0.305733
C125	C	1.775447	-0.954274	-0.238901
H126	H	1.610019	-0.924616	-0.318514
H127	H	1.695422	-0.924558	-0.404165
H128	H	1.662902	-1.002793	-0.265751
H129	H	1.748320	-1.002745	-0.351371
H130	H	1.821006	-0.932949	-0.278886
H131	H	1.735595	-0.933008	-0.193242
H132	H	1.815217	-0.978420	-0.199243
C133	C	1.650038	-1.059682	-0.364471
C134	C	1.717012	-1.090936	-0.423781
C135	C	1.784164	-1.118235	-0.357272
H136	H	1.610304	-1.081080	-0.318849
H137	H	1.689910	-1.035598	-0.324755
H138	H	1.677145	-1.115017	-0.463479
H139	H	1.756769	-1.069552	-0.469400
H140	H	1.824036	-1.094151	-0.317556
H141	H	1.744421	-1.139630	-0.311653
H142	H	1.829620	-1.139441	-0.397504
C143	C	1.370683	-0.945928	-0.642809
C144	C	1.312133	-0.981540	-0.701262
C145	C	1.245101	-0.954358	-0.768081
H146	H	1.410496	-0.924589	-0.688471
H147	H	1.325099	-0.924677	-0.602814
H148	H	1.357711	-1.002782	-0.741254
H149	H	1.272299	-1.002880	-0.655627
H150	H	1.199517	-0.933106	-0.728086
H151	H	1.284921	-0.933019	-0.813736
H152	H	1.205359	-0.978516	-0.807742
C153	C	1.303676	-0.694753	-0.709555
C154	C	1.245132	-0.730361	-0.768022
C155	C	1.178114	-0.703176	-0.834850
H156	H	1.343498	-0.673413	-0.755209
H157	H	1.258087	-0.673501	-0.669566
H158	H	1.290716	-0.751604	-0.808009
H159	H	1.205289	-0.751702	-0.722397
H160	H	1.132525	-0.681924	-0.794861
H161	H	1.217944	-0.681837	-0.880496
H162	H	1.138377	-0.727332	-0.874521
C163	C	1.370551	-0.443389	-0.642616
C164	C	1.384854	-0.389725	-0.628323
C165	C	1.318102	-0.362320	-0.695060
H166	H	1.300306	-0.452312	-0.627338
H167	H	1.385830	-0.452272	-0.712867
H168	H	1.369568	-0.380846	-0.558088
H169	H	1.455086	-0.380786	-0.643608
H170	H	1.333381	-0.371203	-0.765312
H171	H	1.247861	-0.371248	-0.679777
H172	H	1.327805	-0.325907	-0.685379
H173	H	1.628005	-0.310719	-1.108491
