data_functionalizedCrystal
_audit_creation_method	'MofGen! by Chris Wilmer'
_symmetry_space_group_name_H-M	'P1'
_symmetry_Int_Tables_number	1
_symmetry_cell_setting	triclinic
loop_
_symmetry_equiv_pos_as_xyz
  x,y,z
_cell_length_a	16.109301
_cell_length_b	16.992695
_cell_length_c	15.186229
_cell_angle_alpha	89.995943
_cell_angle_beta	89.999362
_cell_angle_gamma	87.064852
loop_
_atom_site_label
_atom_site_type_symbol
_atom_site_fract_x
_atom_site_fract_y
_atom_site_fract_z
O1	O	1.109856	0.100784	-0.073174
O2	O	0.868631	0.113326	-0.073188
O3	O	0.988276	-0.007088	-0.073174
O4	O	0.990210	0.221197	-0.073188
O5	O	0.988268	-0.007089	0.073284
O6	O	0.868622	0.113324	0.073270
O7	O	1.109847	0.100782	0.073284
Zn8	Zn	0.989233	0.107053	0.096530
Zn9	Zn	0.989245	0.107055	-0.096434
O10	O	0.990202	0.221196	0.073270
C11	C	0.837618	0.112817	0.000039
C12	C	0.745221	0.111294	0.000034
C13	C	0.527480	0.179203	0.000040
C14	C	0.440664	0.177766	0.000046
C15	C	0.451005	0.034899	0.000051
C16	C	0.537819	0.036337	0.000051
C17	C	0.576055	0.108492	0.000042
C18	C	0.402424	0.105616	0.000047
C19	C	0.308294	0.104057	0.000053
C20	C	0.670191	0.110051	0.000037
C21	C	0.985784	-0.036300	0.000055
C22	C	0.978361	-0.123343	0.000054
C23	C	1.049987	-0.173601	0.000059
C24	C	1.043007	-0.255386	0.000050
C25	C	0.964400	-0.286911	0.000043
C26	C	0.892768	-0.236645	0.000035
C27	C	0.899749	-0.154862	0.000038
C28	C	0.935467	-0.530501	0.000029
C29	C	0.928491	-0.612291	0.000029
C30	C	1.078731	-0.631026	0.000043
C31	C	1.085704	-0.549240	0.000051
C32	C	1.014073	-0.498982	0.000038
N33	N	0.957263	-0.370508	0.000037
N34	N	1.021210	-0.415387	0.000038
C35	C	1.140860	0.101291	0.000055
C36	C	1.233257	0.102814	0.000054
C37	C	0.992694	0.250408	0.000039
C38	C	1.000118	0.337451	0.000034
N39	N	0.989232	0.107051	0.228223
N40	N	0.989253	0.107051	-0.228127
C41	C	1.042231	0.053750	0.453952
C42	C	1.042234	0.053748	0.546141
C43	C	0.936247	0.160355	0.546138
C44	C	0.936241	0.160352	0.453950
C45	C	0.989238	0.107051	0.407859
C46	C	0.989246	0.107051	0.592237
C47	C	0.989249	0.107050	0.692193
C48	C	0.989235	0.107051	0.307897
H49	H	0.577371	-0.021248	0.000055
O50	O	1.170486	-0.515235	0.000058
H51	H	1.177256	-0.478411	-0.059630
O52	O	0.858204	-0.476309	0.000028
H53	H	0.857781	-0.438601	-0.059670
O54	O	1.120264	-0.309590	0.000070
H55	H	1.157639	-0.298375	-0.059611
O56	O	1.134774	-0.139608	0.000068
H57	H	1.127598	-0.074295	0.000077
H58	H	0.893084	0.203756	0.416419
H59	H	0.558608	0.237956	0.000039
O60	O	0.879098	0.217852	0.595849
H61	H	0.888011	0.208907	0.667697
O62	O	0.409760	-0.042920	0.000053
H63	H	0.428895	-0.076895	0.059753
H64	H	1.137048	-0.671954	0.000051
H65	H	0.401118	0.235347	0.000046
H66	H	0.864477	-0.637954	0.000037
H67	H	0.841423	-0.113942	0.000033
O68	O	0.807982	-0.270640	0.000036
H69	H	0.815159	-0.335953	0.000048
H70	H	1.085383	0.010347	0.416427
O71	O	1.099401	-0.003731	0.595859
H72	H	1.136256	-0.040786	0.548318
