data_functionalizedCrystal
_audit_creation_method	'MofGen! by Chris Wilmer'
_symmetry_space_group_name_H-M	'P1'
_symmetry_Int_Tables_number	1
_symmetry_cell_setting	triclinic
loop_
_symmetry_equiv_pos_as_xyz
  x,y,z
_cell_length_a	12.594516
_cell_length_b	13.897449
_cell_length_c	13.897441
_cell_angle_alpha	90.026069
_cell_angle_beta	89.972755
_cell_angle_gamma	89.981899
loop_
_atom_site_label
_atom_site_type_symbol
_atom_site_fract_x
_atom_site_fract_y
_atom_site_fract_z
Zn1	Zn	-0.423710	-1.474699	-0.545541
Zn2	Zn	-0.601721	-1.474592	-0.384252
Zn3	Zn	-0.423757	-1.313389	-0.384244
Zn4	Zn	-0.601647	-1.313369	-0.545489
O5	O	-0.512709	-1.394012	-0.464882
O6	O	-0.447335	-1.609667	-0.524170
O7	O	-0.578164	-1.453171	-0.249269
O8	O	-0.274805	-1.334840	-0.405659
O9	O	-0.578119	-1.609588	-0.405672
O10	O	-0.274771	-1.453354	-0.524163
O11	O	-0.447414	-1.334736	-0.249264
O12	O	-0.447343	-1.178404	-0.405609
O13	O	-0.577993	-1.334807	-0.680478
O14	O	-0.578038	-1.178390	-0.524075
O15	O	-0.447263	-1.453335	-0.680516
O16	O	-0.750657	-1.453152	-0.405622
O17	O	-0.750602	-1.334702	-0.524082
C18	C	-0.512688	-1.143398	-0.464836
C19	C	-0.512705	-1.036184	-0.464840
C20	C	-0.789250	-1.393940	-0.464868
C21	C	-0.907555	-1.393997	-0.464895
C22	C	-0.512707	-0.949114	-0.464852
C23	C	-0.512712	-0.839882	-0.464876
C24	C	-1.047581	-1.329625	-0.529293
C25	C	-0.976670	-1.417562	-0.552965
C26	C	-0.976895	-1.306068	-0.441266
C27	C	-1.047429	-1.482139	-0.488649
C28	C	-1.047661	-1.370585	-0.376908
C29	C	-0.976781	-1.458584	-0.400547
C30	C	-0.235088	-1.394111	-0.464916
C31	C	-0.116782	-1.394154	-0.464931
C32	C	-0.512615	-1.394081	-0.716475
C33	C	-0.512574	-1.394110	-0.823689
C34	C	-0.512726	-0.645605	-0.464916
C35	C	-0.512722	-0.752819	-0.464901
C36	C	-0.512502	-1.394136	-1.019984
C37	C	-0.512545	-1.394119	-0.910751
C38	C	-0.512726	-1.394000	-0.214267
C39	C	-0.512466	-1.394157	-0.107054
H40	H	-0.945490	-1.437436	-0.627388
H41	H	-1.078864	-1.350685	-0.302507
O42	O	-1.088287	-1.580755	-0.515272
H43	H	-1.176413	-1.580036	-0.515119
H44	H	-1.078664	-1.275188	-0.583779
H45	H	-0.945905	-1.231641	-0.421266
H46	H	-0.945892	-1.513150	-0.346102
