data_functionalizedCrystal
_audit_creation_method	'MofGen! by Chris Wilmer'
_symmetry_space_group_name_H-M	'P1'
_symmetry_Int_Tables_number	1
_symmetry_cell_setting	triclinic
loop_
_symmetry_equiv_pos_as_xyz
  x,y,z
_cell_length_a	12.645331
_cell_length_b	12.645330
_cell_length_c	11.169409
_cell_angle_alpha	89.967722
_cell_angle_beta	89.976637
_cell_angle_gamma	90.016671
loop_
_atom_site_label
_atom_site_type_symbol
_atom_site_fract_x
_atom_site_fract_y
_atom_site_fract_z
Zn1	Zn	1.620738	-0.421982	-0.678657
Zn2	Zn	1.620618	-0.599293	-0.477974
Zn3	Zn	1.443451	-0.422041	-0.477978
Zn4	Zn	1.443435	-0.599201	-0.678606
O5	O	1.532061	-0.510629	-0.578304
O6	O	1.769070	-0.445517	-0.652055
O7	O	1.597073	-0.575843	-0.310024
O8	O	1.467026	-0.273686	-0.504622
O9	O	1.768981	-0.575787	-0.504614
O10	O	1.597278	-0.273643	-0.652059
O11	O	1.466909	-0.445617	-0.310028
O12	O	1.295102	-0.445528	-0.504573
O13	O	1.466998	-0.575629	-0.846563
O14	O	1.295090	-0.575686	-0.651973
O15	O	1.597262	-0.445428	-0.846600
O16	O	1.597057	-0.747628	-0.504565
O17	O	1.466881	-0.747561	-0.651969
C18	C	1.256631	-0.510604	-0.578269
C19	C	1.138801	-0.510619	-0.578283
C20	C	0.971209	-0.428359	-0.486065
C21	C	1.093769	-0.428572	-0.485658
C22	C	1.094280	-0.622297	-0.543736
C23	C	0.971682	-0.621848	-0.543106
C24	C	0.971653	-0.482263	-0.705404
C25	C	1.094259	-0.479769	-0.704698
C26	C	1.531983	-0.786059	-0.578287
C27	C	1.532047	-0.903889	-0.578320
C28	C	1.450491	-1.071455	-0.671338
C29	C	1.450074	-0.948895	-0.671039
C30	C	1.501800	-0.948497	-0.451835
C31	C	1.501303	-1.071096	-0.452400
C32	C	1.644348	-1.070977	-0.610761
C33	C	1.643660	-0.948370	-0.613527
C34	C	1.808566	-0.510655	-0.578339
C35	C	1.926396	-0.510667	-0.578354
C36	C	1.532142	-0.510512	-0.891346
C37	C	1.532177	-0.510462	-1.024746
C38	C	1.532167	-0.234124	-0.578347
C39	C	1.532212	-0.116294	-0.578365
C40	C	1.532040	-0.510670	-0.266479
C41	C	1.532211	-0.510422	-0.133080
H42	H	0.940360	-0.446925	-0.392470
Br43	Br	1.745832	-1.119327	-0.497918
H44	H	1.123450	-0.685262	-0.608845
H45	H	1.469242	-1.100856	-0.765433
Br46	Br	1.312800	-1.122986	-0.636055
Br47	Br	1.481613	-0.898613	-0.827358
H48	H	1.707753	-0.917728	-0.550742
Br49	Br	1.311512	-0.900160	-0.635276
Br50	Br	1.596191	-1.120548	-0.332999
H51	H	0.940756	-0.402249	-0.736822
Br52	Br	1.364678	-1.118925	-0.406657
Br53	Br	1.366596	-0.897488	-0.405262
H54	H	1.671939	-1.101811	-0.701426
H55	H	1.124934	-0.646796	-0.451853
H56	H	1.123363	-0.397586	-0.730748
H57	H	1.124917	-0.535343	-0.777138
H58	H	0.942675	-0.542212	-0.774168
H59	H	1.559435	-0.919348	-0.380670
H60	H	1.123045	-0.447346	-0.391509
Br61	Br	1.143945	-0.290544	-0.521748
Br62	Br	0.922104	-0.289909	-0.521763
Br63	Br	0.923929	-0.661989	-0.388302
Br64	Br	1.681684	-0.899771	-0.768679
H65	H	0.942038	-0.685250	-0.607395
