data_functionalizedCrystal
_audit_creation_method	'MofGen! by Chris Wilmer'
_symmetry_space_group_name_H-M	'P1'
_symmetry_Int_Tables_number	1
_symmetry_cell_setting	triclinic
loop_
_symmetry_equiv_pos_as_xyz
  x,y,z
_cell_length_a	16.793024
_cell_length_b	16.793047
_cell_length_c	33.586455
_cell_angle_alpha	113.253857
_cell_angle_beta	66.219990
_cell_angle_gamma	112.758327
loop_
_atom_site_label
_atom_site_type_symbol
_atom_site_fract_x
_atom_site_fract_y
_atom_site_fract_z
O1	O	0.005016	-0.570216	-0.583573
O2	O	-0.034529	-0.474528	-0.453458
O3	O	0.114723	-0.474535	-0.528082
O4	O	-0.144235	-0.570209	-0.508949
O5	O	0.108729	-0.346329	-0.530229
O6	O	-0.040523	-0.346322	-0.455605
O7	O	-0.000977	-0.442010	-0.585721
Zn8	Zn	-0.021701	-0.373810	-0.521004
Zn9	Zn	-0.013805	-0.542728	-0.518175
O10	O	-0.150229	-0.442003	-0.511097
C11	C	0.005100	-0.790970	-0.238461
C12	C	0.009223	-0.693065	-0.217557
C13	C	0.003804	-0.645758	-0.241627
C14	C	-0.075059	-0.538459	-0.266316
C15	C	0.049838	-0.422849	-0.250165
C16	C	-0.040584	-0.395375	-0.435637
C17	C	-0.044693	-0.353446	-0.386631
C18	C	-0.039275	-0.401741	-0.363054
C19	C	-0.040566	-0.125547	-0.300731
C20	C	-0.044689	-0.223451	-0.321635
C21	C	-0.039266	-0.270752	-0.297563
C22	C	0.039597	-0.378051	-0.272874
C23	C	-0.085304	-0.493667	-0.289026
C24	C	0.005118	-0.521142	-0.103554
C25	C	0.009231	-0.563064	-0.152559
C26	C	0.003809	-0.514775	-0.176138
C27	C	0.010758	-0.652581	-0.172822
C28	C	0.001010	-0.556371	-0.220792
C29	C	-0.008251	-0.506059	-0.245823
C30	C	-0.046224	-0.263935	-0.366370
C31	C	-0.036476	-0.360146	-0.318399
C32	C	-0.027211	-0.410451	-0.293367
C33	C	0.815184	-0.521162	-0.508596
C34	C	0.415541	-0.125553	-0.528781
C35	C	0.375032	-0.223457	-0.531493
C36	C	0.423813	-0.270761	-0.529101
C37	C	0.149318	-0.395376	-0.530584
C38	C	0.246774	-0.353455	-0.532364
C39	C	0.294574	-0.401748	-0.529976
C40	C	0.548961	-0.790984	-0.510398
C41	C	0.286104	-0.263940	-0.532530
C42	C	0.383336	-0.360149	-0.528302
C43	C	0.432207	-0.407971	-0.525810
C44	C	0.392316	-0.497392	-0.524993
C45	C	0.303554	-0.538991	-0.526667
C46	C	0.254683	-0.491169	-0.529159
C47	C	0.263666	-0.628421	-0.525851
C48	C	0.312537	-0.676243	-0.523359
C49	C	0.401299	-0.634644	-0.521685
C50	C	0.441190	-0.545223	-0.522502
C51	C	0.529952	-0.503624	-0.520828
C52	C	0.578823	-0.551446	-0.518336
C53	C	0.538939	-0.640864	-0.517520
C54	C	0.450177	-0.682463	-0.519194
C55	C	0.587810	-0.688687	-0.515028
C56	C	0.676572	-0.647088	-0.513354
C57	C	0.716463	-0.557666	-0.514172
C58	C	0.667586	-0.509847	-0.516662
C59	C	0.569840	-0.414195	-0.521644
C60	C	0.658602	-0.372596	-0.519970
C61	C	0.707476	-0.420426	-0.517480
C62	C	0.698493	-0.283174	-0.520788
C63	C	0.649622	-0.235352	-0.523280
C64	C	0.560860	-0.276951	-0.524954
C65	C	0.520969	-0.366372	-0.524136
C66	C	0.511989	-0.229129	-0.527446
C67	C	-0.040530	-0.395407	-0.935652
C68	C	0.005063	-0.791004	-0.738448
C69	C	0.009186	-0.693099	-0.717543
C70	C	0.003779	-0.645796	-0.741620
C71	C	0.005077	-0.521171	-0.603544
C72	C	0.009198	-0.563096	-0.652550
C73	C	0.003786	-0.514804	-0.676131
C74	C	-0.040516	-0.125574	-0.800747
C75	C	0.010719	-0.652613	-0.672809
C76	C	0.000994	-0.556406	-0.720789
C77	C	-0.004621	-0.508585	-0.744908
C78	C	-0.007444	-0.419162	-0.724369
C79	C	-0.004651	-0.377560	-0.679711
C80	C	0.000964	-0.425381	-0.655592
C81	C	-0.007471	-0.288129	-0.659174
C82	C	-0.013086	-0.240308	-0.683293
C83	C	-0.015878	-0.281910	-0.727951
C84	C	-0.013056	-0.371333	-0.748490
C85	C	-0.015848	-0.412935	-0.793148
C86	C	-0.021463	-0.365114	-0.817267
C87	C	-0.024282	-0.275694	-0.796731
C88	C	-0.021490	-0.234092	-0.752073
C89	C	-0.029897	-0.227873	-0.820850
C90	C	-0.032690	-0.269476	-0.865508
C91	C	-0.029867	-0.358899	-0.886047
C92	C	-0.024255	-0.406717	-0.861925
C93	C	-0.013028	-0.502367	-0.813685
C94	C	-0.015821	-0.543969	-0.858343
C95	C	-0.021433	-0.496140	-0.882464
C96	C	-0.012998	-0.633392	-0.878882
C97	C	-0.007383	-0.681213	-0.854763
C98	C	-0.004591	-0.639611	-0.810105
C99	C	-0.007414	-0.550188	-0.789566
C100	C	0.001024	-0.687432	-0.785986
O101	O	-0.000965	0.173549	-0.277957
O102	O	-0.040516	-0.085616	-0.325254
O103	O	0.108737	0.059592	-0.327284
O104	O	-0.150219	0.028341	-0.275927
O105	O	0.114753	0.055151	-0.263265
O106	O	-0.034500	-0.090057	-0.261234
O107	O	0.005051	0.169108	-0.213937
Zn108	Zn	-0.013769	0.038820	-0.227421
Zn109	Zn	-0.021696	0.044672	-0.311770
O110	O	-0.144202	0.023900	-0.211907
O111	O	-0.034458	-0.474571	0.046517
O112	O	0.005076	-0.570190	-0.083599
O113	O	-0.144170	-0.570237	-0.008972
O114	O	0.114787	-0.474523	-0.028110
O115	O	-0.150200	-0.442024	-0.011093
O116	O	-0.000954	-0.441976	-0.085720
O117	O	-0.040488	-0.346357	0.044396
Zn118	Zn	-0.021679	-0.373810	-0.020999
Zn119	Zn	-0.013734	-0.542737	-0.018204
O120	O	0.108757	-0.346309	-0.030231
C121	C	-0.850734	0.086244	-0.289716
C122	C	-0.753280	0.087165	-0.312001
C123	C	-0.705462	0.081107	-0.288506
C124	C	-0.599592	0.000085	-0.264184
C125	C	-0.481080	0.121287	-0.283645
C126	C	-0.450996	0.035117	-0.097351
C127	C	-0.410501	0.028587	-0.146852
C128	C	-0.459292	0.034683	-0.169840
C129	C	-0.184802	0.024283	-0.235878
C130	C	-0.282257	0.023363	-0.213592
C131	C	-0.330068	0.029423	-0.237088
C132	C	-0.435938	0.110445	-0.261411
C133	C	-0.554456	-0.010759	-0.241948
C134	C	-0.584541	0.075410	-0.428242
C135	C	-0.625029	0.081943	-0.378743
C136	C	-0.576244	0.075844	-0.355753
C137	C	-0.713963	0.086424	-0.357292
C138	C	-0.616708	0.075351	-0.310510
C139	C	-0.565963	0.065400	-0.286043
C140	C	-0.321573	0.024104	-0.168302
C141	C	-0.418828	0.035176	-0.215083
C142	C	-0.469568	0.045131	-0.239552
O143	O	0.585213	0.169090	-0.504004
O144	O	0.494056	-0.090076	-0.525516
O145	O	0.488081	0.055124	-0.449918
O146	O	0.591189	0.023889	-0.579602
O147	O	0.359978	0.059584	-0.452885
O148	O	0.365953	-0.085616	-0.528483
O149	O	0.457110	0.173550	-0.506971
Zn150	Zn	0.391193	0.044675	-0.518198
Zn151	Zn	0.559974	0.038798	-0.514289
O152	O	0.463086	0.028349	-0.582569
C153	C	0.815354	-0.521094	-0.008709
C154	C	0.717898	-0.563028	-0.006927
C155	C	0.670072	-0.514739	-0.009298
C156	C	0.564182	-0.463204	-0.048354
C157	C	0.445681	-0.498945	0.013847
C158	C	0.415547	-0.125494	-0.028771
C159	C	0.375059	-0.223405	-0.031498
C160	C	0.423859	-0.270708	-0.029121
C161	C	0.149365	-0.395355	-0.030599
C162	C	0.246820	-0.353421	-0.032381
C163	C	0.294640	-0.401713	-0.030008
C164	C	0.400530	-0.453248	0.009048
C165	C	0.519038	-0.417504	-0.053155
C166	C	0.549171	-0.790955	-0.010537
C167	C	0.589653	-0.693047	-0.007809
C168	C	0.540859	-0.645741	-0.010187
C169	C	0.678588	-0.652551	-0.006775
C170	C	0.581317	-0.556344	-0.010973
C171	C	0.530562	-0.506029	-0.015250
C172	C	0.286131	-0.263897	-0.032533
C173	C	0.383402	-0.360104	-0.028335
C174	C	0.434150	-0.410423	-0.024057
O175	O	-0.620614	0.089309	0.052274
O176	O	-0.529507	0.043784	-0.078544
O177	O	-0.523494	0.194833	-0.006033
O178	O	-0.626628	-0.061740	-0.020236
O179	O	-0.395386	0.185419	-0.005549
O180	O	-0.401400	0.034370	-0.078059
O181	O	-0.492507	0.079895	0.052758
Zn182	Zn	-0.426614	0.055638	-0.012574
Zn183	Zn	-0.595401	0.068041	-0.013212
O184	O	-0.498521	-0.071154	-0.019752
C185	C	-0.437537	0.048335	0.402491
C186	C	-0.397043	0.041789	0.352989
C187	C	-0.445822	0.047883	0.329994
C188	C	-0.496646	0.126653	0.277022
C189	C	-0.465894	-0.000633	0.218811
C190	C	-0.837226	0.099430	0.210091
C191	C	-0.739773	0.100339	0.187806
C192	C	-0.691967	0.094287	0.211308
C193	C	-0.571027	0.088563	0.071568
C194	C	-0.611521	0.095108	0.121070
C195	C	-0.562739	0.089011	0.144061
C196	C	-0.511915	0.010241	0.197033
C197	C	-0.542670	0.137531	0.255247
C198	C	-0.171338	0.037467	0.263967
C199	C	-0.268788	0.036555	0.286249
C200	C	-0.316597	0.042611	0.262750
C201	C	-0.308112	0.037305	0.331542
C202	C	-0.405351	0.048369	0.284750
C203	C	-0.456092	0.058317	0.260279
C204	C	-0.700452	0.099593	0.142516
C205	C	-0.603213	0.088528	0.189308
C206	C	-0.552469	0.078578	0.213776
O207	O	-0.040608	-1.085661	-0.825229
O208	O	-0.001018	-0.826491	-0.777938
O209	O	-0.150287	-0.971682	-0.775894
O210	O	0.108661	-0.940470	-0.827272
O211	O	-0.144253	-0.976123	-0.711878
O212	O	0.005016	-0.830932	-0.713922
O213	O	-0.034575	-1.090102	-0.761213
Zn214	Zn	-0.013821	-0.961222	-0.727403
Zn215	Zn	-0.021771	-0.955371	-0.811747
O216	O	0.114695	-0.944911	-0.763256
C217	C	-0.114910	-0.196886	-0.221632
C218	C	-0.036365	-0.225064	-0.248236
H219	H	-0.113123	-0.168686	-0.191179
H220	H	-0.118569	-0.155324	-0.233064
H221	H	-0.166305	-0.247543	-0.222605
H222	H	0.015031	-0.174406	-0.247266
H223	H	-0.032697	-0.266629	-0.236801
C224	C	0.168845	-0.261782	-0.254282
C225	C	0.105055	-0.285379	-0.276740
H226	H	0.209258	-0.204569	-0.256670
H227	H	0.138748	-0.259182	-0.223210
H228	H	0.201800	-0.305586	-0.267741
H229	H	0.072095	-0.241578	-0.263279
H230	H	0.135155	-0.287972	-0.307817
H231	H	0.107243	-0.392097	-0.234140
H232	H	-0.142704	-0.524425	-0.305055
C233	C	0.150201	-0.536734	-0.571208
C234	C	0.156719	-0.537092	-0.531013
H235	H	0.089722	-0.565092	-0.572353
H236	H	0.167021	-0.476391	-0.572049
H237	H	0.189431	-0.568492	-0.596483
H238	H	0.117493	-0.505328	-0.505737
H239	H	0.139888	-0.597446	-0.530168
C240	C	-0.559111	0.117749	-0.108333
C241	C	-0.557320	0.040903	-0.145671
H242	H	-0.619625	0.121606	-0.093416
H243	H	-0.535722	0.113984	-0.087865
H244	H	-0.523212	0.169776	-0.118398
H245	H	-0.593214	-0.011124	-0.135606
H246	H	-0.580721	0.044661	-0.166143
H247	H	-0.518563	-0.039000	0.162804
C248	C	0.557424	-0.121985	-0.568471
C249	C	0.556034	-0.130422	-0.528335
H250	H	0.584619	-0.061046	-0.569015
H251	H	0.591270	-0.159209	-0.593785
H252	H	0.497322	-0.139966	-0.569829
H253	H	0.616137	-0.112447	-0.526979
H254	H	0.522189	-0.093186	-0.503015
C255	C	0.001272	-0.813242	-0.846703
C256	C	-0.004269	-0.779916	-0.877430
H257	H	0.003191	-0.874177	-0.860698
H258	H	0.054523	-0.778324	-0.837879
H259	H	-0.050150	-0.809839	-0.820697
H260	H	0.047157	-0.783313	-0.903436
H261	H	-0.057525	-0.814844	-0.886261
C262	C	0.026348	-0.135723	-0.395666
C263	C	-0.049775	-0.210057	-0.393259
H264	H	0.024160	-0.102464	-0.412269
H265	H	0.027009	-0.098361	-0.365887
H266	H	0.079502	-0.155933	-0.410481
H267	H	-0.102929	-0.189846	-0.378441
H268	H	-0.050444	-0.247425	-0.423043
H269	H	0.550886	-0.383867	-0.081621
C270	C	0.092527	-0.736416	-0.667803
C271	C	0.014260	-0.706486	-0.645915
H272	H	0.094711	-0.769671	-0.651196
H273	H	0.091725	-0.773823	-0.697558
H274	H	0.144226	-0.686049	-0.669491
H275	H	-0.037439	-0.756854	-0.644230
H276	H	0.015054	-0.669078	-0.616151
C277	C	0.155170	-0.207315	0.004152
C278	C	0.231600	-0.210027	-0.033929
H279	H	0.121507	-0.174053	0.003293
H280	H	0.118604	-0.266900	0.004075
H281	H	0.173569	-0.179136	0.030916
H282	H	0.213201	-0.238211	-0.060693
H283	H	0.268173	-0.150430	-0.033856
C284	C	-0.260284	-0.050142	-0.312939
C285	C	-0.285643	0.029778	-0.287060
H286	H	-0.232867	-0.049929	-0.343790
H287	H	-0.218502	-0.054617	-0.302028
H288	H	-0.312290	-0.100081	-0.310555
H289	H	-0.233636	0.079717	-0.289441
H290	H	-0.327428	0.034262	-0.297975
H291	H	0.413839	-0.532573	0.042316
H292	H	-0.586315	-0.066836	-0.224702
H293	H	0.718963	-0.692464	-0.005731
H294	H	-0.434254	-0.059305	0.203012
C295	C	0.417882	-0.780427	-0.010719
C296	C	0.442813	-0.691437	-0.011938
H297	H	0.357351	-0.808635	-0.011797
H298	H	0.456976	-0.812250	-0.036040
H299	H	0.422399	-0.780744	0.016513
H300	H	0.438303	-0.691120	-0.039172
H301	H	0.403708	-0.659606	0.013385
C302	C	-0.012541	-0.115079	-0.616151
C303	C	-0.016195	-0.141606	-0.660624
H304	H	-0.014457	-0.054143	-0.602159
H305	H	-0.062676	-0.152300	-0.599477
H306	H	0.041997	-0.120790	-0.616659
H307	H	-0.070737	-0.135901	-0.660117
H308	H	0.033945	-0.104374	-0.677303
H309	H	-0.490116	0.084434	0.126151
C310	C	-0.246829	-0.036980	0.186903
C311	C	-0.272175	0.042949	0.212777
H312	H	-0.219412	-0.036776	0.156050
H313	H	-0.205050	-0.041458	0.197815
H314	H	-0.298840	-0.086912	0.189290
H315	H	-0.220162	0.092881	0.210392
H316	H	-0.313956	0.047436	0.201861
H317	H	-0.365918	0.157102	-0.260160
C318	C	-0.711661	0.180675	0.100837
C319	C	-0.754954	0.103890	0.116314
H320	H	-0.745308	0.183322	0.084658
H321	H	-0.707719	0.232875	0.125996
H322	H	-0.652600	0.177893	0.081353
H323	H	-0.814013	0.106675	0.135801
H324	H	-0.758906	0.051677	0.091152
H325	H	0.702991	-0.441593	-0.009870
H326	H	-0.724884	0.094041	0.248327
C327	C	0.683399	-0.422485	-0.112702
C328	C	0.658710	-0.469151	-0.081130
H329	H	0.741759	-0.426150	-0.132933
H330	H	0.640839	-0.448500	-0.129350
H331	H	0.684357	-0.361153	-0.097232
H332	H	0.657745	-0.530485	-0.096599
H333	H	0.701281	-0.443139	-0.064480
H334	H	0.417564	-0.755580	-0.518528
H335	H	0.496488	-0.236853	-0.027824
H336	H	-0.449229	0.177371	-0.300885
H337	H	0.003321	-0.760550	-0.802778
H338	H	-0.281187	0.020914	-0.148901
H339	H	-0.267732	0.034117	0.350946
H340	H	0.261721	-0.474856	-0.029430
C341	C	-0.545655	0.130936	0.391505
C342	C	-0.543853	0.054091	0.354166
H343	H	-0.606173	0.134777	0.406424
H344	H	-0.522251	0.127184	0.411970
H345	H	-0.509774	0.182966	0.381439
H346	H	-0.579729	0.002061	0.364232
H347	H	-0.567269	0.057836	0.333697
C348	C	0.155163	-0.207327	-0.495863
C349	C	0.231595	-0.210067	-0.533943
H350	H	0.121513	-0.174065	-0.496733
H351	H	0.118585	-0.266906	-0.495933
H352	H	0.173558	-0.179137	-0.469098
H353	H	0.213199	-0.238263	-0.560707
H354	H	0.268179	-0.150477	-0.533877
C355	C	-0.532249	0.258439	0.335632
C356	C	-0.487652	0.193124	0.323232
H357	H	-0.526703	0.299470	0.364161
H358	H	-0.505924	0.290084	0.313373
H359	H	-0.594368	0.230056	0.337777
H360	H	-0.425531	0.221507	0.321083
H361	H	-0.513974	0.161475	0.345496
H362	H	0.001660	-0.441639	-0.159184
H363	H	0.013390	-0.692483	-0.152899
C364	C	0.281315	-0.494000	0.073386
C365	C	0.305999	-0.447326	0.041819
H366	H	0.222954	-0.490343	0.093618
H367	H	0.280368	-0.555322	0.057916
H368	H	0.323879	-0.467978	0.090039
H369	H	0.263439	-0.473353	0.025164
H370	H	0.306940	-0.385993	0.057291
C371	C	-0.548365	0.271020	0.247296
C372	C	-0.585394	0.216726	0.276568
H373	H	-0.574748	0.319907	0.260457
H374	H	-0.484906	0.293580	0.242457
H375	H	-0.560343	0.236395	0.219125
H376	H	-0.573411	0.251350	0.304739
H377	H	-0.648868	0.194166	0.281413
H378	H	-0.503619	0.071273	-0.373665
C379	C	0.084418	-0.379835	-0.603031
C380	C	0.004034	-0.379473	-0.606300
H381	H	0.086307	-0.351492	-0.572599
H382	H	0.086907	-0.440179	-0.611848
H383	H	0.134556	-0.348065	-0.622425
H384	H	-0.046104	-0.411249	-0.586909
H385	H	0.001537	-0.319119	-0.597477
C386	C	0.079452	-0.719624	-0.317556
C387	C	0.000907	-0.691445	-0.290955
H388	H	0.077664	-0.747832	-0.348009
H389	H	0.130842	-0.668975	-0.316584
H390	H	0.083108	-0.761189	-0.306120
H391	H	-0.002746	-0.649875	-0.302389
H392	H	-0.050498	-0.742101	-0.291929
H393	H	-0.015274	-0.667410	-0.915397
C394	C	0.140908	-0.763284	-0.526448
C395	C	0.165698	-0.674332	-0.527697
H396	H	0.080423	-0.791628	-0.527585
H397	H	0.180123	-0.795037	-0.551726
H398	H	0.145350	-0.763509	-0.499180
H399	H	0.161262	-0.674107	-0.554967
H400	H	0.126471	-0.642571	-0.502416
C401	C	-0.725182	0.167546	-0.398947
C402	C	-0.768474	0.090746	-0.383482
H403	H	-0.758834	0.170215	-0.415116
H404	H	-0.721229	0.219735	-0.373783
H405	H	-0.666125	0.164763	-0.418437
H406	H	-0.827529	0.093533	-0.363989
H407	H	-0.772437	0.038544	-0.408649
C408	C	-0.826541	0.007099	-0.235051
C409	C	-0.749901	0.080733	-0.238538
H410	H	-0.853971	0.006869	-0.204202
H411	H	-0.868310	0.011594	-0.245963
H412	H	-0.809313	-0.047105	-0.252618
H413	H	-0.767130	0.134938	-0.220974
H414	H	-0.708124	0.076246	-0.227620
H415	H	-0.123560	-0.607102	-0.263443
C416	C	0.695044	-0.128227	-0.564312
C417	C	0.693660	-0.136647	-0.524173
H418	H	0.722232	-0.067290	-0.564860
H419	H	0.728892	-0.165451	-0.589624
H420	H	0.634940	-0.146217	-0.565670
H421	H	0.753765	-0.118664	-0.522817
H422	H	0.659813	-0.099411	-0.498855
C423	C	0.075913	-0.242624	-0.606584
C424	C	-0.004452	-0.242263	-0.609873
H425	H	0.077760	-0.214315	-0.576144
H426	H	0.078416	-0.302966	-0.615415
H427	H	0.126065	-0.210822	-0.625958
H428	H	-0.054605	-0.274071	-0.590502
H429	H	-0.006964	-0.181910	-0.601037
C430	C	-0.030963	-0.534305	-0.355369
C431	C	-0.036377	-0.500475	-0.385934
H432	H	-0.029179	-0.595260	-0.369495
H433	H	0.022317	-0.499640	-0.346536
H434	H	-0.082366	-0.530971	-0.329349
H435	H	0.015030	-0.503803	-0.411953
H436	H	-0.089663	-0.535150	-0.394774
C437	C	0.267141	-0.783333	-0.482316
C438	C	0.268507	-0.774941	-0.522458
H439	H	0.239953	-0.844265	-0.481759
H440	H	0.327239	-0.765335	-0.480961
H441	H	0.233289	-0.746099	-0.457005
H442	H	0.302365	-0.812170	-0.547770
H443	H	0.208398	-0.792950	-0.523818
C444	C	0.863235	-0.421344	-0.552926
C445	C	0.805462	-0.374503	-0.515652
H446	H	0.923729	-0.392989	-0.551805
H447	H	0.846416	-0.481676	-0.552069
H448	H	0.858751	-0.421121	-0.580185
H449	H	0.809941	-0.374732	-0.488393
H450	H	0.822286	-0.314155	-0.516505
C451	C	-0.726740	-0.038600	-0.290574
C452	C	-0.694118	-0.062900	-0.265886
H453	H	-0.785095	-0.077489	-0.291625
H454	H	-0.730396	0.021773	-0.276289
H455	H	-0.686859	-0.043620	-0.320555
H456	H	-0.733996	-0.057874	-0.235903
H457	H	-0.690468	-0.123288	-0.280170
C458	C	0.673686	-0.713460	-0.461064
C459	C	0.722755	-0.697503	-0.503436
H460	H	0.702200	-0.744569	-0.454933
H461	H	0.671672	-0.657696	-0.438253
H462	H	0.613911	-0.748951	-0.461274
H463	H	0.782529	-0.662007	-0.503225
H464	H	0.724780	-0.753276	-0.526254
H465	H	-0.047834	-0.232081	-0.882358
C466	C	0.821261	-0.148309	-0.520189
C467	C	0.796466	-0.237261	-0.518940
H468	H	0.881740	-0.119963	-0.519044
H469	H	0.816829	-0.148079	-0.547455
H470	H	0.782035	-0.116554	-0.494909
H471	H	0.835688	-0.269018	-0.544222
H472	H	0.800905	-0.237496	-0.491671
H473	H	-0.023809	-0.160979	-0.735279
H474	H	-0.023718	-0.530163	-0.918978
