data_functionalizedCrystal
_audit_creation_method	'MofGen! by Chris Wilmer'
_symmetry_space_group_name_H-M	'P1'
_symmetry_Int_Tables_number	1
_symmetry_cell_setting	triclinic
loop_
_symmetry_equiv_pos_as_xyz
  x,y,z
_cell_length_a	11.169417
_cell_length_b	13.897448
_cell_length_c	11.169409
_cell_angle_alpha	89.964424
_cell_angle_beta	89.978317
_cell_angle_gamma	90.016630
loop_
_atom_site_label
_atom_site_type_symbol
_atom_site_fract_x
_atom_site_fract_y
_atom_site_fract_z
Zn1	Zn	-1.834901	0.383964	0.678575
Zn2	Zn	-1.334901	0.883964	1.178575
Zn3	Zn	-1.834765	0.545300	0.477881
Zn4	Zn	-1.334765	1.045300	0.977881
Zn5	Zn	-1.634187	0.384017	0.477903
Zn6	Zn	-1.134187	0.884017	0.977903
Zn7	Zn	-1.634169	0.545216	0.678519
Zn8	Zn	-1.134169	1.045216	1.178519
O9	O	-1.734505	0.464624	0.578220
O10	O	-1.234505	0.964624	1.078220
O11	O	-2.002833	0.405378	0.651967
O12	O	-1.502833	0.905378	1.151967
O13	O	-1.808108	0.523963	0.309934
O14	O	-1.308108	1.023963	0.809934
O15	O	-1.660877	0.249029	0.504555
O16	O	-1.160877	0.749029	1.004555
O17	O	-2.002732	0.523911	0.504517
O18	O	-1.502732	1.023911	1.004517
O19	O	-1.808341	0.248990	0.651988
O20	O	-1.308341	0.748990	1.151988
O21	O	-1.660745	0.405469	0.309950
O22	O	-1.160745	0.905469	0.809950
O23	O	-1.466235	0.405388	0.504501
O24	O	-0.966235	0.905388	1.004501
O25	O	-1.660846	0.523768	0.846476
O26	O	-1.160846	1.023768	1.346476
O27	O	-1.466221	0.523820	0.651893
O28	O	-0.966221	1.023820	1.151893
O29	O	-1.808323	0.405297	0.846518
O30	O	-1.308323	0.905297	1.346518
O31	O	-1.808090	0.680270	0.504463
O32	O	-1.308090	1.180270	1.004463
O33	O	-1.660713	0.680209	0.651871
O34	O	-1.160713	1.180209	1.151871
C35	C	-1.422681	0.464601	0.578194
C36	C	-0.922681	0.964601	1.078194
C37	C	-1.289281	0.464615	0.578212
C38	C	-0.789281	0.964615	1.078212
C39	C	-1.734418	0.715239	0.578185
C40	C	-1.234418	1.215239	1.078185
C41	C	-1.734490	0.822453	0.578210
C42	C	-1.234490	1.322453	1.078210
C43	C	-1.734597	0.464517	0.891262
C44	C	-1.234597	0.964517	1.391262
C45	C	-1.734637	0.464472	1.024662
C46	C	-1.234637	0.964472	1.524662
C47	C	-1.047548	0.464640	0.578236
C48	C	-0.547548	0.964640	1.078236
C49	C	-1.180948	0.464626	0.578219
C50	C	-0.680948	0.964626	1.078219
C51	C	-1.734626	0.213031	0.578281
C52	C	-1.234626	0.713031	1.078281
C53	C	-1.734677	0.105817	0.578307
C54	C	-1.234677	0.605817	1.078307
C55	C	-1.734616	1.018748	0.578285
C56	C	-1.234616	1.518748	1.078285
C57	C	-1.734543	0.909515	0.578247
C58	C	-1.234543	1.409515	1.078247
C59	C	-1.734483	0.464661	0.266395
C60	C	-1.234483	0.964661	0.766395
C61	C	-1.734676	0.464435	0.132995
C62	C	-1.234676	0.964435	0.632995
