data_functionalizedCrystal
_audit_creation_method	'MofGen! by Chris Wilmer'
_symmetry_space_group_name_H-M	'P1'
_symmetry_Int_Tables_number	1
_symmetry_cell_setting	triclinic
loop_
_symmetry_equiv_pos_as_xyz
  x,y,z
_cell_length_a	10.654556
_cell_length_b	10.967819
_cell_length_c	9.483335
_cell_angle_alpha	92.535761
_cell_angle_beta	80.592810
_cell_angle_gamma	95.396803
loop_
_atom_site_label
_atom_site_type_symbol
_atom_site_fract_x
_atom_site_fract_y
_atom_site_fract_z
O1	O	-0.259118	1.574889	0.515419
O2	O	-0.261896	1.225711	0.427946
O3	O	-0.078090	1.408321	0.473689
O4	O	-0.442923	1.392280	0.469676
O5	O	-0.040677	1.445455	0.241216
O6	O	-0.224483	1.262845	0.195473
O7	O	-0.221705	1.612023	0.282946
Cu8	Cu	-0.219678	1.440825	0.217983
Cu9	Cu	-0.263923	1.396910	0.492910
O10	O	-0.405510	1.429413	0.237203
C11	C	-0.012539	1.425707	0.357159
C12	C	0.127045	1.422172	0.356281
C13	C	-0.240159	1.199567	0.300509
C14	C	-0.231115	1.066343	0.267135
C15	C	0.430133	1.456028	0.101156
C16	C	0.384946	1.477924	-0.025152
C17	C	0.253794	1.481238	-0.024321
C18	C	0.167823	1.462650	0.102832
C19	C	0.213010	1.440754	0.229141
C20	C	0.344168	1.437446	0.228296
C21	C	0.172231	1.400276	0.482589
C22	C	0.303384	1.396970	0.481762
C23	C	0.086260	1.381689	0.609742
C24	C	0.131448	1.359801	0.736055
C25	C	0.262609	1.356489	0.735219
C26	C	0.348571	1.375074	0.608071
C27	C	-0.237134	0.850018	0.338217
C28	C	-0.246471	0.987715	0.372703
C29	C	0.528938	1.412027	0.353733
C30	C	0.389355	1.415558	0.354609
C31	C	-0.243442	1.638166	0.410386
C32	C	-0.252487	1.771389	0.443769
N33	N	-0.188557	1.471721	0.024616
C34	C	-0.228848	1.431735	-0.225031
C35	C	-0.254753	1.405999	-0.064073
N36	N	-0.295034	1.366023	0.686279
H37	H	0.454957	1.493054	-0.128678
C38	C	0.204470	1.504932	-0.161320
C39	C	0.071210	1.503826	-0.133373
C40	C	0.025727	1.525632	-0.259544
H41	H	0.240334	1.582555	-0.196143
H42	H	0.228134	1.442832	-0.231042
H43	H	0.047558	1.565923	-0.063675
H44	H	0.035313	1.426213	-0.098569
H45	H	0.049391	1.463532	-0.329266
H46	H	0.061599	1.603254	-0.294357
H47	H	-0.064695	1.524874	-0.240602
H48	H	0.455365	1.372385	0.607378
C49	C	-0.355985	1.305558	-0.006717
C50	C	-0.412047	1.249942	-0.119729
C51	C	-0.505317	1.157425	-0.066943
H52	H	-0.317615	1.246014	0.037737
H53	H	-0.419615	1.340082	0.061284
H54	H	-0.348429	1.215418	-0.187705
H55	H	-0.450443	1.309454	-0.164194
H56	H	-0.568946	1.191949	0.001058
H57	H	-0.466936	1.097890	-0.022490
H58	H	-0.543374	1.119686	-0.143610
H59	H	0.536927	1.453344	0.100469
C60	C	0.311417	1.332730	0.872514
C61	C	0.208054	1.317178	0.984038
C62	C	0.252961	1.295292	1.110537
H63	H	0.355571	1.260732	0.860142
H64	H	0.367828	1.400450	0.895059
H65	H	0.151665	1.249464	0.961496
H66	H	0.163889	1.389164	0.996455
H67	H	0.309372	1.363013	1.133082
H68	H	0.297115	1.223296	1.098150
H69	H	0.182838	1.284749	1.186223
H70	H	0.061032	1.465336	0.103495
H71	H	-0.020530	1.384382	0.610409
H72	H	0.061441	1.344660	0.839571
H73	H	-0.370880	1.290715	-0.270490
H74	H	-0.153011	1.507052	-0.268258
C75	C	-0.210135	0.803824	0.183709
C76	C	-0.096719	0.745730	0.161555
C77	C	-0.071799	0.703179	0.019232
H78	H	-0.278641	0.747217	0.163990
H79	H	-0.201636	0.870987	0.121908
H80	H	-0.105227	0.678576	0.223336
H81	H	-0.028189	0.802313	0.181242
H82	H	-0.063300	0.770341	-0.042569
H83	H	-0.140312	0.646576	-0.000473
H84	H	0.005161	0.663767	0.004179
H85	H	-0.211064	1.031726	0.151229
C86	C	-0.279047	0.817394	0.598384
C87	C	-0.181964	0.787376	0.670444
C88	C	-0.206398	0.829716	0.812885
H89	H	-0.281739	0.903801	0.601228
H90	H	-0.358783	0.780046	0.643292
H91	H	-0.102249	0.824728	0.625549
H92	H	-0.179256	0.700976	0.667641
H93	H	-0.286135	0.792369	0.857793
H94	H	-0.209091	0.916123	0.815715
H95	H	-0.140539	0.809346	0.861799
H96	H	-0.266537	1.022332	0.488608
H97	H	-0.112716	1.547042	-0.018606
