data_functionalizedCrystal
_audit_creation_method	'MofGen! by Chris Wilmer'
_symmetry_space_group_name_H-M	'P1'
_symmetry_Int_Tables_number	1
_symmetry_cell_setting	triclinic
loop_
_symmetry_equiv_pos_as_xyz
  x,y,z
_cell_length_a	21.395362
_cell_length_b	13.031981
_cell_length_c	21.395355
_cell_angle_alpha	82.800183
_cell_angle_beta	89.956060
_cell_angle_gamma	97.204883
loop_
_atom_site_label
_atom_site_type_symbol
_atom_site_fract_x
_atom_site_fract_y
_atom_site_fract_z
Zn1	Zn	0.926274	-0.415794	-0.322901
Zn2	Zn	1.259608	-0.082460	0.010433
Zn3	Zn	1.592941	0.250873	0.343766
Zn4	Zn	0.912901	-0.590555	-0.204806
Zn5	Zn	1.246235	-0.257222	0.128528
Zn6	Zn	1.579568	0.076112	0.461861
Zn7	Zn	0.821486	-0.415842	-0.218098
Zn8	Zn	1.154819	-0.082509	0.115235
Zn9	Zn	1.488152	0.250824	0.448568
Zn10	Zn	0.808181	-0.590577	-0.309509
Zn11	Zn	1.141515	-0.257243	0.023825
Zn12	Zn	1.474848	0.076090	0.357158
O13	O	0.867211	-0.503192	-0.263828
O14	O	1.200544	-0.169859	0.069505
O15	O	1.533877	0.163475	0.402838
O16	O	1.012181	-0.438947	-0.307277
O17	O	1.345514	-0.105614	0.026057
O18	O	1.678847	0.227720	0.359390
O19	O	0.900746	-0.567390	-0.118890
O20	O	1.234079	-0.234057	0.214443
O21	O	1.567413	0.099276	0.547776
O22	O	0.846551	-0.269571	-0.243168
O23	O	1.179884	0.063762	0.090165
O24	O	1.513217	0.397096	0.423499
O25	O	1.002356	-0.567343	-0.220513
O26	O	1.335689	-0.234010	0.112820
O27	O	1.669022	0.099323	0.446154
O28	O	0.923538	-0.269535	-0.320166
O29	O	1.256872	0.063798	0.013167
O30	O	1.590205	0.397132	0.346501
O31	O	0.833583	-0.439030	-0.128656
O32	O	1.166917	-0.105696	0.204677
O33	O	1.500250	0.227637	0.538011
O34	O	0.732041	-0.439051	-0.230182
O35	O	1.065374	-0.105717	0.103151
O36	O	1.398707	0.227616	0.436484
O37	O	0.823875	-0.567380	-0.398964
O38	O	1.157209	-0.234047	-0.065631
O39	O	1.490542	0.099287	0.267703
O40	O	0.722266	-0.567427	-0.297341
O41	O	1.055599	-0.234094	0.035992
O42	O	1.388933	0.099240	0.369325
O43	O	0.910638	-0.438968	-0.408803
O44	O	1.243971	-0.105634	-0.075470
O45	O	1.577305	0.227699	0.257864
O46	O	0.887846	-0.736823	-0.207527
O47	O	1.221179	-0.403490	0.125806
O48	O	1.554512	-0.070156	0.459139
O49	O	0.810908	-0.736839	-0.284452
O50	O	1.144242	-0.403506	0.048881
O51	O	1.477575	-0.070172	0.382214
C52	C	0.704419	-0.503247	-0.263751
C53	C	1.037752	-0.169914	0.069582
C54	C	1.371085	0.163419	0.402915
C55	C	0.634774	-0.503296	-0.263732
C56	C	0.968107	-0.169963	0.069602
C57	C	1.301440	0.163371	0.402935
C58	C	0.846499	-0.774756	-0.243108
C59	C	1.179832	-0.441423	0.090225
C60	C	1.513166	-0.108089	0.423559
C61	C	0.837696	-0.890932	-0.234265
C62	C	1.171029	-0.557599	0.099069
C63	C	1.504363	-0.224265	0.432402
C64	C	0.596981	-0.570230	-0.298634
C65	C	0.930314	-0.236897	0.034699
C66	C	1.263647	0.096436	0.368032
C67	C	0.531547	-0.570205	-0.298664
C68	C	0.864881	-0.236871	0.034669
C69	C	1.198214	0.096462	0.368002
C70	C	0.503909	-0.503256	-0.263779
C71	C	0.837242	-0.169922	0.069554
C72	C	1.170575	0.163411	0.402887
C73	C	0.541711	-0.436309	-0.228874
C74	C	0.875044	-0.102975	0.104459
C75	C	1.208377	0.230358	0.437792
C76	C	0.607143	-0.436329	-0.228851
C77	C	0.940477	-0.102995	0.104483
C78	C	1.273810	0.230338	0.437816
C79	C	0.400824	-0.494836	-0.208016
C80	C	0.734157	-0.161502	0.125318
C81	C	1.067490	0.171831	0.458651
C82	C	0.335392	-0.494823	-0.208038
C83	C	0.668725	-0.161489	0.125295
C84	C	1.002058	0.171844	0.458629
C85	C	0.302093	-0.503188	-0.263854
C86	C	0.635426	-0.169854	0.069480
C87	C	0.968760	0.163479	0.402813
C88	C	0.334233	-0.511587	-0.319647
C89	C	0.667566	-0.178254	0.013686
C90	C	1.000900	0.155079	0.347020
C91	C	0.399666	-0.511607	-0.319623
C92	C	0.732999	-0.178274	0.013710
C93	C	1.066332	0.155059	0.347043
C94	C	0.432959	-0.503226	-0.263802
C95	C	0.766292	-0.169893	0.069532
C96	C	1.099625	0.163441	0.402865
C97	C	0.193349	-0.570098	-0.298792
C98	C	0.526683	-0.236764	0.034541
C99	C	0.860016	0.096569	0.367875
C100	C	0.127915	-0.570065	-0.298823
C101	C	0.461249	-0.236731	0.034510
C102	C	0.794582	0.096602	0.367843
C103	C	0.138079	-0.436174	-0.229028
C104	C	0.471413	-0.102841	0.104306
C105	C	0.804746	0.230493	0.437639
C106	C	0.203513	-0.436202	-0.229002
C107	C	0.536846	-0.102868	0.104331
C108	C	0.870179	0.230465	0.437664
C109	C	0.231143	-0.503169	-0.263883
C110	C	0.564477	-0.169836	0.069450
C111	C	0.897810	0.163498	0.402784
C112	C	0.871838	-0.942626	-0.268456
C113	C	1.205172	-0.609293	0.064877
C114	C	1.538505	-0.275959	0.398210
C115	C	0.862741	-1.062700	-0.259317
C116	C	1.196074	-0.729367	0.074016
C117	C	1.529407	-0.396033	0.407350
C118	C	1.030638	-0.503137	-0.263906
C119	C	1.363972	-0.169804	0.069427
C120	C	1.697305	0.163529	0.402761
C121	C	1.100281	-0.503114	-0.263939
C122	C	1.433615	-0.169781	0.069394
C123	C	1.766948	0.163553	0.402728
C124	C	0.867264	-0.503171	-0.427253
C125	C	1.200598	-0.169837	-0.093920
C126	C	1.533931	0.163496	0.239413
C127	C	0.867287	-0.503162	-0.496895
C128	C	1.200621	-0.169828	-0.163562
C129	C	1.533954	0.163505	0.169771
C130	C	0.888020	-0.230568	-0.284643
C131	C	1.221354	0.102766	0.048690
C132	C	1.554687	0.436099	0.382023
C133	C	0.896888	-0.114391	-0.293514
C134	C	1.230221	0.218942	0.039820
C135	C	1.563555	0.552275	0.373153
C136	C	0.912463	-0.436295	-0.534733
C137	C	1.245796	-0.102961	-0.201399
C138	C	1.579130	0.230372	0.131934
C139	C	0.912465	-0.436250	-0.600172
C140	C	1.245799	-0.102916	-0.266838
C141	C	1.579132	0.230417	0.066495
C142	C	0.867297	-0.503091	-0.627769
C143	C	1.200631	-0.169757	-0.294436
C144	C	1.533964	0.163576	0.038898
C145	C	0.822114	-0.569962	-0.589923
C146	C	1.155447	-0.236629	-0.256590
C147	C	1.488780	0.096704	0.076743
C148	C	0.822109	-0.569998	-0.524486
C149	C	1.155442	-0.236665	-0.191153
C150	C	1.488775	0.096669	0.142180
C151	C	0.855172	-0.597205	-0.724261
C152	C	1.188506	-0.263872	-0.390928
C153	C	1.521839	0.069461	-0.057594
C154	C	0.855182	-0.597172	-0.789697
C155	C	1.188515	-0.263838	-0.456363
C156	C	1.521848	0.069495	-0.123030
C157	C	0.867310	-0.502980	-0.829598
C158	C	1.200643	-0.169647	-0.496265
C159	C	1.533976	0.163687	-0.162932
C160	C	0.879442	-0.408820	-0.804057
C161	C	1.212775	-0.075486	-0.470723
C162	C	1.546108	0.257847	-0.137390
C163	C	0.879437	-0.408855	-0.738620
C164	C	1.212770	-0.075522	-0.405286
C165	C	1.546103	0.257811	-0.071953
C166	C	0.867298	-0.503059	-0.698724
C167	C	1.200631	-0.169726	-0.365391
C168	C	1.533964	0.163608	-0.032057
C169	C	0.912491	-0.436059	-0.938393
C170	C	1.245824	-0.102725	-0.605059
C171	C	1.579157	0.230608	-0.271726
C172	C	0.912489	-0.436012	-1.003833
C173	C	1.245822	-0.102679	-0.670499
C174	C	1.579156	0.230655	-0.337166
C175	C	0.822140	-0.569734	-0.993583
C176	C	1.155473	-0.236400	-0.660249
C177	C	1.488807	0.096933	-0.326916
C178	C	0.822139	-0.569771	-0.928144
C179	C	1.155472	-0.236438	-0.594811
C180	C	1.488806	0.096895	-0.261478
C181	C	0.867318	-0.502935	-0.900553
C182	C	1.200651	-0.169602	-0.567220
C183	C	1.533984	0.163732	-0.233887
C184	C	0.867199	-0.503138	-0.101045
C185	C	1.200532	-0.169804	0.232288
C186	C	1.533866	0.163529	0.565622
C187	C	0.867320	-0.502852	-0.031426
C188	C	1.200653	-0.169519	0.301908
C189	C	1.533987	0.163814	0.635241
H190	H	0.619473	-0.624759	-0.327038
H191	H	0.952807	-0.291426	0.006295
H192	H	1.286140	0.041908	0.339628
H193	H	0.949276	-0.381555	-1.034640
H194	H	1.282609	-0.048221	-0.701307
H195	H	1.615943	0.285112	-0.367973
H196	H	0.115577	-0.381658	-0.200627
H197	H	0.448910	-0.048325	0.132707
H198	H	0.782244	0.285009	0.466040
C199	C	0.814150	-1.122987	-0.210629
C200	C	1.147483	-0.789654	0.122704
C201	C	1.480816	-0.456320	0.456038
H202	H	0.814412	-1.195781	-0.210871
H203	H	1.147745	-0.862448	0.122463
H204	H	1.481079	-0.529115	0.455796
H205	H	0.773384	-1.105219	-0.221087
H206	H	1.106718	-0.771886	0.112247
H207	H	1.440051	-0.438552	0.445580
H208	H	0.824685	-1.105165	-0.169887
H209	H	1.158019	-0.771832	0.163446
H210	H	1.491352	-0.438498	0.496780
H211	H	0.949250	-0.381870	-0.512273
H212	H	1.282584	-0.048537	-0.178939
H213	H	1.615917	0.284796	0.154394
H214	H	0.801727	-0.935569	-0.198229
H215	H	1.135060	-0.602236	0.135105
H216	H	1.468394	-0.268903	0.468438
H217	H	0.785318	-0.624448	-0.493679
H218	H	1.118652	-0.291114	-0.160346
H219	H	1.451985	0.042219	0.172988
H220	H	0.500770	-0.624710	-0.327089
H221	H	0.834104	-0.291377	0.006244
H222	H	1.167437	0.041957	0.339578
C223	C	0.772459	-0.643264	-1.023931
C224	C	1.105793	-0.309931	-0.690598
C225	C	1.439126	0.023402	-0.357265
H226	H	0.778935	-0.633674	-1.068323
H227	H	1.112268	-0.300340	-0.734989
H228	H	1.445602	0.032993	-0.401656
H229	H	0.731526	-0.627997	-1.014342
H230	H	1.064859	-0.294664	-0.681008
H231	H	1.398192	0.038670	-0.347675
H232	H	0.776277	-0.713496	-1.007861
H233	H	1.109610	-0.380163	-0.674528
H234	H	1.442944	-0.046830	-0.341194
C235	C	0.648717	-0.362704	-0.190452
C236	C	0.982050	-0.029370	0.142881
C237	C	1.315384	0.303963	0.476215
H238	H	0.622887	-0.322829	-0.169677
H239	H	0.956221	0.010504	0.163657
H240	H	1.289554	0.343838	0.496990
H241	H	0.677754	-0.317233	-0.217923
H242	H	1.011087	0.016100	0.115410
H243	H	1.344421	0.349434	0.448743
H244	H	0.671151	-0.402637	-0.160054
H245	H	1.004485	-0.069304	0.173279
H246	H	1.337818	0.264030	0.506613
H247	H	0.785355	-0.624228	-0.897336
H248	H	1.118689	-0.290895	-0.564002
H249	H	1.452022	0.042439	-0.230669
H250	H	0.425831	-0.518444	-0.365053
H251	H	0.759165	-0.185110	-0.031719
H252	H	1.092498	0.148223	0.301614
C253	C	0.297614	-0.520785	-0.381048
C254	C	0.630948	-0.187452	-0.047715
C255	C	0.964281	0.145882	0.285618
H256	H	0.254043	-0.519558	-0.373076
H257	H	0.587376	-0.186224	-0.039743
H258	H	0.920710	0.147109	0.293591
H259	H	0.303482	-0.584468	-0.396159
H260	H	0.636815	-0.251135	-0.062825
H261	H	0.970149	0.082198	0.270508
H262	H	0.312719	-0.463988	-0.411787
H263	H	0.646053	-0.130654	-0.078454
H264	H	0.979386	0.202679	0.254879
H265	H	0.932854	-1.069759	-0.329558
H266	H	1.266188	-0.736426	0.003776
H267	H	1.599521	-0.403093	0.337109
H268	H	0.907802	-0.897991	-0.304498
H269	H	1.241136	-0.564658	0.028835
H270	H	1.574469	-0.231325	0.362169
C271	C	0.841835	-0.700741	-0.817787
C272	C	1.175168	-0.367408	-0.484454
C273	C	1.508502	-0.034075	-0.151120
H274	H	0.834599	-0.756841	-0.784653
H275	H	1.167932	-0.423508	-0.451319
H276	H	1.501266	-0.090175	-0.117986
H277	H	0.877042	-0.709913	-0.842641
H278	H	1.210375	-0.376580	-0.509307
H279	H	1.543709	-0.043247	-0.175974
H280	H	0.805617	-0.699371	-0.843390
H281	H	1.138951	-0.366037	-0.510056
H282	H	1.472284	-0.032704	-0.176723
C283	C	0.437449	-0.485634	-0.146616
C284	C	0.770782	-0.152301	0.186717
C285	C	1.104115	0.181033	0.520051
H286	H	0.481021	-0.486839	-0.154593
H287	H	0.814354	-0.153506	0.178741
H288	H	1.147688	0.179828	0.512074
H289	H	0.422348	-0.542424	-0.115876
H290	H	0.755681	-0.209091	0.217458
H291	H	1.089015	0.124242	0.550791
H292	H	0.431579	-0.421944	-0.131508
H293	H	0.764912	-0.088611	0.201825
H294	H	1.098246	0.244723	0.535159
C295	C	0.962165	-0.362702	-0.641800
C296	C	1.295498	-0.029368	-0.308467
C297	C	1.628831	0.303965	0.024867
H298	H	0.989073	-0.322908	-0.615995
H299	H	1.322406	0.010426	-0.282662
H300	H	1.655739	0.343759	0.050672
H301	H	0.941681	-0.317152	-0.670783
H302	H	1.275014	0.016182	-0.337450
H303	H	1.608348	0.349515	-0.004116
H304	H	0.986412	-0.402681	-0.664296
H305	H	1.319745	-0.069348	-0.330962
H306	H	1.653079	0.263986	0.002371
H307	H	0.309228	-0.487990	-0.162607
H308	H	0.642561	-0.154656	0.170726
H309	H	0.975894	0.178677	0.504060
H310	H	0.845130	-0.673888	-0.691779
H311	H	1.178463	-0.340555	-0.358446
H312	H	1.511797	-0.007221	-0.025113
H313	H	0.785336	-0.624381	-0.612398
H314	H	1.118669	-0.291048	-0.279064
H315	H	1.452003	0.042285	0.054269
C316	C	0.892773	-0.305291	-0.710522
C317	C	1.226106	0.028043	-0.377189
C318	C	1.559440	0.361376	-0.043856
H319	H	0.891036	-0.318807	-0.665836
H320	H	1.224369	0.014526	-0.332503
H321	H	1.557703	0.347859	0.000830
H322	H	0.862045	-0.261330	-0.724570
H323	H	1.195379	0.072003	-0.391237
H324	H	1.528712	0.405337	-0.057903
H325	H	0.933473	-0.271849	-0.723819
H326	H	1.266807	0.061485	-0.390486
H327	H	1.600140	0.394818	-0.057152
H328	H	0.889319	-0.332120	-0.836544
H329	H	1.222652	0.001213	-0.503211
H330	H	1.555985	0.334547	-0.169877
C331	C	0.245086	-0.362586	-0.190600
C332	C	0.578419	-0.029253	0.142734
C333	C	0.911753	0.304080	0.476067
H334	H	0.219255	-0.322716	-0.169822
H335	H	0.552589	0.010618	0.163511
H336	H	0.885922	0.343951	0.496844
H337	H	0.274122	-0.317111	-0.218070
H338	H	0.607456	0.016222	0.115264
H339	H	0.940789	0.349555	0.448597
H340	H	0.267521	-0.402521	-0.160203
H341	H	0.600854	-0.069188	0.173130
H342	H	0.934188	0.264145	0.506463
C343	C	0.223747	-0.643746	-0.337166
C344	C	0.557080	-0.310412	-0.003833
C345	C	0.890414	0.022921	0.329501
H346	H	0.191865	-0.683595	-0.357966
H347	H	0.525199	-0.350262	-0.024633
H348	H	0.858532	-0.016929	0.308701
H349	H	0.245762	-0.689239	-0.309675
H350	H	0.579096	-0.355906	0.023658
H351	H	0.912429	-0.022572	0.356991
H352	H	0.252359	-0.603829	-0.367542
H353	H	0.585693	-0.270496	-0.034209
H354	H	0.919026	0.062837	0.299125
H355	H	0.949275	-0.381631	-0.915927
H356	H	1.282608	-0.048298	-0.582594
H357	H	1.615942	0.285036	-0.249261
C358	C	0.086341	-0.643711	-0.337209
C359	C	0.419675	-0.310378	-0.003876
C360	C	0.753008	0.022956	0.329458
H361	H	0.112170	-0.683605	-0.357970
H362	H	0.445504	-0.350272	-0.024636
H363	H	0.778837	-0.016938	0.308697
H364	H	0.063897	-0.603806	-0.367607
H365	H	0.397231	-0.270473	-0.034274
H366	H	0.730564	0.062860	0.299059
H367	H	0.057312	-0.689179	-0.309721
H368	H	0.390645	-0.355845	0.023612
H369	H	0.723978	-0.022512	0.356945
C370	C	0.511311	-0.362667	-0.190502
C371	C	0.844644	-0.029334	0.142831
C372	C	1.177977	0.304000	0.476165
H373	H	0.466928	-0.372248	-0.195510
H374	H	0.800261	-0.038915	0.137823
H375	H	1.133594	0.294419	0.471157
H376	H	0.527418	-0.292466	-0.205094
H377	H	0.860752	0.040868	0.128240
H378	H	1.194085	0.374201	0.461573
H379	H	0.520825	-0.377868	-0.147223
H380	H	0.854158	-0.044535	0.186110
H381	H	1.187492	0.288799	0.519443
