data_functionalizedCrystal
_audit_creation_method	'MofGen! by Chris Wilmer'
_symmetry_space_group_name_H-M	'P1'
_symmetry_Int_Tables_number	1
_symmetry_cell_setting	triclinic
loop_
_symmetry_equiv_pos_as_xyz
  x,y,z
_cell_length_a	6.817900
_cell_length_b	19.551823
_cell_length_c	12.200875
_cell_angle_alpha	94.912032
_cell_angle_beta	107.143593
_cell_angle_gamma	101.663376
loop_
_atom_site_label
_atom_site_type_symbol
_atom_site_fract_x
_atom_site_fract_y
_atom_site_fract_z
V1	V	-4.059385	-0.096834	-0.358198
V2	V	-3.559385	0.403166	0.141802
O3	O	-4.055454	0.004490	-0.350828
O4	O	-3.555454	0.504490	0.149172
O5	O	-4.001853	-0.191848	-0.356279
O6	O	-3.501853	0.308152	0.143721
O7	O	-4.029239	-0.095416	-0.514179
O8	O	-3.529239	0.404584	-0.014179
O9	O	-4.027878	-0.092610	-0.191835
O10	O	-3.527878	0.407390	0.308165
V11	V	-4.541831	-0.084706	-0.338235
V12	V	-4.041831	0.415294	0.161765
O13	O	-4.323006	-0.123438	-0.401988
O14	O	-3.823006	0.376562	0.098012
O15	O	-4.728407	-0.058102	-0.294445
O16	O	-4.228407	0.441898	0.205555
O17	O	-4.376156	0.010308	-0.340154
O18	O	-3.876156	0.510308	0.159846
O19	O	-4.663159	-0.186030	-0.345606
O20	O	-4.163159	0.313970	0.154394
O21	O	-4.690734	-0.088930	-0.504598
O22	O	-4.190734	0.411070	-0.004598
O23	O	-4.348770	-0.086124	-0.182255
O24	O	-3.848770	0.413876	0.317745
C25	C	-3.844042	-0.215008	-0.350765
C26	C	-3.344042	0.284992	0.149235
C27	C	-3.878411	-0.292684	-0.350236
C28	C	-3.378411	0.207316	0.149764
C29	C	-3.878974	-0.091999	-0.552180
C30	C	-3.378974	0.408001	-0.052180
C31	C	-3.935549	-0.091468	-0.679699
C32	C	-3.435549	0.408532	-0.179699
C33	C	-4.076995	-0.332732	-0.355724
C34	C	-3.576995	0.167268	0.144276
C35	C	-4.109295	-0.405718	-0.355238
C36	C	-3.609295	0.094282	0.144762
C37	C	-3.942988	-0.438651	-0.349241
C38	C	-3.442988	0.061349	0.150759
C39	C	-3.744379	-0.398594	-0.343759
C40	C	-3.244379	0.101406	0.156241
C41	C	-3.712091	-0.325611	-0.344257
C42	C	-3.212091	0.174389	0.155743
C43	C	-3.821247	-0.545106	-0.276501
C44	C	-3.321247	-0.045106	0.223499
C45	C	-3.853539	-0.618088	-0.275996
C46	C	-3.353539	-0.118088	0.224004
C47	C	-4.042571	-0.663756	-0.347712
C48	C	-3.542571	-0.163756	0.152288
C49	C	-4.199334	-0.636433	-0.419918
C50	C	-3.699334	-0.136433	0.080082
C51	C	-4.167046	-0.563450	-0.420416
C52	C	-3.667046	-0.063450	0.079584
C53	C	-3.977979	-0.517789	-0.348702
C54	C	-3.477979	-0.017789	0.151298
C55	C	-4.276191	-0.782944	-0.352675
C56	C	-3.776191	-0.282944	0.147325
C57	C	-4.308488	-0.855932	-0.352197
C58	C	-3.808488	-0.355932	0.147803
C59	C	-3.943561	-0.848805	-0.340706
C60	C	-3.443561	-0.348805	0.159294
C61	C	-3.911276	-0.775820	-0.341197
C62	C	-3.411276	-0.275820	0.158803
C63	C	-4.077596	-0.742894	-0.347176
C64	C	-3.577596	-0.242894	0.152824
C65	C	-4.039090	-0.090498	-0.913168
C66	C	-3.539090	0.409502	-0.413168
C67	C	-3.981464	-0.091037	-0.783249
C68	C	-3.481464	0.408963	-0.283249
C69	C	-4.197308	0.033465	-0.345665
C70	C	-3.697308	0.533465	0.154335
C71	C	-4.142178	0.111140	-0.346202
C72	C	-3.642178	0.611140	0.153798
C73	C	-4.162376	-0.089543	-0.144247
C74	C	-3.662376	0.410457	0.355753
C75	C	-4.085040	-0.090070	-0.016728
C76	C	-3.585040	0.409930	0.483272
H77	H	-4.212433	-0.305929	-0.360600
H78	H	-3.712433	0.194071	0.139400
H79	H	-3.667300	-0.507928	-0.218105
H80	H	-3.167300	-0.007928	0.281895
Cl81	Cl	-4.485285	-0.741550	-0.360218
Cl82	Cl	-3.985285	-0.241550	0.139782
Cl83	Cl	-4.558163	-0.906280	-0.359104
Cl84	Cl	-4.058163	-0.406280	0.140896
H85	H	-4.353100	-0.673626	-0.478474
H86	H	-3.853100	-0.173626	0.021526
Cl87	Cl	-3.734490	-0.890201	-0.333181
Cl88	Cl	-3.234490	-0.390201	0.166819
H89	H	-4.294688	-0.541207	-0.479210
H90	H	-3.794688	-0.041207	0.020790
Cl91	Cl	-3.661608	-0.725470	-0.334287
Cl92	Cl	-3.161608	-0.225470	0.165713
Cl93	Cl	-3.656482	-0.652428	-0.185207
Cl94	Cl	-3.156482	-0.152428	0.314793
Cl95	Cl	-3.535311	-0.439995	-0.336227
Cl96	Cl	-3.035311	0.060005	0.163773
H97	H	-3.550378	-0.293004	-0.339789
H98	H	-3.050378	0.206996	0.160211
H99	H	-4.271010	-0.438332	-0.359707
H100	H	-3.771010	0.061668	0.140293
