data_functionalizedCrystal
_audit_creation_method	'MofGen! by Chris Wilmer'
_symmetry_space_group_name_H-M	'P1'
_symmetry_Int_Tables_number	1
_symmetry_cell_setting	triclinic
loop_
_symmetry_equiv_pos_as_xyz
  x,y,z
_cell_length_a	9.065215
_cell_length_b	14.853567
_cell_length_c	8.140239
_cell_angle_alpha	90.000276
_cell_angle_beta	89.997810
_cell_angle_gamma	84.324814
loop_
_atom_site_label
_atom_site_type_symbol
_atom_site_fract_x
_atom_site_fract_y
_atom_site_fract_z
O1	O	1.957781	0.132179	-0.136579
O2	O	1.528280	0.143024	-0.136585
O3	O	1.754503	0.006456	-0.136587
O4	O	1.731558	0.268746	-0.136577
O5	O	1.754490	0.006455	0.136641
O6	O	1.528268	0.143023	0.136642
O7	O	1.957768	0.132177	0.136648
Zn8	Zn	1.743016	0.137599	0.180026
Zn9	Zn	1.743032	0.137602	-0.179962
O10	O	1.731545	0.268745	0.136650
C11	C	1.473308	0.141982	0.000028
C12	C	1.309527	0.138867	0.000025
C13	C	1.753457	-0.027141	0.000022
C14	C	1.750342	-0.127248	0.000008
C15	C	1.602790	-0.540872	0.000037
C16	C	1.871548	-0.560166	0.000041
C17	C	1.874478	-0.466111	0.000031
C18	C	1.741561	-0.409432	0.000027
C19	C	1.605716	-0.446808	0.000032
C20	C	2.010321	-0.428727	0.000042
C21	C	2.013256	-0.334666	0.000035
C22	C	1.880338	-0.277986	0.000019
C23	C	1.744487	-0.315367	0.000022
C24	C	1.611571	-0.258688	0.000018
C25	C	1.475718	-0.296068	0.000010
C26	C	1.472798	-0.390127	0.000016
C27	C	1.883258	-0.183927	0.000012
C28	C	1.614496	-0.164624	0.000013
C29	C	2.012740	0.133219	0.000032
C30	C	2.176522	0.136334	0.000024
C31	C	1.732591	0.302342	0.000038
C32	C	1.735707	0.402449	0.000041
N33	N	1.743015	0.137597	0.425709
N34	N	1.743044	0.137597	-0.425645
H35	H	1.506258	-0.118481	0.000003
H36	H	2.123875	-0.304240	0.000039
H37	H	1.993867	-0.153496	0.000030
C38	C	2.156518	-0.491068	0.000046
H39	H	2.237842	-0.455337	0.000064
H40	H	2.160966	-0.528161	-0.095236
H41	H	2.160952	-0.528162	0.095337
C42	C	1.329519	-0.233716	0.000003
H43	H	1.350728	-0.172346	-0.000005
H44	H	1.273811	-0.245162	0.095276
H45	H	1.273837	-0.245161	-0.095297
H46	H	1.492182	-0.571311	0.000024
C47	C	2.017747	-0.622505	0.000047
H48	H	2.099070	-0.586772	0.000052
H49	H	2.022193	-0.659604	-0.095227
H50	H	2.022188	-0.659593	0.095345
H51	H	1.362194	-0.420571	0.000012
