data_functionalizedCrystal
_audit_creation_method	'MofGen! by Chris Wilmer'
_symmetry_space_group_name_H-M	'P1'
_symmetry_Int_Tables_number	1
_symmetry_cell_setting	triclinic
loop_
_symmetry_equiv_pos_as_xyz
  x,y,z
_cell_length_a	10.654544
_cell_length_b	10.654541
_cell_length_c	14.586319
_cell_angle_alpha	89.996435
_cell_angle_beta	89.995432
_cell_angle_gamma	84.484390
loop_
_atom_site_label
_atom_site_type_symbol
_atom_site_fract_x
_atom_site_fract_y
_atom_site_fract_z
O1	O	1.667839	0.176397	-0.076263
O2	O	1.302360	0.193203	-0.076260
O3	O	1.493504	0.002060	-0.076256
O4	O	1.476695	0.367539	-0.076267
O5	O	1.493491	0.002057	0.076225
O6	O	1.302347	0.193200	0.076221
O7	O	1.667826	0.176394	0.076218
Cu8	Cu	1.485085	0.184797	0.090142
Cu9	Cu	1.485101	0.184800	-0.090184
O10	O	1.476682	0.367536	0.076214
C11	C	1.255556	0.191968	-0.000019
C12	C	1.116112	0.188276	-0.000018
C13	C	1.116073	0.188287	0.166222
C14	C	1.050543	0.186562	0.249338
C15	C	0.919525	0.183091	0.249335
C16	C	0.854033	0.181341	0.166205
C17	C	0.919563	0.183067	0.083088
C18	C	1.050584	0.186541	0.083101
C19	C	0.919603	0.183046	-0.083149
C20	C	1.050621	0.186526	-0.083147
C21	C	0.854112	0.181297	-0.166279
C22	C	0.919640	0.183031	-0.249397
C23	C	1.050667	0.186503	-0.249390
C24	C	1.116150	0.188251	-0.166264
C25	C	1.492264	-0.044739	-0.000016
C26	C	1.488573	-0.184183	-0.000017
C27	C	1.717138	-0.212154	-0.000008
C28	C	1.829681	-0.291648	-0.000001
C29	C	1.826206	-0.422666	-0.000004
C30	C	1.710174	-0.474191	-0.000016
C31	C	1.597631	-0.394697	-0.000023
C32	C	1.601119	-0.263677	-0.000017
C33	C	1.369069	-0.366726	-0.000039
C34	C	1.372542	-0.235708	-0.000030
C35	C	1.253038	-0.418251	-0.000051
C36	C	1.140492	-0.338757	-0.000051
C37	C	1.143973	-0.207731	-0.000048
C38	C	1.259999	-0.156214	-0.000036
C39	C	1.714630	0.177629	-0.000025
C40	C	1.854074	0.181321	-0.000032
C41	C	1.477922	0.414336	-0.000028
C42	C	1.481613	0.553779	-0.000032
N43	N	1.485083	0.184793	0.216974
N44	N	1.485113	0.184793	-0.217016
C45	C	1.569750	0.100184	0.451982
C46	C	1.569754	0.100181	0.547963
C47	C	1.400437	0.269406	0.547969
C48	C	1.400428	0.269402	0.451990
C49	C	1.485092	0.184793	0.403999
C50	C	1.485104	0.184794	0.595959
C51	C	1.485107	0.184791	0.700027
C52	C	1.485087	0.184794	0.299925
H53	H	1.222753	0.191131	0.166233
F54	F	1.263713	-0.016774	-0.000026
F55	F	0.714669	0.177609	-0.166281
H56	H	1.331507	0.338296	0.587053
F57	F	0.714592	0.177640	0.166205
H58	H	1.707355	-0.580874	-0.000030
H59	H	1.331483	0.338301	0.412919
F60	F	1.120252	0.188424	0.337807
F61	F	1.017018	-0.393601	-0.000074
H62	H	0.866308	0.181599	-0.317075
H63	H	1.917848	-0.487392	-0.000006
F64	F	1.255591	0.191953	-0.166249
H65	H	0.866169	0.181696	0.317015
F66	F	1.249342	-0.557693	-0.000102
H67	H	1.104013	0.187905	-0.317074
F68	F	1.720846	-0.072714	0.000013
F69	F	1.024186	-0.123136	-0.000061
H70	H	1.924152	-0.249682	0.000017
F71	F	1.659854	0.010132	0.400910
H72	H	1.638689	0.031284	0.587029
