data_functionalizedCrystal
_audit_creation_method	'MofGen! by Chris Wilmer'
_symmetry_space_group_name_H-M	'P1'
_symmetry_Int_Tables_number	1
_symmetry_cell_setting	triclinic
loop_
_symmetry_equiv_pos_as_xyz
  x,y,z
_cell_length_a	12.837942
_cell_length_b	14.971482
_cell_length_c	11.295675
_cell_angle_alpha	94.100462
_cell_angle_beta	85.464514
_cell_angle_gamma	89.220774
loop_
_atom_site_label
_atom_site_type_symbol
_atom_site_fract_x
_atom_site_fract_y
_atom_site_fract_z
O1	O	0.142053	1.192908	-0.099007
O2	O	0.642053	1.692908	0.400993
O3	O	0.158237	0.933872	-0.099012
O4	O	0.658237	1.433872	0.400988
O5	O	-0.000765	1.057646	-0.099002
O6	O	0.499235	1.557646	0.400998
O7	O	0.301055	1.069133	-0.099017
O8	O	0.801055	1.569133	0.400983
O9	O	-0.014709	1.068491	0.099043
O10	O	0.485291	1.568491	0.599043
O11	O	0.144293	0.944716	0.099033
O12	O	0.644293	1.444716	0.599033
O13	O	0.128109	1.203753	0.099039
O14	O	0.628109	1.703753	0.599039
Cu15	Cu	0.134928	1.075225	0.117119
Cu16	Cu	0.634928	1.575225	0.617119
Cu17	Cu	0.151418	1.062400	-0.117093
Cu18	Cu	0.651418	1.562400	0.382907
O19	O	0.287111	1.079978	0.099029
O20	O	0.787111	1.579978	0.599029
C21	C	0.150542	0.905908	0.000010
C22	C	0.650542	1.405908	0.500010
C23	C	0.148375	0.806428	0.000008
C24	C	0.648375	1.306428	0.500008
C25	C	0.139754	0.765609	0.107964
C26	C	0.639754	1.265609	0.607964
C27	C	0.137701	0.672138	0.107965
C28	C	0.637701	1.172138	0.607965
C29	C	0.144278	0.619487	0.000009
C30	C	0.644278	1.119487	0.500009
C31	C	0.152897	0.660312	-0.107955
C32	C	0.652897	1.160312	0.392045
C33	C	0.154942	0.753782	-0.107955
C34	C	0.654942	1.253782	0.392045
C35	C	0.148636	0.465491	-0.107947
C36	C	0.648636	0.965491	0.392053
C37	C	0.146593	0.372015	-0.107948
C38	C	0.646593	0.872015	0.392052
C39	C	0.131396	0.383847	0.107973
C40	C	0.631396	0.883847	0.607973
C41	C	0.133441	0.477317	0.107973
C42	C	0.633441	0.977317	0.607973
C43	C	0.142062	0.518136	0.000008
C44	C	0.642062	1.018136	0.500008
C45	C	-0.046363	1.059188	0.000020
C46	C	0.453637	1.559188	0.500020
C47	C	-0.161454	1.047614	0.000018
C48	C	0.338546	1.547614	0.500018
C49	C	-0.402240	1.186755	-0.000004
C50	C	0.097760	1.686755	0.499996
C51	C	-0.510379	1.175884	-0.000006
C52	C	-0.010379	1.675884	0.499994
C53	C	-0.485872	1.015001	0.000002
C54	C	0.014128	1.515001	0.500002
C55	C	-0.377733	1.025872	0.000005
C56	C	0.122267	1.525872	0.500005
C57	C	-0.335922	1.111752	0.000003
C58	C	0.164078	1.611752	0.500003
C59	C	-0.227781	1.122622	0.000014
C60	C	0.272219	1.622622	0.500014
C61	C	-0.203276	0.961740	0.000014
C62	C	0.296724	1.461740	0.500014
C63	C	-0.311415	0.950869	0.000012
C64	C	0.188585	1.450869	0.500012
C65	C	0.332709	1.078436	0.000004
C66	C	0.832709	1.578436	0.500004
C67	C	0.447800	1.090010	-0.000001
C68	C	0.947800	1.590010	0.499999
C69	C	0.135804	1.231716	0.000014
C70	C	0.635804	1.731716	0.500014
C71	C	0.137971	1.331196	0.000008
C72	C	0.637971	1.831196	0.500008
N73	N	0.123329	1.084252	0.281851
N74	N	0.623329	1.584252	0.781851
N75	N	0.163009	1.053379	-0.281825
N76	N	0.663009	1.553379	0.218175
C77	C	0.246557	0.988298	0.531186
C78	C	0.746557	1.488298	1.031186
C79	C	0.237782	0.995140	0.655847
C80	C	0.737782	1.495140	1.155847
C81	C	0.097009	1.104782	0.655835
C82	C	0.597009	1.604782	1.155835
C83	C	0.105784	1.097940	0.531174
C84	C	0.605784	1.597940	1.031174
C85	C	0.180559	1.039695	0.468855
C86	C	0.680559	1.539695	0.968855
C87	C	0.189329	1.032849	0.344192
C88	C	0.689329	1.532849	0.844192
C89	C	0.048561	1.142495	0.344182
C90	C	0.548561	1.642495	0.844182
C91	C	0.039786	1.149337	0.468842
C92	C	0.539786	1.649337	0.968842
H93	H	0.155657	0.498722	-0.195864
H94	H	0.655657	0.998722	0.304136
F95	F	0.159864	0.604275	-0.222850
F96	F	0.659864	1.104275	0.277150
H97	H	-0.149267	0.900668	0.000030
H98	H	0.350733	1.400668	0.500030
H99	H	0.036135	1.152209	0.706592
H100	H	0.536135	1.652209	1.206592
H101	H	-0.345473	0.880948	0.000009
H102	H	0.154527	1.380948	0.500009
H103	H	0.250212	0.985422	0.293452
H104	H	0.750212	1.485422	0.793452
F105	F	0.132761	0.821636	0.222867
F106	F	0.632761	1.321636	0.722867
H107	H	-0.193741	1.192550	0.000017
H108	H	0.306259	1.692550	0.500017
F109	F	0.308028	0.940438	0.722181
F110	F	0.808028	1.440438	1.222181
H111	H	0.161964	0.787015	-0.195864
H112	H	0.661964	1.287015	0.304136
H113	H	-0.021092	1.196761	0.519598
H114	H	0.478908	1.696761	1.019598
F115	F	-0.530388	0.923608	-0.000025
F116	F	-0.030388	1.423608	0.499975
H117	H	-0.368198	1.256682	0.000006
H118	H	0.131802	1.756682	0.500006
H119	H	-0.564373	1.236959	-0.000016
H120	H	-0.064373	1.736959	0.499984
H121	H	0.307436	0.940867	0.480445
H122	H	0.807436	1.440867	0.980445
H123	H	-0.005181	1.184343	0.293417
H124	H	0.494819	1.684343	0.793417
F125	F	0.126452	0.533350	0.222872
F126	F	0.626452	1.033350	0.722872
F127	F	0.122221	0.340404	0.222878
F128	F	0.622221	0.840404	0.722878
F129	F	0.153591	0.315981	-0.222846
F130	F	0.653591	0.815981	0.277154
F131	F	0.128539	0.628699	0.222867
F132	F	0.628539	1.128699	0.722867
