data_functionalizedCrystal
_audit_creation_method	'MofGen! by Chris Wilmer'
_symmetry_space_group_name_H-M	'P1'
_symmetry_Int_Tables_number	1
_symmetry_cell_setting	triclinic
loop_
_symmetry_equiv_pos_as_xyz
  x,y,z
_cell_length_a	17.019284
_cell_length_b	17.038272
_cell_length_c	13.448316
_cell_angle_alpha	89.999047
_cell_angle_beta	86.124009
_cell_angle_gamma	92.758308
loop_
_atom_site_label
_atom_site_type_symbol
_atom_site_fract_x
_atom_site_fract_y
_atom_site_fract_z
O1	O	-0.171288	1.037215	-0.067890
O2	O	0.162046	1.370548	0.265444
O3	O	0.495379	1.703882	0.598777
O4	O	-0.168568	0.809587	-0.068152
O5	O	0.164766	1.142920	0.265181
O6	O	0.498099	1.476253	0.598515
O7	O	-0.055522	0.929756	-0.077817
O8	O	0.277812	1.263089	0.255516
O9	O	0.611145	1.596423	0.588849
O10	O	-0.284334	0.917045	-0.058225
O11	O	0.049000	1.250379	0.275109
O12	O	0.382333	1.583712	0.608442
O13	O	-0.055513	0.929741	0.087566
O14	O	0.277820	1.263074	0.420899
O15	O	0.611153	1.596408	0.754232
O16	O	-0.168559	0.809572	0.097231
O17	O	0.164774	1.142905	0.430564
O18	O	0.498107	1.476238	0.763898
O19	O	-0.171279	1.037200	0.097493
O20	O	0.162054	1.370533	0.430827
O21	O	0.495388	1.703866	0.764160
Cu22	Cu	-0.169918	0.923384	0.112463
Cu23	Cu	0.163415	1.256718	0.445796
Cu24	Cu	0.496748	1.590051	0.779130
Cu25	Cu	-0.169928	0.923402	-0.083122
Cu26	Cu	0.163405	1.256735	0.250212
Cu27	Cu	0.496738	1.590069	0.583545
O28	O	-0.284325	0.917030	0.107158
O29	O	0.049008	1.250364	0.440492
O30	O	0.382341	1.583697	0.773825
C31	C	-0.166090	0.780453	0.014324
C32	C	0.167243	1.113786	0.347657
C33	C	0.500577	1.447120	0.680990
C34	C	-0.158710	0.693667	0.013680
C35	C	0.174624	1.027000	0.347014
C36	C	0.507957	1.360333	0.680347
C37	C	-0.226469	0.643492	0.019483
C38	C	0.106864	0.976825	0.352817
C39	C	0.440197	1.310158	0.686150
C40	C	-0.219530	0.561947	0.018903
C41	C	0.113803	0.895281	0.352236
C42	C	0.447136	1.228614	0.685569
C43	C	-0.144830	0.530580	0.012512
C44	C	0.188503	0.863913	0.345846
C45	C	0.521836	1.197246	0.679179
C46	C	-0.077065	0.580761	0.006712
C47	C	0.256268	0.914095	0.340045
C48	C	0.589601	1.247428	0.673379
C49	C	-0.084005	0.662304	0.007300
C50	C	0.249328	0.995637	0.340633
C51	C	0.582661	1.328971	0.673966
C52	C	-0.120312	0.284844	0.010439
C53	C	0.213021	0.618177	0.343773
C54	C	0.546354	0.951511	0.677106
C55	C	-0.113378	0.203295	0.009849
C56	C	0.219956	0.536628	0.343183
C57	C	0.553289	0.869961	0.676516
C58	C	-0.255843	0.184486	0.022042
C59	C	0.077490	0.517820	0.355375
C60	C	0.410824	0.851153	0.688709
C61	C	-0.262777	0.266031	0.022623
C62	C	0.070557	0.599365	0.355956
C63	C	0.403890	0.932698	0.689290
C64	C	-0.195012	0.316206	0.016828
C65	C	0.138322	0.649539	0.350161
C66	C	0.471655	0.982873	0.683495
C67	C	-0.137735	0.447229	0.011916
C68	C	0.195598	0.780562	0.345249
C69	C	0.528931	1.113895	0.678582
C70	C	-0.202107	0.399555	0.017432
C71	C	0.131226	0.732889	0.350765
C72	C	0.464560	1.066222	0.684098
C73	C	-0.313751	0.917518	0.026986
C74	C	0.019583	1.250852	0.360320
C75	C	0.352916	1.584185	0.693653
C76	C	-0.401418	0.918959	0.034494
C77	C	-0.068084	1.252292	0.367827
C78	C	0.265249	1.585626	0.701160
C79	C	-0.442605	0.919645	-0.052130
C80	C	-0.109272	1.252978	0.281203
C81	C	0.224061	1.586311	0.614536
C82	C	-0.524977	0.921008	-0.045076
C83	C	-0.191644	1.254342	0.288257
C84	C	0.141690	1.587675	0.621590
C85	C	-0.566160	0.921681	0.048603
C86	C	-0.232826	1.255014	0.381936
C87	C	0.100507	1.588347	0.715269
C88	C	-0.524966	0.920997	0.135233
C89	C	-0.191633	1.254331	0.468567
C90	C	0.141701	1.587664	0.801900
C91	C	-0.442596	0.919639	0.128178
C92	C	-0.109262	1.252972	0.461512
C93	C	0.224071	1.586306	0.794845
C94	C	-0.814865	0.925786	0.074414
C95	C	-0.481532	1.259119	0.407748
C96	C	-0.148198	1.592453	0.741081
C97	C	-0.897242	0.927142	0.081463
C98	C	-0.563908	1.260475	0.414796
C99	C	-0.230575	1.593808	0.748129
C100	C	-0.897247	0.927154	-0.098848
C101	C	-0.563913	1.260488	0.234486
C102	C	-0.230580	1.593821	0.567819
C103	C	-0.814875	0.925791	-0.105894
C104	C	-0.481542	1.259125	0.227439
C105	C	-0.148208	1.592458	0.560772
C106	C	-0.773688	0.925112	-0.019264
C107	C	-0.440355	1.258446	0.314069
C108	C	-0.107022	1.591779	0.647403
C109	C	-0.650357	0.923072	0.055815
C110	C	-0.317024	1.256405	0.389149
C111	C	0.016310	1.589739	0.722482
C112	C	-0.689492	0.923726	-0.026477
C113	C	-0.356159	1.257060	0.306856
C114	C	-0.022825	1.590393	0.640189
C115	C	-0.026096	0.929268	0.002353
C116	C	0.307237	1.262601	0.335686
C117	C	0.640570	1.595935	0.669019
C118	C	0.061571	0.927827	-0.005161
C119	C	0.394904	1.261161	0.328172
C120	C	0.728237	1.594494	0.661505
C121	C	-0.173757	1.066333	0.015015
C122	C	0.159576	1.399667	0.348349
C123	C	0.492910	1.733000	0.681682
C124	C	-0.181137	1.153120	0.015652
C125	C	0.152196	1.486453	0.348985
C126	C	0.485529	1.819786	0.682319
N127	N	-0.169911	0.923377	0.250027
N128	N	0.163422	1.256711	0.583360
N129	N	0.496755	1.590044	0.916693
N130	N	-0.169930	0.923415	-0.220686
N131	N	0.163404	1.256748	0.112647
N132	N	0.496737	1.590082	0.445981
C133	C	-0.119878	0.976605	0.297789
C134	C	0.213456	1.309938	0.631123
C135	C	0.546789	1.643272	0.964456
C136	C	-0.119877	0.976610	0.401892
C137	C	0.213456	1.309943	0.735226
C138	C	0.546789	1.643276	1.068559
C139	C	-0.169915	0.923390	0.458232
C140	C	0.163418	1.256724	0.791565
C141	C	0.496751	1.590057	1.124898
C142	C	-0.219951	0.870157	0.410462
C143	C	0.113382	1.203491	0.743795
C144	C	0.446716	1.536824	1.077128
C145	C	-0.219947	0.870149	0.306360
C146	C	0.113386	1.203483	0.639693
C147	C	0.446720	1.536816	0.973027
C148	C	-0.219958	0.870179	0.627442
C149	C	0.113375	1.203512	0.960776
C150	C	0.446709	1.536846	1.294109
C151	C	-0.219963	0.870188	0.731551
C152	C	0.113370	1.203521	1.064885
C153	C	0.446703	1.536854	1.398218
C154	C	-0.119888	0.976640	0.722975
C155	C	0.213445	1.309973	1.056308
C156	C	0.546778	1.643306	1.389641
C157	C	-0.119884	0.976632	0.618873
C158	C	0.213449	1.309965	0.952206
C159	C	0.546783	1.643298	1.285540
C160	C	-0.169921	0.923399	0.571111
C161	C	0.163412	1.256732	0.904444
C162	C	0.496745	1.590066	1.237777
H163	H	-0.076914	0.421680	0.006740
H164	H	0.256419	0.755013	0.340074
H165	H	0.589752	1.088347	0.673407
O166	O	-0.047225	0.338953	0.004191
O167	O	0.286109	0.672286	0.337524
O168	O	0.619442	1.005620	0.670858
H169	H	-0.011740	0.327816	-0.066256
H170	H	0.321593	0.661149	0.267077
H171	H	0.654927	0.994482	0.600411
O172	O	-0.328925	0.130365	0.028308
O173	O	0.004408	0.463698	0.361641
O174	O	0.337742	0.797031	0.694975
H175	H	-0.364417	0.141494	-0.036064
H176	H	-0.031083	0.474828	0.297269
H177	H	0.302250	0.808161	0.630602
H178	H	-0.409081	0.919090	-0.128414
H179	H	-0.075747	1.252423	0.204919
H180	H	0.257586	1.585757	0.538253
H181	H	-0.287298	0.669024	0.024686
H182	H	0.046035	1.002357	0.358020
H183	H	0.379369	1.335691	0.691353
O184	O	-0.292615	0.507829	0.025166
O185	O	0.040719	0.841162	0.358499
O186	O	0.374052	1.174495	0.691832
H187	H	-0.328101	0.518959	-0.039211
H188	H	0.005232	0.852292	0.294122
H189	H	0.338566	1.185626	0.627455
O190	O	-0.569405	0.921733	-0.138505
O191	O	-0.236072	1.255066	0.194828
O192	O	0.097261	1.588400	0.528161
H193	H	-0.526931	0.921022	-0.204831
H194	H	-0.193598	1.254356	0.128503
H195	H	0.139736	1.587689	0.461836
H196	H	-0.079135	1.019946	0.251925
H197	H	0.254199	1.353279	0.585258
H198	H	0.587532	1.686612	0.918591
O199	O	-0.273898	0.812732	0.254831
O200	O	0.059435	1.146065	0.588164
O201	O	0.392768	1.479398	0.921497
H202	H	-0.314457	0.845580	0.210847
H203	H	0.018876	1.178913	0.544180
H204	H	0.352209	1.512247	0.877514
O205	O	0.003504	0.546930	-0.000179
O206	O	0.336837	0.880263	0.333154
O207	O	0.670171	1.213596	0.666487
H208	H	0.036326	0.567087	0.064424
H209	H	0.369659	0.900421	0.397757
H210	H	0.702993	1.233754	0.731091
O211	O	-0.273932	0.812784	0.792316
O212	O	0.059401	1.146118	1.125649
O213	O	0.392735	1.479451	1.458982
H214	H	-0.265534	0.821743	0.872728
H215	H	0.067799	1.155076	1.206061
H216	H	0.401133	1.488409	1.539395
O217	O	-0.343345	0.299864	0.029541
O218	O	-0.010012	0.633198	0.362874
O219	O	0.323321	0.966531	0.696208
H220	H	-0.389299	0.251274	0.033494
H221	H	-0.055966	0.584607	0.366828
H222	H	0.277368	0.917941	0.700161
H223	H	-0.409062	0.919080	0.198717
H224	H	-0.075728	1.252414	0.532050
H225	H	0.257605	1.585747	0.865384
O226	O	-0.032805	0.169458	0.002966
O227	O	0.300528	0.502791	0.336299
O228	O	0.633862	0.836125	0.669632
H229	H	0.013151	0.218046	-0.000955
H230	H	0.346485	0.551379	0.332378
H231	H	0.679818	0.884713	0.665712
H232	H	-0.028828	0.703157	0.002574
H233	H	0.304506	1.036490	0.335907
H234	H	0.637839	1.369823	0.669240
O235	O	-0.282677	0.433379	0.024329
O236	O	0.050657	0.766713	0.357662
O237	O	0.383990	1.100046	0.690995
H238	H	-0.289246	0.470074	-0.042523
H239	H	0.044087	0.803408	0.290810
H240	H	0.377420	1.136741	0.624144
O241	O	-0.065910	1.034029	0.558107
O242	O	0.267423	1.367362	0.891440
O243	O	0.600757	1.700695	1.224774
H244	H	-0.101684	1.071983	0.513734
H245	H	0.231650	1.405316	0.847067
H246	H	0.564983	1.738649	1.180400
H247	H	-0.079147	1.019983	0.761869
H248	H	0.254187	1.353316	1.095202
H249	H	0.587520	1.686649	1.428536
O250	O	-0.941667	0.927890	-0.192283
O251	O	-0.608334	1.261223	0.141051
O252	O	-0.275000	1.594556	0.474384
H253	H	-0.975731	0.981771	-0.193679
H254	H	-0.642398	1.315105	0.139654
H255	H	-0.309065	1.648438	0.472987
H256	H	-0.781349	0.925250	-0.182178
H257	H	-0.448016	1.258583	0.151156
H258	H	-0.114683	1.591916	0.484489
O259	O	-0.941665	0.927874	0.182506
O260	O	-0.608332	1.261208	0.515840
O261	O	-0.274998	1.594541	0.849173
H262	H	-0.899187	0.927182	0.241562
H263	H	-0.565854	1.260515	0.574895
H264	H	-0.232520	1.593849	0.908229
H265	H	-0.781341	0.925234	0.144955
H266	H	-0.448007	1.258567	0.478289
H267	H	-0.114674	1.591901	0.811622
O268	O	-0.273924	0.812759	0.471228
O269	O	0.059410	1.146092	0.804562
O270	O	0.392743	1.479426	1.137895
H271	H	-0.336085	0.822644	0.456549
H272	H	-0.002752	1.155978	0.789882
H273	H	0.330581	1.489311	1.123215
O274	O	-0.569378	0.921724	0.236277
O275	O	-0.236045	1.255057	0.569610
O276	O	0.097288	1.588391	0.902944
H277	H	-0.633577	0.922776	0.226632
H278	H	-0.300243	1.256109	0.559965
H279	H	0.033090	1.589442	0.893299
O280	O	-0.273929	0.812769	0.575921
O281	O	0.059404	1.146103	0.909255
O282	O	0.392738	1.479436	1.242588
H283	H	-0.308732	0.775770	0.632585
H284	H	0.024601	1.109103	0.965919
H285	H	0.357934	1.442437	1.299252
O286	O	-0.645082	0.922990	-0.127518
O287	O	-0.311749	1.256324	0.205816
O288	O	0.021584	1.589657	0.539149
H289	H	-0.604088	0.975626	-0.135342
H290	H	-0.270755	1.308959	0.197991
H291	H	0.062578	1.642292	0.531324
O292	O	-0.694776	0.923796	0.156855
O293	O	-0.361442	1.257130	0.490188
O294	O	-0.028109	1.590463	0.823522
H295	H	-0.735761	0.871154	0.164669
H296	H	-0.402428	1.204487	0.498003
H297	H	-0.069094	1.537820	0.831336
O298	O	-0.065928	1.034033	0.453413
O299	O	0.267405	1.367366	0.786747
O300	O	0.600738	1.700700	1.120080
H301	H	-0.031146	1.071049	0.396749
H302	H	0.302188	1.404383	0.730082
H303	H	0.635521	1.737716	1.063416
