data_functionalizedCrystal
_audit_creation_method	'MofGen! by Chris Wilmer'
_symmetry_space_group_name_H-M	'P1'
_symmetry_Int_Tables_number	1
_symmetry_cell_setting	triclinic
loop_
_symmetry_equiv_pos_as_xyz
  x,y,z
_cell_length_a	15.297327
_cell_length_b	18.215407
_cell_length_c	18.215399
_cell_angle_alpha	90.017777
_cell_angle_beta	99.648308
_cell_angle_gamma	80.297711
loop_
_atom_site_label
_atom_site_type_symbol
_atom_site_fract_x
_atom_site_fract_y
_atom_site_fract_z
Zn1	Zn	-0.359277	-1.074344	-0.466771
Zn2	Zn	0.140723	-0.574344	0.033229
Zn3	Zn	-0.510147	-1.052950	-0.364993
Zn4	Zn	-0.010147	-0.552950	0.135007
Zn5	Zn	-0.359294	-0.951274	-0.343725
Zn6	Zn	0.140706	-0.451274	0.156275
Zn7	Zn	-0.510084	-0.929949	-0.488014
Zn8	Zn	-0.010084	-0.429949	0.011986
O9	O	-0.434700	-1.002129	-0.415876
O10	O	0.065300	-0.502129	0.084124
O11	O	-0.379309	-1.174487	-0.453281
O12	O	0.120691	-0.674487	0.046719
O13	O	-0.490169	-1.039434	-0.259193
O14	O	0.009831	-0.539434	0.240807
O15	O	-0.233046	-0.985477	-0.342257
O16	O	0.266954	-0.485477	0.157743
O17	O	-0.490153	-1.158770	-0.378505
O18	O	0.009847	-0.658770	0.121495
O19	O	-0.233033	-1.075896	-0.432658
O20	O	0.266967	-0.575896	0.067342
O21	O	-0.379338	-0.964733	-0.243567
O22	O	0.120662	-0.464733	0.256433
O23	O	-0.379277	-0.845464	-0.362855
O24	O	0.120723	-0.345464	0.137145
O25	O	-0.490046	-0.949132	-0.588176
O26	O	0.009954	-0.449132	-0.088176
O27	O	-0.490062	-0.829796	-0.468863
O28	O	0.009938	-0.329796	0.031137
O29	O	-0.379248	-1.055218	-0.572569
O30	O	0.120752	-0.555218	-0.072569
O31	O	-0.636384	-1.018756	-0.399103
O32	O	-0.136384	-0.518756	0.100897
O33	O	-0.636338	-0.928388	-0.489486
O34	O	-0.136338	-0.428388	0.010514
C35	C	-0.434665	-0.810928	-0.415857
C36	C	0.065335	-0.310928	0.084143
C37	C	-0.434672	-0.729128	-0.415869
C38	C	0.065328	-0.229128	0.084131
C39	C	-0.377067	-0.549102	-0.454893
C40	C	0.122933	-0.049102	0.045107
C41	C	-0.377072	-0.472242	-0.454896
C42	C	0.122928	0.027758	0.045104
C43	C	-0.492320	-0.455911	-0.376862
C44	C	0.007680	0.044089	0.123138
C45	C	-0.492310	-0.532769	-0.376856
C46	C	0.007690	-0.032769	0.123144
C47	C	-0.434685	-0.579363	-0.415876
C48	C	0.065315	-0.079363	0.084124
C49	C	-0.434700	-0.425645	-0.415885
C50	C	0.065300	0.074355	0.084115
C51	C	-0.434705	-0.342310	-0.415887
C52	C	0.065295	0.157690	0.084113
C53	C	-0.434678	-0.662703	-0.415872
C54	C	0.065322	-0.162703	0.084128
C55	C	-0.669095	-0.968956	-0.448924
C56	C	-0.169095	-0.468956	0.051076
C57	C	-0.769371	-0.954832	-0.463086
C58	C	-0.269371	-0.454832	0.036914
C59	C	-1.052001	-1.103381	-0.314905
C60	C	-0.552001	-0.603381	0.185095
C61	C	-0.957787	-1.116651	-0.301595
C62	C	-0.457787	-0.616651	0.198405
C63	C	-0.910678	-1.076198	-0.341967
C64	C	-0.410678	-0.576198	0.158033
C65	C	-0.957792	-1.022471	-0.395651
C66	C	-0.457792	-0.522471	0.104349
C67	C	-1.052015	-1.009196	-0.408958
C68	C	-0.552015	-0.509196	0.091042
C69	C	-0.910693	-0.982013	-0.436020
C70	C	-0.410693	-0.482013	0.063980
C71	C	-0.957807	-0.928286	-0.489704
C72	C	-0.457807	-0.428286	0.010296
C73	C	-1.052020	-0.915014	-0.503009
C74	C	-0.552020	-0.415014	-0.003009
C75	C	-1.099129	-0.955467	-0.462637
C76	C	-0.599129	-0.455467	0.037363
C77	C	-0.816470	-0.995288	-0.422712
C78	C	-0.316470	-0.495288	0.077288
C79	C	-0.816485	-0.901103	-0.516765
C80	C	-0.316485	-0.401103	-0.016765
C81	C	-0.910698	-0.887833	-0.530075
C82	C	-0.410698	-0.387833	-0.030075
C83	C	-0.199390	-1.035452	-0.382715
C84	C	0.300610	-0.535452	0.117285
C85	C	-0.099115	-1.049652	-0.368584
C86	C	0.400885	-0.549652	0.131416
C87	C	-0.434638	-1.002183	-0.607820
C88	C	0.065362	-0.502183	-0.107820
C89	C	-0.434612	-1.002206	-0.689615
C90	C	0.065388	-0.502206	-0.189615
C91	C	-0.434727	-0.194078	-0.415893
C92	C	0.065273	0.305922	0.084107
C93	C	-0.434713	-0.275879	-0.415892
C94	C	0.065287	0.224121	0.084108
C95	C	-0.376866	-1.057469	-0.869676
C96	C	0.123134	-0.557469	-0.369676
C97	C	-0.376839	-1.057482	-0.946532
C98	C	0.123161	-0.557482	-0.446532
C99	C	-0.492218	-0.947014	-0.962773
C100	C	0.007782	-0.447014	-0.462773
C101	C	-0.492239	-0.946999	-0.885918
C102	C	0.007761	-0.446999	-0.385918
C103	C	-0.434564	-1.002231	-0.839372
C104	C	0.065436	-0.502231	-0.339372
C105	C	-0.434517	-1.002258	-0.993082
C106	C	0.065483	-0.502258	-0.493082
C107	C	-0.434489	-1.002271	-1.076412
C108	C	0.065511	-0.502271	-0.576412
C109	C	-0.434591	-1.002217	-0.756037
C110	C	0.065409	-0.502217	-0.256037
C111	C	-0.434697	-1.002127	-0.224669
C112	C	0.065303	-0.502127	0.275331
C113	C	-0.434470	-1.002283	-0.142839
C114	C	0.065530	-0.502283	0.357161
H115	H	-0.539237	-0.417965	-0.345094
H116	H	-0.039237	0.082035	0.154906
H117	H	-0.329854	-1.102462	-0.971201
H118	H	0.170146	-0.602462	-0.471201
H119	H	-0.330142	-0.587037	-0.486663
H120	H	0.169858	-0.087037	0.013337
H121	H	-0.539224	-0.902012	-0.861244
H122	H	-0.039224	-0.402012	-0.361244
O123	O	-0.548372	-0.893387	-1.007927
O124	O	-0.048372	-0.393387	-0.507927
C125	C	-0.638295	-0.896750	-1.001830
C126	C	-0.138295	-0.396750	-0.501830
H127	H	-0.640183	-0.924762	-0.946296
H128	H	-0.140183	-0.424762	-0.446296
H129	H	-0.678742	-0.837910	-1.004893
H130	H	-0.178742	-0.337910	-0.504893
H131	H	-0.668674	-0.930293	-1.049371
H132	H	-0.168674	-0.430293	-0.549371
H133	H	-0.330152	-0.447608	-0.486667
H134	H	0.169848	0.052392	0.013333
H135	H	-0.778118	-1.039032	-0.379002
H136	H	-0.278118	-0.539032	0.120998
O137	O	-0.548370	-0.562044	-0.338941
O138	O	-0.048370	-0.062044	0.161059
C139	C	-0.599223	-0.504441	-0.304492
C140	C	-0.099223	-0.004441	0.195508
H141	H	-0.602404	-0.449215	-0.335082
H142	H	-0.102404	0.050785	0.164918
H143	H	-0.670286	-0.516600	-0.306567
H144	H	-0.170286	-0.016600	0.193433
H145	H	-0.566100	-0.500930	-0.243974
H146	H	-0.066100	-0.000930	0.256026
H147	H	-0.833965	-1.087005	-0.331126
H148	H	-0.333965	-0.587005	0.168874
O149	O	-0.912163	-1.168890	-0.249452
O150	O	-0.412163	-0.668890	0.250548
C151	C	-0.973942	-1.201739	-0.216662
C152	C	-0.473942	-0.701739	0.283338
H153	H	-1.041078	-1.194809	-0.256289
H154	H	-0.541078	-0.694809	0.243711
H155	H	-0.946674	-1.263569	-0.205013
H156	H	-0.446674	-0.763569	0.294987
H157	H	-0.984029	-1.173401	-0.162169
H158	H	-0.484029	-0.673401	0.337831
H159	H	-0.949072	-0.844088	-0.573785
H160	H	-0.449072	-0.344088	-0.073785
H161	H	-1.090365	-1.136308	-0.282036
H162	H	-0.590365	-0.636308	0.217964
O163	O	-1.190651	-0.942647	-0.475686
O164	O	-0.690651	-0.442647	0.024314
C165	C	-1.222047	-0.957067	-0.550676
C166	C	-0.722047	-0.457067	-0.050676
H167	H	-1.167689	-0.996782	-0.573450
H168	H	-0.667689	-0.496782	-0.073450
H169	H	-1.285043	-0.983493	-0.554339
H170	H	-0.785043	-0.483493	-0.054339
H171	H	-1.238797	-0.902589	-0.584877
H172	H	-0.738797	-0.402589	-0.084877
O173	O	-1.097746	-0.862905	-0.555252
O174	O	-0.597746	-0.362905	-0.055252
C175	C	-1.074633	-0.882193	-0.625349
C176	C	-0.574633	-0.382193	-0.125349
H177	H	-1.048679	-0.944640	-0.625449
H178	H	-0.548679	-0.444640	-0.125449
H179	H	-1.136571	-0.867106	-0.670450
H180	H	-0.636571	-0.367106	-0.170450
H181	H	-1.019963	-0.850430	-0.636830
H182	H	-0.519963	-0.350430	-0.136830
H183	H	-0.329900	-1.102441	-0.831780
H184	H	0.170100	-0.602441	-0.331780
O185	O	-0.770693	-0.861915	-0.556061
O186	O	-0.270693	-0.361915	-0.056061
C187	C	-0.716103	-0.911479	-0.595907
C188	C	-0.216103	-0.411479	-0.095907
H189	H	-0.744444	-0.965445	-0.604506
H190	H	-0.244444	-0.465445	-0.104506
H191	H	-0.715011	-0.884985	-0.652365
H192	H	-0.215011	-0.384985	-0.152365
H193	H	-0.644714	-0.924088	-0.563072
H194	H	-0.144714	-0.424088	-0.063072
