data_functionalizedCrystal
_audit_creation_method	'MofGen! by Chris Wilmer'
_symmetry_space_group_name_H-M	'P1'
_symmetry_Int_Tables_number	1
_symmetry_cell_setting	triclinic
loop_
_symmetry_equiv_pos_as_xyz
  x,y,z
_cell_length_a	15.625950
_cell_length_b	14.044220
_cell_length_c	14.185569
_cell_angle_alpha	75.620253
_cell_angle_beta	120.545593
_cell_angle_gamma	88.495414
loop_
_atom_site_label
_atom_site_type_symbol
_atom_site_fract_x
_atom_site_fract_y
_atom_site_fract_z
O1	O	1.292812	0.024344	0.386696
O2	O	1.008335	0.065690	0.283246
O3	O	1.146306	-0.092577	0.333429
O4	O	1.154841	0.182610	0.336513
O5	O	1.187064	-0.139325	0.515088
O6	O	1.049093	0.018941	0.464906
O7	O	1.333570	-0.022405	0.568355
Cu8	Cu	1.195053	-0.006000	0.533217
Cu9	Cu	1.146852	0.049285	0.318384
O10	O	1.195599	0.135861	0.518172
C11	C	0.992087	0.045072	0.360757
C12	C	0.882950	0.053276	0.321070
C13	C	0.634978	-0.047071	0.685523
C14	C	0.532415	-0.039330	0.648180
C15	C	0.488033	0.011629	0.450161
C16	C	0.590594	0.003898	0.487487
C17	C	0.664060	-0.025453	0.605169
C18	C	0.619676	0.025515	0.407134
C19	C	0.722229	0.017779	0.444458
C20	C	0.795700	-0.011574	0.562135
C21	C	0.766613	-0.033189	0.642493
C22	C	0.546209	0.054860	0.289452
C23	C	0.575290	0.076477	0.209099
C24	C	0.677844	0.068748	0.246422
C25	C	0.751316	0.039395	0.364099
C26	C	0.706931	0.090363	0.166064
C27	C	0.809484	0.082627	0.203387
C28	C	0.853868	0.031659	0.401423
C29	C	1.162947	-0.150920	0.422900
C30	C	1.151797	-0.255117	0.418846
C31	C	1.131408	-0.445893	0.411417
C32	C	1.210491	-0.510825	0.440173
C33	C	1.199146	-0.616979	0.436039
C34	C	1.142751	-0.339729	0.415550
C35	C	1.349818	-0.001787	0.490842
C36	C	1.458953	-0.009989	0.530522
C37	C	1.178958	0.194206	0.428699
C38	C	1.190106	0.298405	0.432746
N39	N	1.228963	-0.044887	0.684322
N40	N	1.112950	0.088163	0.167282
C41	C	1.013320	0.202370	0.973538
C42	C	1.039013	0.172920	1.087905
C43	C	1.161218	0.032820	1.132314
C44	C	1.135532	0.062256	1.017948
C45	C	1.061583	0.147032	0.938568
C46	C	1.183794	0.006918	0.982978
C47	C	1.158113	0.036354	0.868623
C48	C	1.084170	0.121129	0.789237
C49	C	1.035902	0.176469	0.824213
C50	C	1.257748	-0.077854	1.062361
C51	C	1.306010	-0.133192	1.027391
C52	C	1.280325	-0.103760	0.913032
C53	C	1.206381	-0.018985	0.833647
C54	C	1.328592	-0.159099	0.878057
C55	C	1.302911	-0.129663	0.763701
C56	C	1.180700	0.010451	0.719292
H57	H	0.826433	-0.057076	0.738321
H58	H	1.221431	-0.036204	1.196959
H59	H	0.833161	0.100235	0.137955
Cl60	Cl	0.417285	0.064555	0.242532
H61	H	1.063264	0.145098	0.696124
H62	H	0.508744	-0.056913	0.713622
Cl63	Cl	0.942924	0.283039	0.724413
Cl64	Cl	0.727343	-0.083958	0.833469
H65	H	0.428205	0.035523	0.354344
Cl66	Cl	0.482928	0.113343	0.061161
Cl67	Cl	1.328181	-0.473570	0.482981
H68	H	0.647102	0.114251	0.070247
H69	H	1.055188	-0.470026	0.383698
H70	H	1.120476	0.079479	0.654654
Cl71	Cl	1.421564	-0.265663	0.977861
H72	H	0.953096	0.271397	0.908900
Cl73	Cl	0.924626	-0.021308	0.609060
H74	H	0.999706	0.217991	1.116368
H75	H	1.278658	-0.101815	1.155476
Cl76	Cl	1.398974	-0.239763	1.127189
H77	H	0.913689	0.007773	0.497251
Cl78	Cl	1.363590	-0.199231	0.719739
