data_functionalizedCrystal
_audit_creation_method	'MofGen! by Chris Wilmer'
_symmetry_space_group_name_H-M	'P1'
_symmetry_Int_Tables_number	1
_symmetry_cell_setting	triclinic
loop_
_symmetry_equiv_pos_as_xyz
  x,y,z
_cell_length_a	14.044191
_cell_length_b	23.532407
_cell_length_c	12.503572
_cell_angle_alpha	93.496478
_cell_angle_beta	86.162165
_cell_angle_gamma	88.020227
loop_
_atom_site_label
_atom_site_type_symbol
_atom_site_fract_x
_atom_site_fract_y
_atom_site_fract_z
O1	O	1.261909	0.134239	-0.089289
O2	O	1.595242	0.467572	0.244045
O3	O	1.928575	0.800905	0.577378
O4	O	0.985986	0.129282	-0.089302
O5	O	1.319320	0.462615	0.244032
O6	O	1.652653	0.795949	0.577365
O7	O	1.132267	0.049280	-0.089275
O8	O	1.465600	0.382614	0.244058
O9	O	1.798933	0.715947	0.577391
O10	O	1.115628	0.214240	-0.089315
O11	O	1.448962	0.547574	0.244018
O12	O	1.782295	0.880907	0.577351
O13	O	1.121265	0.055308	0.089365
O14	O	1.454599	0.388641	0.422698
O15	O	1.787932	0.721975	0.756031
O16	O	0.974985	0.135309	0.089338
O17	O	1.308318	0.468643	0.422672
O18	O	1.641652	0.801976	0.756005
O19	O	1.250907	0.140266	0.089351
O20	O	1.584241	0.473600	0.422684
O21	O	1.917574	0.806933	0.756018
Cu22	Cu	1.111942	0.138338	0.105656
Cu23	Cu	1.445275	0.471672	0.438989
Cu24	Cu	1.778608	0.805005	0.772323
Cu25	Cu	1.124952	0.131210	-0.105606
Cu26	Cu	1.458285	0.464543	0.227727
Cu27	Cu	1.791619	0.797877	0.561060
O28	O	1.104627	0.220268	0.089325
O29	O	1.437960	0.553601	0.422658
O30	O	1.771294	0.886934	0.755991
C31	C	0.945192	0.130127	0.000017
C32	C	1.278525	0.463461	0.333350
C33	C	1.611858	0.796794	0.666684
C34	C	0.840027	0.123660	0.000013
C35	C	1.173360	0.456993	0.333346
C36	C	1.506694	0.790326	0.666680
C37	C	0.589420	0.157705	0.000015
C38	C	0.922753	0.491038	0.333349
C39	C	1.256086	0.824372	0.666682
C40	C	0.647480	0.111845	0.000025
C41	C	0.980813	0.445179	0.333358
C42	C	1.314147	0.778512	0.666691
C43	C	0.754623	0.118420	0.000018
C44	C	1.087956	0.451754	0.333351
C45	C	1.421290	0.785087	0.666685
C46	C	0.482267	0.151131	0.000022
C47	C	0.815600	0.484464	0.333355
C48	C	1.148934	0.817797	0.666689
C49	C	1.126342	0.031055	0.000048
C50	C	1.459675	0.364389	0.333381
C51	C	1.793009	0.697722	0.666714
C52	C	1.125068	-0.032231	0.000056
C53	C	1.458401	0.301103	0.333389
C54	C	1.791734	0.634436	0.666722
C55	C	1.203646	-0.427075	0.000001
C56	C	1.536980	-0.093742	0.333334
C57	C	1.870313	0.239591	0.666667
C58	C	1.202463	-0.486540	-0.000008
C59	C	1.535797	-0.153207	0.333326
C60	C	1.869130	0.180127	0.666659
O61	O	1.275306	-0.519337	-0.000044
O62	O	1.608639	-0.186003	0.333289
O63	O	1.941973	0.147330	0.666623
N64	N	1.115499	-0.513881	-0.000011
N65	N	1.448832	-0.180548	0.333322
N66	N	1.782166	0.152785	0.666656
C67	C	1.029713	-0.481755	-0.000017
C68	C	1.363046	-0.148422	0.333316
C69	C	1.696379	0.184912	0.666650
O70	O	0.955634	-0.510471	-0.000021
O71	O	1.288968	-0.177138	0.333312
O72	O	1.622301	0.156196	0.666645
C73	C	1.030897	-0.422292	-0.000016
C74	C	1.364231	-0.088958	0.333317
C75	C	1.697564	0.244375	0.666650
C76	C	1.117867	-0.394953	-0.000002
C77	C	1.451200	-0.061620	0.333331
C78	C	1.784533	0.271713	0.666664
C79	C	1.290609	-0.399737	0.000013
C80	C	1.623942	-0.066404	0.333347
C81	C	1.957275	0.266930	0.666680
C82	C	1.291791	-0.340276	0.000024
C83	C	1.625125	-0.006943	0.333357
C84	C	1.958458	0.326390	0.666690
C85	C	1.206011	-0.308154	0.000021
C86	C	1.539345	0.025179	0.333354
C87	C	1.872678	0.358513	0.666688
C88	C	1.119049	-0.335493	0.000008
C89	C	1.452382	-0.002159	0.333341
C90	C	1.785716	0.331174	0.666675
C91	C	0.945113	-0.390167	-0.000030
C92	C	1.278446	-0.056833	0.333303
C93	C	1.611779	0.276500	0.666637
C94	C	0.946305	-0.330699	-0.000030
C95	C	1.279638	0.002634	0.333303
C96	C	1.612971	0.335967	0.666636
C97	C	1.033274	-0.303361	-0.000016
C98	C	1.366607	0.029972	0.333317
C99	C	1.699941	0.363305	0.666650
C100	C	1.034452	-0.243910	0.000015
C101	C	1.367785	0.089423	0.333349
C102	C	1.701118	0.422757	0.666682
N103	N	1.121416	-0.216569	0.000019
N104	N	1.454749	0.116765	0.333352
N105	N	1.788083	0.450098	0.666685
C106	C	1.207196	-0.248691	0.000021
C107	C	1.540529	0.084642	0.333355
C108	C	1.873863	0.417976	0.666688
C109	C	1.027232	-0.606632	-0.000020
C110	C	1.360565	-0.273299	0.333313
C111	C	1.693899	0.060035	0.666647
C112	C	1.026046	-0.666094	-0.000013
C113	C	1.359379	-0.332761	0.333321
C114	C	1.692713	0.000573	0.666654
C115	C	1.198797	-0.670875	-0.000006
C116	C	1.532130	-0.337542	0.333328
C117	C	1.865464	-0.004209	0.666661
C118	C	1.199982	-0.611412	-0.000005
C119	C	1.533315	-0.278079	0.333328
C120	C	1.866648	0.055255	0.666662
C121	C	1.114196	-0.579291	-0.000017
C122	C	1.447530	-0.245958	0.333317
C123	C	1.780863	0.087376	0.666650
C124	C	1.209673	-0.123819	0.000044
C125	C	1.543006	0.209514	0.333377
C126	C	1.876339	0.542848	0.666710
C127	C	1.210847	-0.064353	0.000058
C128	C	1.544181	0.268981	0.333392
C129	C	1.877514	0.602314	0.666725
C130	C	1.038097	-0.059577	0.000046
C131	C	1.371430	0.273756	0.333379
C132	C	1.704764	0.607090	0.666712
C133	C	1.036922	-0.119038	0.000037
C134	C	1.370255	0.214296	0.333370
C135	C	1.703588	0.547629	0.666703
C136	C	1.122717	-0.151158	0.000032
C137	C	1.456051	0.182176	0.333365
C138	C	1.789384	0.515509	0.666699
O139	O	0.961648	-0.211077	0.000047
O140	O	1.294981	0.122257	0.333381
O141	O	1.628314	0.455590	0.666714
O142	O	1.281263	-0.219968	0.000012
O143	O	1.614597	0.113366	0.333345
O144	O	1.947930	0.446699	0.666679
C145	C	1.291702	0.139421	0.000030
C146	C	1.625035	0.472754	0.333363
C147	C	1.958369	0.806087	0.666697
C148	C	1.396867	0.145888	0.000027
C149	C	1.730201	0.479221	0.333360
C150	C	2.063534	0.812555	0.666694
C151	C	1.110552	0.238493	-0.000000
C152	C	1.443885	0.571826	0.333333
C153	C	1.777218	0.905160	0.666666
C154	C	1.111827	0.301778	-0.000016
C155	C	1.445160	0.635112	0.333318
C156	C	1.778493	0.968445	0.666651
N157	N	1.102798	0.143352	0.254247
N158	N	1.436131	0.476685	0.587580
N159	N	1.769465	0.810018	0.920913
N160	N	1.134103	0.126192	-0.254197
N161	N	1.467437	0.459526	0.079136
N162	N	1.800770	0.792859	0.412470
C163	C	1.089347	0.150732	0.473359
C164	C	1.422680	0.484065	0.806693
C165	C	1.756014	0.817398	1.140026
C166	C	1.147551	0.118814	0.526697
C167	C	1.480884	0.452147	0.860030
C168	C	1.814218	0.785481	1.193364
C169	C	1.140067	0.122920	0.648619
C170	C	1.473400	0.456254	0.981952
C171	C	1.806734	0.789587	1.315286
C172	C	1.096830	0.146626	0.351426
C173	C	1.430163	0.479959	0.684760
C174	C	1.763497	0.813293	1.018093
H175	H	0.620178	0.201901	0.000001
H176	H	0.953511	0.535235	0.333335
H177	H	1.286845	0.868568	0.666668
Cl178	Cl	1.233524	0.072100	0.455833
Cl179	Cl	1.566857	0.405433	0.789166
Cl180	Cl	1.900191	0.738766	1.122499
Cl181	Cl	1.306636	-0.711269	-0.000010
Cl182	Cl	1.639969	-0.377935	0.333324
Cl183	Cl	1.973303	-0.044602	0.666657
Cl184	Cl	1.003742	0.197681	0.544223
Cl185	Cl	1.337075	0.531015	0.877557
Cl186	Cl	1.670408	0.864348	1.210890
H187	H	1.279536	-0.149964	0.000036
H188	H	1.612870	0.183369	0.333369
H189	H	1.946203	0.516702	0.666703
Cl190	Cl	0.599994	0.043603	0.000040
Cl191	Cl	0.933327	0.376937	0.333374
Cl192	Cl	1.266660	0.710270	0.666707
H193	H	1.281671	-0.042097	0.000073
H194	H	1.615004	0.291237	0.333406
H195	H	1.948338	0.624570	0.666739
Cl196	Cl	1.401132	-0.305918	0.000011
Cl197	Cl	1.734465	0.027415	0.333344
Cl198	Cl	2.067799	0.360748	0.666678
Cl199	Cl	1.398462	-0.440109	0.000019
Cl200	Cl	1.731795	-0.106775	0.333352
Cl201	Cl	2.065128	0.226558	0.666685
H202	H	0.955226	-0.688347	-0.000006
H203	H	1.288559	-0.355014	0.333328
H204	H	1.621892	-0.021680	0.666661
Cl205	Cl	1.309318	-0.577050	0.000011
Cl206	Cl	1.642651	-0.243717	0.333345
Cl207	Cl	1.975985	0.089617	0.666678
Cl208	Cl	0.835773	-0.424520	-0.000055
Cl209	Cl	1.169106	-0.091187	0.333278
Cl210	Cl	1.502440	0.242146	0.666612
Cl211	Cl	0.919375	-0.566257	-0.000022
Cl212	Cl	1.252709	-0.232923	0.333311
Cl213	Cl	1.586042	0.100410	0.666644
H214	H	0.876446	-0.304549	-0.000041
H215	H	1.209779	0.028784	0.333292
H216	H	1.543113	0.362117	0.666625
H217	H	0.966102	-0.141297	0.000055
H218	H	1.299436	0.192037	0.333388
H219	H	1.632769	0.525370	0.666722
H220	H	0.968257	-0.033412	0.000047
H221	H	1.301591	0.299921	0.333380
H222	H	1.634924	0.633254	0.666714
