data_functionalizedCrystal
_audit_creation_method	'MofGen! by Chris Wilmer'
_symmetry_space_group_name_H-M	'P1'
_symmetry_Int_Tables_number	1
_symmetry_cell_setting	triclinic
loop_
_symmetry_equiv_pos_as_xyz
  x,y,z
_cell_length_a	23.532407
_cell_length_b	10.268362
_cell_length_c	11.792254
_cell_angle_alpha	90.005455
_cell_angle_beta	83.523638
_cell_angle_gamma	89.999248
loop_
_atom_site_label
_atom_site_type_symbol
_atom_site_fract_x
_atom_site_fract_y
_atom_site_fract_z
O1	O	0.756079	0.108138	0.137771
O2	O	1.256079	0.608138	0.637771
O3	O	0.590334	0.108177	0.157705
O4	O	1.090334	0.608177	0.657705
O5	O	0.677225	0.108147	-0.017526
O6	O	1.177225	0.608147	0.482474
O7	O	0.669188	0.108168	0.313002
O8	O	1.169188	0.608168	0.813002
O9	O	0.677218	-0.108453	-0.017533
O10	O	1.177218	0.391547	0.482467
O11	O	0.590327	-0.108424	0.157698
O12	O	1.090327	0.391576	0.657698
O13	O	0.756072	-0.108462	0.137764
O14	O	1.256072	0.391538	0.637764
Cu15	Cu	0.673198	-0.128220	0.147730
Cu16	Cu	1.173198	0.371780	0.647730
Cu17	Cu	0.673207	0.127935	0.147739
Cu18	Cu	1.173207	0.627935	0.647739
O19	O	0.669181	-0.108433	0.312995
O20	O	1.169181	0.391567	0.812995
C21	C	0.569112	-0.000119	0.157194
C22	C	1.069112	0.499881	0.657194
C23	C	0.505885	-0.000104	0.155668
C24	C	1.005885	0.499896	0.655668
N25	N	0.673196	-0.308386	0.147724
N26	N	1.173196	0.191614	0.647724
C27	C	0.673205	-0.574057	0.147736
C28	C	1.173205	-0.074057	0.647736
C29	C	0.673198	-0.426219	0.147733
C30	C	1.173198	0.073781	0.647733
C31	C	0.107342	-0.000158	0.249793
C32	C	0.607342	0.499842	0.749793
C33	C	0.047934	-0.000166	0.248376
C34	C	0.547934	0.499834	0.748376
O35	O	0.011708	-0.000208	0.335631
O36	O	0.511708	0.499792	0.835631
N37	N	0.024688	-0.000170	0.144201
N38	N	0.524688	0.499830	0.644201
C39	C	0.060854	-0.000179	0.041437
C40	C	0.560854	0.499821	0.541437
O41	O	0.035626	-0.000185	-0.047302
O42	O	0.535626	0.499815	0.452698
C43	C	0.120261	-0.000181	0.042856
C44	C	0.620261	0.499819	0.542856
C45	C	0.143504	-0.000163	0.147037
C46	C	0.643504	0.499837	0.647037
C47	C	0.130585	-0.000142	0.353967
C48	C	0.630585	0.499858	0.853967
C49	C	0.189990	-0.000131	0.355384
C50	C	0.689990	0.499869	0.855384
C51	C	0.226151	-0.000137	0.252628
C52	C	0.726151	0.499863	0.752628
C53	C	0.202908	-0.000153	0.148455
C54	C	0.702908	0.499847	0.648455
C55	C	0.156427	-0.000199	-0.059907
C56	C	0.656427	0.499801	0.440093
C57	C	0.215838	-0.000202	-0.058479
C58	C	0.715838	0.499798	0.441521
C59	C	0.239080	-0.000184	0.045703
C60	C	0.739080	0.499816	0.545703
C61	C	0.298475	-0.000148	0.047116
C62	C	0.798475	0.499852	0.547116
N63	N	0.321721	-0.000143	0.151291
N64	N	0.821721	0.499857	0.651291
C65	C	0.285559	-0.000138	0.254047
C66	C	0.785559	0.499862	0.754047
C67	C	-0.063906	-0.000179	0.038465
C68	C	0.436094	0.499821	0.538465
C69	C	-0.123313	-0.000168	0.037045
C70	C	0.376687	0.499832	0.537045
C71	C	-0.136229	-0.000157	0.243984
C72	C	0.363771	0.499843	0.743984
C73	C	-0.076821	-0.000158	0.245403
C74	C	0.423179	0.499842	0.745403
C75	C	-0.040660	-0.000175	0.142640
C76	C	0.459340	0.499825	0.642640
C77	C	0.410313	-0.000115	0.257016
C78	C	0.910313	0.499885	0.757016
C79	C	0.469724	-0.000099	0.258424
C80	C	0.969724	0.499901	0.758424
C81	C	0.482635	-0.000117	0.051485
C82	C	0.982635	0.499883	0.551485
C83	C	0.423230	-0.000126	0.050076
C84	C	0.923230	0.499874	0.550076
C85	C	0.387070	-0.000129	0.152851
C86	C	0.887070	0.499871	0.652851
O87	O	0.334735	-0.000111	-0.040094
O88	O	0.834735	0.499889	0.459906
O89	O	0.310795	-0.000149	0.342771
O90	O	0.810795	0.499851	0.842771
C91	C	0.777294	-0.000164	0.138275
C92	C	1.277294	0.499836	0.638275
C93	C	0.840521	-0.000170	0.139801
C94	C	1.340521	0.499830	0.639801
C95	C	0.676715	-0.000152	-0.059808
C96	C	1.176715	0.499848	0.440192
C97	C	0.675200	-0.000151	-0.185786
C98	C	1.175200	0.499849	0.314214
N99	N	0.673214	0.308101	0.147736
N100	N	1.173214	0.808101	0.647736
C101	C	0.673969	-0.000146	-0.288093
C102	C	1.173969	0.499854	0.211907
C103	C	0.672429	-0.000134	-0.416444
C104	C	1.172429	0.499866	0.083556
C105	C	0.669691	-0.000130	0.355277
C106	C	1.169691	0.499870	0.855277
C107	C	0.671206	-0.000123	0.481255
C108	C	1.171206	0.499877	0.981255
H109	H	0.380878	-0.000122	0.340705
H110	H	0.880878	0.499878	0.840705
H111	H	0.101148	-0.000142	0.437648
H112	H	0.601148	0.499858	0.937648
O113	O	-0.054340	-0.000208	0.346704
O114	O	0.445660	0.499792	0.846704
C115	C	-0.073438	-0.000112	0.551807
C116	C	0.426562	0.499888	1.051807
C117	C	-0.098969	-0.000083	0.437160
C118	C	0.401031	0.499917	0.937160
H119	H	-0.109507	0.000016	0.624971
H120	H	0.390493	0.500016	1.124971
H121	H	-0.045970	-0.090783	0.557727
H122	H	0.454030	0.409217	1.057727
H123	H	-0.045928	0.090511	0.557591
H124	H	0.454072	0.590511	1.057591
H125	H	-0.126505	-0.090645	0.431299
H126	H	0.373495	0.409355	0.931299
H127	H	-0.126403	0.090648	0.431289
H128	H	0.373597	0.590648	0.931289
O129	O	-0.145954	-0.000342	-0.064086
O130	O	0.354046	0.499658	0.435914
C131	C	-0.205490	-0.112608	-0.185837
C132	C	0.294510	0.387392	0.314163
C133	C	-0.179900	-0.112550	-0.071253
C134	C	0.320100	0.387450	0.428747
H135	H	-0.232931	-0.203332	-0.191679
H136	H	0.267069	0.296668	0.308321
H137	H	-0.233020	-0.022026	-0.191693
H138	H	0.266980	0.477974	0.308307
H139	H	-0.169425	-0.112544	-0.259010
H140	H	0.330575	0.387456	0.240990
H141	H	-0.215928	-0.112660	0.001986
H142	H	0.284072	0.387340	0.501986
H143	H	-0.152355	-0.203124	-0.065496
H144	H	0.347645	0.296876	0.434504
H145	H	0.208908	-0.000116	0.440219
H146	H	0.708908	0.499884	0.940219
H147	H	-0.165683	-0.000159	0.327653
H148	H	0.334317	0.499841	0.827653
H149	H	0.488644	-0.000084	0.343264
H150	H	0.988644	0.499916	0.843264
O151	O	-0.028863	-0.000116	-0.061471
O152	O	0.471137	0.499884	0.438529
C153	C	-0.022334	-0.000191	-0.266874
C154	C	0.477666	0.499809	0.233126
C155	C	-0.062082	-0.000231	-0.153784
C156	C	0.437918	0.499769	0.346216
H157	H	-0.049175	-0.000312	-0.341538
H158	H	0.450825	0.499688	0.158462
H159	H	0.005789	0.090479	-0.271462
H160	H	0.505789	0.590479	0.228538
H161	H	0.005816	-0.090815	-0.271338
H162	H	0.505816	0.409185	0.228662
H163	H	-0.090267	0.090331	-0.149245
H164	H	0.409733	0.590331	0.350755
H165	H	-0.090166	-0.090961	-0.149243
H166	H	0.409834	0.409039	0.350757
H167	H	0.137513	-0.000215	-0.144743
H168	H	0.637513	0.499785	0.355257
H169	H	0.245278	-0.000216	-0.142163
H170	H	0.745278	0.499784	0.357837
O171	O	0.400743	-0.000183	-0.051223
O172	O	0.900743	0.499817	0.448777
C173	C	0.419831	-0.000106	-0.256328
C174	C	0.919831	0.499894	0.243672
C175	C	0.445367	-0.000060	-0.141687
C176	C	0.945367	0.499940	0.358313
H177	H	0.455898	0.000021	-0.329497
H178	H	0.955898	0.500021	0.170503
H179	H	0.392368	-0.090783	-0.262252
H180	H	0.892368	0.409217	0.237748
H181	H	0.392315	0.090511	-0.262098
H182	H	0.892315	0.590511	0.237902
H183	H	0.472909	-0.090616	-0.135839
H184	H	0.972909	0.409384	0.364161
H185	H	0.472798	0.090677	-0.135812
H186	H	0.972798	0.590677	0.364188
O187	O	0.517827	0.000048	-0.048252
O188	O	1.017827	0.500048	0.451748
C189	C	0.592382	0.112278	-0.166764
C190	C	1.092382	0.612278	0.333236
C191	C	0.552567	0.112251	-0.053761
C192	C	1.052567	0.612251	0.446239
H193	H	0.620471	0.202998	-0.171266
H194	H	1.120471	0.702998	0.328734
H195	H	0.620558	0.021692	-0.171273
H196	H	1.120558	0.521692	0.328727
H197	H	0.565559	0.112200	-0.241457
H198	H	1.065559	0.612200	0.258543
H199	H	0.579345	0.112375	0.020996
H200	H	1.079345	0.612375	0.520996
H201	H	0.524389	0.202829	-0.049351
H202	H	1.024389	0.702829	0.450649
