data_functionalizedCrystal
_audit_creation_method	'MofGen! by Chris Wilmer'
_symmetry_space_group_name_H-M	'P1'
_symmetry_Int_Tables_number	1
_symmetry_cell_setting	triclinic
loop_
_symmetry_equiv_pos_as_xyz
  x,y,z
_cell_length_a	19.121102
_cell_length_b	19.120900
_cell_length_c	21.395364
_cell_angle_alpha	87.554870
_cell_angle_beta	92.454632
_cell_angle_gamma	90.076315
loop_
_atom_site_label
_atom_site_type_symbol
_atom_site_fract_x
_atom_site_fract_y
_atom_site_fract_z
Zn1	Zn	1.059789	0.325113	0.382162
Zn2	Zn	1.309789	0.575113	0.632162
Zn3	Zn	1.559789	0.825113	0.882162
Zn4	Zn	1.809789	1.075113	1.132162
Zn5	Zn	1.054690	0.442303	0.272729
Zn6	Zn	1.304690	0.692303	0.522729
Zn7	Zn	1.554690	0.942303	0.772729
Zn8	Zn	1.804690	1.192303	1.022729
Zn9	Zn	0.942560	0.320072	0.273135
Zn10	Zn	1.192560	0.570072	0.523135
Zn11	Zn	1.442560	0.820072	0.773135
Zn12	Zn	1.692560	1.070072	1.023135
Zn13	Zn	0.937503	0.437305	0.373205
Zn14	Zn	1.187503	0.687305	0.623205
Zn15	Zn	1.437503	0.937305	0.873205
Zn16	Zn	1.687503	1.187305	1.123205
O17	O	0.998635	0.381198	0.325308
O18	O	1.248635	0.631198	0.575308
O19	O	1.498635	0.881198	0.825308
O20	O	1.748635	1.131198	1.075308
O21	O	1.157217	0.344860	0.371224
O22	O	1.407217	0.594860	0.621224
O23	O	1.657217	0.844860	0.871224
O24	O	1.907217	1.094860	1.121224
O25	O	1.039798	0.426071	0.185105
O26	O	1.289798	0.676071	0.435105
O27	O	1.539798	0.926071	0.685105
O28	O	1.789798	1.176071	0.935105
O29	O	0.962360	0.222634	0.291517
O30	O	1.212360	0.472634	0.541517
O31	O	1.462360	0.722634	0.791517
O32	O	1.712360	0.972634	1.041517
O33	O	1.153471	0.430959	0.290824
O34	O	1.403471	0.680959	0.540824
O35	O	1.653471	0.930959	0.790824
O36	O	1.903471	1.180959	1.040824
O37	O	1.048488	0.226338	0.371619
O38	O	1.298488	0.476338	0.621619
O39	O	1.548488	0.726338	0.871619
O40	O	1.798488	0.976338	1.121619
O41	O	0.957416	0.336268	0.185404
O42	O	1.207416	0.586268	0.435404
O43	O	1.457416	0.836268	0.685404
O44	O	1.707416	1.086268	0.935404
O45	O	0.843784	0.331422	0.282831
O46	O	1.093784	0.581422	0.532831
O47	O	1.343784	0.831422	0.782831
O48	O	1.593784	1.081422	1.032831
O49	O	0.953742	0.422441	0.462071
O50	O	1.203742	0.672441	0.712071
O51	O	1.453742	0.922441	0.962071
O52	O	1.703742	1.172441	1.212071
O53	O	0.840069	0.417552	0.356352
O54	O	1.090069	0.667552	0.606352
O55	O	1.340069	0.917552	0.856352
O56	O	1.590069	1.167552	1.106352
O57	O	1.043585	0.340014	0.468652
O58	O	1.293585	0.590014	0.718652
O59	O	1.543585	0.840014	0.968652
O60	O	1.793585	1.090014	1.218652
O61	O	1.034895	0.539747	0.282138
O62	O	1.284895	0.789747	0.532138
O63	O	1.534895	1.039747	0.782138
O64	O	1.784895	1.289747	1.032138
O65	O	0.948798	0.536075	0.355958
O66	O	1.198798	0.786075	0.605958
O67	O	1.448798	1.036075	0.855958
O68	O	1.698798	1.286075	1.105958
C69	C	0.816489	0.373398	0.318664
C70	C	1.066489	0.623398	0.568664
C71	C	1.316489	0.873398	0.818664
C72	C	1.566489	1.123398	1.068664
C73	C	0.738566	0.370078	0.315836
C74	C	0.988566	0.620078	0.565836
C75	C	1.238566	0.870078	0.815836
C76	C	1.488566	1.120078	1.065836
C77	C	0.990763	0.563350	0.318046
C78	C	1.240763	0.813350	0.568046
C79	C	1.490763	1.063350	0.818046
C80	C	1.740763	1.313350	1.068046
C81	C	0.987460	0.641278	0.314963
C82	C	1.237460	0.891278	0.564963
C83	C	1.487460	1.141278	0.814963
C84	C	1.737460	1.391278	1.064963
C85	C	0.998668	0.381232	0.488731
C86	C	1.248668	0.631232	0.738731
C87	C	1.498668	0.881232	0.988731
C88	C	1.748668	1.131232	1.238731
C89	C	0.998682	0.381247	0.558372
C90	C	1.248682	0.631247	0.808372
C91	C	1.498682	0.881247	1.058372
C92	C	1.748682	1.131247	1.308372
C93	C	0.700038	0.413430	0.352720
C94	C	0.950038	0.663430	0.602720
C95	C	1.200038	0.913430	0.852720
C96	C	1.450038	1.163430	1.102720
C97	C	0.626821	0.410301	0.350067
C98	C	0.876821	0.660301	0.600067
C99	C	1.126821	0.910301	0.850067
C100	C	1.376821	1.160301	1.100067
C101	C	0.592133	0.363824	0.310525
C102	C	0.842133	0.613824	0.560525
C103	C	1.092133	0.863824	0.810525
C104	C	1.342133	1.113824	1.060525
C105	C	0.630666	0.320468	0.273639
C106	C	0.880666	0.570468	0.523639
C107	C	1.130666	0.820468	0.773639
C108	C	1.380666	1.070468	1.023639
C109	C	0.703882	0.323593	0.276297
C110	C	0.953882	0.573593	0.526297
C111	C	1.203882	0.823593	0.776297
C112	C	1.453882	1.073593	1.026297
C113	C	0.371164	0.352136	0.300592
C114	C	0.621164	0.602136	0.550592
C115	C	0.871164	0.852136	0.800592
C116	C	1.121164	1.102136	1.050592
C117	C	0.297943	0.349015	0.297936
C118	C	0.547943	0.599015	0.547936
C119	C	0.797943	0.849015	0.797936
C120	C	1.047943	1.099015	1.047936
C121	C	0.294104	0.438848	0.374364
C122	C	0.544104	0.688848	0.624364
C123	C	0.794104	0.938848	0.874364
C124	C	1.044104	1.188848	1.124364
C125	C	0.367321	0.441973	0.377016
C126	C	0.617321	0.691973	0.627016
C127	C	0.867321	0.941973	0.877016
C128	C	1.117321	1.191973	1.127016
C129	C	0.405848	0.398614	0.340133
C130	C	0.655848	0.648614	0.590133
C131	C	0.905848	0.898614	0.840133
C132	C	1.155848	1.148614	1.090133
C133	C	0.517293	0.360626	0.307810
C134	C	0.767293	0.610626	0.557810
C135	C	1.017293	0.860626	0.807810
C136	C	1.267293	1.110626	1.057810
C137	C	0.480686	0.401808	0.342851
C138	C	0.730686	0.651808	0.592851
C139	C	0.980686	0.901808	0.842851
C140	C	1.230686	1.151808	1.092851
C141	C	1.181493	0.389029	0.331978
C142	C	1.431493	0.639029	0.581978
C143	C	1.681493	0.889029	0.831978
C144	C	1.931493	1.139029	1.081978
C145	C	1.259416	0.392367	0.334820
C146	C	1.509416	0.642367	0.584820
C147	C	1.759416	0.892367	0.834820
C148	C	2.009416	1.142367	1.084820
C149	C	0.966510	1.081928	0.295452
C150	C	1.216510	1.331928	0.545452
C151	C	1.466510	1.581928	0.795452
C152	C	1.716510	1.831928	1.045452
C153	C	0.969616	1.008706	0.298349
C154	C	1.219616	1.258706	0.548349
C155	C	1.469616	1.508706	0.798349
C156	C	1.719616	1.758706	1.048349
C157	C	1.015980	0.973963	0.341532
C158	C	1.265980	1.223963	0.591532
C159	C	1.515980	1.473963	0.841532
C160	C	1.765980	1.723963	1.091532
C161	C	1.059237	1.012446	0.381826
C162	C	1.309237	1.262446	0.631826
C163	C	1.559237	1.512446	0.881826
C164	C	1.809237	1.762446	1.131826
C165	C	1.056128	1.085666	0.378931
C166	C	1.306128	1.335666	0.628931
C167	C	1.556128	1.585666	0.878931
C168	C	1.806128	1.835666	1.128931
C169	C	1.027607	0.752980	0.352362
C170	C	1.277607	1.002980	0.602362
C171	C	1.527607	1.252980	0.852362
C172	C	1.777607	1.502980	1.102362
C173	C	1.030715	0.679755	0.355252
C174	C	1.280715	0.929755	0.605252
C175	C	1.530715	1.179755	0.855252
C176	C	1.780715	1.429755	1.105252
C177	C	0.941092	0.676020	0.271776
C178	C	1.191092	0.926020	0.521776
C179	C	1.441092	1.176020	0.771776
C180	C	1.691092	1.426020	1.021776
C181	C	0.937990	0.749242	0.268883
C182	C	1.187990	0.999242	0.518883
C183	C	1.437990	1.249242	0.768883
C184	C	1.687990	1.499242	1.018883
C185	C	0.981244	0.787718	0.309178
C186	C	1.231244	1.037718	0.559178
C187	C	1.481244	1.287718	0.809178
C188	C	1.731244	1.537718	1.059178
C189	C	1.019157	0.899119	0.344493
C190	C	1.269157	1.149119	0.594493
C191	C	1.519157	1.399119	0.844493
C192	C	1.769157	1.649119	1.094493
C193	C	0.978063	0.862560	0.306220
C194	C	1.228063	1.112560	0.556220
C195	C	1.478063	1.362560	0.806220
C196	C	1.728063	1.612560	1.056220
C197	C	1.006515	1.198335	0.332616
C198	C	1.256515	1.448335	0.582616
C199	C	1.506515	1.698335	0.832616
C200	C	1.756515	1.948335	1.082616
C201	C	1.009765	1.120405	0.335741
C202	C	1.259765	1.370405	0.585741
C203	C	1.509765	1.620405	0.835741
C204	C	1.759765	1.870405	1.085741
C205	C	1.045456	0.338334	0.594513
C206	C	1.295456	0.588334	0.844513
C207	C	1.545456	0.838334	1.094513
C208	C	1.795456	1.088334	1.344513
C209	C	1.045446	0.338322	0.659948
C210	C	1.295446	0.588322	0.909948
C211	C	1.545446	0.838322	1.159948
C212	C	1.795446	1.088322	1.409948
C213	C	0.998669	0.381236	0.689241
C214	C	1.248669	0.631236	0.939241
C215	C	1.498669	0.881236	1.189241
C216	C	1.748669	1.131236	1.439241
C217	C	0.951886	0.424151	0.653092
C218	C	1.201886	0.674151	0.903092
C219	C	1.451886	0.924151	1.153092
C220	C	1.701886	1.174151	1.403092
C221	C	0.951892	0.424157	0.587658
C222	C	1.201892	0.674157	0.837658
C223	C	1.451892	0.924157	1.087658
C224	C	1.701892	1.174157	1.337658
C225	C	0.990388	0.444154	0.790196
C226	C	1.240388	0.694154	1.040196
C227	C	1.490388	0.944154	1.290196
C228	C	1.740388	1.194154	1.540196
C229	C	0.990387	0.444150	0.855629
C230	C	1.240387	0.694150	1.105629
C231	C	1.490387	0.944150	1.355629
C232	C	1.740387	1.194150	1.605629
C233	C	0.998644	0.381218	0.891061
C234	C	1.248644	0.631218	1.141061
C235	C	1.498644	0.881218	1.391061
C236	C	1.748644	1.131218	1.641061
C237	C	1.006918	0.318289	0.861053
C238	C	1.256918	0.568289	1.111053
C239	C	1.506918	0.818289	1.361053
C240	C	1.756918	1.068289	1.611053
C241	C	1.006925	0.318295	0.795619
C242	C	1.256925	0.568295	1.045619
C243	C	1.506925	0.818295	1.295619
C244	C	1.756925	1.068295	1.545619
C245	C	0.998656	0.381234	0.760193
C246	C	1.248656	0.631234	1.010193
C247	C	1.498656	0.881234	1.260193
C248	C	1.748656	1.131234	1.510193
C249	C	1.045410	0.338289	0.998154
C250	C	1.295410	0.588289	1.248154
C251	C	1.545410	0.838289	1.498154
C252	C	1.795410	1.088289	1.748154
C253	C	1.045395	0.338276	1.063591
C254	C	1.295395	0.588276	1.313591
C255	C	1.545395	0.838276	1.563591
C256	C	1.795395	1.088276	1.813591
C257	C	0.951838	0.424111	1.056733
C258	C	1.201838	0.674111	1.306733
C259	C	1.451838	0.924111	1.556733
C260	C	1.701838	1.174111	1.806733
C261	C	0.951849	0.424118	0.991298
C262	C	1.201849	0.674118	1.241298
C263	C	1.451849	0.924118	1.491298
C264	C	1.701849	1.174118	1.741298
C265	C	0.998639	0.381208	0.962013
C266	C	1.248639	0.631208	1.212013
C267	C	1.498639	0.881208	1.462013
C268	C	1.748639	1.131208	1.712013
C269	C	0.998605	0.381186	1.162520
C270	C	1.248605	0.631186	1.412520
C271	C	1.498605	0.881186	1.662520
C272	C	1.748605	1.131186	1.912520
C273	C	0.998616	0.381189	1.092879
C274	C	1.248616	0.631189	1.342879
C275	C	1.498616	0.881189	1.592879
C276	C	1.748616	1.131189	1.842879
H277	H	0.728276	0.451279	0.384917
H278	H	0.978276	0.701279	0.634917
H279	H	1.228276	0.951279	0.884917
H280	H	1.478276	1.201279	1.134917
Cl281	Cl	0.893025	0.478054	1.093552
Cl282	Cl	1.143025	0.728054	1.343552
Cl283	Cl	1.393025	0.978054	1.593552
Cl284	Cl	1.643025	1.228054	1.843552
Cl285	Cl	0.410924	0.500405	0.426725
Cl286	Cl	0.660924	0.750405	0.676725
Cl287	Cl	0.910924	1.000405	0.926725
Cl288	Cl	1.160924	1.250405	1.176725
H289	H	0.900236	0.777524	0.233717
H290	H	1.150236	1.027524	0.483717
H291	H	1.400236	1.277524	0.733717
H292	H	1.650236	1.527524	0.983717
H293	H	0.735250	0.288288	0.246265
H294	H	0.985250	0.538288	0.496265
H295	H	1.235250	0.788288	0.746265
H296	H	1.485250	1.038288	0.996265
Cl297	Cl	0.915226	0.960338	0.247705
Cl298	Cl	1.165226	1.210338	0.497705
Cl299	Cl	1.415226	1.460338	0.747705
Cl300	Cl	1.665226	1.710338	0.997705
H301	H	0.489042	0.322786	0.275614
H302	H	0.739042	0.572786	0.525614
H303	H	0.989042	0.822786	0.775614
H304	H	1.239042	1.072786	1.025614
H305	H	1.056909	0.870826	0.379653
H306	H	1.306909	1.120826	0.629653
H307	H	1.556909	1.370826	0.879653
H308	H	1.806909	1.620826	1.129653
H309	H	0.262728	0.474147	0.404393
H310	H	0.512728	0.724147	0.654393
H311	H	0.762728	0.974147	0.904393
H312	H	1.012728	1.224147	1.154393
Cl313	Cl	0.524295	0.460235	0.392559
Cl314	Cl	0.774295	0.710235	0.642559
Cl315	Cl	1.024295	0.960235	0.892559
Cl316	Cl	1.274295	1.210235	1.142559
Cl317	Cl	1.104226	0.284343	0.961335
Cl318	Cl	1.354226	0.534343	1.211335
Cl319	Cl	1.604226	0.784343	1.461335
Cl320	Cl	1.854226	1.034343	1.711335
Cl321	Cl	0.886716	0.627647	0.221124
Cl322	Cl	1.136716	0.877647	0.471124
Cl323	Cl	1.386716	1.127647	0.721124
Cl324	Cl	1.636716	1.377647	0.971124
H325	H	1.083534	0.303374	0.689379
H326	H	1.333534	0.553374	0.939379
H327	H	1.583534	0.803374	1.189379
H328	H	1.833534	1.053374	1.439379
Cl329	Cl	0.919775	0.906238	0.251937
Cl330	Cl	1.169775	1.156238	0.501937
Cl331	Cl	1.419775	1.406238	0.751937
Cl332	Cl	1.669775	1.656238	1.001937
H333	H	0.595455	0.445603	0.380101
H334	H	0.845455	0.695603	0.630101
H335	H	1.095455	0.945603	0.880101
H336	H	1.345455	1.195603	1.130101
H337	H	1.068473	0.651471	0.390419
H338	H	1.318473	0.901471	0.640419
H339	H	1.568473	1.151471	0.890419
H340	H	1.818473	1.401471	1.140419
H341	H	0.269702	0.311160	0.265741
H342	H	0.519702	0.561160	0.515741
H343	H	0.769702	0.811160	0.765741
H344	H	1.019702	1.061160	1.015741
H345	H	0.928758	1.110210	0.260285
H346	H	1.178758	1.360210	0.510285
H347	H	1.428758	1.610210	0.760285
H348	H	1.678758	1.860210	1.010285
Cl349	Cl	0.893046	0.478071	0.945862
Cl350	Cl	1.143046	0.728071	1.195862
Cl351	Cl	1.393046	0.978071	1.445862
Cl352	Cl	1.643046	1.228071	1.695862
Cl353	Cl	1.104213	0.284335	1.109025
Cl354	Cl	1.354213	0.534335	1.359025
Cl355	Cl	1.604213	0.784335	1.609025
Cl356	Cl	1.854213	1.034335	1.859025
Cl357	Cl	1.081978	0.801339	0.403025
Cl358	Cl	1.331978	1.051339	0.653025
Cl359	Cl	1.581978	1.301339	0.903025
Cl360	Cl	1.831978	1.551339	1.153025
Cl361	Cl	1.117517	0.968768	0.436120
Cl362	Cl	1.367517	1.218768	0.686120
Cl363	Cl	1.617517	1.468768	0.936120
Cl364	Cl	1.867517	1.718768	1.186120
H365	H	1.083556	0.303393	0.570673
H366	H	1.333556	0.553393	0.820673
H367	H	1.583556	0.803393	1.070673
H368	H	1.833556	1.053393	1.320673
H369	H	0.983654	0.495391	0.880056
H370	H	1.233654	0.745391	1.130056
H371	H	1.483654	0.995391	1.380056
H372	H	1.733654	1.245391	1.630056
H373	H	0.402524	0.316835	0.270554
H374	H	0.652524	0.566835	0.520554
H375	H	0.902524	0.816835	0.770554
H376	H	1.152524	1.066835	1.020554
Cl377	Cl	1.017320	0.239188	0.757896
Cl378	Cl	1.267320	0.489188	1.007896
Cl379	Cl	1.517320	0.739188	1.257896
Cl380	Cl	1.767320	0.989188	1.507896
Cl381	Cl	1.110507	1.134037	0.429583
Cl382	Cl	1.360507	1.384037	0.679583
Cl383	Cl	1.610507	1.634037	0.929583
Cl384	Cl	1.860507	1.884037	1.179583
Cl385	Cl	1.017302	0.239170	0.905589
Cl386	Cl	1.267302	0.489170	1.155589
Cl387	Cl	1.517302	0.739170	1.405589
Cl388	Cl	1.767302	0.989170	1.655589
Cl389	Cl	0.587057	0.262034	0.223934
Cl390	Cl	0.837057	0.512034	0.473934
Cl391	Cl	1.087057	0.762034	0.723934
Cl392	Cl	1.337057	1.012034	0.973934
Cl393	Cl	0.980028	0.523279	0.745659
Cl394	Cl	1.230028	0.773279	0.995659
Cl395	Cl	1.480028	1.023279	1.245659
Cl396	Cl	1.730028	1.273279	1.495659
H397	H	0.913797	0.459089	0.676946
H398	H	1.163797	0.709089	0.926946
H399	H	1.413797	0.959089	1.176946
H400	H	1.663797	1.209089	1.426946
H401	H	0.913800	0.459100	0.558232
H402	H	1.163800	0.709100	0.808232
H403	H	1.413800	0.959100	1.058232
H404	H	1.663800	1.209100	1.308232
