data_functionalizedCrystal
_audit_creation_method	'MofGen! by Chris Wilmer'
_symmetry_space_group_name_H-M	'P1'
_symmetry_Int_Tables_number	1
_symmetry_cell_setting	triclinic
loop_
_symmetry_equiv_pos_as_xyz
  x,y,z
_cell_length_a	23.096457
_cell_length_b	14.560438
_cell_length_c	23.096457
_cell_angle_alpha	59.999184
_cell_angle_beta	90.003973
_cell_angle_gamma	60.004238
loop_
_atom_site_label
_atom_site_type_symbol
_atom_site_fract_x
_atom_site_fract_y
_atom_site_fract_z
Zr1	Zr	-0.075915	1.005227	0.557776
O2	O	-0.168351	1.196834	0.465316
O3	O	-0.047591	0.813635	0.586117
O4	O	-0.168373	1.005252	0.586100
O5	O	0.047721	1.005191	0.465350
O6	O	-0.168377	1.005255	0.681380
O7	O	-0.047569	1.005217	0.465333
O8	O	0.047681	0.662487	0.681411
O9	O	-0.168337	1.347959	0.465319
O10	O	-0.035499	0.892436	0.669315
O11	O	0.035617	0.892415	0.598221
O12	O	-0.106589	1.118019	0.598201
O13	O	-0.035473	1.117998	0.527107
Zr14	Zr	0.076055	1.005190	0.709765
Zr15	Zr	-0.075921	1.005231	0.709737
Zr16	Zr	0.076060	1.005186	0.557804
Zr17	Zr	-0.075893	1.246254	0.557782
Zr18	Zr	0.076032	0.764162	0.709759
O19	O	0.047730	1.196782	0.681424
O20	O	-0.168359	1.196840	0.681385
O21	O	0.047738	1.196776	0.465355
O22	O	0.168491	0.813583	0.802226
O23	O	-0.047599	0.813641	0.802186
O24	O	0.168499	0.813577	0.586156
O25	O	-0.047581	1.005226	0.802191
O26	O	0.168513	1.005164	0.681441
O27	O	0.168516	1.005162	0.586161
O28	O	0.047708	1.005200	0.802208
O29	O	-0.168342	1.347963	0.586108
O30	O	0.168481	0.662454	0.681433
O31	O	0.168477	0.662457	0.802222
O32	O	0.047676	0.662490	0.802200
O33	O	-0.047537	1.347927	0.465341
O34	O	-0.047541	1.347930	0.586130
O35	O	0.106728	0.892397	0.669341
O36	O	0.035612	0.892418	0.740434
O37	O	-0.035478	1.118002	0.669320
O38	O	0.035638	1.117981	0.598227
C39	C	0.000042	0.703720	0.633763
C40	C	0.000032	0.601397	0.633760
C41	C	-0.052434	0.636536	0.581264
C42	C	-0.052399	0.540347	0.581276
C43	C	0.052576	0.373881	0.686282
C44	C	0.052537	0.470069	0.686273
C45	C	-0.113039	0.732644	0.520638
C46	C	-0.113004	0.636455	0.520649
C47	C	-0.190028	1.005259	0.633736
C48	C	-0.254546	1.005277	0.633724
C49	C	-0.284841	1.005280	0.686217
C50	C	-0.345449	1.005254	0.686233
C51	C	-0.375767	1.005250	0.633745
C52	C	-0.345462	1.005239	0.581248
C53	C	-0.284851	1.005252	0.581238
N54	N	-0.494117	1.078757	0.571510
N55	N	-0.551695	1.078747	0.571523
C56	C	-0.558383	1.005207	0.633774
N57	N	-0.505322	0.931694	0.696016
N58	N	-0.447740	0.931709	0.696003
C59	C	-0.441489	1.005235	0.633751
C60	C	-0.654395	1.005180	0.686288
C61	C	-0.715002	1.005146	0.686305
C62	C	-0.715017	1.005144	0.581314
C63	C	-0.654408	1.005166	0.581303
C64	C	-0.624103	1.005190	0.633790
C65	C	0.190168	1.005157	0.633805
C66	C	0.254685	1.005140	0.633817
C67	C	0.000077	1.005203	0.443690
C68	C	0.000079	1.005202	0.379179
C69	C	0.000098	1.306697	0.633778
C70	C	0.000107	1.409020	0.633781
C71	C	0.037180	0.887453	0.385994
C72	C	0.037183	0.887451	0.325378
C73	C	0.000071	1.005205	0.257948
C74	C	-0.037032	1.122969	0.251136
C75	C	-0.037028	1.122967	0.311751
N76	N	-0.060336	1.092864	0.135144
N77	N	-0.060339	1.092857	0.077564
C78	C	0.000059	1.005216	0.075315
N79	N	0.060458	0.917562	0.132828
N80	N	0.060459	0.917565	0.190414
C81	C	0.000063	1.005219	0.192217
C82	C	0.037167	0.887457	0.016407
C83	C	0.037172	0.887460	-0.044211
C84	C	-0.037050	1.122982	-0.118454
C85	C	-0.037048	1.122975	-0.057836
C86	C	0.000059	1.005209	0.009592
C87	C	0.000063	1.005213	0.823851
C88	C	0.000060	1.005215	0.888362
C89	C	0.000035	0.703725	0.823843
C90	C	0.000023	0.601404	0.888352
C91	C	0.190140	0.703668	0.633798
C92	C	0.254648	0.601329	0.633807
C93	C	0.190133	0.703674	0.823878
C94	C	0.254639	0.601335	0.888399
C95	C	-0.189993	1.306743	0.443663
C96	C	-0.254499	1.409081	0.379143
C97	C	0.000105	1.306692	0.443698
C98	C	0.000116	1.409013	0.379189
C99	C	-0.190000	1.306748	0.633744
C100	C	-0.254508	1.409088	0.633734
C101	C	-0.037108	0.553362	0.881523
C102	C	-0.037133	0.457234	0.942130
C103	C	-0.000023	0.409143	1.009566
C104	C	0.037109	0.457195	1.016394
C105	C	0.037130	0.553327	0.955788
C106	C	0.322067	0.553260	0.670935
C107	C	0.382685	0.457114	0.670941
C108	C	0.375882	0.409032	0.633822
C109	C	0.308456	0.457111	0.596690
C110	C	0.247840	0.553261	0.596680
C111	C	0.247809	0.553287	0.955815
C112	C	0.308414	0.457143	1.016445
C113	C	0.375846	0.409042	1.009657
C114	C	0.382674	0.457100	0.942234
C115	C	0.322071	0.553249	0.881605
C116	C	-0.247670	1.457141	0.311726
C117	C	-0.308274	1.553315	0.251097
C118	C	-0.375707	1.601421	0.257884
C119	C	-0.382535	1.553357	0.325308
C120	C	-0.321931	1.457192	0.385936
C121	C	0.037241	1.457065	0.386019
C122	C	0.037250	1.553219	0.325411
C123	C	0.000137	1.601314	0.257975
C124	C	-0.036992	1.553258	0.251147
C125	C	-0.037004	1.457111	0.311754
C126	C	-0.247683	1.457139	0.670860
C127	C	-0.308289	1.553286	0.670865
C128	C	-0.375721	1.601386	0.633740
C129	C	-0.382545	1.553325	0.596614
C130	C	-0.321939	1.457174	0.596613
H131	H	-0.102448	0.792313	0.472432
O132	O	-0.621737	1.005174	0.524678
H133	H	-0.566371	0.917126	0.549919
O134	O	-0.077084	1.249991	-0.191176
H135	H	-0.039611	1.255614	-0.220568
H136	H	-0.302701	1.592432	0.196204
H137	H	0.437586	0.417922	0.936717
O138	O	0.329440	0.605043	0.808891
H139	H	0.386513	0.555420	0.814365
O140	O	0.077138	0.405319	1.089130
H141	H	0.118152	0.299254	1.118516
O142	O	-0.077184	0.405421	0.934751
H143	H	-0.070978	0.330507	0.988220
H144	H	-0.437455	1.592503	0.566387
H145	H	-0.192768	1.417978	0.306186
H146	H	0.425246	0.330741	0.633836
H147	H	0.000153	1.679602	0.208631
O148	O	-0.000041	0.305447	1.074933
H149	H	-0.032091	0.280116	1.058848
H150	H	0.437580	0.417980	0.701181
H151	H	0.327619	0.592397	0.701161
H152	H	-0.067239	1.218856	0.306196
H153	H	0.067370	0.592431	0.961358
H154	H	-0.739699	1.005134	0.538580
O155	O	-0.252155	1.005297	0.742830
H156	H	-0.204921	1.005316	0.734003
H157	H	-0.370149	1.005233	0.538513
H158	H	0.302928	0.417948	0.566469
H159	H	0.067391	0.791558	0.440893
O160	O	-0.077068	1.249974	0.178409
H161	H	-0.039597	1.255596	0.149014
O162	O	0.441209	0.305320	1.075052
H163	H	0.441165	0.342219	1.107064
O164	O	0.175123	0.604924	0.556747
H165	H	0.180584	0.555257	0.530986
O166	O	-0.378135	1.005267	0.742851
H167	H	-0.425371	1.005248	0.734041
H168	H	-0.425048	1.679725	0.208511
O169	O	0.301019	0.405366	1.089151
H170	H	0.326839	0.423860	1.118535
O171	O	-0.077018	1.605143	0.178408
H172	H	-0.055576	1.524442	0.172236
H173	H	-0.437445	1.592538	0.330826
H174	H	-0.067265	1.218859	-0.063388
H175	H	0.067467	1.417914	0.440923
H176	H	-0.327506	1.418061	0.566378
H177	H	0.192908	0.592437	0.961355
O178	O	-0.252174	1.005264	0.524614
H179	H	-0.283437	1.005263	0.488115
O180	O	0.077190	0.760442	0.089134
H181	H	0.070949	0.780221	0.130140
O182	O	-0.329300	1.405340	0.458650
H183	H	-0.386373	1.454943	0.453176
O184	O	0.077193	0.760447	0.332718
H185	H	0.102991	0.678559	0.389788
O186	O	0.077308	1.605025	0.332783
H187	H	0.103122	1.555403	0.389859
H188	H	-0.629718	1.005194	0.729028
H189	H	-0.067336	0.592516	0.826618
H190	H	-0.739666	1.005141	0.729054
H191	H	-0.067234	1.417990	0.306183
O192	O	-0.174957	1.405255	0.710913
H193	H	-0.180405	1.454820	0.736735
O194	O	-0.300922	1.605117	0.710908
H195	H	-0.243850	1.555526	0.736711
O196	O	-0.441087	1.705109	0.633733
H197	H	-0.425005	1.730446	0.665780
H198	H	0.095255	0.441447	0.729026
H199	H	0.095324	0.266945	0.729036
H200	H	-0.161208	0.636435	0.531230
O201	O	-0.181626	0.816093	0.527534
H202	H	-0.215172	0.780655	0.530927
H203	H	0.067389	0.791571	-0.038656
O204	O	-0.106054	0.650749	0.452091
H205	H	-0.102672	0.734022	0.418521
