data_functionalizedCrystal
_audit_creation_method	'MofGen! by Chris Wilmer'
_symmetry_space_group_name_H-M	'P1'
_symmetry_Int_Tables_number	1
_symmetry_cell_setting	triclinic
loop_
_symmetry_equiv_pos_as_xyz
  x,y,z
_cell_length_a	17.699104
_cell_length_b	23.532407
_cell_length_c	22.010155
_cell_angle_alpha	89.990798
_cell_angle_beta	89.983410
_cell_angle_gamma	83.070097
loop_
_atom_site_label
_atom_site_type_symbol
_atom_site_fract_x
_atom_site_fract_y
_atom_site_fract_z
O1	O	1.003713	0.072074	-0.050544
O2	O	1.337046	0.405407	0.282790
O3	O	1.670379	0.738740	0.616123
O4	O	0.783289	0.081431	-0.050543
O5	O	1.116622	0.414765	0.282790
O6	O	1.449956	0.748098	0.616124
O7	O	0.900148	-0.006160	-0.050532
O8	O	1.233481	0.327174	0.282801
O9	O	1.566814	0.660507	0.616134
O10	O	0.886854	0.159665	-0.050554
O11	O	1.220187	0.492998	0.282779
O12	O	1.553521	0.826331	0.616112
O13	O	0.900113	-0.006160	0.050518
O14	O	1.233446	0.327173	0.383851
O15	O	1.566779	0.660507	0.717185
O16	O	0.783254	0.081431	0.050507
O17	O	1.116587	0.414764	0.383841
O18	O	1.449921	0.748098	0.717174
O19	O	1.003678	0.072074	0.050507
O20	O	1.337011	0.405407	0.383840
O21	O	1.670344	0.738740	0.717173
Cu22	Cu	0.893463	0.076752	0.059734
Cu23	Cu	1.226796	0.410086	0.393067
Cu24	Cu	1.560129	0.743419	0.726400
Cu25	Cu	0.893504	0.076752	-0.059770
Cu26	Cu	1.226837	0.410086	0.273563
Cu27	Cu	1.560171	0.743419	0.606897
O28	O	0.886819	0.159665	0.050496
O29	O	1.220152	0.492998	0.383829
O30	O	1.553486	0.826331	0.717163
C31	C	0.755076	0.081094	-0.000018
C32	C	1.088410	0.414427	0.333316
C33	C	1.421743	0.747760	0.666649
C34	C	0.671064	0.080082	-0.000017
C35	C	1.004398	0.413415	0.333317
C36	C	1.337731	0.746749	0.666650
C37	C	0.145961	0.125789	-0.000029
C38	C	0.479295	0.459122	0.333304
C39	C	0.812628	0.792456	0.666637
C40	C	0.224900	0.126736	-0.000031
C41	C	0.558234	0.460070	0.333302
C42	C	0.891567	0.793403	0.666635
C43	C	0.273779	0.075317	-0.000024
C44	C	0.607112	0.408650	0.333309
C45	C	0.940445	0.741984	0.666642
C46	C	0.243715	0.022947	-0.000021
C47	C	0.577048	0.356280	0.333312
C48	C	0.910381	0.689614	0.666645
C49	C	0.164777	0.022000	-0.000024
C50	C	0.498111	0.355334	0.333309
C51	C	0.831444	0.688667	0.666643
C52	C	0.562061	0.026764	-0.000012
C53	C	0.895395	0.360098	0.333321
C54	C	1.228728	0.693431	0.666654
C55	C	0.641004	0.027715	-0.000008
C56	C	0.974337	0.361049	0.333325
C57	C	1.307670	0.694382	0.666659
C58	C	0.622185	0.131500	-0.000020
C59	C	0.955518	0.464834	0.333314
C60	C	1.288851	0.798167	0.666647
C61	C	0.543247	0.130554	-0.000022
C62	C	0.876580	0.463887	0.333311
C63	C	1.209914	0.797220	0.666645
C64	C	0.513190	0.078184	-0.000022
C65	C	0.846523	0.411517	0.333311
C66	C	1.179856	0.744851	0.666644
C67	C	0.427595	0.077157	-0.000022
C68	C	0.760929	0.410491	0.333312
C69	C	1.094262	0.743824	0.666645
C70	C	0.359372	0.076343	-0.000021
C71	C	0.692705	0.409677	0.333313
C72	C	1.026039	0.743010	0.666646
C73	C	0.899792	-0.027377	-0.000005
C74	C	1.233125	0.305956	0.333328
C75	C	1.566458	0.639290	0.666661
C76	C	0.898774	-0.090597	-0.000001
C77	C	1.232107	0.242736	0.333333
C78	C	1.565441	0.576070	0.666666
C79	C	0.961545	-0.489516	-0.000034
C80	C	1.294878	-0.156183	0.333299
C81	C	1.628211	0.177151	0.666632
C82	C	0.960599	-0.548919	-0.000039
C83	C	1.293932	-0.215586	0.333294
C84	C	1.627266	0.117748	0.666628
O85	O	1.018788	-0.585493	-0.000062
O86	O	1.352122	-0.252160	0.333272
O87	O	1.685455	0.081173	0.666605
N88	N	0.891127	-0.571749	-0.000038
N89	N	1.224460	-0.238415	0.333295
N90	N	1.557793	0.094918	0.666628
C91	C	0.822595	-0.535172	-0.000039
C92	C	1.155929	-0.201839	0.333294
C93	C	1.489262	0.131495	0.666627
O94	O	0.763417	-0.560045	-0.000040
O95	O	1.096750	-0.226712	0.333294
O96	O	1.430083	0.106622	0.666627
C97	C	0.823541	-0.475770	-0.000039
C98	C	1.156875	-0.142437	0.333294
C99	C	1.490208	0.190897	0.666628
C100	C	0.893018	-0.452944	-0.000033
C101	C	1.226352	-0.119611	0.333300
C102	C	1.559685	0.213723	0.666633
C103	C	1.031016	-0.466689	-0.000029
C104	C	1.364349	-0.133356	0.333304
C105	C	1.697683	0.199977	0.666637
C106	C	1.031961	-0.407290	-0.000024
C107	C	1.365294	-0.073957	0.333310
C108	C	1.698628	0.259376	0.666643
C109	C	0.963435	-0.370718	-0.000023
C110	C	1.296768	-0.037385	0.333311
C111	C	1.630102	0.295948	0.666644
C112	C	0.893964	-0.393545	-0.000028
C113	C	1.227297	-0.060212	0.333306
C114	C	1.560630	0.273122	0.666639
C115	C	0.755011	-0.439194	-0.000044
C116	C	1.088344	-0.105861	0.333289
C117	C	1.421678	0.227472	0.666622
C118	C	0.755963	-0.379789	-0.000044
C119	C	1.089296	-0.046456	0.333289
C120	C	1.422630	0.286878	0.666622
C121	C	0.825440	-0.356963	-0.000039
C122	C	1.158773	-0.023630	0.333294
C123	C	1.492107	0.309704	0.666628
C124	C	0.826383	-0.297574	-0.000021
C125	C	1.159716	0.035759	0.333312
C126	C	1.493049	0.369093	0.666646
N127	N	0.895855	-0.274744	-0.000022
N128	N	1.229188	0.058589	0.333312
N129	N	1.562522	0.391922	0.666645
C130	C	0.964381	-0.311316	-0.000023
C131	C	1.297715	0.022017	0.333311
C132	C	1.631048	0.355350	0.666644
C133	C	0.820613	-0.659920	-0.000041
C134	C	1.153947	-0.326587	0.333293
C135	C	1.487280	0.006746	0.666626
C136	C	0.819666	-0.719321	-0.000037
C137	C	1.152999	-0.385988	0.333297
C138	C	1.486333	-0.052654	0.666630
C139	C	0.957670	-0.733064	-0.000038
C140	C	1.291004	-0.399731	0.333296
C141	C	1.624337	-0.066397	0.666629
C142	C	0.958617	-0.673662	-0.000037
C143	C	1.291950	-0.340329	0.333296
C144	C	1.625283	-0.006996	0.666629
C145	C	0.890086	-0.637091	-0.000041
C146	C	1.223419	-0.303757	0.333292
C147	C	1.556752	0.029576	0.666625
C148	C	0.966361	-0.186574	-0.000010
C149	C	1.299694	0.146759	0.333323
C150	C	1.633028	0.480093	0.666657
C151	C	0.967300	-0.127169	-0.000002
C152	C	1.300633	0.206164	0.333332
C153	C	1.633967	0.539498	0.666665
C154	C	0.829296	-0.113431	-0.000004
C155	C	1.162630	0.219902	0.333329
C156	C	1.495963	0.553235	0.666663
C157	C	0.828357	-0.172831	-0.000009
C158	C	1.161690	0.160503	0.333324
C159	C	1.495023	0.493836	0.666658
C160	C	0.896895	-0.209401	-0.000014
C161	C	1.230229	0.123932	0.333319
C162	C	1.563562	0.457265	0.666653
O163	O	0.768224	-0.260965	-0.000001
O164	O	1.101557	0.072368	0.333332
O165	O	1.434891	0.405702	0.666666
O166	O	1.023550	-0.286435	-0.000030
O167	O	1.356883	0.046898	0.333303
O168	O	1.690217	0.380231	0.666637
C169	C	1.031890	0.072411	-0.000020
C170	C	1.365223	0.405744	0.333313
C171	C	1.698557	0.739078	0.666647
C172	C	1.115902	0.073423	-0.000025
C173	C	1.449236	0.406756	0.333309
C174	C	1.782569	0.740090	0.666642
C175	C	0.887175	0.180882	-0.000032
C176	C	1.220508	0.514215	0.333301
C177	C	1.553842	0.847548	0.666635
C178	C	0.888193	0.244102	-0.000041
C179	C	1.221526	0.577435	0.333293
C180	C	1.554859	0.910768	0.666626
N181	N	0.893439	0.076752	0.143786
N182	N	1.226772	0.410085	0.477120
N183	N	1.560106	0.743419	0.810453
N184	N	0.893534	0.076748	-0.143823
N185	N	1.226867	0.410082	0.189511
N186	N	1.560200	0.743415	0.522844
C187	C	0.939147	0.111247	0.563561
C188	C	1.272481	0.444580	0.896894
C189	C	1.605814	0.777913	1.230227
C190	C	0.939156	0.111245	0.627168
C191	C	1.272490	0.444579	0.960502
C192	C	1.605823	0.777912	1.293835
O193	O	0.977992	0.140570	0.660055
O194	O	1.311325	0.473903	0.993389
O195	O	1.644659	0.807237	1.326722
N196	N	0.893519	0.076746	0.658993
N197	N	1.226852	0.410079	0.992327
N198	N	1.560185	0.743413	1.325660
C199	C	0.847875	0.042241	0.627207
C200	C	1.181209	0.375575	0.960541
C201	C	1.514542	0.708908	1.293874
O202	O	0.809058	0.012897	0.660118
O203	O	1.142392	0.346230	0.993451
O204	O	1.475725	0.679563	1.326785
C205	C	0.847871	0.042240	0.563601
C206	C	1.181204	0.375574	0.896934
C207	C	1.514538	0.708907	1.230268
C208	C	0.893506	0.076746	0.531779
C209	C	1.226839	0.410079	0.865113
C210	C	1.560172	0.743413	1.198446
C211	C	0.984779	0.145749	0.531739
C212	C	1.318112	0.479083	0.865072
C213	C	1.651446	0.812416	1.198405
C214	C	0.984769	0.145751	0.468136
C215	C	1.318102	0.479085	0.801469
C216	C	1.651435	0.812418	1.134802
C217	C	0.939127	0.111251	0.436354
C218	C	1.272460	0.444584	0.769688
C219	C	1.605794	0.777917	1.103021
C220	C	0.893495	0.076748	0.468176
C221	C	1.226829	0.410081	0.801509
C222	C	1.560162	0.743415	1.134843
C223	C	0.802232	0.007733	0.531816
C224	C	1.135565	0.341066	0.865150
C225	C	1.468899	0.674400	1.198483
C226	C	0.802232	0.007734	0.468206
C227	C	1.135565	0.341068	0.801539
C228	C	1.468899	0.674401	1.134872
C229	C	0.847867	0.042240	0.436384
C230	C	1.181200	0.375574	0.769717
C231	C	1.514533	0.708907	1.103050
C232	C	0.847843	0.042250	0.372791
C233	C	1.181177	0.375583	0.706125
C234	C	1.514510	0.708916	1.039458
N235	N	0.893481	0.076749	0.340966
N236	N	1.226814	0.410082	0.674300
N237	N	1.560148	0.743416	1.007633
C238	C	0.939123	0.111250	0.372748
C239	C	1.272456	0.444583	0.706081
C240	C	1.605789	0.777916	1.039414
C241	C	0.847889	0.042246	0.760785
C242	C	1.181222	0.375579	1.094119
C243	C	1.514555	0.708913	1.427452
C244	C	0.847888	0.042250	0.824391
C245	C	1.181222	0.375583	1.157724
C246	C	1.514555	0.708917	1.491057
C247	C	0.939171	0.111253	0.824347
C248	C	1.272504	0.444586	1.157680
C249	C	1.605837	0.777920	1.491014
C250	C	0.939167	0.111252	0.760740
C251	C	1.272500	0.444585	1.094074
C252	C	1.605833	0.777918	1.427407
C253	C	0.893526	0.076745	0.728960
C254	C	1.226860	0.410079	1.062294
C255	C	1.560193	0.743412	1.395627
C256	C	0.939097	0.111252	0.239176
C257	C	1.272431	0.444585	0.572510
C258	C	1.605764	0.777918	0.905843
C259	C	0.939081	0.111252	0.175568
C260	C	1.272414	0.444586	0.508901
C261	C	1.605747	0.777919	0.842234
C262	C	0.847802	0.042247	0.175617
C263	C	1.181135	0.375581	0.508950
C264	C	1.514468	0.708914	0.842283
C265	C	0.847815	0.042249	0.239220
C266	C	1.181148	0.375582	0.572553
C267	C	1.514482	0.708915	0.905887
C268	C	0.893469	0.076752	0.270998
C269	C	1.226802	0.410086	0.604332
C270	C	1.560136	0.743419	0.937665
O271	O	0.809030	0.012938	0.339864
O272	O	1.142363	0.346271	0.673197
O273	O	1.475696	0.679605	1.006531
O274	O	0.977941	0.140584	0.339830
O275	O	1.311274	0.473917	0.673163
O276	O	1.644607	0.807250	1.006496
H277	H	0.249370	0.169378	-0.000041
H278	H	0.582703	0.502711	0.333293
H279	H	0.916037	0.836045	0.666626
Br280	Br	0.662980	0.202575	-0.000021
Br281	Br	0.996314	0.535909	0.333312
Br282	Br	1.329647	0.869242	0.666645
Br283	Br	0.785934	-0.004582	0.717661
Br284	Br	1.119267	0.328751	1.050995
Br285	Br	1.452600	0.662084	1.384328
H286	H	0.700155	-0.350015	-0.000049
H287	H	1.033489	-0.016681	0.333285
H288	H	1.366822	0.316652	0.666618
H289	H	0.680800	-0.014159	-0.000004
H290	H	1.014133	0.319174	0.333330
H291	H	1.347467	0.652508	0.666663
Br292	Br	0.310049	-0.046837	-0.000015
Br293	Br	0.643382	0.286496	0.333318
Br294	Br	0.976716	0.619829	0.666651
H295	H	0.765072	-0.020366	0.557715
H296	H	1.098406	0.312967	0.891048
H297	H	1.431739	0.646301	1.224381
Br298	Br	0.521279	-0.044309	-0.000031
Br299	Br	0.854613	0.289025	0.333302
Br300	Br	1.187946	0.622358	0.666636
H301	H	1.086821	-0.496461	-0.000032
H302	H	1.420155	-0.163128	0.333301
H303	H	1.753488	0.170205	0.666634
H304	H	0.698435	-0.457768	-0.000052
H305	H	1.031769	-0.124435	0.333281
H306	H	1.365102	0.208898	0.666614
H307	H	1.013468	-0.762852	-0.000041
H308	H	1.346801	-0.429519	0.333293
H309	H	1.680135	-0.096186	0.666626
H310	H	0.140305	-0.020642	-0.000021
H311	H	0.473638	0.312692	0.333312
H312	H	0.806972	0.646025	0.666645
H313	H	0.810639	0.014159	0.149729
H314	H	1.143973	0.347493	0.483062
H315	H	1.477306	0.680826	0.816396
H316	H	1.023879	-0.108588	0.000004
H317	H	1.357212	0.224746	0.333338
H318	H	1.690546	0.558079	0.666671
Br319	Br	1.059378	-0.236196	-0.000017
Br320	Br	1.392712	0.097137	0.333316
Br321	Br	1.726045	0.430471	0.666649
Br322	Br	1.126256	-0.376322	-0.000033
Br323	Br	1.459590	-0.042988	0.333300
Br324	Br	1.792923	0.290345	0.666633
Br325	Br	0.727598	-0.610292	-0.000041
Br326	Br	1.060931	-0.276959	0.333292
Br327	Br	1.394264	0.056374	0.666625
Br328	Br	1.052910	-0.642690	-0.000029
Br329	Br	1.386243	-0.309357	0.333305
Br330	Br	1.719576	0.023976	0.666638
Br331	Br	0.740296	-0.039105	0.425079
Br332	Br	1.073630	0.294228	0.758412
Br333	Br	1.406963	0.627562	1.091746
H334	H	0.763091	-0.737900	-0.000031
H335	H	1.096424	-0.404567	0.333303
H336	H	1.429758	-0.071234	0.666636
Br337	Br	1.001057	0.158078	0.282294
Br338	Br	1.334391	0.491411	0.615628
Br339	Br	1.667724	0.824745	0.948961
Br340	Br	0.785939	-0.004571	0.867569
Br341	Br	1.119272	0.328763	1.200903
Br342	Br	1.452605	0.662096	1.534236
H343	H	0.771783	-0.191416	0.000003
H344	H	1.105116	0.141917	0.333337
H345	H	1.438450	0.475250	0.666670
H346	H	0.773504	-0.083644	-0.000001
H347	H	1.106837	0.249690	0.333332
H348	H	1.440171	0.583023	0.666666
H349	H	1.021933	0.173847	0.442232
H350	H	1.355266	0.507180	0.775565
H351	H	1.688599	0.840514	1.108899
Br352	Br	1.001116	0.158074	0.867491
Br353	Br	1.334450	0.491407	1.200824
Br354	Br	1.667783	0.824741	1.534158
Br355	Br	1.001010	0.158091	0.132385
Br356	Br	1.334343	0.491424	0.465718
Br357	Br	1.667677	0.824757	0.799051
Br358	Br	1.046731	0.192577	0.574859
Br359	Br	1.380064	0.525911	0.908192
Br360	Br	1.713397	0.859244	1.241525
Br361	Br	0.476915	0.200339	-0.000028
Br362	Br	0.810249	0.533673	0.333305
Br363	Br	1.143582	0.867006	0.666638
H364	H	0.106169	0.167661	-0.000030
H365	H	0.439503	0.500994	0.333303
H366	H	0.772836	0.834327	0.666636
Br367	Br	1.001103	0.158081	0.717561
Br368	Br	1.334437	0.491414	1.050894
Br369	Br	1.667770	0.824748	1.384227
Br370	Br	0.785873	-0.004574	0.282408
Br371	Br	1.119206	0.328759	0.615742
Br372	Br	1.452539	0.662092	0.949075
