data_functionalizedCrystal
_audit_creation_method	'MofGen! by Chris Wilmer'
_symmetry_space_group_name_H-M	'P1'
_symmetry_Int_Tables_number	1
_symmetry_cell_setting	triclinic
loop_
_symmetry_equiv_pos_as_xyz
  x,y,z
_cell_length_a	8.597187
_cell_length_b	10.654550
_cell_length_c	7.681481
_cell_angle_alpha	84.203385
_cell_angle_beta	88.166928
_cell_angle_gamma	84.910067
loop_
_atom_site_label
_atom_site_type_symbol
_atom_site_fract_x
_atom_site_fract_y
_atom_site_fract_z
O1	O	2.038730	0.223920	-0.455722
O2	O	1.588802	0.232840	-0.387466
O3	O	1.824112	0.045822	-0.423157
O4	O	1.803421	0.410939	-0.420031
O5	O	1.853074	0.022749	-0.134692
O6	O	1.617764	0.209768	-0.099001
O7	O	2.067692	0.200848	-0.167257
Zn8	Zn	1.847327	0.201644	-0.087329
Zn9	Zn	1.809168	0.232043	-0.467394
O10	O	1.832383	0.387866	-0.131566
C11	C	1.545672	0.219060	-0.234494
C12	C	1.374008	0.212359	-0.208452
C13	C	1.837073	-0.012539	-0.278696
C14	C	1.832528	-0.152061	-0.278012
C15	C	1.971074	-0.229119	-0.299025
C16	C	1.966793	-0.360214	-0.298388
C17	C	1.685408	-0.337181	-0.255716
C18	C	1.689689	-0.206088	-0.256366
C19	C	2.113913	-0.175093	-0.320672
C20	C	2.252471	-0.252152	-0.341684
C21	C	2.248190	-0.383247	-0.341047
C22	C	2.105351	-0.437282	-0.319397
C23	C	2.110822	0.214628	-0.320233
C24	C	2.282485	0.221329	-0.346286
C25	C	1.819421	0.446227	-0.276031
C26	C	1.823965	0.585750	-0.276725
N27	N	1.873380	0.180897	0.172054
N28	N	1.783126	0.252781	-0.726778
H29	H	1.321034	0.199568	-0.070532
C30	C	1.997854	0.081775	0.254757
H31	H	1.995020	0.084032	0.378148
H32	H	2.098260	0.100236	0.209375
H33	H	1.977048	-0.000103	0.227793
H34	H	2.117415	-0.068350	-0.321187
C35	C	1.658656	0.351899	0.190533
H36	H	1.604647	0.394930	0.279911
H37	H	1.586669	0.310796	0.129544
H38	H	1.707876	0.411139	0.111139
C39	C	1.354043	0.238622	-0.532617
H40	H	1.463906	0.240994	-0.526262
H41	H	1.310191	0.315680	-0.591603
H42	H	1.332197	0.169838	-0.594930
H43	H	1.576872	-0.143345	-0.239253
H44	H	2.368761	-0.208143	-0.359354
C45	C	2.400593	-0.468007	-0.364163
H46	H	2.486270	-0.417052	-0.377134
H47	H	2.394685	-0.511578	-0.465392
H48	H	2.414863	-0.527673	-0.264188
H49	H	1.569115	-0.381189	-0.238087
C50	C	2.100643	-0.581483	-0.318706
H51	H	2.203615	-0.619641	-0.334317
H52	H	2.037613	-0.598835	-0.411272
H53	H	2.057818	-0.614939	-0.210072
