data_functionalizedCrystal
_audit_creation_method	'MofGen! by Chris Wilmer'
_symmetry_space_group_name_H-M	'P1'
_symmetry_Int_Tables_number	1
_symmetry_cell_setting	triclinic
loop_
_symmetry_equiv_pos_as_xyz
  x,y,z
_cell_length_a	15.297475
_cell_length_b	15.297327
_cell_length_c	15.298259
_cell_angle_alpha	88.343348
_cell_angle_beta	88.370891
_cell_angle_gamma	91.625546
loop_
_atom_site_label
_atom_site_type_symbol
_atom_site_fract_x
_atom_site_fract_y
_atom_site_fract_z
Zn1	Zn	1.169549	-0.425823	-0.785809
Zn2	Zn	1.669549	0.074177	-0.285809
Zn3	Zn	1.161139	-0.596500	-0.663014
Zn4	Zn	1.661139	-0.096500	-0.163014
Zn5	Zn	1.046767	-0.434114	-0.615184
Zn6	Zn	1.546767	0.065886	-0.115184
Zn7	Zn	0.998847	-0.548496	-0.777488
Zn8	Zn	1.498847	-0.048496	-0.277488
O9	O	1.094075	-0.501233	-0.710374
O10	O	1.594075	-0.001233	-0.210374
O11	O	1.287737	-0.465083	-0.793019
O12	O	1.787737	0.034917	-0.293019
O13	O	1.162502	-0.598519	-0.537354
O14	O	1.662502	-0.098519	-0.037354
O15	O	1.086628	-0.313716	-0.621283
O16	O	1.586628	0.186284	-0.121283
O17	O	1.281559	-0.590479	-0.702802
O18	O	1.781559	-0.090479	-0.202802
O19	O	1.176836	-0.307624	-0.746641
O20	O	1.676836	0.192376	-0.246641
O21	O	1.078474	-0.479215	-0.502214
O22	O	1.578474	0.020785	-0.002214
O23	O	0.921106	-0.432668	-0.613215
O24	O	1.421106	0.067332	-0.113215
O25	O	1.004956	-0.508664	-0.897906
O26	O	1.504956	-0.008664	-0.397906
O27	O	0.885899	-0.516704	-0.732458
O28	O	1.385899	-0.016704	-0.232458
O29	O	1.130370	-0.418536	-0.904020
O30	O	1.630370	0.081464	-0.404020
O31	O	1.116036	-0.709431	-0.694733
O32	O	1.616036	-0.209431	-0.194733
O33	O	0.996801	-0.674163	-0.778837
O34	O	1.496801	-0.174163	-0.278837
C35	C	0.872568	-0.470377	-0.666744
C36	C	1.372568	0.029623	-0.166744
C37	C	0.777800	-0.457194	-0.648102
C38	C	1.277800	0.042806	-0.148102
C39	C	0.437417	-0.595466	-0.843613
C40	C	0.937417	-0.095466	-0.343613
C41	C	0.526455	-0.607859	-0.861126
C42	C	1.026455	-0.107859	-0.361126
C43	C	0.589296	-0.570194	-0.807872
C44	C	1.089296	-0.070194	-0.307872
C45	C	0.563089	-0.520133	-0.737101
C46	C	1.063089	-0.020133	-0.237101
C47	C	0.474041	-0.507744	-0.719581
C48	C	0.974041	-0.007744	-0.219581
C49	C	0.625920	-0.482472	-0.683841
C50	C	1.125920	0.017528	-0.183841
C51	C	0.599713	-0.432411	-0.613069
C52	C	1.099713	0.067589	-0.113069
C53	C	0.510673	-0.420023	-0.595554
C54	C	1.010673	0.079977	-0.095554
C55	C	0.447833	-0.457689	-0.648808
C56	C	0.947833	0.042311	-0.148808
C57	C	0.714968	-0.494861	-0.701360
C58	C	1.214968	0.005139	-0.201360
C59	C	0.751592	-0.407139	-0.577329
C60	C	1.251592	0.092861	-0.077329
C61	C	0.662553	-0.394745	-0.559815
C62	C	1.162553	0.105255	-0.059815
C63	C	1.050327	-0.722729	-0.741095
C64	C	1.550327	-0.222729	-0.241095
C65	C	1.031685	-0.817491	-0.754282
C66	C	1.531685	-0.317491	-0.254282
C67	C	1.227622	-1.157929	-0.616486
C68	C	1.727622	-0.657929	-0.116486
C69	C	1.245137	-1.068897	-0.604092
C70	C	1.745137	-0.568897	-0.104092
C71	C	1.191776	-1.006041	-0.641638
C72	C	1.691776	-0.506041	-0.141638
C73	C	1.120896	-1.032226	-0.691581
C74	C	1.620896	-0.532226	-0.191581
C75	C	1.103375	-1.121268	-0.703971
C76	C	1.603375	-0.621268	-0.203971
C77	C	1.067529	-0.969380	-0.729123
C78	C	1.567529	-0.469380	-0.229123
C79	C	0.996649	-0.995565	-0.779066
C80	C	1.496649	-0.495565	-0.279066
C81	C	0.979132	-1.084599	-0.791454
C82	C	1.479132	-0.584599	-0.291454
C83	C	1.032493	-1.147454	-0.753907
C84	C	1.532493	-0.647454	-0.253907
C85	C	1.085050	-0.880338	-0.716734
C86	C	1.585050	-0.380338	-0.216734
C87	C	0.960803	-0.843677	-0.804219
C88	C	1.460803	-0.343677	-0.304219
C89	C	0.943287	-0.932710	-0.816613
C90	C	1.443287	-0.432710	-0.316613
C91	C	1.316447	-0.532210	-0.754174
C92	C	1.816447	-0.032210	-0.254174
C93	C	1.411209	-0.545411	-0.772839
C94	C	1.911209	-0.045411	-0.272839
C95	C	1.063256	-0.457320	-0.932765
C96	C	1.563256	0.042680	-0.432765
C97	C	1.050122	-0.438607	-1.027535
C98	C	1.550122	0.061393	-0.527535
C99	C	1.138015	-0.278873	-0.679555
C100	C	1.638015	0.221127	-0.179555
C101	C	1.156740	-0.184116	-0.666422
C102	C	1.656740	0.315884	-0.166422
C103	C	1.188100	-0.634327	-1.367852
C104	C	1.688100	-0.134327	-0.867852
C105	C	1.200434	-0.651914	-1.278811
C106	C	1.700434	-0.151914	-0.778811
C107	C	1.162857	-0.598588	-1.215988
C108	C	1.662857	-0.098588	-0.715988
C109	C	1.112944	-0.527673	-1.242214
C110	C	1.612944	-0.027673	-0.742214
C111	C	1.100603	-0.510089	-1.331264
C112	C	1.600603	-0.010089	-0.831264
C113	C	1.075360	-0.474350	-1.179399
C114	C	1.575360	0.025650	-0.679399
C115	C	1.025447	-0.403436	-1.205625
C116	C	1.525447	0.096564	-0.705625
C117	C	1.013109	-0.385854	-1.294667
C118	C	1.513109	0.114146	-0.794667
C119	C	1.050685	-0.439179	-1.357490
C120	C	1.550685	0.060821	-0.857490
C121	C	1.087701	-0.491935	-1.090350
C122	C	1.587701	0.008065	-0.590350
C123	C	1.000205	-0.367697	-1.053761
C124	C	1.500205	0.132303	-0.553761
C125	C	0.987871	-0.350110	-1.142802
C126	C	1.487871	0.149890	-0.642802
C127	C	1.124836	-0.544921	-0.488849
C128	C	1.624836	-0.044921	0.011151
C129	C	1.138182	-0.563417	-0.394078
C130	C	1.638182	-0.063417	0.105922
H131	H	0.641202	-0.353985	-0.502192
H132	H	1.141202	0.146015	-0.002192
N133	N	0.685333	-0.583546	-0.826761
N134	N	1.185333	-0.083546	-0.326761
H135	H	0.711807	-0.613657	-0.774623
H136	H	1.211807	-0.113657	-0.274623
H137	H	0.692331	-0.620947	-0.879699
H138	H	1.192331	-0.120947	-0.379699
H139	H	0.547786	-0.648621	-0.918747
H140	H	1.047786	-0.148621	-0.418747
N141	N	0.934025	-0.273635	-1.171096
N142	N	1.434025	0.226365	-0.671096
H143	H	0.912090	-0.242519	-1.117792
H144	H	1.412090	0.257481	-0.617792
H145	H	0.971407	-0.231724	-1.209410
H146	H	1.471407	0.268276	-0.709410
N147	N	1.210675	-0.910014	-0.628275
N148	N	1.710675	-0.410014	-0.128275
H149	H	1.222424	-0.879158	-0.686866
H150	H	1.722424	-0.379158	-0.186866
H151	H	1.158570	-0.883652	-0.598036
H152	H	1.658570	-0.383652	-0.098036
H153	H	0.921408	-1.105916	-0.832108
H154	H	1.421408	-0.605916	-0.332108
H155	H	0.885576	-0.954043	-0.857276
H156	H	1.385576	-0.454043	-0.357276
H157	H	0.917350	-0.792499	-0.834790
H158	H	1.417350	-0.292499	-0.334790
N159	N	1.228609	-0.691847	-1.435606
N160	N	1.728609	-0.191847	-0.935606
H161	H	1.213211	-0.669949	-1.495993
H162	H	1.713211	-0.169949	-0.995993
H163	H	1.294278	-0.690144	-1.430207
H164	H	1.794278	-0.190144	-0.930207
H165	H	0.375329	-0.447599	-0.634554
H166	H	0.875329	0.052401	-0.134554
H167	H	1.128347	-0.549670	-1.069006
H168	H	1.628347	-0.049670	-0.569006
H169	H	1.302847	-1.047580	-0.563428
H170	H	1.802847	-0.547580	-0.063428
N171	N	1.013599	-1.243486	-0.767269
N172	N	1.513599	-0.743486	-0.267269
H173	H	0.960597	-1.250540	-0.804600
H174	H	1.460597	-0.750540	-0.304600
H175	H	1.065731	-1.269854	-0.797453
H176	H	1.565731	-0.769854	-0.297453
N177	N	1.176161	-0.617551	-1.119950
N178	N	1.676161	-0.117551	-0.619950
H179	H	1.213484	-0.670564	-1.112868
H180	H	1.713484	-0.170564	-0.612868
H181	H	1.206337	-0.565442	-1.093546
H182	H	1.706337	-0.065442	-0.593546
N183	N	1.037375	-0.420211	-1.453529
N184	N	1.537375	0.079789	-0.953529
H185	H	1.095984	-0.408454	-1.484326
H186	H	1.595984	0.091546	-0.984326
H187	H	1.007146	-0.472298	-1.479921
H188	H	1.507146	0.027702	-0.979921
N189	N	1.254266	-0.728394	-1.250528
N190	N	1.754266	-0.228394	-0.750528
H191	H	1.315651	-0.720580	-1.276186
H192	H	1.815651	-0.220580	-0.776186
H193	H	1.256311	-0.731404	-1.184585
H194	H	1.756311	-0.231404	-0.684585
N195	N	0.959669	-0.310169	-0.986020
N196	N	1.459669	0.189831	-0.486020
H197	H	0.918434	-0.346602	-0.946092
H198	H	1.418434	0.153398	-0.446092
H199	H	1.007294	-0.282791	-0.950488
H200	H	1.507294	0.217209	-0.450488
N201	N	0.743223	-0.548848	-0.777691
N202	N	1.243223	-0.048848	-0.277691
H203	H	0.781518	-0.511596	-0.819735
H204	H	1.281518	-0.011596	-0.319735
H205	H	0.777142	-0.600290	-0.755644
H206	H	1.277142	-0.100290	-0.255644
H207	H	0.972457	-0.328117	-1.316016
H208	H	1.472457	0.171883	-0.816016
N209	N	1.285154	-1.225729	-0.575985
N210	N	1.785154	-0.725729	-0.075985
H211	H	1.312567	-1.261280	-0.623572
H212	H	1.812567	-0.761280	-0.123572
H213	H	1.332669	-1.195577	-0.542457
H214	H	1.832669	-0.695577	-0.042457
N215	N	0.369643	-0.636097	-0.901038
N216	N	0.869643	-0.136097	-0.401038
H217	H	0.309260	-0.620654	-0.879197
H218	H	0.809260	-0.120654	-0.379197
H219	H	0.379370	-0.613067	-0.963193
H220	H	0.879370	-0.113067	-0.463193
H221	H	1.142761	-0.859026	-0.676070
H222	H	1.642761	-0.359026	-0.176070
H223	H	0.489339	-0.379271	-0.537919
H224	H	0.989339	0.120729	-0.037919
H225	H	0.802757	-0.376470	-0.533963
H226	H	1.302757	0.123530	-0.033963
