data_functionalizedCrystal
_audit_creation_method	'MofGen! by Chris Wilmer'
_symmetry_space_group_name_H-M	'P1'
_symmetry_Int_Tables_number	1
_symmetry_cell_setting	triclinic
loop_
_symmetry_equiv_pos_as_xyz
  x,y,z
_cell_length_a	15.297327
_cell_length_b	17.077404
_cell_length_c	17.077396
_cell_angle_alpha	90.019501
_cell_angle_beta	99.647268
_cell_angle_gamma	80.292864
loop_
_atom_site_label
_atom_site_type_symbol
_atom_site_fract_x
_atom_site_fract_y
_atom_site_fract_z
Zn1	Zn	-0.359161	-1.145953	-0.497895
Zn2	Zn	-0.510035	-1.123133	-0.389335
Zn3	Zn	-0.359192	-1.014680	-0.366647
Zn4	Zn	-0.509981	-0.991934	-0.520550
O5	O	-0.434592	-1.068925	-0.443607
O6	O	-0.379184	-1.252771	-0.483507
O7	O	-0.490061	-1.108715	-0.276484
O8	O	-0.232941	-1.051163	-0.365082
O9	O	-0.490030	-1.236005	-0.403749
O10	O	-0.232918	-1.147608	-0.461508
O11	O	-0.379238	-1.029035	-0.259815
O12	O	-0.379186	-0.901817	-0.387050
O13	O	-0.489939	-1.012395	-0.627386
O14	O	-0.489970	-0.885105	-0.500121
O15	O	-0.379132	-1.125553	-0.610742
O16	O	-0.636275	-1.086659	-0.425717
O17	O	-0.636236	-0.990268	-0.522120
C18	C	-0.434576	-0.864979	-0.443583
C19	C	-0.434591	-0.777727	-0.443594
C20	C	-0.668990	-1.033541	-0.478856
C21	C	-0.769266	-1.018475	-0.493962
C22	C	-0.434526	-1.068982	-0.648341
C23	C	-0.434498	-1.069007	-0.735587
C24	C	-1.051885	-1.176925	-0.335910
C25	C	-0.957670	-1.191079	-0.321713
C26	C	-0.910565	-1.147930	-0.364774
C27	C	-0.957683	-1.090623	-0.422034
C28	C	-1.051907	-1.076462	-0.436228
C29	C	-0.910586	-1.047467	-0.465092
C30	C	-0.957705	-0.990160	-0.522352
C31	C	-1.051919	-0.976003	-0.536544
C32	C	-1.099025	-1.019152	-0.493483
C33	C	-0.816363	-1.061628	-0.450898
C34	C	-0.816384	-0.961165	-0.551217
C35	C	-0.910599	-0.947010	-0.565413
C36	C	-0.199279	-1.104468	-0.408237
C37	C	-0.099003	-1.119615	-0.393165
C38	C	-0.434609	-1.273666	-0.443632
C39	C	-0.434617	-1.360915	-0.443642
C40	C	-0.492363	-0.728043	-0.502403
C41	C	-0.492365	-0.646062	-0.502416
C42	C	-0.434599	-0.613767	-0.443616
C43	C	-0.376820	-0.663458	-0.384804
C44	C	-0.376814	-0.745438	-0.384795
C45	C	-0.376838	-0.492585	-0.384825
C46	C	-0.376844	-0.410599	-0.384833
C47	C	-0.492389	-0.393210	-0.502446
C48	C	-0.492383	-0.475189	-0.502438
C49	C	-0.434605	-0.524875	-0.443624
C50	C	-0.376795	-1.127930	-0.767910
C51	C	-0.376765	-1.127944	-0.849886
C52	C	-0.434443	-1.069037	-0.899538
C53	C	-0.492147	-1.010108	-0.867209
C54	C	-0.492172	-1.010091	-0.785234
C55	C	-0.492093	-1.010148	-1.038071
C56	C	-0.492070	-1.010165	-1.120052
C57	C	-0.376686	-1.128000	-1.102724
C58	C	-0.376711	-1.127984	-1.020748
C59	C	-0.434417	-1.069055	-0.988425
C60	C	-0.434593	-1.068922	-0.239659
C61	C	-0.434368	-1.069088	-0.152376
H62	H	-0.833851	-1.159457	-0.353211
O63	O	-0.765578	-0.914621	-0.597657
H64	H	-0.783722	-0.850295	-0.586860
H65	H	-0.539106	-0.962142	-0.907641
H66	H	-0.539426	-0.501481	-0.550314
H67	H	-1.175742	-1.007633	-0.505041
O68	O	-0.554702	-0.339629	-0.565889
H69	H	-0.544995	-0.277198	-0.556026
H70	H	-0.919310	-1.237738	-0.275092
O71	O	-0.314500	-0.799026	-0.321363
H72	H	-0.324193	-0.861458	-0.331240
H73	H	-1.090247	-1.212046	-0.300851
H74	H	-0.329750	-1.175955	-0.980324
H75	H	-0.948976	-0.900350	-0.612035
H76	H	-0.329830	-1.175901	-0.727489
H77	H	-0.329698	-1.175981	-1.129045
O78	O	-0.554682	-0.592395	-0.565780
H79	H	-0.600461	-0.548131	-0.537388
H80	H	-0.539034	-0.962196	-1.160477
O81	O	-0.314532	-0.375762	-0.321422
H82	H	-0.274343	-0.424084	-0.280532
H83	H	-0.539070	-0.962151	-1.011755
O84	O	-0.765553	-1.123449	-0.389157
H85	H	-0.692123	-1.126049	-0.386517
H86	H	-0.329781	-1.175927	-0.876200
H87	H	-1.090280	-0.929330	-0.583160
H88	H	-0.329781	-0.533038	-0.336939
H89	H	-0.539150	-0.962103	-0.758916
H90	H	-0.539406	-0.754331	-0.550283
H91	H	-0.329781	-0.637157	-0.336930
