data_functionalizedCrystal
_audit_creation_method	'MofGen! by Chris Wilmer'
_symmetry_space_group_name_H-M	'P1'
_symmetry_Int_Tables_number	1
_symmetry_cell_setting	triclinic
loop_
_symmetry_equiv_pos_as_xyz
  x,y,z
_cell_length_a	12.759401
_cell_length_b	14.908178
_cell_length_c	12.759393
_cell_angle_alpha	93.332413
_cell_angle_beta	90.018496
_cell_angle_gamma	93.314230
loop_
_atom_site_label
_atom_site_type_symbol
_atom_site_fract_x
_atom_site_fract_y
_atom_site_fract_z
Zn1	Zn	1.582097	-0.359132	0.569812
Zn2	Zn	1.571841	-0.510032	0.383977
Zn3	Zn	1.406396	-0.359179	0.394149
Zn4	Zn	1.396242	-0.509963	0.559623
O5	O	1.489144	-0.434577	0.476890
O6	O	1.727757	-0.379159	0.545168
O7	O	1.549852	-0.490070	0.238302
O8	O	1.438245	-0.232918	0.425972
O9	O	1.720222	-0.490024	0.408636
O10	O	1.567332	-0.232883	0.555031
O11	O	1.428300	-0.379239	0.245775
O12	O	1.258029	-0.379172	0.416092
O13	O	1.420939	-0.489906	0.707999
O14	O	1.250569	-0.489952	0.537665
O15	O	1.557486	-0.379091	0.715485
O16	O	1.540006	-0.636278	0.398756
O17	O	1.410994	-0.636227	0.527803
C18	C	1.216178	-0.434560	0.476877
C19	C	1.099400	-0.434575	0.476895
C20	C	1.040675	-0.492350	0.540081
C21	C	0.930950	-0.492361	0.540092
C22	C	0.938686	-0.376820	0.413721
C23	C	1.048409	-0.376804	0.413717
C24	C	1.036208	-0.559060	0.613037
C25	C	0.926483	-0.559071	0.613047
C26	C	1.473313	-0.668989	0.461093
C27	C	1.466637	-0.769272	0.454370
C28	C	1.588408	-0.957528	0.576270
C29	C	1.582138	-1.051753	0.569957
C30	C	1.447824	-1.051948	0.435435
C31	C	1.454094	-0.957723	0.441749
C32	C	1.524389	-0.910516	0.512167
C33	C	1.530663	-0.816290	0.518475
C34	C	1.396344	-0.816487	0.383960
C35	C	1.390075	-0.910711	0.377646
C36	C	1.763176	-0.434594	0.476904
C37	C	1.879952	-0.434601	0.476910
C38	C	1.489224	-0.434486	0.750930
C39	C	1.489258	-0.434447	0.867709
C40	C	1.505065	-0.199248	0.492773
C41	C	1.511850	-0.098966	0.499541
C42	C	1.489130	-0.434602	0.203921
C43	C	1.489316	-0.434387	0.087160
C44	C	1.560368	-0.376740	0.926471
C45	C	1.560395	-0.376708	1.036198
C46	C	1.418199	-0.492096	1.028390
C47	C	1.418168	-0.492123	0.918666
C48	C	1.642466	-0.310124	0.930980
C49	C	1.642493	-0.310092	1.040706
H50	H	0.897155	-0.329784	0.362285
N51	N	1.664224	-0.906615	0.652220
H52	H	1.624101	-0.867521	0.703489
H53	H	1.715522	-0.867565	0.612112
N54	N	1.111762	-0.314489	0.345578
H55	H	1.160114	-0.272723	0.391179
H56	H	1.062747	-0.277953	0.305562
H57	H	1.067270	-0.540426	0.695697
H58	H	1.360318	-0.539052	1.069892
H59	H	0.894163	-0.534130	0.692078
N60	N	1.651181	-1.102446	0.639116
H61	H	1.727353	-1.086003	0.623981
H62	H	1.636461	-1.169286	0.624415
H63	H	1.360260	-0.539110	0.870826
H64	H	1.625398	-0.240252	0.905926
N65	N	1.075361	-0.646938	0.568351
H66	H	1.154635	-0.643719	0.569981
H67	H	1.050071	-0.658299	0.493483
N68	N	0.880778	-0.651602	0.577770
H69	H	0.939524	-0.692884	0.562012
H70	H	0.837025	-0.647453	0.512439
N71	N	1.327297	-0.765779	0.314811
H72	H	1.281183	-0.726689	0.360074
H73	H	1.281886	-0.810041	0.269254
N74	N	1.606480	-0.765371	0.594418
H75	H	1.646081	-0.809454	0.634071
H76	H	1.566284	-0.726275	0.645617
N77	N	1.742473	-0.343520	0.883635
H78	H	1.790834	-0.359602	0.941465
H79	H	1.778193	-0.294814	0.842267
H80	H	1.390589	-1.090399	0.378109
N81	N	1.609851	-0.222156	1.091738
H82	H	1.594062	-0.179689	1.035691
H83	H	1.668630	-0.194435	1.138194
H84	H	1.332840	-0.949160	0.320316
H85	H	1.722605	-0.328806	1.069225
