data_functionalizedCrystal
_audit_creation_method	'MofGen! by Chris Wilmer'
_symmetry_space_group_name_H-M	'P1'
_symmetry_Int_Tables_number	1
_symmetry_cell_setting	triclinic
loop_
_symmetry_equiv_pos_as_xyz
  x,y,z
_cell_length_a	6.817900
_cell_length_b	11.353959
_cell_length_c	10.992410
_cell_angle_alpha	103.075008
_cell_angle_beta	108.764651
_cell_angle_gamma	107.526623
loop_
_atom_site_label
_atom_site_type_symbol
_atom_site_fract_x
_atom_site_fract_y
_atom_site_fract_z
V1	V	-4.133777	-0.180904	-0.441063
O2	O	-4.071438	0.008693	-0.391023
O3	O	-4.130549	-0.358703	-0.478099
O4	O	-4.111069	-0.178122	-0.615153
O5	O	-4.091053	-0.173138	-0.253019
V6	V	-4.608223	-0.158226	-0.413706
O7	O	-4.414947	-0.230651	-0.501073
O8	O	-4.777249	-0.108480	-0.353696
O9	O	-4.388244	0.019572	-0.376671
O10	O	-4.787959	-0.347824	-0.463747
O11	O	-4.768343	-0.165992	-0.601750
O12	O	-4.407724	-0.161009	-0.239616
C13	C	-3.985708	-0.402046	-0.481476
C14	C	-4.064527	-0.547399	-0.512917
C15	C	-4.039961	-0.594458	-0.411148
C16	C	-4.121424	-0.744687	-0.443642
C17	C	-3.960857	-0.171695	-0.656300
C18	C	-4.023873	-0.170597	-0.798883
C19	C	-3.889915	-0.160586	-0.991767
C20	C	-3.824547	-0.162271	-0.843660
C21	C	-4.235806	-0.299517	-0.904828
C22	C	-4.299996	-0.298377	-1.053139
C23	C	-4.150814	-0.048740	-0.959261
C24	C	-4.080039	-0.048129	-0.810111
C25	C	-4.196428	0.062909	-0.373292
C26	C	-4.096849	0.208260	-0.341859
C27	C	-4.221278	-0.167440	-0.198463
C28	C	-4.137499	-0.168532	-0.055878
H29	H	-3.762636	-0.067249	-0.989715
H30	H	-4.015515	-0.720815	-0.230668
H31	H	-3.776787	-0.249537	-0.838368
H32	H	-4.145874	-0.618330	-0.624101
N33	N	-4.000504	0.080941	-0.957216
H34	H	-4.095511	0.129714	-0.991251
H35	H	-3.922289	0.063234	-1.018897
N36	N	-4.542675	-0.313227	-1.112945
H37	H	-4.548218	-0.233499	-1.137674
H38	H	-4.607374	-0.320524	-1.042882
N39	N	-3.869184	-0.274601	-1.080829
H40	H	-3.824444	-0.329574	-1.025466
H41	H	-3.749788	-0.239143	-1.114148
N42	N	-4.229170	-0.838638	-0.590924
H43	H	-4.118138	-0.818584	-0.633728
H44	H	-4.369487	-0.827595	-0.644362
N45	N	-3.614641	-0.039487	-0.745524
H46	H	-3.563838	0.016221	-0.798308
H47	H	-3.490051	-0.065763	-0.698157
H48	H	-3.958632	-0.523528	-0.299965
N49	N	-4.388547	-0.054923	-1.014759
H50	H	-4.396078	0.022275	-0.952272
H51	H	-4.497649	-0.140456	-1.019077
H52	H	-4.199860	-0.390444	-0.899563
N53	N	-4.436549	-0.313766	-0.869876
H54	H	-4.391932	-0.236604	-0.784824
H55	H	-4.487206	-0.398983	-0.852212
H56	H	-3.926490	0.047241	-0.736418
N57	N	-4.292365	-0.418521	-1.141320
H58	H	-4.247414	-0.471722	-1.083673
H59	H	-4.177766	-0.389335	-1.179844
H60	H	-4.221988	-0.046615	-0.777261
