data_functionalizedCrystal
_audit_creation_method	'MofGen! by Chris Wilmer'
_symmetry_space_group_name_H-M	'P1'
_symmetry_Int_Tables_number	1
_symmetry_cell_setting	triclinic
loop_
_symmetry_equiv_pos_as_xyz
  x,y,z
_cell_length_a	13.897449
_cell_length_b	14.908968
_cell_length_c	14.908308
_cell_angle_alpha	89.835775
_cell_angle_beta	93.276458
_cell_angle_gamma	93.278502
loop_
_atom_site_label
_atom_site_type_symbol
_atom_site_fract_x
_atom_site_fract_y
_atom_site_fract_z
Zn1	Zn	1.468455	0.387267	-0.487822
Zn2	Zn	1.968455	0.887267	0.012178
Zn3	Zn	1.486910	0.528964	-0.328806
Zn4	Zn	1.986910	1.028964	0.171194
Zn5	Zn	1.315898	0.378629	-0.337474
Zn6	Zn	1.815898	0.878629	0.162526
Zn7	Zn	1.316934	0.537582	-0.479113
Zn8	Zn	1.816934	1.037582	0.020887
O9	O	1.397049	0.458111	-0.408304
O10	O	1.897049	0.958111	0.091696
O11	O	1.605884	0.406073	-0.466745
O12	O	2.105884	0.906073	0.033255
O13	O	1.471514	0.501801	-0.204130
O14	O	1.971514	1.001801	0.295870
O15	O	1.327978	0.253952	-0.364691
O16	O	1.827978	0.753952	0.135309
O17	O	1.619443	0.510177	-0.349916
O18	O	2.119443	1.010177	0.150084
O19	O	1.440061	0.260299	-0.475151
O20	O	1.940061	0.760299	0.024849
O21	O	1.345873	0.391350	-0.210499
O22	O	1.845873	0.891350	0.289501
O23	O	1.181054	0.399706	-0.356246
O24	O	1.681054	0.899706	0.143754
O25	O	1.329744	0.524864	-0.606094
O26	O	1.829744	1.024864	-0.106094
O27	O	1.181815	0.516487	-0.460308
O28	O	1.681815	1.016487	0.039692
O29	O	1.441065	0.414428	-0.612492
O30	O	1.941065	0.914428	-0.112492
O31	O	1.472519	0.655930	-0.341472
O32	O	1.972519	1.155930	0.158528
O33	O	1.347638	0.662261	-0.451902
O34	O	1.847638	1.162261	0.048098
C35	C	1.146436	0.458095	-0.408273
C36	C	1.646436	0.958095	0.091727
C37	C	1.039222	0.458111	-0.408280
C38	C	1.539222	0.958111	0.091720
C39	C	1.412219	0.691721	-0.394821
C40	C	1.912219	1.191721	0.105179
C41	C	1.418795	0.791663	-0.389083
C42	C	1.918795	1.291663	0.110917
C43	C	0.952152	0.458115	-0.408295
C44	C	1.452152	0.958115	0.091705
C45	C	0.842918	0.458123	-0.408322
C46	C	1.342918	0.958123	0.091678
C47	C	1.493119	0.929202	-0.323554
C48	C	1.993119	1.429202	0.176446
C49	C	1.486945	0.835298	-0.328942
C50	C	1.986945	1.335298	0.171058
C51	C	1.356812	0.841938	-0.443838
C52	C	1.856812	1.341938	0.056162
C53	C	1.362985	0.935842	-0.438450
C54	C	1.862985	1.435842	0.061550
C55	C	1.431142	0.979471	-0.378307
C56	C	1.931142	1.479471	0.121693
C57	C	1.437320	1.073377	-0.372924
C58	C	1.937320	1.573377	0.127076
C59	C	1.307183	1.080015	-0.487816
C60	C	1.807183	1.580015	0.012184
C61	C	1.301009	0.986111	-0.493204
C62	C	1.801009	1.486111	0.006796
C63	C	1.648641	0.458127	-0.408335
C64	C	2.148641	0.958127	0.091665
C65	C	1.755855	0.458134	-0.408348
C66	C	2.255855	0.958134	0.091652
C67	C	1.383461	0.471571	-0.642830
C68	C	1.883461	0.971571	-0.142830
C69	C	1.377671	0.477307	-0.742771
C70	C	1.877671	0.977307	-0.242771
C71	C	1.381838	1.223590	-0.421870
C72	C	1.881838	1.723590	0.078130
C73	C	1.375337	1.123652	-0.427680
C74	C	1.875337	1.623652	0.072320
C75	C	1.482706	0.373068	-0.937237
C76	C	1.982706	0.873068	-0.437237
C77	C	1.477268	0.378454	-1.031140
C78	C	1.977268	0.878454	-0.531140
C79	C	1.361354	0.493460	-1.024485
C80	C	1.861354	0.993460	-0.524485
C81	C	1.366791	0.488074	-0.930581
C82	C	1.866791	0.988074	-0.430581
C83	C	1.427471	0.427877	-0.886960
C84	C	1.927471	0.927877	-0.386960
C85	C	1.432913	0.422496	-0.793054
C86	C	1.932913	0.922496	-0.293054
C87	C	1.316994	0.537497	-0.786401
C88	C	1.816994	1.037497	-0.286401
C89	C	1.311556	0.542883	-0.880304
C90	C	1.811556	1.042883	-0.380304
C91	C	1.410635	0.444638	-0.174694
C92	C	1.910635	0.944638	0.325306
C93	C	1.416596	0.438649	-0.074768
C94	C	1.916596	0.938649	0.425232
H95	H	1.492820	1.108898	-0.323956
H96	H	1.992820	1.608898	0.176044
F97	F	1.547294	0.309011	-0.890810
F98	F	2.047294	0.809011	-0.390810
F99	F	1.296774	0.557515	-1.070924
F100	F	1.796774	1.057515	-0.570924
F101	F	1.497495	0.358432	-0.746631
F102	F	1.997495	0.858432	-0.246631
H103	H	1.301314	0.806403	-0.492799
H104	H	1.801314	1.306403	0.007201
F105	F	1.228477	0.939668	-0.557210
F106	F	1.728477	1.439668	-0.057210
H107	H	1.272019	0.582128	-0.745455
H108	H	1.772019	1.082128	-0.245455
H109	H	1.256720	1.120954	-0.532403
H110	H	1.756720	1.620954	-0.032403
H111	H	1.548622	0.964726	-0.274591
H112	H	2.048622	1.464726	0.225409
H113	H	1.522244	0.333820	-1.072072
H114	H	2.022244	0.833820	-0.572072
H115	H	1.262151	0.591892	-0.915833
H116	H	1.762151	1.091892	-0.415833
H117	H	1.537411	0.794372	-0.284355
H118	H	2.037411	1.294372	0.215645
