data_functionalizedCrystal
_audit_creation_method	'MofGen! by Chris Wilmer'
_symmetry_space_group_name_H-M	'P1'
_symmetry_Int_Tables_number	1
_symmetry_cell_setting	triclinic
loop_
_symmetry_equiv_pos_as_xyz
  x,y,z
_cell_length_a	14.519731
_cell_length_b	14.519709
_cell_length_c	10.268362
_cell_angle_alpha	90.002293
_cell_angle_beta	90.004709
_cell_angle_gamma	83.684499
loop_
_atom_site_label
_atom_site_type_symbol
_atom_site_fract_x
_atom_site_fract_y
_atom_site_fract_z
O1	O	1.223856	0.120980	0.108306
O2	O	1.557189	0.454313	0.441639
O3	O	1.890523	0.787647	0.774973
O4	O	0.955382	0.135196	0.108308
O5	O	1.288715	0.468530	0.441642
O6	O	1.622048	0.801863	0.774975
O7	O	1.096737	-0.006150	0.108295
O8	O	1.430070	0.327184	0.441629
O9	O	1.763404	0.660517	0.774962
O10	O	1.082501	0.262326	0.108319
O11	O	1.415834	0.595659	0.441652
O12	O	1.749167	0.928993	0.774986
O13	O	1.096724	-0.006145	-0.108305
O14	O	1.430057	0.327188	0.225028
O15	O	1.763390	0.660522	0.558361
O16	O	0.955368	0.135201	-0.108292
O17	O	1.288702	0.468534	0.225041
O18	O	1.622035	0.801868	0.558374
O19	O	1.223842	0.120985	-0.108295
O20	O	1.557176	0.454318	0.225039
O21	O	1.890509	0.787652	0.558372
Cu22	Cu	1.089604	0.128093	-0.128071
Cu23	Cu	1.422937	0.461427	0.205262
Cu24	Cu	1.756271	0.794760	0.538596
Cu25	Cu	1.089620	0.128088	0.128084
Cu26	Cu	1.422954	0.461421	0.461418
Cu27	Cu	1.756287	0.794754	0.794751
O28	O	1.082487	0.262331	-0.108282
O29	O	1.415820	0.595664	0.225052
O30	O	1.749154	0.928998	0.558385
C31	C	0.921016	0.134532	0.000008
C32	C	1.254349	0.467866	0.333341
C33	C	1.587682	0.801199	0.666675
C34	C	0.818635	0.132536	0.000009
C35	C	1.151969	0.465870	0.333342
C36	C	1.485302	0.799203	0.666675
C37	C	0.735491	0.130915	0.000014
C38	C	1.068825	0.464248	0.333347
C39	C	1.402158	0.797581	0.666680
C40	C	0.631182	0.128888	0.000014
C41	C	0.964516	0.462221	0.333347
C42	C	1.297849	0.795555	0.666681
C43	C	0.548043	0.127280	0.000014
C44	C	0.881377	0.460613	0.333347
C45	C	1.214710	0.793946	0.666680
C46	C	0.443728	0.125253	0.000017
C47	C	0.777061	0.458586	0.333350
C48	C	1.110395	0.791920	0.666683
C49	C	1.096067	-0.040507	-0.000005
C50	C	1.429400	0.292826	0.333328
C51	C	1.762734	0.626160	0.666661
C52	C	1.094079	-0.142889	-0.000006
C53	C	1.427412	0.190445	0.333327
C54	C	1.760745	0.523778	0.666661
C55	C	1.086759	-0.517785	0.000028
C56	C	1.420093	-0.184452	0.333361
C57	C	1.753426	0.148882	0.666695
C58	C	1.088792	-0.413477	0.000018
C59	C	1.422125	-0.080143	0.333351
C60	C	1.755459	0.253190	0.666685
C61	C	1.090419	-0.330340	0.000010
C62	C	1.423752	0.002993	0.333343
C63	C	1.757085	0.336327	0.666676
C64	C	1.092452	-0.226025	0.000002
C65	C	1.425785	0.107308	0.333336
C66	C	1.759118	0.440641	0.666669
C67	C	1.258209	0.121649	0.000008
C68	C	1.591542	0.454982	0.333342
C69	C	1.924875	0.788315	0.666675
C70	C	1.360589	0.123645	0.000016
C71	C	1.693922	0.456978	0.333350
C72	C	2.027256	0.790311	0.666683
C73	C	1.083157	0.296688	0.000022
C74	C	1.416491	0.630022	0.333355
C75	C	1.749824	0.963355	0.666688
C76	C	1.085146	0.399070	0.000031
C77	C	1.418479	0.732403	0.333364
C78	C	1.751812	1.065736	0.666698
N79	N	1.089600	0.128097	-0.308237
N80	N	1.422933	0.461430	0.025097
N81	N	1.756266	0.794764	0.358430
C82	C	1.089606	0.128097	-0.426079
C83	C	1.422940	0.461431	-0.092746
C84	C	1.756273	0.794764	0.240588
C85	C	1.089618	0.128089	-0.573917
C86	C	1.422951	0.461422	-0.240584
C87	C	1.756285	0.794756	0.092750
N88	N	1.089632	0.128077	0.308250
N89	N	1.422965	0.461410	0.641584
N90	N	1.756299	0.794744	0.974917
