data_functionalizedCrystal
_audit_creation_method	'MofGen! by Chris Wilmer'
_symmetry_space_group_name_H-M	'P1'
_symmetry_Int_Tables_number	1
_symmetry_cell_setting	triclinic
loop_
_symmetry_equiv_pos_as_xyz
  x,y,z
_cell_length_a	17.077404
_cell_length_b	19.805405
_cell_length_c	17.077396
_cell_angle_alpha	89.967516
_cell_angle_beta	89.982756
_cell_angle_gamma	90.026635
loop_
_atom_site_label
_atom_site_type_symbol
_atom_site_fract_x
_atom_site_fract_y
_atom_site_fract_z
Zn1	Zn	1.200018	-0.269454	-0.443825
Zn2	Zn	1.199922	-0.382648	-0.312552
Zn3	Zn	1.068755	-0.269479	-0.312573
Zn4	Zn	1.068710	-0.382606	-0.443776
O5	O	1.134351	-0.326047	-0.378182
O6	O	1.309852	-0.284476	-0.426424
O7	O	1.182501	-0.367664	-0.202708
O8	O	1.086226	-0.174759	-0.330014
O9	O	1.309782	-0.367640	-0.329978
O10	O	1.182665	-0.174740	-0.426444
O11	O	1.086133	-0.284519	-0.202724
O12	O	0.958902	-0.284479	-0.329966
O13	O	1.086149	-0.367568	-0.553629
O14	O	0.958869	-0.367593	-0.426360
O15	O	1.182621	-0.284435	-0.553666
O16	O	1.182457	-0.477359	-0.329930
O17	O	1.086056	-0.477329	-0.426339
C18	C	0.930403	-0.326035	-0.378160
C19	C	0.843153	-0.326046	-0.378169
C20	C	1.134263	-0.501903	-0.378144
C21	C	1.134297	-0.577135	-0.378154
C22	C	0.802167	-0.369388	-0.428281
C23	C	0.720186	-0.369390	-0.428294
C24	C	0.679194	-0.326051	-0.378190
C25	C	0.720187	-0.282704	-0.328076
C26	C	0.802166	-0.282699	-0.328068
C27	C	0.549317	-0.282717	-0.328095
C28	C	0.467332	-0.282722	-0.328102
C29	C	0.467337	-0.369408	-0.428321
C30	C	0.549316	-0.369403	-0.428313
C31	C	0.590303	-0.326056	-0.378197
C32	C	1.184542	-0.612472	-0.328006
C33	C	1.184575	-0.683161	-0.328023
C34	C	1.134359	-0.718510	-0.378185
C35	C	1.084112	-0.683168	-0.428338
C36	C	1.084083	-0.612481	-0.428324
C37	C	1.084228	-0.968241	-0.428397
C38	C	1.084259	-1.038933	-0.428405
C39	C	1.184720	-1.038921	-0.328095
C40	C	1.184691	-0.968234	-0.328081
C41	C	1.134447	-0.932898	-0.378237
C42	C	1.134413	-0.856249	-0.378219
C43	C	1.134389	-0.795157	-0.378200
C44	C	1.339095	-0.326060	-0.378204
C45	C	1.426345	-0.326065	-0.378213
C46	C	1.134391	-0.325994	-0.582926
C47	C	1.134407	-0.325972	-0.670176
C48	C	1.134461	-0.149504	-0.378237
C49	C	1.134508	-0.074272	-0.378261
C50	C	1.084244	-0.282673	-0.711174
C51	C	1.084257	-0.282658	-0.793154
C52	C	1.134438	-0.325938	-0.834135
C53	C	1.184603	-0.369242	-0.793132
C54	C	1.184586	-0.369260	-0.711153
C55	C	1.184637	-0.369200	-0.964002
C56	C	1.184656	-0.369181	-1.045987
C57	C	1.084308	-0.282597	-1.046003
C58	C	1.084291	-0.282616	-0.964024
C59	C	1.134458	-0.325918	-0.923026
C60	C	1.134357	-0.326050	-0.174234
C61	C	1.134492	-0.325882	-0.086984
H62	H	0.686818	-0.404685	-0.469099
H63	H	1.225518	-0.404423	-1.079352
H64	H	0.433962	-0.404700	-0.469128
H65	H	1.225495	-0.404455	-0.930624
C66	C	1.239067	-0.721674	-0.273655
C67	C	1.194764	-0.762406	-0.223321
C68	C	1.244970	-0.797927	-0.173289
H69	H	1.269050	-0.690624	-0.243697
H70	H	1.273189	-0.749201	-0.303822
H71	H	1.160656	-0.734881	-0.193157
H72	H	1.164783	-0.793468	-0.253257
H73	H	1.279091	-0.825454	-0.203456
H74	H	1.274950	-0.766873	-0.143336
H75	H	1.214918	-0.825573	-0.139136
C76	C	1.239309	-1.077166	-0.273559
C77	C	1.283261	-1.031077	-0.229611
C78	C	1.333546	-1.066281	-0.179357
H79	H	1.273577	-1.104699	-0.303534
H80	H	1.209331	-1.104770	-0.239293
H81	H	1.313237	-1.003485	-0.263873
H82	H	1.249014	-1.003543	-0.199620
H83	H	1.303568	-1.093886	-0.145091
H84	H	1.367808	-1.093813	-0.209338
H85	H	1.363368	-1.035016	-0.149527
H86	H	1.043228	-0.711955	-0.469184
H87	H	0.433959	-0.247424	-0.287312
C88	C	0.846769	-0.416333	-0.482727
C89	C	0.893886	-0.378061	-0.533102
C90	C	0.934990	-0.421282	-0.583265
H91	H	0.810705	-0.442161	-0.512650
H92	H	0.878769	-0.445781	-0.452657
H93	H	0.861889	-0.348625	-0.563170
H94	H	0.929965	-0.352234	-0.503202
H95	H	0.966990	-0.450730	-0.553195
H96	H	0.898920	-0.447108	-0.613182
H97	H	0.966969	-0.395321	-0.617446
H98	H	1.225440	-0.404513	-0.677774
C99	C	1.239182	-0.416121	-0.837666
C100	C	1.289544	-0.377789	-0.884732
C101	C	1.339842	-0.420950	-0.925758
H102	H	1.209234	-0.445615	-0.869698
H103	H	1.269101	-0.441901	-0.801531
H104	H	1.259628	-0.352021	-0.920862
H105	H	1.319510	-0.348296	-0.852719
H106	H	1.369760	-0.446729	-0.889623
H107	H	1.309887	-0.450442	-0.957785
H108	H	1.374022	-0.394948	-0.957691
C109	C	1.029448	-0.574233	-0.482804
C110	C	0.985463	-0.620318	-0.526724
C111	C	0.935121	-0.585111	-0.576918
H112	H	1.059361	-0.546616	-0.517096
H113	H	0.995209	-0.546713	-0.452762
H114	H	1.019698	-0.647827	-0.556764
H115	H	0.955534	-0.647937	-0.492453
H116	H	0.900883	-0.557591	-0.546875
H117	H	0.965041	-0.557494	-0.611204
H118	H	0.905267	-0.616374	-0.606718
C119	C	1.029710	-1.077192	-0.482961
C120	C	0.985718	-1.031117	-0.526899
C121	C	0.935471	-1.066337	-0.577168
H122	H	0.995466	-1.104812	-0.452997
H123	H	1.059717	-1.104711	-0.517232
H124	H	0.955714	-1.003610	-0.492633
H125	H	1.019942	-1.003496	-0.556880
H126	H	0.965478	-1.093856	-0.611439
H127	H	0.901232	-1.093956	-0.547197
H128	H	0.905622	-1.035081	-0.606991
C129	C	0.593682	-0.416483	-0.482795
C130	C	0.540244	-0.454433	-0.526700
C131	C	0.581085	-0.497802	-0.576906
H132	H	0.625640	-0.445998	-0.452786
H133	H	0.625671	-0.390640	-0.517089
H134	H	0.508268	-0.480274	-0.492410
H135	H	0.508284	-0.424936	-0.556725
H136	H	0.613074	-0.471959	-0.611201
H137	H	0.613041	-0.527312	-0.546892
H138	H	0.544833	-0.523551	-0.606707
C139	C	0.593677	-0.235635	-0.273592
C140	C	0.540234	-0.197698	-0.229694
C141	C	0.581070	-0.154332	-0.179467
H142	H	0.625690	-0.206112	-0.303583
H143	H	0.625610	-0.261480	-0.239292
H144	H	0.508314	-0.171855	-0.263989
H145	H	0.508219	-0.227203	-0.199687
H146	H	0.613003	-0.180177	-0.145168
H147	H	0.613081	-0.124814	-0.209465
H148	H	0.544815	-0.128591	-0.149672
H149	H	1.043316	-0.939476	-0.469234
C150	C	1.239109	-0.574010	-0.273669
C151	C	1.289364	-0.533351	-0.318151
C152	C	1.339638	-0.497907	-0.268122
H153	H	1.269112	-0.605106	-0.243789
H154	H	1.209113	-0.546440	-0.239444
H155	H	1.319357	-0.560920	-0.352361
H156	H	1.259382	-0.502244	-0.348029
H157	H	1.309642	-0.470336	-0.233898
H158	H	1.369636	-0.529007	-0.238245
H159	H	1.373738	-0.470311	-0.298295
H160	H	0.686805	-0.247414	-0.287284
H161	H	0.835536	-0.247402	-0.287266
H162	H	1.225579	-0.939455	-0.287232
C163	C	1.029628	-0.235767	-0.666724
C164	C	0.951957	-0.250511	-0.686639
C165	C	0.901619	-0.207322	-0.645701
H166	H	1.041040	-0.190263	-0.680142
H167	H	1.036748	-0.241984	-0.612020
H168	H	0.944840	-0.244289	-0.741330
H169	H	0.940520	-0.296007	-0.673218
H170	H	0.908739	-0.213539	-0.590998
H171	H	0.913038	-0.161820	-0.659123
H172	H	0.848914	-0.217324	-0.659202
H173	H	1.043406	-0.247402	-0.826531
C174	C	1.029725	-0.235598	-0.919670
C175	C	0.985780	-0.197684	-0.973118
C176	C	0.935498	-0.154372	-0.932287
H177	H	1.059680	-0.206059	-0.887700
H178	H	0.995459	-0.261481	-0.887694
H179	H	1.020042	-0.171803	-1.005080
H180	H	0.955809	-0.227206	-1.005089
H181	H	0.901232	-0.180255	-0.900311
H182	H	0.965459	-0.124837	-0.900319
H183	H	0.905670	-0.128647	-0.968545
C184	C	1.029855	-0.235668	-1.090652
C185	C	1.040585	-0.244932	-1.171217
C186	C	0.990430	-0.201723	-1.212376
H187	H	1.041312	-0.190164	-1.077337
H188	H	0.977091	-0.245586	-1.077245
H189	H	1.093337	-0.235009	-1.184619
H190	H	1.029123	-0.290427	-1.184556
H191	H	0.937666	-0.211642	-1.198968
H192	H	1.001891	-0.156221	-1.199054
H193	H	0.997699	-0.208007	-1.267043
