data_functionalizedCrystal
_audit_creation_method	'MofGen! by Chris Wilmer'
_symmetry_space_group_name_H-M	'P1'
_symmetry_Int_Tables_number	1
_symmetry_cell_setting	triclinic
loop_
_symmetry_equiv_pos_as_xyz
  x,y,z
_cell_length_a	19.805407
_cell_length_b	16.959454
_cell_length_c	19.805399
_cell_angle_alpha	89.977613
_cell_angle_beta	89.980427
_cell_angle_gamma	90.020075
loop_
_atom_site_label
_atom_site_type_symbol
_atom_site_fract_x
_atom_site_fract_y
_atom_site_fract_z
Zn1	Zn	1.034765	-0.314700	-0.382744
Zn2	Zn	1.368099	0.018633	-0.049411
Zn3	Zn	1.701432	0.351967	0.283923
Zn4	Zn	1.034693	-0.446882	-0.269566
Zn5	Zn	1.368026	-0.113549	0.063767
Zn6	Zn	1.701359	0.219784	0.397101
Zn7	Zn	0.921580	-0.314722	-0.269569
Zn8	Zn	1.254913	0.018612	0.063765
Zn9	Zn	1.588247	0.351945	0.397098
Zn10	Zn	0.921556	-0.446840	-0.382713
Zn11	Zn	1.254889	-0.113507	-0.049380
Zn12	Zn	1.588223	0.219826	0.283954
O13	O	0.978149	-0.380786	-0.326148
O14	O	1.311482	-0.047453	0.007185
O15	O	1.644815	0.285881	0.340519
O16	O	1.129472	-0.332243	-0.367743
O17	O	1.462806	0.001091	-0.034409
O18	O	1.796139	0.334424	0.298924
O19	O	1.019668	-0.429378	-0.174850
O20	O	1.353001	-0.096044	0.158484
O21	O	1.686334	0.237289	0.491817
O22	O	0.936635	-0.204108	-0.284596
O23	O	1.269968	0.129225	0.048738
O24	O	1.603302	0.462559	0.382071
O25	O	1.129419	-0.429356	-0.284591
O26	O	1.462752	-0.096023	0.048742
O27	O	1.796086	0.237310	0.382075
O28	O	1.019792	-0.204092	-0.367745
O29	O	1.353125	0.129241	-0.034412
O30	O	1.686458	0.462575	0.298921
O31	O	0.936564	-0.332280	-0.174852
O32	O	1.269898	0.001054	0.158482
O33	O	1.603231	0.334387	0.491815
O34	O	0.826860	-0.332239	-0.284565
O35	O	1.160194	0.001094	0.048768
O36	O	1.493527	0.334428	0.382101
O37	O	0.936594	-0.429285	-0.477434
O38	O	1.269927	-0.095951	-0.144100
O39	O	1.603261	0.237382	0.189233
O40	O	0.826843	-0.429306	-0.367692
O41	O	1.160176	-0.095973	-0.034359
O42	O	1.493509	0.237361	0.298975
O43	O	1.019768	-0.332202	-0.477457
O44	O	1.353102	0.001131	-0.144123
O45	O	1.686435	0.334465	0.189210
O46	O	1.019645	-0.557488	-0.284561
O47	O	1.352978	-0.224154	0.048772
O48	O	1.686311	0.109179	0.382106
O49	O	0.936524	-0.557457	-0.367690
O50	O	1.269857	-0.224123	-0.034356
O51	O	1.603190	0.109210	0.298977
C52	C	0.802293	-0.380771	-0.326126
C53	C	1.135626	-0.047438	0.007207
C54	C	1.468959	0.285896	0.340541
C55	C	0.727061	-0.380783	-0.326133
C56	C	1.060394	-0.047450	0.007201
C57	C	1.393727	0.285883	0.340534
C58	C	0.691725	-0.431402	-0.369347
C59	C	1.025058	-0.098069	-0.036013
C60	C	1.358392	0.235264	0.297320
C61	C	0.621037	-0.431404	-0.369356
C62	C	0.954370	-0.098070	-0.036023
C63	C	1.287703	0.235263	0.297310
C64	C	0.585685	-0.380790	-0.326148
C65	C	0.919018	-0.047456	0.007185
C66	C	1.252352	0.285877	0.340519
C67	C	0.621026	-0.330165	-0.282932
C68	C	0.954359	0.003168	0.050401
C69	C	1.287692	0.336501	0.383735
C70	C	0.691713	-0.330160	-0.282926
C71	C	1.025046	0.003173	0.050407
C72	C	1.358379	0.336506	0.383740
C73	C	0.335952	-0.330183	-0.282954
C74	C	0.669286	0.003151	0.050379
C75	C	1.002619	0.336484	0.383712
C76	C	0.265260	-0.330193	-0.282962
C77	C	0.598594	0.003140	0.050371
C78	C	0.931927	0.336474	0.383705
C79	C	0.265276	-0.431426	-0.369384
C80	C	0.598609	-0.098093	-0.036051
C81	C	0.931943	0.235241	0.297282
C82	C	0.335963	-0.431421	-0.369379
C83	C	0.669297	-0.098088	-0.036045
C84	C	1.002630	0.235246	0.297288
C85	C	0.371298	-0.380794	-0.326166
C86	C	0.704631	-0.047461	0.007168
C87	C	1.037964	0.285873	0.340501
C88	C	0.447946	-0.380792	-0.326157
C89	C	0.781279	-0.047459	0.007177
C90	C	1.114613	0.285874	0.340510
C91	C	0.509038	-0.380795	-0.326153
C92	C	0.842371	-0.047462	0.007180
C93	C	1.175705	0.285872	0.340514
C94	C	0.978092	-0.586152	-0.326136
C95	C	1.311425	-0.252819	0.007197
C96	C	1.644759	0.080514	0.340530
C97	C	0.978130	-0.674009	-0.326154
C98	C	1.311463	-0.340676	0.007179
C99	C	1.644796	-0.007342	0.340513
C100	C	0.934930	-1.045498	-0.369428
C101	C	1.268264	-0.712165	-0.036095
C102	C	1.601597	-0.378832	0.297238
C103	C	1.021555	-1.045470	-0.282937
C104	C	1.354889	-0.712137	0.050397
C105	C	1.688222	-0.378804	0.383730
C106	C	1.021532	-0.962925	-0.282930
C107	C	1.354865	-0.629591	0.050403
C108	C	1.688199	-0.296258	0.383736
C109	C	0.978206	-0.921662	-0.326173
C110	C	1.311539	-0.588328	0.007160
C111	C	1.644873	-0.254995	0.340494
C112	C	0.934904	-0.962945	-0.369422
C113	C	1.268237	-0.629611	-0.036089
C114	C	1.601571	-0.296278	0.297245
C115	C	1.064828	-0.921635	-0.239677
C116	C	1.398162	-0.588302	0.093656
C117	C	1.731495	-0.254969	0.426989
C118	C	1.064806	-0.839085	-0.239669
C119	C	1.398139	-0.505751	0.093665
C120	C	1.731473	-0.172418	0.426998
C121	C	1.021483	-0.797820	-0.282915
C122	C	1.354816	-0.464487	0.050418
C123	C	1.688150	-0.131153	0.383751
C124	C	0.978180	-0.839108	-0.326167
C125	C	1.311513	-0.505775	0.007167
C126	C	1.644846	-0.172442	0.340500
C127	C	0.934854	-0.797845	-0.369409
C128	C	1.268187	-0.464512	-0.036076
C129	C	1.601521	-0.131179	0.297257
C130	C	0.891553	-0.839132	-0.412665
C131	C	1.224887	-0.505799	-0.079331
C132	C	1.558220	-0.172465	0.254002
C133	C	0.891581	-0.921680	-0.412669
C134	C	1.224914	-0.588347	-0.079335
C135	C	1.558248	-0.255014	0.253998
C136	C	1.021455	-0.715272	-0.282911
C137	C	1.354789	-0.381938	0.050422
C138	C	1.688122	-0.048605	0.383755
C139	C	0.934827	-0.715292	-0.369403
C140	C	1.268161	-0.381959	-0.036070
C141	C	1.601494	-0.048625	0.297264
C142	C	1.154691	-0.380802	-0.326170
C143	C	1.488025	-0.047468	0.007163
C144	C	1.821358	0.285865	0.340496
C145	C	1.229923	-0.380808	-0.326180
C146	C	1.563257	-0.047475	0.007154
C147	C	1.896590	0.285858	0.340487
C148	C	0.978187	-0.380736	-0.502691
C149	C	1.311520	-0.047403	-0.169357
C150	C	1.644853	0.285930	0.163976
C151	C	0.978203	-0.380715	-0.577923
C152	C	1.311536	-0.047382	-0.244589
C153	C	1.644869	0.285952	0.088744
C154	C	0.978224	-0.174618	-0.326174
C155	C	1.311557	0.158716	0.007159
C156	C	1.644891	0.492049	0.340492
C157	C	0.978256	-0.086761	-0.326186
C158	C	1.311589	0.246572	0.007148
C159	C	1.644923	0.579906	0.340481
C160	C	1.021513	-0.330161	-0.613280
C161	C	1.354846	0.003172	-0.279947
C162	C	1.688179	0.336505	0.053387
C163	C	1.021520	-0.330138	-0.683968
C164	C	1.354853	0.003195	-0.350635
C165	C	1.688186	0.336528	-0.017302
C166	C	0.978220	-0.380674	-0.719298
C167	C	1.311553	-0.047340	-0.385965
C168	C	1.644886	0.285993	-0.052632
C169	C	0.934905	-0.431230	-0.683936
C170	C	1.268238	-0.097896	-0.350603
C171	C	1.601572	0.235437	-0.017270
C172	C	0.934895	-0.431248	-0.613249
C173	C	1.268228	-0.097915	-0.279916
C174	C	1.601562	0.235419	0.053418
C175	C	0.934943	-0.431156	-0.969010
C176	C	1.268276	-0.097823	-0.635676
C177	C	1.601610	0.235511	-0.302343
C178	C	0.934958	-0.431135	-1.039702
C179	C	1.268291	-0.097802	-0.706368
C180	C	1.601624	0.235531	-0.373035
C181	C	1.021568	-0.330046	-1.039729
C182	C	1.354901	0.003287	-0.706396
C183	C	1.688234	0.336620	-0.373062
C184	C	1.021558	-0.330065	-0.969042
C185	C	1.354891	0.003269	-0.635709
C186	C	1.688224	0.336602	-0.302375
C187	C	0.978241	-0.380617	-0.933686
C188	C	1.311574	-0.047284	-0.600353
C189	C	1.644908	0.286049	-0.267019
C190	C	0.978233	-0.380641	-0.857037
C191	C	1.311566	-0.047307	-0.523704
C192	C	1.644900	0.286026	-0.190371
C193	C	0.978230	-0.380655	-0.795946
C194	C	1.311564	-0.047322	-0.462612
C195	C	1.644897	0.286012	-0.129279
C196	C	0.978150	-0.380779	-0.150292
C197	C	1.311483	-0.047445	0.183041
C198	C	1.644816	0.285888	0.516375
C199	C	0.978265	-0.380577	-0.075060
C200	C	1.311598	-0.047244	0.258273
C201	C	1.644931	0.286090	0.591606
H202	H	0.720482	-0.288937	-0.247741
H203	H	1.053815	0.044396	0.085593
H204	H	1.387149	0.377730	0.418926
H205	H	1.056775	-0.289012	-0.584519
H206	H	1.390108	0.044321	-0.251186
H207	H	1.723441	0.377655	0.082147
H208	H	0.364713	-0.288965	-0.247763
H209	H	0.698046	0.044368	0.085571
H210	H	1.031380	0.377702	0.418904
O211	O	0.888220	-1.090020	-0.416073
O212	O	1.221553	-0.756686	-0.082740
O213	O	1.554887	-0.423353	0.250593
H214	H	0.895510	-1.154354	-0.408812
H215	H	1.228843	-0.821021	-0.075478
H216	H	1.562176	-0.487687	0.257855
O217	O	0.888089	-0.670787	-0.416036
O218	O	1.221422	-0.337453	-0.082703
O219	O	1.554756	-0.004120	0.250631
H220	H	0.857981	-0.713366	-0.446106
H221	H	1.191314	-0.380032	-0.112773
H222	H	1.524648	-0.046699	0.220561
O223	O	0.844819	-0.794629	-0.459303
O224	O	1.178152	-0.461296	-0.125970
O225	O	1.511485	-0.127962	0.207364
H226	H	0.875079	-0.756974	-0.493765
H227	H	1.208413	-0.423641	-0.160432
H228	H	1.541746	-0.090308	0.172901
H229	H	0.856327	-0.955303	-0.447884
H230	H	1.189661	-0.621970	-0.114550
H231	H	1.522994	-0.288637	0.218783
H232	H	0.899647	-0.472373	-0.712708
H233	H	1.232980	-0.139040	-0.379374
H234	H	1.566314	0.194293	-0.046041
H235	H	1.056707	-0.681660	-0.247691
H236	H	1.390040	-0.348327	0.085643
H237	H	1.723373	-0.014993	0.418976
O238	O	1.068303	-1.089969	-0.236316
O239	O	1.401636	-0.756636	0.097018
O240	O	1.734969	-0.423302	0.430351
H241	H	1.061055	-1.154306	-0.243595
H242	H	1.394389	-0.820973	0.089738
H243	H	1.727722	-0.487640	0.423072
H244	H	0.720503	-0.472621	-0.404530
H245	H	1.053837	-0.139288	-0.071196
H246	H	1.387170	0.194046	0.262137
H247	H	1.056788	-0.288974	-0.712753
H248	H	1.390122	0.044359	-0.379420
H249	H	1.723455	0.377692	-0.046086
O250	O	0.582887	-0.275584	-0.236328
O251	O	0.916220	0.057749	0.097005
O252	O	1.249554	0.391083	0.430339
H253	H	0.596460	-0.213560	-0.248024
H254	H	0.929794	0.119773	0.085309
H255	H	1.263127	0.453107	0.418642
O256	O	0.888248	-0.485640	-1.077809
O257	O	1.221582	-0.152307	-0.744476
O258	O	1.554915	0.181027	-0.411142
H259	H	0.853840	-0.450242	-1.110017
H260	H	1.187174	-0.116909	-0.776684
H261	H	1.520507	0.216425	-0.443350
O262	O	1.111581	-0.966136	-0.193063
O263	O	1.444914	-0.632802	0.140271
O264	O	1.778247	-0.299469	0.473604
H265	H	1.104339	-1.030473	-0.200350
H266	H	1.437672	-0.697139	0.132983
H267	H	1.771005	-0.363806	0.466317
O268	O	1.111513	-0.794555	-0.193027
O269	O	1.444846	-0.461221	0.140307
O270	O	1.778180	-0.127888	0.473640
H271	H	1.141648	-0.837117	-0.162963
H272	H	1.474981	-0.503783	0.170370
H273	H	1.808315	-0.170450	0.503703
O274	O	1.068260	-0.275561	-0.930934
O275	O	1.401593	0.057773	-0.597601
O276	O	1.734927	0.391106	-0.264267
H277	H	1.098374	-0.240398	-0.967396
H278	H	1.431708	0.092936	-0.634063
H279	H	1.765041	0.426269	-0.300730
O280	O	0.582857	-0.486004	-0.415908
O281	O	0.916191	-0.152671	-0.082575
O282	O	1.249524	0.180663	0.250759
H283	H	0.550638	-0.526112	-0.385488
H284	H	0.883972	-0.192779	-0.052154
H285	H	1.217305	0.140555	0.281179
O286	O	1.068272	-0.275496	-1.077861
O287	O	1.401605	0.057838	-0.744528
O288	O	1.734938	0.391171	-0.411195
H289	H	1.060997	-0.283957	-1.132950
H290	H	1.394330	0.049376	-0.799617
H291	H	1.727663	0.382710	-0.466284
H292	H	0.899682	-0.472330	-0.940231
H293	H	1.233015	-0.138997	-0.606898
H294	H	1.566348	0.194336	-0.273565
O295	O	0.888174	-0.485762	-0.575108
O296	O	1.221507	-0.152429	-0.241775
O297	O	1.554840	0.180904	0.091558
H298	H	0.858066	-0.520901	-0.611550
H299	H	1.191400	-0.187567	-0.278216
H300	H	1.524733	0.145766	0.055117
H301	H	0.364743	-0.472639	-0.404561
H302	H	0.698076	-0.139306	-0.071228
H303	H	1.031410	0.194028	0.262106
H304	H	0.236498	-0.472646	-0.404573
H305	H	0.569832	-0.139313	-0.071240
H306	H	0.903165	0.194021	0.262094
H307	H	0.236479	-0.288972	-0.247776
H308	H	0.569812	0.044361	0.085557
H309	H	0.903146	0.377695	0.418890
