data_functionalizedCrystal
_audit_creation_method	'MofGen! by Chris Wilmer'
_symmetry_space_group_name_H-M	'P1'
_symmetry_Int_Tables_number	1
_symmetry_cell_setting	triclinic
loop_
_symmetry_equiv_pos_as_xyz
  x,y,z
_cell_length_a	17.052862
_cell_length_b	17.052862
_cell_length_c	17.052832
_cell_angle_alpha	45.842616
_cell_angle_beta	77.972185
_cell_angle_gamma	61.493569
loop_
_atom_site_label
_atom_site_type_symbol
_atom_site_fract_x
_atom_site_fract_y
_atom_site_fract_z
Zr1	Zr	1.025676	0.561908	-0.033747
O2	O	0.952397	0.751986	-0.202566
O3	O	1.024843	0.394713	0.031224
O4	O	1.097437	0.539754	-0.147413
O5	O	0.849041	0.616442	0.101946
O6	O	1.238347	0.496249	-0.118945
O7	O	0.879803	0.606945	-0.023929
O8	O	1.108490	0.236796	0.200605
O9	O	0.978898	0.875894	-0.217604
O10	O	1.157794	0.422541	0.064208
O11	O	1.029676	0.462095	0.136901
O12	O	1.115146	0.632862	-0.073421
O13	O	0.987028	0.672417	-0.000728
Zr14	Zr	1.201348	0.507669	0.212412
Zr15	Zr	1.250411	0.492523	0.011656
Zr16	Zr	0.976613	0.577055	0.167008
Zr17	Zr	1.067941	0.759527	-0.057731
Zr18	Zr	1.159083	0.310051	0.236395
O19	O	1.202181	0.674865	0.147440
O20	O	1.271942	0.653329	-0.138008
O21	O	0.882636	0.773522	0.082882
O22	O	1.274627	0.317591	0.381231
O23	O	1.344388	0.296055	0.095783
O24	O	0.955082	0.416249	0.316673
O25	O	1.377984	0.453136	0.076719
O26	O	1.129587	0.529824	0.326078
O27	O	0.988677	0.573329	0.297609
O28	O	1.347221	0.462633	0.202594
O29	O	1.157532	0.820742	-0.181514
O30	O	1.069492	0.248836	0.360179
O31	O	1.248127	0.193684	0.396269
O32	O	1.287125	0.181644	0.236695
O33	O	0.939899	0.887933	-0.058030
O34	O	1.118534	0.832781	-0.021940
O35	O	1.111878	0.436715	0.252086
O36	O	1.239996	0.397161	0.179392
O37	O	1.197348	0.607483	0.041763
O38	O	1.069230	0.647037	0.114456
C39	C	1.060645	0.287598	0.119332
C40	C	1.042702	0.203704	0.129513
C41	C	0.832402	0.621579	0.032539
C42	C	0.736996	0.651035	0.013264
C43	C	1.259630	-0.115361	0.006418
C44	C	1.276487	-0.036533	-0.003155
C45	C	1.218043	0.023530	0.030011
C46	C	1.142737	0.004758	0.072753
C47	C	1.125874	-0.074070	0.082319
C48	C	1.084287	0.064820	0.105912
C49	C	1.008981	0.046048	0.148653
C50	C	0.992122	-0.032773	0.158218
C51	C	1.050566	-0.092836	0.125052
C52	C	1.101150	0.143648	0.096346
C53	C	0.967394	0.184938	0.172246
C54	C	0.950537	0.106111	0.181820
C55	C	0.557111	0.294912	0.246298
C56	C	0.646753	0.267233	0.264405
C57	C	0.669318	0.363181	0.201622
C58	C	0.602233	0.486814	0.120728
C59	C	0.512585	0.514496	0.102613
C60	C	0.624791	0.582764	0.057937
C61	C	0.557706	0.706397	-0.022957
C62	C	0.468067	0.734074	-0.041067
C63	C	0.445502	0.638126	0.021716
C64	C	0.714439	0.555082	0.076051
C65	C	0.669913	0.774665	-0.067633
C66	C	0.580272	0.802345	-0.085740
C67	C	1.394622	0.447998	0.146125
C68	C	1.490028	0.418542	0.165400
C69	C	1.174882	0.515843	-0.161782
C70	C	1.195711	0.509413	-0.247008
C71	C	1.166379	0.781980	0.059333
C72	C	1.184322	0.865874	0.049151
C73	C	0.943896	0.587151	-0.549972
C74	C	0.924326	0.593185	-0.469893
C75	C	0.992170	0.572243	-0.414168
C76	C	1.079588	0.545265	-0.438529
C77	C	1.099161	0.539221	-0.518610
C78	C	1.147436	0.524313	-0.382806
C79	C	1.234854	0.497335	-0.407167
C80	C	1.254423	0.491293	-0.487240
C81	C	1.186579	0.512234	-0.542965
C82	C	1.127863	0.530357	-0.302726
C83	C	1.283128	0.482427	-0.271364
C84	C	1.302698	0.476393	-0.351442
C85	C	1.052142	0.553734	0.340447
C86	C	1.031313	0.560164	0.425673
C87	C	1.341755	0.200807	0.176125
C88	C	1.419218	0.087457	0.205581
C89	C	0.999274	0.306544	0.370446
C90	C	0.960503	0.229079	0.465854
C91	C	1.280385	0.219753	0.427239
C92	C	1.337019	0.112833	0.541922
C93	C	0.946640	0.849825	-0.248575
C94	C	0.890005	0.956745	-0.363257
C95	C	0.885269	0.868770	0.002540
C96	C	0.807806	0.982120	-0.026917
C97	C	1.227750	0.763034	-0.191782
C98	C	1.266521	0.840498	-0.287189
C99	C	1.412689	0.047474	0.159281
C100	C	1.485473	-0.059018	0.186937
C101	C	1.564782	-0.125531	0.260899
C102	C	1.571310	-0.085539	0.307200
C103	C	1.498530	0.020956	0.279538
C104	C	0.985202	0.179454	0.570792
C105	C	0.948769	0.106681	0.660443
C106	C	0.887642	0.083527	0.645155
C107	C	0.862940	0.133162	0.540206
C108	C	0.899368	0.205941	0.450555
C109	C	1.430501	0.041972	0.557835
C110	C	1.483729	-0.058483	0.665584
C111	C	1.443471	-0.088081	0.757419
C112	C	1.349981	-0.017209	0.741501
C113	C	1.296757	0.083249	0.633753
C114	C	0.796525	1.027615	-0.379171
C115	C	0.743303	1.128095	-0.486923
C116	C	0.783561	1.157697	-0.578759
C117	C	0.877050	1.086820	-0.562841
C118	C	0.930272	0.986348	-0.455091
C119	C	0.814338	1.022111	0.019374
C120	C	0.741565	1.128624	-0.008306
C121	C	0.662257	1.195139	-0.082272
C122	C	0.655727	1.155144	-0.128568
C123	C	0.728503	1.048638	-0.100894
C124	C	1.327646	0.863626	-0.271867
C125	C	1.364092	0.936395	-0.361499
C126	C	1.339407	0.986044	-0.466455
C127	C	1.278278	0.962909	-0.481775
C128	C	1.241838	0.890133	-0.392142
H129	H	1.162465	0.158925	0.061545
O130	O	0.910878	-0.052970	0.204288
H131	H	0.934426	-0.152939	0.280235
O132	O	1.195923	0.159647	0.616608
H133	H	1.184977	0.201296	0.649306
H134	H	1.036849	-0.157032	0.132851
O135	O	1.327160	0.119204	0.079497
H136	H	1.315538	0.215491	0.005975
H137	H	1.192064	0.871314	-0.404634
O138	O	0.766002	0.333329	0.221148
H139	H	0.767359	0.377337	0.246762
O140	O	1.656856	-0.157290	0.386972
H141	H	1.649182	-0.111600	0.414522
H142	H	0.813166	0.114299	0.527774
H143	H	1.337800	-0.021250	-0.037956
H144	H	0.740214	1.239511	-0.666490
H145	H	0.763728	1.003524	-0.304406
H146	H	1.347755	0.823212	-0.186414
H147	H	0.525639	0.903008	-0.151605
O148	O	0.848375	0.005003	0.741867
H149	H	0.810177	0.049046	0.773549
H150	H	0.878906	0.967962	0.079608
O151	O	1.322653	-0.180120	-0.029369
H152	H	1.298273	-0.238082	-0.015537
O153	O	0.869308	0.085875	0.227904
H154	H	0.867402	0.020982	0.228973
H155	H	0.667181	1.185790	-0.499863
H156	H	1.559851	-0.116179	0.678526
O157	O	0.721448	1.005510	-0.150825
H158	H	0.728962	0.910493	-0.083049
O159	O	0.583758	1.310009	-0.112116
H160	H	0.522456	1.296677	-0.087325
H161	H	1.486821	-0.169884	0.845149
O162	O	0.920466	1.118745	-0.661895
H163	H	0.867742	1.200507	-0.739485
O164	O	1.306571	-0.049151	0.840563
H165	H	1.232623	0.016999	0.811408
H166	H	1.006388	0.928644	-0.442145
O167	O	0.748619	1.171729	0.041652
H168	H	0.684698	1.256970	0.009982
H169	H	1.413862	0.955223	-0.349005
H170	H	1.202510	0.507327	-0.608176
H171	H	0.591145	1.209316	-0.188794
H172	H	1.369085	1.045301	-0.539431
O173	O	1.251646	1.016476	-0.594983
H174	H	1.287249	1.070979	-0.654730
H175	H	1.231773	0.087714	0.022214
H176	H	0.919802	0.233846	0.199250
O177	O	0.975433	0.053130	0.773637
H178	H	1.024074	0.081438	0.769202
O179	O	0.872862	0.259264	0.337423
H180	H	0.824292	0.230851	0.341887
O181	O	0.971059	0.578760	-0.327804
H182	H	1.016054	0.487918	-0.246199
O183	O	0.786789	0.421743	0.163293
H184	H	0.816032	0.407783	0.226835
O185	O	1.051132	0.204419	0.587293
H186	H	1.017578	0.253077	0.615391
O187	O	0.719106	0.133896	0.351644
H188	H	0.699912	0.090467	0.434474
O189	O	0.532777	0.191433	0.314003
H190	H	0.459172	0.231456	0.287816
O191	O	0.348815	0.667987	0.002171
H192	H	0.344400	0.580495	0.059415
O193	O	0.395710	0.867416	-0.128326
H194	H	0.389560	0.918661	-0.107444
O195	O	0.694247	0.878163	-0.135407
H196	H	0.767854	0.838144	-0.109231
H197	H	0.853152	0.615148	-0.450060
O198	O	1.033585	0.559453	-0.276446
H199	H	0.983466	0.651879	-0.353048
H200	H	0.888666	0.604190	-0.595341
O201	O	1.473934	0.073896	0.458790
H202	H	1.547884	0.007746	0.487974
H203	H	1.338374	0.465371	-0.225990
H204	H	1.325607	0.469312	-0.507065
O205	O	1.396981	0.447291	-0.377724
H206	H	1.413798	0.519057	-0.408565
H207	H	1.624037	-0.212245	0.283415
O208	O	1.478420	-0.102148	0.137003
H209	H	1.411036	-0.038015	0.080944
H210	H	1.503856	0.053497	0.317251
