data_functionalizedCrystal
_audit_creation_method	'MofGen! by Chris Wilmer'
_symmetry_space_group_name_H-M	'P1'
_symmetry_Int_Tables_number	1
_symmetry_cell_setting	triclinic
loop_
_symmetry_equiv_pos_as_xyz
  x,y,z
_cell_length_a	15.538191
_cell_length_b	15.944551
_cell_length_c	14.750779
_cell_angle_alpha	77.355667
_cell_angle_beta	97.572172
_cell_angle_gamma	65.385416
loop_
_atom_site_label
_atom_site_type_symbol
_atom_site_fract_x
_atom_site_fract_y
_atom_site_fract_z
O1	O	1.229446	-0.248345	-0.079831
O2	O	0.955193	-0.151359	-0.079833
O3	O	1.099811	-0.324413	-0.079824
O4	O	1.084828	-0.075291	-0.079841
O5	O	1.140693	-0.373329	0.079829
O6	O	0.996075	-0.200275	0.079820
O7	O	1.270328	-0.297261	0.079821
Zn8	Zn	1.139692	-0.256535	0.105169
Zn9	Zn	1.085829	-0.192085	-0.105181
O10	O	1.125710	-0.124207	0.079812
C11	C	0.940539	-0.165670	-0.000007
C12	C	0.835967	-0.135444	-0.000007
C13	C	1.119630	-0.379976	0.000003
C14	C	1.117766	-0.472653	0.000004
C15	C	0.548159	-0.435726	-0.000001
C16	C	0.449895	-0.407303	-0.000004
C17	C	0.427459	-0.247430	-0.000015
C18	C	0.525725	-0.275842	-0.000007
C19	C	0.586068	-0.369990	-0.000002
C20	C	0.563633	-0.210106	-0.000008
C21	C	0.661889	-0.238514	-0.000005
C22	C	0.722237	-0.332657	-0.000003
C23	C	0.684324	-0.398398	0.000001
C24	C	0.503287	-0.115955	-0.000020
C25	C	0.541195	-0.050219	-0.000021
C26	C	0.639455	-0.078629	-0.000012
C27	C	0.699803	-0.172773	-0.000009
C28	C	0.677369	-0.012888	-0.000015
C29	C	0.775625	-0.041296	-0.000013
C30	C	0.798059	-0.201180	-0.000006
C31	C	1.023667	-0.658813	-0.000010
C32	C	1.087519	-0.757273	0.078709
C33	C	1.114392	-0.642349	-0.000004
C34	C	1.047235	-0.709035	-0.078697
C35	C	1.111125	-0.806262	-0.000015
C36	C	1.178285	-0.739608	0.078780
C37	C	1.137970	-0.691338	-0.078696
C38	C	1.201893	-0.789807	0.000042
C39	C	1.116272	-0.547921	0.000004
C40	C	1.109254	-0.900693	-0.000016
C41	C	1.284982	-0.282950	-0.000007
C42	C	1.389552	-0.313173	-0.000013
C43	C	1.105890	-0.068644	-0.000017
C44	C	1.107753	0.024036	-0.000024
N45	N	1.176460	-0.300522	0.248727
N46	N	1.049069	-0.148107	-0.248739
C47	C	0.946383	-0.025293	0.600530
C48	C	0.972154	-0.056113	0.701031
C49	C	1.100240	-0.209318	0.701002
C50	C	1.074477	-0.178513	0.600499
C51	C	0.997548	-0.086499	0.550271
C52	C	1.125641	-0.239719	0.550240
C53	C	1.099883	-0.208913	0.449746
C54	C	1.022960	-0.116902	0.399511
C55	C	0.971790	-0.055693	0.449777
C56	C	1.202574	-0.331730	0.600470
C57	C	1.253739	-0.392936	0.550211
C58	C	1.227976	-0.362133	0.449715
C59	C	1.151053	-0.270122	0.399480
C60	C	1.279146	-0.423342	0.399449
C61	C	1.253388	-0.392536	0.298955
C62	C	1.125295	-0.239316	0.298986
H63	H	0.847196	-0.277847	0.000004
Br64	Br	0.827076	0.047919	-0.000019
Br65	Br	0.841965	0.099579	0.532358
H66	H	1.341788	-0.498257	0.440358
Br67	Br	0.369937	-0.077400	-0.000027
H68	H	0.378314	-0.170773	-0.000023
H69	H	0.948383	-0.602566	0.000068
H70	H	0.991808	-0.697016	-0.145252
H71	H	0.930484	-0.006263	0.741947
Br72	Br	0.459292	0.077553	-0.000038
H73	H	1.159267	-0.662508	-0.145250
Br74	Br	1.020877	-0.114445	0.230814
H75	H	1.001991	-0.091820	0.317682
H76	H	0.802240	-0.355781	-0.000014
Br77	Br	0.867372	0.069179	0.381605
H78	H	1.316377	-0.467853	0.591118
Br79	Br	1.322834	-0.475601	0.230744
Br80	Br	0.766231	-0.526178	0.000025
Br81	Br	1.204644	-0.334189	0.769174
Br82	Br	0.630066	-0.563506	0.000023
Br83	Br	1.051972	-0.805273	0.189632
H84	H	0.419035	-0.460840	-0.000005
Br85	Br	1.327530	-0.883403	0.000110
H86	H	1.233685	-0.751722	0.145404
H87	H	1.223546	-0.356806	0.682299
H88	H	0.628221	0.063771	-0.000029
