data_functionalizedCrystal
_audit_creation_method	'MofGen! by Chris Wilmer'
_symmetry_space_group_name_H-M	'P1'
_symmetry_Int_Tables_number	1
_symmetry_cell_setting	triclinic
loop_
_symmetry_equiv_pos_as_xyz
  x,y,z
_cell_length_a	16.625548
_cell_length_b	12.827892
_cell_length_c	12.827885
_cell_angle_alpha	89.970214
_cell_angle_beta	89.978764
_cell_angle_gamma	90.016460
loop_
_atom_site_label
_atom_site_type_symbol
_atom_site_fract_x
_atom_site_fract_y
_atom_site_fract_z
Zn1	Zn	1.232725	-0.415953	-0.590903
Zn2	Zn	1.732725	0.084047	-0.090903
Zn3	Zn	1.232644	-0.590730	-0.416164
Zn4	Zn	1.732644	-0.090730	0.083836
Zn5	Zn	1.097886	-0.416007	-0.416171
Zn6	Zn	1.597886	0.083993	0.083829
Zn7	Zn	1.097874	-0.590656	-0.590858
Zn8	Zn	1.597874	-0.090656	-0.090858
O9	O	1.165282	-0.503336	-0.503524
O10	O	1.665282	-0.003336	-0.003524
O11	O	1.345547	-0.439146	-0.567740
O12	O	1.845547	0.060854	-0.067740
O13	O	1.214738	-0.567606	-0.269929
O14	O	1.714738	-0.067606	0.230071
O15	O	1.115811	-0.269764	-0.439372
O16	O	1.615811	0.230236	0.060628
O17	O	1.345487	-0.567554	-0.439359
O18	O	1.845487	-0.067554	0.060641
O19	O	1.214878	-0.269724	-0.567747
O20	O	1.714878	0.230276	-0.067747
O21	O	1.115732	-0.439238	-0.269934
O22	O	1.615732	0.060762	0.230066
O23	O	0.985052	-0.439166	-0.439328
O24	O	1.485052	0.060834	0.060672
O25	O	1.115792	-0.567427	-0.737100
O26	O	1.615792	-0.067427	-0.237100
O27	O	0.985043	-0.567480	-0.567669
O28	O	1.485043	-0.067480	-0.067669
O29	O	1.214867	-0.439074	-0.737134
O30	O	1.714867	0.060926	-0.237134
O31	O	1.214727	-0.736956	-0.439315
O32	O	1.714727	-0.236956	0.060685
O33	O	1.115713	-0.736901	-0.567662
O34	O	1.615713	-0.236901	-0.067662
C35	C	1.165232	-0.774846	-0.503506
C36	C	1.665232	-0.274846	-0.003506
C37	C	1.165284	-0.890999	-0.503533
C38	C	1.665284	-0.390999	-0.003533
C39	C	0.955791	-0.503321	-0.503495
C40	C	1.455791	-0.003321	-0.003495
C41	C	0.866170	-0.503340	-0.503507
C42	C	1.366170	-0.003340	-0.003507
C43	C	1.214338	-0.942776	-0.440093
C44	C	1.714338	-0.442776	0.059907
C45	C	1.214393	-1.062827	-0.440120
C46	C	1.714393	-0.562827	0.059880
C47	C	0.537995	-0.503347	-0.503552
C48	C	1.037995	-0.003347	-0.003552
C49	C	0.629303	-0.503342	-0.503536
C50	C	1.129303	-0.003342	-0.003536
C51	C	0.702080	-0.503344	-0.503529
C52	C	1.202080	-0.003344	-0.003529
C53	C	0.793394	-0.503338	-0.503514
C54	C	1.293394	-0.003338	-0.003514
C55	C	1.375591	-0.503352	-0.503554
C56	C	1.875591	-0.003352	-0.003554
C57	C	1.465212	-0.503359	-0.503567
C58	C	1.965212	-0.003359	-0.003567
C59	C	1.165337	-0.503236	-0.776094
C60	C	1.665337	-0.003236	-0.276094
C61	C	1.165361	-0.503193	-0.892248
C62	C	1.665361	-0.003193	-0.392248
C63	C	1.165355	-0.230766	-0.503565
C64	C	1.665355	0.269234	-0.003565
C65	C	1.165386	-0.114613	-0.503583
C66	C	1.665386	0.385387	-0.003583
C67	C	1.214391	-0.439667	-0.944049
C68	C	1.714391	0.060333	-0.444049
C69	C	1.214416	-0.439622	-1.064099
C70	C	1.714416	0.060378	-0.564099
C71	C	1.165274	-0.503361	-0.232014
C72	C	1.665274	-0.003361	0.267986
C73	C	1.165407	-0.503109	-0.115861
C74	C	1.665407	-0.003109	0.384139
H75	H	1.256297	-0.898231	-0.385764
H76	H	1.756297	-0.398231	0.114236
Cl77	Cl	1.279232	-1.131567	-0.356254
Cl78	Cl	1.779232	-0.631567	0.143746
H79	H	1.256346	-0.385311	-0.899521
H80	H	1.756346	0.114689	-0.399521
H81	H	1.123331	-0.935548	-0.557869
H82	H	1.623331	-0.435548	-0.057869
Cl83	Cl	1.279233	-0.355654	-1.132872
Cl84	Cl	1.779233	0.144346	-0.632872
Cl85	Cl	1.100573	-0.587109	-0.960986
Cl86	Cl	1.600573	-0.087109	-0.460986
H87	H	1.123384	-1.070094	-0.557895
H88	H	1.623384	-0.570094	-0.057895
H89	H	1.123431	-0.557503	-1.071320
H90	H	1.623431	-0.057503	-0.571320
