data_functionalizedCrystal
_audit_creation_method	'MofGen! by Chris Wilmer'
_symmetry_space_group_name_H-M	'P1'
_symmetry_Int_Tables_number	1
_symmetry_cell_setting	triclinic
loop_
_symmetry_equiv_pos_as_xyz
  x,y,z
_cell_length_a	13.635800
_cell_length_b	27.923496
_cell_length_c	11.102315
_cell_angle_alpha	84.491829
_cell_angle_beta	71.393725
_cell_angle_gamma	98.963946
loop_
_atom_site_label
_atom_site_type_symbol
_atom_site_fract_x
_atom_site_fract_y
_atom_site_fract_z
V1	V	-2.031717	-0.067128	0.397061
O2	O	-2.036441	0.003223	0.388676
O3	O	-1.996467	-0.133101	0.395141
O4	O	-2.020479	-0.066097	0.569871
O5	O	-2.012262	-0.064245	0.212737
V6	V	-2.273283	-0.058713	0.374918
O7	O	-2.162775	-0.085587	0.445634
O8	O	-2.367325	-0.040254	0.326345
O9	O	-2.196930	0.007260	0.376839
O10	O	-2.327258	-0.129064	0.383303
O11	O	-2.351437	-0.061596	0.559243
O12	O	-2.172918	-0.059744	0.202109
C13	C	-1.915860	-0.149184	0.389082
C14	C	-1.927768	-0.203117	0.388664
V15	V	-1.531717	-0.067128	0.397061
O16	O	-1.536441	0.003223	0.388676
O17	O	-1.496467	-0.133101	0.395141
O18	O	-1.520479	-0.066097	0.569871
O19	O	-1.512262	-0.064245	0.212737
V20	V	-1.773283	-0.058713	0.374918
O21	O	-1.662775	-0.085587	0.445634
O22	O	-1.867325	-0.040254	0.326345
O23	O	-1.696930	0.007260	0.376839
O24	O	-1.827258	-0.129064	0.383303
O25	O	-1.851437	-0.061596	0.559243
O26	O	-1.672918	-0.059744	0.202109
C27	C	-2.092877	-0.540045	0.392579
C28	C	-2.137702	-0.742754	0.391067
O29	O	-2.221005	-0.771070	0.396345
N30	N	-2.052183	-0.765629	0.384501
C31	C	-1.955453	-0.737824	0.378321
O32	O	-1.883746	-0.761932	0.372715
C33	C	-1.910631	-0.535116	0.379843
C34	C	-1.996153	-0.512244	0.386396
C35	C	-2.178392	-0.517172	0.399133
C36	C	-2.167184	-0.466498	0.399504
C37	C	-2.070460	-0.438696	0.393321
C38	C	-1.984945	-0.461569	0.386767
C39	C	-1.813904	-0.507313	0.373673
C40	C	-1.802707	-0.456633	0.374057
C41	C	-1.888229	-0.433760	0.380610
C42	C	-1.877013	-0.383093	0.380955
N43	N	-1.962532	-0.360218	0.387521
C44	C	-2.059256	-0.388020	0.393704
C45	C	-1.978991	-0.844248	0.377520
C46	C	-1.990195	-0.894925	0.377137
C47	C	-2.172445	-0.899852	0.389885
C48	C	-2.161237	-0.849174	0.390259
C49	C	-2.064510	-0.821374	0.384086
C50	C	-2.035710	-0.281599	0.394482
C51	C	-2.024492	-0.230919	0.394847
C52	C	-1.842246	-0.225997	0.382106
C53	C	-1.853461	-0.276672	0.381734
C54	C	-1.950202	-0.304472	0.387927
O55	O	-1.793748	-0.354747	0.375694
O56	O	-2.130956	-0.363904	0.399338
C57	C	-2.104085	-0.590720	0.392208
C58	C	-2.018570	-0.613593	0.385654
C59	C	-1.921846	-0.585791	0.379471
C60	C	-2.029774	-0.664269	0.385271
C61	C	-2.126498	-0.692071	0.391454
C62	C	-2.212017	-0.669196	0.398020
C63	C	-2.200808	-0.618522	0.398391
C64	C	-1.836327	-0.608666	0.372905
C65	C	-1.847543	-0.659341	0.372533
C66	C	-1.944266	-0.687143	0.378716
C67	C	-1.946489	-0.063712	0.611966
C68	C	-1.977870	-0.063306	0.753244
C69	C	-2.109208	0.023340	0.382894
C70	C	-2.086919	0.077273	0.383320
C71	C	-2.078578	-0.062130	0.160007
C72	C	-2.036817	-0.062535	0.018728
C73	C	-1.415860	-0.149184	0.389082
C74	C	-1.427768	-0.203117	0.388664
C75	C	-1.446489	-0.063712	0.611966
C76	C	-1.477870	-0.063306	0.753244
C77	C	-2.160160	-0.068154	0.766271
C78	C	-2.266043	-0.070389	0.839157
C79	C	-2.295521	-0.070006	0.971899
C80	C	-2.219106	-0.067387	1.031757
C81	C	-2.113223	-0.065152	0.958871
C82	C	-2.083754	-0.065537	0.826128
C83	C	-1.930934	-0.060300	0.945842
C84	C	-1.901455	-0.060686	0.813102
C85	C	-1.854519	-0.057681	1.005700
C86	C	-1.748634	-0.055450	0.932816
C87	C	-1.719158	-0.055833	0.800067
C88	C	-1.795571	-0.058452	0.740216
C89	C	-1.609208	0.023340	0.382894
C90	C	-1.586919	0.077273	0.383320
C91	C	-1.578578	-0.062130	0.160007
C92	C	-1.536817	-0.062535	0.018728
C93	C	-1.524492	-0.230919	0.394847
C94	C	-1.535700	-0.281597	0.394473
C95	C	-1.450181	-0.304472	0.387908
C96	C	-1.353451	-0.276667	0.381728
C97	C	-1.342246	-0.225990	0.382111
C98	C	-1.662689	0.105075	0.377141
C99	C	-1.641754	0.155753	0.377520
C100	C	-1.545050	0.178627	0.384089
C101	C	-1.469273	0.150822	0.390265
C102	C	-1.490206	0.100146	0.389876
C103	C	-1.506195	-0.152167	0.790634
C104	C	-1.535097	-0.196405	0.875700
C105	C	-1.564582	-0.196020	1.008441
C106	C	-1.565168	-0.151392	1.056118
C107	C	-1.536266	-0.107155	0.971053
C108	C	-1.506779	-0.107544	0.838310
C109	C	-1.507948	-0.018294	0.933663
C110	C	-1.478455	-0.018678	0.800921
C111	C	-1.508534	0.026333	0.981340
C112	C	-1.479624	0.070572	0.896274
C113	C	-1.450137	0.070185	0.763525
C114	C	-1.449554	0.025559	0.715855
H115	H	-2.094138	-0.212299	0.400179
F116	F	-1.418167	0.025144	0.574582
F117	F	-1.615524	-0.206584	0.401843
F118	F	-1.606462	-0.053451	0.722504
F119	F	-1.262442	-0.301019	0.374736
H120	H	-1.588118	-0.232042	1.077703
H121	H	-1.920549	-0.913542	0.371784
H122	H	-1.528017	0.219891	0.384404
F123	F	-2.347364	-0.073179	0.775444
F124	F	-1.239293	-0.196406	0.375520
F125	F	-1.885894	-0.057273	1.146976
F126	F	-1.596565	-0.150985	1.197396
H127	H	-1.614469	-0.304229	0.399502
H128	H	-1.703468	0.178384	0.372493
F129	F	-1.366354	0.175175	0.397249
F130	F	-2.408212	-0.072379	1.049469
H131	H	-1.459319	-0.345736	0.387597
F132	F	-1.765618	0.080739	0.370150
F133	F	-2.291834	-0.594185	0.405360
F134	F	-1.667320	-0.052660	0.996528
F135	F	-1.733377	-0.579084	0.366323
F136	F	-1.876035	-0.814667	0.370945
F137	F	-1.480257	0.118062	0.947024
F138	F	-1.409553	0.070563	0.396458
H139	H	-1.482173	-0.152484	0.682550
F140	F	-1.764211	-0.058863	0.598943
F141	F	-1.534477	-0.243898	0.824950
F142	F	-1.539921	0.026741	1.122617
H143	H	-2.114485	-0.304228	0.399526
F144	F	-2.258208	-0.442161	0.406468
F145	F	-1.419391	0.117269	0.673001
H146	H	-2.230877	-0.830554	0.395592
F147	F	-2.281345	-0.546754	0.405716
H148	H	-1.744258	-0.525926	0.368326
H149	H	-1.723941	-0.434001	0.369037
F150	F	-2.275388	-0.929449	0.396469
H151	H	-1.783824	-0.295296	0.376406
H152	H	-1.763492	-0.203351	0.377065
H153	H	-1.777891	-0.677959	0.367188
F154	F	-2.128796	-0.068570	0.624999
F155	F	-2.250483	-0.066974	1.173031
F156	F	-2.314957	-0.698794	0.404593
