data_functionalizedCrystal
_audit_creation_method	'MofGen! by Chris Wilmer'
_symmetry_space_group_name_H-M	'P1'
_symmetry_Int_Tables_number	1
_symmetry_cell_setting	triclinic
loop_
_symmetry_equiv_pos_as_xyz
  x,y,z
_cell_length_a	14.908742
_cell_length_b	14.908178
_cell_length_c	13.032268
_cell_angle_alpha	86.549870
_cell_angle_beta	79.154565
_cell_angle_gamma	90.210560
loop_
_atom_site_label
_atom_site_type_symbol
_atom_site_fract_x
_atom_site_fract_y
_atom_site_fract_z
Zn1	Zn	1.299450	-0.485780	0.471308
Zn2	Zn	1.632784	-0.152447	0.804641
Zn3	Zn	1.966117	0.180886	1.137974
Zn4	Zn	1.311996	-0.617182	0.286936
Zn5	Zn	1.645329	-0.283849	0.620269
Zn6	Zn	1.978662	0.049485	0.953603
Zn7	Zn	1.168077	-0.460238	0.307093
Zn8	Zn	1.501410	-0.126905	0.640426
Zn9	Zn	1.834744	0.206428	0.973759
Zn10	Zn	1.140265	-0.627552	0.472433
Zn11	Zn	1.473599	-0.294219	0.805767
Zn12	Zn	1.806932	0.039115	1.139100
O13	O	1.229947	-0.547688	0.384443
O14	O	1.563280	-0.214355	0.717776
O15	O	1.896614	0.118979	1.051109
O16	O	1.427964	-0.509560	0.437944
O17	O	1.761298	-0.176227	0.771277
O18	O	2.094631	0.157106	1.104611
O19	O	1.309794	-0.581334	0.143254
O20	O	1.643128	-0.248000	0.476587
O21	O	1.976461	0.085333	0.809921
O22	O	1.191893	-0.338613	0.336840
O23	O	1.525226	-0.005280	0.670174
O24	O	1.858560	0.328053	1.003507
O25	O	1.437182	-0.606101	0.302487
O26	O	1.770515	-0.272767	0.635820
O27	O	2.103848	0.060566	0.969154
O28	O	1.288412	-0.357379	0.457489
O29	O	1.621746	-0.024045	0.790822
O30	O	1.955079	0.309288	1.124155
O31	O	1.204058	-0.466028	0.158063
O32	O	1.537391	-0.132695	0.491396
O33	O	1.870724	0.200639	0.824729
O34	O	1.037538	-0.476084	0.337932
O35	O	1.370871	-0.142750	0.671265
O36	O	1.704204	0.190583	1.004599
O37	O	1.144492	-0.623775	0.618640
O38	O	1.477825	-0.290442	0.951973
O39	O	1.811159	0.042892	1.285307
O40	O	1.017105	-0.599008	0.459407
O41	O	1.350438	-0.265675	0.792741
O42	O	1.683771	0.067659	1.126074
O43	O	1.261444	-0.519616	0.617813
O44	O	1.594778	-0.186283	0.951146
O45	O	1.928111	0.147051	1.284480
O46	O	1.282826	-0.743571	0.303578
O47	O	1.616160	-0.410237	0.636912
O48	O	1.949493	-0.076904	0.970245
O49	O	1.156657	-0.751190	0.439862
O50	O	1.489990	-0.417856	0.773196
O51	O	1.823323	-0.084523	1.106529
C52	C	0.994430	-0.535900	0.400980
C53	C	1.327764	-0.202567	0.734313
C54	C	1.661097	0.130766	1.067646
C55	C	0.893671	-0.530881	0.408078
C56	C	1.227005	-0.197548	0.741411
C57	C	1.560338	0.135785	1.074744
C58	C	0.746837	-0.473655	0.488697
C59	C	1.080170	-0.140322	0.822030
C60	C	1.413504	0.193011	1.155364
C61	C	0.841509	-0.478364	0.482034
C62	C	1.174842	-0.145030	0.815367
C63	C	1.508175	0.188303	1.148700
C64	C	0.851155	-0.578696	0.340782
C65	C	1.184488	-0.245363	0.674116
C66	C	1.517822	0.087971	1.007449
C67	C	0.756483	-0.573988	0.347446
C68	C	1.089817	-0.240654	0.680779
C69	C	1.423150	0.092679	1.014112
C70	C	0.704327	-0.521464	0.421405
C71	C	1.037661	-0.188131	0.754738
C72	C	1.370994	0.145202	1.088071
C73	C	0.609655	-0.516751	0.428062
C74	C	0.942988	-0.183418	0.761396
C75	C	1.276321	0.149915	1.094729
C76	C	0.619302	-0.617088	0.286817
C77	C	0.952635	-0.283755	0.620150
C78	C	1.285968	0.049579	0.953483
C79	C	0.713974	-0.621797	0.280153
C80	C	1.047307	-0.288463	0.613487
C81	C	1.380640	0.044870	0.946820
C82	C	1.218107	-0.779798	0.369676
C83	C	1.551440	-0.446465	0.703010
C84	C	1.884773	-0.113132	1.036343
C85	C	1.213120	-0.879104	0.363389
C86	C	1.546454	-0.545771	0.696722
C87	C	1.879787	-0.212437	1.030055
C88	C	1.304152	-1.085110	0.477354
C89	C	1.637485	-0.751777	0.810687
C90	C	1.970818	-0.418444	1.144020
C91	C	1.299469	-1.178417	0.471449
C92	C	1.632802	-0.845084	0.804782
C93	C	1.966136	-0.511750	1.138116
C94	C	1.199068	-1.159027	0.345681
C95	C	1.532402	-0.825693	0.679014
C96	C	1.865735	-0.492360	1.012347
C97	C	1.203751	-1.065720	0.351585
C98	C	1.537084	-0.732386	0.684919
C99	C	1.870417	-0.399053	1.018252
C100	C	1.256295	-1.028765	0.417423
C101	C	1.589629	-0.695432	0.750756
C102	C	1.922962	-0.362098	1.084090
C103	C	1.260982	-0.935456	0.423321
C104	C	1.594316	-0.602123	0.756655
C105	C	1.927649	-0.268789	1.089988
C106	C	1.160577	-0.916068	0.297559
C107	C	1.493910	-0.582734	0.630893
C108	C	1.827244	-0.249401	0.964226
C109	C	1.155895	-1.009375	0.291655
C110	C	1.489228	-0.676041	0.624988
C111	C	1.822561	-0.342708	0.958321
C112	C	1.466383	-0.559523	0.367841
C113	C	1.799717	-0.226189	0.701175
C114	C	2.133050	0.107144	1.034508
C115	C	1.567139	-0.564566	0.360767
C116	C	1.900472	-0.231233	0.694100
C117	C	2.233805	0.102101	1.027434
C118	C	1.198466	-0.575701	0.657236
C119	C	1.531800	-0.242368	0.990569
C120	C	1.865133	0.090965	1.323903
C121	C	1.185051	-0.587639	0.773484
C122	C	1.518385	-0.254305	1.106818
C123	C	1.851718	0.079028	1.440151
C124	C	1.241856	-0.314675	0.399287
C125	C	1.575189	0.018658	0.732621
C126	C	1.908522	0.351992	1.065954
C127	C	1.246930	-0.215379	0.405613
C128	C	1.580264	0.117954	0.738947
C129	C	1.913597	0.451288	1.072280
C130	C	1.261361	-0.519722	0.112711
C131	C	1.594694	-0.186389	0.446044
C132	C	1.928027	0.146945	0.779377
C133	C	1.274964	-0.507542	-0.003534
C134	C	1.608298	-0.174208	0.329800
C135	C	1.941631	0.159125	0.663133
C136	C	1.236936	-0.541425	0.824902
C137	C	1.570269	-0.208092	1.158236
C138	C	1.903603	0.125242	1.491569
C139	C	1.223072	-0.553762	0.945051
C140	C	1.556405	-0.220429	1.278385
C141	C	1.889739	0.112905	1.611718
H142	H	0.876116	-0.439433	0.536830
H143	H	1.209449	-0.106099	0.870164
H144	H	1.542783	0.227234	1.203497
F145	F	1.143131	-1.198373	0.275640
F146	F	1.476465	-0.865040	0.608973
F147	F	1.809798	-0.531707	0.942306
H148	H	1.329648	-0.458834	0.951544
H149	H	1.662981	-0.125501	1.284877
H150	H	1.996315	0.207832	1.618210
H151	H	1.113112	-1.039476	0.238054
H152	H	1.446445	-0.706143	0.571388
H153	H	1.779779	-0.372810	0.904721
F154	F	0.554148	-0.460849	0.506772
F155	F	0.887482	-0.127516	0.840105
F156	F	1.220815	0.205818	1.173438
H157	H	0.704372	-0.430879	0.548908
H158	H	1.037706	-0.097546	0.882241
H159	H	1.371039	0.235787	1.215574
H160	H	1.291617	-0.492723	0.779974
H161	H	1.624951	-0.159390	1.113307
H162	H	1.958284	0.173943	1.446641
F163	F	1.113568	-0.651288	0.832205
F164	F	1.446902	-0.317955	1.165538
F165	F	1.780235	0.015378	1.498871
F166	F	0.906676	-0.634599	0.262085
F167	F	1.240009	-0.301265	0.595418
F168	F	1.573343	0.032068	0.928752
F169	F	0.769491	-0.677695	0.201448
F170	F	1.102824	-0.344361	0.534781
F171	F	1.436157	-0.011028	0.868115
H172	H	1.121612	-0.870180	0.248756
H173	H	1.454945	-0.536847	0.582090
H174	H	1.788279	-0.203513	0.915423
F175	F	0.574055	-0.667969	0.215190
F176	F	0.907388	-0.334635	0.548523
F177	F	1.240721	-0.001302	0.881857
F178	F	1.151586	-0.617415	1.003768
F179	F	1.484919	-0.284082	1.337101
F180	F	1.818252	0.049252	1.670434
H181	H	1.303769	-0.905369	0.476926
H182	H	1.637103	-0.572036	0.810260
H183	H	1.970436	-0.238702	1.143593
H184	H	1.346942	-1.055021	0.530953
H185	H	1.680276	-0.721688	0.864287
H186	H	2.013609	-0.388355	1.197620
F187	F	1.350402	-1.238381	0.535238
F188	F	1.683735	-0.905048	0.868571
F189	F	2.017069	-0.571715	1.201905
