data_functionalizedCrystal
_audit_creation_method	'MofGen! by Chris Wilmer'
_symmetry_space_group_name_H-M	'P1'
_symmetry_Int_Tables_number	1
_symmetry_cell_setting	triclinic
loop_
_symmetry_equiv_pos_as_xyz
  x,y,z
_cell_length_a	12.837943
_cell_length_b	12.837942
_cell_length_c	11.295471
_cell_angle_alpha	85.472334
_cell_angle_beta	94.542158
_cell_angle_gamma	94.828940
loop_
_atom_site_label
_atom_site_type_symbol
_atom_site_fract_x
_atom_site_fract_y
_atom_site_fract_z
O1	O	1.408695	0.265793	0.099003
O2	O	1.908695	0.765793	0.599003
O3	O	1.105562	0.252349	0.099010
O4	O	1.605562	0.752349	0.599010
O5	O	1.250406	0.107505	0.098999
O6	O	1.750406	0.607505	0.598999
O7	O	1.263850	0.410638	0.099013
O8	O	1.763850	0.910638	0.599013
O9	O	1.237671	0.120196	-0.099051
O10	O	1.737671	0.620196	0.400949
O11	O	1.092827	0.265040	-0.099040
O12	O	1.592827	0.765040	0.400960
O13	O	1.395960	0.278484	-0.099047
O14	O	1.895960	0.778484	0.400953
Cu15	Cu	1.243230	0.272921	-0.117128
Cu16	Cu	1.743230	0.772921	0.382872
Cu17	Cu	1.258291	0.257912	0.117090
Cu18	Cu	1.758291	0.757912	0.617090
O19	O	1.251115	0.423329	-0.099037
O20	O	1.751115	0.923329	0.400963
C21	C	1.060125	0.254153	-0.000014
C22	C	1.560125	0.754153	0.499986
C23	C	0.943710	0.240609	-0.000012
C24	C	1.443710	0.740609	0.499988
C25	C	0.718835	0.403439	-0.000021
C26	C	1.218835	0.903439	0.499979
C27	C	0.609453	0.390717	-0.000020
C28	C	1.109453	0.890717	0.499980
C29	C	0.615561	0.202446	-0.000016
C30	C	1.115561	0.702446	0.499984
C31	C	0.724943	0.215167	-0.000017
C32	C	1.224943	0.715167	0.499983
C33	C	0.776576	0.315667	-0.000018
C34	C	1.276576	0.815667	0.499982
C35	C	0.885961	0.328387	-0.000011
C36	C	1.385961	0.828387	0.499989
C37	C	0.892066	0.140117	-0.000016
C38	C	1.392066	0.640117	0.499984
C39	C	0.782684	0.127396	-0.000015
C40	C	1.282684	0.627396	0.499985
C41	C	1.239497	0.074781	-0.000025
C42	C	1.739497	0.574781	0.499975
C43	C	1.225953	-0.041634	-0.000023
C44	C	1.725953	0.458366	0.499977
C45	C	1.388784	-0.266509	-0.000002
C46	C	1.888784	0.233491	0.499998
C47	C	1.376062	-0.375892	0.000000
C48	C	1.876062	0.124108	0.500000
C49	C	1.187791	-0.369784	-0.000008
C50	C	1.687791	0.130216	0.499992
C51	C	1.200512	-0.260402	-0.000010
C52	C	1.700512	0.239598	0.499990
C53	C	1.301011	-0.208768	-0.000009
C54	C	1.801011	0.291232	0.499991
C55	C	1.313731	-0.099383	-0.000020
C56	C	1.813731	0.400617	0.499980
C57	C	1.125461	-0.093278	-0.000019
C58	C	1.625461	0.406722	0.499981
C59	C	1.112740	-0.202660	-0.000017
C60	C	1.612740	0.297340	0.499983
C61	C	1.441396	0.276680	-0.000021
C62	C	1.941396	0.776680	0.499979
C63	C	1.557812	0.290224	-0.000015
C64	C	2.057812	0.790224	0.499985
C65	C	1.262024	0.456052	-0.000010
C66	C	1.762024	0.956052	0.499990
C67	C	1.275569	0.572467	-0.000004
C68	C	1.775569	1.072467	0.499996
N69	N	1.232645	0.283477	-0.281863
N70	N	1.732645	0.783477	0.218137
C71	C	1.156519	0.359581	-0.468880
C72	C	1.656519	0.859581	0.031120
C73	C	1.164498	0.351586	-0.344217
C74	C	1.664498	0.851586	0.155783
C75	C	1.292815	0.223358	-0.344182
C76	C	1.792815	0.723358	0.155818
C77	C	1.284836	0.231353	-0.468846
C78	C	1.784836	0.731353	0.031154
C79	C	1.216687	0.299468	-0.531190
C80	C	1.716687	0.799468	-0.031190
C81	C	1.208714	0.307469	-0.655856
C82	C	1.708714	0.807469	-0.155856
C83	C	1.337025	0.179235	-0.655819
C84	C	1.837025	0.679235	-0.155819
C85	C	1.345004	0.171240	-0.531156
C86	C	1.845004	0.671240	-0.031156
N87	N	1.268884	0.247349	0.281826
N88	N	1.768884	0.747349	0.781826
H89	H	0.562444	0.462191	-0.000025
H90	H	1.062444	0.962191	0.499975
H91	H	1.386021	0.130290	-0.706566
H92	H	1.886021	0.630290	-0.206566
N93	N	1.079403	-0.425484	-0.000004
N94	N	1.579403	0.074516	0.499996
H95	H	1.045184	-0.409813	0.073413
H96	H	1.545184	0.090187	0.573413
H97	H	1.084756	-0.503520	-0.000040
H98	H	1.584756	-0.003520	0.499960
N99	N	0.941661	0.436775	-0.000021
N100	N	1.441661	0.936775	0.499979
H101	H	0.991627	0.441552	0.073396
H102	H	1.491627	0.941552	0.573396
H103	H	0.888416	0.490386	-0.000073
H104	H	1.388416	0.990386	0.499927
N105	N	1.004346	-0.258348	-0.000021
N106	N	1.504346	0.241652	0.499979
H107	H	0.999584	-0.308295	0.073397
H108	H	1.499584	0.191705	0.573397
H109	H	0.990222	-0.298832	-0.073486
H110	H	1.490222	0.201168	0.426514
H111	H	0.760876	0.485269	-0.000020
H112	H	1.260876	0.985269	0.499980
H113	H	0.573495	0.120630	-0.000114
H114	H	1.073495	0.620630	0.499886
H115	H	1.400487	0.115778	-0.480380
H116	H	1.900487	0.615778	0.019620
H117	H	1.348293	0.167892	-0.293405
H118	H	1.848293	0.667892	0.206595
H119	H	1.101036	0.415051	-0.519642
H120	H	1.601036	0.915051	-0.019642
N121	N	0.954346	0.045444	-0.000030
N122	N	1.454346	0.545444	0.499970
H123	H	0.905034	-0.020149	-0.000032
H124	H	1.405034	0.479851	0.499968
H125	H	1.004583	0.041916	0.073389
H126	H	1.504583	0.541916	0.573389
H127	H	0.740628	0.045572	-0.000028
H128	H	1.240628	0.545572	0.499972
N129	N	1.422120	-0.043687	-0.000026
N130	N	1.922120	0.456313	0.499974
H131	H	1.475792	-0.096869	-0.000018
H132	H	1.975792	0.403131	0.499982
H133	H	1.436217	-0.003136	0.073392
H134	H	1.936217	0.496864	0.573392
N135	N	1.135206	0.380922	-0.723106
N136	N	1.635206	0.880922	-0.223106
H137	H	1.176470	0.434568	-0.774809
H138	H	1.676470	0.934568	-0.274809
H139	H	1.098312	0.417711	-0.664638
H140	H	1.598312	0.917711	-0.164638
N141	N	1.497170	-0.210809	-0.000019
N142	N	1.997170	0.289191	0.499981
H143	H	1.550845	-0.263986	-0.000021
H144	H	2.050845	0.236014	0.499979
H145	H	1.511273	-0.170258	0.073398
H146	H	2.011273	0.329742	0.573398
H147	H	1.115501	0.400535	-0.293487
H148	H	1.615501	0.900535	0.206513
H149	H	1.447536	-0.422901	0.000010
H150	H	1.947536	0.077099	0.500010
H151	H	1.053990	-0.046252	-0.000034
H152	H	1.553990	0.453748	0.499966
