data_functionalizedCrystal
_audit_creation_method	'MofGen! by Chris Wilmer'
_symmetry_space_group_name_H-M	'P1'
_symmetry_Int_Tables_number	1
_symmetry_cell_setting	triclinic
loop_
_symmetry_equiv_pos_as_xyz
  x,y,z
_cell_length_a	8.497374
_cell_length_b	12.759399
_cell_length_c	12.759401
_cell_angle_alpha	89.974334
_cell_angle_beta	90.000368
_cell_angle_gamma	89.990503
loop_
_atom_site_label
_atom_site_type_symbol
_atom_site_fract_x
_atom_site_fract_y
_atom_site_fract_z
Zn1	Zn	0.891888	0.418444	1.605988
Zn2	Zn	0.628085	0.594091	1.605905
Zn3	Zn	0.628121	0.418427	1.430346
Zn4	Zn	0.891823	0.594082	1.430246
O5	O	0.759979	0.506261	1.518121
O6	O	0.856906	0.441755	1.752998
O7	O	0.407328	0.570785	1.582624
O8	O	0.663152	0.271408	1.453722
O9	O	0.663091	0.570802	1.752937
O10	O	0.856940	0.271421	1.582766
O11	O	0.407354	0.441725	1.453641
O12	O	0.663090	0.441717	1.283312
O13	O	1.112594	0.570787	1.453552
O14	O	0.856830	0.570770	1.283238
O15	O	1.112641	0.441746	1.582669
O16	O	0.663029	0.741111	1.582527
O17	O	0.856796	0.741104	1.453471
C18	C	0.759958	0.506242	1.245154
C19	C	0.759986	0.506259	1.128377
C20	C	0.759936	0.779228	1.518008
C21	C	0.759970	0.896005	1.518055
C22	C	0.860700	0.573564	1.073505
C23	C	0.860717	0.573577	0.963781
C24	C	0.659293	0.438977	0.963812
C25	C	0.659285	0.438959	1.073534
C26	C	0.976986	0.651278	1.073486
C27	C	0.977003	0.651291	0.963762
C28	C	1.171460	0.506262	1.518114
C29	C	1.350104	0.506274	1.518116
C30	C	0.760002	0.506281	1.792155
C31	C	0.760011	0.506290	1.908931
C32	C	0.861008	1.060507	1.585255
C33	C	0.860966	0.950783	1.585210
C34	C	0.658999	0.950957	1.450948
C35	C	0.659035	1.060679	1.450999
C36	C	0.977617	1.060405	1.662768
C37	C	0.977575	0.950681	1.662723
C38	C	0.760047	1.232228	1.518221
C39	C	0.760048	1.115451	1.518151
H40	H	0.577284	0.384145	1.118207
H41	H	0.577307	0.384183	0.919145
H42	H	1.093643	1.094435	1.633557
C43	C	1.142132	0.622035	1.113731
N44	N	1.266521	0.600018	1.144044
H45	H	1.093154	0.622279	0.929745
H46	H	0.933010	0.728518	1.107495
C47	C	0.932496	0.761173	0.923493
N48	N	0.898971	0.843933	0.893163
C49	C	1.142579	0.910430	1.633158
N50	N	1.266855	0.880114	1.610889
H51	H	0.576808	1.105410	1.396366
H52	H	0.576755	0.906350	1.396275
H53	H	0.945017	1.090115	1.744172
H54	H	0.933904	0.916592	1.740031
