data_functionalizedCrystal
_audit_creation_method	'MofGen! by Chris Wilmer'
_symmetry_space_group_name_H-M	'P1'
_symmetry_Int_Tables_number	1
_symmetry_cell_setting	triclinic
loop_
_symmetry_equiv_pos_as_xyz
  x,y,z
_cell_length_a	33.359672
_cell_length_b	33.359674
_cell_length_c	33.359725
_cell_angle_alpha	90.002336
_cell_angle_beta	59.997790
_cell_angle_gamma	119.999824
loop_
_atom_site_label
_atom_site_type_symbol
_atom_site_fract_x
_atom_site_fract_y
_atom_site_fract_z
O1	O	0.353587	-0.274991	-0.011927
O2	O	0.271501	-0.216698	0.011867
O3	O	0.353584	-0.216698	-0.070218
O4	O	0.271504	-0.274991	0.070158
O5	O	0.286913	-0.283369	-0.070217
O6	O	0.204830	-0.283369	0.011868
O7	O	0.286915	-0.341662	-0.011926
Cu8	Cu	0.239785	-0.318603	-0.000029
Cu9	Cu	0.318632	-0.239757	-0.000030
O10	O	0.204833	-0.341662	0.070158
C11	C	0.117512	-0.073731	0.028809
C12	C	0.068931	-0.098077	0.029147
C13	C	0.117509	-0.146322	0.028814
C14	C	0.068928	-0.170558	0.029151
C15	C	0.044923	-0.146320	0.028809
C16	C	0.141407	-0.098079	0.029151
C17	C	0.196155	0.004722	0.022919
C18	C	0.222880	0.054297	0.019200
C19	C	0.199944	0.079161	0.017331
C20	C	0.228920	0.132913	0.013296
C21	C	0.150277	0.054455	0.019187
C22	C	0.123552	0.004883	0.022908
C23	C	0.146493	-0.019981	0.024772
C24	C	-0.027638	-0.146130	0.022914
C25	C	-0.073493	-0.168979	0.019194
C26	C	-0.096492	-0.216782	0.017330
C27	C	-0.146209	-0.241558	0.013295
C28	C	-0.073644	-0.241744	0.019190
C29	C	-0.027793	-0.218897	0.022912
C30	C	-0.004790	-0.171090	0.024771
C31	C	0.196149	-0.146136	0.022928
C32	C	0.222876	-0.168985	0.019206
C33	C	0.199936	-0.216787	0.017342
C34	C	0.228910	-0.241565	0.013312
C35	C	0.150274	-0.241745	0.019196
C36	C	0.123547	-0.218899	0.022915
C37	C	0.146487	-0.171094	0.024781
O38	O	-0.279069	-0.341655	-0.011947
O39	O	-0.162484	-0.283360	0.011844
O40	O	-0.162479	-0.283364	-0.070239
O41	O	-0.279074	-0.341650	0.070137
O42	O	-0.162476	-0.216692	-0.070243
O43	O	-0.162482	-0.216688	0.011840
O44	O	-0.279066	-0.274982	-0.011951
Cu45	Cu	-0.220774	-0.239747	-0.000056
Cu46	Cu	-0.220777	-0.318595	-0.000051
O47	O	-0.279072	-0.274978	0.070133
C48	C	0.440913	-0.146329	-0.367177
C49	C	0.489495	-0.098086	-0.391412
C50	C	0.440913	-0.146329	-0.294588
C51	C	0.489495	-0.098086	-0.318933
C52	C	0.513502	-0.073740	-0.367176
C53	C	0.417016	-0.170565	-0.318934
C54	C	0.362270	-0.219081	-0.366989
C55	C	0.335546	-0.242087	-0.389839
C56	C	0.358484	-0.217283	-0.437640
C57	C	0.329509	-0.242225	-0.462417
C58	C	0.408152	-0.169473	-0.462601
C59	C	0.434876	-0.146469	-0.439753
C60	C	0.411933	-0.171273	-0.391947
C61	C	0.586065	0.004714	-0.439927
C62	C	0.631921	0.054287	-0.462933
C63	C	0.654919	0.079151	-0.438129
C64	C	0.704637	0.132902	-0.463070
C65	C	0.632069	0.054444	-0.390319
C66	C	0.586218	0.004872	-0.367315
C67	C	0.563216	-0.019991	-0.392119
C68	C	0.362270	-0.219081	-0.216134
C69	C	0.335542	-0.242085	-0.166558
C70	C	0.358480	-0.217281	-0.141694
C71	C	0.329505	-0.242223	-0.087942
C72	C	0.408143	-0.169473	-0.166398
C73	C	0.434872	-0.146467	-0.215972
C74	C	0.411933	-0.171273	-0.240838
C75	C	0.513517	-0.412027	-0.028902
C76	C	0.489511	-0.460269	-0.029242
C77	C	0.440925	-0.412028	-0.028898
C78	C	0.417029	-0.460271	-0.029238
C79	C	0.440928	-0.484616	-0.028901
C80	C	0.489508	-0.387792	-0.029238
C81	C	0.586081	-0.339274	-0.023012
C82	C	0.631938	-0.316267	-0.019295
C83	C	0.654938	-0.341070	-0.017432
C84	C	0.704657	-0.316127	-0.013400
C85	C	0.632089	-0.388880	-0.019290
C86	C	0.586236	-0.411885	-0.023009
C87	C	0.563232	-0.387082	-0.024867
C88	C	0.435229	-0.563069	-0.023015
C89	C	0.408662	-0.612643	-0.019298
C90	C	0.358994	-0.637507	-0.017431
C91	C	0.330184	-0.691258	-0.013399
C92	C	0.335888	-0.612801	-0.019285
C93	C	0.362454	-0.563229	-0.023004
C94	C	0.412123	-0.538365	-0.024867
C95	C	0.435220	-0.339277	-0.023003
C96	C	0.408646	-0.316273	-0.019276
C97	C	0.358978	-0.341078	-0.017410
C98	C	0.330165	-0.316137	-0.013373
C99	C	0.335875	-0.388886	-0.019265
C100	C	0.362444	-0.411892	-0.022990
C101	C	0.412117	-0.387085	-0.024859
O102	O	0.286933	0.291016	-0.011949
O103	O	0.204848	0.150641	0.011842
O104	O	0.286934	0.232718	-0.070242
O105	O	0.204846	0.208939	0.070135
O106	O	0.353602	0.232716	-0.070238
O107	O	0.271516	0.150639	0.011846
O108	O	0.353601	0.291014	-0.011945
Cu109	Cu	0.318646	0.220827	-0.000049
Cu110	Cu	0.239803	0.220829	-0.000054
O111	O	0.271514	0.208937	0.070139
O112	O	0.837498	0.291002	-0.495832
O113	O	0.720911	0.150628	-0.437542
O114	O	0.720908	0.232707	-0.437536
O115	O	0.837501	0.208922	-0.495838
O116	O	0.720909	0.232709	-0.504208
O117	O	0.720912	0.150629	-0.504214
O118	O	0.837499	0.291004	-0.562504
Cu119	Cu	0.779206	0.220817	-0.539447
Cu120	Cu	0.779204	0.220815	-0.460599
O121	O	0.837502	0.208924	-0.562510
O122	O	0.271499	-0.274996	-0.562510
O123	O	0.353583	-0.216699	-0.504219
O124	O	0.271499	-0.216701	-0.504213
O125	O	0.353584	-0.274994	-0.562515
O126	O	0.204829	-0.283371	-0.437542
O127	O	0.286913	-0.283369	-0.437547
O128	O	0.204829	-0.341666	-0.495839
Cu129	Cu	0.239784	-0.318605	-0.460605
Cu130	Cu	0.318629	-0.239760	-0.539452
O131	O	0.286914	-0.341664	-0.495844
C132	C	0.044913	-0.484622	0.367117
C133	C	0.068919	-0.460277	0.391353
C134	C	0.117502	-0.412033	0.294528
C135	C	0.141398	-0.387798	0.318875
C136	C	0.117501	-0.412034	0.367118
C137	C	0.068920	-0.460276	0.318874
C138	C	-0.027650	-0.563076	0.366926
C139	C	-0.073506	-0.612649	0.389775
C140	C	-0.096504	-0.637513	0.437576
C141	C	-0.146222	-0.691265	0.462352
C142	C	-0.073655	-0.612807	0.462538
C143	C	-0.027803	-0.563235	0.439692
C144	C	-0.004801	-0.538372	0.391885
C145	C	0.123202	-0.412223	0.439871
C146	C	0.149770	-0.389374	0.462878
C147	C	0.199437	-0.341572	0.438075
C148	C	0.228247	-0.316796	0.463017
C149	C	0.222541	-0.316611	0.390264
C150	C	0.195974	-0.339458	0.367259
C151	C	0.146307	-0.387264	0.392063
C152	C	0.123205	-0.412221	0.216073
C153	C	0.149777	-0.389373	0.166497
C154	C	0.199444	-0.341571	0.141635
C155	C	0.228255	-0.316795	0.087883
C156	C	0.222548	-0.316613	0.166340
C157	C	0.195980	-0.339459	0.215914
C158	C	0.146308	-0.387263	0.240779
C159	C	0.117538	-0.073747	-0.367204
C160	C	0.141435	-0.098094	-0.391438
C161	C	0.044944	-0.146333	-0.294613
C162	C	0.068952	-0.170570	-0.318957
C163	C	0.117536	-0.146337	-0.367200
C164	C	0.068953	-0.098090	-0.318960
C165	C	0.123241	0.004709	-0.367018
C166	C	0.149810	0.054282	-0.389869
C167	C	0.199480	0.079143	-0.437671
C168	C	0.228292	0.132895	-0.462450
C169	C	0.222584	0.054435	-0.462631
C170	C	0.196015	0.004864	-0.439782
C171	C	0.146346	-0.019997	-0.391975
C172	C	0.196182	-0.146152	-0.439951
C173	C	0.222906	-0.169003	-0.462956
C174	C	0.199966	-0.216805	-0.438150
C175	C	0.228941	-0.241583	-0.463090
C176	C	0.150296	-0.241763	-0.390340
C177	C	0.123571	-0.218914	-0.367337
C178	C	0.146516	-0.171108	-0.392143
C179	C	-0.027622	-0.146140	-0.216160
C180	C	-0.073477	-0.168985	-0.166583
C181	C	-0.096477	-0.216787	-0.141718
C182	C	-0.146198	-0.241561	-0.087966
C183	C	-0.073627	-0.241747	-0.166421
C184	C	-0.027772	-0.218904	-0.215995
C185	C	-0.004772	-0.171100	-0.240863
C186	C	-0.559087	-0.412008	0.367094
C187	C	-0.582986	-0.460250	0.391332
C188	C	-0.486495	-0.412011	0.294506
C189	C	-0.510504	-0.460253	0.318854
C190	C	-0.559088	-0.484598	0.367097
C191	C	-0.510503	-0.387774	0.318851
C192	C	-0.564788	-0.339255	0.366903
C193	C	-0.591356	-0.316247	0.389752
C194	C	-0.641026	-0.341049	0.437554
C195	C	-0.669837	-0.316106	0.462329
C196	C	-0.664132	-0.388859	0.462516
C197	C	-0.637563	-0.411865	0.439670
C198	C	-0.587894	-0.387063	0.391863
C199	C	-0.637735	-0.563049	0.439851
C200	C	-0.664460	-0.612623	0.462858
C201	C	-0.641521	-0.637487	0.438055
C202	C	-0.670498	-0.691239	0.462998
C203	C	-0.591851	-0.612783	0.390245
C204	C	-0.565125	-0.563211	0.367239
C205	C	-0.588069	-0.538347	0.392042
C206	C	-0.413927	-0.339261	0.216051
C207	C	-0.368073	-0.316259	0.166474
C208	C	-0.345074	-0.341064	0.141612
C209	C	-0.295353	-0.316124	0.087860
C210	C	-0.367925	-0.388872	0.166317
C211	C	-0.413780	-0.411877	0.215892
C212	C	-0.436778	-0.387069	0.240756
C213	C	0.513514	0.249625	-0.367189
C214	C	0.489508	0.249961	-0.391427
C215	C	0.440928	0.249639	-0.294605
C216	C	0.417032	0.249974	-0.318952
C217	C	0.440927	0.249627	-0.367194
C218	C	0.489508	0.249973	-0.318948
C219	C	0.586074	0.243733	-0.366995
C220	C	0.631928	0.240010	-0.389841
C221	C	0.654924	0.238136	-0.437642
C222	C	0.704640	0.234097	-0.462414
C223	C	0.632075	0.239990	-0.462604
C224	C	0.586226	0.243715	-0.439760
C225	C	0.563225	0.245584	-0.391956
C226	C	0.435225	0.243725	-0.439945
C227	C	0.408657	0.240003	-0.462953
C228	C	0.358992	0.238143	-0.438152
C229	C	0.330182	0.234106	-0.463094
C230	C	0.335889	0.240008	-0.390343
C231	C	0.362457	0.243732	-0.367337
C232	C	0.412122	0.245588	-0.392139
C233	C	0.435227	0.243760	-0.216150
C234	C	0.408656	0.240045	-0.166575
C235	C	0.358990	0.238184	-0.141715
C236	C	0.330181	0.234160	-0.087964
C237	C	0.335887	0.240036	-0.166421
C238	C	0.362454	0.243749	-0.215994
C239	C	0.412123	0.245612	-0.240856
O240	O	0.353642	0.290996	-0.562541
O241	O	0.271549	0.150620	-0.504250
O242	O	0.353625	0.232694	-0.504240
O243	O	0.271565	0.208921	-0.562552
O244	O	0.286949	0.232697	-0.437571
O245	O	0.204872	0.150622	-0.437582
O246	O	0.286966	0.290998	-0.495873
Cu247	Cu	0.239831	0.220810	-0.460640
Cu248	Cu	0.318683	0.220807	-0.539483
O249	O	0.204889	0.208924	-0.495884
C250	C	0.117521	0.192028	0.367091
C251	C	0.068941	0.191695	0.391324
C252	C	0.117521	0.192017	0.294502
C253	C	0.068941	0.191683	0.318845
C254	C	0.044935	0.192031	0.367086
C255	C	0.141416	0.191681	0.318849
C256	C	0.196161	0.197916	0.366906
C257	C	0.222885	0.201637	0.389757
C258	C	0.199948	0.203511	0.437557
C259	C	0.228922	0.207547	0.462335
C260	C	0.150282	0.201659	0.462515
C261	C	0.123559	0.197936	0.439666
C262	C	0.146500	0.196067	0.391862
C263	C	-0.027624	0.197935	0.439833
C264	C	-0.073477	0.201659	0.462836
C265	C	-0.096474	0.203521	0.438030
C266	C	-0.146190	0.207561	0.462968
C267	C	-0.073626	0.201656	0.390221
C268	C	-0.027777	0.197931	0.367220
C269	C	-0.004776	0.196072	0.392026
C270	C	0.196160	0.197893	0.216052
C271	C	0.222888	0.201609	0.166476
C272	C	0.199950	0.203471	0.141611
C273	C	0.228924	0.207496	0.087861
C274	C	0.150289	0.201622	0.166313
C275	C	0.123561	0.197908	0.215886
C276	C	0.146499	0.196044	0.240753
H277	H	0.131597	-0.280671	0.017675
C278	C	0.516636	-0.071680	-0.292527
C279	C	0.522192	-0.024095	-0.284923
C280	C	0.549332	0.002311	-0.258517
C281	C	0.570914	-0.018868	-0.239715
C282	C	0.565359	-0.066456	-0.247319
C283	C	0.538220	-0.092862	-0.273724
H284	H	0.506215	-0.008414	-0.298842
H285	H	0.553444	0.037539	-0.252889
H286	H	0.591004	0.000679	-0.220168
H287	H	0.581336	-0.082137	-0.233400
H288	H	0.534107	-0.128090	-0.279353
H289	H	0.048837	-0.210196	0.029697
H290	H	0.295109	-0.281013	-0.369513
C291	C	0.124368	-0.416822	0.139318
C292	C	0.159379	-0.426664	0.094059
C293	C	0.133977	-0.454111	0.066873
C294	C	0.073564	-0.471716	0.084946
C295	C	0.038549	-0.461874	0.130207
C296	C	0.063952	-0.434427	0.157393
H297	H	0.204104	-0.413632	0.080679
H298	H	0.159897	-0.461397	0.033368
H299	H	0.054759	-0.492034	0.064821
H300	H	-0.006175	-0.474907	0.143587
H301	H	0.038031	-0.427141	0.190898
C302	C	0.281252	0.237960	-0.363059
C303	C	0.279728	0.277688	-0.384439
C304	C	0.225093	0.275641	-0.357154
C305	C	0.171980	0.233866	-0.308489
C306	C	0.173502	0.194135	-0.287106
C307	C	0.228137	0.196182	-0.314392
H308	H	0.319047	0.308615	-0.420467
H309	H	0.223967	0.305052	-0.372983
H310	H	0.131535	0.232351	-0.288291
H311	H	0.134183	0.163209	-0.251079
H312	H	0.229263	0.166771	-0.298563
C313	C	0.281235	-0.416176	-0.017212
C314	C	0.228122	-0.464836	0.024569
C315	C	0.173485	-0.492123	0.026620
C316	C	0.171961	-0.470750	-0.013111
C317	C	0.225076	-0.422088	-0.054896
C318	C	0.279713	-0.394801	-0.056947
H319	H	0.229249	-0.480659	0.053983
H320	H	0.134166	-0.528146	0.057552
H321	H	0.131516	-0.490950	-0.011594
H322	H	0.223950	-0.406264	-0.084310
H323	H	0.319032	-0.358778	-0.087879
H324	H	-0.432385	-0.450805	0.236006
C325	C	0.280917	-0.294674	-0.139387
C326	C	0.225809	-0.304932	-0.094130
C327	C	0.171180	-0.357522	-0.066958
C328	C	0.171659	-0.399855	-0.085042
C329	C	0.226769	-0.389598	-0.130301
C330	C	0.281398	-0.337008	-0.157474
H331	H	0.225452	-0.273594	-0.080741
H332	H	0.130384	-0.365114	-0.033453
H333	H	0.131220	-0.438785	-0.064927
H334	H	0.227126	-0.420937	-0.143690
H335	H	0.322194	-0.329416	-0.190978
C336	C	0.489507	-0.093881	-0.467207
C337	C	0.491118	-0.052536	-0.445961
C338	C	0.545749	0.000053	-0.473416
C339	C	0.598769	0.011297	-0.522117
C340	C	0.597159	-0.030048	-0.543366
C341	C	0.542528	-0.082637	-0.515911
H342	H	0.451869	-0.060859	-0.409908
H343	H	0.546941	0.030659	-0.457686
H344	H	0.639210	0.050227	-0.542441
H345	H	0.636409	-0.021725	-0.579419
H346	H	0.541337	-0.113244	-0.531640
H347	H	0.083107	-0.239224	0.024428
H348	H	-0.092076	0.203175	0.501762
C349	C	0.434061	-0.263684	-0.017239
C350	C	0.399059	-0.253430	0.027613
C351	C	0.424470	-0.200840	0.029653
C352	C	0.484884	-0.158504	-0.013158
C353	C	0.519890	-0.168758	-0.058014
C354	C	0.494478	-0.221348	-0.060054
H355	H	0.354334	-0.284770	0.059307
H356	H	0.398557	-0.193250	0.062858
H357	H	0.503696	-0.119574	-0.011648
H358	H	0.564615	-0.137418	-0.089708
H359	H	0.520392	-0.228938	-0.093259
H360	H	0.082795	-0.015532	-0.328093
H361	H	-0.092389	-0.633058	0.501465
H362	H	0.083119	0.196425	0.459990
C363	C	-0.098925	0.203707	0.362933
C364	C	-0.161556	0.163981	0.384309
C365	C	-0.186852	0.166030	0.357019
C366	C	-0.149517	0.207805	0.308352
C367	C	-0.086882	0.247534	0.286974
C368	C	-0.061585	0.245485	0.314264
H369	H	-0.189198	0.133053	0.420337
H370	H	-0.233219	0.136619	0.372845
H371	H	-0.168243	0.209322	0.288151
H372	H	-0.059240	0.278461	0.250946
H373	H	-0.015218	0.274895	0.298438
H374	H	0.650823	-0.409073	-0.017773
H375	H	0.426826	-0.149279	-0.501527
C376	C	0.221396	0.195847	0.243403
C377	C	0.228275	0.154067	0.247863
C378	C	0.253516	0.152028	0.275212
C379	C	0.271877	0.191768	0.298101
C380	C	0.264999	0.233551	0.293641
C381	C	0.239758	0.235590	0.266292
H382	H	0.214682	0.124646	0.230919
H383	H	0.258608	0.121097	0.278513
H384	H	0.290562	0.190259	0.318346
H385	H	0.278592	0.262972	0.310585
H386	H	0.234666	0.266521	0.262991
H387	H	-0.656419	-0.542806	0.460050
C388	C	0.560778	0.245795	-0.314412
C389	C	0.598107	0.287582	-0.303086
C390	C	0.572808	0.289639	-0.250501
C391	C	0.510179	0.249909	-0.209242
C392	C	0.472846	0.208118	-0.220567
C393	C	0.498145	0.206061	-0.273152
H394	H	0.644472	0.316996	-0.333629
H395	H	0.600445	0.320576	-0.242117
H396	H	0.491451	0.251432	-0.170315
H397	H	0.426481	0.178705	-0.190024
H398	H	0.470508	0.175125	-0.281536
H399	H	-0.432649	-0.319058	0.236294
C400	C	0.657069	-0.263680	-0.017250
C401	C	0.681782	-0.221348	-0.060051
C402	C	0.706917	-0.168759	-0.058008
C403	C	0.707339	-0.158502	-0.013165
C404	C	0.682625	-0.200836	0.029639
C405	C	0.657490	-0.253425	0.027597
H406	H	0.681470	-0.228939	-0.093249
H407	H	0.725212	-0.137420	-0.089695
H408	H	0.725946	-0.119572	-0.011653
H409	H	0.682937	-0.193245	0.062838
H410	H	0.639195	-0.284763	0.059284
H411	H	0.048819	-0.479822	0.430995
H412	H	0.263311	-0.148659	0.017698
H413	H	-0.092091	-0.148651	0.017682
H414	H	0.214794	-0.319135	0.236028
C415	C	0.657052	0.081462	-0.515521
C416	C	0.657469	0.126725	-0.525771
C417	C	0.682604	0.153904	-0.578359
C418	C	0.707323	0.135821	-0.620697
C419	C	0.706907	0.090555	-0.610448
C420	C	0.681771	0.063376	-0.557860
H421	H	0.639170	0.140114	-0.494429
H422	H	0.682912	0.187413	-0.585946
H423	H	0.725929	0.155940	-0.659626
H424	H	0.725205	0.077166	-0.641791
H425	H	0.681463	0.029867	-0.550274
C426	C	0.561098	-0.464472	-0.025056
C427	C	0.536368	-0.506813	0.017746
C428	C	0.511228	-0.559400	0.015697
C429	C	0.510817	-0.569646	-0.029153
C430	C	0.535547	-0.527303	-0.071958
C431	C	0.560688	-0.474716	-0.069910
H432	H	0.536672	-0.499230	0.050949
H433	H	0.492921	-0.590745	0.047384
H434	H	0.492206	-0.608574	-0.030670
H435	H	0.535244	-0.534886	-0.105162
H436	H	0.578995	-0.443371	-0.101597
C437	C	-0.098945	-0.294331	0.017138
C438	C	-0.161576	-0.335585	0.056866
C439	C	-0.186874	-0.388171	0.054814
C440	C	-0.149541	-0.399503	0.013034
C441	C	-0.086905	-0.358247	-0.026697
C442	C	-0.061607	-0.305661	-0.024645
H443	H	-0.189216	-0.327198	0.087797
H444	H	-0.233241	-0.418711	0.084226
H445	H	-0.168268	-0.438430	0.011516
H446	H	-0.059266	-0.366635	-0.057628
H447	H	-0.015241	-0.275121	-0.054058
C448	C	0.041776	-0.486660	0.292462
C449	C	-0.019785	-0.505440	0.313649
C450	C	-0.046929	-0.531813	0.287235
C451	C	-0.012512	-0.539406	0.239636
C452	C	0.049053	-0.520626	0.218447
C453	C	0.076197	-0.494253	0.244860
H454	H	-0.045266	-0.499820	0.348887
H455	H	-0.092503	-0.545716	0.302921
H456	H	-0.032605	-0.558929	0.220083
H457	H	0.074534	-0.526246	0.183208
H458	H	0.121771	-0.480350	0.229174
C459	C	-0.342936	-0.263673	0.139296
C460	C	-0.280344	-0.222330	0.116430
C461	C	-0.255208	-0.169743	0.089246
C462	C	-0.292664	-0.158500	0.084928
C463	C	-0.355260	-0.199844	0.107795
C464	C	-0.380396	-0.252430	0.134978
H465	H	-0.252614	-0.230652	0.119626
H466	H	-0.208870	-0.139138	0.072319
H467	H	-0.274057	-0.119572	0.064805
H468	H	-0.382990	-0.191522	0.104599
H469	H	-0.426734	-0.283036	0.151906
H470	H	0.475671	0.245279	-0.236392
H471	H	0.048839	-0.078529	0.029694
H472	H	0.567341	-0.015529	-0.460129
C473	C	0.434070	0.237951	-0.515539
C474	C	0.399055	0.193102	-0.525786
C475	C	0.424464	0.191049	-0.578373
C476	C	0.484886	0.233845	-0.620712
C477	C	0.519904	0.278697	-0.610465
C478	C	0.494496	0.280750	-0.557879
H479	H	0.354324	0.161419	-0.494443
H480	H	0.398541	0.157846	-0.585958
H481	H	0.503695	0.232325	-0.659639
H482	H	0.564636	0.310380	-0.641808
H483	H	0.520419	0.313952	-0.550294
H484	H	0.083125	0.196403	0.235997
H485	H	-0.009175	0.196412	0.328294
C486	C	0.124400	0.081461	-0.362418
C487	C	0.117481	0.085795	-0.313723
C488	C	0.092070	0.112976	-0.286275
C489	C	0.073578	0.135824	-0.307522
C490	C	0.080496	0.131491	-0.356219
C491	C	0.105907	0.104309	-0.383667
H492	H	0.131171	0.068881	-0.297993
H493	H	0.086949	0.116184	-0.250226
H494	H	0.054767	0.155945	-0.287203
H495	H	0.066806	0.148405	-0.371950
H496	H	0.111028	0.101102	-0.419716
C497	C	-0.483348	-0.334225	0.292438
C498	C	-0.517754	-0.321054	0.284814
C499	C	-0.490596	-0.267507	0.258398
C500	C	-0.429031	-0.227131	0.239607
C501	C	-0.394622	-0.240301	0.247230
C502	C	-0.421780	-0.293848	0.273646
H503	H	-0.563331	-0.350943	0.298724
H504	H	-0.516068	-0.257757	0.252754
H505	H	-0.408927	-0.187492	0.220052
H506	H	-0.349045	-0.210412	0.233319
H507	H	-0.396308	-0.303598	0.279290
C508	C	0.125053	0.203671	0.138962
C509	C	0.106690	0.163933	0.116071
C510	C	0.081454	0.165979	0.088719
C511	C	0.074581	0.207763	0.084259
C512	C	0.092945	0.247504	0.107150
C513	C	0.118180	0.245458	0.134502
H514	H	0.111777	0.132999	0.119373
H515	H	0.067860	0.136560	0.071774
H516	H	0.055900	0.209278	0.064011
H517	H	0.087858	0.278438	0.103848
H518	H	0.131774	0.274877	0.151447
C519	C	-0.002665	-0.536055	0.467142
C520	C	0.022063	-0.554134	0.484750
C521	C	0.047203	-0.526953	0.512200
C522	C	0.047615	-0.481693	0.522042
C523	C	0.022886	-0.463612	0.504434
C524	C	-0.002254	-0.490793	0.476984
H525	H	0.021759	-0.587640	0.477465
H526	H	0.065509	-0.540338	0.525234
H527	H	0.066225	-0.461572	0.542362
H528	H	0.023190	-0.430105	0.511719
H529	H	-0.020561	-0.477408	0.463950
H530	H	0.343637	0.245252	-0.236107
H531	H	0.214829	-0.107212	0.024450
C532	C	-0.002636	-0.246359	-0.243171
C533	C	-0.002217	-0.256200	-0.288434
C534	C	0.022919	-0.283655	-0.315610
C535	C	0.047637	-0.301269	-0.297523
C536	C	0.047219	-0.291429	-0.252257
C537	C	0.022082	-0.263973	-0.225082
H538	H	-0.020516	-0.243161	-0.301826
H539	H	0.023229	-0.290940	-0.349118
H540	H	0.066244	-0.321593	-0.317640
H541	H	0.065517	-0.304468	-0.238866
H542	H	0.021773	-0.256689	-0.191573
H543	H	0.131609	0.203185	0.501440
C544	C	-0.098637	-0.639826	0.362319
C545	C	-0.123353	-0.621740	0.344702
C546	C	-0.148489	-0.648919	0.317249
C547	C	-0.148909	-0.694183	0.307413
C548	C	-0.124192	-0.712271	0.325031
C549	C	-0.099056	-0.685093	0.352484
H550	H	-0.123044	-0.588231	0.351982
H551	H	-0.166787	-0.635529	0.304207
H552	H	-0.167516	-0.714303	0.287091
H553	H	-0.124501	-0.745781	0.317750
H554	H	-0.080758	-0.698483	0.365526
H555	H	0.130950	-0.409702	0.501806
C556	C	0.221386	-0.022630	0.024976
C557	C	0.281758	-0.004675	-0.017819
C558	C	0.306993	-0.032026	-0.015766
C559	C	0.271855	-0.077332	0.029082
C560	C	0.211479	-0.095289	0.071880
C561	C	0.186245	-0.067939	0.069827
H562	H	0.307773	0.028865	-0.051020
H563	H	0.351687	-0.018732	-0.047448
H564	H	0.290535	-0.097579	0.030601
H565	H	0.185465	-0.128830	0.105082
H566	H	0.141550	-0.081232	0.101509
C567	C	0.277512	0.203674	0.362306
C568	C	0.277037	0.160865	0.344695
C569	C	0.331664	0.162899	0.317246
C570	C	0.386767	0.207741	0.307408
C571	C	0.387244	0.250553	0.325019
C572	C	0.332617	0.248519	0.352468
H573	H	0.236245	0.127668	0.351977
H574	H	0.331310	0.131207	0.304209
H575	H	0.427205	0.209246	0.287088
H576	H	0.428036	0.283750	0.317736
H577	H	0.332971	0.280211	0.365504
C578	C	-0.342627	-0.416163	0.138969
C579	C	-0.342168	-0.425881	0.093664
C580	C	-0.316867	-0.453169	0.066315
C581	C	-0.292026	-0.470739	0.084272
C582	C	-0.292484	-0.461022	0.129580
C583	C	-0.317785	-0.433734	0.156929
H584	H	-0.360558	-0.412874	0.080369
H585	H	-0.316528	-0.460362	0.032775
H586	H	-0.273297	-0.490939	0.064027
H587	H	-0.274094	-0.474028	0.142875
H588	H	-0.318124	-0.426540	0.190469
H589	H	0.509586	-0.078542	-0.431051
C590	C	-0.002647	-0.246342	0.024948
C591	C	0.022084	-0.263946	-0.017864
C592	C	0.047237	-0.291387	-0.015833
C593	C	0.047657	-0.301224	0.029010
C594	C	0.022925	-0.283619	0.071825
C595	C	-0.002228	-0.256178	0.069794
H596	H	0.021774	-0.256665	-0.051063
H597	H	0.065546	-0.304419	-0.047528
H598	H	0.066277	-0.321537	0.030514
H599	H	0.023235	-0.290901	0.105024
H600	H	-0.020537	-0.243146	0.101489
C601	C	0.277181	-0.264025	0.362979
C602	C	0.332203	-0.253855	0.353258
C603	C	0.386841	-0.201270	0.325970
C604	C	0.386456	-0.158855	0.308404
C605	C	0.331432	-0.169024	0.318125
C606	C	0.276794	-0.221609	0.345412
H607	H	0.332489	-0.285254	0.366262
H608	H	0.427573	-0.193742	0.318775
H609	H	0.426902	-0.119928	0.288204
H610	H	0.331146	-0.137624	0.305121
H611	H	0.236062	-0.229137	0.352608
C612	C	-0.002322	-0.093557	-0.243517
C613	C	0.060309	-0.052304	-0.266418
C614	C	0.085612	0.000280	-0.293776
C615	C	0.048285	0.011611	-0.298233
C616	C	-0.014349	-0.029644	-0.275331
C617	C	-0.039653	-0.082228	-0.247973
H618	H	0.087944	-0.060690	-0.263119
H619	H	0.131979	0.030820	-0.310729
H620	H	0.067016	0.050537	-0.318485
H621	H	-0.041985	-0.021258	-0.278630
H622	H	-0.086020	-0.112768	-0.231020
C623	C	0.364202	-0.224111	-0.292522
C624	C	0.309007	-0.237270	-0.284903
C625	C	0.256193	-0.290814	-0.258489
C626	C	0.258575	-0.331198	-0.239693
C627	C	0.313773	-0.318040	-0.247312
C628	C	0.366586	-0.264497	-0.273726
H629	H	0.307242	-0.207374	-0.298817
H630	H	0.215332	-0.300554	-0.252849
H631	H	0.219480	-0.370834	-0.220139
H632	H	0.315538	-0.347936	-0.233398
H633	H	0.407447	-0.254757	-0.279366
H634	H	0.131604	0.074708	0.017665
C635	C	0.221379	-0.312009	0.314672
C636	C	0.281796	-0.294397	0.272330
C637	C	0.307199	-0.266950	0.219742
C638	C	0.272185	-0.257113	0.209496
C639	C	0.211765	-0.274725	0.251839
C640	C	0.186362	-0.302173	0.304427
H641	H	0.307718	-0.301679	0.279914
H642	H	0.351926	-0.253912	0.188397
H643	H	0.290990	-0.236795	0.170567
H644	H	0.185843	-0.267444	0.244255
H645	H	0.141635	-0.315210	0.335772
C646	C	-0.002328	0.195883	0.467121
C647	C	0.060302	0.235615	0.445748
C648	C	0.085600	0.233566	0.473036
C649	C	0.048270	0.191786	0.521697
C650	C	-0.014363	0.152052	0.543073
C651	C	-0.039662	0.154100	0.515785
H652	H	0.087939	0.266545	0.409724
H653	H	0.131966	0.262980	0.457211
H654	H	0.066998	0.190270	0.541897
H655	H	-0.042001	0.121121	0.579097
H656	H	-0.086028	0.124686	0.531609
C657	C	0.277186	-0.264027	0.138992
C658	C	0.330300	-0.252696	0.134537
C659	C	0.384937	-0.200110	0.107188
C660	C	0.386459	-0.158854	0.084294
C661	C	0.333344	-0.170184	0.088748
C662	C	0.278707	-0.222770	0.116096
H663	H	0.329175	-0.283237	0.151486
H664	H	0.424256	-0.191723	0.103892
H665	H	0.426904	-0.119927	0.064049
H666	H	0.334469	-0.139643	0.071799
H667	H	0.239387	-0.231157	0.119393
C668	C	0.657369	0.081797	-0.363032
C669	C	0.720000	0.104698	-0.384407
C670	C	0.745297	0.132048	-0.357118
C671	C	0.707963	0.136496	-0.308454
C672	C	0.645329	0.113595	-0.287077
C673	C	0.620031	0.086245	-0.314366
H674	H	0.747640	0.101406	-0.420433
H675	H	0.791663	0.149001	-0.372943
H676	H	0.726690	0.156742	-0.288254
H677	H	0.617689	0.116887	-0.251051
H678	H	0.573665	0.069292	-0.298540
C679	C	0.277511	0.081472	0.017156
C680	C	0.330534	0.085798	-0.024622
C681	C	0.385165	0.112975	-0.026663
C682	C	0.386772	0.135827	0.013074
C683	C	0.333747	0.131502	0.054855
C684	C	0.279116	0.104324	0.056896
H685	H	0.329346	0.068881	-0.054040
H686	H	0.424418	0.116177	-0.057593
H687	H	0.427213	0.155945	0.011563
H688	H	0.334935	0.148418	0.084273
H689	H	0.239864	0.101123	0.087826
H690	H	0.475673	-0.542826	-0.024534
H691	H	0.082759	-0.451148	0.460071
C692	C	0.277510	0.203638	0.139309
C693	C	0.277027	0.160827	0.157398
C694	C	0.331653	0.162860	0.130228
C695	C	0.386763	0.207703	0.084969
C696	C	0.387248	0.250517	0.066877
C697	C	0.332622	0.248485	0.094047
H698	H	0.236230	0.127629	0.190904
H699	H	0.331294	0.131165	0.143620
H700	H	0.427200	0.209207	0.064856
H701	H	0.428045	0.283716	0.033372
H702	H	0.332981	0.280179	0.080655
C703	C	0.433381	-0.142184	-0.139048
C704	C	0.451741	-0.163557	-0.116154
C705	C	0.476977	-0.136270	-0.088803
C706	C	0.483854	-0.087611	-0.084348
C707	C	0.465493	-0.066236	-0.107243
C708	C	0.440257	-0.093522	-0.134593
H709	H	0.446651	-0.199579	-0.119451
H710	H	0.490569	-0.152094	-0.071855
H711	H	0.502535	-0.067412	-0.064102
H712	H	0.470583	-0.030213	-0.103946
H713	H	0.426665	-0.077698	-0.151542
C714	C	0.194249	-0.071697	-0.444986
C715	C	0.191877	-0.052898	-0.485377
C716	C	0.244689	-0.026504	-0.538923
C717	C	0.299873	-0.018909	-0.552078
C718	C	0.302247	-0.037708	-0.511687
C719	C	0.249435	-0.064102	-0.458141
H720	H	0.151025	-0.058519	-0.475639
H721	H	0.242931	-0.012587	-0.568823
H722	H	0.338967	0.000630	-0.591716
H723	H	0.343099	-0.032087	-0.521425
H724	H	0.251193	-0.078019	-0.428241
H725	H	0.377933	-0.479817	-0.029780
C726	C	-0.098615	-0.141530	-0.139418
C727	C	-0.061165	-0.092823	-0.135105
C728	C	-0.086305	-0.065367	-0.107939
C729	C	-0.148896	-0.086617	-0.085085
C730	C	-0.186349	-0.135326	-0.089398
C731	C	-0.161209	-0.162782	-0.116564
H732	H	-0.014829	-0.077090	-0.152023
H733	H	-0.058579	-0.029309	-0.104747
H734	H	-0.167506	-0.066292	-0.064975
H735	H	-0.232686	-0.151059	-0.072480
H736	H	-0.188935	-0.198840	-0.119756
C737	C	0.068922	-0.022297	0.024948
C738	C	0.015898	-0.026620	0.066719
C739	C	-0.038731	-0.053802	0.068758
C740	C	-0.040336	-0.076661	0.029025
C741	C	0.012690	-0.072339	-0.012750
C742	C	0.067319	-0.045158	-0.014789
H743	H	0.017085	-0.009697	0.096135
H744	H	-0.077984	-0.057001	0.099683
H745	H	-0.080776	-0.096783	0.030534
H746	H	0.011503	-0.089262	-0.042166
H747	H	0.106572	-0.041958	-0.045713
C748	C	0.489860	-0.311991	-0.025060
C749	C	0.491385	-0.333366	0.014669
C750	C	0.546023	-0.306082	0.012617
C751	C	0.599137	-0.257423	-0.029165
C752	C	0.597614	-0.236045	-0.068897
C753	C	0.542976	-0.263329	-0.066845
H754	H	0.452066	-0.369389	0.045601
H755	H	0.547150	-0.321908	0.042029
H756	H	0.639583	-0.237225	-0.030685
H757	H	0.636933	-0.200022	-0.099829
H758	H	0.541848	-0.247503	-0.096257
H759	H	0.343591	-0.239283	-0.236379
H760	H	0.475308	-0.107538	-0.236084
C761	C	0.434079	-0.639815	-0.017258
C762	C	0.452575	-0.662666	-0.056996
C763	C	0.477988	-0.689843	-0.054956
C764	C	0.484906	-0.694169	-0.013179
C765	C	0.466409	-0.671318	0.026562
C766	C	0.440996	-0.644141	0.024523
H767	H	0.447455	-0.659464	-0.087925
H768	H	0.491681	-0.706758	-0.084376
H769	H	0.503718	-0.714287	-0.011669
H770	H	0.471529	-0.674520	0.057491
H771	H	0.427303	-0.627225	0.053942
H772	H	0.180497	-0.078532	0.029700
H773	H	0.509606	-0.479813	-0.029789
H774	H	0.343587	-0.239282	-0.328064
H775	H	-0.092357	-0.280673	-0.146172
C776	C	0.281251	0.237989	-0.139075
C777	C	0.279732	0.277727	-0.116185
C778	C	0.225097	0.275683	-0.088838
C779	C	0.171982	0.233900	-0.084381
C780	C	0.173499	0.194159	-0.107272
C781	C	0.228133	0.196203	-0.134619
H782	H	0.319053	0.308660	-0.119483
H783	H	0.223974	0.305102	-0.071893
H784	H	0.131538	0.232386	-0.064138
H785	H	0.134178	0.163226	-0.103973
H786	H	0.229256	0.166784	-0.151564
C787	C	0.277227	0.081786	-0.515217
C788	C	0.278760	0.104687	-0.556476
C789	C	0.333402	0.132034	-0.609061
C790	C	0.386511	0.136482	-0.620386
C791	C	0.384980	0.113580	-0.579125
C792	C	0.330338	0.086233	-0.526540
H793	H	0.239445	0.101395	-0.548094
H794	H	0.334535	0.148987	-0.639605
H795	H	0.426960	0.156726	-0.659313
H796	H	0.424296	0.116872	-0.587508
H797	H	0.329205	0.069280	-0.495996
C798	C	-0.483365	-0.486665	0.292454
C799	C	-0.477815	-0.494285	0.244875
C800	C	-0.450680	-0.520697	0.218479
C801	C	-0.429094	-0.539491	0.239663
C802	C	-0.434643	-0.531872	0.287245
C803	C	-0.461779	-0.505459	0.313641
H804	H	-0.493794	-0.480372	0.229191
H805	H	-0.446572	-0.526337	0.183255
H806	H	-0.409007	-0.559044	0.220123
H807	H	-0.418664	-0.545785	0.302929
H808	H	-0.465887	-0.499819	0.348865
C809	C	0.657060	0.237970	-0.362386
C810	C	0.619609	0.196198	-0.313687
C811	C	0.644746	0.194161	-0.286234
C812	C	0.707334	0.233897	-0.307479
C813	C	0.744789	0.275672	-0.356180
C814	C	0.719652	0.277709	-0.383633
H815	H	0.573274	0.166780	-0.297958
H816	H	0.617019	0.163236	-0.250182
H817	H	0.725942	0.232389	-0.287156
H818	H	0.791124	0.305090	-0.371909
H819	H	0.747378	0.308634	-0.419685
C820	C	0.281247	-0.640155	-0.017230
C821	C	0.226226	-0.685456	0.027621
C822	C	0.171587	-0.712807	0.029674
C823	C	0.171969	-0.694855	-0.013123
C824	C	0.226992	-0.649552	-0.057978
C825	C	0.281631	-0.622202	-0.060031
H826	H	0.225941	-0.698747	0.059305
H827	H	0.130856	-0.746343	0.062879
H828	H	0.131522	-0.715102	-0.011603
H829	H	0.227277	-0.636261	-0.089662
H830	H	0.322363	-0.588665	-0.093236
H831	H	0.082759	-0.451145	0.236317
H832	H	0.048852	-0.210211	-0.299410
H833	H	-0.008914	-0.107205	0.024432
H834	H	-0.524342	-0.319055	0.327978
H835	H	0.567616	-0.015243	-0.328388
H836	H	-0.572540	-0.277321	0.369424
H837	H	0.509599	-0.348154	-0.029780
H838	H	0.048864	-0.078540	-0.299417
C839	C	-0.719094	-0.639795	0.515446
C840	C	-0.718630	-0.621708	0.557782
C841	C	-0.773265	-0.648884	0.610371
C842	C	-0.828363	-0.694147	0.620624
C843	C	-0.828829	-0.712237	0.578287
C844	C	-0.774195	-0.685060	0.525698
H845	H	-0.677842	-0.588199	0.550194
H846	H	-0.772920	-0.635493	0.641712
H847	H	-0.868807	-0.714265	0.659553
H848	H	-0.869618	-0.745745	0.585876
H849	H	-0.774540	-0.698452	0.494357
C850	C	0.337045	-0.536049	-0.025045
C851	C	0.330122	-0.531727	-0.066820
C852	C	0.304714	-0.504545	-0.068861
C853	C	0.286229	-0.481686	-0.029128
C854	C	0.293152	-0.486008	0.012649
C855	C	0.318560	-0.513190	0.014690
H856	H	0.343806	-0.548649	-0.096235
H857	H	0.299590	-0.501346	-0.099788
H858	H	0.267421	-0.461565	-0.030640
H859	H	0.279468	-0.469086	0.042064
H860	H	0.323684	-0.516389	0.045617
C861	C	0.277540	-0.141548	-0.515544
C862	C	0.277077	-0.123931	-0.557882
C863	C	0.331711	-0.096480	-0.610470
C864	C	0.386809	-0.086646	-0.620722
C865	C	0.387275	-0.104263	-0.578383
C866	C	0.332640	-0.131714	-0.525795
H867	H	0.236288	-0.131210	-0.550294
H868	H	0.331367	-0.083438	-0.641812
H869	H	0.427253	-0.066324	-0.659651
H870	H	0.428063	-0.096984	-0.585971
H871	H	0.332985	-0.144756	-0.494453
H872	H	-0.573175	-0.633035	0.370052
C873	C	0.125061	-0.294349	-0.363051
C874	C	0.106707	-0.335606	-0.384424
C875	C	0.081469	-0.388191	-0.357134
C876	C	0.074585	-0.399518	-0.308471
C877	C	0.092940	-0.358260	-0.287095
C878	C	0.118178	-0.305675	-0.314386
H879	H	0.111802	-0.327222	-0.420450
H880	H	0.067881	-0.418734	-0.372958
H881	H	0.055902	-0.438445	-0.288269
H882	H	0.087845	-0.366644	-0.251070
H883	H	0.131766	-0.275132	-0.298562
H884	H	0.567355	-0.319073	-0.024528
H885	H	-0.008926	-0.542833	0.328001
C886	C	-0.635800	-0.486659	0.444880
C887	C	-0.633427	-0.465482	0.485269
C888	C	-0.686239	-0.491893	0.538815
C889	C	-0.741423	-0.539481	0.551972
C890	C	-0.743798	-0.560661	0.511582
C891	C	-0.690986	-0.534250	0.458036
H892	H	-0.592574	-0.430252	0.475530
H893	H	-0.684481	-0.476214	0.568714
H894	H	-0.780518	-0.559032	0.591610
H895	H	-0.784651	-0.595891	0.521321
H896	H	-0.692744	-0.549929	0.428137
H897	H	0.343629	-0.450820	-0.024499
C898	C	-0.718775	-0.416144	0.515102
C899	C	-0.720307	-0.394770	0.556360
C900	C	-0.774949	-0.422057	0.608945
C901	C	-0.828058	-0.470718	0.620272
C902	C	-0.826527	-0.492094	0.579012
C903	C	-0.771886	-0.464807	0.526427
H904	H	-0.680991	-0.358747	0.547976
H905	H	-0.776081	-0.406233	0.639488
H906	H	-0.868507	-0.490918	0.659198
H907	H	-0.865844	-0.528118	0.587396
H908	H	-0.770753	-0.480632	0.495884
C909	C	0.364223	0.250717	-0.292556
C910	C	0.366603	0.293485	-0.273763
C911	C	0.313796	0.294227	-0.247370
C912	C	0.258609	0.252201	-0.239770
C913	C	0.256227	0.209429	-0.258563
C914	C	0.309034	0.208687	-0.284956
H915	H	0.407458	0.324599	-0.279388
H916	H	0.315560	0.325890	-0.233457
H917	H	0.219518	0.252750	-0.220232
H918	H	0.215372	0.178315	-0.252938
H919	H	0.307270	0.177024	-0.298869
H920	H	0.180492	-0.348160	0.299327
H921	H	0.214828	-0.015253	-0.460105
H922	H	-0.656382	-0.450794	0.459992
H923	H	0.214866	-0.107227	-0.460154
C924	C	0.041793	0.190940	0.292443
C925	C	0.020202	0.148170	0.273651
C926	C	-0.006949	0.147426	0.247253
C927	C	-0.012508	0.189452	0.239648
C928	C	0.009084	0.232225	0.258441
C929	C	0.036234	0.232970	0.284838
H930	H	0.024316	0.117057	0.279280
H931	H	-0.022932	0.115762	0.233341
H932	H	-0.032606	0.188901	0.220107
H933	H	0.004969	0.263338	0.252811
H934	H	0.052217	0.264634	0.298750
H935	H	0.083127	-0.239238	-0.328411
H936	H	-0.524683	-0.543097	0.328313
H937	H	0.509600	0.250519	-0.299402
C938	C	0.516644	0.250689	-0.444973
C939	C	0.522186	0.208653	-0.458130
C940	C	0.549319	0.209381	-0.511675
C941	C	0.570910	0.252145	-0.552062
C942	C	0.565369	0.294185	-0.538906
C943	C	0.538236	0.293457	-0.485362
H944	H	0.506202	0.176993	-0.428232
H945	H	0.553420	0.178260	-0.521413
H946	H	0.590996	0.252684	-0.591699
H947	H	0.581353	0.325845	-0.568805
H948	H	0.534134	0.324578	-0.475623
H949	H	0.427472	0.238538	-0.146464
C950	C	0.657372	0.237925	-0.515188
C951	C	0.620035	0.196140	-0.526510
C952	C	0.645329	0.194076	-0.579093
C953	C	0.707960	0.233799	-0.620353
C954	C	0.745301	0.275587	-0.609032
C955	C	0.720007	0.277651	-0.556449
H956	H	0.573668	0.166733	-0.495966
H957	H	0.617687	0.163142	-0.587473
H958	H	0.726685	0.232271	-0.659278
H959	H	0.791668	0.304994	-0.639577
H960	H	0.747650	0.308585	-0.548069
H961	H	0.567625	0.245225	-0.460086
H962	H	0.475667	0.245239	-0.460144
H963	H	0.343643	0.245246	-0.328410
H964	H	0.048850	0.191152	0.430962
H965	H	0.180516	0.191143	0.299303
H966	H	0.214842	0.196391	0.327982
