data_functionalizedCrystal
_audit_creation_method	'MofGen! by Chris Wilmer'
_symmetry_space_group_name_H-M	'P1'
_symmetry_Int_Tables_number	1
_symmetry_cell_setting	triclinic
loop_
_symmetry_equiv_pos_as_xyz
  x,y,z
_cell_length_a	21.395362
_cell_length_b	13.897448
_cell_length_c	13.897449
_cell_angle_alpha	90.009266
_cell_angle_beta	90.024426
_cell_angle_gamma	90.033571
loop_
_atom_site_label
_atom_site_type_symbol
_atom_site_fract_x
_atom_site_fract_y
_atom_site_fract_z
Zn1	Zn	0.957795	-0.383779	0.545910
Zn2	Zn	1.207795	-0.133779	0.795910
Zn3	Zn	1.457795	0.116221	1.045910
Zn4	Zn	1.707795	0.366221	1.295910
Zn5	Zn	0.957757	-0.545040	0.384611
Zn6	Zn	1.207757	-0.295040	0.634611
Zn7	Zn	1.457757	-0.045040	0.884611
Zn8	Zn	1.707757	0.204960	1.134611
Zn9	Zn	0.853046	-0.383805	0.384570
Zn10	Zn	1.103046	-0.133805	0.634570
Zn11	Zn	1.353046	0.116195	0.884570
Zn12	Zn	1.603046	0.366195	1.134570
Zn13	Zn	0.853003	-0.545078	0.545806
Zn14	Zn	1.103003	-0.295078	0.795806
Zn15	Zn	1.353003	-0.045078	1.045806
Zn16	Zn	1.603003	0.204922	1.295806
O17	O	0.905400	-0.464426	0.465224
O18	O	1.155400	-0.214426	0.715224
O19	O	1.405400	0.035574	0.965224
O20	O	1.655400	0.285574	1.215224
O21	O	1.045468	-0.405143	0.524574
O22	O	1.295468	-0.155143	0.774574
O23	O	1.545468	0.094857	1.024574
O24	O	1.795468	0.344857	1.274574
O25	O	0.943869	-0.523647	0.249624
O26	O	1.193869	-0.273647	0.499624
O27	O	1.443869	-0.023647	0.749624
O28	O	1.693869	0.226353	0.999624
O29	O	0.866975	-0.248820	0.405999
O30	O	1.116975	0.001180	0.655999
O31	O	1.366975	0.251180	0.905999
O32	O	1.616975	0.501180	1.155999
O33	O	1.045440	-0.523621	0.406068
O34	O	1.295440	-0.273621	0.656068
O35	O	1.545440	-0.023621	0.906068
O36	O	1.795440	0.226379	1.156068
O37	O	0.943934	-0.248800	0.524534
O38	O	1.193934	0.001200	0.774534
O39	O	1.443934	0.251200	1.024534
O40	O	1.693934	0.501200	1.274534
O41	O	0.866938	-0.405189	0.249594
O42	O	1.116938	-0.155189	0.499594
O43	O	1.366938	0.094811	0.749594
O44	O	1.616938	0.344811	0.999594
O45	O	0.765362	-0.405226	0.405898
O46	O	1.015362	-0.155226	0.655898
O47	O	1.265362	0.094774	0.905898
O48	O	1.515362	0.344774	1.155898
O49	O	0.866902	-0.523686	0.680801
O50	O	1.116902	-0.273686	0.930801
O51	O	1.366902	-0.023686	1.180801
O52	O	1.616902	0.226314	1.430801
O53	O	0.765331	-0.523712	0.524357
O54	O	1.015331	-0.273712	0.774357
O55	O	1.265331	-0.023712	1.024357
O56	O	1.515331	0.226288	1.274357
O57	O	0.943892	-0.405180	0.680878
O58	O	1.193892	-0.155180	0.930878
O59	O	1.443892	0.094820	1.180878
O60	O	1.693892	0.344820	1.430878
O61	O	0.943828	-0.680027	0.405968
O62	O	1.193828	-0.430027	0.655968
O63	O	1.443828	-0.180027	0.905968
O64	O	1.693828	0.069973	1.155968
O65	O	0.866865	-0.680055	0.524397
O66	O	1.116865	-0.430055	0.774397
O67	O	1.366865	-0.180055	1.024397
O68	O	1.616865	0.069945	1.274397
C69	C	0.742613	-0.464477	0.465112
C70	C	0.992613	-0.214477	0.715112
C71	C	1.242613	0.035523	0.965112
C72	C	1.492613	0.285523	1.215112
C73	C	0.672972	-0.464522	0.465087
C74	C	0.922972	-0.214522	0.715087
C75	C	1.172972	0.035478	0.965087
C76	C	1.422972	0.285478	1.215087
C77	C	0.640259	-0.526299	0.526677
C78	C	0.890259	-0.276299	0.776677
C79	C	1.140259	-0.026299	1.026677
C80	C	1.390259	0.223701	1.276677
C81	C	0.574823	-0.526275	0.526720
C82	C	0.824823	-0.276275	0.776720
C83	C	1.074823	-0.026275	1.026720
C84	C	1.324823	0.223725	1.276720
C85	C	0.542103	-0.464484	0.465156
C86	C	0.792103	-0.214484	0.715156
C87	C	1.042103	0.035516	0.965156
C88	C	1.292103	0.285516	1.215156
C89	C	0.574824	-0.402695	0.403563
C90	C	0.824824	-0.152695	0.653563
C91	C	1.074824	0.097305	0.903563
C92	C	1.324824	0.347305	1.153563
C93	C	0.640258	-0.402714	0.403528
C94	C	0.890258	-0.152714	0.653528
C95	C	1.140258	0.097286	0.903528
C96	C	1.390258	0.347286	1.153528
C97	C	0.438397	-0.456704	0.378319
C98	C	0.688397	-0.206704	0.628319
C99	C	0.938397	0.043296	0.878319
C100	C	1.188397	0.293296	1.128319
C101	C	0.372964	-0.456692	0.378352
C102	C	0.622964	-0.206692	0.628352
C103	C	0.872964	0.043308	0.878352
C104	C	1.122964	0.293308	1.128352
C105	C	0.340283	-0.464422	0.465263
C106	C	0.590283	-0.214422	0.715263
C107	C	0.840283	0.035578	0.965263
C108	C	1.090283	0.285578	1.215263
C109	C	0.373042	-0.472183	0.552143
C110	C	0.623042	-0.222183	0.802143
C111	C	0.873042	0.027817	1.052143
C112	C	1.123042	0.277817	1.302143
C113	C	0.438477	-0.472201	0.552109
C114	C	0.688477	-0.222201	0.802109
C115	C	0.938477	0.027799	1.052109
C116	C	1.188477	0.277799	1.302109
C117	C	0.471151	-0.464457	0.465187
C118	C	0.721151	-0.214457	0.715187
C119	C	0.971151	0.035543	0.965187
C120	C	1.221151	0.285543	1.215187
C121	C	0.236617	-0.526177	0.526904
C122	C	0.486617	-0.276177	0.776904
C123	C	0.736617	-0.026177	1.026904
C124	C	0.986617	0.223823	1.276904
C125	C	0.171180	-0.526146	0.526948
C126	C	0.421180	-0.276146	0.776948
C127	C	0.671180	-0.026146	1.026948
C128	C	0.921180	0.223854	1.276948
C129	C	0.171183	-0.402571	0.403783
C130	C	0.421183	-0.152571	0.653783
C131	C	0.671183	0.097429	0.903783
C132	C	0.921183	0.347429	1.153783
C133	C	0.236618	-0.402596	0.403747
C134	C	0.486618	-0.152596	0.653747
C135	C	0.736618	0.097404	0.903747
C136	C	0.986618	0.347404	1.153747
C137	C	0.269331	-0.464404	0.465306
C138	C	0.519331	-0.214404	0.715306
C139	C	0.769331	0.035596	0.965306
C140	C	1.019331	0.285596	1.215306
C141	C	0.905355	-0.715040	0.465196
C142	C	1.155355	-0.465040	0.715196
C143	C	1.405355	-0.215040	0.965196
C144	C	1.655355	0.034960	1.215196
C145	C	0.905393	-0.822254	0.465217
C146	C	1.155393	-0.572254	0.715217
C147	C	1.405393	-0.322254	0.965217
C148	C	1.655393	-0.072254	1.215217
C149	C	0.905458	-1.018549	0.465277
C150	C	1.155458	-0.768549	0.715277
C151	C	1.405458	-0.518549	0.965277
C152	C	1.655458	-0.268549	1.215277
C153	C	0.905420	-0.909316	0.465246
C154	C	1.155420	-0.659316	0.715246
C155	C	1.405420	-0.409316	0.965246
C156	C	1.655420	-0.159316	1.215246
C157	C	1.068824	-0.464375	0.465337
C158	C	1.318824	-0.214375	0.715337
C159	C	1.568824	0.035625	0.965337
C160	C	1.818824	0.285625	1.215337
C161	C	1.138465	-0.464353	0.465385
C162	C	1.388465	-0.214353	0.715385
C163	C	1.638465	0.035647	0.965385
C164	C	1.888465	0.285647	1.215385
C165	C	0.905397	-0.464434	0.716817
C166	C	1.155397	-0.214434	0.966817
C167	C	1.405397	0.035566	1.216817
C168	C	1.655397	0.285566	1.466817
C169	C	0.905395	-0.464438	0.824031
C170	C	1.155395	-0.214438	1.074031
C171	C	1.405395	0.035562	1.324031
C172	C	1.655395	0.285562	1.574031
C173	C	0.905463	-0.212833	0.465273
C174	C	1.155463	0.037167	0.715273
C175	C	1.405463	0.287167	0.965273
C176	C	1.655463	0.537167	1.215273
C177	C	0.905490	-0.105619	0.465294
C178	C	1.155490	0.144381	0.715294
C179	C	1.405490	0.394381	0.965294
C180	C	1.655490	0.644381	1.215294
C181	C	0.905394	-0.464441	0.911101
C182	C	1.155394	-0.214441	1.161101
C183	C	1.405394	0.035559	1.411101
C184	C	1.655394	0.285559	1.661101
C185	C	0.905393	-0.464437	1.020333
C186	C	1.155393	-0.214437	1.270333
C187	C	1.405393	0.035563	1.520333
C188	C	1.655393	0.285563	1.770333
C189	C	0.905398	-0.464437	1.214610
C190	C	1.155398	-0.214437	1.464610
C191	C	1.405398	0.035563	1.714610
C192	C	1.655398	0.285563	1.964610
C193	C	0.905396	-0.464428	1.107396
C194	C	1.155396	-0.214428	1.357396
C195	C	1.405396	0.035572	1.607396
C196	C	1.655396	0.285572	1.857396
H197	H	0.465147	-0.478518	0.622851
H198	H	0.715147	-0.228518	0.872851
H199	H	0.965147	0.021482	1.122851
H200	H	1.215147	0.271482	1.372851
H201	H	0.465000	-0.450406	0.307541
H202	H	0.715000	-0.200406	0.557541
H203	H	0.965000	0.049594	0.807541
H204	H	1.215000	0.299594	1.057541
H205	H	0.666893	-0.352404	0.353375
H206	H	0.916893	-0.102404	0.603375
H207	H	1.166893	0.147596	0.853375
H208	H	1.416893	0.397596	1.103375
Cl209	Cl	0.331787	-0.446934	0.269132
Cl210	Cl	0.581787	-0.196934	0.519132
Cl211	Cl	0.831787	0.053066	0.769132
Cl212	Cl	1.081787	0.303066	1.019132
H213	H	0.346435	-0.478475	0.622915
H214	H	0.596435	-0.228475	0.872915
H215	H	0.846435	0.021525	1.122915
H216	H	1.096435	0.271525	1.372915
H217	H	0.548179	-0.352383	0.353439
H218	H	0.798179	-0.102383	0.603439
H219	H	1.048179	0.147617	0.853439
H220	H	1.298179	0.397617	1.103439
H221	H	0.144547	-0.576451	0.577108
H222	H	0.394547	-0.326451	0.827108
H223	H	0.644547	-0.076451	1.077108
H224	H	0.894547	0.173549	1.327108
H225	H	0.666890	-0.576627	0.576804
H226	H	0.916890	-0.326627	0.826804
H227	H	1.166890	-0.076627	1.076804
H228	H	1.416890	0.173373	1.326804
H229	H	0.263254	-0.576499	0.577034
H230	H	0.513254	-0.326499	0.827034
H231	H	0.763254	-0.076499	1.077034
H232	H	1.013254	0.173501	1.327034
Cl233	Cl	0.130055	-0.324884	0.326393
Cl234	Cl	0.380055	-0.074884	0.576393
Cl235	Cl	0.630055	0.175116	0.826393
Cl236	Cl	0.880055	0.425116	1.076393
Cl237	Cl	0.533689	-0.603945	0.604152
Cl238	Cl	0.783689	-0.353945	0.854152
Cl239	Cl	1.033689	-0.103945	1.104152
Cl240	Cl	1.283689	0.146055	1.354152
Cl241	Cl	0.277745	-0.324931	0.326313
Cl242	Cl	0.527745	-0.074931	0.576313
Cl243	Cl	0.777745	0.175069	0.826313
Cl244	Cl	1.027745	0.425069	1.076313
