data_functionalizedCrystal
_audit_creation_method	'MofGen! by Chris Wilmer'
_symmetry_space_group_name_H-M	'P1'
_symmetry_Int_Tables_number	1
_symmetry_cell_setting	triclinic
loop_
_symmetry_equiv_pos_as_xyz
  x,y,z
_cell_length_a	14.044220
_cell_length_b	10.723024
_cell_length_c	9.798715
_cell_angle_alpha	90.001978
_cell_angle_beta	89.998844
_cell_angle_gamma	88.828374
loop_
_atom_site_label
_atom_site_type_symbol
_atom_site_fract_x
_atom_site_fract_y
_atom_site_fract_z
O1	O	-1.259663	-0.301050	-0.113339
O2	O	-0.759663	0.198950	0.386661
O3	O	-0.983624	-0.290186	-0.113374
O4	O	-0.483624	0.209814	0.386626
O5	O	-1.128011	-0.114679	-0.113351
O6	O	-0.628011	0.385321	0.386649
O7	O	-1.115276	-0.476557	-0.113363
O8	O	-0.615276	0.023443	0.386637
O9	O	-1.128000	-0.114677	0.113631
O10	O	-0.628000	0.385323	0.613631
O11	O	-0.983613	-0.290184	0.113608
O12	O	-0.483613	0.209816	0.613608
O13	O	-1.259653	-0.301048	0.113643
O14	O	-0.759653	0.198952	0.613643
Zn15	Zn	-1.121631	-0.295616	0.149664
Zn16	Zn	-0.621631	0.204384	0.649664
Zn17	Zn	-1.121645	-0.295618	-0.149395
Zn18	Zn	-0.621645	0.204382	0.350605
O19	O	-1.115265	-0.476555	0.113620
O20	O	-0.615265	0.023445	0.613620
C21	C	-0.948273	-0.285430	0.000112
C22	C	-0.448273	0.214570	0.500112
C23	C	-0.842955	-0.271245	0.000099
C24	C	-0.342955	0.228755	0.500099
C25	C	-1.127079	-0.068086	0.000138
C26	C	-0.627079	0.431914	0.500138
C27	C	-1.124306	0.070746	0.000133
C28	C	-0.624306	0.570746	0.500133
C29	C	-1.295003	-0.305804	0.000153
C30	C	-0.795003	0.194196	0.500153
C31	C	-1.400321	-0.319989	0.000157
C32	C	-0.900321	0.180011	0.500157
C33	C	-0.650125	-0.245313	0.000127
C34	C	-0.150125	0.254687	0.500127
C35	C	-0.593146	-0.345915	0.000130
C36	C	-0.093146	0.154085	0.500130
C37	C	-0.485848	-0.331486	0.000145
C38	C	0.014152	0.168514	0.500145
C39	C	-0.757432	-0.259740	0.000112
C40	C	-0.257432	0.240260	0.500112
C41	C	-1.116197	-0.523149	0.000127
C42	C	-0.616197	-0.023149	0.500127
C43	C	-1.118970	-0.661980	0.000123
C44	C	-0.618970	-0.161980	0.500123
N45	N	-1.121628	-0.295615	0.353763
N46	N	-0.621628	0.204385	0.853763
C47	C	-1.205097	0.137646	0.000142
C48	C	-0.705097	0.637646	0.500142
C49	C	-1.202234	0.281136	0.000136
C50	C	-0.702234	0.781136	0.500136
N51	N	-1.121655	-0.295610	-0.353495
N52	N	-0.621655	0.204390	0.146505
C53	C	-1.182252	-0.221572	0.421550
C54	C	-0.682252	0.278428	0.921550
C55	C	-1.182268	-0.221570	0.578713
C56	C	-0.682268	0.278430	1.078713
H57	H	-0.624947	-0.442880	0.000120
H58	H	-0.124947	0.057120	0.500120
Br59	Br	-0.597123	-0.083708	0.000139
Br60	Br	-0.097123	0.416292	0.500139
Br61	Br	-1.268505	-0.115575	0.324365
Br62	Br	-0.768505	0.384425	0.824365
H63	H	-1.276386	0.088691	0.000159
H64	H	-0.776386	0.588691	0.500159
H65	H	-1.049803	0.280515	0.000126
H66	H	-0.549803	0.780515	0.500126
Br67	Br	-1.005479	0.152326	0.000099
Br68	Br	-0.505479	0.652326	0.500099
H69	H	-1.234174	-0.158184	0.637006
H70	H	-0.734174	0.341816	1.137006
Br71	Br	-1.035126	-0.401261	0.450948
Br72	Br	-0.535126	0.098739	0.950948
H73	H	-1.271397	0.338649	0.000149
H74	H	-0.771397	0.838649	0.500149
H75	H	-1.069753	-0.359009	0.588220
H76	H	-0.569753	0.140991	1.088220
