data_functionalizedCrystal
_audit_creation_method	'MofGen! by Chris Wilmer'
_symmetry_space_group_name_H-M	'P1'
_symmetry_Int_Tables_number	1
_symmetry_cell_setting	triclinic
loop_
_symmetry_equiv_pos_as_xyz
  x,y,z
_cell_length_a	17.699083
_cell_length_b	10.540539
_cell_length_c	16.776229
_cell_angle_alpha	89.995514
_cell_angle_beta	89.998886
_cell_angle_gamma	83.904253
loop_
_atom_site_label
_atom_site_type_symbol
_atom_site_fract_x
_atom_site_fract_y
_atom_site_fract_z
O1	O	1.005122	0.160520	-0.066173
O2	O	1.505122	0.660520	0.433827
O3	O	0.784880	0.181404	-0.066198
O4	O	1.284880	0.681404	0.433802
O5	O	0.900026	-0.013836	-0.066184
O6	O	1.400026	0.486164	0.433816
O7	O	0.889976	0.355761	-0.066187
O8	O	1.389976	0.855761	0.433813
O9	O	0.900010	-0.013848	0.066393
O10	O	1.400010	0.486152	0.566393
O11	O	0.784864	0.181392	0.066378
O12	O	1.284864	0.681392	0.566378
O13	O	1.005107	0.160508	0.066404
O14	O	1.505107	0.660508	0.566404
Zn15	Zn	0.894983	0.170948	0.087440
Zn16	Zn	1.394983	0.670948	0.587440
Zn17	Zn	0.895003	0.170964	-0.087235
Zn18	Zn	1.395003	0.670964	0.412765
O19	O	0.889961	0.355749	0.066389
O20	O	1.389961	0.855749	0.566389
C21	C	0.756670	0.180650	0.000087
C22	C	1.256670	0.680650	0.500087
C23	C	0.672637	0.178405	0.000077
C24	C	1.172637	0.678405	0.500077
C25	C	0.624761	0.293007	0.000076
C26	C	1.124761	0.793007	0.500076
C27	C	0.545804	0.290890	0.000086
C28	C	1.045804	0.790890	0.500086
C29	C	0.514725	0.174170	0.000092
C30	C	1.014725	0.674170	0.500092
C31	C	0.562607	0.059559	0.000095
C32	C	1.062607	0.559559	0.500095
C33	C	0.641562	0.061677	0.000090
C34	C	1.141562	0.561677	0.500090
C35	C	0.244188	0.051014	0.000115
C36	C	0.744188	0.551014	0.500115
C37	C	0.165226	0.048904	0.000117
C38	C	0.665226	0.548904	0.500117
C39	C	0.148430	0.280227	0.000111
C40	C	0.648430	0.780227	0.500111
C41	C	0.227386	0.282345	0.000106
C42	C	0.727386	0.782345	0.500106
C43	C	0.275261	0.167735	0.000113
C44	C	0.775261	0.667735	0.500113
C45	C	0.360875	0.170032	0.000104
C46	C	0.860875	0.670032	0.500104
C47	C	0.429112	0.171872	0.000096
C48	C	0.929112	0.671872	0.500096
C49	C	0.899264	-0.061131	0.000103
C50	C	1.399264	0.438869	0.500103
C51	C	0.897009	-0.202038	0.000098
C52	C	1.397009	0.297962	0.500098
C53	C	0.810610	-0.383885	-0.000209
C54	C	1.310610	0.116115	0.499791
C55	C	0.812896	-0.237308	0.000089
C56	C	1.312896	0.262692	0.500089
C57	C	0.937480	-0.264443	0.075811
C58	C	1.437480	0.235557	0.575811
C59	C	0.934609	-0.410935	0.075874
C60	C	1.434609	0.089065	0.575874
C61	C	0.936337	-0.411471	-0.074890
C62	C	1.436337	0.088529	0.425110
C63	C	0.937112	-0.264503	-0.075891
C64	C	1.437112	0.235497	0.424109
C65	C	1.033316	0.161263	0.000117
C66	C	1.533316	0.661263	0.500117
C67	C	1.117349	0.163508	0.000122
C68	C	1.617349	0.663508	0.500122
C69	C	0.890722	0.403044	0.000101
C70	C	1.390722	0.903044	0.500101
C71	C	0.892977	0.543951	0.000100
C72	C	1.392977	1.043951	0.500100
N73	N	0.894974	0.170937	0.206652
N74	N	1.394974	0.670937	0.706652
N75	N	0.895018	0.170966	-0.206446
N76	N	1.395018	0.670966	0.293554
C77	C	0.945977	0.084520	0.248375
C78	C	1.445977	0.584520	0.748375
C79	C	0.945981	0.084519	0.331827
C80	C	1.445981	0.584519	0.831827
C81	C	0.894986	0.170942	0.373555
C82	C	1.394986	0.670942	0.873555
C83	C	0.843978	0.257363	0.331825
C84	C	1.343978	0.757363	0.831825
C85	C	0.843971	0.257357	0.248375
C86	C	1.343971	0.757357	0.748375
C87	C	0.844005	0.257388	0.668372
C88	C	1.344005	0.757388	1.168372
C89	C	0.844018	0.257390	0.751829
C90	C	1.344018	0.757390	1.251829
C91	C	0.946016	0.084550	0.751825
C92	C	1.446016	0.584550	1.251825
C93	C	0.946009	0.084544	0.668374
C94	C	1.446009	0.584544	1.168374
C95	C	0.894998	0.170960	0.626652
C96	C	1.394998	0.670960	1.126652
C97	C	0.894993	0.170958	0.536164
C98	C	1.394993	0.670958	1.036164
C99	C	0.894994	0.170950	0.464041
C100	C	1.394994	0.670950	0.964041
H101	H	0.650060	0.388054	0.000071
H102	H	1.150060	0.888054	0.500071
H103	H	0.506826	0.384211	0.000085
H104	H	1.006826	0.884211	0.500085
H105	H	0.909354	-0.221334	0.132147
H106	H	1.409354	0.278666	0.632147
H107	H	0.987549	0.014181	0.785804
H108	H	1.487549	0.514181	1.285804
C109	C	1.016323	-0.477244	0.080545
C110	C	1.516323	0.022756	0.580545
H111	H	1.015123	-0.567139	0.080613
H112	H	1.515123	-0.067139	0.580613
H113	H	1.039766	-0.452155	0.128116
H114	H	1.539766	0.047845	0.628116
H115	H	1.044486	-0.453354	0.035779
H116	H	1.544486	0.046646	0.535779
H117	H	0.999250	-0.243219	0.078633
H118	H	1.499250	0.256781	0.578633
C119	C	1.019959	-0.233309	-0.082059
C120	C	1.519959	0.266691	0.417941
H121	H	1.031228	-0.181558	-0.038172
H122	H	1.531228	0.318442	0.461828
H123	H	1.026617	-0.188838	-0.130378
H124	H	1.526617	0.311162	0.369622
H125	H	1.053150	-0.310298	-0.081411
H126	H	1.553150	0.189702	0.418589
H127	H	0.802472	0.327753	0.634409
H128	H	1.302472	0.827753	1.134409
C129	C	1.018407	-0.476778	-0.075577
C130	C	1.518407	0.023222	0.424423
H131	H	1.026240	-0.530956	-0.030412
H132	H	1.526240	-0.030956	0.469588
H133	H	1.052942	-0.413724	-0.073913
H134	H	1.552942	0.086276	0.426087
H135	H	1.026664	-0.525973	-0.122825
H136	H	1.526664	-0.025973	0.377175
C137	C	0.528425	-0.068834	0.000100
C138	C	1.028425	0.431166	0.500100
H139	H	0.568248	-0.136784	0.000106
H140	H	1.068248	0.363216	0.500106
H141	H	0.497973	-0.074466	-0.046131
H142	H	0.997973	0.425534	0.453869
H143	H	0.497975	-0.074472	0.046339
H144	H	0.997975	0.425528	0.546339
H145	H	0.987536	0.014174	0.634403
H146	H	1.487536	0.514174	1.134403
H147	H	0.802489	0.327768	0.785802
H148	H	1.302489	0.827768	1.285802
H149	H	0.802453	0.327726	0.365804
H150	H	1.302453	0.827726	0.865804
C151	C	1.002072	-0.010549	0.202482
C152	C	1.502072	0.489451	0.702482
H153	H	1.032442	-0.062023	0.239287
H154	H	1.532442	0.437977	0.739287
H155	H	1.033819	0.035040	0.169919
H156	H	1.533819	0.535040	0.669919
H157	H	0.974554	-0.063338	0.169938
H158	H	1.474554	0.436662	0.669938
C159	C	0.261573	0.410733	0.000098
C160	C	0.761573	0.910733	0.500098
H161	H	0.315453	0.395580	0.000088
H162	H	0.815453	0.895580	0.500088
H163	H	0.245185	0.457910	0.046329
H164	H	0.745185	0.957910	0.546329
H165	H	0.245180	0.457910	-0.046141
H166	H	0.745180	0.957910	0.453859
C167	C	0.769562	-0.180099	0.073519
C168	C	1.269562	0.319901	0.573519
H169	H	0.770805	-0.090215	0.073948
H170	H	1.270805	0.409785	0.573948
H171	H	0.792831	-0.215771	0.120617
H172	H	1.292831	0.284229	0.620617
H173	H	0.718304	-0.198998	0.071285
H174	H	1.218304	0.301002	0.571285
C175	C	0.787871	0.352421	0.202479
C176	C	1.287871	0.852421	0.702479
H177	H	0.757506	0.403901	0.239280
H178	H	1.257506	0.903901	0.739280
H179	H	0.756119	0.306823	0.169932
H180	H	1.256119	0.806823	0.669932
H181	H	0.815382	0.405206	0.169918
H182	H	1.315382	0.905206	0.669918
C183	C	0.765725	-0.421684	-0.073554
C184	C	1.265725	0.078316	0.426446
H185	H	0.716180	-0.377091	-0.072628
H186	H	1.216180	0.122909	0.427372
H187	H	0.762074	-0.510934	-0.072553
H188	H	1.262074	-0.010934	0.427447
H189	H	0.791226	-0.400324	-0.120737
H190	H	1.291226	0.099676	0.379263
C191	C	0.131040	-0.079494	0.000131
C192	C	0.631040	0.420506	0.500131
H193	H	0.170860	-0.147449	0.000143
H194	H	0.670860	0.352551	0.500143
H195	H	0.100588	-0.085131	-0.046100
H196	H	0.600588	0.414869	0.453900
H197	H	0.100590	-0.085117	0.046371
H198	H	0.600590	0.414883	0.546371
C199	C	1.002082	-0.010539	0.377724
C200	C	1.502082	0.489461	0.877724
H201	H	0.994777	0.001828	0.433400
H202	H	1.494777	0.501828	0.933400
H203	H	1.052664	0.003139	0.364043
H204	H	1.552664	0.503139	0.864043
H205	H	0.993402	-0.095242	0.364051
H206	H	1.493402	0.404758	0.864051
C207	C	0.095766	0.406298	0.000113
C208	C	0.595766	0.906298	0.500113
H209	H	0.044291	0.388326	0.000126
H210	H	0.544291	0.888326	0.500126
H211	H	0.105251	0.454171	-0.046121
H212	H	0.605251	0.954171	0.453879
H213	H	0.105259	0.454163	0.046349
H214	H	0.605259	0.954163	0.546349
H215	H	0.283159	-0.042309	0.000121
H216	H	0.783159	0.457691	0.500121
H217	H	0.680543	-0.031644	0.000090
H218	H	1.180543	0.468356	0.500090
H219	H	0.781051	-0.194118	-0.054185
H220	H	1.281051	0.305882	0.445815
C221	C	0.765897	-0.423862	0.072720
C222	C	1.265897	0.076138	0.572720
H223	H	0.797209	-0.484338	0.103358
H224	H	1.297209	0.015662	0.603358
H225	H	0.722131	-0.460936	0.055309
H226	H	1.222131	0.039064	0.555309
H227	H	0.750781	-0.350969	0.104497
H228	H	1.250781	0.149031	0.604497
C229	C	0.899569	-0.453404	-0.152412
C230	C	1.399569	0.046596	0.347588
H231	H	0.857425	-0.498495	-0.139767
H232	H	1.357425	0.001505	0.360233
H233	H	0.935798	-0.507293	-0.181970
H234	H	1.435798	-0.007293	0.318030
H235	H	0.882781	-0.380281	-0.183319
H236	H	1.382781	0.119719	0.316681
C237	C	0.894179	-0.448310	0.152313
C238	C	1.394179	0.051690	0.652313
H239	H	0.892074	-0.537990	0.153027
H240	H	1.392074	-0.037990	0.653027
H241	H	0.844050	-0.406010	0.153482
H242	H	1.344050	0.093990	0.653482
H243	H	0.921482	-0.423999	0.197591
H244	H	1.421482	0.076001	0.697591
C245	C	0.897170	-0.208462	-0.151560
C246	C	1.397170	0.291538	0.348440
H247	H	0.856227	-0.147246	-0.136912
H248	H	1.356227	0.352754	0.363088
H249	H	0.878224	-0.274954	-0.181289
H250	H	1.378224	0.225046	0.318711
H251	H	0.932419	-0.168582	-0.183154
H252	H	1.432419	0.331418	0.316846
