data_functionalizedCrystal
_audit_creation_method	'MofGen! by Chris Wilmer'
_symmetry_space_group_name_H-M	'P1'
_symmetry_Int_Tables_number	1
_symmetry_cell_setting	triclinic
loop_
_symmetry_equiv_pos_as_xyz
  x,y,z
_cell_length_a	10.723023
_cell_length_b	10.489746
_cell_length_c	9.198806
_cell_angle_alpha	89.996511
_cell_angle_beta	89.996513
_cell_angle_gamma	84.504424
loop_
_atom_site_label
_atom_site_type_symbol
_atom_site_fract_x
_atom_site_fract_y
_atom_site_fract_z
O1	O	1.657301	0.178901	-0.120879
O2	O	1.294159	0.196027	-0.120885
O3	O	1.483990	0.001861	-0.120871
O4	O	1.467470	0.373067	-0.120893
O5	O	1.483975	0.001861	0.120914
O6	O	1.294144	0.196026	0.120900
O7	O	1.657286	0.178900	0.120906
Cu8	Cu	1.475714	0.187463	0.142980
Cu9	Cu	1.475732	0.187464	-0.142959
O10	O	1.467455	0.373066	0.120892
C11	C	1.247651	0.194780	0.000007
C12	C	1.109095	0.191052	0.000005
C13	C	1.047314	0.189390	0.125255
C14	C	0.904108	0.185537	0.125256
C15	C	1.482733	-0.045670	0.000021
C16	C	1.478996	-0.187297	0.000020
C17	C	1.356001	-0.340075	0.000000
C18	C	1.417501	-0.262723	-0.119209
C19	C	1.417515	-0.262764	0.119172
C20	C	1.533901	-0.362289	-0.119319
C21	C	1.533898	-0.362336	0.119169
C22	C	1.595484	-0.285032	-0.000069
C23	C	1.703794	0.180147	0.000011
C24	C	1.842351	0.183875	0.000004
C25	C	1.468712	0.420597	-0.000003
C26	C	1.472449	0.562224	-0.000012
N27	N	1.475710	0.187462	0.344094
N28	N	1.475745	0.187455	-0.344073
C29	C	1.555414	0.105578	0.416297
C30	C	1.555434	0.105574	0.583709
H31	H	0.895472	0.185312	-0.107234
H32	H	1.100441	0.190812	0.232487
O33	O	1.636662	0.021939	0.342005
C34	C	1.568857	-0.057119	0.253965
H35	H	1.471730	-0.006990	0.231362
H36	H	1.559389	-0.151511	0.312488
C37	C	1.758075	-0.145257	0.137030
C38	C	1.638786	-0.083683	0.109259
H39	H	1.801212	-0.161649	0.047771
H40	H	1.803758	-0.091998	0.196348
H41	H	1.750168	-0.223910	0.185803
H42	H	1.646694	-0.005025	0.060503
H43	H	1.593105	-0.136930	0.049929
H44	H	1.055969	0.189619	-0.107227
H45	H	1.254744	-0.364730	-0.000121
O46	O	0.840894	0.183663	0.253284
C47	C	0.885731	0.074216	0.333501
H48	H	0.984677	0.039993	0.296164
H49	H	0.821680	-0.004976	0.315124
C50	C	0.766046	0.149903	0.542241
C51	C	0.887577	0.107876	0.496392
H52	H	0.767180	0.170662	0.642721
H53	H	0.735834	0.223637	0.488197
H54	H	0.712683	0.083901	0.526916
H55	H	0.940934	0.173882	0.511702
H56	H	0.917798	0.034153	0.550443
H57	H	1.368349	-0.219215	-0.219995
H58	H	1.583032	-0.405601	-0.220216
H59	H	1.368328	-0.219288	0.219955
H60	H	1.696816	-0.260622	-0.000132
H61	H	1.583006	-0.405866	0.219959
H62	H	1.623676	0.035474	0.645800
O63	O	1.394502	0.271153	0.581714
C64	C	1.462334	0.350211	0.493683
H65	H	1.559430	0.300035	0.471009
H66	H	1.471876	0.444560	0.552251
C67	C	1.273125	0.438525	0.376880
C68	C	1.392376	0.376893	0.349023
H69	H	1.229970	0.454990	0.287650
H70	H	1.227424	0.385266	0.436192
H71	H	1.281093	0.517142	0.425691
H72	H	1.384406	0.298271	0.300230
H73	H	1.438075	0.430140	0.289699
H74	H	1.407482	0.257558	0.406217
