data_functionalizedCrystal
_audit_creation_method	'MofGen! by Chris Wilmer'
_symmetry_space_group_name_H-M	'P1'
_symmetry_Int_Tables_number	1
_symmetry_cell_setting	triclinic
loop_
_symmetry_equiv_pos_as_xyz
  x,y,z
_cell_length_a	25.639242
_cell_length_b	25.639240
_cell_length_c	16.625539
_cell_angle_alpha	90.038438
_cell_angle_beta	90.028772
_cell_angle_gamma	90.027658
loop_
_atom_site_label
_atom_site_type_symbol
_atom_site_fract_x
_atom_site_fract_y
_atom_site_fract_z
Zn1	Zn	0.799284	-0.208221	0.456029
Zn2	Zn	0.799205	-0.295659	0.321172
Zn3	Zn	0.711849	-0.208231	0.321190
Zn4	Zn	0.711814	-0.295619	0.455943
O5	O	0.755538	-0.251933	0.388584
O6	O	0.872439	-0.219832	0.438168
O7	O	0.787599	-0.284082	0.208342
O8	O	0.723495	-0.135065	0.339120
O9	O	0.872381	-0.284072	0.339090
O10	O	0.787733	-0.135057	0.438186
O11	O	0.723419	-0.219850	0.208355
O12	O	0.638679	-0.219812	0.339037
O13	O	0.723435	-0.284005	0.568787
O14	O	0.638654	-0.284015	0.438039
O15	O	0.787699	-0.219794	0.568850
O16	O	0.787565	-0.368819	0.339006
O17	O	0.723359	-0.368790	0.438022
C18	C	0.619696	-0.251911	0.388531
C19	C	0.561581	-0.251914	0.388528
C20	C	0.755464	-0.387775	0.388520
C21	C	0.755480	-0.445889	0.388520
C22	C	0.310393	-0.218446	0.337122
C23	C	0.364997	-0.218441	0.337112
O24	O	0.393237	-0.189955	0.293360
N25	N	0.392308	-0.251920	0.388568
C26	C	0.365011	-0.285402	0.440044
O27	O	0.393255	-0.313878	0.483811
C28	C	0.310408	-0.285404	0.440058
C29	C	0.283100	-0.251927	0.388592
C30	C	0.283085	-0.184971	0.285662
C31	C	0.228484	-0.184977	0.285671
C32	C	0.201191	-0.218457	0.337141
C33	C	0.228499	-0.251932	0.388602
C34	C	0.283112	-0.318883	0.491537
C35	C	0.228505	-0.318882	0.491547
C36	C	0.201197	-0.285405	0.440081
C37	C	0.146606	-0.285419	0.440081
N38	N	0.119296	-0.251940	0.388625
C39	C	0.146588	-0.218459	0.337155
C40	C	0.479682	-0.285395	0.440012
C41	C	0.534284	-0.285397	0.439995
C42	C	0.534266	-0.218435	0.337064
C43	C	0.479663	-0.218436	0.337078
C44	C	0.452371	-0.251916	0.388556
C45	C	0.031923	-0.218474	0.337178
C46	C	-0.022682	-0.218484	0.337189
C47	C	-0.022660	-0.285444	0.440123
C48	C	0.031941	-0.285436	0.440109
C49	C	0.059231	-0.251947	0.388634
O50	O	0.118331	-0.313889	0.483813
O51	O	0.118338	-0.189983	0.293402
C52	C	0.789003	-0.806210	0.440260
C53	C	0.789019	-0.860814	0.440276
O54	O	0.817433	-0.889015	0.484202
N55	N	0.755611	-0.888172	0.388662
C56	C	0.722181	-0.860922	0.337033
O57	O	0.693766	-0.889206	0.293132
C58	C	0.722163	-0.806319	0.337021
C59	C	0.755578	-0.778964	0.388633
C60	C	0.822414	-0.778855	0.491869
C61	C	0.822399	-0.724254	0.491851
C62	C	0.788974	-0.697009	0.440225
C63	C	0.755563	-0.724364	0.388616
C64	C	0.688732	-0.779070	0.285397
C65	C	0.688717	-0.724463	0.285390
C66	C	0.722131	-0.697108	0.337002
C67	C	0.722122	-0.642517	0.336972
N68	N	0.755530	-0.615160	0.388586
C69	C	0.788956	-0.642405	0.440213
C70	C	0.722220	-0.975593	0.337062
C71	C	0.722240	-1.030195	0.337069
C72	C	0.789077	-1.030083	0.440314
C73	C	0.789059	-0.975480	0.440303
C74	C	0.755628	-0.948235	0.388677
C75	C	0.788923	-0.527740	0.440172
C76	C	0.788906	-0.473135	0.440147
C77	C	0.722067	-0.473252	0.336905
C78	C	0.722085	-0.527852	0.336927
C79	C	0.755515	-0.555095	0.388566
O80	O	0.693720	-0.614282	0.293070
O81	O	0.817361	-0.614115	0.484114
C82	C	0.891911	-0.251955	0.388637
C83	C	0.950025	-0.251965	0.388659
C84	C	0.755572	-0.251894	0.598893
C85	C	0.755587	-0.251877	0.688514
C86	C	0.755626	-0.115560	0.388665
C87	C	0.755664	-0.057446	0.388699
C88	C	0.755534	-0.251934	0.179093
C89	C	0.755621	-0.251803	0.089472
C90	C	0.755611	-0.251819	1.016690
C91	C	0.755603	-0.251837	0.925381
C92	C	0.755599	-0.251848	0.852605
C93	C	0.755590	-0.251865	0.761290
H94	H	-0.044914	-0.191222	0.295278
H95	H	0.206287	-0.346144	0.533470
C96	C	0.061934	-0.181637	0.280548
N97	N	0.084538	-0.153894	0.237890
C98	C	0.313098	-0.148138	0.229033
N99	N	0.335700	-0.120396	0.186371
C100	C	0.685299	-0.443271	0.280122
N101	N	0.657601	-0.420688	0.237358
H102	H	0.816293	-1.052277	0.482353
C103	C	0.825815	-0.945395	0.497083
N104	N	0.853500	-0.922737	0.539854
H105	H	0.695037	-1.052463	0.295033
H106	H	0.556498	-0.191172	0.295156
C107	C	0.825667	-0.443048	0.496925
N108	N	0.853355	-0.420388	0.539689
C109	C	0.685443	-0.945628	0.280263
N110	N	0.657741	-0.923062	0.237484
C111	C	0.685331	-0.557943	0.280146
N112	N	0.657644	-0.580604	0.237384
H113	H	0.661523	-0.801333	0.243368
H114	H	0.816140	-0.549915	0.482227
H115	H	0.661491	-0.702283	0.243351
H116	H	0.206255	-0.157716	0.243763
H117	H	0.457432	-0.191174	0.295173
C118	C	0.061981	-0.322264	0.496721
N119	N	0.084603	-0.349999	0.539369
C120	C	0.564317	-0.322230	0.496603
N121	N	0.586935	-0.349972	0.539245
C122	C	0.449666	-0.322238	0.496632
N123	N	0.427060	-0.349988	0.539277
H124	H	0.305337	-0.346145	0.533445
C125	C	-0.052692	-0.322270	0.496739
N126	N	-0.075314	-0.350004	0.539388
C127	C	0.859160	-0.694171	0.548627
N128	N	0.886850	-0.671516	0.591393
H129	H	0.849633	-0.801033	0.533914
