data_functionalizedCrystal
_audit_creation_method	'MofGen! by Chris Wilmer'
_symmetry_space_group_name_H-M	'P1'
_symmetry_Int_Tables_number	1
_symmetry_cell_setting	triclinic
loop_
_symmetry_equiv_pos_as_xyz
  x,y,z
_cell_length_a	21.395362
_cell_length_b	21.295417
_cell_length_c	21.395356
_cell_angle_alpha	89.969378
_cell_angle_beta	89.957023
_cell_angle_gamma	90.046383
loop_
_atom_site_label
_atom_site_type_symbol
_atom_site_fract_x
_atom_site_fract_y
_atom_site_fract_z
Zn1	Zn	0.957854	-0.250358	-0.354573
Zn2	Zn	0.957759	-0.355627	-0.249790
Zn3	Zn	0.853071	-0.250404	-0.249774
Zn4	Zn	0.853039	-0.355623	-0.354495
O5	O	0.905431	-0.303003	-0.302158
O6	O	1.045520	-0.264305	-0.340713
O7	O	0.943846	-0.341690	-0.162110
O8	O	0.867024	-0.162309	-0.263702
O9	O	1.045450	-0.341645	-0.263729
O10	O	0.944008	-0.162275	-0.340697
O11	O	0.866932	-0.264383	-0.162098
O12	O	0.765389	-0.264380	-0.263626
O13	O	0.866969	-0.341638	-0.442183
O14	O	0.765365	-0.341683	-0.340564
O15	O	0.943977	-0.264301	-0.442240
O16	O	0.943814	-0.443716	-0.263653
O17	O	0.866877	-0.443713	-0.340579
C18	C	0.742643	-0.303036	-0.302085
C19	C	0.673002	-0.303066	-0.302069
C20	C	0.640293	-0.343371	-0.342070
C21	C	0.574858	-0.343356	-0.342098
C22	C	0.542134	-0.303042	-0.302114
C23	C	0.574851	-0.262728	-0.262109
C24	C	0.640285	-0.262741	-0.262087
C25	C	0.438410	-0.297979	-0.245709
C26	C	0.372977	-0.297972	-0.245730
C27	C	0.340313	-0.303000	-0.302183
C28	C	0.373090	-0.308050	-0.358616
C29	C	0.438524	-0.308062	-0.358594
C30	C	0.471181	-0.303024	-0.302134
C31	C	0.236651	-0.343291	-0.342218
C32	C	0.171215	-0.343271	-0.342247
C33	C	0.171209	-0.262647	-0.262252
C34	C	0.236645	-0.262664	-0.262229
C35	C	0.269362	-0.302989	-0.302211
C36	C	0.905349	-0.466555	-0.302123
C37	C	0.905371	-0.536523	-0.302129
C38	C	0.945468	-0.569370	-0.262115
C39	C	0.945497	-0.635113	-0.262129
C40	C	0.905418	-0.668005	-0.302151
C41	C	0.865319	-0.635150	-0.342173
C42	C	0.865295	-0.569409	-0.342162
N43	N	0.850609	-0.771286	-0.306903
N44	N	0.850633	-0.833738	-0.306910
C45	C	0.905489	-0.866080	-0.302187
N46	N	0.960320	-0.833611	-0.297445
N47	N	0.960295	-0.771154	-0.297435
C48	C	0.905440	-0.739291	-0.302167
C49	C	0.945621	-0.970213	-0.262186
C50	C	0.945651	-1.035956	-0.262204
C51	C	0.865467	-1.035993	-0.342245
C52	C	0.865442	-0.970250	-0.342230
C53	C	0.905518	-0.937364	-0.302197
C54	C	1.068854	-0.302970	-0.302231
C55	C	1.138496	-0.302956	-0.302262
C56	C	0.905480	-0.302964	-0.465581
C57	C	0.905501	-0.302947	-0.535223
C58	C	0.905530	-0.138813	-0.302206
C59	C	0.905573	-0.068845	-0.302227
C60	C	0.865463	-0.262689	-0.567920
C61	C	0.865461	-0.262678	-0.633355
C62	C	0.905508	-0.302917	-0.666091
C63	C	0.945549	-0.343183	-0.633386
C64	C	0.945546	-0.343198	-0.567952
C65	C	0.961960	-0.307851	-0.769796
C66	C	0.961965	-0.307831	-0.835229
C67	C	0.905518	-0.302875	-0.867912
C68	C	0.849066	-0.297925	-0.835153
C69	C	0.849063	-0.297940	-0.769719
C70	C	0.905516	-0.302906	-0.737043
C71	C	0.865474	-0.262602	-0.971562
C72	C	0.865471	-0.262595	-1.036998
C73	C	0.945565	-0.343097	-1.037028
C74	C	0.945563	-0.343108	-0.971592
C75	C	0.905518	-0.302857	-0.938863
C76	C	0.905418	-0.302997	-0.139370
C77	C	0.905518	-0.302836	-0.069729
H78	H	0.464999	-0.293882	-0.199735
C79	C	0.821183	-0.533275	-0.386176
H80	H	0.797315	-0.562278	-0.410013
H81	H	0.845126	-0.507579	-0.413500
H82	H	0.793883	-0.507682	-0.362164
H83	H	0.548203	-0.229903	-0.229555
H84	H	0.346497	-0.312144	-0.404586
C85	C	0.821232	-0.671329	-0.386195
H86	H	0.826984	-0.715187	-0.380466
H87	H	0.830376	-0.660517	-0.428302
H88	H	0.779133	-0.660610	-0.376966
H89	H	0.666927	-0.376206	-0.374628
H90	H	0.978174	-0.375860	-1.063680
C91	C	0.821382	-1.072164	-0.386271
H92	H	0.797499	-1.043182	-0.410103
H93	H	0.794104	-1.097861	-0.362276
H94	H	0.845351	-1.097759	-0.413608
H95	H	0.832853	-0.229916	-0.541276
H96	H	0.832789	-0.943504	-0.374811
C97	C	0.989601	-0.671252	-0.218107
H98	H	1.013461	-0.642251	-0.194261
H99	H	1.016899	-0.696852	-0.242107
H100	H	0.965645	-0.696941	-0.190783
H101	H	0.263291	-0.376123	-0.374777
C102	C	0.821414	-0.218344	-0.935557
H103	H	0.797558	-0.194375	-0.964405
H104	H	0.845388	-0.190913	-0.910053
H105	H	0.794101	-0.242448	-0.910008
H106	H	0.978255	-0.943436	-0.229590
H107	H	0.666916	-0.229917	-0.229513
C108	C	0.786972	-0.292502	-0.733684
H109	H	0.795057	-0.293217	-0.690034
H110	H	0.760596	-0.326748	-0.744378
H111	H	0.766961	-0.254177	-0.744403
H112	H	0.978307	-1.062699	-0.229621
H113	H	0.832858	-0.229892	-0.659982
C114	C	0.786970	-0.292491	-0.871095
H115	H	0.795054	-0.293203	-0.914757
H116	H	0.766947	-0.254179	-0.860378
H117	H	0.760605	-0.326752	-0.860333
C118	C	0.474580	-0.313614	-0.420663
H119	H	0.518227	-0.312906	-0.412561
H120	H	0.463922	-0.279405	-0.447088
H121	H	0.463841	-0.351966	-0.440628
C122	C	0.989593	-0.387480	-0.531983
H123	H	1.013447	-0.411443	-0.560849
H124	H	0.965609	-0.414916	-0.506429
H125	H	1.016910	-0.363394	-0.506488
C126	C	0.821427	-0.218308	-1.072965
H127	H	0.797584	-0.194336	-1.044099
H128	H	0.794111	-0.242384	-1.098464
H129	H	0.845420	-0.190871	-1.098517
H130	H	0.144584	-0.376091	-0.374825
H131	H	0.978168	-0.375889	-0.944970
C132	C	1.024059	-0.313275	-0.871257
H133	H	1.057674	-0.316240	-0.842423
H134	H	1.029593	-0.277192	-0.896797
H135	H	1.023220	-0.349762	-0.896772
C136	C	1.024055	-0.313299	-0.733851
H137	H	1.057676	-0.316235	-0.762731
H138	H	1.023223	-0.349793	-0.708311
H139	H	1.029579	-0.277221	-0.708343
H140	H	0.978156	-0.375947	-0.660043
C141	C	0.989556	-0.533199	-0.218088
H142	H	1.013445	-0.562181	-0.194263
H143	H	0.965597	-0.507598	-0.190754
H144	H	1.016838	-0.507508	-0.242091
H145	H	0.144566	-0.229820	-0.229699
C146	C	0.538870	-0.387656	-0.386138
H147	H	0.567727	-0.411664	-0.409955
H148	H	0.513416	-0.363574	-0.413478
H149	H	0.513273	-0.415060	-0.362156
H150	H	0.346295	-0.293864	-0.199778
C151	C	0.272626	-0.218336	-0.218219
H152	H	0.243767	-0.194327	-0.194405
H153	H	0.298208	-0.190944	-0.242225
H154	H	0.298096	-0.242391	-0.190864
