data_functionalizedCrystal
_audit_creation_method	'MofGen! by Chris Wilmer'
_symmetry_space_group_name_H-M	'P1'
_symmetry_Int_Tables_number	1
_symmetry_cell_setting	triclinic
loop_
_symmetry_equiv_pos_as_xyz
  x,y,z
_cell_length_a	12.759395
_cell_length_b	16.625545
_cell_length_c	12.759395
_cell_angle_alpha	90.011600
_cell_angle_beta	90.005123
_cell_angle_gamma	90.027095
loop_
_atom_site_label
_atom_site_type_symbol
_atom_site_fract_x
_atom_site_fract_y
_atom_site_fract_z
Zn1	Zn	1.606030	-0.321099	0.593987
Zn2	Zn	2.106030	0.178901	1.093987
Zn3	Zn	1.605934	-0.455903	0.418300
Zn4	Zn	2.105934	0.044097	0.918300
Zn5	Zn	1.430375	-0.321091	0.418324
Zn6	Zn	1.930375	0.178909	0.918324
Zn7	Zn	1.430287	-0.455896	0.593938
Zn8	Zn	1.930287	0.044104	1.093938
O9	O	1.518157	-0.388497	0.506137
O10	O	2.018157	0.111503	1.006137
O11	O	1.753038	-0.338986	0.570691
O12	O	2.253038	0.161014	1.070691
O13	O	1.582643	-0.438020	0.271282
O14	O	2.082643	0.061980	0.771282
O15	O	1.453753	-0.208260	0.441656
O16	O	1.953753	0.291740	0.941656
O17	O	1.752968	-0.438026	0.441615
O18	O	2.252968	0.061974	0.941615
O19	O	1.582806	-0.208265	0.570715
O20	O	2.082806	0.291735	1.070715
O21	O	1.453660	-0.338974	0.271299
O22	O	1.953660	0.161026	0.771299
O23	O	1.283342	-0.338968	0.441609
O24	O	1.783342	0.161032	0.941609
O25	O	1.453603	-0.438016	0.740966
O26	O	1.953603	0.061984	1.240966
O27	O	1.283278	-0.438009	0.570633
O28	O	1.783278	0.061991	1.070633
O29	O	1.582720	-0.338980	0.741001
O30	O	2.082720	0.161020	1.241001
O31	O	1.582558	-0.568734	0.441568
O32	O	2.082558	-0.068734	0.941568
O33	O	1.453510	-0.568730	0.570609
O34	O	1.953510	-0.068730	1.070609
C35	C	1.245189	-0.388488	0.506119
C36	C	1.745189	0.111512	1.006119
C37	C	1.128412	-0.388503	0.506136
C38	C	1.628412	0.111497	1.006136
C39	C	1.128384	-0.491800	0.640271
C40	C	1.628384	0.008200	1.140271
C41	C	1.073508	-0.543456	0.707341
C42	C	1.573508	-0.043456	1.207341
C43	C	0.963787	-0.543465	0.707354
C44	C	1.463787	-0.043465	1.207354
C45	C	0.908938	-0.491813	0.640292
C46	C	1.408938	0.008187	1.140292
C47	C	0.963813	-0.440158	0.573221
C48	C	1.463813	0.059842	1.073221
C49	C	1.073537	-0.440155	0.573213
C50	C	1.573537	0.059845	1.073213
C51	C	0.963842	-0.336857	0.439093
C52	C	1.463842	0.163143	0.939093
C53	C	1.073564	-0.336850	0.439074
C54	C	1.573564	0.163150	0.939074
C55	C	0.908993	-0.285204	0.372031
C56	C	1.408993	0.214796	0.872031
C57	C	0.963868	-0.233552	0.304953
C58	C	1.463868	0.266448	0.804953
C59	C	1.073596	-0.233545	0.304943
C60	C	1.573596	0.266455	0.804943
C61	C	1.128439	-0.285195	0.372003
C62	C	1.628439	0.214805	0.872003
C63	C	1.518042	-0.597988	0.506104
C64	C	2.018042	-0.097988	1.006104
C65	C	1.518090	-0.687609	0.506125
C66	C	2.018090	-0.187609	1.006125
C67	C	1.518131	-0.760392	0.506146
C68	C	2.018131	-0.260392	1.006146
C69	C	1.518192	-0.851700	0.506169
C70	C	2.018192	-0.351700	1.006169
C71	C	1.518246	-0.924477	0.506182
C72	C	2.018246	-0.424477	1.006182
C73	C	1.518306	-1.015791	0.506204
C74	C	2.018306	-0.515791	1.006204
C75	C	1.792190	-0.388508	0.506156
C76	C	2.292190	0.111492	1.006156
C77	C	1.908967	-0.388512	0.506164
C78	C	2.408967	0.111488	1.006164
C79	C	1.518162	-0.388498	0.780170
C80	C	2.018162	0.111502	1.280170
C81	C	1.518165	-0.388498	0.896947
C82	C	2.018165	0.111502	1.396947
C83	C	1.518300	-0.178188	0.506193
C84	C	2.018300	0.321812	1.006193
C85	C	1.518361	-0.088567	0.506217
C86	C	2.018361	0.411433	1.006217
C87	C	1.652624	-0.285379	0.897004
C88	C	2.152624	0.214621	1.397004
C89	C	1.719853	-0.233824	0.951893
C90	C	2.219853	0.266176	1.451893
C91	C	1.719849	-0.233826	1.061614
C92	C	2.219849	0.266174	1.561614
C93	C	1.652607	-0.285388	1.116449
C94	C	2.152607	0.214612	1.616449
C95	C	1.585377	-0.336944	1.061560
C96	C	2.085377	0.163056	1.561560
C97	C	1.585391	-0.336937	0.951836
C98	C	2.085391	0.163063	1.451836
C99	C	1.450914	-0.440057	1.061504
C100	C	1.950914	0.059943	1.561504
C101	C	1.450922	-0.440060	0.951782
C102	C	1.950922	0.059940	1.451782
C103	C	1.383672	-0.491619	1.116339
C104	C	1.883672	0.008381	1.616339
C105	C	1.316446	-0.543180	1.061450
C106	C	1.816446	-0.043180	1.561450
C107	C	1.316453	-0.543176	0.951722
C108	C	1.816453	-0.043176	1.451722
C109	C	1.383692	-0.491616	0.896893
C110	C	1.883692	0.008384	1.396893
C111	C	1.518144	-0.388512	1.233170
C112	C	2.018144	0.111488	1.733170
C113	C	1.518144	-0.388502	1.116393
C114	C	2.018144	0.111498	1.616393
H115	H	0.919202	-0.191497	0.250362
H116	H	1.419202	0.308503	0.750362
Cl117	Cl	1.266375	-0.285194	0.371991
Cl118	Cl	1.766375	0.214806	0.871991
H119	H	0.919108	-0.585524	0.761974
H120	H	1.419108	-0.085524	1.261974
H121	H	0.819597	-0.491818	0.640317
H122	H	1.319597	0.008182	1.140317
Cl123	Cl	1.652649	-0.285384	0.759067
Cl124	Cl	2.152649	0.214616	1.259067
Cl125	Cl	0.771056	-0.285212	0.372053
Cl126	Cl	1.271056	0.214788	0.872053
H127	H	1.261697	-0.585153	1.106105
H128	H	1.761697	-0.085153	1.606105
H129	H	1.774599	-0.191842	0.907234
H130	H	2.274599	0.308158	1.407234
H131	H	1.118269	-0.191475	0.250333
H132	H	1.618269	0.308525	0.750333
Cl133	Cl	1.804350	-0.169001	1.130621
Cl134	Cl	2.304350	0.330999	1.630621
Cl135	Cl	1.266320	-0.491804	0.640245
Cl136	Cl	1.766320	0.008196	1.140245
H137	H	1.118178	-0.585509	0.761944
H138	H	1.618178	-0.085509	1.261944
H139	H	1.652600	-0.285379	1.205790
H140	H	2.152600	0.214621	1.705790
Cl141	Cl	1.383666	-0.491622	1.254276
Cl142	Cl	1.883666	0.008378	1.754276
Cl143	Cl	1.231925	-0.607988	0.882728
Cl144	Cl	1.731925	-0.107988	1.382728
H145	H	1.383710	-0.491611	0.807552
H146	H	1.883710	0.008389	1.307552
