data_functionalizedCrystal
_audit_creation_method	'MofGen! by Chris Wilmer'
_symmetry_space_group_name_H-M	'P1'
_symmetry_Int_Tables_number	1
_symmetry_cell_setting	triclinic
loop_
_symmetry_equiv_pos_as_xyz
  x,y,z
_cell_length_a	11.026607
_cell_length_b	14.519709
_cell_length_c	9.482900
_cell_angle_alpha	99.350820
_cell_angle_beta	78.636152
_cell_angle_gamma	96.133081
loop_
_atom_site_label
_atom_site_type_symbol
_atom_site_fract_x
_atom_site_fract_y
_atom_site_fract_z
O1	O	1.629894	0.375017	-0.120915
O2	O	1.276492	0.331026	-0.120914
O3	O	1.462561	0.220328	-0.120901
O4	O	1.443825	0.485715	-0.120927
O5	O	1.424766	0.242929	0.120889
O6	O	1.238698	0.353627	0.120876
O7	O	1.592099	0.397617	0.120875
Cu8	Cu	1.411948	0.377686	0.142953
Cu9	Cu	1.456644	0.350958	-0.142992
O10	O	1.406031	0.508316	0.120862
C11	C	1.212367	0.334211	-0.000019
C12	C	1.077600	0.310019	-0.000019
C13	C	1.003940	0.376817	-0.000026
C14	C	0.864652	0.351815	-0.000026
C15	C	1.442790	0.197125	-0.000006
C16	C	1.440173	0.094312	-0.000005
C17	C	1.430544	-0.282175	-0.000043
C18	C	1.433218	-0.177425	-0.000032
C19	C	1.435358	-0.093934	-0.000023
C20	C	1.438033	0.010822	-0.000015
C21	C	1.656226	0.394432	-0.000023
C22	C	1.790994	0.418624	-0.000033
C23	C	1.425802	0.531518	-0.000036
C24	C	1.428421	0.634330	-0.000046
N25	N	1.380519	0.396486	0.344071
N26	N	1.488082	0.332152	-0.344110
C27	C	1.447366	0.356497	0.416275
C28	C	1.421226	0.372147	0.583690
H29	H	0.831042	0.494329	-0.000031
C30	C	0.896019	0.202836	-0.000021
C31	C	1.023539	0.207824	-0.000016
H32	H	0.862652	0.139742	-0.000030
H33	H	0.856282	0.240559	0.084290
H34	H	0.882646	0.224811	-0.084345
H35	H	1.036913	0.185855	0.084314
H36	H	1.063289	0.170087	-0.084337
C37	C	1.038254	0.511382	-0.124331
C38	C	1.058000	0.479012	-0.000034
H39	H	1.071620	0.574476	-0.124328
H40	H	1.078005	0.473653	-0.208629
H41	H	0.951738	0.507982	-0.124318
H42	H	1.144517	0.482406	-0.000052
H43	H	1.018252	0.516751	0.084286
H44	H	1.523943	0.310669	0.354152
C45	C	1.203994	0.396181	0.630888
C46	C	1.317832	0.434007	0.667540
H47	H	1.140165	0.434368	0.682663
H48	H	1.208004	0.393788	0.529395
H49	H	1.186603	0.334738	0.655774
H50	H	1.335227	0.495448	0.642645
H51	H	1.313824	0.436411	0.769056
H52	H	1.303933	0.442304	0.406195
C53	C	1.596973	0.266401	0.422428
C54	C	1.591206	0.270043	0.572047
H55	H	1.660562	0.227989	0.370670
H56	H	1.519607	0.240956	0.397764
H57	H	1.614683	0.327790	0.397380
H58	H	1.573487	0.208654	0.597097
H59	H	1.668590	0.295484	0.596721
H60	H	0.824606	0.276108	-0.000055
