data_functionalizedCrystal
_audit_creation_method	'MofGen! by Chris Wilmer'
_symmetry_space_group_name_H-M	'P1'
_symmetry_Int_Tables_number	1
_symmetry_cell_setting	triclinic
loop_
_symmetry_equiv_pos_as_xyz
  x,y,z
_cell_length_a	11.892095
_cell_length_b	12.837943
_cell_length_c	12.837942
_cell_angle_alpha	94.828940
_cell_angle_beta	85.697431
_cell_angle_gamma	94.310562
loop_
_atom_site_label
_atom_site_type_symbol
_atom_site_fract_x
_atom_site_fract_y
_atom_site_fract_z
O1	O	-0.093982	-1.408367	-0.266110
O2	O	0.406018	-0.908367	0.233890
O3	O	-0.093989	-1.105234	-0.252667
O4	O	0.406011	-0.605234	0.247333
O5	O	-0.093979	-1.250078	-0.107822
O6	O	0.406021	-0.750078	0.392178
O7	O	-0.093992	-1.263522	-0.410955
O8	O	0.406008	-0.763522	0.089045
O9	O	0.094028	-1.237999	-0.119879
O10	O	0.594028	-0.737999	0.380121
O11	O	0.094018	-1.093155	-0.264723
O12	O	0.594018	-0.593155	0.235277
O13	O	0.094025	-1.396288	-0.278167
O14	O	0.594025	-0.896288	0.221833
Zn15	Zn	0.123871	-1.242803	-0.273359
Zn16	Zn	0.623871	-0.742803	0.226641
Zn17	Zn	-0.123836	-1.258718	-0.257474
Zn18	Zn	0.376164	-0.758718	0.242526
O19	O	0.094014	-1.251443	-0.423011
O20	O	0.594014	-0.751443	0.076989
C21	C	0.000014	-1.060125	-0.254153
C22	C	0.500014	-0.560125	0.245847
C23	C	0.000011	-0.943710	-0.240609
C24	C	0.500011	-0.443710	0.259391
N25	N	0.292925	-1.231950	-0.284200
N26	N	0.792925	-0.731950	0.215800
C27	C	0.000024	-1.239497	-0.074781
C28	C	0.500024	-0.739497	0.425219
C29	C	0.000022	-1.225953	0.041634
C30	C	0.500022	-0.725953	0.541634
N31	N	-0.292889	-1.269579	-0.246626
N32	N	0.207111	-0.769579	0.253374
C33	C	0.529580	-1.345098	-0.171130
C34	C	1.029580	-0.845098	0.328870
C35	C	0.647922	-1.337519	-0.178716
C36	C	1.147922	-0.837519	0.321284
C37	C	0.647951	-1.209210	-0.306952
C38	C	1.147951	-0.709210	0.193048
C39	C	0.529610	-1.216788	-0.299366
C40	C	1.029610	-0.716788	0.200634
C41	C	0.470428	-1.284736	-0.231454
C42	C	0.970428	-0.784736	0.268546
C43	C	0.352085	-1.292319	-0.223874
C44	C	0.852085	-0.792319	0.276126
C45	C	0.352116	-1.164005	-0.352104
C46	C	0.852116	-0.664005	0.147896
C47	C	0.470458	-1.156426	-0.359690
C48	C	0.970458	-0.656426	0.140310
C49	C	0.000020	-1.441397	-0.276680
C50	C	0.500020	-0.941397	0.223320
C51	C	0.000015	-1.557812	-0.290224
C52	C	0.500015	-1.057812	0.209776
C53	C	0.000020	-0.718835	-0.403439
C54	C	0.500020	-0.218835	0.096561
C55	C	0.000019	-0.609453	-0.390717
C56	C	0.500019	-0.109453	0.109283
C57	C	0.000015	-0.615561	-0.202446
C58	C	0.500015	-0.115561	0.297554
C59	C	0.000017	-0.724943	-0.215167
C60	C	0.500017	-0.224943	0.284833
C61	C	0.000017	-0.776577	-0.315667
C62	C	0.500017	-0.276577	0.184333
C63	C	0.000011	-0.885961	-0.328387
C64	C	0.500011	-0.385961	0.171613
C65	C	0.000015	-0.892066	-0.140117
C66	C	0.500015	-0.392066	0.359883
C67	C	0.000014	-0.782684	-0.127395
C68	C	0.500014	-0.282684	0.372605
C69	C	0.000009	-1.262024	-0.456052
C70	C	0.500009	-0.762024	0.043948
C71	C	0.000004	-1.275569	-0.572467
C72	C	0.500004	-0.775569	-0.072467
C73	C	0.000002	-1.388784	0.266509
C74	C	0.500002	-0.888784	0.766509
C75	C	-0.000000	-1.376062	0.375892
C76	C	0.500000	-0.876062	0.875892
C77	C	0.000007	-1.187791	0.369784
C78	C	0.500007	-0.687791	0.869784
C79	C	0.000009	-1.200512	0.260402
C80	C	0.500009	-0.700512	0.760402
C81	C	0.000008	-1.301011	0.208768
C82	C	0.500008	-0.801011	0.708768
C83	C	0.000019	-1.313731	0.099383
C84	C	0.500019	-0.813731	0.599383
C85	C	0.000018	-1.125461	0.093278
C86	C	0.500018	-0.625461	0.593278
C87	C	0.000016	-1.112740	0.202660
C88	C	0.500016	-0.612740	0.702660
H89	H	0.303901	-1.347647	-0.168579
H90	H	0.803901	-0.847647	0.331421
O91	O	0.000011	-0.774535	-0.511827
O92	O	0.500011	-0.274535	-0.011827
H93	H	0.076636	-0.819307	-0.527035
H94	H	0.576636	-0.319307	-0.027035
H95	H	-0.000004	-1.105969	0.411844
H96	H	0.499996	-0.605969	0.911844
O97	O	0.000030	-1.030790	0.030990
O98	O	0.500030	-0.530790	0.530990
H99	H	0.076667	-0.978300	0.045607
H100	H	0.576667	-0.478300	0.545607
O101	O	0.000007	-1.497175	0.210816
O102	O	0.500007	-0.997175	0.710816
H103	H	0.000017	-1.491274	0.125054
H104	H	0.500017	-0.991274	0.625054
O105	O	0.000035	-0.559858	-0.094059
O106	O	0.500035	-0.059858	0.405941
H107	H	-0.076591	-0.515088	-0.078842
H108	H	0.423409	-0.015088	0.421158
H109	H	0.481394	-1.400430	-0.115841
H110	H	0.981394	-0.900430	0.384159
O111	O	0.711727	-1.402635	-0.113667
O112	O	1.211727	-0.902635	0.386333
H113	H	0.650689	-1.451162	-0.065180
H114	H	1.150689	-0.951162	0.434820
H115	H	0.000013	-0.928000	-0.410219
H116	H	0.500013	-0.428000	0.089781
H117	H	0.303941	-1.114857	-0.401227
H118	H	0.803941	-0.614857	0.098773
H119	H	0.000005	-0.939091	-0.068646
H120	H	0.500005	-0.439091	0.431354
O121	O	0.000021	-0.726987	-0.019006
O122	O	0.500021	-0.226987	0.480994
H123	H	-0.076605	-0.754370	0.028605
H124	H	0.423395	-0.254370	0.528605
O125	O	-0.000000	-1.470734	0.438166
O126	O	0.500000	-0.970734	0.938166
H127	H	-0.000009	-1.445009	0.522903
H128	H	0.499991	-0.945009	1.022903
H129	H	0.518656	-1.101102	-0.414980
H130	H	1.018656	-0.601102	0.085020
H131	H	0.000024	-0.562444	-0.462191
H132	H	0.500024	-0.062444	0.037809
O133	O	0.711789	-1.135929	-0.380196
O134	O	1.211789	-0.635929	0.119804
H135	H	0.804016	-1.140807	-0.375336
H136	H	1.304016	-0.640807	0.124664
O137	O	0.000001	-1.422125	0.043692
O138	O	0.500001	-0.922125	0.543692
H139	H	0.076617	-1.459914	0.061248
H140	H	0.576617	-0.959914	0.561248
H141	H	0.000012	-1.030916	0.244716
H142	H	0.500012	-0.530916	0.744716
