data_functionalizedCrystal
_audit_creation_method	'MofGen! by Chris Wilmer'
_symmetry_space_group_name_H-M	'P1'
_symmetry_Int_Tables_number	1
_symmetry_cell_setting	triclinic
loop_
_symmetry_equiv_pos_as_xyz
  x,y,z
_cell_length_a	19.188905
_cell_length_b	18.266242
_cell_length_c	10.654550
_cell_angle_alpha	89.994866
_cell_angle_beta	96.190271
_cell_angle_gamma	90.016163
loop_
_atom_site_label
_atom_site_type_symbol
_atom_site_fract_x
_atom_site_fract_y
_atom_site_fract_z
O1	O	0.927185	0.061000	-0.156632
O2	O	1.260518	0.394333	0.176701
O3	O	1.593851	0.727667	0.510035
O4	O	0.724009	0.060975	-0.177770
O5	O	1.057343	0.394308	0.155563
O6	O	1.390676	0.727641	0.488897
O7	O	0.830268	0.060985	0.015638
O8	O	1.163602	0.394318	0.348971
O9	O	1.496935	0.727652	0.682304
O10	O	0.820926	0.060989	-0.350040
O11	O	1.154259	0.394323	-0.016707
O12	O	1.487592	0.727656	0.316627
O13	O	0.830250	-0.060777	0.015648
O14	O	1.163584	0.272557	0.348981
O15	O	1.496917	0.605890	0.682314
O16	O	0.723991	-0.060787	-0.177760
O17	O	1.057324	0.272546	0.155573
O18	O	1.390658	0.605879	0.488906
O19	O	0.927167	-0.060762	-0.156622
O20	O	1.260500	0.272571	0.176711
O21	O	1.593833	0.605905	0.510045
Zn22	Zn	0.825576	-0.080107	-0.167190
Zn23	Zn	1.158909	0.253226	0.166144
Zn24	Zn	1.492243	0.586560	0.499477
Zn25	Zn	0.825600	0.080320	-0.167203
Zn26	Zn	1.158933	0.413653	0.166131
Zn27	Zn	1.492267	0.746986	0.499464
O28	O	0.820907	-0.060773	-0.350030
O29	O	1.154241	0.272561	-0.016697
O30	O	1.487574	0.605894	0.316637
C31	C	0.697984	0.000090	-0.177086
C32	C	1.031318	0.333424	0.156247
C33	C	1.364651	0.666757	0.489581
C34	C	0.620466	0.000081	-0.175047
C35	C	0.953799	0.333414	0.158287
C36	C	1.287132	0.666748	0.491620
C37	C	0.584077	0.066455	-0.174073
C38	C	0.917411	0.399789	0.159261
C39	C	1.250744	0.733122	0.492594
C40	C	0.511241	0.066464	-0.172143
C41	C	0.844574	0.399798	0.161191
C42	C	1.177908	0.733131	0.494524
C43	C	0.474798	0.000095	-0.171162
C44	C	0.808131	0.333429	0.162172
C45	C	1.141464	0.666762	0.495505
C46	C	0.511194	-0.066288	-0.172143
C47	C	0.844528	0.267045	0.161190
C48	C	1.177861	0.600379	0.494524
C49	C	0.584028	-0.066295	-0.174086
C50	C	0.917362	0.267038	0.159248
C51	C	1.250695	0.600372	0.492581
N52	N	0.365283	-0.049298	-0.096644
N53	N	0.698616	0.284036	0.236689
N54	N	1.031949	0.617369	0.570023
N55	N	0.296094	-0.049286	-0.094796
N56	N	0.629427	0.284047	0.238537
N57	N	0.962760	0.617380	0.571871
C58	C	0.255353	0.000113	-0.165311
C59	C	0.588686	0.333446	0.168022
C60	C	0.922019	0.666779	0.501355
N61	N	0.286416	0.049511	-0.237729
N62	N	0.619749	0.382845	0.095604
N63	N	0.953082	0.716178	0.428938
N64	N	0.355612	0.049502	-0.239572
N65	N	0.688945	0.382836	0.093762
N66	N	1.022278	0.716169	0.427095
C67	C	0.395821	0.000096	-0.169056
C68	C	0.729155	0.333429	0.164277
C69	C	1.062488	0.666762	0.497611
C70	C	0.139987	0.066502	-0.162247
C71	C	0.473320	0.399835	0.171087
C72	C	0.806654	0.733168	0.504420
C73	C	0.067149	0.066508	-0.160324
C74	C	0.400482	0.399841	0.173009
C75	C	0.733816	0.733175	0.506342
C76	C	0.067104	-0.066246	-0.160312
C77	C	0.400438	0.267087	0.173021
C78	C	0.733771	0.600420	0.506355
C79	C	0.139940	-0.066251	-0.162247
C80	C	0.473273	0.267083	0.171087
C81	C	0.806607	0.600416	0.504420
C82	C	0.176377	0.000125	-0.163208
C83	C	0.509711	0.333459	0.170125
C84	C	0.843044	0.666792	0.503459
N85	N	0.825565	-0.189594	-0.167180
N86	N	1.158898	0.143739	0.166153
N87	N	1.492231	0.477073	0.499487
C88	C	0.872632	-0.227898	-0.081581
C89	C	1.205965	0.105435	0.251753
C90	C	1.539299	0.438768	0.585086
C91	C	0.872636	-0.304543	-0.081575
C92	C	1.205970	0.028790	0.251758
C93	C	1.539303	0.362124	0.585092
C94	C	0.825580	-0.342881	-0.167190
C95	C	1.158914	-0.009548	0.166143
C96	C	1.492247	0.323786	0.499477
C97	C	0.778504	-0.304567	-0.252796
C98	C	1.111837	0.028766	0.080538
C99	C	1.445171	0.362099	0.413871
C100	C	0.778496	-0.227924	-0.252791
C101	C	1.111830	0.105409	0.080543
C102	C	1.445163	0.438743	0.413876
N103	N	0.817232	-0.463213	-0.278358
N104	N	1.150565	-0.129879	0.054975
N105	N	1.483898	0.203454	0.388308
N106	N	0.817243	-0.536021	-0.278359
N107	N	1.150576	-0.202687	0.054974
N108	N	1.483910	0.130646	0.388308
C109	C	0.825600	-0.573803	-0.167208
C110	C	1.158933	-0.240470	0.166125
C111	C	1.492267	0.092863	0.499459
N112	N	0.833958	-0.536027	-0.056052
N113	N	1.167292	-0.202694	0.277281
N114	N	1.500625	0.130639	0.610614
N115	N	0.833950	-0.463212	-0.056053
N116	N	1.167284	-0.129879	0.277280
N117	N	1.500617	0.203454	0.610614
C118	C	0.825583	-0.425988	-0.167204
C119	C	1.158916	-0.092654	0.166129
C120	C	1.492250	0.240679	0.499462
C121	C	0.872675	-0.695215	-0.081595
C122	C	1.206008	-0.361881	0.251738
C123	C	1.539341	-0.028548	0.585071
C124	C	0.872674	-0.771861	-0.081588
C125	C	1.206008	-0.438528	0.251745
C126	C	1.539341	-0.105194	0.585079
C127	C	0.778545	-0.771884	-0.252819
C128	C	1.111878	-0.438550	0.080514
C129	C	1.445212	-0.105217	0.413847
C130	C	0.778542	-0.695239	-0.252816
C131	C	1.111876	-0.361906	0.080517
C132	C	1.445209	-0.028572	0.413851
C133	C	0.825611	-0.656909	-0.167205
C134	C	1.158944	-0.323576	0.166128
C135	C	1.492277	0.009758	0.499461
C136	C	0.953191	0.000124	-0.157306
C137	C	1.286525	0.333457	0.176027
C138	C	1.619858	0.666790	0.509360
C139	C	1.030710	0.000138	-0.159345
C140	C	1.364044	0.333472	0.173988
C141	C	1.697377	0.666805	0.507321
C142	C	0.829573	0.000105	0.062426
C143	C	1.162907	0.333438	0.395759
C144	C	1.496240	0.666772	0.729093
C145	C	0.827521	0.000107	0.201826
C146	C	1.160854	0.333441	0.535159
C147	C	1.494188	0.666774	0.868492
N148	N	0.825617	0.189807	-0.167202
N149	N	1.158950	0.523140	0.166131
N150	N	1.492283	0.856473	0.499464
C151	C	0.821603	0.000109	-0.396818
C152	C	1.154936	0.333443	-0.063485
C153	C	1.488269	0.666776	0.269848
C154	C	0.823655	0.000112	-0.536218
C155	C	1.156988	0.333445	-0.202884
C156	C	1.490322	0.666778	0.130449
C157	C	0.890085	0.000113	0.282645
C158	C	1.223418	0.333446	0.615979
C159	C	1.556751	0.666779	0.949312
C160	C	0.888152	0.000118	0.413625
C161	C	1.221485	0.333451	0.746958
C162	C	1.554819	0.666784	1.080292
C163	C	0.761086	0.000108	0.382952
C164	C	1.094420	0.333442	0.716286
C165	C	1.427753	0.666775	1.049619
C166	C	0.763020	0.000109	0.251975
C167	C	1.096353	0.333442	0.585308
C168	C	1.429687	0.666775	0.918642
C169	C	0.963445	0.000115	0.300355
C170	C	1.296778	0.333448	0.633688
C171	C	1.630112	0.666782	0.967022
C172	C	0.961512	0.000120	0.431335
C173	C	1.294846	0.333453	0.764668
C174	C	1.628179	0.666787	1.098001
H175	H	0.613740	0.120504	-0.174855
H176	H	0.947074	0.453837	0.158478
H177	H	1.280407	0.787170	0.491811
H178	H	0.708572	0.000110	0.423800
H179	H	1.041905	0.333444	0.757134
H180	H	1.375238	0.666777	1.090467
F181	F	0.178669	-0.136896	-0.163277
F182	F	0.512002	0.196437	0.170056
F183	F	0.845336	0.529770	0.503390
F184	F	0.993959	-0.068603	0.254436
F185	F	1.327292	0.264730	0.587769
F186	F	1.660626	0.598064	0.921103
H187	H	0.989146	-0.050833	0.473688
H188	H	1.322479	0.282501	0.807021
H189	H	1.655812	0.615834	1.140355
H190	H	0.983691	0.052696	0.477446
H191	H	1.317024	0.386029	0.810779
H192	H	1.650357	0.719363	1.144113
H193	H	0.910956	-0.196692	-0.011869
H194	H	1.244289	0.136641	0.321465
H195	H	1.577623	0.469975	0.654798
H196	H	0.481608	0.120516	-0.171351
H197	H	0.814941	0.453849	0.161982
H198	H	1.148275	0.787183	0.495315
H199	H	0.481517	-0.120326	-0.171347
H200	H	0.814850	0.213007	0.161986
H201	H	1.148184	0.546341	0.495319
F202	F	1.000959	0.066718	0.262770
F203	F	1.334292	0.400051	0.596103
F204	F	1.667626	0.733385	0.929436
H205	H	0.613655	-0.120347	-0.174880
H206	H	0.946988	0.212987	0.158453
H207	H	1.280322	0.546320	0.491787
F208	F	0.696431	0.000118	0.165964
F209	F	1.029765	0.333452	0.499298
F210	F	1.363098	0.666785	0.832631
H211	H	0.740167	-0.196736	-0.322497
H212	H	1.073501	0.136597	0.010836
H213	H	1.406834	0.469931	0.344170
H214	H	0.740189	-0.335786	-0.322503
H215	H	1.073522	-0.002452	0.010831
H216	H	1.406856	0.330881	0.344164
F217	F	0.922735	-0.345316	0.009536
F218	F	1.256068	-0.011983	0.342870
F219	F	1.589401	0.321351	0.676203
F220	F	0.922766	-0.654420	0.009524
F221	F	1.256099	-0.321087	0.342857
F222	F	1.589433	0.012246	0.676191
F223	F	0.728450	-0.654470	-0.343928
F224	F	1.061783	-0.321136	-0.010595
F225	F	1.395116	0.012197	0.322739
H226	H	0.740228	-0.803098	-0.322524
H227	H	1.073562	-0.469764	0.010809
H228	H	1.406895	-0.136431	0.344143
F229	F	0.178768	0.137144	-0.163279
F230	F	0.512102	0.470477	0.170055
F231	F	0.845435	0.803810	0.503388
F232	F	0.028421	0.137157	-0.159298
F233	F	0.361755	0.470490	0.174036
F234	F	0.695088	0.803823	0.507369
H235	H	0.037432	-0.120285	-0.159521
H236	H	0.370765	0.213048	0.173812
H237	H	0.704099	0.546381	0.507146
H238	H	0.911000	-0.803049	-0.011876
H239	H	1.244333	-0.469716	0.321457
H240	H	1.577667	-0.136382	0.654791
