data_functionalizedCrystal
_audit_creation_method	'MofGen! by Chris Wilmer'
_symmetry_space_group_name_H-M	'P1'
_symmetry_Int_Tables_number	1
_symmetry_cell_setting	triclinic
loop_
_symmetry_equiv_pos_as_xyz
  x,y,z
_cell_length_a	9.730223
_cell_length_b	11.792254
_cell_length_c	10.654559
_cell_angle_alpha	95.656379
_cell_angle_beta	89.999562
_cell_angle_gamma	90.004044
loop_
_atom_site_label
_atom_site_type_symbol
_atom_site_fract_x
_atom_site_fract_y
_atom_site_fract_z
O1	O	-0.114330	-1.507301	0.172202
O2	O	0.385670	-1.007301	0.672202
O3	O	-0.114325	-1.177003	0.189926
O4	O	0.385675	-0.677003	0.689926
O5	O	-0.114317	-1.349741	-0.001696
O6	O	0.385683	-0.849741	0.498304
O7	O	-0.114338	-1.334564	0.363824
O8	O	0.385662	-0.834564	0.863824
O9	O	0.114263	-1.349730	-0.001685
O10	O	0.614263	-0.849730	0.498315
O11	O	0.114255	-1.176992	0.189936
O12	O	0.614255	-0.676992	0.689936
O13	O	0.114250	-1.507290	0.172213
O14	O	0.614250	-1.007290	0.672213
Zn15	Zn	0.150545	-1.342139	0.181076
Zn16	Zn	0.650545	-0.842139	0.681076
Zn17	Zn	-0.150619	-1.342154	0.181062
Zn18	Zn	0.349381	-0.842154	0.681062
O19	O	0.114242	-1.334552	0.363834
O20	O	0.614242	-0.834552	0.863834
C21	C	-0.000034	-1.134705	0.188815
C22	C	0.499966	-0.634705	0.688815
C23	C	-0.000031	-1.008684	0.185473
C24	C	0.499969	-0.508684	0.685473
N25	N	0.356081	-1.342138	0.181085
N26	N	0.856081	-0.842138	0.681085
N27	N	-0.356156	-1.342165	0.181043
N28	N	0.143844	-0.842165	0.681043
C29	C	-0.000034	-0.906341	0.182758
C30	C	0.499966	-0.406341	0.682758
C31	C	-0.000032	-0.777946	0.179362
C32	C	0.499968	-0.277946	0.679362
C33	C	0.428014	-1.411574	0.257767
C34	C	0.928014	-0.911574	0.757767
C35	C	0.571897	-1.411591	0.257743
C36	C	1.071897	-0.911591	0.757743
C37	C	0.571901	-1.272725	0.104353
C38	C	1.071901	-0.772725	0.604353
C39	C	0.428021	-1.272715	0.104371
C40	C	0.928021	-0.772715	0.604371
C41	C	0.428013	-1.491743	0.346329
C42	C	0.928013	-0.991743	0.846329
C43	C	0.571896	-1.491760	0.346305
C44	C	1.071896	-0.991760	0.846305
C45	C	-0.000027	-1.348619	-0.048485
C46	C	0.499973	-0.848619	0.451515
C47	C	-0.000028	-1.345278	-0.187918
C48	C	0.499972	-0.845278	0.312082
C49	C	-0.000037	-0.549589	0.173324
C50	C	0.499963	-0.049589	0.673324
C51	C	-0.000029	-0.675610	0.176666
C52	C	0.499971	-0.175610	0.676666
C53	C	-0.124651	-1.340584	-0.384428
C54	C	0.375349	-0.840584	0.115572
C55	C	-0.124636	-1.343720	-0.253415
C56	C	0.375364	-0.843720	0.246585
C57	C	0.124574	-1.343713	-0.253443
C58	C	0.624574	-0.843713	0.246557
C59	C	0.124558	-1.340585	-0.384454
C60	C	0.624558	-0.840585	0.115546
C61	C	-0.268531	-1.340583	-0.384411
C62	C	0.231469	-0.840583	0.115589
C63	C	-0.268516	-1.343719	-0.253398
C64	C	0.231484	-0.843719	0.246602
C65	C	-0.000051	-1.335674	0.410624
C66	C	0.499949	-0.835674	0.910624
C67	C	-0.000059	-1.339015	0.550057
C68	C	0.499941	-0.839015	1.050057
H69	H	0.630492	-1.216204	0.041896
H70	H	1.130492	-0.716204	0.541896
H71	H	-0.323785	-1.419023	-0.430897
H72	H	0.176215	-0.919023	0.069103
N73	N	0.623647	-1.454722	0.477583
N74	N	1.123647	-0.954722	0.977583
H75	H	0.681341	-1.383682	0.475930
H76	H	1.181341	-0.883682	0.975930
H77	H	0.681248	-1.517558	0.508520
H78	H	1.181248	-1.017558	1.008520
N79	N	-0.327688	-1.453354	-0.214507
N80	N	0.172312	-0.953354	0.285493
H81	H	-0.325521	-1.451653	-0.119566
H82	H	0.174479	-0.951653	0.380434
H83	H	-0.271363	-1.519832	-0.253032
H84	H	0.228637	-1.019832	0.246968
N85	N	0.368895	-1.444433	0.471717
N86	N	0.868895	-0.944433	0.971717
H87	H	0.310468	-1.375547	0.459686
H88	H	0.810468	-0.875547	0.959686
H89	H	0.446230	-1.421643	0.532233
H90	H	0.946230	-0.921643	1.032233
N91	N	-0.327639	-1.230933	-0.423296
N92	N	0.172361	-0.730933	0.076704
H93	H	-0.356192	-1.180255	-0.345722
H94	H	0.143808	-0.680255	0.154278
H95	H	-0.410325	-1.248568	-0.479128
H96	H	0.089675	-0.748568	0.020872
H97	H	-0.323748	-1.265279	-0.206894
H98	H	0.176252	-0.765279	0.293106
H99	H	0.616500	-1.577245	0.306590
H100	H	1.116500	-1.077245	0.806590
H101	H	0.226013	-1.339325	-0.437794
H102	H	0.726013	-0.839325	0.062206
H103	H	0.226033	-1.344992	-0.200106
H104	H	0.726033	-0.844992	0.299894
H105	H	0.369458	-1.216186	0.041917
H106	H	0.869458	-0.716186	0.541917
H107	H	0.388948	-1.581259	0.315223
H108	H	0.888948	-1.081259	0.815223
