data_functionalizedCrystal
_audit_creation_method	'MofGen! by Chris Wilmer'
_symmetry_space_group_name_H-M	'P1'
_symmetry_Int_Tables_number	1
_symmetry_cell_setting	triclinic
loop_
_symmetry_equiv_pos_as_xyz
  x,y,z
_cell_length_a	19.805407
_cell_length_b	18.101397
_cell_length_c	19.805399
_cell_angle_alpha	90.029325
_cell_angle_beta	90.020409
_cell_angle_gamma	90.022406
loop_
_atom_site_label
_atom_site_type_symbol
_atom_site_fract_x
_atom_site_fract_y
_atom_site_fract_z
Zn1	Zn	1.034764	-0.294808	0.382727
Zn2	Zn	1.534764	0.205192	0.882727
Zn3	Zn	1.034690	-0.418652	0.269535
Zn4	Zn	1.534690	0.081348	0.769535
Zn5	Zn	0.921578	-0.294833	0.269550
Zn6	Zn	1.421578	0.205167	0.769550
Zn7	Zn	0.921554	-0.418617	0.382680
Zn8	Zn	1.421554	0.081383	0.882680
O9	O	0.978146	-0.356728	0.326123
O10	O	1.478146	0.143272	0.826123
O11	O	1.129470	-0.311241	0.367725
O12	O	1.629470	0.188759	0.867725
O13	O	1.019665	-0.402252	0.174820
O14	O	1.519665	0.097748	0.674820
O15	O	0.936634	-0.191197	0.284588
O16	O	1.436634	0.308803	0.784588
O17	O	1.129417	-0.402228	0.284563
O18	O	1.629417	0.097772	0.784563
O19	O	1.019790	-0.191179	0.367739
O20	O	1.519790	0.308821	0.867739
O21	O	0.936562	-0.311283	0.174831
O22	O	1.436562	0.188717	0.674831
O23	O	0.826858	-0.311249	0.284543
O24	O	1.326858	0.188751	0.784543
O25	O	0.936591	-0.402168	0.477403
O26	O	1.436591	0.097832	0.977403
O27	O	0.826840	-0.402192	0.367660
O28	O	1.326840	0.097808	0.867660
O29	O	1.019766	-0.311207	0.477437
O30	O	1.519766	0.188793	0.977437
O31	O	1.019641	-0.522280	0.284518
O32	O	1.519641	-0.022280	0.784518
O33	O	0.936520	-0.522254	0.367645
O34	O	1.436520	-0.022254	0.867645
C35	C	0.802290	-0.356720	0.326098
C36	C	1.302290	0.143280	0.826098
C37	C	0.727058	-0.356734	0.326104
C38	C	1.227058	0.143266	0.826104
C39	C	0.265299	-0.309439	0.369517
C40	C	0.765299	0.190561	0.869517
C41	C	0.335987	-0.309440	0.369512
C42	C	0.835987	0.190560	0.869512
C43	C	0.371297	-0.356739	0.326145
C44	C	0.871297	0.143261	0.826145
C45	C	0.335914	-0.404044	0.282784
C46	C	0.835914	0.095956	0.782784
C47	C	0.265227	-0.404046	0.282792
C48	C	0.765227	0.095954	0.782792
C49	C	0.620987	-0.404039	0.282748
C50	C	1.120987	0.095961	0.782748
C51	C	0.691679	-0.404031	0.282741
C52	C	1.191679	0.095969	0.782741
C53	C	0.691748	-0.309433	0.369468
C54	C	1.191748	0.190567	0.869468
C55	C	0.621061	-0.309435	0.369477
C56	C	1.121061	0.190565	0.869477
C57	C	0.585684	-0.356743	0.326118
C58	C	1.085684	0.143257	0.826118
C59	C	0.509036	-0.356742	0.326125
C60	C	1.009036	0.143258	0.826125
C61	C	0.447944	-0.356737	0.326134
C62	C	0.947944	0.143263	0.826134
C63	C	0.978089	-0.549138	0.326090
C64	C	1.478089	-0.049138	0.826090
C65	C	0.978126	-0.631452	0.326099
C66	C	1.478126	-0.131452	0.826099
C67	C	0.978212	-0.930543	0.326160
C68	C	1.478212	-0.430543	0.826160
C69	C	1.030364	-0.899203	0.273719
C70	C	1.530364	-0.399203	0.773719
C71	C	1.030544	-0.813585	0.273855
C72	C	1.530544	-0.313585	0.773855
C73	C	0.978169	-0.782161	0.326129
C74	C	1.478169	-0.282161	0.826129
C75	C	0.997504	-0.813169	0.397474
C76	C	1.497504	-0.313169	0.897474
C77	C	0.997908	-0.898814	0.397189
C78	C	1.497908	-0.398814	0.897189
C79	C	0.906586	-0.899054	0.307874
C80	C	1.406586	-0.399054	0.807874
C81	C	0.906940	-0.813405	0.306282
C82	C	1.406940	-0.313405	0.806282
C83	C	0.978144	-0.698301	0.326116
C84	C	1.478144	-0.198301	0.826116
C85	C	0.978239	-1.014403	0.326178
C86	C	1.478239	-0.514403	0.826178
C87	C	1.154689	-0.356736	0.326148
C88	C	1.654689	0.143264	0.826148
C89	C	1.229921	-0.356739	0.326158
C90	C	1.729921	0.143261	0.826158
C91	C	0.978184	-0.356681	0.502666
C92	C	1.478184	0.143319	1.002666
C93	C	0.978201	-0.356661	0.577898
C94	C	1.478201	0.143339	1.077898
C95	C	0.978223	-0.163566	0.326170
C96	C	1.478223	0.336434	0.826170
C97	C	0.978256	-0.081252	0.326191
C98	C	1.478256	0.418748	0.826191
C99	C	0.978148	-0.356721	0.150267
C100	C	1.478148	0.143279	0.650267
C101	C	0.978263	-0.356532	0.075035
C102	C	1.478263	0.143468	0.575035
C103	C	1.021511	-0.309295	0.613261
C104	C	1.521511	0.190705	1.113261
C105	C	1.021518	-0.309274	0.683949
C106	C	1.521518	0.190726	1.183949
C107	C	0.978217	-0.356622	0.719273
C108	C	1.478217	0.143378	1.219273
C109	C	0.934902	-0.403990	0.683905
C110	C	1.434902	0.096010	1.183905
C111	C	0.934893	-0.404008	0.613218
C112	C	1.434893	0.095992	1.113218
C113	C	0.934941	-0.403921	0.968979
C114	C	1.434941	0.096079	1.468979
C115	C	0.934955	-0.403902	1.039671
C116	C	1.434955	0.096098	1.539671
C117	C	1.021566	-0.309187	1.039710
C118	C	1.521566	0.190813	1.539710
C119	C	1.021556	-0.309204	0.969023
C120	C	1.521556	0.190796	1.469023
C121	C	0.978239	-0.356569	0.933661
C122	C	1.478239	0.143431	1.433661
C123	C	0.978231	-0.356591	0.857012
C124	C	1.478231	0.143409	1.357012
C125	C	0.978228	-0.356605	0.795920
C126	C	1.478228	0.143395	1.295920
H127	H	0.236423	-0.442564	0.247486
H128	H	0.736423	0.057436	0.747486
N129	N	0.890655	-0.452342	0.719982
N130	N	1.390655	0.047658	1.219982
N131	N	0.828201	-0.447412	0.712074
N132	N	1.328201	0.052588	1.212074
H133	H	0.796948	-0.481557	0.737554
H134	H	1.296948	0.018443	1.237554
H135	H	0.364789	-0.270926	0.404822
H136	H	0.864789	0.229074	0.904822
N137	N	1.065810	-0.260808	1.075843
N138	N	1.565810	0.239192	1.575843
N139	N	1.065816	-0.260795	1.138955
N140	N	1.565816	0.239205	1.638955
H141	H	1.097065	-0.226630	1.164474
H142	H	1.597065	0.273370	1.664474
N143	N	0.727886	-0.261102	0.413753
N144	N	1.227886	0.238898	0.913753
N145	N	0.767333	-0.213876	0.390010
N146	N	1.267333	0.286124	0.890010
H147	H	0.792854	-0.179740	0.421283
H148	H	1.292854	0.320260	0.921283
N149	N	0.888627	-0.787984	0.240424
N150	N	1.388627	-0.287984	0.740424
N151	N	0.833392	-0.806741	0.215112
N152	N	1.333392	-0.306741	0.715112
H153	H	0.820458	-0.788783	0.168601
H154	H	1.320458	-0.288783	0.668601
H155	H	1.018448	-0.792622	0.220953
H156	H	1.518448	-0.292622	0.720953
H157	H	1.056773	-0.270740	0.584505
H158	H	1.556773	0.229260	1.084505
N159	N	1.063586	-0.923819	0.416604
N160	N	1.563586	-0.423819	0.916604
N161	N	1.075760	-0.991473	0.419899
N162	N	1.575760	-0.491473	0.919899
H163	H	1.122147	-1.009131	0.433609
H164	H	1.622147	-0.509131	0.933609
H165	H	1.056787	-0.270705	0.712739
H166	H	1.556787	0.229295	1.212739
H167	H	0.592192	-0.442557	0.247441
H168	H	1.092192	0.057443	0.747441
H169	H	0.720426	-0.442551	0.247424
H170	H	1.220426	0.057449	0.747424
H171	H	0.592315	-0.270917	0.404789
H172	H	1.092315	0.229083	0.904789
N173	N	0.371990	-0.452361	0.238494
N174	N	0.871990	0.047639	0.738494
N175	N	0.435102	-0.452354	0.238491
N176	N	0.935102	0.047646	0.738491
H177	H	0.460581	-0.486478	0.207210
H178	H	0.960581	0.013522	0.707210
H179	H	0.236555	-0.270919	0.404829
H180	H	0.736555	0.229081	0.904829
H181	H	1.018413	-0.919846	0.220659
H182	H	1.518413	-0.419846	0.720659
H183	H	0.961587	-0.919543	0.437608
H184	H	1.461587	-0.419543	0.937608
H185	H	1.083130	-0.920670	0.285679
H186	H	1.583130	-0.420670	0.785679
H187	H	0.899679	-0.442500	0.940196
H188	H	1.399679	0.057500	1.440196
N189	N	1.097103	-0.787799	0.289018
N190	N	1.597103	-0.287799	0.789018
N191	N	1.127985	-0.748235	0.247540
N192	N	1.627985	-0.248235	0.747540
H193	H	1.174996	-0.730025	0.258246
H194	H	1.674996	-0.230025	0.758246
N195	N	0.890726	-0.452266	1.075764
N196	N	1.390726	0.047734	1.575764
N197	N	0.914523	-0.499450	1.115201
N198	N	1.414523	0.000550	1.615201
H199	H	0.883289	-0.533606	1.140692
H200	H	1.383289	-0.033606	1.640692
H201	H	0.960681	-0.792812	0.437598
H202	H	1.460681	-0.292812	0.937598
H203	H	0.899618	-0.442570	0.584426
H204	H	1.399618	0.057430	1.084426
H205	H	1.049274	-0.791660	0.413225
H206	H	1.549274	-0.291660	0.913225
H207	H	0.867729	-0.919322	0.346069
H208	H	1.367729	-0.419322	0.846069
H209	H	1.056818	-0.270651	0.940265
H210	H	1.556818	0.229349	1.440265
N211	N	0.884526	-0.926229	0.243740
N212	N	1.384526	-0.426229	0.743740
N213	N	0.921331	-0.969141	0.210729
N214	N	1.421331	-0.469141	0.710729
H215	H	0.905758	-0.988335	0.165432
H216	H	1.405758	-0.488335	0.665432
H217	H	0.865993	-0.792022	0.341680
H218	H	1.365993	-0.292022	0.841680
