data_functionalizedCrystal
_audit_creation_method	'MofGen! by Chris Wilmer'
_symmetry_space_group_name_H-M	'P1'
_symmetry_Int_Tables_number	1
_symmetry_cell_setting	triclinic
loop_
_symmetry_equiv_pos_as_xyz
  x,y,z
_cell_length_a	10.723024
_cell_length_b	14.853567
_cell_length_c	9.798715
_cell_angle_alpha	90.000647
_cell_angle_beta	89.996609
_cell_angle_gamma	84.051400
loop_
_atom_site_label
_atom_site_type_symbol
_atom_site_fract_x
_atom_site_fract_y
_atom_site_fract_z
O1	O	1.655908	0.126445	-0.113470
O2	O	1.292633	0.138549	-0.113473
O3	O	1.483974	0.001318	-0.113475
O4	O	1.464567	0.263675	-0.113467
O5	O	1.483960	0.001318	0.113507
O6	O	1.292619	0.138548	0.113509
O7	O	1.655894	0.126445	0.113513
Zn8	Zn	1.474254	0.132497	0.149549
Zn9	Zn	1.474273	0.132497	-0.149510
O10	O	1.464553	0.263675	0.113515
C11	C	1.246136	0.137668	0.000017
C12	C	1.107608	0.135032	0.000016
C13	C	1.031849	0.211819	0.000017
C14	C	0.888673	0.209097	0.000015
C15	C	1.483088	-0.032275	0.000012
C16	C	1.480453	-0.132373	-0.000000
C17	C	1.355653	-0.545565	0.000025
C18	C	1.582971	-0.565646	0.000027
C19	C	1.585448	-0.471599	0.000019
C20	C	1.473027	-0.414531	0.000016
C21	C	1.358127	-0.451510	0.000021
C22	C	1.700345	-0.434614	0.000028
C23	C	1.702828	-0.340562	0.000021
C24	C	1.590405	-0.283491	0.000008
C25	C	1.475501	-0.320475	0.000012
C26	C	1.363079	-0.263407	0.000009
C27	C	1.248174	-0.300389	0.000003
C28	C	1.245704	-0.394440	0.000008
C29	C	1.592874	-0.189441	0.000003
C30	C	1.365554	-0.169351	0.000005
C31	C	1.702392	0.127326	0.000019
C32	C	1.840919	0.129961	0.000012
C33	C	1.465439	0.297269	0.000025
C34	C	1.468075	0.397366	0.000028
N35	N	1.474251	0.132496	0.353649
N36	N	1.474287	0.132491	-0.353609
C37	C	1.554592	0.074623	0.421425
C38	C	1.554612	0.074619	0.578588
H39	H	1.066471	0.067277	-0.000021
H40	H	1.623400	0.025075	0.636872
H41	H	1.072985	0.279574	0.000027
C42	C	1.717487	-0.149114	0.000080
C43	C	1.695595	-0.054534	0.000104
C44	C	1.810365	-0.017356	0.000192
H45	H	1.763889	-0.168558	-0.079045
H46	H	1.763783	-0.168598	0.079272
H47	H	1.649320	-0.035058	-0.079080
H48	H	1.649212	-0.035065	0.079224
H49	H	1.856660	-0.036840	0.079384
H50	H	1.856758	-0.036806	-0.078935
H51	H	1.795527	0.046820	0.000221
H52	H	1.152154	-0.424559	0.000004
H53	H	1.405504	0.182044	0.588115
C54	C	1.382487	0.198417	0.431582
C55	C	1.305918	0.150002	0.513653
C56	C	1.221380	0.210700	0.585474
H57	H	1.331957	0.234753	0.368838
H58	H	1.427618	0.236091	0.487397
H59	H	1.260791	0.112344	0.457843
H60	H	1.356413	0.113669	0.576422
H61	H	1.266510	0.248374	0.641290
H62	H	1.170859	0.247032	0.522721
H63	H	1.169425	0.177859	0.641178
H64	H	0.823575	0.274833	0.000011
H65	H	0.906010	0.064222	0.000002
H66	H	1.274005	-0.122892	-0.000003
C67	C	1.126078	-0.238469	0.000280
C68	C	1.056903	-0.255267	0.117068
C69	C	0.944435	-0.198232	0.117378
H70	H	1.078830	-0.249699	-0.078785
H71	H	1.143963	-0.177148	0.000357
H72	H	1.039015	-0.316573	0.116978
H73	H	1.104114	-0.244031	0.196152
H74	H	0.962320	-0.136911	0.117456
H75	H	0.897197	-0.209467	0.038309
H76	H	0.897491	-0.209615	0.196624
H77	H	1.262100	-0.575681	0.000014
H78	H	1.674499	-0.612116	0.000040
C79	C	1.646150	0.008430	0.343704
C80	C	1.625464	-0.080266	0.378296
C81	C	1.709774	-0.141258	0.306702
H82	H	1.729584	0.018471	0.366965
H83	H	1.633921	0.017174	0.248402
H84	H	1.637703	-0.089005	0.473577
H85	H	1.542047	-0.090334	0.355032
H86	H	1.697545	-0.132515	0.211399
H87	H	1.793203	-0.131210	0.329968
H88	H	1.695743	-0.201445	0.330153
H89	H	1.791873	-0.481085	0.000043
H90	H	1.796390	-0.310459	0.000024
