data_functionalizedCrystal
_audit_creation_method	'MofGen! by Chris Wilmer'
_symmetry_space_group_name_H-M	'P1'
_symmetry_Int_Tables_number	1
_symmetry_cell_setting	triclinic
loop_
_symmetry_equiv_pos_as_xyz
  x,y,z
_cell_length_a	14.044191
_cell_length_b	17.699083
_cell_length_c	16.176319
_cell_angle_alpha	90.007696
_cell_angle_beta	89.997075
_cell_angle_gamma	91.762604
loop_
_atom_site_label
_atom_site_type_symbol
_atom_site_fract_x
_atom_site_fract_y
_atom_site_fract_z
O1	O	1.257292	-0.182469	-0.068674
O2	O	0.981337	-0.175880	-0.068692
O3	O	1.127111	-0.069523	-0.068675
O4	O	1.111518	-0.288826	-0.068691
O5	O	1.127091	-0.069514	0.068818
O6	O	0.981317	-0.175871	0.068801
O7	O	1.257272	-0.182460	0.068819
Cu8	Cu	1.119293	-0.179165	0.081364
Cu9	Cu	1.119317	-0.179175	-0.081237
O10	O	1.111498	-0.288817	0.068802
C11	C	0.946020	-0.172993	0.000052
C12	C	0.840814	-0.164395	0.000045
C13	C	1.126542	-0.041283	0.000071
C14	C	1.124866	0.042850	0.000071
C15	C	1.292590	-0.185347	0.000073
C16	C	1.397796	-0.193945	0.000074
C17	C	1.648187	-0.148685	0.000060
C18	C	1.590417	-0.209652	0.000059
C19	C	1.483233	-0.200911	0.000067
C20	C	1.755381	-0.157425	0.000052
C21	C	1.112067	-0.317057	0.000054
C22	C	1.113743	-0.401191	0.000048
N23	N	1.119283	-0.179158	0.195729
C24	C	1.210432	0.085567	0.000078
C25	C	1.208852	0.164620	0.000071
C26	C	1.121704	0.200954	0.000063
C27	C	1.036131	0.158231	0.000053
C28	C	1.037713	0.079180	0.000055
C29	C	1.029751	0.477035	0.000046
C30	C	1.028176	0.556091	0.000047
C31	C	1.200890	0.562474	0.000062
C32	C	1.202471	0.483423	0.000064
C33	C	1.116899	0.440707	0.000050
C34	C	1.118614	0.354990	0.000057
C35	C	1.119988	0.286670	0.000062
N36	N	1.119334	-0.179177	-0.195603
C37	C	1.183851	-0.132085	0.239001
C38	C	1.183856	-0.132085	0.325548
C39	C	1.119297	-0.179161	0.368822
C40	C	1.054722	-0.226236	0.325544
C41	C	1.054713	-0.226232	0.238999
C42	C	1.054754	-0.226252	0.674573
C43	C	1.054770	-0.226254	0.761124
C44	C	1.183897	-0.132105	0.761122
C45	C	1.183888	-0.132101	0.674576
C46	C	1.119311	-0.179172	0.631306
C47	C	1.119305	-0.179171	0.537462
C48	C	1.119306	-0.179167	0.462665
H49	H	1.617148	-0.089929	0.000069
H50	H	1.281398	0.055990	0.000090
H51	H	1.621457	-0.268413	0.000051
H52	H	1.236461	-0.093770	0.639346
H53	H	1.236477	-0.093775	0.796362
O54	O	1.292058	0.206000	0.000120
C55	C	1.369315	0.156980	0.000114
H56	H	1.345116	0.099697	0.026142
H57	H	1.429247	0.182058	0.040041
H58	H	1.396055	0.149545	-0.065844
H59	H	1.002134	-0.264562	0.203768
O60	O	1.283930	0.604083	0.000029
C61	C	1.263855	0.681647	0.000043
H62	H	1.189426	0.689698	-0.025996
H63	H	1.318416	0.713721	-0.039871
H64	H	1.267488	0.704242	0.066005
O65	O	0.991955	-0.272004	0.803034
C66	C	0.934968	-0.313561	0.746285
H67	H	0.933965	-0.282462	0.684598
H68	H	0.859262	-0.319952	0.771304
H69	H	0.965594	-0.371874	0.737066
O70	O	0.951392	0.193404	0.000006
C71	C	0.876208	0.138746	0.000018
H72	H	0.902658	0.083329	-0.026009
H73	H	0.815360	0.159347	-0.039906
H74	H	0.849810	0.129365	0.065978
H75	H	1.273436	0.453844	0.000075
O76	O	0.943433	0.591267	-0.000005
C77	C	0.868243	0.536615	0.000002
H78	H	0.894688	0.481197	-0.026025
H79	H	0.807401	0.557222	-0.039927
H80	H	0.841837	0.527235	0.065959
O81	O	0.946653	0.435517	-0.000108
C82	C	0.942413	0.389580	-0.071308
H83	H	0.990955	0.415205	-0.121075
H84	H	0.866055	0.385865	-0.095216
H85	H	0.966799	0.330525	-0.055209
O86	O	0.992166	-0.272027	0.632461
C87	C	1.042806	-0.322176	0.582403
H88	H	1.117027	-0.297072	0.569423
H89	H	1.003211	-0.331469	0.521552
H90	H	1.049130	-0.378539	0.615754
O91	O	0.954620	0.037649	-0.000096
C92	C	0.950392	-0.008289	-0.071296
H93	H	0.998930	0.017341	-0.121062
H94	H	0.874035	-0.012015	-0.095206
H95	H	0.974790	-0.067340	-0.055195
H96	H	1.236431	-0.093754	0.360780
O97	O	1.246601	-0.086284	0.197097
C98	C	1.303606	-0.044750	0.253853
H99	H	1.264758	-0.041257	0.315550
H100	H	1.318204	0.014703	0.228859
H101	H	1.373948	-0.074109	0.263043
O102	O	0.991969	-0.271858	0.367671
C103	C	0.933593	-0.227355	0.417735
H104	H	0.971481	-0.170706	0.430706
H105	H	0.918535	-0.257924	0.478591
H106	H	0.863560	-0.217449	0.384394
