data_functionalizedCrystal
_audit_creation_method	'MofGen! by Chris Wilmer'
_symmetry_space_group_name_H-M	'P1'
_symmetry_Int_Tables_number	1
_symmetry_cell_setting	triclinic
loop_
_symmetry_equiv_pos_as_xyz
  x,y,z
_cell_length_a	19.077236
_cell_length_b	18.050589
_cell_length_c	19.077174
_cell_angle_alpha	92.276796
_cell_angle_beta	85.294282
_cell_angle_gamma	92.321157
loop_
_atom_site_label
_atom_site_type_symbol
_atom_site_fract_x
_atom_site_fract_y
_atom_site_fract_z
Zn1	Zn	1.093723	-0.268141	-0.441989
Zn2	Zn	1.088901	-0.387542	-0.324108
Zn3	Zn	0.971104	-0.268152	-0.319372
Zn4	Zn	0.975791	-0.397080	-0.437213
O5	O	1.032379	-0.330229	-0.380671
O6	O	1.191736	-0.279983	-0.430333
O7	O	1.069295	-0.367717	-0.224829
O8	O	0.987426	-0.164224	-0.335654
O9	O	1.188194	-0.367706	-0.343726
O10	O	1.077514	-0.164216	-0.425741
O11	O	0.982751	-0.280002	-0.221350
O12	O	0.873072	-0.289251	-0.331023
O13	O	0.995414	-0.383963	-0.536497
O14	O	0.876516	-0.383974	-0.417600
O15	O	1.082058	-0.289232	-0.540006
O16	O	1.073840	-0.492733	-0.339095
O17	O	0.990738	-0.499741	-0.422193
C18	C	0.849214	-0.337649	-0.373280
C19	C	0.770856	-0.340842	-0.370135
C20	C	0.735891	-0.296748	-0.413818
C21	C	0.662265	-0.299745	-0.410857
C22	C	0.623606	-0.346840	-0.364216
C23	C	0.658575	-0.390936	-0.320528
C24	C	0.732200	-0.387935	-0.323486
C25	C	0.403213	-0.360700	-0.350523
C26	C	0.329584	-0.363700	-0.347570
C27	C	0.333278	-0.272507	-0.437898
C28	C	0.406904	-0.269513	-0.440854
C29	C	0.441868	-0.313606	-0.397164
N30	N	0.548348	-0.349906	-0.361190
N31	N	0.517124	-0.310536	-0.400188
C32	C	1.032294	-0.523184	-0.380656
C33	C	1.032323	-0.605729	-0.380675
C34	C	0.987178	-0.809015	-0.425849
C35	C	0.967413	-0.856535	-0.360830
C36	C	1.032392	-0.756857	-0.380687
C37	C	1.052192	-0.856418	-0.445715
C38	C	1.032459	-0.902840	-0.380704
C39	C	1.012592	-0.803289	-0.315633
C40	C	1.097403	-0.803169	-0.400562
C41	C	1.077661	-0.850664	-0.335500
C42	C	1.032352	-0.672760	-0.380678
C43	C	1.032498	-0.986935	-0.380706
C44	C	1.216260	-0.322780	-0.388091
C45	C	1.294619	-0.319605	-0.391252
C46	C	1.039797	-0.337660	-0.564546
C47	C	1.042957	-0.340827	-0.642902
C48	C	1.032485	-0.136520	-0.380702
C49	C	1.032530	-0.053973	-0.380715
C50	C	0.999385	-0.296647	-0.677903
C51	C	1.002352	-0.299629	-0.751527
C52	C	1.048896	-0.346787	-0.790150
C53	C	1.092470	-0.390972	-0.755145
C54	C	1.089499	-0.387993	-0.681522
C55	C	1.062610	-0.360596	-1.010534
C56	C	1.065580	-0.363569	-1.084162
C57	C	0.975461	-0.272227	-1.080539
C58	C	0.972497	-0.269249	-1.006915
C59	C	1.016068	-0.313437	-0.971916
N60	N	1.051931	-0.349834	-0.865406
N61	N	1.013029	-0.310393	-0.896661
C62	C	1.025032	-0.322771	-0.197513
C63	C	1.022008	-0.319389	-0.119162
H64	H	0.304803	-0.236608	-0.473467
C65	C	0.333322	-0.453537	-0.258571
C66	C	0.287087	-0.415469	-0.296297
H67	H	0.307085	-0.485493	-0.226919
H68	H	0.363273	-0.482063	-0.290389
H69	H	0.360957	-0.418869	-0.232811
H70	H	0.259456	-0.450138	-0.322062
H71	H	0.257123	-0.386941	-0.264474
C72	C	0.482154	-0.363661	-0.259001
C73	C	0.441641	-0.409173	-0.302506
H74	H	0.505876	-0.393589	-0.229355
H75	H	0.515711	-0.335189	-0.287199
H76	H	0.452344	-0.331347	-0.230935
H77	H	0.471452	-0.441483	-0.330576
H78	H	0.408080	-0.437657	-0.274305
C79	C	1.181247	-0.480963	-0.751325
C80	C	1.143631	-0.442811	-0.797597
H81	H	1.212830	-0.512968	-0.777534
H82	H	1.207070	-0.446352	-0.723704
H83	H	1.149348	-0.509452	-0.721364
H84	H	1.175530	-0.414317	-0.827554
H85	H	1.117806	-0.477426	-0.825230
C86	C	0.811146	-0.390891	-0.231966
C87	C	0.770635	-0.436407	-0.275469
H88	H	0.834869	-0.420817	-0.202318
H89	H	0.844703	-0.362422	-0.260167
H90	H	0.781336	-0.358576	-0.203903
H91	H	0.800446	-0.468719	-0.303536
H92	H	0.737073	-0.464889	-0.247266
C93	C	0.867463	-0.811154	-0.456349
C94	C	0.935482	-0.784147	-0.477327
H95	H	0.835549	-0.795796	-0.488125
H96	H	0.866827	-0.863799	-0.456403
H97	H	0.853881	-0.792170	-0.410294
H98	H	0.949066	-0.803135	-0.523380
H99	H	0.936121	-0.731492	-0.477280
H100	H	0.767363	-0.258400	-0.451800
C101	C	0.894209	-0.965606	-0.337777
C102	C	0.893235	-0.888098	-0.338139
H103	H	0.848415	-0.985088	-0.323768
H104	H	0.908558	-0.984539	-0.383652
H105	H	0.926307	-0.979755	-0.305655
H106	H	0.861141	-0.873949	-0.370265
H107	H	0.878877	-0.869158	-0.292257
C108	C	0.673313	-0.209311	-0.500444
C109	C	0.623832	-0.251276	-0.458876
H110	H	0.649585	-0.179391	-0.530092
H111	H	0.700796	-0.178445	-0.470931
H112	H	0.703108	-0.241641	-0.528508
H113	H	0.594040	-0.218946	-0.430808
H114	H	0.596337	-0.282145	-0.488393
C115	C	0.901224	-0.286822	-0.591281
C116	C	0.948223	-0.244810	-0.635449
H117	H	0.869641	-0.254818	-0.565071
H118	H	0.875402	-0.321426	-0.618909
H119	H	0.926759	-0.312702	-0.559902
H120	H	0.922689	-0.218933	-0.666832
H121	H	0.974048	-0.210192	-0.607818
H122	H	0.939987	-0.236252	-1.109043
H123	H	1.098082	-0.396585	-0.982046
H124	H	0.966869	-0.263656	-0.780020
C125	C	1.154356	-0.453572	-1.080352
C126	C	1.116741	-0.415413	-1.126618
H127	H	1.185936	-0.485578	-1.106564
H128	H	1.180183	-0.418966	-1.052729
H129	H	1.122457	-0.482062	-1.050392
H130	H	1.148640	-0.386919	-1.156575
H131	H	1.090913	-0.450024	-1.154252
H132	H	1.124985	-0.423964	-0.653026
H133	H	0.934594	-0.230850	-0.975472
C134	C	0.990068	-0.694453	-0.242050
C135	C	0.989928	-0.772000	-0.241379
H136	H	0.976070	-0.675137	-0.196211
H137	H	1.036082	-0.675734	-0.256226
H138	H	0.958136	-0.679897	-0.274162
H139	H	1.021864	-0.786556	-0.209270
H140	H	0.943907	-0.790727	-0.227194
C141	C	1.108449	-0.848327	-0.215876
C142	C	1.129313	-0.875343	-0.283894
H143	H	1.140334	-0.863569	-0.184017
H144	H	1.108424	-0.795687	-0.215315
H145	H	1.062444	-0.867413	-0.202166
H146	H	1.175318	-0.856253	-0.297606
H147	H	1.129346	-0.927993	-0.284458
C148	C	0.575347	-0.493792	-0.307246
C149	C	0.616083	-0.442706	-0.269260
H150	H	0.549119	-0.525757	-0.275595
H151	H	0.543988	-0.467960	-0.332832
H152	H	0.605311	-0.522315	-0.339066
H153	H	0.586118	-0.414180	-0.237444
H154	H	0.647445	-0.468541	-0.243663
H155	H	1.068913	-0.879693	-0.500702
C156	C	0.403158	-0.179658	-0.529828
C157	C	0.449397	-0.217734	-0.492115
H158	H	0.429392	-0.147689	-0.561471
H159	H	0.375526	-0.214315	-0.555592
H160	H	0.373203	-0.151138	-0.497996
H161	H	0.479348	-0.246259	-0.523946
H162	H	0.477040	-0.183073	-0.466349
H163	H	1.152339	-0.779779	-0.417388
