data_functionalizedCrystal
_audit_creation_method	'MofGen! by Chris Wilmer'
_symmetry_space_group_name_H-M	'P1'
_symmetry_Int_Tables_number	1
_symmetry_cell_setting	triclinic
loop_
_symmetry_equiv_pos_as_xyz
  x,y,z
_cell_length_a	16.120530
_cell_length_b	18.101395
_cell_length_c	18.101389
_cell_angle_alpha	89.983159
_cell_angle_beta	87.084523
_cell_angle_gamma	87.126665
loop_
_atom_site_label
_atom_site_type_symbol
_atom_site_fract_x
_atom_site_fract_y
_atom_site_fract_z
Zn1	Zn	1.274487	-0.352401	-0.476079
Zn2	Zn	1.524487	-0.102401	-0.226079
Zn3	Zn	1.774487	0.147599	0.023921
Zn4	Zn	2.024487	0.397599	0.273921
Zn5	Zn	1.274370	-0.476222	-0.352236
Zn6	Zn	1.524370	-0.226222	-0.102236
Zn7	Zn	1.774370	0.023778	0.147764
Zn8	Zn	2.024370	0.273778	0.397764
Zn9	Zn	1.135073	-0.346115	-0.345980
Zn10	Zn	1.385073	-0.096115	-0.095980
Zn11	Zn	1.635073	0.153885	0.154020
Zn12	Zn	1.885073	0.403885	0.404020
Zn13	Zn	1.135017	-0.469914	-0.469767
Zn14	Zn	1.385017	-0.219914	-0.219767
Zn15	Zn	1.635017	0.030086	0.030233
Zn16	Zn	1.885017	0.280086	0.280233
O17	O	1.204737	-0.411163	-0.411016
O18	O	1.454737	-0.161163	-0.161016
O19	O	1.704737	0.088837	0.088984
O20	O	1.954737	0.338837	0.338984
O21	O	1.391137	-0.374097	-0.464911
O22	O	1.641137	-0.124097	-0.214911
O23	O	1.891137	0.125903	0.035089
O24	O	2.141137	0.375903	0.285089
O25	O	1.255866	-0.458972	-0.247772
O26	O	1.505866	-0.208972	0.002228
O27	O	1.755866	0.041028	0.252228
O28	O	2.005866	0.291028	0.502228
O29	O	1.153639	-0.243319	-0.363262
O30	O	1.403639	0.006681	-0.113262
O31	O	1.653639	0.256681	0.136738
O32	O	1.903639	0.506681	0.386738
O33	O	1.391050	-0.465068	-0.373924
O34	O	1.641050	-0.215068	-0.123924
O35	O	1.891050	0.034932	0.126076
O36	O	2.141050	0.284932	0.376076
O37	O	1.256066	-0.247938	-0.458845
O38	O	1.506066	0.002062	-0.208845
O39	O	1.756066	0.252062	0.041155
O40	O	2.006066	0.502062	0.291155
O41	O	1.153525	-0.363383	-0.243176
O42	O	1.403525	-0.113383	0.006824
O43	O	1.653525	0.136617	0.256824
O44	O	1.903525	0.386617	0.506824
O45	O	1.018401	-0.357266	-0.357141
O46	O	1.268401	-0.107266	-0.107141
O47	O	1.518401	0.142734	0.142859
O48	O	1.768401	0.392734	0.392859
O49	O	1.153544	-0.454317	-0.574238
O50	O	1.403544	-0.204317	-0.324238
O51	O	1.653544	0.045683	-0.074238
O52	O	1.903544	0.295683	0.175762
O53	O	1.018360	-0.448221	-0.448086
O54	O	1.268360	-0.198221	-0.198086
O55	O	1.518360	0.051779	0.051914
O56	O	1.768360	0.301779	0.301914
O57	O	1.256012	-0.367981	-0.578876
O58	O	1.506012	-0.117981	-0.328876
O59	O	1.756012	0.132019	-0.078876
O60	O	2.006012	0.382019	0.171124
O61	O	1.255812	-0.579015	-0.367803
O62	O	1.505812	-0.329015	-0.117803
O63	O	1.755812	-0.079015	0.132197
O64	O	2.005812	0.170985	0.382197
O65	O	1.153431	-0.574380	-0.454152
O66	O	1.403431	-0.324380	-0.204152
O67	O	1.653431	-0.074380	0.045848
O68	O	1.903431	0.175620	0.295848
C69	C	0.988130	-0.401377	-0.401250
C70	C	1.238130	-0.151377	-0.151250
C71	C	1.488130	0.098623	0.098750
C72	C	1.738130	0.348623	0.348750
C73	C	0.895465	-0.397209	-0.397090
C74	C	1.145465	-0.147209	-0.147090
C75	C	1.395465	0.102791	0.102910
C76	C	1.645465	0.352791	0.352910
C77	C	0.725805	-0.389581	-0.389501
C78	C	0.975805	-0.139581	-0.139501
C79	C	1.225805	0.110419	0.110499
C80	C	1.475805	0.360419	0.360499
C81	C	0.684509	-0.432799	-0.432585
C82	C	0.934509	-0.182799	-0.182585
C83	C	1.184509	0.067201	0.067415
C84	C	1.434509	0.317201	0.317415
C85	C	0.590105	-0.428555	-0.428362
C86	C	0.840105	-0.178555	-0.178362
C87	C	1.090105	0.071445	0.071638
C88	C	1.340105	0.321445	0.321638
C89	C	0.820218	-0.393824	-0.393722
C90	C	1.070218	-0.143824	-0.143722
C91	C	1.320218	0.106176	0.106278
C92	C	1.570218	0.356176	0.356278
C93	C	1.204625	-0.603568	-0.410989
C94	C	1.454625	-0.353568	-0.160989
C95	C	1.704625	-0.103568	0.089011
C96	C	1.954625	0.146432	0.339011
C97	C	1.204654	-0.685884	-0.411005
C98	C	1.454654	-0.435884	-0.161005
C99	C	1.704654	-0.185884	0.088995
C100	C	1.954654	0.064116	0.338995
C101	C	1.204837	-0.984983	-0.411054
C102	C	1.454837	-0.734983	-0.161054
C103	C	1.704837	-0.484983	0.088946
C104	C	1.954837	-0.234983	0.338946
C105	C	1.140570	-0.950780	-0.465531
C106	C	1.390570	-0.700780	-0.215531
C107	C	1.640570	-0.450780	0.034469
C108	C	1.890570	-0.200780	0.284469
C109	C	1.140265	-0.865148	-0.465338
C110	C	1.390265	-0.615148	-0.215338
C111	C	1.640265	-0.365148	0.034662
C112	C	1.890265	-0.115148	0.284662
C113	C	1.204746	-0.836596	-0.411030
C114	C	1.454746	-0.586596	-0.161030
C115	C	1.704746	-0.336596	0.088970
C116	C	1.954746	-0.086596	0.338970
C117	C	1.180960	-0.866660	-0.331911
C118	C	1.430960	-0.616660	-0.081911
C119	C	1.680960	-0.366660	0.168089
C120	C	1.930960	-0.116660	0.418089
C121	C	1.180546	-0.952287	-0.332235
C122	C	1.430546	-0.702287	-0.082235
C123	C	1.680546	-0.452287	0.167765
C124	C	1.930546	-0.202287	0.417765
C125	C	1.293030	-0.957309	-0.435015
C126	C	1.543030	-0.707309	-0.185015
C127	C	1.793030	-0.457309	0.064985
C128	C	2.043030	-0.207309	0.314985
C129	C	1.292512	-0.871635	-0.436703
C130	C	1.542512	-0.621635	-0.186703
C131	C	1.792512	-0.371635	0.063297
C132	C	2.042512	-0.121635	0.313297
C133	C	1.204696	-0.752735	-0.411013
C134	C	1.454696	-0.502735	-0.161013
C135	C	1.704696	-0.252735	0.088987
C136	C	1.954696	-0.002735	0.338987
C137	C	1.204885	-1.068845	-0.411066
C138	C	1.454885	-0.818845	-0.161066
C139	C	1.704885	-0.568845	0.088934
C140	C	1.954885	-0.318845	0.338934
C141	C	1.422189	-0.420987	-0.420820
C142	C	1.672189	-0.170987	-0.170820
C143	C	1.922189	0.079013	0.079180
C144	C	2.172189	0.329013	0.329180
C145	C	1.514854	-0.425174	-0.424998
C146	C	1.764854	-0.175174	-0.174998
C147	C	2.014854	0.074826	0.075002
C148	C	2.264854	0.324826	0.325002
C149	C	1.204785	-0.411146	-0.604180
C150	C	1.454785	-0.161146	-0.354180
C151	C	1.704785	0.088854	-0.104180
C152	C	1.954785	0.338854	0.145820
C153	C	1.204806	-0.411139	-0.686495
C154	C	1.454806	-0.161139	-0.436495
C155	C	1.704806	0.088861	-0.186495
C156	C	1.954806	0.338861	0.063505
C157	C	1.204872	-0.218007	-0.411060
C158	C	1.454872	0.031993	-0.161060
C159	C	1.704872	0.281993	0.088940
C160	C	1.954872	0.531993	0.338940
C161	C	1.204929	-0.135696	-0.411078
C162	C	1.454929	0.114304	-0.161078
C163	C	1.704929	0.364304	0.088922
C164	C	1.954929	0.614304	0.338922
C165	C	1.204854	-0.411003	-0.985588
C166	C	1.454854	-0.161003	-0.735588
C167	C	1.704854	0.088997	-0.485588
C168	C	1.954854	0.338997	-0.235588
C169	C	1.140162	-0.465131	-0.951335
C170	C	1.390162	-0.215131	-0.701335
C171	C	1.640162	0.034869	-0.451335
C172	C	1.890162	0.284869	-0.201335
C173	C	1.140337	-0.465403	-0.865724
C174	C	1.390337	-0.215403	-0.615724
C175	C	1.640337	0.034597	-0.365724
C176	C	1.890337	0.284597	-0.115724
C177	C	1.204829	-0.411070	-0.837204
C178	C	1.454829	-0.161070	-0.587204
C179	C	1.704829	0.088930	-0.337204
C180	C	1.954829	0.338930	-0.087204
C181	C	1.292667	-0.436217	-0.872255
C182	C	1.542667	-0.186217	-0.622255
C183	C	1.792667	0.063783	-0.372255
C184	C	2.042667	0.313783	-0.122255
C185	C	1.292306	-0.436575	-0.957884
C186	C	1.542306	-0.186575	-0.707884
C187	C	1.792306	0.063425	-0.457884
C188	C	2.042306	0.313425	-0.207884
C189	C	1.182473	-0.331635	-0.953005
C190	C	1.432473	-0.081635	-0.703005
C191	C	1.682473	0.168365	-0.453005
C192	C	1.932473	0.418365	-0.203005
C193	C	1.180518	-0.332000	-0.867266
C194	C	1.430518	-0.082000	-0.617266
C195	C	1.680518	0.168000	-0.367266
C196	C	1.930518	0.418000	-0.117266
C197	C	1.204821	-0.411108	-0.753344
C198	C	1.454821	-0.161108	-0.503344
C199	C	1.704821	0.088892	-0.253344
C200	C	1.954821	0.338892	-0.003344
C201	C	1.204869	-0.410968	-1.069448
C202	C	1.454869	-0.160968	-0.819448
C203	C	1.704869	0.089032	-0.569448
C204	C	1.954869	0.339032	-0.319448
C205	C	1.204737	-0.411128	-0.218605
C206	C	1.454737	-0.161128	0.031395
C207	C	1.704737	0.088872	0.281395
C208	C	1.954737	0.338872	0.531395
C209	C	1.204878	-0.410934	-0.136298
C210	C	1.454878	-0.160934	0.113702
C211	C	1.704878	0.089066	0.363702
C212	C	1.954878	0.339066	0.613702
H213	H	0.720056	-0.472987	-0.472642
H214	H	0.970056	-0.222987	-0.222642
H215	H	1.220056	0.027013	0.027358
H216	H	1.470056	0.277013	0.277358
H217	H	0.690261	-0.349397	-0.349447
H218	H	0.940261	-0.099397	-0.099447
H219	H	1.190261	0.150603	0.150553
H220	H	1.440261	0.400603	0.400553
F221	F	1.317105	-0.512563	-0.985122
F222	F	1.567105	-0.262563	-0.735122
F223	F	1.817105	-0.012563	-0.485122
F224	F	2.067105	0.237437	-0.235122
F225	F	1.159714	-0.838504	-0.541857
F226	F	1.409714	-0.588504	-0.291857
F227	F	1.659714	-0.338504	-0.041857
F228	F	1.909714	-0.088504	0.208143
H229	H	1.340911	-0.979711	-0.395385
H230	H	1.590911	-0.729711	-0.145385
H231	H	1.840911	-0.479711	0.104615
H232	H	2.090911	-0.229711	0.354615
H233	H	1.155304	-0.972003	-0.524254
H234	H	1.405304	-0.722003	-0.274254
H235	H	1.655304	-0.472003	-0.024254
H236	H	1.905304	-0.222003	0.225746
F237	F	1.357362	-0.386534	-0.848568
F238	F	1.607362	-0.136534	-0.598568
F239	F	1.857362	0.113466	-0.348568
F240	F	2.107362	0.363466	-0.098568
H241	H	1.075597	-0.969433	-0.449531
H242	H	1.325597	-0.719433	-0.199531
H243	H	1.575597	-0.469433	0.050469
H244	H	1.825597	-0.219433	0.300469
H245	H	1.074894	-0.841773	-0.449153
H246	H	1.324894	-0.591773	-0.199153
H247	H	1.574894	-0.341773	0.050847
H248	H	1.824894	-0.091773	0.300847
H249	H	1.314716	-0.979845	-0.491934
H250	H	1.564716	-0.729845	-0.241934
H251	H	1.814716	-0.479845	0.008066
H252	H	2.064716	-0.229845	0.258066
H253	H	1.116077	-0.969419	-0.312398
H254	H	1.366077	-0.719419	-0.062398
H255	H	1.616077	-0.469419	0.187602
H256	H	1.866077	-0.219419	0.437602
H257	H	1.342140	-0.399077	-0.980861
H258	H	1.592140	-0.149077	-0.730861
H259	H	1.842140	0.100923	-0.480861
H260	H	2.092140	0.350923	-0.230861
F261	F	1.239066	-0.981998	-0.277090
F262	F	1.489066	-0.731998	-0.027090
F263	F	1.739066	-0.481998	0.222910
F264	F	1.989066	-0.231998	0.472910
F265	F	1.240216	-0.842700	-0.277181
F266	F	1.490216	-0.592700	-0.027181
F267	F	1.740216	-0.342700	0.222819
F268	F	1.990216	-0.092700	0.472819
F269	F	1.096024	-0.307309	-0.836905
F270	F	1.346024	-0.057309	-0.586905
F271	F	1.596024	0.192691	-0.336905
F272	F	1.846024	0.442691	-0.086905
F273	F	1.244060	-0.278860	-0.982270
F274	F	1.494060	-0.028860	-0.732270
F275	F	1.744060	0.221140	-0.482270
F276	F	1.994060	0.471140	-0.232270
H277	H	1.117174	-0.842395	-0.311801
H278	H	1.367174	-0.592395	-0.061801
H279	H	1.617174	-0.342395	0.188199
H280	H	1.867174	-0.092395	0.438199
F281	F	1.315959	-0.846091	-0.512837
F282	F	1.565959	-0.596091	-0.262837
F283	F	1.815959	-0.346091	-0.012837
F284	F	2.065959	-0.096091	0.237163
F285	F	1.358411	-0.846606	-0.389038
F286	F	1.608411	-0.596606	-0.139038
F287	F	1.858411	-0.346606	0.110962
F288	F	2.108411	-0.096606	0.360962
H289	H	1.075202	-0.449209	-0.841766
H290	H	1.325202	-0.199209	-0.591766
H291	H	1.575202	0.050791	-0.341766
H292	H	1.825202	0.300791	-0.091766
H293	H	1.311968	-0.493759	-0.851681
H294	H	1.561968	-0.243759	-0.601681
H295	H	1.811968	0.006241	-0.351681
H296	H	2.061968	0.256241	-0.101681
H297	H	1.119535	-0.309496	-0.971764
H298	H	1.369535	-0.059496	-0.721764
H299	H	1.619535	0.190504	-0.471764
H300	H	1.869535	0.440504	-0.221764
H301	H	1.074831	-0.449063	-0.968987
H302	H	1.324831	-0.199063	-0.718987
H303	H	1.574831	0.050937	-0.468987
H304	H	1.824831	0.300937	-0.218987
F305	F	1.159244	-0.541437	-0.980372
F306	F	1.409244	-0.291437	-0.730372
F307	F	1.659244	-0.041437	-0.480372
F308	F	1.909244	0.208563	-0.230372
F309	F	1.159690	-0.542185	-0.839820
F310	F	1.409690	-0.292185	-0.589820
F311	F	1.659690	-0.042185	-0.339820
F312	F	1.909690	0.207815	-0.089820
F313	F	1.237618	-0.276072	-0.841887
F314	F	1.487618	-0.026072	-0.591887
F315	F	1.737618	0.223928	-0.341887
F316	F	1.987618	0.473928	-0.091887
