data_functionalizedCrystal
_audit_creation_method	'MofGen! by Chris Wilmer'
_symmetry_space_group_name_H-M	'P1'
_symmetry_Int_Tables_number	1
_symmetry_cell_setting	triclinic
loop_
_symmetry_equiv_pos_as_xyz
  x,y,z
_cell_length_a	14.853567
_cell_length_b	13.339070
_cell_length_c	13.930277
_cell_angle_alpha	89.998845
_cell_angle_beta	90.004377
_cell_angle_gamma	99.632113
loop_
_atom_site_label
_atom_site_type_symbol
_atom_site_fract_x
_atom_site_fract_y
_atom_site_fract_z
O1	O	-1.229270	-0.132119	-0.079760
O2	O	-0.729270	0.367881	0.420240
O3	O	-0.970730	-0.147858	-0.079775
O4	O	-0.470730	0.352142	0.420225
O5	O	-1.070328	0.007317	-0.079766
O6	O	-0.570328	0.507317	0.420234
O7	O	-1.129672	-0.287294	-0.079769
O8	O	-0.629672	0.212706	0.420231
O9	O	-1.070308	0.007314	0.079895
O10	O	-0.570308	0.507314	0.579895
O11	O	-0.970710	-0.147861	0.079886
O12	O	-0.470710	0.352139	0.579886
O13	O	-1.229250	-0.132122	0.079902
O14	O	-0.729250	0.367878	0.579902
Zn15	Zn	-1.099977	-0.139992	0.105244
Zn16	Zn	-0.599977	0.360008	0.605244
Zn17	Zn	-1.100003	-0.139988	-0.105117
Zn18	Zn	-0.600003	0.360012	0.394883
O19	O	-1.129652	-0.287297	0.079893
O20	O	-0.629652	0.212703	0.579893
C21	C	-0.936954	-0.147146	0.000053
C22	C	-0.436954	0.352854	0.500053
C23	C	-0.836338	-0.145009	0.000047
C24	C	-0.336338	0.354991	0.500047
N25	N	-1.099966	-0.139994	0.248810
N26	N	-0.599966	0.360006	0.748810
C27	C	-1.263026	-0.132834	0.000071
C28	C	-0.763026	0.367166	0.500071
C29	C	-1.363642	-0.134971	0.000071
C30	C	-0.863642	0.365029	0.500071
C31	C	-0.398600	-0.043798	0.000069
C32	C	0.101400	0.456202	0.500069
C33	C	-0.423227	-0.228149	0.000067
C34	C	0.076773	0.271851	0.500067
C35	C	-0.517761	-0.230159	0.000064
C36	C	-0.017761	0.269841	0.500064
C37	C	-0.552719	-0.138987	0.000062
C38	C	-0.052719	0.361013	0.500062
C39	C	-0.493142	-0.045805	0.000063
C40	C	0.006858	0.454195	0.500063
C41	C	-0.577344	-0.323339	0.000053
C42	C	-0.077344	0.176661	0.500053
C43	C	-0.671885	-0.325352	0.000049
C44	C	-0.171885	0.174648	0.500049
C45	C	-0.706844	-0.234179	0.000054
C46	C	-0.206844	0.265821	0.500054
C47	C	-0.647261	-0.140993	0.000056
C48	C	-0.147261	0.359007	0.500056
C49	C	-0.682219	-0.049821	0.000054
C50	C	-0.182219	0.450179	0.500054
C51	C	-0.622638	0.043366	0.000064
C52	C	-0.122638	0.543366	0.500064
C53	C	-0.528102	0.045368	0.000068
C54	C	-0.028102	0.545368	0.500068
C55	C	-0.801380	-0.236181	0.000049
C56	C	-0.301380	0.263819	0.500049
C57	C	-0.776761	-0.051828	0.000048
C58	C	-0.276761	0.448172	0.500048
C59	C	-1.060294	0.045019	0.000063
C60	C	-0.560294	0.545019	0.500063
C61	C	-1.030413	0.157362	0.000057
C62	C	-0.530413	0.657362	0.500057
C63	C	-1.139687	-0.324998	0.000062
C64	C	-0.639687	0.175002	0.500062
C65	C	-1.169567	-0.437342	0.000062
C66	C	-0.669567	0.062658	0.500062
C67	C	-1.262747	0.521829	0.000072
C68	C	-0.762747	1.021829	0.500072
C69	C	-1.290824	0.416277	0.000082
C70	C	-0.790824	0.916277	0.500082
C71	C	-1.225723	0.351543	0.000076
C72	C	-0.725723	0.851543	0.500076
C73	C	-1.132542	0.392372	0.000059
C74	C	-0.632542	0.892372	0.500059
C75	C	-1.104462	0.497934	0.000056
C76	C	-0.604462	0.997934	0.500056
C77	C	-1.067439	0.327648	0.000060
C78	C	-0.567439	0.827648	0.500060
C79	C	-0.974257	0.368477	0.000043
C80	C	-0.474257	0.868477	0.500043
C81	C	-0.946182	0.474030	0.000039
C82	C	-0.446182	0.974030	0.500039
C83	C	-1.011282	0.538763	0.000046
C84	C	-0.511282	1.038763	0.500046
C85	C	-1.095518	0.222086	0.000063
C86	C	-0.595518	0.722086	0.500063
C87	C	-0.937233	0.198191	0.000047
C88	C	-0.437233	0.698191	0.500047
C89	C	-0.909157	0.303744	0.000036
C90	C	-0.409157	0.803744	0.500036
N91	N	-1.100019	-0.139978	-0.248683
N92	N	-0.600019	0.360022	0.251317
C93	C	-1.029914	-0.078504	0.299070
C94	C	-0.529914	0.421496	0.799070
C95	C	-1.170029	-0.201479	0.299055
C96	C	-0.670029	0.298521	0.799055
C97	C	-1.170040	-0.201478	0.399551
C98	C	-0.670040	0.298522	0.899551
C99	C	-1.099988	-0.139988	0.449811
C100	C	-0.599988	0.360012	0.949811
C101	C	-1.029924	-0.078499	0.399575
C102	C	-0.529924	0.421501	0.899575
C103	C	-1.240108	-0.262959	0.449794
C104	C	-0.740108	0.237041	0.949794
C105	C	-1.240122	-0.262960	0.550296
C106	C	-0.740122	0.237040	1.050296
C107	C	-1.170065	-0.201474	0.600558
C108	C	-0.670065	0.298526	1.100558
C109	C	-1.099998	-0.139983	0.550316
C110	C	-0.599998	0.360017	1.050316
C111	C	-1.029945	-0.078493	0.600576
C112	C	-0.529945	0.421507	1.100576
C113	C	-0.959874	-0.017007	0.550336
C114	C	-0.459874	0.482993	1.050336
C115	C	-0.959867	-0.017014	0.449837
C116	C	-0.459867	0.482986	0.949837
C117	C	-1.170072	-0.201468	0.701057
C118	C	-0.670072	0.298532	1.201057
C119	C	-1.029955	-0.078488	0.701081
C120	C	-0.529955	0.421512	1.201081
H121	H	-0.805216	0.022417	0.000051
H122	H	-0.305216	0.522417	0.500051
H123	H	-1.171387	0.188854	0.000077
H124	H	-0.671387	0.688854	0.500077
H125	H	-1.366692	0.383042	0.000097
H126	H	-0.866692	0.883042	0.500097
H127	H	-1.248589	0.265598	0.000085
H128	H	-0.748589	0.765598	0.500085
F129	F	-0.659853	0.140394	0.000055
F130	F	-0.159853	0.640394	0.500055
F131	F	-0.847009	0.517479	0.000033
F132	F	-0.347009	1.017479	0.500033
F133	F	-0.540135	-0.420363	0.000041
F134	F	-0.040135	0.079637	0.500041
F135	F	-1.332020	0.590727	0.000094
F136	F	-0.832020	1.090727	0.500094
F137	F	-0.735287	-0.424528	0.000041
F138	F	-0.235287	0.075472	0.500041
H139	H	-0.849887	-0.312052	0.000043
H140	H	-0.349887	0.187948	0.500043
H141	H	-1.227067	-0.251535	0.258127
H142	H	-0.727067	0.248465	0.758127
H143	H	-0.988426	0.624714	0.000033
H144	H	-0.488426	1.124714	0.500033
H145	H	-0.833286	0.337001	0.000023
H146	H	-0.333286	0.837001	0.500023
H147	H	-0.884223	0.145485	0.000046
H148	H	-0.384223	0.645485	0.500046
H149	H	-0.479583	0.121236	0.000099
H150	H	0.020417	0.621236	0.500099
F151	F	-0.335191	0.055372	0.000084
F152	F	0.164809	0.555372	0.500084
H153	H	-0.972906	-0.028420	0.741996
H154	H	-0.472906	0.471580	1.241996
H155	H	-0.394758	-0.302378	0.000061
H156	H	0.105242	0.197622	0.500061
H157	H	-0.902840	0.033062	0.591271
H158	H	-0.402840	0.533062	1.091271
F159	F	-0.885300	0.048420	0.396362
F160	F	-0.385300	0.548420	0.896362
H161	H	-0.972861	-0.028447	0.258160
H162	H	-0.472861	0.471553	0.758160
F163	F	-1.314661	-0.328390	0.396299
F164	F	-0.814661	0.171610	0.896299
H165	H	-1.297178	-0.313026	0.591193
H166	H	-0.797178	0.186974	1.091193
H167	H	-1.227125	-0.251525	0.741958
H168	H	-0.727125	0.248475	1.241958
