data_functionalizedCrystal
_audit_creation_method	'MofGen! by Chris Wilmer'
_symmetry_space_group_name_H-M	'P1'
_symmetry_Int_Tables_number	1
_symmetry_cell_setting	triclinic
loop_
_symmetry_equiv_pos_as_xyz
  x,y,z
_cell_length_a	17.038272
_cell_length_b	9.065218
_cell_length_c	7.540329
_cell_angle_alpha	90.000275
_cell_angle_beta	89.996527
_cell_angle_gamma	88.063721
loop_
_atom_site_label
_atom_site_type_symbol
_atom_site_fract_x
_atom_site_fract_y
_atom_site_fract_z
O1	O	-1.039680	-0.320645	-0.147249
O2	O	-0.812012	-0.315553	-0.147301
O3	O	-0.930552	-0.103929	-0.147270
O4	O	-0.921140	-0.532269	-0.147279
O5	O	-0.930546	-0.103931	0.147695
O6	O	-0.812007	-0.315556	0.147664
O7	O	-1.039674	-0.320647	0.147716
Cu8	Cu	-0.925840	-0.318102	0.174623
Cu9	Cu	-0.925846	-0.318099	-0.174207
O10	O	-0.921134	-0.532272	0.147686
C11	C	-0.929644	-0.048853	0.000209
C12	C	-0.926940	0.115262	0.000200
C13	C	-0.782848	-0.310924	0.000175
C14	C	-0.695955	-0.297108	0.000155
C15	C	-1.068838	-0.325277	0.000237
C16	C	-1.155731	-0.339093	0.000245
C17	C	-0.646757	-0.423956	0.000153
C18	C	-0.565112	-0.410965	0.000178
C19	C	-0.532668	-0.271125	0.000192
C20	C	-0.581873	-0.144268	0.000198
C21	C	-0.663515	-0.157260	0.000186
C22	C	-0.286579	-0.225228	0.000240
C23	C	-0.204929	-0.212245	0.000247
C24	C	-0.188175	-0.478944	0.000230
C25	C	-0.269820	-0.491923	0.000207
C26	C	-0.319017	-0.365066	0.000223
C27	C	-0.449214	-0.257844	0.000211
C28	C	-0.402469	-0.378349	0.000216
C29	C	-0.922042	-0.587348	0.000202
C30	C	-0.924746	-0.751462	0.000200
N31	N	-0.925841	-0.318104	0.419971
N32	N	-0.925847	-0.318102	0.580444
H33	H	-0.525058	-0.514259	0.000175
H34	H	-0.148110	-0.582223	0.000220
H35	H	-0.422789	-0.143985	0.000272
O36	O	-0.173541	-0.076284	0.000337
C37	C	-0.234470	0.032900	0.000302
H38	H	-0.290214	-0.015445	0.056148
H39	H	-0.245726	0.072523	-0.141206
C40	C	-0.142053	0.223325	0.047387
C41	C	-0.210517	0.163950	0.115992
H42	H	-0.127277	0.304166	0.118743
H43	H	-0.101003	0.149767	0.047404
H44	H	-0.151442	0.256332	-0.070535
H45	H	-0.201124	0.130927	0.233903
H46	H	-0.251565	0.237506	0.115997
H47	H	-0.673166	-0.537828	0.000141
O48	O	-0.301359	-0.627743	-0.000161
C49	C	-0.348076	-0.643191	-0.152939
H50	H	-0.328223	-0.563558	-0.259659
H51	H	-0.412210	-0.617253	-0.118423
C52	C	-0.363672	-0.900481	-0.091211
C53	C	-0.339285	-0.802683	-0.222293
H54	H	-0.358253	-0.998864	-0.133989
H55	H	-0.332200	-0.890073	0.011722
H56	H	-0.417116	-0.878848	-0.062460
H57	H	-0.285840	-0.824305	-0.251025
H58	H	-0.370747	-0.813098	-0.325233
O59	O	-0.550320	-0.008460	-0.000102
C60	C	-0.503574	0.007023	-0.152841
H61	H	-0.523419	-0.072559	-0.259620
H62	H	-0.439449	-0.018959	-0.118299
C63	C	-0.487953	0.264280	-0.090955
C64	C	-0.512332	0.166544	-0.222109
H65	H	-0.493352	0.362681	-0.133680
H66	H	-0.519444	0.253849	0.011952
H67	H	-0.434517	0.242610	-0.062183
H68	H	-0.565769	0.188203	-0.250863
H69	H	-0.480850	0.176983	-0.325023
H70	H	-0.326626	-0.121930	0.000254
H71	H	-0.703572	-0.053966	0.000186
H72	H	-0.428889	-0.492206	0.000215
