data_functionalizedCrystal
_audit_creation_method	'MofGen! by Chris Wilmer'
_symmetry_space_group_name_H-M	'P1'
_symmetry_Int_Tables_number	1
_symmetry_cell_setting	triclinic
loop_
_symmetry_equiv_pos_as_xyz
  x,y,z
_cell_length_a	17.077404
_cell_length_b	12.645330
_cell_length_c	17.077396
_cell_angle_alpha	90.024069
_cell_angle_beta	90.019501
_cell_angle_gamma	90.017917
loop_
_atom_site_label
_atom_site_type_symbol
_atom_site_fract_x
_atom_site_fract_y
_atom_site_fract_z
Zn1	Zn	1.200083	-0.422033	0.443867
Zn2	Zn	1.700083	0.077967	0.943867
Zn3	Zn	1.200002	-0.599318	0.312611
Zn4	Zn	1.700002	-0.099318	0.812611
Zn5	Zn	1.068815	-0.422070	0.312615
Zn6	Zn	1.568815	0.077930	0.812615
Zn7	Zn	1.068795	-0.599256	0.443834
Zn8	Zn	1.568795	-0.099256	0.943834
O9	O	1.134424	-0.510669	0.378232
O10	O	1.634424	-0.010669	0.878232
O11	O	1.309919	-0.445561	0.426467
O12	O	1.809919	0.054439	0.926467
O13	O	1.182574	-0.575848	0.202764
O14	O	1.682574	-0.075848	0.702764
O15	O	1.086270	-0.273718	0.330041
O16	O	1.586270	0.226282	0.830041
O17	O	1.309860	-0.575812	0.330034
O18	O	1.809860	-0.075812	0.830034
O19	O	1.182712	-0.273691	0.426471
O20	O	1.682712	0.226309	0.926471
O21	O	1.086192	-0.445624	0.202767
O22	O	1.586192	0.054376	0.702767
O23	O	0.958965	-0.445563	0.330009
O24	O	1.458965	0.054437	0.830009
O25	O	1.086236	-0.575705	0.553686
O26	O	1.586236	-0.075705	1.053686
O27	O	0.958950	-0.575741	0.426416
O28	O	1.458950	-0.075741	0.926416
O29	O	1.182693	-0.445500	0.553709
O30	O	1.682693	0.054500	1.053709
O31	O	1.182555	-0.747657	0.330003
O32	O	1.682555	-0.247657	0.830003
O33	O	1.086157	-0.747611	0.426412
O34	O	1.586157	-0.247611	0.926412
C35	C	0.930476	-0.510650	0.378210
C36	C	1.430476	-0.010650	0.878210
C37	C	0.843226	-0.510667	0.378219
C38	C	1.343226	-0.010667	0.878219
C39	C	0.802249	-0.578553	0.428338
C40	C	1.302249	-0.078553	0.928338
C41	C	0.720268	-0.578555	0.428350
C42	C	1.220268	-0.078555	0.928350
C43	C	0.679267	-0.510677	0.378240
C44	C	1.179267	-0.010677	0.878240
C45	C	0.720250	-0.442783	0.328119
C46	C	1.220250	0.057217	0.828119
C47	C	0.802229	-0.442777	0.328111
C48	C	1.302229	0.057223	0.828111
C49	C	0.549380	-0.442804	0.328138
C50	C	1.049380	0.057196	0.828138
C51	C	0.467395	-0.442812	0.328145
C52	C	0.967395	0.057188	0.828145
C53	C	0.467419	-0.578583	0.428377
C54	C	0.967419	-0.078583	0.928377
C55	C	0.549398	-0.578576	0.428369
C56	C	1.049398	-0.078576	0.928369
C57	C	0.590376	-0.510684	0.378247
C58	C	1.090376	-0.010684	0.878247
C59	C	1.134366	-0.786099	0.378221
C60	C	1.634366	-0.286099	0.878221
C61	C	1.134414	-0.903929	0.378242
C62	C	1.634414	-0.403929	0.878242
C63	C	1.074020	-1.071508	0.439080
C64	C	1.574020	-0.571508	0.939080
C65	C	1.073711	-0.948949	0.438885
C66	C	1.573711	-0.448949	0.938885
C67	C	1.112022	-0.948522	0.295515
C68	C	1.612022	-0.448522	0.795515
C69	C	1.111653	-1.071120	0.295885
C70	C	1.611653	-0.571120	0.795885
C71	C	1.217568	-1.071018	0.399460
C72	C	1.717568	-0.571018	0.899460
C73	C	1.217059	-0.948411	0.401269
C74	C	1.717059	-0.448411	0.901269
C75	C	1.339168	-0.510689	0.378254
C76	C	1.839168	-0.010689	0.878254
C77	C	1.426418	-0.510698	0.378263
C78	C	1.926418	-0.010698	0.878263
C79	C	1.134471	-0.510591	0.582976
C80	C	1.634471	-0.010591	1.082976
C81	C	1.134491	-0.510558	0.670226
C82	C	1.634491	-0.010558	1.170226
C83	C	1.134502	-0.234164	0.378260
C84	C	1.634502	0.265836	0.878260
C85	C	1.134536	-0.116334	0.378272
C86	C	1.634536	0.383666	0.878272
C87	C	1.134421	-0.510671	0.174284
C88	C	1.634421	-0.010671	0.674284
C89	C	1.134553	-0.510405	0.087034
C90	C	1.634553	-0.010405	0.587034
C91	C	1.184718	-0.442755	0.711230
C92	C	1.684718	0.057245	1.211230
C93	C	1.184728	-0.442719	0.793210
C94	C	1.684728	0.057281	1.293210
C95	C	1.134514	-0.510493	0.834185
C96	C	1.634514	-0.010493	1.334185
C97	C	1.084281	-0.578300	0.793176
C98	C	1.584281	-0.078300	1.293176
C99	C	1.084268	-0.578329	0.711197
C100	C	1.584268	-0.078329	1.211197
C101	C	1.084313	-0.578236	0.964046
C102	C	1.584313	-0.078236	1.464046
C103	C	1.084326	-0.578208	1.046031
C104	C	1.584326	-0.078208	1.546031
C105	C	1.184772	-0.442627	1.046059
C106	C	1.684772	0.057373	1.546059
C107	C	1.184759	-0.442656	0.964080
C108	C	1.684759	0.057344	1.464080
C109	C	1.134528	-0.510464	0.923076
C110	C	1.634528	-0.010464	1.423076
H111	H	0.835626	-0.633831	0.469141
H112	H	1.335626	-0.133831	0.969141
C113	C	1.245167	-1.112676	0.479568
C114	C	1.745167	-0.612676	0.979568
H115	H	1.295377	-1.084385	0.491237
H116	H	1.795377	-0.584385	0.991237
H117	H	1.209019	-1.091687	0.518875
H118	H	1.709019	-0.591687	1.018875
H119	H	1.248139	-1.187666	0.478007
H120	H	1.748139	-0.687666	0.978007
C121	C	0.675196	-0.653294	0.483432
C122	C	1.175196	-0.153294	0.983432
H123	H	0.711357	-0.693747	0.513254
H124	H	1.211357	-0.193747	1.013254
H125	H	0.643216	-0.612866	0.517707
H126	H	1.143216	-0.112866	1.017707
H127	H	0.643218	-0.699415	0.453301
H128	H	1.143218	-0.199415	0.953301
C129	C	0.422348	-0.653257	0.483515
C130	C	0.922348	-0.153257	0.983515
H131	H	0.367652	-0.643532	0.476351
H132	H	0.867652	-0.143532	0.976351
H133	H	0.435762	-0.724463	0.471935
H134	H	0.935762	-0.224463	0.971935
H135	H	0.435813	-0.637826	0.536277
H136	H	0.935813	-0.137826	1.036277
C137	C	0.422294	-0.368137	0.273033
C138	C	0.922294	0.131863	0.773033
H139	H	0.458438	-0.327690	0.243190
H140	H	0.958438	0.172310	0.743190
H141	H	0.390290	-0.408626	0.238780
H142	H	0.890290	0.091374	0.738780
H143	H	0.390338	-0.322007	0.303135
H144	H	0.890338	0.177993	0.803135
C145	C	0.847307	-0.368105	0.272983
C146	C	1.347307	0.131895	0.772983
H147	H	0.902003	-0.377814	0.280160
H148	H	1.402003	0.122186	0.780160
H149	H	0.833848	-0.383524	0.220222
H150	H	1.333848	0.116476	0.720222
H151	H	0.833889	-0.296896	0.284569
H152	H	1.333889	0.203104	0.784569
H153	H	1.051958	-0.917910	0.277242
H154	H	1.551958	-0.417910	0.777242
H155	H	1.087901	-1.100921	0.500623
H156	H	1.587901	-0.600921	1.000623
H157	H	1.154702	-0.919362	0.248970
H158	H	1.654702	-0.419362	0.748970
H159	H	0.582741	-0.387510	0.287331
H160	H	1.082741	0.112490	0.787331
C161	C	1.029658	-1.109886	0.271645
C162	C	1.529658	-0.609886	0.771645
H163	H	0.996885	-1.050707	0.261669
H164	H	1.496885	-0.550707	0.761669
H165	H	1.033681	-1.151760	0.225629
H166	H	1.533681	-0.651760	0.725629
H167	H	1.007812	-1.151090	0.312697
H168	H	1.507812	-0.651090	0.812697
C169	C	1.092631	-0.908203	0.521749
C170	C	1.592631	-0.408203	1.021749
H171	H	1.092469	-0.833074	0.521740
H172	H	1.592469	-0.333074	1.021740
H173	H	1.054283	-0.933387	0.557454
H174	H	1.554283	-0.433387	1.057454
H175	H	1.142823	-0.933004	0.537172
H176	H	1.642823	-0.433004	1.037172
C177	C	0.675154	-0.368114	0.272999
C178	C	1.175154	0.131886	0.772999
H179	H	0.711302	-0.327675	0.243155
H180	H	1.211302	0.172325	0.743155
H181	H	0.643151	-0.408607	0.238748
H182	H	1.143151	0.091393	0.738748
H183	H	0.643196	-0.321976	0.303094
H184	H	1.143196	0.178024	0.803094
H185	H	1.043436	-0.633394	1.079391
H186	H	1.543436	-0.133394	1.579391
H187	H	1.153818	-1.100776	0.249033
H188	H	1.653818	-0.600776	0.749033
H189	H	1.012848	-1.102409	0.425223
H190	H	1.512848	-0.602409	0.925223
C191	C	0.990559	-0.909447	0.419911
C192	C	1.490559	-0.409447	0.919911
H193	H	0.956837	-0.968328	0.412285
H194	H	1.456837	-0.468328	0.912285
H195	H	0.971696	-0.867722	0.462148
H196	H	1.471696	-0.367722	0.962148
H197	H	0.991842	-0.867934	0.373577
H198	H	1.491842	-0.367934	0.873577
C199	C	1.239954	-0.368205	0.666160
C200	C	1.739954	0.131795	1.166160
H201	H	1.232760	-0.377938	0.611463
H202	H	1.732760	0.122062	1.111463
H203	H	1.228489	-0.296972	0.679602
H204	H	1.728489	0.203028	1.179602
H205	H	1.292696	-0.383728	0.679605
H206	H	1.792696	0.116272	1.179605
H207	H	1.233945	-0.919262	0.462152
H208	H	1.733945	-0.419262	0.962152
H209	H	1.043396	-0.633436	0.930663
H210	H	1.543396	-0.133436	1.430663
C211	C	1.029045	-0.652852	0.838243
C212	C	1.529045	-0.152852	1.338243
H213	H	0.999125	-0.693231	0.802079
H214	H	1.499125	-0.193231	1.302079
H215	H	1.059064	-0.699034	0.870222
H216	H	1.559064	-0.199034	1.370222
H217	H	0.994857	-0.612279	0.870221
H218	H	1.494857	-0.112279	1.370221
H219	H	1.264520	-0.917760	0.360204
H220	H	1.764520	-0.417760	0.860204
C221	C	1.240035	-0.368051	1.091160
C222	C	1.740035	0.131949	1.591160
H223	H	1.232850	-0.377734	1.145852
H224	H	1.732850	0.122266	1.645852
H225	H	1.292765	-0.383595	1.077728
H226	H	1.792765	0.116405	1.577728
H227	H	1.228574	-0.296818	1.077734
H228	H	1.728574	0.203182	1.577734
C229	C	1.278460	-1.110071	0.339578
C230	C	1.778460	-0.610071	0.839578
H231	H	1.253447	-1.153793	0.301852
H232	H	1.753447	-0.653793	0.801852
H233	H	1.301587	-1.051049	0.314113
H234	H	1.801587	-0.551049	0.814113
H235	H	1.317896	-1.149457	0.365812
H236	H	1.817896	-0.649457	0.865812
H237	H	1.225629	-0.387510	0.826592
H238	H	1.725629	0.112490	1.326592
C239	C	1.029038	-0.652938	0.666093
C240	C	1.529038	-0.152938	1.166093
H241	H	0.999144	-0.693312	0.702236
H242	H	1.499144	-0.193312	1.202236
H243	H	0.994837	-0.612416	0.634102
H244	H	1.494837	-0.112416	1.134102
H245	H	1.059068	-0.699139	0.634123
H246	H	1.559068	-0.199139	1.134123
C247	C	1.239994	-0.368107	0.919009
C248	C	1.739994	0.131893	1.419009
H249	H	1.269907	-0.327712	0.955169
H250	H	1.769907	0.172288	1.455169
H251	H	1.274177	-0.408675	0.887029
H252	H	1.774177	0.091325	1.387029
H253	H	1.209967	-0.321923	0.887030
H254	H	1.709967	0.178077	1.387030
H255	H	0.582779	-0.633855	0.469169
H256	H	1.082779	-0.133855	0.969169
