data_functionalizedCrystal
_audit_creation_method	'MofGen! by Chris Wilmer'
_symmetry_space_group_name_H-M	'P1'
_symmetry_Int_Tables_number	1
_symmetry_cell_setting	triclinic
loop_
_symmetry_equiv_pos_as_xyz
  x,y,z
_cell_length_a	14.044220
_cell_length_b	14.044220
_cell_length_c	12.503552
_cell_angle_alpha	93.839943
_cell_angle_beta	93.844387
_cell_angle_gamma	86.811123
loop_
_atom_site_label
_atom_site_type_symbol
_atom_site_fract_x
_atom_site_fract_y
_atom_site_fract_z
O1	O	1.282213	-0.225115	0.089324
O2	O	1.005542	-0.216809	0.089327
O3	O	1.139724	-0.082627	0.089315
O4	O	1.148031	-0.359297	0.089336
O5	O	1.129621	-0.092726	-0.089327
O6	O	0.995439	-0.226909	-0.089315
O7	O	1.272110	-0.235214	-0.089318
Cu8	Cu	1.132852	-0.231984	-0.105628
Cu9	Cu	1.144800	-0.220039	0.105637
O10	O	1.137928	-0.369397	-0.089306
C11	C	0.964868	-0.218223	0.000006
C12	C	0.858726	-0.207378	0.000007
C13	C	1.131037	-0.052055	-0.000007
C14	C	1.120192	0.054088	-0.000008
C15	C	1.312784	-0.233800	0.000005
C16	C	1.418927	-0.244644	0.000012
N17	N	1.124455	-0.240385	-0.254220
C18	C	1.613264	-0.264470	0.000012
C19	C	1.664394	-0.187556	0.000006
C20	C	1.772530	-0.198588	0.000006
C21	C	1.505118	-0.253440	0.000012
C22	C	1.146615	-0.399968	0.000018
C23	C	1.157460	-0.506111	0.000026
C24	C	1.100367	0.248427	0.000008
C25	C	1.177281	0.299557	0.000010
C26	C	1.166250	0.407693	0.000019
C27	C	1.111396	0.140280	-0.000001
C28	C	1.165551	-0.199270	-0.526656
C29	C	1.112111	-0.252743	-0.473328
C30	C	1.118981	-0.245865	-0.351405
C31	C	1.158682	-0.206147	-0.648590
N32	N	1.153204	-0.211632	0.254229
H33	H	1.650702	-0.338598	0.000019
H34	H	1.061201	-0.303690	-0.519239
O35	O	1.232966	-0.131768	-0.465856
H36	H	1.227842	-0.136886	-0.378248
O37	O	1.002170	0.298006	-0.000008
H38	H	1.008807	0.376390	-0.000017
H39	H	1.626959	-0.113419	0.000078
O40	O	1.275483	0.249975	-0.000010
H41	H	1.268852	0.171589	-0.000028
