data_functionalizedCrystal
_audit_creation_method	'MofGen! by Chris Wilmer'
_symmetry_space_group_name_H-M	'P1'
_symmetry_Int_Tables_number	1
_symmetry_cell_setting	triclinic
loop_
_symmetry_equiv_pos_as_xyz
  x,y,z
_cell_length_a	14.044220
_cell_length_b	11.026607
_cell_length_c	10.065875
_cell_angle_alpha	79.268236
_cell_angle_beta	80.445026
_cell_angle_gamma	79.112553
loop_
_atom_site_label
_atom_site_type_symbol
_atom_site_fract_x
_atom_site_fract_y
_atom_site_fract_z
O1	O	1.319595	-0.281426	-0.113483
O2	O	1.652928	0.051908	0.219850
O3	O	1.986261	0.385241	0.553183
O4	O	1.041790	-0.270669	-0.113487
O5	O	1.375124	0.062664	0.219846
O6	O	1.708457	0.395997	0.553180
O7	O	1.157668	-0.096903	-0.113480
O8	O	1.491001	0.236430	0.219853
O9	O	1.824334	0.569764	0.553186
O10	O	1.203717	-0.455192	-0.113490
O11	O	1.537050	-0.121859	0.219844
O12	O	1.870384	0.211474	0.553177
O13	O	1.135596	-0.130183	0.113507
O14	O	1.468930	0.203150	0.446840
O15	O	1.802263	0.536484	0.780174
O16	O	1.019719	-0.303950	0.113501
O17	O	1.353052	0.029384	0.446834
O18	O	1.686386	0.362717	0.780167
O19	O	1.297523	-0.314706	0.113504
O20	O	1.630856	0.018627	0.446838
O21	O	1.964190	0.351961	0.780171
Zn22	Zn	1.155117	-0.314612	0.149542
Zn23	Zn	1.488450	0.018722	0.482875
Zn24	Zn	1.821783	0.352055	0.816208
Zn25	Zn	1.184197	-0.270764	-0.149524
Zn26	Zn	1.517530	0.062570	0.183809
Zn27	Zn	1.850863	0.395903	0.517142
O28	O	1.181646	-0.488472	0.113498
O29	O	1.514979	-0.155139	0.446831
O30	O	1.848312	0.178194	0.780164
C31	C	1.138137	-0.067412	0.000012
C32	C	1.471471	0.265921	0.333345
C33	C	1.804804	0.599254	0.666678
C34	C	1.112813	0.070044	0.000006
C35	C	1.446147	0.403377	0.333340
C36	C	1.779480	0.736710	0.666673
C37	C	0.994637	-0.282601	0.000006
C38	C	1.327970	0.050732	0.333340
C39	C	1.661304	0.384066	0.666673
C40	C	0.887015	-0.268557	0.000005
C41	C	1.220348	0.064776	0.333338
C42	C	1.553682	0.398110	0.666672
C43	C	1.344677	-0.302774	0.000008
C44	C	1.678010	0.030560	0.333341
C45	C	2.011343	0.363893	0.666675
C46	C	1.452300	-0.316816	0.000000
C47	C	1.785633	0.016517	0.333334
C48	C	2.118966	0.349850	0.666667
C49	C	1.649342	-0.342491	0.000001
C50	C	1.982675	-0.009158	0.333335
C51	C	2.316009	0.324175	0.666668
C52	C	1.689979	-0.242888	0.000004
C53	C	2.023312	0.090446	0.333338
C54	C	2.356646	0.423779	0.666671
C55	C	1.799620	-0.257174	0.000005
C56	C	2.132954	0.076160	0.333338
C57	C	2.466287	0.409493	0.666671
C58	C	1.539691	-0.328207	0.000001
C59	C	1.873025	0.005126	0.333334
C60	C	2.206358	0.338459	0.666667
C61	C	1.201177	-0.517963	0.000003
C62	C	1.534510	-0.184629	0.333336
C63	C	1.867843	0.148704	0.666669
C64	C	1.226501	-0.655417	-0.000001
C65	C	1.559834	-0.322084	0.333332
C66	C	1.893168	0.011249	0.666666
N67	N	1.135277	-0.344537	0.353646
N68	N	1.468610	-0.011203	0.686979
N69	N	1.801944	0.322130	1.020313
C70	C	1.182738	0.136280	0.000005
C71	C	1.516071	0.469614	0.333339
C72	C	1.849405	0.802947	0.666672
C73	C	1.156566	0.278349	-0.000000
C74	C	1.489900	0.611682	0.333333
C75	C	1.823233	0.945015	0.666667
N76	N	1.204042	-0.240830	-0.353629
N77	N	1.537376	0.092504	-0.020295
N78	N	1.870709	0.425837	0.313038
C79	C	1.177287	-0.281167	0.421427
C80	C	1.510620	0.052166	0.754761
C81	C	1.843953	0.385500	1.088094
C82	C	1.162027	-0.304209	0.578594
C83	C	1.495360	0.029125	0.911927
C84	C	1.828693	0.362458	1.245260
H85	H	1.642436	-0.146870	-0.000092
H86	H	1.975770	0.186463	0.333241
H87	H	2.309103	0.519796	0.666574
F88	F	1.711493	-0.467965	-0.000010
F89	F	2.044827	-0.134632	0.333323
F90	F	2.378160	0.198702	0.666656
F91	F	1.238855	-0.187719	0.345200
F92	F	1.572188	0.145614	0.678533
F93	F	1.905522	0.478948	1.011867
H94	H	1.261978	0.087810	0.000015
H95	H	1.595311	0.421143	0.333348
H96	H	1.928644	0.754477	0.666681
F97	F	1.052987	0.341691	-0.000014
F98	F	1.386320	0.675025	0.333319
F99	F	1.719653	1.008358	0.666653
F100	F	1.330083	0.281245	-0.000006
F101	F	1.663417	0.614579	0.333327
F102	F	1.996750	0.947912	0.666661
F103	F	1.266020	-0.147836	0.570152
F104	F	1.599353	0.185497	0.903485
F105	F	1.932687	0.518830	1.236819
H106	H	1.033574	0.118514	-0.000004
H107	H	1.366907	0.451848	0.333330
H108	H	1.700240	0.785181	0.666663
F109	F	1.100240	-0.397418	0.654816
F110	F	1.433574	-0.064085	0.988149
F111	F	1.766907	0.269249	1.321483
H112	H	1.088010	-0.415844	0.411969
H113	H	1.421343	-0.082510	0.745303
H114	H	1.754676	0.250823	1.078636
