data_functionalizedCrystal
_audit_creation_method	'MofGen! by Chris Wilmer'
_symmetry_space_group_name_H-M	'P1'
_symmetry_Int_Tables_number	1
_symmetry_cell_setting	triclinic
loop_
_symmetry_equiv_pos_as_xyz
  x,y,z
_cell_length_a	15.944499
_cell_length_b	15.944551
_cell_length_c	15.186229
_cell_angle_alpha	89.995303
_cell_angle_beta	89.994052
_cell_angle_gamma	83.488174
loop_
_atom_site_label
_atom_site_type_symbol
_atom_site_fract_x
_atom_site_fract_y
_atom_site_fract_z
O1	O	1.114550	0.108124	-0.073283
O2	O	1.614550	0.608124	0.426717
O3	O	0.869994	0.121526	-0.073274
O4	O	1.369994	0.621526	0.426726
O5	O	0.998950	-0.007451	-0.073271
O6	O	1.498950	0.492549	0.426729
O7	O	0.985594	0.237101	-0.073286
O8	O	1.485594	0.737101	0.426714
O9	O	0.998942	-0.007453	0.073186
O10	O	1.498942	0.492547	0.573186
O11	O	0.869986	0.121524	0.073184
O12	O	1.369986	0.621524	0.573184
O13	O	1.114541	0.108122	0.073174
O14	O	1.614541	0.608122	0.573174
Zn15	Zn	0.992262	0.114823	0.096432
Zn16	Zn	1.492262	0.614823	0.596432
Zn17	Zn	0.992274	0.114825	-0.096532
Zn18	Zn	1.492274	0.614825	0.403468
O19	O	0.985585	0.237099	0.073171
O20	O	1.485585	0.737099	0.573171
C21	C	0.838695	0.120976	-0.000044
C22	C	1.338695	0.620976	0.499956
C23	C	0.745447	0.119331	-0.000040
C24	C	1.245447	0.619331	0.499960
C25	C	0.998392	-0.038746	-0.000042
C26	C	1.498392	0.461254	0.499958
C27	C	0.996729	-0.131992	-0.000041
C28	C	1.496729	0.368008	0.499959
C29	C	0.453911	0.194263	-0.000058
C30	C	0.953911	0.694263	0.499942
C31	C	0.514944	0.155313	-0.072268
C32	C	1.014944	0.655313	0.427732
C33	C	0.409810	0.113355	-0.000060
C34	C	0.909810	0.613355	0.499940
C35	C	0.514922	0.155289	0.072127
C36	C	1.014922	0.655289	0.572127
C37	C	0.574719	0.116296	-0.000049
C38	C	1.074719	0.616296	0.499951
C39	C	0.469616	0.074382	-0.072330
C40	C	0.969616	0.574382	0.427670
C41	C	0.469587	0.074370	0.072131
C42	C	0.969587	0.574370	0.572131
C43	C	0.530603	0.035360	-0.000097
C44	C	1.030603	0.535360	0.499903
C45	C	0.314810	0.111663	-0.000067
C46	C	0.814810	0.611663	0.499933
C47	C	0.669718	0.117981	-0.000048
C48	C	1.169718	0.617981	0.499952
C49	C	0.912823	-0.346833	-0.000050
C50	C	1.412823	0.153167	0.499950
C51	C	0.951782	-0.407858	0.072161
C52	C	1.451782	0.092142	0.572161
C53	C	0.993722	-0.302717	-0.000048
C54	C	1.493722	0.197283	0.499952
C55	C	0.951810	-0.407840	-0.072235
C56	C	1.451810	0.092160	0.427765
C57	C	0.990811	-0.467629	-0.000058
C58	C	1.490811	0.032371	0.499942
C59	C	1.032703	-0.362514	0.072222
C60	C	1.532703	0.137486	0.572222
C61	C	1.032720	-0.362489	-0.072238
C62	C	1.532720	0.137511	0.427762
C63	C	1.071737	-0.423497	-0.000010
C64	C	1.571737	0.076503	0.499990
C65	C	0.995397	-0.207715	-0.000041
C66	C	1.495397	0.292285	0.499959
C67	C	0.989143	-0.562630	-0.000059
C68	C	1.489143	-0.062630	0.499941
C69	C	1.145840	0.108672	-0.000058
C70	C	1.645840	0.608672	0.499942
C71	C	1.239089	0.110317	-0.000068
C72	C	1.739089	0.610317	0.499932
C73	C	0.986144	0.268394	-0.000060
C74	C	1.486144	0.768394	0.499940
C75	C	0.987806	0.361640	-0.000066
C76	C	1.487806	0.861640	0.499934
N77	N	0.992261	0.114821	0.228125
N78	N	1.492261	0.614821	0.728125
N79	N	0.992282	0.114821	-0.228224
N80	N	1.492282	0.614821	0.271776
C81	C	1.049382	0.057729	0.453849
C82	C	1.549382	0.557729	0.953849
C83	C	1.049384	0.057727	0.546039
C84	C	1.549384	0.557727	1.046039
C85	C	0.935155	0.171915	0.546045
C86	C	1.435155	0.671915	1.046045
C87	C	0.935149	0.171912	0.453857
C88	C	1.435149	0.671912	0.953857
C89	C	0.992267	0.114820	0.407761
C90	C	1.492267	0.614820	0.907761
C91	C	0.992276	0.114821	0.592139
C92	C	1.492276	0.614821	1.092139
C93	C	0.992278	0.114819	0.692095
C94	C	1.492278	0.614819	1.192095
C95	C	0.992264	0.114821	0.307799
C96	C	1.492264	0.614821	0.807799
H97	H	0.420581	0.261409	-0.000132
H98	H	0.920581	0.761409	0.499868
F99	F	1.110170	-0.003036	0.404794
F100	F	1.610170	0.496964	0.904794
F101	F	1.077388	-0.336398	0.152104
F102	F	1.577388	0.163602	0.652104
F103	F	1.159583	-0.466856	0.000038
F104	F	1.659583	0.033144	0.500038
F105	F	0.443286	0.029675	0.151933
F106	F	0.943286	0.529675	0.651933
F107	F	1.077411	-0.336183	-0.152040
F108	F	1.577411	0.163817	0.347960
F109	F	0.907071	-0.434091	-0.152023
F110	F	1.407071	0.065909	0.347977
F111	F	0.573976	-0.052480	-0.000143
F112	F	1.073976	0.447520	0.499857
H113	H	1.095891	0.011237	0.583560
H114	H	1.595891	0.511237	1.083560
H115	H	0.888651	0.218400	0.583585
H116	H	1.388651	0.718400	1.083585
H117	H	0.535046	0.189537	-0.133316
H118	H	1.035046	0.689537	0.366684
F119	F	0.443511	0.029687	-0.152210
F120	F	0.943511	0.529687	0.347790
H121	H	0.534994	0.189523	0.133173
H122	H	1.034994	0.689523	0.633173
F123	F	0.825053	-0.303282	0.000043
F124	F	1.325053	0.196718	0.500043
F125	F	0.907055	-0.434134	0.151959
F126	F	1.407055	0.065866	0.651959
F127	F	0.874353	0.232677	0.404803
F128	F	1.374353	0.732677	0.904803
