data_functionalizedCrystal
_audit_creation_method	'MofGen! by Chris Wilmer'
_symmetry_space_group_name_H-M	'P1'
_symmetry_Int_Tables_number	1
_symmetry_cell_setting	triclinic
loop_
_symmetry_equiv_pos_as_xyz
  x,y,z
_cell_length_a	17.077404
_cell_length_b	21.295417
_cell_length_c	17.077396
_cell_angle_alpha	90.032144
_cell_angle_beta	90.018362
_cell_angle_gamma	90.027672
loop_
_atom_site_label
_atom_site_type_symbol
_atom_site_fract_x
_atom_site_fract_y
_atom_site_fract_z
Zn1	Zn	1.200017	-0.250643	0.443799
Zn2	Zn	1.700017	0.249357	0.943799
Zn3	Zn	1.199909	-0.355916	0.312524
Zn4	Zn	1.699909	0.144084	0.812524
Zn5	Zn	1.068749	-0.250661	0.312549
Zn6	Zn	1.568749	0.249339	0.812549
Zn7	Zn	1.068702	-0.355875	0.443751
Zn8	Zn	1.568702	0.144125	0.943751
O9	O	1.134344	-0.303274	0.378156
O10	O	1.634344	0.196726	0.878156
O11	O	1.309850	-0.264618	0.426395
O12	O	1.809850	0.235382	0.926395
O13	O	1.182485	-0.341979	0.202681
O14	O	1.682485	0.158021	0.702681
O15	O	1.086228	-0.162569	0.329991
O16	O	1.586228	0.337431	0.829991
O17	O	1.309770	-0.341962	0.329948
O18	O	1.809770	0.158038	0.829948
O19	O	1.182670	-0.162556	0.426419
O20	O	1.682670	0.337444	0.926419
O21	O	1.086122	-0.264648	0.202699
O22	O	1.586122	0.235352	0.702699
O23	O	0.958896	-0.264608	0.329944
O24	O	1.458896	0.235392	0.829944
O25	O	1.086146	-0.341891	0.553604
O26	O	1.586146	0.158109	1.053604
O27	O	0.958861	-0.341908	0.426337
O28	O	1.458861	0.158092	0.926337
O29	O	1.182624	-0.264578	0.553639
O30	O	1.682624	0.235422	1.053639
O31	O	1.182439	-0.444000	0.329901
O32	O	1.682439	0.056000	0.829901
O33	O	1.086041	-0.443970	0.426313
O34	O	1.586041	0.056030	0.926313
C35	C	0.930396	-0.303256	0.378138
C36	C	1.430396	0.196744	0.878138
C37	C	0.843147	-0.303264	0.378149
C38	C	1.343147	0.196736	0.878149
C39	C	0.802199	-0.263062	0.428446
C40	C	1.302199	0.236938	0.928446
C41	C	0.720218	-0.263066	0.428449
C42	C	1.220218	0.236934	0.928449
C43	C	0.679187	-0.303275	0.378160
C44	C	1.179187	0.196725	0.878160
C45	C	0.720141	-0.343478	0.327858
C46	C	1.220141	0.156522	0.827858
C47	C	0.802120	-0.343471	0.327851
C48	C	1.302120	0.156529	0.827851
C49	C	0.549271	-0.343493	0.327877
C50	C	1.049271	0.156507	0.827877
C51	C	0.467286	-0.343501	0.327885
C52	C	0.967286	0.156499	0.827885
C53	C	0.467369	-0.263088	0.428476
C54	C	0.967369	0.236912	0.928476
C55	C	0.549348	-0.263081	0.428469
C56	C	1.049348	0.236919	0.928469
C57	C	0.590296	-0.303285	0.378168
C58	C	1.090296	0.196715	0.878168
C59	C	1.134244	-0.466826	0.378116
C60	C	1.634244	0.033174	0.878116
C61	C	1.134273	-0.536794	0.378125
C62	C	1.634273	-0.036794	0.878125
C63	C	1.184462	-0.569596	0.428371
C64	C	1.684462	-0.069596	0.928371
C65	C	1.184490	-0.635339	0.428391
C66	C	1.684490	-0.135339	0.928391
C67	C	1.134337	-0.668276	0.378150
C68	C	1.634337	-0.168276	0.878150
C69	C	1.084138	-0.635466	0.327900
C70	C	1.584138	-0.135466	0.827900
C71	C	1.084107	-0.569724	0.327888
C72	C	1.584107	-0.069724	0.827888
N73	N	1.128408	-0.771539	0.309452
N74	N	1.628408	-0.271539	0.809452
N75	N	1.128443	-0.833991	0.309466
N76	N	1.628443	-0.333991	0.809466
C77	C	1.134429	-0.866351	0.378186
C78	C	1.634429	-0.366351	0.878186
N79	N	1.140394	-0.833900	0.446892
N80	N	1.640394	-0.333900	0.946892
N81	N	1.140363	-0.771443	0.446877
N82	N	1.640363	-0.271443	0.946877
C83	C	1.134365	-0.739562	0.378158
C84	C	1.634365	-0.239562	0.878158
C85	C	1.184650	-0.970439	0.428457
C86	C	1.684650	-0.470439	0.928457
C87	C	1.184672	-1.036183	0.428478
C88	C	1.684672	-0.536183	0.928478
C89	C	1.084325	-1.036308	0.327980
C90	C	1.584325	-0.536308	0.827980
C91	C	1.084299	-0.970566	0.327966
C92	C	1.584299	-0.470566	0.827966
C93	C	1.134465	-0.937635	0.378204
C94	C	1.634465	-0.437635	0.878204
C95	C	1.339089	-0.303292	0.378174
C96	C	1.839089	0.196708	0.878174
C97	C	1.426338	-0.303300	0.378182
C98	C	1.926338	0.196700	0.878182
C99	C	1.134392	-0.303228	0.582900
C100	C	1.634392	0.196772	1.082900
C101	C	1.134412	-0.303208	0.670150
C102	C	1.634412	0.196792	1.170150
C103	C	1.134466	-0.139084	0.378213
C104	C	1.634466	0.360916	0.878213
C105	C	1.134518	-0.069116	0.378237
C106	C	1.634518	0.430884	0.878237
C107	C	1.134342	-0.303275	0.174208
C108	C	1.634342	0.196725	0.674208
C109	C	1.134474	-0.303117	0.086959
C110	C	1.634474	0.196883	0.586959
C111	C	1.184650	-0.262947	0.711160
C112	C	1.684650	0.237053	1.211160
C113	C	1.184659	-0.262927	0.793140
C114	C	1.684659	0.237073	1.293140
C115	C	1.134434	-0.303170	0.834110
C116	C	1.634434	0.196830	1.334110
C117	C	1.084191	-0.343432	0.793094
C118	C	1.584191	0.156568	1.293094
C119	C	1.084178	-0.343449	0.711115
C120	C	1.584178	0.156551	1.211115
C121	C	1.084223	-0.343394	0.963964
C122	C	1.584223	0.156606	1.463964
C123	C	1.084237	-0.343377	1.045949
C124	C	1.584237	0.156623	1.545949
C125	C	1.184703	-0.262871	1.045990
C126	C	1.684703	0.237129	1.545990
C127	C	1.184691	-0.262889	0.964011
C128	C	1.684691	0.237111	1.464011
C129	C	1.134448	-0.303152	0.923001
C130	C	1.634448	0.196848	1.423001
H131	H	0.433881	-0.376243	0.286936
H132	H	0.933881	0.123757	0.786936
H133	H	1.225496	-0.943626	0.469366
H134	H	1.725496	-0.443626	0.969366
H135	H	1.043236	-0.543016	0.286971
H136	H	1.543236	-0.043016	0.786971
H137	H	0.686882	-0.230332	0.469407
H138	H	1.186882	0.269668	0.969407
Br139	Br	0.857876	-0.208494	0.496705
Br140	Br	1.357876	0.291506	0.996705
H141	H	0.582754	-0.230343	0.469424
H142	H	1.082754	0.269657	0.969424
Br143	Br	1.252893	-0.208231	1.101644
Br144	Br	1.752893	0.291769	1.601644
Br145	Br	0.411798	-0.208526	0.496742
Br146	Br	0.911798	0.291474	0.996742
Br147	Br	1.016180	-0.926045	0.259773
Br148	Br	1.516180	-0.426045	0.759773
Br149	Br	1.016066	-0.397987	1.101550
Br150	Br	1.516066	0.102013	1.601550
Br151	Br	0.857693	-0.398031	0.259587
Br152	Br	1.357693	0.101969	0.759587
Br153	Br	0.604843	-0.398059	0.259615
Br154	Br	1.104843	0.101941	0.759615
Br155	Br	1.016066	-0.680164	0.259723
Br156	Br	1.516066	-0.180164	0.759723
Br157	Br	1.252878	-0.208314	0.848794
Br158	Br	1.752878	0.291686	1.348794
Br159	Br	1.252860	-0.208278	0.908409
Br160	Br	1.752860	0.291722	1.408409
H161	H	1.043298	-0.376170	0.930576
H162	H	1.543298	0.123830	1.430576
H163	H	0.686727	-0.376214	0.286908
H164	H	1.186727	0.123786	0.786908
H165	H	1.225309	-0.542786	0.469280
H166	H	1.725309	-0.042786	0.969280
H167	H	1.225542	-1.062889	0.469398
H168	H	1.725542	-0.562889	0.969398
Br169	Br	1.252612	-0.679867	0.496583
Br170	Br	1.752612	-0.179867	0.996583
H171	H	1.043485	-1.063125	0.287078
H172	H	1.543485	-0.563125	0.787078
H173	H	1.225551	-0.230179	0.677809
H174	H	1.725551	0.269821	1.177809
Br175	Br	1.016023	-0.398044	0.848694
Br176	Br	1.516023	0.101956	1.348694
H177	H	1.043262	-0.376227	0.677726
H178	H	1.543262	0.123773	1.177726
