data_functionalizedCrystal
_audit_creation_method	'MofGen! by Chris Wilmer'
_symmetry_space_group_name_H-M	'P1'
_symmetry_Int_Tables_number	1
_symmetry_cell_setting	triclinic
loop_
_symmetry_equiv_pos_as_xyz
  x,y,z
_cell_length_a	6.817900
_cell_length_b	12.840976
_cell_length_c	10.992421
_cell_angle_alpha	81.915441
_cell_angle_beta	108.764763
_cell_angle_gamma	88.343600
loop_
_atom_site_label
_atom_site_type_symbol
_atom_site_fract_x
_atom_site_fract_y
_atom_site_fract_z
V1	V	-3.925763	0.325197	-0.180780
O2	O	-3.887470	0.319022	0.005580
O3	O	-3.904639	0.322959	-0.355468
O4	O	-3.821146	0.467034	-0.179362
O5	O	-3.971541	0.173950	-0.171744
V6	V	-4.413141	0.307109	-0.158328
O7	O	-4.178565	0.364876	-0.230030
O8	O	-4.610536	0.267430	-0.109078
O9	O	-4.211058	0.309347	0.016360
O10	O	-4.568830	0.313284	-0.344688
O11	O	-4.484759	0.458356	-0.167363
O12	O	-4.294551	0.165272	-0.159745
C13	C	-3.758094	0.317825	-0.398010
C14	C	-3.821735	0.316940	-0.540829
C15	C	-3.647465	0.619737	-0.173390
C16	C	-3.651592	0.501604	-0.173381
C17	C	-4.110474	0.012574	-0.165803
C18	C	-4.127469	0.130700	-0.165765
C19	C	-3.693533	0.309807	-0.736050
C20	C	-3.627158	0.310314	-0.587410
C21	C	-3.948722	0.219671	-0.578561
C22	C	-4.013555	0.218641	-0.727095
C23	C	-4.029489	0.418038	-0.767528
C24	C	-3.959212	0.420148	-0.619034
V25	V	-3.908734	0.811365	-0.180828
O26	O	-3.943918	0.962575	-0.171813
O27	O	-3.814241	0.664178	-0.179390
O28	O	-3.886075	0.852733	-0.355517
O29	O	-3.871587	0.772715	0.005533
V30	V	-4.394172	0.848817	-0.158388
O31	O	-4.163471	0.795828	-0.230078
O32	O	-4.588842	0.887041	-0.109147
O33	O	-4.265850	0.984755	-0.159821
O34	O	-4.476179	0.703522	-0.167406
O35	O	-4.548510	0.893382	-0.344752
O36	O	-4.194016	0.796200	0.016305
C37	C	-4.020947	0.314478	0.058896
C38	C	-3.936542	0.315370	0.201713
C39	C	-3.739080	0.860258	-0.398051
C40	C	-3.801389	0.897221	-0.540870
C41	C	-4.004942	0.771705	0.058853
C42	C	-3.921908	0.733705	0.201675
C43	C	-4.011717	0.920033	-0.614539
C44	C	-4.070289	0.954779	-0.748731
C45	C	-3.918531	0.966705	-0.809252
C46	C	-3.708185	0.943894	-0.735572
C47	C	-3.649615	0.909156	-0.601381
C48	C	-3.709854	0.703435	0.262171
C49	C	-3.631803	0.667742	0.396369
C50	C	-3.765813	0.662314	0.470067
C51	C	-3.977885	0.692591	0.409563
C52	C	-4.055930	0.728290	0.275368
H53	H	-3.627676	0.378879	-0.783112
C54	C	-3.564678	0.709355	0.181940
C55	C	-3.678386	0.747072	0.051458
C56	C	-3.544708	0.752530	-0.022479
H57	H	-3.460682	0.755785	0.213363
H58	H	-3.500884	0.641030	0.188857
H59	H	-3.742147	0.815386	0.044548
H60	H	-3.782375	0.700655	0.019998
H61	H	-3.480914	0.684205	-0.015562
H62	H	-3.440718	0.798959	0.008954
H63	H	-3.621842	0.778112	-0.111021
C64	C	-4.123053	0.686559	0.489800
C65	C	-4.009300	0.648784	0.620259
C66	C	-4.142961	0.643192	0.694211
H67	H	-4.186940	0.754828	0.482982
H68	H	-4.226986	0.640100	0.458298
H69	H	-3.905405	0.695241	0.651752
H70	H	-3.945417	0.580510	0.627118
H71	H	-4.246894	0.596733	0.662708
H72	H	-4.206841	0.711464	0.687381
H73	H	-4.065803	0.617552	0.782732
C74	C	-4.298556	0.979628	-0.828925
C75	C	-4.317396	1.012634	-0.959394
C76	C	-4.527638	1.035542	-1.033300
H77	H	-4.371192	0.918232	-0.822094
H78	H	-4.355750	1.034196	-0.797396
H79	H	-4.260230	0.958071	-0.990914
H80	H	-4.244807	1.074036	-0.966265
H81	H	-4.584832	1.090110	-1.001771
H82	H	-4.600256	0.974142	-1.026458
H83	H	-4.540448	1.057948	-1.121829
H84	H	-3.620655	0.235766	-0.755922
H85	H	-3.529750	0.379817	-0.562291
H86	H	-3.459120	0.643092	0.445611
H87	H	-3.521427	0.236212	-0.534280
H88	H	-3.966251	0.994992	-0.918520
H89	H	-3.947517	0.141410	-0.743892
H90	H	-4.189855	0.218487	-0.767977
H91	H	-4.093704	0.220792	-0.548336
H92	H	-3.584638	0.953610	-0.784869
H93	H	-3.852419	0.143263	-0.523614
H94	H	-4.206383	0.423136	-0.808692
C95	C	-3.963854	0.516054	-0.834511
C96	C	-3.838684	0.486042	-0.904701
C97	C	-3.778137	0.576298	-0.966406
H98	H	-4.083699	0.557702	-0.892281
H99	H	-3.887805	0.555982	-0.770976
H100	H	-3.914732	0.446131	-0.968230
H101	H	-3.718811	0.444408	-0.846962
H102	H	-3.702087	0.616227	-0.902870
H103	H	-3.897993	0.617940	-1.024169
H104	H	-3.693187	0.555948	-1.014027
H105	H	-3.868501	0.492113	-0.595806
H106	H	-4.102697	0.431011	-0.588927
H107	H	-4.135315	0.910323	-0.565283
H108	H	-3.478344	0.890580	-0.541410
H109	H	-3.702237	0.633241	0.579335
H110	H	-4.228606	0.752930	0.226123
