data_functionalizedCrystal
_audit_creation_method	'MofGen! by Chris Wilmer'
_symmetry_space_group_name_H-M	'P1'
_symmetry_Int_Tables_number	1
_symmetry_cell_setting	triclinic
loop_
_symmetry_equiv_pos_as_xyz
  x,y,z
_cell_length_a	10.540510
_cell_length_b	10.540510
_cell_length_c	9.016244
_cell_angle_alpha	90.000273
_cell_angle_beta	89.992396
_cell_angle_gamma	84.513311
loop_
_atom_site_label
_atom_site_type_symbol
_atom_site_fract_x
_atom_site_fract_y
_atom_site_fract_z
O1	O	1.685896	0.178718	-0.123341
O2	O	1.316476	0.195613	-0.123341
O3	O	1.509634	0.002455	-0.123340
O4	O	1.492738	0.371875	-0.123341
O5	O	1.509605	0.002460	0.123341
O6	O	1.316448	0.195617	0.123340
O7	O	1.685867	0.178722	0.123340
Cu8	Cu	1.501155	0.187170	0.145864
Cu9	Cu	1.501189	0.187165	-0.145865
O10	O	1.492710	0.371879	0.123339
C11	C	1.269159	0.194356	-0.000001
C12	C	1.128209	0.190589	-0.000001
C13	C	0.910739	0.324775	-0.000568
C14	C	1.057334	0.328793	-0.000003
C15	C	1.083441	0.119845	0.140863
C16	C	0.936680	0.116805	0.140972
C17	C	0.936906	0.113922	-0.139550
C18	C	1.083247	0.120478	-0.141403
C19	C	1.508361	-0.044846	-0.000003
C20	C	1.504594	-0.185795	-0.000012
C21	C	1.638780	-0.403265	0.000553
C22	C	1.642798	-0.256670	-0.000010
C23	C	1.433863	-0.230549	-0.140876
C24	C	1.430824	-0.377310	-0.140986
C25	C	1.427913	-0.377113	0.139536
C26	C	1.434468	-0.230772	0.141390
C27	C	1.733185	0.179979	-0.000004
C28	C	1.874135	0.183746	-0.000013
C29	C	1.493983	0.419181	-0.000001
C30	C	1.497750	0.560130	-0.000002
N31	N	1.501141	0.187173	0.351050
N32	N	1.501213	0.187152	-0.351051
C33	C	1.397497	0.290153	0.586082
C34	C	1.397726	0.290538	0.414191
C35	C	1.633862	0.217293	0.413388
C36	C	1.633296	0.218022	0.585333
C37	C	1.473381	0.053736	0.585594
C38	C	1.470335	0.054601	0.413640
H39	H	0.868792	0.378616	-0.101590
H40	H	1.549002	-0.022928	0.626246
H41	H	1.378645	0.025066	0.629042
Br42	Br	1.735003	-0.207756	0.168315
H43	H	1.327456	-0.400294	-0.147368
Br44	Br	1.675353	0.377691	0.341592
Br45	Br	0.838193	0.414014	0.166844
H46	H	1.479185	-0.417532	-0.246284
H47	H	1.485935	-0.202164	0.245600
Br48	Br	1.673872	0.380254	0.652159
Br49	Br	0.898361	-0.055471	0.151730
Br50	Br	1.162422	-0.049743	0.149593
Br51	Br	1.131017	0.206223	-0.315102
Br52	Br	1.254967	-0.414011	0.141122
Br53	Br	1.165038	-0.047703	-0.155582
H54	H	1.692324	-0.446778	-0.099896
Br55	Br	1.104660	0.421598	0.168587
H56	H	1.540872	-0.025729	0.370664
Br57	Br	1.106263	0.421045	-0.168306
Br58	Br	0.869613	0.197396	0.316471
H59	H	1.114278	0.168979	0.245693
H60	H	1.299111	0.272418	0.372047
H61	H	1.298572	0.272310	0.627476
Br62	Br	0.866017	0.186571	-0.317506
H63	H	0.914764	0.010159	-0.140502
H64	H	1.692611	-0.445224	0.101574
Br65	Br	1.735612	-0.209326	-0.168605
Br66	Br	1.264285	-0.151546	-0.149621
H67	H	1.333568	-0.181695	0.149896
H68	H	1.483007	-0.199699	-0.245706
Br69	Br	1.500597	-0.447964	0.317493
H70	H	1.415154	0.388576	0.629275
Br71	Br	1.427483	0.455535	0.345596
H72	H	1.372698	0.031770	0.372898
H73	H	1.712926	0.144320	0.372484
Br74	Br	1.765764	0.097702	0.654651
