data_functionalizedCrystal
_audit_creation_method	'MofGen! by Chris Wilmer'
_symmetry_space_group_name_H-M	'P1'
_symmetry_Int_Tables_number	1
_symmetry_cell_setting	triclinic
loop_
_symmetry_equiv_pos_as_xyz
  x,y,z
_cell_length_a	16.956995
_cell_length_b	14.519709
_cell_length_c	15.455313
_cell_angle_alpha	92.669068
_cell_angle_beta	87.515363
_cell_angle_gamma	79.867308
loop_
_atom_site_label
_atom_site_type_symbol
_atom_site_fract_x
_atom_site_fract_y
_atom_site_fract_z
O1	O	1.061583	0.033914	-0.072191
O2	O	0.829472	0.066287	-0.072180
O3	O	0.951681	-0.084618	-0.072178
O4	O	0.939374	0.184820	-0.072193
O5	O	0.944693	-0.076022	0.072084
O6	O	0.822483	0.074883	0.072082
O7	O	1.054595	0.042510	0.072071
Cu8	Cu	0.937901	0.059482	0.085249
Cu9	Cu	0.946166	0.049316	-0.085358
O10	O	0.932385	0.193416	0.072069
C11	C	0.947613	-0.114635	-0.000047
C12	C	0.945894	-0.216882	-0.000046
C13	C	0.796272	0.072243	-0.000048
C14	C	0.707758	0.077171	-0.000043
C15	C	0.208512	0.114034	-0.000078
C16	C	0.291681	0.109397	-0.000077
C17	C	0.342644	0.022351	-0.000065
C18	C	0.310436	-0.060064	-0.000064
C19	C	0.227269	-0.055426	-0.000071
C20	C	0.592383	-0.000606	-0.000049
C21	C	0.675555	-0.005237	-0.000039
C22	C	0.656794	0.164224	-0.000054
C23	C	0.573626	0.168854	-0.000056
C24	C	0.541425	0.086440	-0.000059
N25	N	0.427656	0.017609	-0.000062
N26	N	0.456415	0.091182	-0.000069
C27	C	0.939568	-0.591285	-0.000069
C28	C	0.941324	-0.487114	-0.000062
C29	C	0.942731	-0.404086	-0.000057
C30	C	0.944488	-0.299909	-0.000052
C31	C	1.087795	0.036555	-0.000064
C32	C	1.176309	0.031626	-0.000074
C33	C	0.936453	0.223433	-0.000064
C34	C	0.938173	0.325679	-0.000071
N35	N	0.932094	0.066631	0.205244
N36	N	0.951979	0.042159	-0.205353
C37	C	0.984031	0.002542	0.250639
C38	C	0.979646	0.007956	0.341447
C39	C	0.923328	0.077465	0.386858
C40	C	0.871386	0.141557	0.341457
C41	C	0.875767	0.136138	0.250650
C42	C	0.904418	0.100832	0.658439
C43	C	0.900042	0.106248	0.749252
C44	C	1.008302	-0.027354	0.749236
C45	C	1.012682	-0.032764	0.658428
C46	C	0.960736	0.031325	0.613034
N47	N	0.918847	0.083003	0.479678
N48	N	0.965214	0.025782	0.520216
H49	H	0.167022	0.184917	-0.000081
H50	H	1.029894	-0.054056	0.213671
Cl51	Cl	1.044939	-0.072615	0.398516
Cl52	Cl	1.083483	-0.120146	0.601339
H53	H	0.854179	0.162854	0.786221
Cl54	Cl	0.810468	0.216708	0.193583
H55	H	0.825526	0.198150	0.378436
Cl56	Cl	0.551914	-0.104215	-0.000073
H57	H	1.050593	-0.079534	0.786203
Cl58	Cl	0.839120	0.181402	0.601379
Cl59	Cl	0.332161	0.213001	-0.000087
H60	H	0.351938	-0.130939	-0.000060
H61	H	0.717049	-0.076124	-0.000034
H62	H	0.532136	0.239737	-0.000068
Cl63	Cl	0.697281	0.267824	-0.000058
H64	H	0.201051	-0.122531	-0.000069
