data_functionalizedCrystal
_audit_creation_method	'MofGen! by Chris Wilmer'
_symmetry_space_group_name_H-M	'P1'
_symmetry_Int_Tables_number	1
_symmetry_cell_setting	triclinic
loop_
_symmetry_equiv_pos_as_xyz
  x,y,z
_cell_length_a	13.635800
_cell_length_b	11.102183
_cell_length_c	11.102291
_cell_angle_alpha	88.050751
_cell_angle_beta	71.394248
_cell_angle_gamma	108.603876
loop_
_atom_site_label
_atom_site_type_symbol
_atom_site_fract_x
_atom_site_fract_y
_atom_site_fract_z
V1	V	-2.055764	-0.175855	0.396257
O2	O	-2.035286	0.008434	0.388716
O3	O	-2.044147	-0.348674	0.393544
O4	O	-2.044156	-0.173157	0.569079
O5	O	-2.035276	-0.168298	0.211966
V6	V	-2.294316	-0.153811	0.374214
O7	O	-2.193434	-0.224210	0.444608
O8	O	-2.381744	-0.105456	0.325863
O9	O	-2.194329	0.019009	0.376927
O10	O	-2.373492	-0.338099	0.381755
O11	O	-2.373502	-0.161367	0.558505
O12	O	-2.194320	-0.156508	0.201392
V13	V	-1.555764	-0.175855	0.396257
O14	O	-1.535286	0.008434	0.388716
O15	O	-1.544147	-0.348674	0.393544
O16	O	-1.544156	-0.173157	0.569079
O17	O	-1.535276	-0.168298	0.211966
V18	V	-1.794316	-0.153811	0.374214
O19	O	-1.693434	-0.224210	0.444608
O20	O	-1.881744	-0.105456	0.325863
O21	O	-1.694329	0.019009	0.376927
O22	O	-1.873492	-0.338099	0.381755
O23	O	-1.873502	-0.161367	0.558505
O24	O	-1.694320	-0.156508	0.201392
C25	C	-1.969301	-0.390804	0.387293
C26	C	-2.000530	-0.532086	0.386227
C27	C	-1.940350	-0.495799	0.153447
C28	C	-1.924930	-0.544030	0.036560
C29	C	-1.954276	-0.676778	0.035566
C30	C	-1.999050	-0.761300	0.151471
C31	C	-2.014470	-0.713070	0.268357
C32	C	-1.985117	-0.580317	0.269339
C33	C	-2.074657	-0.749357	0.501135
C34	C	-2.045304	-0.616609	0.502132
C35	C	-2.119431	-0.833879	0.617040
C36	C	-2.134845	-0.785649	0.733928
C37	C	-2.105494	-0.652892	0.734918
C38	C	-2.060724	-0.568378	0.619018
C39	C	-1.969312	-0.166912	0.611203
C40	C	-2.000547	-0.165850	0.752486
C41	C	-2.100846	0.061132	0.383175
C42	C	-2.059237	0.202413	0.384249
C43	C	-2.100835	-0.162757	0.159262
C44	C	-2.059219	-0.163813	0.017977
C45	C	-1.469301	-0.390804	0.387293
C46	C	-1.500530	-0.532086	0.386227
C47	C	-1.469312	-0.166912	0.611203
C48	C	-1.500547	-0.165850	0.752486
C49	C	-2.107224	-0.171689	0.825334
C50	C	-2.136560	-0.170666	0.958080
C51	C	-1.952532	-0.157969	0.945119
C52	C	-1.923195	-0.158983	0.812374
C53	C	-2.213473	-0.179025	0.832819
C54	C	-2.242809	-0.178002	0.965565
C55	C	-1.600846	0.061132	0.383175
C56	C	-1.559237	0.202413	0.384249
C57	C	-1.600835	-0.162757	0.159262
C58	C	-1.559219	-0.163813	0.017977
C59	C	-1.607205	-0.604934	0.392066
C60	C	-1.636545	-0.737685	0.391076
C61	C	-1.452523	-0.724727	0.378402
C62	C	-1.423187	-0.591980	0.379401
C63	C	-1.713448	-0.612416	0.399378
C64	C	-1.742788	-0.745167	0.398388
C65	C	-1.607224	-0.171689	0.825334
C66	C	-1.636560	-0.170666	0.958080
C67	C	-1.452532	-0.157969	0.945119
C68	C	-1.423195	-0.158983	0.812374
C69	C	-1.713473	-0.179025	0.832819
C70	C	-1.742809	-0.178002	0.965565
H71	H	-1.916421	-0.387705	0.154243
Cl72	Cl	-1.289084	-0.500406	0.372084
H73	H	-1.836332	-0.154230	0.753066
Cl74	Cl	-2.228499	-0.045844	0.760097
H75	H	-1.768440	-0.770133	0.311572
H76	H	-1.814654	-0.269897	1.018411
H77	H	-1.723212	-0.092764	0.785724
Cl78	Cl	-2.287109	-0.325350	0.795036
H79	H	-1.941722	-0.716045	-0.059613
Cl80	Cl	-1.355300	-0.800031	0.369821
H81	H	-1.713483	-0.559185	0.309770
H82	H	-1.888475	-0.475197	-0.057806
H83	H	-2.261042	-0.087765	0.994668
Cl84	Cl	-2.156333	-1.000764	0.615790
Cl85	Cl	-2.035963	-0.928185	0.150218
Cl86	Cl	-1.787109	-0.325350	0.795036
H87	H	-2.314654	-0.269897	1.018411
H88	H	-1.761042	-0.087765	0.994668
Cl89	Cl	-1.799796	-0.582736	0.542083
Cl90	Cl	-1.844413	-0.834527	0.543822
Cl91	Cl	-1.289081	-0.151633	0.720796
H92	H	-1.389559	-0.152376	0.993896
H93	H	-2.171306	-0.854476	0.828289
H94	H	-2.118067	-0.613634	0.830102
Cl95	Cl	-2.023820	-0.401491	0.620252
H96	H	-1.889559	-0.152376	0.993896
