data_functionalizedCrystal
_audit_creation_method	'MofGen! by Chris Wilmer'
_symmetry_space_group_name_H-M	'P1'
_symmetry_Int_Tables_number	1
_symmetry_cell_setting	triclinic
loop_
_symmetry_equiv_pos_as_xyz
  x,y,z
_cell_length_a	13.897449
_cell_length_b	16.120444
_cell_length_c	13.897449
_cell_angle_alpha	87.114069
_cell_angle_beta	90.008641
_cell_angle_gamma	92.927498
loop_
_atom_site_label
_atom_site_type_symbol
_atom_site_fract_x
_atom_site_fract_y
_atom_site_fract_z
Zn1	Zn	1.455019	-0.332036	0.564906
Zn2	Zn	1.446750	-0.471421	0.411776
Zn3	Zn	1.293750	-0.332025	0.403617
Zn4	Zn	1.285486	-0.471415	0.573021
O5	O	1.370251	-0.401725	0.488330
O6	O	1.588903	-0.350533	0.544612
O7	O	1.426453	-0.452928	0.275712
O8	O	1.322062	-0.215359	0.418202
O9	O	1.582828	-0.452939	0.432108
O10	O	1.440545	-0.215367	0.536701
O11	O	1.314044	-0.350515	0.269717
O12	O	1.157673	-0.350509	0.426070
O13	O	1.307977	-0.452928	0.706926
O14	O	1.151601	-0.452917	0.550530
O15	O	1.432532	-0.350527	0.700965
O16	O	1.418439	-0.588089	0.439976
O17	O	1.299959	-0.588084	0.558441
C18	C	1.119638	-0.401712	0.488296
C19	C	1.012423	-0.401726	0.488305
C20	C	0.925353	-0.401729	0.488321
C21	C	0.816120	-0.401735	0.488351
C22	C	1.357431	-0.618337	0.500995
C23	C	1.352035	-0.711005	0.506446
C24	C	1.398480	-0.921933	0.460262
C25	C	1.342201	-0.880665	0.516408
C26	C	1.347674	-0.786257	0.510863
C27	C	1.393008	-1.016349	0.465805
C28	C	1.621844	-0.401738	0.488365
C29	C	1.729057	-0.401744	0.488380
C30	C	1.370255	-0.401728	0.739923
C31	C	1.370256	-0.401730	0.847137
C32	C	1.383148	-0.184266	0.475636
C33	C	1.388643	-0.091598	0.470227
C34	C	1.370232	-0.401733	1.043432
C35	C	1.370242	-0.401734	0.934200
C36	C	1.370238	-0.401738	1.237716
C37	C	1.370231	-0.401731	1.130502
H38	H	1.450769	-0.886366	0.408033
H39	H	1.289908	-0.916235	0.568639
