data_functionalizedCrystal
_audit_creation_method	'MofGen! by Chris Wilmer'
_symmetry_space_group_name_H-M	'P1'
_symmetry_Int_Tables_number	1
_symmetry_cell_setting	triclinic
loop_
_symmetry_equiv_pos_as_xyz
  x,y,z
_cell_length_a	19.805407
_cell_length_b	13.031981
_cell_length_c	19.805398
_cell_angle_alpha	82.791306
_cell_angle_beta	89.979507
_cell_angle_gamma	97.190128
loop_
_atom_site_label
_atom_site_type_symbol
_atom_site_fract_x
_atom_site_fract_y
_atom_site_fract_z
Zn1	Zn	1.000545	-0.416170	-0.348550
Zn2	Zn	1.500545	0.083830	0.151450
Zn3	Zn	0.986118	-0.590951	-0.220977
Zn4	Zn	1.486118	-0.090951	0.279023
Zn5	Zn	0.887365	-0.416191	-0.235364
Zn6	Zn	1.387365	0.083809	0.264636
Zn7	Zn	0.872978	-0.590899	-0.334119
Zn8	Zn	1.372978	-0.090899	0.165881
O9	O	0.936752	-0.503553	-0.284752
O10	O	1.436752	-0.003553	0.215248
O11	O	1.093347	-0.439368	-0.331646
O12	O	1.593347	0.060632	0.168354
O13	O	0.973002	-0.567800	-0.128166
O14	O	1.473002	-0.067800	0.371834
O15	O	0.914437	-0.269926	-0.262439
O16	O	1.414437	0.230074	0.237561
O17	O	1.082747	-0.567779	-0.237918
O18	O	1.582747	-0.067779	0.262082
O19	O	0.997590	-0.269910	-0.345597
O20	O	1.497590	0.230090	0.154403
O21	O	0.900448	-0.439405	-0.138736
O22	O	1.400448	0.060595	0.361264
O23	O	0.790741	-0.439353	-0.248445
O24	O	1.290741	0.060647	0.251555
O25	O	0.889917	-0.567689	-0.430752
O26	O	1.389917	-0.067689	0.069248
O27	O	0.780171	-0.567710	-0.321000
O28	O	1.280171	-0.067710	0.179000
O29	O	0.983640	-0.439317	-0.441355
O30	O	1.483640	0.060683	0.058645
O31	O	0.959051	-0.737207	-0.223924
O32	O	1.459051	-0.237207	0.276076
O33	O	0.875928	-0.737168	-0.307049
O34	O	1.375928	-0.237168	0.192951
C35	C	0.760898	-0.503529	-0.284718
C36	C	1.260898	-0.003529	0.215282
C37	C	0.685664	-0.503544	-0.284718
C38	C	1.185664	-0.003544	0.215282
C39	C	0.914382	-0.775111	-0.262374
C40	C	1.414382	-0.275111	0.237626
C41	C	0.904873	-0.891285	-0.252824
C42	C	1.404873	-0.391285	0.247176
C43	C	0.218376	-0.570514	-0.322497
C44	C	0.718376	-0.070514	0.177503
C45	C	0.289065	-0.570512	-0.322482
C46	C	0.789065	-0.070512	0.177518
C47	C	0.329900	-0.503578	-0.284777
C48	C	0.829900	-0.003578	0.215223
C49	C	0.300042	-0.436649	-0.247077
C50	C	0.800042	0.063351	0.252923
C51	C	0.229354	-0.436657	-0.247088
C52	C	0.729354	0.063343	0.252912
C53	C	0.585118	-0.436617	-0.247032
C54	C	1.085118	0.063383	0.252968
C55	C	0.655811	-0.436612	-0.247026
C56	C	1.155811	0.063388	0.252974
C57	C	0.644829	-0.570472	-0.322427
C58	C	1.144829	-0.070472	0.177573
C59	C	0.574141	-0.570480	-0.322438
C60	C	1.074141	-0.070480	0.177562
C61	C	0.544289	-0.503555	-0.284736
C62	C	1.044289	-0.003555	0.215264
C63	C	0.467640	-0.503559	-0.284750
C64	C	0.967640	-0.003559	0.215250
C65	C	0.406548	-0.503568	-0.284765
C66	C	0.906548	-0.003568	0.215235
C67	C	0.941750	-0.942988	-0.289751
C68	C	1.441750	-0.442988	0.210249
C69	C	0.931924	-1.063060	-0.279880
C70	C	1.431924	-0.563060	0.220120
C71	C	1.113292	-0.503577	-0.284787
C72	C	1.613292	-0.003577	0.215213
C73	C	1.188523	-0.503588	-0.284802
C74	C	1.688523	-0.003588	0.215198
C75	C	0.936783	-0.503495	-0.461300
C76	C	1.436783	-0.003495	0.038700
C77	C	0.936796	-0.503470	-0.536534
C78	C	1.436796	-0.003470	-0.036534
C79	C	0.959228	-0.230934	-0.307233
C80	C	1.459228	0.269066	0.192767
C81	C	0.968805	-0.114760	-0.316812
C82	C	1.468805	0.385240	0.183188
C83	C	0.985694	-0.436442	-1.003863
C84	C	1.485694	0.063558	-0.503863
C85	C	0.985681	-0.436474	-0.933171
C86	C	1.485681	0.063526	-0.433171
C87	C	0.936878	-0.503325	-0.892308
C88	C	1.436878	-0.003325	-0.392308
C89	C	0.888088	-0.570156	-0.922138
C90	C	1.388088	-0.070156	-0.422138
C91	C	0.888105	-0.570128	-0.992828
C92	C	1.388105	-0.070128	-0.492828
C93	C	0.888020	-0.570269	-0.637055
C94	C	1.388020	-0.070269	-0.137055
C95	C	0.888006	-0.570289	-0.566362
C96	C	1.388006	-0.070289	-0.066362
C97	C	0.985596	-0.436615	-0.577399
C98	C	1.485596	0.063385	-0.077399
C99	C	0.985613	-0.436587	-0.648089
C100	C	1.485613	0.063413	-0.148089
C101	C	0.936826	-0.503421	-0.677913
C102	C	1.436826	-0.003421	-0.177913
C103	C	0.936842	-0.503387	-0.754564
C104	C	1.436842	-0.003387	-0.254564
C105	C	0.936858	-0.503354	-0.815658
C106	C	1.436858	-0.003354	-0.315658
C107	C	0.936766	-0.503535	-0.108898
C108	C	1.436766	-0.003535	0.391102
C109	C	0.936908	-0.503265	-0.033689
C110	C	1.436908	-0.003265	0.466311
H111	H	0.185133	-0.625014	-0.353205
H112	H	0.685133	-0.125014	0.146795
H113	H	1.007652	-1.070137	-0.355740
H114	H	1.507652	-0.570137	0.144260
O115	O	0.853415	-0.950393	-0.201267
O116	O	1.353415	-0.450393	0.298733
H117	H	0.827893	-0.894255	-0.175722
H118	H	1.327893	-0.394255	0.324278
O119	O	0.530129	-0.642791	-0.363053
O120	O	1.030129	-0.142791	0.136947
H121	H	0.545177	-0.625069	-0.417667
H122	H	1.045177	-0.125069	0.082333
O123	O	0.835357	-0.642397	-0.522294
O124	O	1.335357	-0.142397	-0.022294
H125	H	0.861254	-0.695585	-0.485700
H126	H	1.361254	-0.195585	0.014300
H127	H	0.560821	-0.382127	-0.216330
H128	H	1.060821	0.117873	0.283670
H129	H	0.848354	-0.624592	-0.888861
H130	H	1.348354	-0.124592	-0.388861
O131	O	0.677025	-0.642651	-0.363101
O132	O	1.177025	-0.142651	0.136899
H133	H	0.733038	-0.631407	-0.356760
H134	H	1.233038	-0.131407	0.143240
H135	H	0.848379	-0.624544	-1.017111
H136	H	1.348379	-0.124544	-0.517111
O137	O	0.993208	-0.883883	-0.341309
O138	O	1.493208	-0.383883	0.158691
H139	H	1.044643	-0.904724	-0.328054
H140	H	1.544643	-0.404724	0.171946
O141	O	0.321267	-0.642687	-0.363145
O142	O	0.821267	-0.142687	0.136855
H143	H	0.280997	-0.689219	-0.389375
H144	H	0.780997	-0.189219	0.110625
H145	H	1.025410	-0.382062	-0.908891
H146	H	1.525410	0.117938	-0.408891
H147	H	1.025432	-0.381997	-1.037130
H148	H	1.525432	0.118003	-0.537130
H149	H	0.689058	-0.382102	-0.216321
H150	H	1.189058	0.117898	0.283679
H151	H	1.025352	-0.382146	-0.681357
H152	H	1.525352	0.117854	-0.181357
H153	H	1.025322	-0.382198	-0.553108
H154	H	1.525322	0.117802	-0.053108
O155	O	0.835394	-0.642335	-0.669221
O156	O	1.335394	-0.142335	-0.169221
H157	H	0.801450	-0.688811	-0.628929
H158	H	1.301450	-0.188811	-0.128929
H159	H	0.205050	-0.382156	-0.216395
H160	H	0.705050	0.117844	0.283605
O161	O	0.344081	-0.364450	-0.206409
O162	O	0.844081	0.135550	0.293591
H163	H	0.398251	-0.375678	-0.212739
H164	H	0.898251	0.124322	0.287261
H165	H	0.893072	-1.107684	-0.240959
H166	H	1.393072	-0.607684	0.259041
