data_functionalizedCrystal
_audit_creation_method	'MofGen! by Chris Wilmer'
_symmetry_space_group_name_H-M	'P1'
_symmetry_Int_Tables_number	1
_symmetry_cell_setting	triclinic
loop_
_symmetry_equiv_pos_as_xyz
  x,y,z
_cell_length_a	12.759400
_cell_length_b	12.759401
_cell_length_c	17.077395
_cell_angle_alpha	90.014061
_cell_angle_beta	89.975675
_cell_angle_gamma	89.989237
loop_
_atom_site_label
_atom_site_type_symbol
_atom_site_fract_x
_atom_site_fract_y
_atom_site_fract_z
Zn1	Zn	-0.418389	-1.606194	-0.443825
Zn2	Zn	-0.594086	-1.606106	-0.312566
Zn3	Zn	-0.418410	-1.430514	-0.312577
Zn4	Zn	-0.594015	-1.430484	-0.443793
O5	O	-0.506225	-1.518325	-0.378190
O6	O	-0.441717	-1.753203	-0.426422
O7	O	-0.570820	-1.582790	-0.202720
O8	O	-0.271386	-1.453867	-0.330005
O9	O	-0.570801	-1.753139	-0.329987
O10	O	-0.271371	-1.582938	-0.426433
O11	O	-0.441752	-1.453783	-0.202729
O12	O	-0.441683	-1.283489	-0.329974
O13	O	-0.570679	-1.453817	-0.553644
O14	O	-0.570699	-1.283467	-0.426378
O15	O	-0.441648	-1.582910	-0.553668
O16	O	-0.741098	-1.582761	-0.329956
O17	O	-0.741045	-1.453732	-0.426368
C18	C	-0.506186	-1.245357	-0.378174
C19	C	-0.506195	-1.128581	-0.378186
C20	C	-0.439105	-1.073745	-0.428477
C21	C	-0.439119	-0.964021	-0.428480
C22	C	-0.573323	-0.963978	-0.327899
C23	C	-0.573302	-1.073700	-0.327893
C24	C	-0.371998	-1.128626	-0.478770
C25	C	-0.304903	-1.073790	-0.529066
C26	C	-0.304918	-0.964066	-0.529069
C27	C	-0.372027	-0.909178	-0.478776
C28	C	-0.779192	-1.518262	-0.378174
C29	C	-0.895969	-1.518332	-0.378193
C30	C	-0.950823	-1.585592	-0.328047
C31	C	-1.060547	-1.585656	-0.328071
C32	C	-1.060553	-1.451192	-0.428390
C33	C	-0.950831	-1.451134	-0.428369
C34	C	-0.895961	-1.652790	-0.277871
C35	C	-0.950816	-1.720054	-0.227720
C36	C	-1.060540	-1.720119	-0.227744
C37	C	-1.115409	-1.652919	-0.277919
C38	C	-0.232192	-1.518416	-0.378224
C39	C	-0.115415	-1.518455	-0.378238
C40	C	-0.506154	-1.518370	-0.582935
C41	C	-0.506123	-1.518389	-0.670185
C42	C	-0.506252	-0.792358	-0.378202
C43	C	-0.506230	-0.909135	-0.378195
C44	C	-0.438794	-1.585724	-1.046013
C45	C	-0.438831	-1.585703	-0.964032
C46	C	-0.506024	-1.518476	-0.923034
C47	C	-0.573192	-1.451273	-0.964020
C48	C	-0.573160	-1.451300	-1.045999
C49	C	-0.573253	-1.451219	-0.793150
C50	C	-0.573284	-1.451189	-0.711165
C51	C	-0.438924	-1.585621	-0.711183
C52	C	-0.438892	-1.585648	-0.793162
C53	C	-0.506059	-1.518444	-0.834143
C54	C	-0.506220	-1.518340	-0.174243
C55	C	-0.505955	-1.518525	-0.086993
H56	H	-0.372011	-0.819833	-0.478766
H57	H	-1.204754	-1.652985	-0.277941
H58	H	-0.384232	-1.640339	-0.677813
H59	H	-0.384173	-1.640386	-0.826541
Br60	Br	-0.664394	-0.889487	-0.259650
Br61	Br	-1.135018	-1.359997	-0.496479
Br62	Br	-0.876379	-1.359856	-0.496430
Br63	Br	-0.664362	-1.148127	-0.259646
Br64	Br	-1.134983	-1.811416	-0.159693
Br65	Br	-0.747051	-1.653029	-0.278077
H66	H	-0.250260	-1.118488	-0.570008
Br67	Br	-0.371982	-1.277537	-0.478775
Br68	Br	-0.876354	-1.811263	-0.159639
H69	H	-0.627850	-1.396580	-1.079364
H70	H	-0.384071	-1.640462	-1.079388
Br71	Br	-0.347683	-1.676910	-0.908419
Br72	Br	-0.664480	-1.359956	-0.655524
Br73	Br	-0.664388	-1.360039	-0.908380
Br74	Br	-0.213853	-0.889648	-0.597317
Br75	Br	-0.664410	-1.360013	-0.848766
