data_functionalizedCrystal
_audit_creation_method	'MofGen! by Chris Wilmer'
_symmetry_space_group_name_H-M	'P1'
_symmetry_Int_Tables_number	1
_symmetry_cell_setting	triclinic
loop_
_symmetry_equiv_pos_as_xyz
  x,y,z
_cell_length_a	6.817900
_cell_length_b	11.168129
_cell_length_c	11.168144
_cell_angle_alpha	92.020086
_cell_angle_beta	108.508840
_cell_angle_gamma	108.508637
loop_
_atom_site_label
_atom_site_type_symbol
_atom_site_fract_x
_atom_site_fract_y
_atom_site_fract_z
V1	V	-4.109884	-0.174723	-0.393710
V2	V	-3.609884	0.325277	0.106290
O3	O	-4.069468	0.008378	-0.386204
O4	O	-3.569468	0.508378	0.113796
O5	O	-4.086173	-0.346428	-0.391028
O6	O	-3.586173	0.153572	0.108972
O7	O	-4.086175	-0.172043	-0.565416
O8	O	-3.586175	0.327957	-0.065416
O9	O	-4.069465	-0.167214	-0.210610
O10	O	-3.569465	0.332786	0.289390
V11	V	-4.587114	-0.152821	-0.371808
V12	V	-4.087114	0.347179	0.128192
O13	O	-4.384948	-0.222766	-0.441753
O14	O	-3.884948	0.277234	0.058247
O15	O	-4.762247	-0.104777	-0.323765
O16	O	-4.262247	0.395223	0.176235
O17	O	-4.387618	0.018885	-0.374490
O18	O	-3.887618	0.518885	0.125510
O19	O	-4.744927	-0.335921	-0.379314
O20	O	-4.244927	0.164079	0.120686
O21	O	-4.744929	-0.160329	-0.554909
O22	O	-4.244929	0.339671	-0.054909
O23	O	-4.387616	-0.155500	-0.200103
O24	O	-3.887616	0.344500	0.299897
C25	C	-3.936381	-0.388286	-0.384820
C26	C	-3.436381	0.111714	0.115180
C27	C	-3.998445	-0.528657	-0.383772
C28	C	-3.498445	-0.028657	0.116228
C29	C	-3.936382	-0.165839	-0.607267
C30	C	-3.436382	0.334161	-0.107267
C31	C	-3.998444	-0.164784	-0.747637
C32	C	-3.498444	0.335216	-0.247637
C33	C	-3.969302	-0.574098	-0.273411
C34	C	-3.469302	-0.074098	0.226589
C35	C	-4.033447	-0.719179	-0.272326
C36	C	-3.533447	-0.219179	0.227674
C37	C	-4.082929	-0.274207	-0.827365
C38	C	-3.582929	0.225793	-0.327365
C39	C	-4.147075	-0.273120	-0.972445
C40	C	-3.647075	0.226880	-0.472445
C41	C	-4.200753	0.060736	-0.380695
C42	C	-3.700753	0.560736	0.119305
C43	C	-4.117928	0.201106	-0.381751
C44	C	-3.617928	0.701106	0.118249
C45	C	-4.200751	-0.161709	-0.158245
C46	C	-3.700751	0.338291	0.341755
C47	C	-4.117926	-0.162757	-0.017873
C48	C	-3.617926	0.337243	0.482127
H49	H	-3.896874	-0.505594	-0.179732
H50	H	-3.396874	-0.005594	0.320268
H51	H	-4.045474	-0.069072	-0.949382
H52	H	-3.545474	0.430928	-0.449382
N53	N	-4.000606	-0.771032	-0.147171
N54	N	-3.500606	-0.271032	0.352829
H55	H	-3.897082	-0.820611	-0.137374
H56	H	-3.397082	-0.320611	0.362626
H57	H	-4.147417	-0.829273	-0.146086
H58	H	-3.647417	-0.329273	0.353914
H59	H	-4.142768	-0.759759	-0.476241
H60	H	-3.642768	-0.259759	0.023759
N61	N	-4.094427	-0.619397	-0.507863
N62	N	-3.594427	-0.119397	-0.007863
H63	H	-3.996149	-0.670551	-0.508255
H64	H	-3.496149	-0.170551	-0.008255
H65	H	-4.105080	-0.569061	-0.581598
H66	H	-3.605080	-0.069061	-0.081598
H67	H	-3.973615	-0.070299	-0.786787
H68	H	-3.473615	0.429701	-0.286787
N69	N	-4.115867	-0.399374	-0.775526
N70	N	-3.615867	0.100626	-0.275526
H71	H	-4.065380	-0.382409	-0.679233
H72	H	-3.565380	0.117591	-0.179233
H73	H	-4.027037	-0.445447	-0.802022
H74	H	-3.527037	0.054553	-0.302022
H75	H	-4.219499	-0.366799	-1.040943
H76	H	-3.719499	0.133201	-0.540943
