data_functionalizedCrystal
_audit_creation_method	'MofGen! by Chris Wilmer'
_symmetry_space_group_name_H-M	'P1'
_symmetry_Int_Tables_number	1
_symmetry_cell_setting	triclinic
loop_
_symmetry_equiv_pos_as_xyz
  x,y,z
_cell_length_a	13.897449
_cell_length_b	13.897448
_cell_length_c	13.897441
_cell_angle_alpha	89.969401
_cell_angle_beta	89.973931
_cell_angle_gamma	90.017620
loop_
_atom_site_label
_atom_site_type_symbol
_atom_site_fract_x
_atom_site_fract_y
_atom_site_fract_z
Zn1	Zn	-1.474703	0.383986	0.545519
Zn2	Zn	-1.141369	0.717319	0.878852
Zn3	Zn	-0.808036	1.050653	1.212185
Zn4	Zn	-1.474597	0.545308	0.384220
Zn5	Zn	-1.141263	0.878641	0.717553
Zn6	Zn	-0.807930	1.211974	1.050887
Zn7	Zn	-1.313392	0.384028	0.384222
Zn8	Zn	-0.980058	0.717361	0.717555
Zn9	Zn	-0.646725	1.050695	1.050889
Zn10	Zn	-1.313374	0.545240	0.545457
Zn11	Zn	-0.980040	0.878574	0.878791
Zn12	Zn	-0.646707	1.211907	1.212124
O13	O	-1.394016	0.464641	0.464854
O14	O	-1.060683	0.797974	0.798188
O15	O	-0.727349	1.131307	1.131521
O16	O	-1.609670	0.405396	0.524147
O17	O	-1.276337	0.738729	0.857480
O18	O	-0.943004	1.072063	1.190813
O19	O	-1.453176	0.523959	0.249238
O20	O	-1.119842	0.857293	0.582572
O21	O	-0.786509	1.190626	0.915905
O22	O	-1.334842	0.249041	0.405645
O23	O	-1.001509	0.582374	0.738978
O24	O	-0.668175	0.915707	1.072311
O25	O	-1.609592	0.523918	0.405641
O26	O	-1.276259	0.857252	0.738975
O27	O	-0.942926	1.190585	1.072308
O28	O	-1.453356	0.249010	0.524149
O29	O	-1.120023	0.582343	0.857482
O30	O	-0.786690	0.915677	1.190815
O31	O	-1.334739	0.405468	0.249240
O32	O	-1.001406	0.738801	0.582573
O33	O	-0.668073	1.072135	0.915907
O34	O	-1.178408	0.405403	0.405585
O35	O	-0.845074	0.738736	0.738919
O36	O	-0.511741	1.072069	1.072252
O37	O	-1.334811	0.523804	0.680447
O38	O	-1.001478	0.857137	1.013781
O39	O	-0.668144	1.190471	1.347114
O40	O	-1.178394	0.523845	0.524045
O41	O	-0.845061	0.857178	0.857378
O42	O	-0.511728	1.190511	1.190711
O43	O	-1.453339	0.405331	0.680492
O44	O	-1.120005	0.738664	1.013825
O45	O	-0.786672	1.071998	1.347159
O46	O	-1.453158	0.680280	0.405582
O47	O	-1.119825	1.013614	0.738915
O48	O	-0.786491	1.346947	1.072249
O49	O	-1.334708	0.680231	0.524043
O50	O	-1.001375	1.013564	0.857376
O51	O	-0.668041	1.346898	1.190709
C52	C	-1.143402	0.464622	0.464809
C53	C	-0.810068	0.797955	0.798142
C54	C	-0.476735	1.131288	1.131476
C55	C	-1.036188	0.464637	0.464813
C56	C	-0.702855	0.797970	0.798146
C57	C	-0.369521	1.131304	1.131479
C58	C	-0.949118	0.464639	0.464825
C59	C	-0.615785	0.797972	0.798158
C60	C	-0.282451	1.131305	1.131491
C61	C	-0.839886	0.464644	0.464849
C62	C	-0.506552	0.797977	0.798182
C63	C	-0.173219	1.131311	1.131516
C64	C	-1.393946	0.715255	0.464827
C65	C	-1.060612	1.048588	0.798160
C66	C	-0.727279	1.381922	1.131493
C67	C	-1.394004	0.822469	0.464847
C68	C	-1.060671	1.155802	0.798180
C69	C	-0.727337	1.489135	1.131513
C70	C	-1.394085	0.464555	0.716448
C71	C	-1.060751	0.797889	1.049781
C72	C	-0.727418	1.131222	1.383114
C73	C	-1.394114	0.464519	0.823662
C74	C	-1.060780	0.797852	1.156995
C75	C	-0.727447	1.131186	1.490328
C76	C	-0.645609	0.464656	0.464889
C77	C	-0.312276	0.797989	0.798222
C78	C	0.021058	1.131323	1.131555
C79	C	-0.752823	0.464653	0.464873
C80	C	-0.419490	0.797986	0.798207
C81	C	-0.086156	1.131319	1.131540
C82	C	-1.394113	0.213048	0.464904
C83	C	-1.060780	0.546381	0.798237
C84	C	-0.727446	0.879714	1.131570
C85	C	-1.394154	0.105834	0.464925
C86	C	-1.060821	0.439167	0.798258
C87	C	-0.727488	0.772500	1.131591
C88	C	-1.394105	1.018764	0.464907
C89	C	-1.060772	1.352097	0.798241
C90	C	-0.727439	1.685430	1.131574
C91	C	-1.394046	0.909531	0.464877
C92	C	-1.060713	1.242865	0.798210
C93	C	-0.727379	1.576198	1.131543
C94	C	-1.394004	0.464656	0.214240
C95	C	-1.060670	0.797989	0.547573
C96	C	-0.727337	1.131322	0.880907
C97	C	-1.394161	0.464420	0.107027
C98	C	-1.060828	0.797754	0.440360
C99	C	-0.727495	1.131087	0.773693
C100	C	-1.394140	0.464454	1.019957
C101	C	-1.060807	0.797787	1.353290
C102	C	-0.727473	1.131120	1.686624
C103	C	-1.394122	0.464493	0.910724
C104	C	-1.060789	0.797826	1.244058
C105	C	-0.727456	1.131159	1.577391
