data_functionalizedCrystal
_audit_creation_method	'MofGen! by Chris Wilmer'
_symmetry_space_group_name_H-M	'P1'
_symmetry_Int_Tables_number	1
_symmetry_cell_setting	triclinic
loop_
_symmetry_equiv_pos_as_xyz
  x,y,z
_cell_length_a	18.101398
_cell_length_b	19.121063
_cell_length_c	18.101389
_cell_angle_alpha	92.419391
_cell_angle_beta	89.975673
_cell_angle_gamma	92.464489
loop_
_atom_site_label
_atom_site_type_symbol
_atom_site_fract_x
_atom_site_fract_y
_atom_site_fract_z
Zn1	Zn	1.119554	-0.279777	-0.431404
Zn2	Zn	1.452887	0.053556	-0.098071
Zn3	Zn	1.786221	0.386889	0.235263
Zn4	Zn	1.114175	-0.397213	-0.312837
Zn5	Zn	1.447508	-0.063880	0.020497
Zn6	Zn	1.780841	0.269454	0.353830
Zn7	Zn	0.995713	-0.279770	-0.307565
Zn8	Zn	1.329047	0.053563	0.025769
Zn9	Zn	1.662380	0.386897	0.359102
Zn10	Zn	0.990390	-0.397183	-0.436624
Zn11	Zn	1.323723	-0.063850	-0.103291
Zn12	Zn	1.657057	0.269484	0.230043
O13	O	1.054958	-0.338486	-0.372107
O14	O	1.388291	-0.005153	-0.038774
O15	O	1.721625	0.328181	0.294559
O16	O	1.222473	-0.295371	-0.415698
O17	O	1.555806	0.037962	-0.082364
O18	O	1.889139	0.371296	0.250969
O19	O	1.098437	-0.381644	-0.208505
O20	O	1.431771	-0.048310	0.124828
O21	O	1.765104	0.285023	0.458162
O22	O	1.016620	-0.181486	-0.319601
O23	O	1.349953	0.151847	0.013732
O24	O	1.683287	0.485181	0.347065
O25	O	1.218521	-0.381651	-0.328587
O26	O	1.551854	-0.048317	0.004747
O27	O	1.885187	0.285016	0.338080
O28	O	1.107605	-0.181491	-0.410586
O29	O	1.440938	0.151842	-0.077252
O30	O	1.774272	0.485175	0.256081
O31	O	1.011404	-0.295359	-0.204632
O32	O	1.344737	0.037975	0.128702
O33	O	1.678071	0.371308	0.462035
O34	O	0.891375	-0.295330	-0.324663
O35	O	1.224708	0.038004	0.008670
O36	O	1.558042	0.371337	0.342004
O37	O	1.007547	-0.381599	-0.539564
O38	O	1.340881	-0.048266	-0.206231
O39	O	1.674214	0.285067	0.127103
O40	O	0.887464	-0.381592	-0.419482
O41	O	1.220797	-0.048259	-0.086149
O42	O	1.554131	0.285074	0.247184
O43	O	1.102443	-0.295342	-0.535729
O44	O	1.435777	0.037991	-0.202396
O45	O	1.769110	0.371325	0.130938
O46	O	1.093276	-0.495494	-0.333648
O47	O	1.426609	-0.162161	-0.000315
O48	O	1.759942	0.171172	0.333019
O49	O	1.002331	-0.495472	-0.424594
O50	O	1.335665	-0.162139	-0.091261
O51	O	1.668998	0.171195	0.242073
C52	C	0.862549	-0.338457	-0.372067
C53	C	1.195882	-0.005124	-0.038734
C54	C	1.529215	0.328209	0.294599
C55	C	0.780234	-0.338462	-0.372069
C56	C	1.113568	-0.005129	-0.038735
C57	C	1.446901	0.328205	0.294598
C58	C	0.481141	-0.338506	-0.372133
C59	C	0.814475	-0.005173	-0.038800
C60	C	1.147808	0.328161	0.294534
C61	C	0.514915	-0.283961	-0.312742
C62	C	0.848248	0.049373	0.020591
C63	C	1.181581	0.382706	0.353924
C64	C	0.600526	-0.284107	-0.312506
C65	C	0.933860	0.049226	0.020828
C66	C	1.267193	0.382560	0.354161
C67	C	0.629525	-0.338484	-0.372101
C68	C	0.962858	-0.005150	-0.038768
C69	C	1.296192	0.328183	0.294566
C70	C	0.595084	-0.412466	-0.354099
C71	C	0.928417	-0.079133	-0.020766
C72	C	1.261750	0.254201	0.312568
C73	C	0.509452	-0.412163	-0.353690
C74	C	0.842786	-0.078830	-0.020356
C75	C	1.176119	0.254504	0.312977
C76	C	0.513600	-0.319712	-0.449688
C77	C	0.846934	0.013621	-0.116355
C78	C	1.180267	0.346954	0.216978
C79	C	0.599325	-0.318065	-0.449186
C80	C	0.932658	0.015269	-0.115853
C81	C	1.265992	0.348602	0.217480
C82	C	0.713385	-0.338476	-0.372084
C83	C	1.046718	-0.005142	-0.038751
C84	C	1.380052	0.328191	0.294582
C85	C	0.397281	-0.338519	-0.372148
C86	C	0.730615	-0.005186	-0.038814
C87	C	1.063948	0.328148	0.294519
C88	C	1.046662	-0.520967	-0.380276
C89	C	1.379996	-0.187634	-0.046942
C90	C	1.713329	0.145699	0.286391
C91	C	1.043181	-0.599034	-0.383795
C92	C	1.376514	-0.265700	-0.050462
C93	C	1.709848	0.067633	0.282872
C94	C	1.088932	-0.635698	-0.338137
C95	C	1.422265	-0.302364	-0.004804
C96	C	1.755599	0.030969	0.328530
C97	C	1.085662	-0.709049	-0.341451
C98	C	1.418996	-0.375716	-0.008118
C99	C	1.752329	-0.042382	0.325215
C100	C	1.036637	-0.745735	-0.390420
C101	C	1.369971	-0.412402	-0.057087
C102	C	1.703304	-0.079069	0.276246
C103	C	0.990884	-0.709066	-0.436083
C104	C	1.324218	-0.375733	-0.102750
C105	C	1.657551	-0.042400	0.230583
C106	C	0.994158	-0.635716	-0.432772
C107	C	1.327492	-0.302383	-0.099439
C108	C	1.660825	0.030951	0.233894
C109	C	1.024385	-0.967206	-0.402788
C110	C	1.357718	-0.633873	-0.069454
C111	C	1.691052	-0.300540	0.263879
C112	C	1.021113	-1.040562	-0.406094
C113	C	1.354446	-0.707228	-0.072760
C114	C	1.687779	-0.373895	0.260573
C115	C	1.115892	-1.040539	-0.311462
C116	C	1.449226	-0.707206	0.021871
C117	C	1.782559	-0.373873	0.355205
C118	C	1.119159	-0.967188	-0.308152
C119	C	1.452492	-0.633854	0.025181
C120	C	1.785825	-0.300521	0.358514
C121	C	1.073408	-0.930525	-0.353818
C122	C	1.406742	-0.597192	-0.020485
C123	C	1.740075	-0.263858	0.312849
C124	C	1.033292	-0.820713	-0.393807
C125	C	1.366626	-0.487379	-0.060474
C126	C	1.699959	-0.154046	0.272859
C127	C	1.076758	-0.855549	-0.350434
C128	C	1.410091	-0.522216	-0.017101
C129	C	1.743424	-0.188883	0.316233
C130	C	1.248119	-0.338515	-0.372148
C131	C	1.581452	-0.005182	-0.038815
C132	C	1.914785	0.328152	0.294519
C133	C	1.330432	-0.338528	-0.372165
C134	C	1.663765	-0.005194	-0.038832
C135	C	1.997099	0.328139	0.294502
C136	C	1.055002	-0.338468	-0.565269
C137	C	1.388335	-0.005135	-0.231935
C138	C	1.721668	0.328198	0.101398
C139	C	1.055020	-0.338461	-0.647582
C140	C	1.388353	-0.005127	-0.314249
C141	C	1.721687	0.328206	0.019084
C142	C	1.063306	-0.155292	-0.363923
C143	C	1.396640	0.178041	-0.030590
C144	C	1.729973	0.511375	0.302743
C145	C	1.066864	-0.077226	-0.360436
C146	C	1.400197	0.256108	-0.027102
C147	C	1.733531	0.589441	0.306231
C148	C	1.055069	-0.338329	-0.946668
C149	C	1.388403	-0.004996	-0.613334
C150	C	1.721736	0.328338	-0.280001
C151	C	0.995174	-0.392427	-0.917747
C152	C	1.328507	-0.059094	-0.584414
C153	C	1.661840	0.274239	-0.251081
C154	C	0.995318	-0.392678	-0.832140
C155	C	1.328651	-0.059345	-0.498807
C156	C	1.661984	0.273988	-0.165474
C157	C	1.055044	-0.338394	-0.798288
C158	C	1.388378	-0.005061	-0.464955
C159	C	1.721711	0.328272	-0.131621
C160	C	1.132167	-0.358491	-0.830296
C161	C	1.465500	-0.025158	-0.496963
C162	C	1.798834	0.308175	-0.163630
C163	C	1.131831	-0.358846	-0.915957
C164	C	1.465164	-0.025513	-0.582624
C165	C	1.798497	0.307820	-0.249290
C166	C	1.038526	-0.264013	-0.911754
C167	C	1.371859	0.069320	-0.578421
C168	C	1.705193	0.402653	-0.245088
C169	C	1.036771	-0.264443	-0.826122
C170	C	1.370104	0.068891	-0.492789
C171	C	1.703437	0.402224	-0.159456
C172	C	1.055035	-0.338430	-0.714430
C173	C	1.388368	-0.005097	-0.381097
C174	C	1.721702	0.328237	-0.047763
C175	C	1.055084	-0.338295	-1.030526
C176	C	1.388417	-0.004962	-0.697192
C177	C	1.721750	0.328372	-0.363859
C178	C	1.054959	-0.338453	-0.179695
C179	C	1.388293	-0.005120	0.153638
C180	C	1.721626	0.328214	0.486971
C181	C	1.055093	-0.338263	-0.097373
C182	C	1.388427	-0.004929	0.235960
C183	C	1.721760	0.328404	0.569294
H184	H	0.624031	-0.229245	-0.323408
H185	H	0.957365	0.104088	0.009925
H186	H	1.290698	0.437421	0.343258
N187	N	0.485382	-0.300031	-0.237015
N188	N	0.818716	0.033303	0.096319
N189	N	1.152049	0.366636	0.429652
H190	H	0.450251	-0.342512	-0.241007
H191	H	0.783585	-0.009179	0.092326
H192	H	1.116918	0.324154	0.425660
H193	H	0.527792	-0.309688	-0.203209
H194	H	0.861125	0.023645	0.130124
H195	H	1.194459	0.356978	0.463458
N196	N	1.172046	-0.927620	-0.255347
N197	N	1.505380	-0.594287	0.077987
N198	N	1.838713	-0.260953	0.411320
H199	H	1.200539	-0.961978	-0.226929
H200	H	1.533872	-0.628644	0.106404
H201	H	1.867206	-0.295311	0.439738
H202	H	1.207655	-0.897153	-0.284164
H203	H	1.540988	-0.563820	0.049169
H204	H	1.874322	-0.230487	0.382503
H205	H	0.496816	-0.228932	-0.323490
H206	H	0.830150	0.104402	0.009843
H207	H	1.163483	0.437735	0.343176
N208	N	0.626880	-0.300561	-0.236293
N209	N	0.960214	0.032772	0.097040
N210	N	1.293547	0.366105	0.430374
H211	H	0.605857	-0.348137	-0.222882
H212	H	0.939191	-0.014804	0.110452
H213	H	1.272524	0.318530	0.443785
H214	H	0.682667	-0.300684	-0.235869
H215	H	1.016001	0.032649	0.097464
H216	H	1.349334	0.365983	0.430797
N217	N	0.622464	-0.433951	-0.279960
N218	N	0.955798	-0.100618	0.053373
N219	N	1.289131	0.232715	0.386707
H220	H	0.649524	-0.478892	-0.286560
H221	H	0.982857	-0.145559	0.046774
H222	H	1.316190	0.187775	0.380107
H223	H	0.657140	-0.395834	-0.257968
H224	H	0.990473	-0.062501	0.075365
H225	H	1.323806	0.270832	0.408699
N226	N	0.625476	-0.366855	-0.510592
N227	N	0.958809	-0.033521	-0.177259
N228	N	1.292143	0.299812	0.156075
H229	H	0.681295	-0.364398	-0.512316
H230	H	1.014628	-0.031065	-0.178983
H231	H	1.347961	0.302268	0.154351
H232	H	0.607384	-0.416379	-0.501166
H233	H	0.940717	-0.083046	-0.167833
H234	H	1.274050	0.250288	0.165501
N235	N	0.484410	-0.372335	-0.508254
N236	N	0.817743	-0.039001	-0.174921
N237	N	1.151077	0.294332	0.158413
H238	H	0.450328	-0.408177	-0.484706
H239	H	0.783661	-0.074844	-0.151372
H240	H	1.116994	0.258490	0.181961
H241	H	0.456287	-0.347388	-0.546692
H242	H	0.789620	-0.014054	-0.213359
H243	H	1.122954	0.319279	0.119974
N244	N	1.090691	-0.208212	-0.795280
N245	N	1.424024	0.125121	-0.461946
N246	N	1.757357	0.458455	-0.128613
H247	H	1.088175	-0.206492	-0.739495
H248	H	1.421508	0.126842	-0.406162
H249	H	1.754841	0.460175	-0.072828
H250	H	1.142428	-0.219176	-0.811631
H251	H	1.475761	0.114158	-0.478298
H252	H	1.809094	0.447491	-0.144965
H253	H	0.981200	-1.070430	-0.445983
H254	H	1.314533	-0.737096	-0.112650
H255	H	1.647866	-0.403763	0.220684
H256	H	1.122917	-0.738898	-0.304271
H257	H	1.456251	-0.405564	0.029062
H258	H	1.789584	-0.072231	0.362396
N259	N	1.192688	-0.307952	-0.801079
N260	N	1.526022	0.025382	-0.467746
N261	N	1.859355	0.358715	-0.134413
H262	H	1.217806	-0.284221	-0.843726
H263	H	1.551139	0.049113	-0.510393
H264	H	1.884473	0.382446	-0.177060
H265	H	1.170594	-0.271491	-0.766719
H266	H	1.503927	0.061843	-0.433385
H267	H	1.837261	0.395176	-0.100052
N268	N	0.481988	-0.433275	-0.278722
N269	N	0.815322	-0.099942	0.054611
N270	N	1.148655	0.233392	0.387945
H271	H	0.525512	-0.442690	-0.246251
H272	H	0.858845	-0.109356	0.087082
H273	H	1.192179	0.223977	0.420415
H274	H	0.453115	-0.394186	-0.255172
H275	H	0.786449	-0.060853	0.078162
H276	H	1.119782	0.272480	0.411495
N277	N	1.009141	-0.464949	-0.949506
N278	N	1.342474	-0.131616	-0.616173
N279	N	1.675807	0.201718	-0.282840
H280	H	0.964741	-0.483298	-0.979303
H281	H	1.298074	-0.149965	-0.645970
H282	H	1.631407	0.183368	-0.312636
H283	H	1.054114	-0.462848	-0.982510
H284	H	1.387447	-0.129514	-0.649176
H285	H	1.720780	0.203819	-0.315843
H286	H	0.494409	-0.266704	-0.466696
H287	H	0.827743	0.066629	-0.133362
H288	H	1.161076	0.399963	0.199971
H289	H	0.613574	-0.454195	-0.396148
H290	H	0.946907	-0.120861	-0.062815
H291	H	1.280241	0.212472	0.270518
H292	H	0.486843	-0.454179	-0.395241
H293	H	0.820176	-0.120846	-0.061908
H294	H	1.153510	0.212488	0.271425
N295	N	1.151686	-0.429689	-0.805103
N296	N	1.485019	-0.096356	-0.471770
N297	N	1.818353	0.236978	-0.138437
H298	H	1.199266	-0.425274	-0.775827
H299	H	1.532599	-0.091941	-0.442493
H300	H	1.865933	0.241393	-0.109160
H301	H	1.110645	-0.448988	-0.772996
H302	H	1.443978	-0.115655	-0.439663
H303	H	1.777311	0.217678	-0.106330
H304	H	1.116677	-0.825677	-0.310566
H305	H	1.450010	-0.492344	0.022767
H306	H	1.783343	-0.159011	0.356100
H307	H	1.082192	-0.223708	-0.930220
H308	H	1.415525	0.109626	-0.596887
H309	H	1.748858	0.442959	-0.263553
H310	H	0.983441	-0.245705	-0.932518
H311	H	1.316775	0.087629	-0.599185
H312	H	1.650108	0.420962	-0.265851
N313	N	0.944804	-0.596170	-0.482011
N314	N	1.278137	-0.262837	-0.148677
N315	N	1.611471	0.070496	0.184656
H316	H	0.954317	-0.544137	-0.472484
H317	H	1.287650	-0.210804	-0.139150
H318	H	1.620984	0.122530	0.194183
H319	H	0.955726	-0.608956	-0.535491
H320	H	1.289060	-0.275623	-0.202157
H321	H	1.622393	0.057710	0.131176
H322	H	0.993375	-0.850591	-0.433677
H323	H	1.326708	-0.517257	-0.100343
H324	H	1.660041	-0.183924	0.232990
H325	H	0.987132	-0.937361	-0.439969
H326	H	1.320465	-0.604028	-0.106636
H327	H	1.653798	-0.270695	0.226697
N328	N	0.938009	-0.748631	-0.488904
N329	N	1.271342	-0.415298	-0.155570
N330	N	1.604675	-0.081964	0.177763
H331	H	0.942874	-0.800662	-0.484072
H332	H	1.276207	-0.467329	-0.150738
H333	H	1.609541	-0.133995	0.182595
H334	H	0.885696	-0.735850	-0.476746
H335	H	1.219030	-0.402517	-0.143412
H336	H	1.552363	-0.069183	0.189921
N337	N	0.629500	-0.245946	-0.467249
N338	N	0.962833	0.087387	-0.133916
N339	N	1.296166	0.420721	0.199417
H340	H	0.662597	-0.226576	-0.425679
H341	H	0.995930	0.106757	-0.092346
H342	H	1.329263	0.440090	0.240988
H343	H	0.658885	-0.249058	-0.514628
H344	H	0.992218	0.084275	-0.181295
H345	H	1.325552	0.417609	0.152039
N346	N	1.141807	-0.596131	-0.285317
N347	N	1.475140	-0.262798	0.048016
N348	N	1.808474	0.070536	0.381349
H349	H	1.170295	-0.630491	-0.256898
H350	H	1.503628	-0.297158	0.076435
H351	H	1.836962	0.036176	0.409768
H352	H	1.177420	-0.565659	-0.314123
H353	H	1.510754	-0.232326	0.019210
H354	H	1.844087	0.101008	0.352544
H355	H	1.153140	-1.070398	-0.274285
H356	H	1.486474	-0.737065	0.059049
H357	H	1.819807	-0.403731	0.392382
N358	N	0.961617	-0.244359	-0.798289
N359	N	1.294950	0.088975	-0.464956
N360	N	1.628283	0.422308	-0.131622
H361	H	0.939494	-0.282996	-0.767775
H362	H	1.272827	0.050337	-0.434441
H363	H	1.606160	0.383670	-0.101108
H364	H	0.966881	-0.199560	-0.766775
H365	H	1.300214	0.133773	-0.433442
H366	H	1.633548	0.467107	-0.100108
N367	N	1.009469	-0.465634	-0.808280
N368	N	1.342803	-0.132300	-0.474946
N369	N	1.676136	0.201033	-0.141613
H370	H	1.009621	-0.466101	-0.752506
H371	H	1.342955	-0.132767	-0.419173
H372	H	1.676288	0.200566	-0.085840
H373	H	0.969269	-0.499348	-0.828580
H374	H	1.302602	-0.166015	-0.495247
H375	H	1.635936	0.167318	-0.161913
N376	N	1.150923	-0.430804	-0.945667
N377	N	1.484256	-0.097471	-0.612334
N378	N	1.817590	0.235863	-0.279000
H379	H	1.159477	-0.461995	-0.903105
H380	H	1.492810	-0.128662	-0.569771
H381	H	1.826144	0.204671	-0.236438
H382	H	1.108795	-0.451530	-0.977217
H383	H	1.442128	-0.118197	-0.643884
H384	H	1.775461	0.215137	-0.310550
H385	H	0.938024	-0.380101	-0.810543
H386	H	1.271357	-0.046768	-0.477210
H387	H	1.604690	0.286565	-0.143876
H388	H	1.177791	-0.321154	-0.935005
H389	H	1.511125	0.012179	-0.601671
H390	H	1.844458	0.345512	-0.268338
N391	N	0.919036	-0.375932	-0.944253
N392	N	1.252369	-0.042599	-0.610919
N393	N	1.585703	0.290734	-0.277586
H394	H	0.922627	-0.333234	-0.975268
H395	H	1.255960	0.000099	-0.641935
H396	H	1.589294	0.333433	-0.308601
H397	H	0.897428	-0.417157	-0.974962
H398	H	1.230762	-0.083823	-0.641629
H399	H	1.564095	0.249510	-0.308296
