data_functionalizedCrystal
_audit_creation_method	'MofGen! by Chris Wilmer'
_symmetry_space_group_name_H-M	'P1'
_symmetry_Int_Tables_number	1
_symmetry_cell_setting	triclinic
loop_
_symmetry_equiv_pos_as_xyz
  x,y,z
_cell_length_a	15.944551
_cell_length_b	10.654550
_cell_length_c	9.130313
_cell_angle_alpha	89.995737
_cell_angle_beta	90.006399
_cell_angle_gamma	96.008180
loop_
_atom_site_label
_atom_site_type_symbol
_atom_site_fract_x
_atom_site_fract_y
_atom_site_fract_z
O1	O	0.117978	-1.666308	0.121923
O2	O	0.129218	-1.300684	0.121900
O3	O	0.001381	-1.493480	0.121899
O4	O	0.245815	-1.473511	0.121924
O5	O	0.001374	-1.493478	-0.121700
O6	O	0.129211	-1.300681	-0.121699
O7	O	0.117971	-1.666305	-0.121676
Cu8	Cu	0.123590	-1.483493	-0.143930
Cu9	Cu	0.123598	-1.483496	0.144154
O10	O	0.245808	-1.473509	-0.121675
C11	C	0.128389	-1.253895	0.000098
C12	C	0.125920	-1.114484	0.000088
C13	C	-0.029921	-1.492650	0.000099
C14	C	-0.123182	-1.490165	0.000098
N15	N	0.123598	-1.483499	0.346777
C16	C	-0.338765	-1.364720	0.000111
C17	C	-0.399448	-1.422971	-0.119995
C18	C	-0.293934	-1.485668	0.000109
C19	C	-0.399425	-1.423002	0.120175
C20	C	-0.458872	-1.481317	0.000126
C21	C	-0.353389	-1.543953	-0.120095
C22	C	-0.353359	-1.543967	0.120182
C23	C	-0.414024	-1.602306	0.000048
C24	C	-0.198917	-1.488172	0.000098
C25	C	-0.553887	-1.478822	0.000127
C26	C	0.277110	-1.474339	0.000128
C27	C	0.370371	-1.476824	0.000139
C28	C	0.118800	-1.713094	0.000130
C29	C	0.121269	-1.852505	0.000149
C30	C	0.201188	-1.034024	0.000117
C31	C	0.198863	-0.903034	0.000142
C32	C	0.045995	-0.932975	0.000116
C33	C	0.048321	-1.063963	0.000080
C34	C	0.278788	-1.084545	0.000126
C35	C	0.354062	-1.004084	0.000156
C36	C	0.351737	-0.873094	0.000182
C37	C	0.274137	-0.822564	0.000176
N38	N	0.123584	-1.483500	-0.346552
C39	C	0.067103	-1.569027	0.423428
C40	C	0.067098	-1.569031	0.576765
C41	C	0.180085	-1.397968	0.576785
C42	C	0.180094	-1.397971	0.423451
C43	C	0.010607	-1.654555	0.346754
C44	C	-0.045893	-1.740089	0.423406
C45	C	-0.045898	-1.740093	0.576742
C46	C	0.010597	-1.654563	0.653428
H47	H	-0.306038	-1.264327	-0.000016
C48	C	-0.427025	-1.353873	-0.257171
H49	H	-0.464376	-1.409852	-0.313718
H50	H	-0.454891	-1.283292	-0.228308
H51	H	-0.378813	-1.325858	-0.314131
H52	H	-0.333105	-1.595065	-0.221746
H53	H	-0.091897	-1.809746	0.639151
C54	C	0.242218	-1.303887	0.661135
H55	H	0.234116	-1.316128	0.763434
H56	H	0.298393	-1.317361	0.636032
H57	H	0.232462	-1.220118	0.635992
C58	C	0.439417	-1.059656	0.000158
H59	H	0.483911	-0.992973	0.000164
H60	H	0.443503	-1.110151	0.085096
H61	H	0.443500	-1.110113	-0.084812
C62	C	0.271576	-0.678477	0.000193
H63	H	0.214583	-0.659911	0.000181
H64	H	0.299282	-0.643329	0.085146
H65	H	0.299275	-0.643305	-0.084761
H66	H	0.226098	-1.328327	0.361041
C67	C	-0.325751	-1.613013	0.257364
H68	H	-0.341341	-1.569918	0.342622
H69	H	-0.352561	-1.696940	0.258234
H70	H	-0.266308	-1.614748	0.255886
C71	C	-0.458043	-1.738038	-0.000034
H72	H	-0.442285	-1.780792	-0.085427
H73	H	-0.441566	-1.781321	0.084479
H74	H	-0.517441	-1.735731	0.000763
C75	C	-0.039356	-0.877394	0.000130
H76	H	-0.029961	-0.787858	0.000171
H77	H	-0.070387	-0.904985	-0.084824
H78	H	-0.070373	-0.905035	0.085083
C79	C	-0.426954	-1.353877	0.257345
H80	H	-0.400925	-1.269487	0.257182
H81	H	-0.486500	-1.353461	0.256843
H82	H	-0.410399	-1.396025	0.342637
H83	H	0.280689	-1.191203	0.000112
C84	C	-0.034472	-1.152473	0.000068
H85	H	-0.081021	-1.103627	0.000094
H86	H	-0.036748	-1.204178	-0.084889
H87	H	-0.036733	-1.204208	0.085018
C88	C	0.010611	-1.654544	0.178089
H89	H	0.052344	-1.591350	0.143419
H90	H	0.022702	-1.734753	0.143398
H91	H	-0.043217	-1.637493	0.143397
C92	C	-0.108031	-1.834164	0.339059
H93	H	-0.099943	-1.821907	0.236760
H94	H	-0.098285	-1.917931	0.364195
H95	H	-0.164206	-1.820675	0.364174
H96	H	0.413029	-0.807585	0.000192
C97	C	0.010598	-1.654569	0.822095
H98	H	0.052336	-1.591385	0.856782
H99	H	-0.043228	-1.637541	0.856770
H100	H	0.022702	-1.734785	0.856786
