data_functionalizedCrystal
_audit_creation_method	'MofGen! by Chris Wilmer'
_symmetry_space_group_name_H-M	'P1'
_symmetry_Int_Tables_number	1
_symmetry_cell_setting	triclinic
loop_
_symmetry_equiv_pos_as_xyz
  x,y,z
_cell_length_a	14.853567
_cell_length_b	13.330367
_cell_length_c	14.853559
_cell_angle_alpha	89.997552
_cell_angle_beta	83.633192
_cell_angle_gamma	89.994807
loop_
_atom_site_label
_atom_site_type_symbol
_atom_site_fract_x
_atom_site_fract_y
_atom_site_fract_z
O1	O	1.196365	-0.083364	0.117704
O2	O	1.696365	0.416636	0.617704
O3	O	0.933905	-0.083377	0.131725
O4	O	1.433905	0.416623	0.631725
O5	O	1.072150	-0.083369	-0.006515
O6	O	1.572150	0.416631	0.493485
O7	O	1.058121	-0.083372	0.255945
O8	O	1.558121	0.416628	0.755945
O9	O	1.072130	0.083478	-0.006519
O10	O	1.572130	0.583478	0.493481
O11	O	0.933885	0.083470	0.131722
O12	O	1.433885	0.583470	0.631722
O13	O	1.196345	0.083484	0.117701
O14	O	1.696345	0.583484	0.617701
Cu15	Cu	1.065113	0.098711	0.124711
Cu16	Cu	1.565113	0.598711	0.624711
Cu17	Cu	1.065137	-0.098605	0.124715
Cu18	Cu	1.565137	0.401395	0.624715
O19	O	1.058100	0.083475	0.255942
O20	O	1.558100	0.583475	0.755942
C21	C	0.900307	0.000045	0.131089
C22	C	1.400307	0.500045	0.631089
C23	C	0.800223	0.000039	0.129185
C24	C	1.300223	0.500039	0.629185
C25	C	1.071506	0.000053	-0.040106
C26	C	1.571506	0.500053	0.459894
C27	C	1.069605	0.000047	-0.140190
C28	C	1.569605	0.500047	0.359810
N29	N	1.065103	0.237493	0.124708
N30	N	1.565103	0.737493	0.624708
C31	C	1.229944	0.000060	0.118338
C32	C	1.729944	0.500060	0.618338
C33	C	1.330027	0.000058	0.120242
C34	C	1.830027	0.500058	0.620242
C35	C	1.742559	0.000040	0.210408
C36	C	2.242559	0.500040	0.710408
C37	C	1.763845	0.000042	0.046174
C38	C	2.263845	0.500042	0.546174
C39	C	1.669811	0.000047	0.044384
C40	C	2.169811	0.500047	0.544384
C41	C	1.612147	0.000048	0.125607
C42	C	2.112147	0.500048	0.625607
C43	C	1.648516	0.000042	0.208620
C44	C	2.148516	0.500042	0.708620
C45	C	1.633434	0.000043	-0.038627
C46	C	2.133434	0.500043	0.461373
C47	C	1.539395	0.000047	-0.040421
C48	C	2.039395	0.500047	0.459579
C49	C	1.481729	0.000054	0.040803
C50	C	1.981729	0.500054	0.540803
C51	C	1.518104	0.000050	0.123819
C52	C	2.018104	0.500050	0.623819
C53	C	1.460440	0.000050	0.205042
C54	C	1.960440	0.500050	0.705042
C55	C	1.496812	0.000053	0.288060
C56	C	1.996812	0.500053	0.788060
C57	C	1.590850	0.000050	0.289844
C58	C	2.090850	0.500050	0.789844
C59	C	1.387692	0.000058	0.039019
C60	C	1.887692	0.500058	0.539019
C61	C	1.366397	0.000053	0.203255
C62	C	1.866397	0.500053	0.703255
N63	N	1.065154	-0.237386	0.124711
N64	N	1.565154	0.262614	0.624711
C65	C	1.003920	0.710112	0.185904
C66	C	1.503920	1.210112	0.685904
C67	C	1.126379	0.710087	0.063519
C68	C	1.626379	1.210087	0.563519
C69	C	1.126369	0.605069	0.063516
C70	C	1.626369	1.105069	0.563516
C71	C	1.065134	0.552567	0.124709
C72	C	1.565134	1.052567	0.624709
C73	C	1.003909	0.605084	0.185905
C74	C	1.503909	1.105084	0.685905
C75	C	1.187598	0.552544	0.002328
C76	C	1.687598	1.052544	0.502328
C77	C	1.187591	0.447520	0.002323
C78	C	1.687591	0.947520	0.502323
C79	C	1.126351	0.395016	0.063513
C80	C	1.626351	0.895016	0.563513
C81	C	1.065124	0.447539	0.124710
C82	C	1.565124	0.947539	0.624710
C83	C	1.003889	0.395038	0.185903
C84	C	1.503889	0.895038	0.685903
C85	C	0.942656	0.447559	0.247097
C86	C	1.442656	0.947559	0.747097
C87	C	0.942670	0.552580	0.247094
C88	C	1.442670	1.052580	0.747094
C89	C	1.126338	0.289994	0.063515
C90	C	1.626338	0.789994	0.563515
C91	C	1.003879	0.290009	0.185904
C92	C	1.503879	0.790009	0.685904
C93	C	1.061552	-0.090902	-0.563363
C94	C	1.561552	0.409098	-0.063363
C95	C	1.061530	0.091001	-0.563361
C96	C	1.561530	0.591001	-0.063361
C97	C	1.063323	0.091002	-0.469328
C98	C	1.563323	0.591002	0.030672
C99	C	1.064230	0.000050	-0.422308
C100	C	1.564230	0.500050	0.077692
C101	C	1.063343	-0.090904	-0.469321
C102	C	1.563343	0.409096	0.030679
C103	C	1.064201	0.181954	-0.422307
C104	C	1.564201	0.681954	0.077693
C105	C	1.065994	0.181959	-0.328268
C106	C	1.565994	0.681959	0.171732
C107	C	1.066907	0.091005	-0.281247
C108	C	1.566907	0.591005	0.218753
C109	C	1.066021	0.000048	-0.328266
C110	C	1.566021	0.500048	0.171734
C111	C	1.066927	-0.090905	-0.281245
C112	C	1.566927	0.409095	0.218755
C113	C	1.066047	-0.181863	-0.328264
C114	C	1.566047	0.318137	0.171736
C115	C	1.064256	-0.181857	-0.422300
C116	C	1.564256	0.318143	0.077700
C117	C	1.068698	0.091000	-0.187210
C118	C	1.568698	0.591000	0.312790
C119	C	1.068718	-0.090906	-0.187203
C120	C	1.568718	0.409094	0.312797
C121	C	1.058745	0.000052	0.289532
C122	C	1.558745	0.500052	0.789532
C123	C	1.060646	0.000051	0.389616
C124	C	1.560646	0.500051	0.889616
H125	H	1.319452	0.000059	0.269397
H126	H	1.819452	0.500059	0.769397
H127	H	1.066779	-0.255916	-0.289967
H128	H	1.566779	0.244084	0.210033
O129	O	1.434607	0.000057	0.375659
O130	O	1.934607	0.500057	0.875659
H131	H	1.447546	-0.067948	0.415383
H132	H	1.947546	0.432052	0.915383
H133	H	1.620473	0.000050	0.357432
H134	H	2.120473	0.500050	0.857432
O135	O	1.060592	-0.189005	-0.614065
O136	O	1.560592	0.310995	-0.114065
H137	H	1.121171	-0.193359	-0.664873
H138	H	1.621171	0.306641	-0.164873
H139	H	1.772178	0.000046	0.277998
H140	H	2.272178	0.500046	0.777998
O141	O	1.069648	0.189095	-0.136502
O142	O	1.569648	0.689095	0.363498
H143	H	1.071043	0.173815	-0.063212
H144	H	1.571043	0.673815	0.436788
O145	O	1.253641	0.609174	-0.063665
O146	O	1.753641	1.109174	0.436335
H147	H	1.296223	0.555012	-0.106209
H148	H	1.796223	1.055012	0.393791
O149	O	1.253620	0.390872	-0.063684
O150	O	1.753620	0.890872	0.436316
H151	H	1.296196	0.445025	-0.106240
H152	H	1.796196	0.945025	0.393760
H153	H	1.810800	0.000035	-0.019954
H154	H	2.310800	0.500035	0.480046
O155	O	1.069686	-0.189010	-0.136492
O156	O	1.569686	0.310990	0.363508
H157	H	1.130742	-0.232624	-0.162502
H158	H	1.630742	0.267376	0.337498
H159	H	1.060786	0.165051	-0.601650
H160	H	1.560786	0.665051	-0.101650
H161	H	1.063458	0.256003	-0.460597
H162	H	1.563458	0.756003	0.039403
H163	H	1.358081	0.000049	-0.028573
H164	H	1.858081	0.500049	0.471427
O165	O	1.063292	-0.279957	-0.473007
O166	O	1.563292	0.220043	0.026993
H167	H	1.061880	-0.264673	-0.546294
H168	H	1.561880	0.235327	-0.046294
O169	O	0.937831	0.233375	0.251899
O170	O	1.437831	0.733375	0.751899
H171	H	0.949399	0.253517	0.322205
H172	H	1.449399	0.753517	0.822205
O173	O	1.695624	0.000053	-0.126229
O174	O	2.195624	0.500053	0.373771
H175	H	1.767124	0.000068	-0.111037
H176	H	2.267124	0.500068	0.388963
O177	O	1.192369	0.233343	-0.002480
O178	O	1.692369	0.733343	0.497520
H179	H	1.234949	0.287494	-0.045032
H180	H	1.734949	0.787494	0.454968
H181	H	1.176239	0.752837	0.013702
H182	H	1.676239	1.252837	0.513702
O183	O	1.066962	0.280056	-0.277559
O184	O	1.566962	0.780056	0.222441
H185	H	1.066040	0.343300	-0.326056
H186	H	1.566040	0.843300	0.173944
H187	H	0.892802	0.404800	0.296925
H188	H	1.392802	0.904800	0.796925
O189	O	1.500164	0.000065	-0.129954
O190	O	2.000164	0.500065	0.370046
H191	H	1.556062	0.000074	-0.186132
H192	H	2.056062	0.500074	0.313868
H193	H	0.892817	0.595350	0.296917
H194	H	1.392817	1.095350	0.796917
H195	H	0.954062	0.752877	0.235725
H196	H	1.454062	1.252877	0.735725
