data_functionalizedCrystal
_audit_creation_method	'MofGen! by Chris Wilmer'
_symmetry_space_group_name_H-M	'P1'
_symmetry_Int_Tables_number	1
_symmetry_cell_setting	triclinic
loop_
_symmetry_equiv_pos_as_xyz
  x,y,z
_cell_length_a	17.019282
_cell_length_b	17.038272
_cell_length_c	16.098687
_cell_angle_alpha	92.928906
_cell_angle_beta	83.405193
_cell_angle_gamma	87.241387
loop_
_atom_site_label
_atom_site_type_symbol
_atom_site_fract_x
_atom_site_fract_y
_atom_site_fract_z
O1	O	1.053662	0.099226	-0.006336
O2	O	1.553662	0.599226	0.493664
O3	O	0.824068	0.112770	0.010137
O4	O	1.324068	0.612770	0.510137
O5	O	0.937501	-0.007811	0.001992
O6	O	1.437501	0.492189	0.501992
O7	O	0.940229	0.219808	0.001809
O8	O	1.440229	0.719808	0.501809
O9	O	0.944091	-0.014831	-0.136992
O10	O	1.444091	0.485169	0.363008
O11	O	0.830658	0.105751	-0.128846
O12	O	1.330658	0.605751	0.371154
O13	O	1.060253	0.092206	-0.145320
O14	O	1.560253	0.592206	0.354680
Zn15	Zn	0.946502	0.097864	-0.159149
Zn16	Zn	1.446502	0.597864	0.340851
Zn17	Zn	0.937819	0.107113	0.023967
Zn18	Zn	1.437819	0.607113	0.523967
O19	O	0.946819	0.212788	-0.137174
O20	O	1.446819	0.712788	0.362826
C21	C	0.797841	0.108887	-0.057236
C22	C	1.297841	0.608887	0.442764
C23	C	0.709874	0.107766	-0.050925
C24	C	1.209874	0.607766	0.449075
C25	C	0.672144	0.103411	-0.123721
C26	C	1.172144	0.603411	0.376279
C27	C	0.589491	0.102345	-0.117794
C28	C	1.089491	0.602345	0.382206
C29	C	0.544569	0.105640	-0.039068
C30	C	1.044569	0.605640	0.460932
C31	C	0.582304	0.109993	0.033734
C32	C	1.082304	0.609993	0.533734
C33	C	0.664956	0.111053	0.027805
C34	C	1.164956	0.611053	0.527805
C35	C	0.294833	0.102624	-0.017377
C36	C	0.794833	0.602624	0.482623
C37	C	0.212176	0.101566	-0.011454
C38	C	0.712176	0.601566	0.488546
C39	C	0.219368	0.093916	-0.162982
C40	C	0.719368	0.593916	0.337018
C41	C	0.302021	0.094982	-0.168904
C42	C	0.802021	0.594982	0.331096
C43	C	0.339750	0.099331	-0.096102
C44	C	0.839750	0.599331	0.403898
C45	C	0.460084	0.104553	-0.033007
C46	C	0.960084	0.604553	0.466993
C47	C	0.424234	0.100412	-0.102164
C48	C	0.924234	0.600412	0.397836
C49	C	0.938314	-0.040438	-0.067322
C50	C	1.438314	0.459562	0.432678
C51	C	0.930908	-0.127198	-0.066790
C52	C	1.430908	0.372802	0.433210
C53	C	0.998900	-0.177620	-0.071670
C54	C	1.498900	0.322380	0.428330
C55	C	0.991936	-0.259138	-0.071162
C56	C	1.491936	0.240862	0.428838
C57	C	0.916981	-0.290234	-0.065781
C58	C	1.416981	0.209766	0.434219
C59	C	0.848984	-0.239805	-0.060899
C60	C	1.348984	0.260195	0.439101
C61	C	0.855948	-0.158287	-0.061401
C62	C	1.355948	0.341713	0.438599
C63	C	0.892379	-0.535879	-0.064004
C64	C	1.392379	-0.035879	0.435996
C65	C	0.885420	-0.617403	-0.063506
C66	C	1.385420	-0.117403	0.436494
C67	C	1.028373	-0.636731	-0.073767
C68	C	1.528373	-0.136731	0.426233
C69	C	1.035331	-0.555212	-0.074274
C70	C	1.535331	-0.055212	0.425726
C71	C	0.967333	-0.504790	-0.069387
C72	C	1.467333	-0.004790	0.430613
C73	C	0.909861	-0.373559	-0.065265
C74	C	1.409861	0.126441	0.434735
C75	C	0.974453	-0.421466	-0.069897
C76	C	1.474453	0.078534	0.430103
C77	C	1.086479	0.096089	-0.077944
C78	C	1.586479	0.596089	0.422056
C79	C	1.174446	0.097211	-0.084250
C80	C	1.674446	0.597211	0.415750
C81	C	0.946006	0.245415	-0.067859
C82	C	1.446006	0.745415	0.432141
C83	C	0.953412	0.332174	-0.068385
C84	C	1.453412	0.832174	0.431615
N85	N	0.952433	0.091551	-0.284122
N86	N	1.452433	0.591551	0.215878
C87	C	0.980049	0.062258	-0.810912
C88	C	1.480049	0.562258	-0.310912
C89	C	0.975882	0.066684	-0.723426
C90	C	1.475882	0.566684	-0.223426
C91	C	0.923553	0.122267	-0.676090
C92	C	1.423553	0.622267	-0.176090
C93	C	0.875395	0.173433	-0.716244
C94	C	1.375395	0.673433	-0.216244
C95	C	0.879567	0.169011	-0.803729
C96	C	1.379567	0.669011	-0.303729
C97	C	0.908447	0.138295	-0.411762
C98	C	1.408447	0.638295	0.088238
C99	C	0.904277	0.142712	-0.324271
C100	C	1.404277	0.642712	0.175729
C101	C	1.004765	0.035963	-0.331458
C102	C	1.504765	0.535963	0.168542
C103	C	1.008929	0.031542	-0.418945
C104	C	1.508929	0.531542	0.081055
C105	C	0.960774	0.082711	-0.459092
C106	C	1.460774	0.582711	0.040908
C107	C	0.919290	0.126791	-0.586664
C108	C	1.419290	0.626791	-0.086664
C109	C	0.965041	0.078191	-0.548516
C110	C	1.465041	0.578191	-0.048516
N111	N	0.931893	0.113419	0.148939
N112	N	1.431893	0.613419	0.648939
H113	H	0.695674	0.114601	0.087084
H114	H	1.195674	0.614601	0.587084
H115	H	0.423499	0.107235	0.031091
H116	H	0.923499	0.607235	0.531091
H117	H	0.876682	0.172047	-0.548116
H118	H	1.376682	0.672047	-0.048116
H119	H	0.837010	-0.494835	-0.060026
H120	H	1.337010	0.005165	0.439974
H121	H	0.460813	0.097726	-0.166261
H122	H	0.960813	0.597726	0.333739
Br123	Br	1.051064	-0.013186	-0.875145
Br124	Br	1.551064	0.486814	-0.375145
H125	H	1.015095	0.025026	-0.690738
H126	H	1.515095	0.525026	-0.190738
H127	H	1.059937	-0.152309	-0.076056
H128	H	1.559937	0.347691	0.423944
H129	H	0.787953	-0.265128	-0.056512
H130	H	1.287953	0.234872	0.443488
H131	H	1.051539	-0.013718	-0.457485
H132	H	1.551539	0.486282	0.042515
Br133	Br	1.084215	-0.327566	-0.077784
Br134	Br	1.584215	0.172434	0.422216
Br135	Br	0.538288	0.096447	-0.216594
Br136	Br	1.038288	0.596447	0.283406
Br137	Br	0.362981	0.090519	-0.275749
Br138	Br	0.862981	0.590519	0.224251
H139	H	0.848832	-0.398885	-0.060886
H140	H	1.348832	0.101115	0.439114
Br141	Br	1.070118	-0.033475	-0.276970
Br142	Br	1.570118	0.466525	0.223030
Br143	Br	1.036062	0.002763	-0.612759
Br144	Br	1.536062	0.502763	-0.112759
Br145	Br	1.137058	-0.513016	-0.081550
Br146	Br	1.637058	-0.013016	0.418450
H147	H	1.083732	-0.677793	-0.077744
H148	H	1.583732	-0.177793	0.422256
H149	H	0.861661	0.187977	-0.285733
H150	H	1.361661	0.687977	0.214267
H151	H	0.188641	0.090374	-0.222253
H152	H	0.688641	0.590374	0.277747
Br153	Br	0.804382	0.248875	-0.652006
Br154	Br	1.304382	0.748875	-0.152006
Br155	Br	0.151209	0.106043	0.095395
Br156	Br	0.651209	0.606043	0.595395
Br157	Br	0.521341	0.114430	0.140577
Br158	Br	1.021341	0.614430	0.640577
Br159	Br	0.733102	0.098947	-0.230568
Br160	Br	1.233102	0.598947	0.269432
Br161	Br	0.783688	-0.659603	-0.056211
Br162	Br	1.283688	-0.159603	0.443789
H163	H	0.869235	0.179957	-0.444443
H164	H	1.369235	0.679957	0.055557
H165	H	0.840353	0.210672	-0.836417
H166	H	1.340353	0.710672	-0.336417
H167	H	0.325542	0.106163	0.041904
H168	H	0.825542	0.606163	0.541904
H169	H	0.800581	-0.117234	-0.057427
H170	H	1.300581	0.382766	0.442573
H171	H	1.035481	-0.396144	-0.074260
H172	H	1.535481	0.103856	0.425740
