data_functionalizedCrystal
_audit_creation_method	'MofGen! by Chris Wilmer'
_symmetry_space_group_name_H-M	'P1'
_symmetry_Int_Tables_number	1
_symmetry_cell_setting	triclinic
loop_
_symmetry_equiv_pos_as_xyz
  x,y,z
_cell_length_a	18.050589
_cell_length_b	18.050591
_cell_length_c	17.077396
_cell_angle_alpha	89.971318
_cell_angle_beta	90.024642
_cell_angle_gamma	89.978696
loop_
_atom_site_label
_atom_site_type_symbol
_atom_site_fract_x
_atom_site_fract_y
_atom_site_fract_z
Zn1	Zn	-0.295796	-1.135327	0.444056
Zn2	Zn	-0.045796	-0.885327	0.694056
Zn3	Zn	0.204204	-0.635327	0.944056
Zn4	Zn	0.454204	-0.385327	1.194056
Zn5	Zn	-0.419994	-1.135227	0.312799
Zn6	Zn	-0.169994	-0.885227	0.562799
Zn7	Zn	0.080006	-0.635227	0.812799
Zn8	Zn	0.330006	-0.385227	1.062799
Zn9	Zn	-0.295807	-1.011136	0.312783
Zn10	Zn	-0.045807	-0.761136	0.562783
Zn11	Zn	0.204193	-0.511136	0.812783
Zn12	Zn	0.454193	-0.261136	1.062783
Zn13	Zn	-0.419934	-1.011094	0.444001
Zn14	Zn	-0.169934	-0.761094	0.694001
Zn15	Zn	0.080066	-0.511094	0.944001
Zn16	Zn	0.330066	-0.261094	1.194001
O17	O	-0.357883	-1.073196	0.378410
O18	O	-0.107883	-0.823196	0.628410
O19	O	0.142117	-0.573196	0.878410
O20	O	0.392117	-0.323196	1.128410
O21	O	-0.312292	-1.239238	0.426674
O22	O	-0.062292	-0.989238	0.676674
O23	O	0.187708	-0.739238	0.926674
O24	O	0.437708	-0.489238	1.176674
O25	O	-0.403549	-1.118742	0.202950
O26	O	-0.153549	-0.868742	0.452950
O27	O	0.096451	-0.618742	0.702950
O28	O	0.346451	-0.368742	0.952950
O29	O	-0.191881	-1.027669	0.330213
O30	O	0.058119	-0.777669	0.580213
O31	O	0.308119	-0.527669	0.830213
O32	O	0.558119	-0.277669	1.080213
O33	O	-0.403539	-1.239165	0.330240
O34	O	-0.153539	-0.989165	0.580240
O35	O	0.096461	-0.739165	0.830240
O36	O	0.346461	-0.489165	1.080240
O37	O	-0.191873	-1.118912	0.426658
O38	O	0.058127	-0.868912	0.676658
O39	O	0.308127	-0.618912	0.926658
O40	O	0.558127	-0.368912	1.176658
O41	O	-0.312310	-1.027573	0.202938
O42	O	-0.062310	-0.777573	0.452938
O43	O	0.187690	-0.527573	0.702938
O44	O	0.437690	-0.277573	0.952938
O45	O	-0.312252	-0.907206	0.330160
O46	O	-0.062252	-0.657206	0.580160
O47	O	0.187748	-0.407206	0.830160
O48	O	0.437748	-0.157206	1.080160
O49	O	-0.403438	-1.027598	0.553855
O50	O	-0.153438	-0.777598	0.803855
O51	O	0.096562	-0.527598	1.053855
O52	O	0.346562	-0.277598	1.303855
O53	O	-0.403448	-0.907175	0.426565
O54	O	-0.153448	-0.657175	0.676565
O55	O	0.096552	-0.407175	0.926565
O56	O	0.346552	-0.157175	1.176565
O57	O	-0.312234	-1.118871	0.553896
O58	O	-0.062234	-0.868871	0.803896
O59	O	0.187766	-0.618871	1.053896
O60	O	0.437766	-0.368871	1.303896
O61	O	-0.523910	-1.118702	0.330187
O62	O	-0.273910	-0.868702	0.580187
O63	O	-0.023910	-0.618702	0.830187
O64	O	0.226090	-0.368702	1.080187
O65	O	-0.523867	-1.027502	0.426581
O66	O	-0.273867	-0.777502	0.676581
O67	O	-0.023867	-0.527502	0.926581
O68	O	0.226133	-0.277502	1.176581
C69	C	-0.357845	-0.880244	0.378355
C70	C	-0.107845	-0.630244	0.628355
C71	C	0.142155	-0.380244	0.878355
C72	C	0.392155	-0.130244	1.128355
C73	C	-0.357847	-0.797698	0.378351
C74	C	-0.107847	-0.547698	0.628351
C75	C	0.142153	-0.297698	0.878351
C76	C	0.392153	-0.047698	1.128351
C77	C	-0.308187	-0.598243	0.326035
C78	C	-0.058187	-0.348243	0.576035
C79	C	0.191813	-0.098243	0.826035
C80	C	0.441813	0.151757	1.076035
C81	C	-0.375923	-0.548822	0.306720
C82	C	-0.125923	-0.298822	0.556720
C83	C	0.124077	-0.048822	0.806720
C84	C	0.374077	0.201178	1.056720
C85	C	-0.357862	-0.646568	0.378378
C86	C	-0.107862	-0.396568	0.628378
C87	C	0.142138	-0.146568	0.878378
C88	C	0.392138	0.103432	1.128378
C89	C	-0.290143	-0.548907	0.397682
C90	C	-0.040143	-0.298907	0.647682
C91	C	0.209857	-0.048907	0.897682
C92	C	0.459857	0.201093	1.147682
C93	C	-0.357870	-0.500583	0.378402
C94	C	-0.107870	-0.250583	0.628402
C95	C	0.142130	-0.000583	0.878402
C96	C	0.392130	0.249417	1.128402
C97	C	-0.425633	-0.598234	0.359025
C98	C	-0.175633	-0.348234	0.609025
C99	C	0.074367	-0.098234	0.859025
C100	C	0.324367	0.151766	1.109025
C101	C	-0.339807	-0.598324	0.450021
C102	C	-0.089807	-0.348324	0.700021
C103	C	0.160193	-0.098324	0.950021
C104	C	0.410193	0.151676	1.200021
C105	C	-0.407589	-0.548925	0.430733
C106	C	-0.157589	-0.298925	0.680733
C107	C	0.092411	-0.048925	0.930733
C108	C	0.342411	0.201075	1.180733
C109	C	-0.357856	-0.730666	0.378361
C110	C	-0.107856	-0.480666	0.628361
C111	C	0.142144	-0.230666	0.878361
C112	C	0.392144	0.019334	1.128361
C113	C	-0.357884	-0.416486	0.378418
C114	C	-0.107884	-0.166486	0.628418
C115	C	0.142116	0.083514	0.878418
C116	C	0.392116	0.333514	1.128418
C117	C	-0.550835	-1.073106	0.378397
C118	C	-0.300835	-0.823106	0.628397
C119	C	-0.050835	-0.573106	0.878397
C120	C	0.199165	-0.323106	1.128397
C121	C	-0.633381	-1.073136	0.378417
C122	C	-0.383381	-0.823136	0.628417
C123	C	-0.133381	-0.573136	0.878417
C124	C	0.116619	-0.323136	1.128417
C125	C	-0.832835	-1.023590	0.430818
C126	C	-0.582835	-0.773590	0.680818
C127	C	-0.332835	-0.523590	0.930818
C128	C	-0.082835	-0.273590	1.180818
C129	C	-0.882274	-1.005487	0.359186
C130	C	-0.632274	-0.755487	0.609186
C131	C	-0.382274	-0.505487	0.859186
C132	C	-0.132274	-0.255487	1.109186
C133	C	-0.784511	-1.073209	0.378428
C134	C	-0.534511	-0.823209	0.628428
C135	C	-0.284511	-0.573209	0.878428
C136	C	-0.034511	-0.323209	1.128428
C137	C	-0.882153	-1.091349	0.450068
C138	C	-0.632153	-0.841349	0.700068
C139	C	-0.382153	-0.591349	0.950068
C140	C	-0.132153	-0.341349	1.200068
C141	C	-0.930496	-1.073278	0.378444
C142	C	-0.680496	-0.823278	0.628444
C143	C	-0.430496	-0.573278	0.878444
C144	C	-0.180496	-0.323278	1.128444
C145	C	-0.832863	-1.055070	0.306757
C146	C	-0.582863	-0.805070	0.556757
C147	C	-0.332863	-0.555070	0.806757
C148	C	-0.082863	-0.305070	1.056757
C149	C	-0.832738	-1.140964	0.397688
C150	C	-0.582738	-0.890964	0.647688
C151	C	-0.332738	-0.640964	0.897688
C152	C	-0.082738	-0.390964	1.147688
C153	C	-0.882155	-1.122886	0.326006
C154	C	-0.632155	-0.872886	0.576006
C155	C	-0.382155	-0.622886	0.826006
C156	C	-0.132155	-0.372886	1.076006
C157	C	-0.700413	-1.073167	0.378419
C158	C	-0.450413	-0.823167	0.628419
C159	C	-0.200413	-0.573167	0.878419
C160	C	0.049587	-0.323167	1.128419
C161	C	-1.014593	-1.073320	0.378444
C162	C	-0.764593	-0.823320	0.628444
C163	C	-0.514593	-0.573320	0.878444
C164	C	-0.264593	-0.323320	1.128444
C165	C	-0.164177	-1.073306	0.378440
C166	C	0.085823	-0.823306	0.628440
C167	C	0.335823	-0.573306	0.878440
C168	C	0.585823	-0.323306	1.128440
C169	C	-0.081631	-1.073353	0.378453
C170	C	0.168369	-0.823353	0.628453
C171	C	0.418369	-0.573353	0.878453
C172	C	0.668369	-0.323353	1.128453
C173	C	-0.357828	-1.073241	0.583154
C174	C	-0.107828	-0.823241	0.833154
C175	C	0.142172	-0.573241	1.083154
C176	C	0.392172	-0.323241	1.333154
C177	C	-0.357805	-1.073260	0.670404
C178	C	-0.107805	-0.823260	0.920404
C179	C	0.142195	-0.573260	1.170404
C180	C	0.392195	-0.323260	1.420404
C181	C	-0.357908	-0.266902	0.378450
C182	C	-0.107908	-0.016902	0.628450
C183	C	0.142092	0.233098	0.878450
C184	C	0.392092	0.483098	1.128450
C185	C	-0.357886	-0.349447	0.378431
C186	C	-0.107886	-0.099447	0.628431
C187	C	0.142114	0.150553	0.878431
C188	C	0.392114	0.400553	1.128431
C189	C	-0.357884	-1.073194	0.174462
C190	C	-0.107884	-0.823194	0.424462
C191	C	0.142116	-0.573194	0.674462
C192	C	0.392116	-0.323194	0.924462
C193	C	-0.357698	-1.073319	0.087212
C194	C	-0.107698	-0.823319	0.337212
C195	C	0.142302	-0.573319	0.587212
C196	C	0.392302	-0.323319	0.837212
C197	C	-0.310311	-1.120788	0.711416
C198	C	-0.060311	-0.870788	0.961416
C199	C	0.189689	-0.620788	1.211416
C200	C	0.439689	-0.370788	1.461416
C201	C	-0.310286	-1.120797	0.793397
C202	C	-0.060286	-0.870797	1.043397
C203	C	0.189714	-0.620797	1.293397
C204	C	0.439714	-0.370797	1.543397
C205	C	-0.357760	-1.073281	0.834363
C206	C	-0.107760	-0.823281	1.084363
C207	C	0.142240	-0.573281	1.334363
C208	C	0.392240	-0.323281	1.584363
C209	C	-0.405255	-1.025748	0.793345
C210	C	-0.155255	-0.775748	1.043345
C211	C	0.094745	-0.525748	1.293345
C212	C	0.344745	-0.275748	1.543345
C213	C	-0.405276	-1.025736	0.711366
C214	C	-0.155276	-0.775736	0.961366
C215	C	0.094724	-0.525736	1.211366
C216	C	0.344724	-0.275736	1.461366
C217	C	-0.405211	-1.025778	0.964215
C218	C	-0.155211	-0.775778	1.214215
C219	C	0.094789	-0.525778	1.464215
C220	C	0.344789	-0.275778	1.714215
C221	C	-0.405191	-1.025791	1.046200
C222	C	-0.155191	-0.775791	1.296200
C223	C	0.094809	-0.525791	1.546200
C224	C	0.344809	-0.275791	1.796200
C225	C	-0.310221	-1.120839	1.046246
C226	C	-0.060221	-0.870839	1.296246
C227	C	0.189779	-0.620839	1.546246
C228	C	0.439779	-0.370839	1.796246
C229	C	-0.310242	-1.120827	0.964267
C230	C	-0.060242	-0.870827	1.214267
C231	C	0.189758	-0.620827	1.464267
C232	C	0.439758	-0.370827	1.714267
C233	C	-0.357739	-1.073295	0.923254
C234	C	-0.107739	-0.823295	1.173254
C235	C	0.142261	-0.573295	1.423254
C236	C	0.392261	-0.323295	1.673254
H237	H	-0.266227	-0.619897	0.281726
H238	H	-0.016227	-0.369897	0.531726
H239	H	0.233773	-0.119897	0.781726
H240	H	0.483773	0.130103	1.031726
H241	H	-0.811178	-0.981567	0.475060
H242	H	-0.561178	-0.731567	0.725060
H243	H	-0.311178	-0.481567	0.975060
H244	H	-0.061178	-0.231567	1.225060
Br245	Br	-0.245885	-1.185283	0.655826
Br246	Br	0.004115	-0.935283	0.905826
Br247	Br	0.254115	-0.685283	1.155826
Br248	Br	0.504115	-0.435283	1.405826
H249	H	-0.904049	-0.948221	0.342910
H250	H	-0.654049	-0.698221	0.592910
H251	H	-0.404049	-0.448221	0.842910
H252	H	-0.154049	-0.198221	1.092910
Br253	Br	-0.796932	-1.029437	0.205758
Br254	Br	-0.546932	-0.779437	0.455758
Br255	Br	-0.296932	-0.529437	0.705758
Br256	Br	-0.046932	-0.279437	0.955758
Br257	Br	-0.469613	-0.961298	1.101798
Br258	Br	-0.219613	-0.711298	1.351798
Br259	Br	0.030387	-0.461298	1.601798
Br260	Br	0.280387	-0.211298	1.851798
H261	H	-0.271614	-1.159500	0.826785
H262	H	-0.021614	-0.909500	1.076785
H263	H	0.228386	-0.659500	1.326785
H264	H	0.478386	-0.409500	1.576785
Br265	Br	-0.469669	-0.961267	0.908556
Br266	Br	-0.219669	-0.711267	1.158556
Br267	Br	0.030331	-0.461267	1.408556
Br268	Br	0.280331	-0.211267	1.658556
Br269	Br	-0.918023	-1.192877	0.252093
Br270	Br	-0.668023	-0.942877	0.502093
Br271	Br	-0.418023	-0.692877	0.752093
Br272	Br	-0.168023	-0.442877	1.002093
Br273	Br	-0.401392	-0.512581	0.205756
Br274	Br	-0.151392	-0.262581	0.455756
Br275	Br	0.098608	-0.012581	0.705756
Br276	Br	0.348608	0.237419	0.955756
Br277	Br	-0.796446	-1.236390	0.424871
Br278	Br	-0.546446	-0.986390	0.674871
Br279	Br	-0.296446	-0.736390	0.924871
Br280	Br	-0.046446	-0.486390	1.174871
H281	H	-0.903805	-1.106664	0.510647
H282	H	-0.653805	-0.856664	0.760647
H283	H	-0.403805	-0.606664	1.010647
H284	H	-0.153805	-0.356664	1.260647
Br285	Br	-0.469680	-0.961257	0.848942
Br286	Br	-0.219680	-0.711257	1.098942
Br287	Br	0.030320	-0.461257	1.348942
Br288	Br	0.280320	-0.211257	1.598942
Br289	Br	-0.245820	-1.185319	0.908669
Br290	Br	0.004180	-0.935319	1.158669
Br291	Br	0.254180	-0.685319	1.408669
Br292	Br	0.504180	-0.435319	1.658669
H293	H	-0.482923	-0.619811	0.342641
H294	H	-0.232923	-0.369811	0.592641
H295	H	0.017077	-0.119811	0.842641
H296	H	0.267077	0.130189	1.092641
Br297	Br	-0.245764	-1.185350	1.101904
Br298	Br	0.004236	-0.935350	1.351904
Br299	Br	0.254236	-0.685350	1.601904
Br300	Br	0.504236	-0.435350	1.851904
Br301	Br	-0.469729	-0.961227	0.655705
Br302	Br	-0.219729	-0.711227	0.905705
Br303	Br	0.030271	-0.461227	1.155705
Br304	Br	0.280271	-0.211227	1.405705
H305	H	-0.324507	-0.620084	0.510580
H306	H	-0.074507	-0.370084	0.760580
H307	H	0.175493	-0.120084	1.010580
H308	H	0.425493	0.129916	1.260580
Br309	Br	-0.194687	-0.512784	0.424877
Br310	Br	0.055313	-0.262784	0.674877
Br311	Br	0.305313	-0.012784	0.924877
Br312	Br	0.555313	0.237216	1.174877
Br313	Br	-0.477688	-0.513057	0.504531
Br314	Br	-0.227688	-0.263057	0.754531
Br315	Br	0.022312	-0.013057	1.004531
Br316	Br	0.272312	0.236943	1.254531
