data_functionalizedCrystal
_audit_creation_method	'MofGen! by Chris Wilmer'
_symmetry_space_group_name_H-M	'P1'
_symmetry_Int_Tables_number	1
_symmetry_cell_setting	triclinic
loop_
_symmetry_equiv_pos_as_xyz
  x,y,z
_cell_length_a	14.519731
_cell_length_b	14.519731
_cell_length_c	8.140239
_cell_angle_alpha	89.995496
_cell_angle_beta	89.997185
_cell_angle_gamma	83.688853
loop_
_atom_site_label
_atom_site_type_symbol
_atom_site_fract_x
_atom_site_fract_y
_atom_site_fract_z
O1	O	1.223862	0.120982	-0.136621
O2	O	1.723862	0.620982	0.363379
O3	O	0.955389	0.135198	-0.136624
O4	O	1.455389	0.635198	0.363376
O5	O	1.096734	-0.006146	-0.136607
O6	O	1.596734	0.493854	0.363393
O7	O	1.082518	0.262327	-0.136637
O8	O	1.582518	0.762327	0.363363
O9	O	1.096726	-0.006148	0.136620
O10	O	1.596726	0.493852	0.636620
O11	O	0.955381	0.135196	0.136603
O12	O	1.455381	0.635196	0.636603
O13	O	1.223855	0.120981	0.136606
O14	O	1.723855	0.620981	0.636606
Zn15	Zn	1.089617	0.128088	0.179986
Zn16	Zn	1.589617	0.628088	0.679986
Zn17	Zn	1.089627	0.128090	-0.180003
Zn18	Zn	1.589627	0.628090	0.319997
O19	O	1.082510	0.262325	0.136590
O20	O	1.582510	0.762325	0.636590
C21	C	0.921026	0.134531	-0.000010
C22	C	1.421026	0.634531	0.499990
C23	C	0.818645	0.132535	-0.000011
C24	C	1.318645	0.632535	0.499989
C25	C	0.735501	0.130913	-0.000018
C26	C	1.235501	0.630913	0.499982
C27	C	0.631192	0.128887	-0.000018
C28	C	1.131192	0.628887	0.499982
C29	C	0.548053	0.127278	-0.000018
C30	C	1.048053	0.627278	0.499982
C31	C	0.443738	0.125252	-0.000021
C32	C	0.943738	0.625252	0.499979
C33	C	1.096064	-0.040507	0.000007
C34	C	1.596064	0.459493	0.500007
C35	C	1.094068	-0.142887	0.000008
C36	C	1.594068	0.357113	0.500008
C37	C	1.092446	-0.226031	0.000004
C38	C	1.592446	0.273969	0.500004
C39	C	1.090419	-0.330340	-0.000009
C40	C	1.590419	0.169660	0.499991
C41	C	1.088811	-0.413479	-0.000019
C42	C	1.588811	0.086521	0.499981
C43	C	1.086785	-0.517795	-0.000029
C44	C	1.586785	-0.017795	0.499971
C45	C	1.258218	0.121648	-0.000011
C46	C	1.758218	0.621648	0.499989
C47	C	1.360598	0.123643	-0.000021
C48	C	1.860598	0.623643	0.499979
C49	C	1.083180	0.296685	-0.000028
C50	C	1.583180	0.796685	0.499972
C51	C	1.085176	0.399066	-0.000039
C52	C	1.585176	0.899066	0.499961
N53	N	1.089617	0.128086	0.425668
N54	N	1.589617	0.628086	0.925668
N55	N	1.089635	0.128085	-0.425685
N56	N	1.589635	0.628085	0.074315
