data_functionalizedCrystal
_audit_creation_method	'MofGen! by Chris Wilmer'
_symmetry_space_group_name_H-M	'P1'
_symmetry_Int_Tables_number	1
_symmetry_cell_setting	triclinic
loop_
_symmetry_equiv_pos_as_xyz
  x,y,z
_cell_length_a	14.971482
_cell_length_b	14.971494
_cell_length_c	13.448316
_cell_angle_alpha	90.004885
_cell_angle_beta	90.006202
_cell_angle_gamma	83.615083
loop_
_atom_site_label
_atom_site_type_symbol
_atom_site_fract_x
_atom_site_fract_y
_atom_site_fract_z
O1	O	1.186953	0.116548	0.082675
O2	O	0.926553	0.130511	0.082679
O3	O	1.063728	-0.006670	0.082675
O4	O	1.049777	0.253729	0.082680
O5	O	1.063711	-0.006679	-0.082709
O6	O	0.926536	0.130502	-0.082704
O7	O	1.186936	0.116540	-0.082709
Cu8	Cu	1.056734	0.123520	-0.097807
Cu9	Cu	1.056754	0.123530	0.097778
O10	O	1.049760	0.253721	-0.082704
C11	C	0.893219	0.129883	-0.000012
C12	C	0.793922	0.128013	-0.000010
C13	C	0.747268	0.127128	-0.090162
C14	C	0.653969	0.125357	-0.090163
C15	C	0.607326	0.124478	-0.000011
C16	C	0.653987	0.125361	0.090148
C17	C	0.747284	0.127125	0.090148
C18	C	0.459525	0.121685	0.090141
C19	C	0.366220	0.119923	0.090141
C20	C	0.366210	0.119918	-0.090170
C21	C	0.459507	0.121682	-0.090169
C22	C	0.506162	0.122566	-0.000010
C23	C	1.063094	-0.039999	-0.000015
C24	C	1.061221	-0.139296	-0.000011
C25	C	1.220269	0.117168	-0.000015
C26	C	1.319566	0.119037	-0.000010
C27	C	1.060352	-0.185936	0.090141
C28	C	1.058586	-0.279235	0.090142
C29	C	1.057695	-0.325893	-0.000009
C30	C	1.058561	-0.279246	-0.090168
C31	C	1.060321	-0.185948	-0.090168
C32	C	1.054895	-0.473709	-0.090161
C33	C	1.053137	-0.567014	-0.090162
C34	C	1.053160	-0.566996	0.090149
C35	C	1.054920	-0.473698	0.090149
C36	C	1.055787	-0.427057	-0.000010
C37	C	1.050394	0.287050	-0.000012
C38	C	1.052268	0.386346	-0.000010
N39	N	1.056726	0.123513	-0.235372
C40	C	1.117486	0.062794	-0.287414
C41	C	1.117492	0.062793	-0.391517
C42	C	1.056741	0.123516	-0.443576
C43	C	0.995974	0.184238	-0.391527
C44	C	0.995965	0.184234	-0.287425
C45	C	0.995999	0.184244	-0.608507
C46	C	0.996009	0.184250	-0.712615
C47	C	1.117526	0.062804	-0.712599
C48	C	1.117517	0.062799	-0.608497
C49	C	1.056751	0.123522	-0.556455
N50	N	1.056769	0.123531	0.235342
H51	H	0.497508	0.122405	0.163558
H52	H	1.055582	-0.435735	-0.163579
H53	H	1.057882	-0.317205	0.163553
H54	H	1.057830	-0.317241	-0.163571
Cl55	Cl	0.518143	0.122797	-0.203505
H56	H	0.785269	0.127847	0.163558
Cl57	Cl	1.061478	-0.127290	0.203482
Cl58	Cl	0.919574	0.260566	-0.222001
H59	H	1.166989	0.013359	-0.566111
Cl60	Cl	1.056048	-0.415044	0.203484
Cl61	Cl	1.052062	-0.625628	0.203492
Cl62	Cl	1.193917	-0.013531	-0.778027
Cl63	Cl	0.307584	0.118815	0.203477
Cl64	Cl	0.919631	0.260589	-0.778053
H65	H	1.052403	-0.604999	-0.163571
H66	H	0.785238	0.127852	-0.163574
H67	H	0.946514	0.233688	-0.566137
H68	H	0.615990	0.124622	-0.163574
Cl69	Cl	1.061412	-0.127314	-0.203507
H70	H	0.616003	0.124638	0.163551
H71	H	1.166961	0.013350	-0.245034
Cl72	Cl	0.919596	0.260573	-0.456970
Cl73	Cl	0.307559	0.118807	-0.203512
Cl74	Cl	1.193877	-0.013541	-0.456944
