data_functionalizedCrystal
_audit_creation_method	'MofGen! by Chris Wilmer'
_symmetry_space_group_name_H-M	'P1'
_symmetry_Int_Tables_number	1
_symmetry_cell_setting	triclinic
loop_
_symmetry_equiv_pos_as_xyz
  x,y,z
_cell_length_a	21.395362
_cell_length_b	16.120484
_cell_length_c	21.395356
_cell_angle_alpha	92.871514
_cell_angle_beta	89.957023
_cell_angle_gamma	92.942400
loop_
_atom_site_label
_atom_site_type_symbol
_atom_site_fract_x
_atom_site_fract_y
_atom_site_fract_z
Zn1	Zn	0.945241	-0.331581	-0.367212
Zn2	Zn	0.939842	-0.471001	-0.267744
Zn3	Zn	0.840456	-0.331642	-0.262416
Zn4	Zn	0.835123	-0.470995	-0.372448
O5	O	0.890165	-0.401305	-0.317455
O6	O	1.032204	-0.350051	-0.354056
O7	O	0.926631	-0.452542	-0.179360
O8	O	0.858847	-0.214966	-0.271896
O9	O	1.028237	-0.452483	-0.280977
O10	O	0.935833	-0.214921	-0.348890
O11	O	0.853612	-0.350156	-0.175446
O12	O	0.752069	-0.350151	-0.276973
O13	O	0.849758	-0.452474	-0.459431
O14	O	0.748151	-0.452533	-0.357814
O15	O	0.930661	-0.350046	-0.455584
O16	O	0.921460	-0.587668	-0.286054
O17	O	0.844522	-0.587664	-0.362980
C18	C	0.727376	-0.401349	-0.317384
C19	C	0.657733	-0.401388	-0.317369
C20	C	0.622994	-0.454769	-0.359406
C21	C	0.557559	-0.454748	-0.359433
C22	C	0.526866	-0.401355	-0.317413
C23	C	0.561614	-0.347964	-0.275373
C24	C	0.627048	-0.347980	-0.275352
C25	C	0.423398	-0.394651	-0.260752
C26	C	0.357965	-0.394641	-0.260773
C27	C	0.325048	-0.401301	-0.317480
C28	C	0.357570	-0.407989	-0.374168
C29	C	0.423004	-0.408005	-0.374146
C30	C	0.455915	-0.401332	-0.317432
C31	C	0.219356	-0.454663	-0.359549
C32	C	0.153921	-0.454637	-0.359577
C33	C	0.157977	-0.347857	-0.275512
C34	C	0.223411	-0.347878	-0.275490
C35	C	0.254097	-0.401286	-0.317507
C36	C	0.881844	-0.617916	-0.325677
C37	C	0.878341	-0.710584	-0.329216
C38	C	0.871949	-0.880248	-0.335689
C39	C	0.908494	-0.921520	-0.299232
C40	C	0.904938	-1.015927	-0.302833
C41	C	0.875505	-0.785832	-0.332088
C42	C	1.053590	-0.401261	-0.317527
C43	C	1.123232	-0.401242	-0.317557
C44	C	0.890217	-0.401253	-0.480876
C45	C	0.890239	-0.401231	-0.550517
C46	C	0.898537	-0.183847	-0.309214
C47	C	0.902104	-0.091179	-0.305703
C48	C	0.852229	-0.347912	-0.581182
C49	C	0.852227	-0.347897	-0.646617
C50	C	0.890247	-0.401191	-0.681384
C51	C	0.928260	-0.454520	-0.650712
C52	C	0.928255	-0.454540	-0.585278
C53	C	0.946450	-0.407725	-0.785338
C54	C	0.946456	-0.407699	-0.850770
C55	C	0.890259	-0.401135	-0.883203
C56	C	0.834056	-0.394579	-0.850194
C57	C	0.834052	-0.394598	-0.784761
C58	C	0.890256	-0.401176	-0.752336
C59	C	0.852244	-0.347797	-0.984819
C60	C	0.852242	-0.347787	-1.050255
C61	C	0.928280	-0.454406	-1.054349
C62	C	0.928277	-0.454420	-0.988914
C63	C	0.890260	-0.401111	-0.954153
C64	C	0.890153	-0.401296	-0.154667
C65	C	0.890261	-0.401083	-0.085018
H66	H	0.331490	-0.389200	-0.214614
H67	H	0.132988	-0.304379	-0.241301
Cl68	Cl	0.804454	-0.280844	-0.685174
H69	H	0.837993	-0.915814	-0.369603
Cl70	Cl	0.804433	-0.280899	-0.537485
Cl71	Cl	0.960921	-0.866610	-0.246863
Cl72	Cl	0.464772	-0.386281	-0.189456
H73	H	0.536620	-0.304489	-0.241161
H74	H	0.788290	-0.389262	-0.757888
Cl75	Cl	0.763405	-0.386321	-0.890959
H76	H	0.449481	-0.413448	-0.420304
Cl77	Cl	0.804449	-0.280786	-0.941117
H78	H	0.821285	-0.304371	-1.075221
Cl79	Cl	0.976073	-0.521411	-1.098050
H80	H	0.647974	-0.498256	-0.393621
Cl81	Cl	0.976069	-0.521447	-0.950362
Cl82	Cl	0.316196	-0.416357	-0.445462
H83	H	0.992220	-0.413034	-0.877640
H84	H	0.992217	-0.413063	-0.758937
Cl85	Cl	0.513877	-0.521862	-0.412282
Cl86	Cl	0.976045	-0.521573	-0.546726
Cl87	Cl	0.257936	-0.521797	-0.412374
Cl88	Cl	0.110247	-0.521746	-0.412431
Cl89	Cl	0.267087	-0.280769	-0.222639
Cl90	Cl	0.976053	-0.521523	-0.694418
Cl91	Cl	0.670723	-0.280867	-0.222501
