data_functionalizedCrystal
_audit_creation_method	'MofGen! by Chris Wilmer'
_symmetry_space_group_name_H-M	'P1'
_symmetry_Int_Tables_number	1
_symmetry_cell_setting	triclinic
loop_
_symmetry_equiv_pos_as_xyz
  x,y,z
_cell_length_a	19.077105
_cell_length_b	16.625545
_cell_length_c	19.076919
_cell_angle_alpha	87.725638
_cell_angle_beta	90.076224
_cell_angle_gamma	92.276577
loop_
_atom_site_label
_atom_site_type_symbol
_atom_site_fract_x
_atom_site_fract_y
_atom_site_fract_z
Zn1	Zn	1.058255	0.390077	-0.440433
Zn2	Zn	1.558255	0.890077	0.059567
Zn3	Zn	1.062890	0.519720	-0.322931
Zn4	Zn	1.562890	1.019720	0.177069
Zn5	Zn	0.945473	0.379275	-0.318226
Zn6	Zn	1.445473	0.879275	0.181774
Zn7	Zn	0.940711	0.519234	-0.435684
Zn8	Zn	1.440711	1.019234	0.064316
O9	O	1.001832	0.452076	-0.379319
O10	O	1.501832	0.952076	0.120681
O11	O	1.157201	0.411998	-0.428803
O12	O	1.657201	0.911998	0.071197
O13	O	1.051247	0.496773	-0.223976
O14	O	1.551247	0.996773	0.276024
O15	O	0.960487	0.267879	-0.334455
O16	O	1.460487	0.767879	0.165545
O17	O	1.160606	0.507246	-0.342475
O18	O	1.660606	1.007246	0.157525
O19	O	1.043347	0.275815	-0.424240
O20	O	1.543347	0.775815	0.075760
O21	O	0.964981	0.393589	-0.220519
O22	O	1.464981	0.893589	0.279481
O23	O	0.846510	0.393117	-0.329850
O24	O	1.346510	0.893117	0.170150
O25	O	0.952371	0.506418	-0.534645
O26	O	1.452371	1.006418	-0.034645
O27	O	0.843011	0.495944	-0.416146
O28	O	1.343011	0.995944	0.083854
O29	O	1.038730	0.411527	-0.538135
O30	O	1.538730	0.911527	-0.038135
O31	O	1.046629	0.632484	-0.337870
O32	O	1.546629	1.132484	0.162130
O33	O	0.956865	0.632127	-0.420709
O34	O	1.456865	1.132127	0.079291
C35	C	0.819264	0.443306	-0.371973
C36	C	1.319264	0.943306	0.128027
C37	C	0.741160	0.439575	-0.368847
C38	C	1.241160	0.939575	0.131153
C39	C	0.702667	0.491432	-0.412237
C40	C	1.202667	0.991432	0.087763
C41	C	0.629280	0.487916	-0.409303
C42	C	1.129280	0.987916	0.090697
C43	C	0.594388	0.432544	-0.362975
C44	C	1.094388	0.932544	0.137025
C45	C	0.632886	0.380681	-0.319583
C46	C	1.132886	0.880681	0.180417
C47	C	0.706272	0.384194	-0.322521
C48	C	1.206272	0.884194	0.177479
C49	C	0.375101	0.416284	-0.349382
C50	C	0.875101	0.916284	0.150618
C51	C	0.301710	0.412776	-0.346446
C52	C	0.801710	0.912776	0.153554
C53	C	0.298108	0.520010	-0.436168
C54	C	0.798108	1.020010	0.063832
C55	C	0.371496	0.523522	-0.439098
C56	C	0.871496	1.023522	0.060902
C57	C	0.409988	0.471655	-0.395709
C58	C	0.909988	0.971655	0.104291
N59	N	0.519374	0.428950	-0.359974
N60	N	1.019374	0.928950	0.140026
N61	N	0.485000	0.475246	-0.398714
N62	N	0.985000	0.975246	0.101286
C63	C	1.001752	0.661563	-0.379301
C64	C	1.501752	1.161563	0.120699
C65	C	1.001781	0.751186	-0.379319
C66	C	1.501781	1.251186	0.120681
C67	C	1.001806	0.823970	-0.379337
C68	C	1.501806	1.323970	0.120663
C69	C	1.001844	0.915282	-0.379357
C70	C	1.501844	1.415282	0.120643
C71	C	1.001879	0.988060	-0.379370
C72	C	1.501879	1.488060	0.120630
C73	C	1.001916	1.079377	-0.379389
C74	C	1.501916	1.579377	0.120611
C75	C	1.185113	0.460881	-0.386694
C76	C	1.685113	0.960881	0.113306
C77	C	1.263216	0.464633	-0.389836
C78	C	1.763216	0.964633	0.110164
C79	C	0.994503	0.460123	-0.562599
C80	C	1.494503	0.960123	-0.062599
C81	C	0.991379	0.463552	-0.640702
C82	C	1.491379	0.963552	-0.140702
C83	C	1.001926	1.241774	-0.379362
C84	C	1.501926	1.741774	0.120638
C85	C	1.001951	1.152156	-0.379402
C86	C	1.501951	1.652156	0.120598
C87	C	1.034872	0.415760	-0.679213
C88	C	1.534872	0.915760	-0.179213
C89	C	1.031928	0.418978	-0.752599
C90	C	1.531928	0.918978	-0.252599
C91	C	0.985495	0.469993	-0.787473
C92	C	1.485495	0.969993	-0.287473
C93	C	0.941998	0.517786	-0.748957
C94	C	1.441998	1.017786	-0.248957
C95	C	0.944938	0.514563	-0.675572
C96	C	1.444938	1.014563	-0.175572
C97	C	0.971877	0.484926	-1.006755
C98	C	1.471877	0.984926	-0.506755
C99	C	0.968941	0.488147	-1.080145
C100	C	1.468941	0.988147	-0.580145
C101	C	1.058871	0.389338	-1.083782
C102	C	1.558871	0.889338	-0.583782
C103	C	1.061810	0.386123	-1.010396
C104	C	1.561810	0.886123	-0.510396
C105	C	1.018310	0.433913	-0.971886
C106	C	1.518310	0.933913	-0.471886
N107	N	0.982487	0.473286	-0.862485
N108	N	1.482487	0.973286	-0.362485
N109	N	1.021315	0.430615	-0.896875
N110	N	1.521315	0.930615	-0.396875
C111	C	1.009174	0.444005	-0.196753
C112	C	1.509174	0.944005	0.303247
C113	C	1.012434	0.440356	-0.118655
C114	C	1.512434	0.940356	0.381345
H115	H	0.731070	0.536524	-0.449960
H116	H	1.231070	1.036524	0.050040
H117	H	0.597941	0.530144	-0.444636
H118	H	1.097941	1.030144	0.055364
H119	H	0.273303	0.367676	-0.308724
H120	H	0.773303	0.867676	0.191276
N121	N	0.409128	0.583248	-0.489063
N122	N	0.909128	1.083248	0.010937
H123	H	0.373606	0.615567	-0.516106
H124	H	0.873606	1.115567	-0.016106
H125	H	0.438295	0.553376	-0.522851
H126	H	0.938295	1.053376	-0.022851
N127	N	0.416612	0.360333	-0.302597
N128	N	0.916612	0.860333	0.197403
H129	H	0.383370	0.324722	-0.272805
H130	H	0.883370	0.824722	0.227195
H131	H	0.448353	0.393106	-0.271242
H132	H	0.948353	0.893106	0.228758
N133	N	0.256593	0.575948	-0.482964
N134	N	0.756593	1.075948	0.017036
H135	H	0.204808	0.565323	-0.474076
H136	H	0.704808	1.065323	0.025924
H137	H	0.267428	0.566306	-0.533682
H138	H	0.767428	1.066306	-0.033682
H139	H	1.094285	0.350429	-1.115144
H140	H	1.594285	0.850429	-0.615144
N141	N	1.111879	0.331070	-0.972800
N142	N	1.611879	0.831070	-0.472800
H143	H	1.084549	0.290998	-0.941216
H144	H	1.584549	0.790998	-0.441216
H145	H	1.145648	0.364098	-0.943692
H146	H	1.645648	0.864098	-0.443692
N147	N	1.078847	0.367440	-0.794134
N148	N	1.578847	0.867440	-0.294134
H149	H	1.069938	0.377219	-0.845915
H150	H	1.569938	0.877219	-0.345915
H151	H	1.068457	0.308766	-0.780875
H152	H	1.568457	0.808766	-0.280875
N153	N	0.595252	0.320973	-0.269604
N154	N	1.095252	0.820973	0.230396
H155	H	0.563670	0.283457	-0.296987
H156	H	1.063670	0.783457	0.203013
H157	H	0.566139	0.350872	-0.235789
H158	H	1.066139	0.850872	0.264211
H159	H	0.737613	0.341962	-0.287191
H160	H	1.237613	0.841962	0.212809
H161	H	0.931127	0.529691	-1.108537
H162	H	1.431127	1.029691	-0.608537
N163	N	0.891919	0.572803	-0.786580
N164	N	1.391919	1.072803	-0.286580
H165	H	0.903312	0.630377	-0.774242
H166	H	1.403312	1.130377	-0.274242
H167	H	0.842249	0.557238	-0.771778
H168	H	1.342249	1.057238	-0.271778
H169	H	1.072685	0.374221	-0.650824
H170	H	1.572685	0.874221	-0.150824
N171	N	0.924938	0.536441	-0.965224
N172	N	1.424938	1.036441	-0.465224
H173	H	0.895073	0.569239	-0.998454
H174	H	1.395073	1.069239	-0.498454
H175	H	0.954717	0.573800	-0.935906
H176	H	1.454717	1.073800	-0.435906
N177	N	0.898022	0.566101	-0.634032
N178	N	1.398022	1.066101	-0.134032
H179	H	0.868160	0.598908	-0.667258
H180	H	1.368160	1.098908	-0.167258
H181	H	0.927821	0.603453	-0.604726
H182	H	1.427821	1.103453	-0.104726
