data_functionalizedCrystal
_audit_creation_method	'MofGen! by Chris Wilmer'
_symmetry_space_group_name_H-M	'P1'
_symmetry_Int_Tables_number	1
_symmetry_cell_setting	triclinic
loop_
_symmetry_equiv_pos_as_xyz
  x,y,z
_cell_length_a	14.628931
_cell_length_b	14.628931
_cell_length_c	20.875641
_cell_angle_alpha	90.001412
_cell_angle_beta	62.440381
_cell_angle_gamma	60.000000
loop_
_atom_site_label
_atom_site_type_symbol
_atom_site_fract_x
_atom_site_fract_y
_atom_site_fract_z
Zr1	Zr	0.992084	0.884864	-0.081198
O2	O	1.172457	0.744066	-0.179995
O3	O	0.804545	0.928026	-0.050911
O4	O	0.981750	0.934772	-0.179995
O5	O	1.005901	0.731999	0.050911
O6	O	0.981750	1.085204	-0.179994
O7	O	0.995252	0.737320	-0.050912
O8	O	0.664763	1.073136	0.050912
O9	O	1.322888	0.744066	-0.179995
O10	O	0.884336	1.058700	-0.037994
O11	O	0.892284	0.942463	0.037995
O12	O	1.100920	0.950405	-0.113984
O13	O	1.108868	0.834168	-0.037995
Zr14	Zr	1.009068	1.116299	0.081198
Zr15	Zr	0.992083	1.124786	-0.081198
Zr16	Zr	1.009068	0.876377	0.081198
Zr17	Zr	1.232005	0.884864	-0.081198
Zr18	Zr	0.769146	1.116299	0.081198
O19	O	1.196606	1.073137	0.050911
O20	O	1.172456	1.085204	-0.179995
O21	O	1.196607	0.731999	0.050911
O22	O	0.828695	1.257097	0.179995
O23	O	0.804544	1.269164	-0.050911
O24	O	0.828696	0.915959	0.179995
O25	O	0.995250	1.269164	-0.050911
O26	O	1.019401	1.066391	0.179995
O27	O	1.019401	0.915959	0.179994
O28	O	1.005900	1.263843	0.050912
O29	O	1.322888	0.934772	-0.179995
O30	O	0.678263	1.066391	0.179995
O31	O	0.678263	1.257096	0.179995
O32	O	0.664762	1.263842	0.050912
O33	O	1.336389	0.737321	-0.050912
O34	O	1.336388	0.928026	-0.050912
O35	O	0.900231	1.050757	0.113984
O36	O	0.892283	1.166994	0.037995
O37	O	1.108867	1.058700	-0.037995
O38	O	1.116815	0.942463	0.037994
C39	C	0.700470	1.000581	0.000000
C40	C	0.598617	1.000581	0.000000
C41	C	1.000576	0.700476	-0.000000
C42	C	1.000577	0.598623	-0.000000
C43	C	0.451886	0.942921	0.037695
C44	C	0.557156	0.942920	0.037696
C45	C	0.893136	0.606935	0.037696
C46	C	0.893134	0.501665	0.037696
C47	C	1.300681	1.000582	-0.000000
C48	C	1.402534	1.000582	-0.000000
C49	C	0.979330	1.011197	-0.203132
C50	C	0.972120	1.014800	-0.272074
C51	C	1.000575	1.300687	0.000000
C52	C	1.000574	1.402540	0.000000
C53	C	1.081784	0.959966	-0.344128
C54	C	1.075002	0.963365	-0.408903
C55	C	0.958554	1.021593	-0.401622
C56	C	0.848881	1.076434	-0.329560
C57	C	0.855665	1.073040	-0.264787
C58	C	0.926143	1.037810	-0.591091
C59	C	0.919367	1.041197	-0.655872
C60	C	1.145488	0.928130	-0.735211
C61	C	1.152261	0.924736	-0.670432
C62	C	1.042589	0.979581	-0.598376
N63	N	0.951618	1.025066	-0.467832
N64	N	1.049526	0.976114	-0.532168
C65	C	1.021821	0.989966	0.203132
C66	C	1.029031	0.986363	0.272074
C67	C	0.700470	1.300687	0.000001
C68	C	0.598616	1.402540	0.000001
C69	C	0.721716	0.989965	0.203133
C70	C	0.627073	0.986362	0.272074
C71	C	0.721715	1.290071	0.203133
C72	C	0.627072	1.388321	0.272074
C73	C	1.279436	0.711092	-0.203133
C74	C	1.374079	0.612842	-0.272074
C75	C	1.300682	0.700476	-0.000001
C76	C	1.402535	0.598623	-0.000001
C77	C	1.279435	1.011197	-0.203133
C78	C	1.374078	1.014800	-0.272074
C79	C	0.586777	1.041199	0.344122
C80	C	0.497865	1.037809	0.408906
C81	C	0.449243	0.979589	0.401640
C82	C	0.489548	0.924745	0.329585
C83	C	0.578465	0.928129	0.264802
C84	C	0.578478	1.495145	0.264785
C85	C	0.489564	1.587471	0.329556
C86	C	0.449239	1.572971	0.401617
C87	C	0.497842	1.466136	0.408905
C88	C	0.586761	1.373812	0.344135
C89	C	1.422685	0.506018	-0.264785
C90	C	1.511629	0.413692	-0.329556
C91	C	1.551959	0.428192	-0.401617
C92	C	1.503349	0.535027	-0.408905
C93	C	1.414414	0.627351	-0.344135
C94	C	1.422672	1.073031	-0.264784
C95	C	1.511586	1.076438	-0.329555
C96	C	1.551912	1.021607	-0.401616
C97	C	1.503309	0.963375	-0.408905
C98	C	1.414389	0.959975	-0.344134
C99	C	0.549265	1.394227	-0.037695
C100	C	0.443994	1.499496	-0.037696
H101	H	0.416198	0.893561	0.069971
H102	H	0.626356	1.088608	0.350053
Cl103	Cl	0.629104	0.859192	0.174230
Cl104	Cl	1.142598	0.467316	-0.049824
H105	H	0.438211	1.049952	-0.032269
H106	H	0.465059	1.082473	0.467571
Cl107	Cl	0.543539	1.533847	0.049825
H108	H	0.611297	1.506973	0.206115
H109	H	0.599587	0.893548	0.069965
H110	H	0.556202	1.049945	-0.032278
Cl111	Cl	0.788268	1.106711	-0.500514
Cl112	Cl	1.572677	1.149641	-0.320375
Cl113	Cl	0.751118	0.738241	0.087541
Cl114	Cl	1.353322	0.886751	-0.353312
H115	H	0.464996	1.454346	0.467586
H116	H	0.444945	1.605572	0.032280
H117	H	1.389853	1.117681	-0.206114
Cl118	Cl	0.751111	0.512393	0.087521
Cl119	Cl	0.647833	1.239522	0.353312
H120	H	1.247086	0.877324	-0.676370
H121	H	0.376834	1.648156	0.454351
Cl122	Cl	1.142602	0.391805	-0.049836
H123	H	1.389853	0.494190	-0.206115
H124	H	1.551192	0.326711	-0.323607
Cl125	Cl	0.428408	0.851561	0.320463
Cl126	Cl	1.228184	0.886759	-0.353291
H127	H	1.164302	0.918716	-0.467571
H128	H	1.624317	1.024383	-0.454351
Cl129	Cl	1.663764	0.312115	-0.483037
Cl130	Cl	1.283353	0.859188	-0.825796
H131	H	0.376841	0.976842	0.454396
H132	H	0.401564	1.492554	-0.069966
Cl133	Cl	0.428475	1.721765	0.320376
H134	H	0.824536	1.088612	-0.649935
H135	H	0.754067	1.123850	-0.323636
H136	H	0.584952	1.309177	-0.069971
H137	H	1.374839	0.714329	-0.350079
Cl138	Cl	0.717795	1.141990	-0.174201
H139	H	1.536198	0.546821	-0.467585
H140	H	1.536156	0.918733	-0.467586
