data_functionalizedCrystal
_audit_creation_method	'MofGen! by Chris Wilmer'
_symmetry_space_group_name_H-M	'P1'
_symmetry_Int_Tables_number	1
_symmetry_cell_setting	triclinic
loop_
_symmetry_equiv_pos_as_xyz
  x,y,z
_cell_length_a	19.077236
_cell_length_b	19.076808
_cell_length_c	11.169409
_cell_angle_alpha	87.662578
_cell_angle_beta	87.675582
_cell_angle_gamma	94.519737
loop_
_atom_site_label
_atom_site_type_symbol
_atom_site_fract_x
_atom_site_fract_y
_atom_site_fract_z
Zn1	Zn	1.066497	-0.237396	-0.735519
Zn2	Zn	1.061663	-0.355317	-0.526401
Zn3	Zn	0.948597	-0.242165	-0.526424
Zn4	Zn	0.943837	-0.359983	-0.718628
O5	O	1.005148	-0.298715	-0.626743
O6	O	1.164508	-0.249090	-0.714839
O7	O	1.046634	-0.340351	-0.358449
O8	O	0.968252	-0.142874	-0.561240
O9	O	1.160957	-0.335726	-0.561200
O10	O	1.054872	-0.139370	-0.714861
O11	O	0.963565	-0.257218	-0.358466
O12	O	0.849313	-0.261742	-0.544861
O13	O	0.960139	-0.343678	-0.888823
O14	O	0.845816	-0.348303	-0.686072
O15	O	1.050257	-0.253614	-0.901234
O16	O	1.042018	-0.454594	-0.544821
O17	O	0.955451	-0.458022	-0.686049
C18	C	0.821985	-0.306046	-0.613637
C19	C	0.743626	-0.309200	-0.608057
C20	C	0.708660	-0.265646	-0.685539
C21	C	0.635034	-0.268605	-0.680286
C22	C	0.596375	-0.315123	-0.597556
C23	C	0.631346	-0.358679	-0.520066
C24	C	0.704971	-0.355715	-0.525314
C25	C	0.375982	-0.328812	-0.573266
C26	C	0.302351	-0.331774	-0.568026
C27	C	0.306044	-0.241699	-0.728246
C28	C	0.379670	-0.238743	-0.733491
C29	C	0.414635	-0.282296	-0.655997
N30	N	0.521117	-0.318151	-0.592187
N31	N	0.489892	-0.279264	-0.661360
C32	C	0.997713	-0.481889	-0.613627
C33	C	0.994596	-0.560248	-0.608061
C34	C	1.038197	-0.595179	-0.685488
C35	C	1.035266	-0.668806	-0.680260
C36	C	0.988737	-0.707502	-0.597598
C37	C	0.945131	-0.672566	-0.520168
C38	C	0.948060	-0.598941	-0.525402
C39	C	0.975144	-0.927902	-0.573364
C40	C	0.972221	-1.001533	-0.568133
C41	C	1.062355	-0.997767	-0.728228
C42	C	1.065282	-0.924140	-0.733450
C43	C	1.021674	-0.889211	-0.656024
N44	N	0.985741	-0.782761	-0.592250
N45	N	1.024666	-0.813954	-0.661379
C46	C	1.189027	-0.291356	-0.639901
C47	C	1.267385	-0.288220	-0.645508
C48	C	1.005206	-0.298635	-0.939795
C49	C	1.005230	-0.298600	-1.073199
C50	C	1.012632	-0.114826	-0.639937
C51	C	1.015822	-0.036463	-0.645560
C52	C	1.005134	-0.298743	-0.314915
C53	C	1.005254	-0.298573	-0.181536
H54	H	0.270877	-0.369657	-0.500656
H55	H	0.599865	-0.396551	-0.452700
H56	H	0.934328	-1.033037	-0.500818
O57	O	0.409829	-0.371191	-0.497943
C58	C	0.359917	-0.412870	-0.423784
H59	H	0.307351	-0.417456	-0.469028
H60	H	0.378937	-0.467553	-0.408358
H61	H	0.353104	-0.387306	-0.334000
O62	O	0.739017	-0.398057	-0.450221
C63	C	0.779767	-0.441934	-0.518196
H64	H	0.791824	-0.416685	-0.611784
H65	H	0.831146	-0.449264	-0.472300
H66	H	0.749282	-0.495331	-0.525472
H67	H	0.740131	-0.227768	-0.752910
H68	H	0.411141	-0.200866	-0.800863
O69	O	1.083412	-0.557701	-0.765897
C70	C	1.121277	-0.604323	-0.833097
H71	H	1.090312	-0.657987	-0.831406
H72	H	1.129612	-0.582703	-0.929723
H73	H	1.174523	-0.609979	-0.792505
H74	H	1.070776	-0.697242	-0.743301
H75	H	0.912554	-0.570501	-0.462354
O76	O	0.932767	-0.894088	-0.498019
C77	C	0.891066	-0.944033	-0.423953
H78	H	0.917859	-0.995335	-0.418188
H79	H	0.884426	-0.923114	-0.330349
H80	H	0.837195	-0.954036	-0.463426
H81	H	0.606568	-0.233140	-0.743383
O82	O	1.110406	-0.886591	-0.813914
C83	C	1.094265	-0.905172	-0.931130
H84	H	1.037136	-0.927710	-0.931649
H85	H	1.102255	-0.856478	-0.994311
H86	H	1.130352	-0.946350	-0.962217
O87	O	0.271996	-0.199491	-0.803558
C88	C	0.227816	-0.241392	-0.875076
H89	H	0.214612	-0.295237	-0.827991
H90	H	0.177210	-0.214768	-0.889604
H91	H	0.255900	-0.248053	-0.965461
O92	O	0.899896	-0.710233	-0.440028
C93	C	0.852638	-0.754646	-0.502005
H94	H	0.877037	-0.764617	-0.593990
H95	H	0.841147	-0.806828	-0.448745
H96	H	0.801515	-0.728407	-0.513394
O97	O	1.104603	-1.031737	-0.803560
C98	C	1.062743	-1.075946	-0.875092
H99	H	1.008099	-1.056026	-0.880023
H100	H	1.088177	-1.075699	-0.969262
H101	H	1.058105	-1.131861	-0.833838
