data_functionalizedCrystal
_audit_creation_method	'MofGen! by Chris Wilmer'
_symmetry_space_group_name_H-M	'P1'
_symmetry_Int_Tables_number	1
_symmetry_cell_setting	triclinic
loop_
_symmetry_equiv_pos_as_xyz
  x,y,z
_cell_length_a	12.645331
_cell_length_b	12.645330
_cell_length_c	12.645324
_cell_angle_alpha	89.968234
_cell_angle_beta	89.977038
_cell_angle_gamma	90.016671
loop_
_atom_site_label
_atom_site_type_symbol
_atom_site_fract_x
_atom_site_fract_y
_atom_site_fract_z
Zn1	Zn	1.620734	-0.421988	-0.599446
Zn2	Zn	1.620615	-0.599297	-0.422186
Zn3	Zn	1.443448	-0.422045	-0.422191
Zn4	Zn	1.443431	-0.599206	-0.599402
O5	O	1.532057	-0.510634	-0.510806
O6	O	1.769066	-0.445522	-0.575949
O7	O	1.597071	-0.575846	-0.273840
O8	O	1.467023	-0.273690	-0.445724
O9	O	1.768978	-0.575791	-0.445717
O10	O	1.597274	-0.273648	-0.575953
O11	O	1.466907	-0.445620	-0.273843
O12	O	1.295098	-0.445532	-0.445681
O13	O	1.466993	-0.575636	-0.747755
O14	O	1.295086	-0.575692	-0.575877
O15	O	1.597257	-0.445434	-0.747788
O16	O	1.597054	-0.747632	-0.445674
O17	O	1.466877	-0.747566	-0.575873
C18	C	1.256627	-0.510609	-0.510776
C19	C	1.138797	-0.510624	-0.510788
C20	C	0.971206	-0.428363	-0.429333
C21	C	1.093766	-0.428576	-0.428974
C22	C	1.094277	-0.622301	-0.480273
C23	C	0.971678	-0.621852	-0.479717
C24	C	0.971648	-0.482269	-0.623072
C25	C	1.094254	-0.479774	-0.622448
C26	C	1.531980	-0.786064	-0.510791
C27	C	1.532044	-0.903894	-0.510821
C28	C	1.450487	-1.071460	-0.592982
C29	C	1.450070	-0.948901	-0.592717
C30	C	1.501798	-0.948501	-0.399099
C31	C	1.501300	-1.071099	-0.399597
C32	C	1.644345	-1.070982	-0.539475
C33	C	1.643657	-0.948374	-0.541918
C34	C	1.808562	-0.510660	-0.510838
C35	C	1.926392	-0.510671	-0.510851
C36	C	1.532136	-0.510519	-0.787312
C37	C	1.532170	-0.510470	-0.905142
C38	C	1.532164	-0.234129	-0.510844
C39	C	1.532209	-0.116299	-0.510861
C40	C	1.614439	-0.428797	-1.072727
C41	C	1.614175	-0.428502	-0.950167
C42	C	1.420488	-0.480110	-0.949620
C43	C	1.420988	-0.479490	-1.072218
C44	C	1.560678	-0.622622	-1.072340
C45	C	1.563121	-0.622058	-0.949734
C46	C	1.532039	-0.510672	-0.235377
C47	C	1.532210	-0.510423	-0.117547
H48	H	1.468994	-0.918737	-0.675558
H49	H	1.559433	-0.919351	-0.336240
O50	O	1.589795	-0.319308	-1.113550
H51	H	1.648304	-0.262311	-1.081443
H52	H	1.558239	-1.100765	-0.336324
H53	H	1.697527	-0.447571	-1.102219
O54	O	1.728542	-0.907814	-0.468426
H55	H	1.731279	-0.820175	-0.472531
H56	H	1.469237	-1.100862	-0.676094
H57	H	1.357636	-0.536356	-1.101866
H58	H	1.705229	-1.099978	-0.479663
O59	O	1.723877	-0.453656	-0.910326
H60	H	1.721164	-0.526501	-0.861389
H61	H	0.941742	-0.345301	-0.448254
O62	O	1.481345	-0.703181	-1.110735
H63	H	1.441098	-0.739749	-1.041790
O64	O	1.589222	-0.318408	-0.911322
H65	H	1.577283	-0.265173	-0.980104
H66	H	1.123866	-0.345763	-0.448101
H67	H	1.396857	-0.397473	-1.100828
H68	H	1.357554	-0.537735	-0.920453
H69	H	1.395915	-0.399009	-0.918925
O70	O	1.132811	-0.370919	-0.652939
H71	H	1.063933	-0.317907	-0.665101
O72	O	1.666713	-0.659199	-1.113295
H73	H	1.700309	-0.597808	-1.166335
H74	H	0.942670	-0.542218	-0.683810
O75	O	1.671993	-0.652385	-0.911239
H76	H	1.672184	-0.655176	-0.823507
O77	O	0.930740	-0.376274	-0.659830
H78	H	0.886176	-0.386540	-0.734729
O79	O	1.134837	-0.553417	-0.707195
H80	H	1.222472	-0.549275	-0.709981
O81	O	1.489553	-0.706961	-0.909151
H82	H	1.429507	-0.670788	-0.856334
O83	O	1.394347	-0.907965	-0.366398
H84	H	1.334328	-0.933847	-0.424952
H85	H	1.123043	-0.447349	-0.345814
O86	O	0.930380	-0.452963	-0.319815
H87	H	0.878307	-0.523556	-0.323189
O88	O	1.341048	-1.112369	-0.568192
H89	H	1.344606	-1.164497	-0.497635
H90	H	0.943032	-0.645936	-0.397678
H91	H	1.366938	-0.919667	-0.573760
H92	H	1.123446	-0.685266	-0.537783
O93	O	0.932397	-0.705825	-0.554938
H94	H	1.000969	-0.746583	-0.591541
O95	O	1.134863	-0.654759	-0.372764
H96	H	1.186730	-0.591537	-0.340894
O97	O	1.392720	-1.109120	-0.367498
H98	H	1.341060	-1.039941	-0.351771
H99	H	1.671935	-1.101816	-0.619558
H100	H	1.666466	-0.919214	-0.624140
