data_functionalizedCrystal
_audit_creation_method	'MofGen! by Chris Wilmer'
_symmetry_space_group_name_H-M	'P1'
_symmetry_Int_Tables_number	1
_symmetry_cell_setting	triclinic
loop_
_symmetry_equiv_pos_as_xyz
  x,y,z
_cell_length_a	23.532407
_cell_length_b	19.288864
_cell_length_c	18.366186
_cell_angle_alpha	90.022894
_cell_angle_beta	89.989089
_cell_angle_gamma	97.007539
loop_
_atom_site_label
_atom_site_type_symbol
_atom_site_fract_x
_atom_site_fract_y
_atom_site_fract_z
O1	O	0.071045	-0.921134	-0.060790
O2	O	0.404379	-0.587800	0.272543
O3	O	0.737712	-0.254467	0.605876
O4	O	0.080629	-0.718843	-0.060742
O5	O	0.413962	-0.385510	0.272592
O6	O	0.747296	-0.052177	0.605925
O7	O	-0.007082	-0.826089	-0.060754
O8	O	0.326251	-0.492755	0.272579
O9	O	0.659585	-0.159422	0.605912
O10	O	0.158756	-0.813889	-0.060778
O11	O	0.492090	-0.480555	0.272555
O12	O	0.825423	-0.147222	0.605889
O13	O	-0.007086	-0.826071	0.060345
O14	O	0.326247	-0.492737	0.393679
O15	O	0.659580	-0.159404	0.727012
O16	O	0.080625	-0.718825	0.060358
O17	O	0.413958	-0.385492	0.393691
O18	O	0.747291	-0.052159	0.727024
O19	O	0.071041	-0.921116	0.060309
O20	O	0.404374	-0.587782	0.393642
O21	O	0.737708	-0.254449	0.726976
Zn22	Zn	0.075832	-0.819968	0.079560
Zn23	Zn	0.409165	-0.486634	0.412894
Zn24	Zn	0.742499	-0.153301	0.746227
Zn25	Zn	0.075838	-0.819991	-0.079993
Zn26	Zn	0.409171	-0.486658	0.253340
Zn27	Zn	0.742504	-0.153325	0.586673
O28	O	0.158752	-0.813870	0.060321
O29	O	0.492085	-0.480537	0.393655
O30	O	0.825419	-0.147204	0.726988
C31	C	-0.028301	-0.825769	-0.000203
C32	C	0.305033	-0.492436	0.333131
C33	C	0.638366	-0.159102	0.666464
C34	C	-0.091520	-0.824835	-0.000197
C35	C	0.241814	-0.491502	0.333137
C36	C	0.575147	-0.158168	0.666470
C37	C	0.080319	-0.692959	-0.000186
C38	C	0.413652	-0.359626	0.333148
C39	C	0.746985	-0.026292	0.666481
C40	C	0.079393	-0.615858	-0.000166
C41	C	0.412726	-0.282525	0.333167
C42	C	0.746060	0.050808	0.666500
C43	C	0.071351	-0.947000	-0.000249
C44	C	0.404685	-0.613667	0.333085
C45	C	0.738018	-0.280333	0.666418
C46	C	0.072277	-1.024101	-0.000273
C47	C	0.405610	-0.690768	0.333061
C48	C	0.738944	-0.357434	0.666394
C49	C	-0.490503	-0.882442	-0.000251
C50	C	-0.157170	-0.549108	0.333083
C51	C	0.176163	-0.215775	0.666416
C52	C	-0.549905	-0.881574	-0.000256
C53	C	-0.216572	-0.548241	0.333077
C54	C	0.116761	-0.214907	0.666411
O55	O	-0.586539	-0.934976	-0.000296
O56	O	-0.253206	-0.601643	0.333038
O57	O	0.080127	-0.268309	0.666371
N58	N	-0.572664	-0.817817	-0.000240
N59	N	-0.239330	-0.484483	0.333093
N60	N	0.094003	-0.151150	0.666427
C61	C	-0.536017	-0.754923	-0.000226
C62	C	-0.202683	-0.421590	0.333107
C63	C	0.130650	-0.088256	0.666441
O64	O	-0.560829	-0.700613	-0.000214
O65	O	-0.227495	-0.367280	0.333120
O66	O	0.105838	-0.033946	0.666453
C67	C	-0.476616	-0.755792	-0.000226
C68	C	-0.143282	-0.422458	0.333107
C69	C	0.190051	-0.089125	0.666441
C70	C	-0.453861	-0.819553	-0.000235
C71	C	-0.120528	-0.486220	0.333099
C72	C	0.212806	-0.152886	0.666432
C73	C	-0.467748	-0.946198	-0.000260
C74	C	-0.134415	-0.612865	0.333073
C75	C	0.198919	-0.279531	0.666407
C76	C	-0.408350	-0.947065	-0.000253
C77	C	-0.075017	-0.613732	0.333080
C78	C	0.258317	-0.280399	0.666413
C79	C	-0.371707	-0.884177	-0.000237
C80	C	-0.038374	-0.550843	0.333096
C81	C	0.294959	-0.217510	0.666429
C82	C	-0.394463	-0.820420	-0.000228
C83	C	-0.061130	-0.487087	0.333105
C84	C	0.272204	-0.153754	0.666439
C85	C	-0.439970	-0.692899	-0.000217
C86	C	-0.106636	-0.359565	0.333116
C87	C	0.226697	-0.026232	0.666449
C88	C	-0.380565	-0.693773	-0.000218
C89	C	-0.047232	-0.360439	0.333116
C90	C	0.286101	-0.027106	0.666449
C91	C	-0.357810	-0.757534	-0.000226
C92	C	-0.024477	-0.424201	0.333107
C93	C	0.308856	-0.090867	0.666440
C94	C	-0.298422	-0.758399	-0.000205
C95	C	0.034911	-0.425066	0.333128
C96	C	0.368244	-0.091732	0.666462
N97	N	-0.275664	-0.822156	-0.000221
N98	N	0.057669	-0.488823	0.333112
N99	N	0.391003	-0.155490	0.666446
C100	C	-0.312307	-0.885045	-0.000237
C101	C	0.021027	-0.551712	0.333096
C102	C	0.354360	-0.218378	0.666430
C103	C	-0.660763	-0.753104	-0.000228
C104	C	-0.327430	-0.419771	0.333106
C105	C	0.005904	-0.086438	0.666439
C106	C	-0.720163	-0.752235	-0.000223
C107	C	-0.386829	-0.418902	0.333111
C108	C	-0.053496	-0.085568	0.666444
C109	C	-0.734047	-0.878886	-0.000254
C110	C	-0.400714	-0.545553	0.333080
C111	C	-0.067381	-0.212220	0.666413
C112	C	-0.674647	-0.879755	-0.000254
C113	C	-0.341313	-0.546421	0.333080
C114	C	-0.007980	-0.213088	0.666413
C115	C	-0.638005	-0.816861	-0.000244
C116	C	-0.304671	-0.483528	0.333090
C117	C	0.028662	-0.150195	0.666423
C118	C	-0.187566	-0.886862	-0.000222
C119	C	0.145767	-0.553528	0.333111
C120	C	0.479101	-0.220195	0.666444
C121	C	-0.128162	-0.887724	-0.000213
C122	C	0.205171	-0.554390	0.333121
C123	C	0.538504	-0.221057	0.666454
C124	C	-0.114283	-0.761073	-0.000185
C125	C	0.219051	-0.427740	0.333148
C126	C	0.552384	-0.094406	0.666481
C127	C	-0.173681	-0.760211	-0.000191
C128	C	0.159652	-0.426877	0.333142
C129	C	0.492985	-0.093544	0.666475
C130	C	-0.210322	-0.823111	-0.000212
C131	C	0.123011	-0.489777	0.333121
C132	C	0.456345	-0.156444	0.666454
O133	O	-0.261754	-0.705025	-0.000168
O134	O	0.071579	-0.371692	0.333165
O135	O	0.404913	-0.038358	0.666498
O136	O	-0.287486	-0.939346	-0.000259
O137	O	0.045847	-0.606013	0.333074
O138	O	0.379181	-0.272680	0.666408
C139	C	0.179971	-0.814190	-0.000232
C140	C	0.513304	-0.480857	0.333102
C141	C	0.846637	-0.147523	0.666435
C142	C	0.243190	-0.815124	-0.000242
C143	C	0.576523	-0.481791	0.333091
C144	C	0.909856	-0.148458	0.666424
N145	N	0.075828	-0.819956	0.188452
N146	N	0.409161	-0.486623	0.521785
N147	N	0.742495	-0.153290	0.855118
C148	C	0.130858	-0.571003	-0.000185
C149	C	0.464191	-0.237670	0.333148
C150	C	0.797524	0.095663	0.666482
C151	C	0.129988	-0.498559	-0.000193
C152	C	0.463321	-0.165225	0.333140
C153	C	0.796655	0.168108	0.666474
C154	C	0.077651	-0.470973	-0.000197
C155	C	0.410984	-0.137639	0.333137
C156	C	0.744317	0.195694	0.666470
C157	C	0.026179	-0.515838	-0.000174
C158	C	0.359512	-0.182504	0.333159
C159	C	0.692846	0.150829	0.666493
C160	C	0.027050	-0.588280	-0.000159
C161	C	0.360383	-0.254947	0.333175
C162	C	0.693717	0.078386	0.666508
C163	C	0.036509	-0.362844	-0.042642
C164	C	0.369842	-0.029511	0.290691
C165	C	0.703176	0.303823	0.624025
C166	C	0.035640	-0.290402	-0.042662
C167	C	0.368973	0.042931	0.290672
C168	C	0.702307	0.376265	0.624005
C169	C	0.074961	-0.247535	-0.000240
C170	C	0.408295	0.085798	0.333093
C171	C	0.741628	0.419131	0.666426
C172	C	0.115162	-0.277118	0.042191
C173	C	0.448495	0.056216	0.375524
C174	C	0.781828	0.389549	0.708858
C175	C	0.116033	-0.349561	0.042206
C176	C	0.449366	-0.016227	0.375540
C177	C	0.782699	0.317106	0.708873
C178	C	0.076700	-0.392422	-0.000213
C179	C	0.410033	-0.059088	0.333121
C180	C	0.743367	0.274245	0.666454
C181	C	0.125487	-0.124127	-0.000267
C182	C	0.458820	0.209206	0.333067
C183	C	0.792154	0.542539	0.666400
C184	C	0.124615	-0.051682	-0.000270
C185	C	0.457948	0.281651	0.333063
C186	C	0.791282	0.614985	0.666396
C187	C	0.020805	-0.068962	-0.000258
C188	C	0.354138	0.264371	0.333075
C189	C	0.687471	0.597704	0.666408
C190	C	0.021678	-0.141406	-0.000248
C191	C	0.355011	0.191927	0.333086
C192	C	0.688345	0.525261	0.666419
C193	C	0.074021	-0.168984	-0.000255
C194	C	0.407354	0.164349	0.333078
C195	C	0.740687	0.497683	0.666411
N196	N	0.075837	-0.820008	-0.188884
N197	N	0.409171	-0.486675	0.144449
N198	N	0.742504	-0.153342	0.477782
C199	C	0.037009	-0.867460	0.226546
C200	C	0.370342	-0.534127	0.559880
C201	C	0.703675	-0.200793	0.893213
C202	C	0.037006	-0.867464	0.302774
C203	C	0.370339	-0.534131	0.636108
C204	C	0.703673	-0.200798	0.969441
C205	C	0.075833	-0.819972	0.340904
C206	C	0.409166	-0.486638	0.674238
C207	C	0.742499	-0.153305	1.007571
C208	C	0.114655	-0.772459	0.302800
C209	C	0.447988	-0.439126	0.636134
C210	C	0.781322	-0.105793	0.969467
C211	C	0.114653	-0.772452	0.226574
C212	C	0.447986	-0.439118	0.559907
C213	C	0.781319	-0.105785	0.893241
C214	C	0.127724	-0.810514	0.461659
C215	C	0.461057	-0.477180	0.794992
C216	C	0.794390	-0.143847	1.128325
C217	C	0.127727	-0.810526	0.537884
C218	C	0.461060	-0.477193	0.871217
C219	C	0.794394	-0.143859	1.204550
C220	C	0.075840	-0.819991	0.576012
C221	C	0.409173	-0.486658	0.909345
C222	C	0.742506	-0.153325	1.242679
C223	C	0.023947	-0.829459	0.537906
C224	C	0.357281	-0.496126	0.871239
C225	C	0.690614	-0.162792	1.204572
C226	C	0.023945	-0.829451	0.461679
C227	C	0.357278	-0.496118	0.795013
C228	C	0.690612	-0.162785	1.128346
C229	C	0.075839	-0.819975	0.423559
C230	C	0.409173	-0.486641	0.756892
C231	C	0.742506	-0.153308	1.090226
C232	C	0.037014	-0.867502	0.696762
C233	C	0.370348	-0.534169	1.030095
C234	C	0.703681	-0.200836	1.363428
C235	C	0.037011	-0.867502	0.772991
C236	C	0.370344	-0.534169	1.106324
C237	C	0.703678	-0.200835	1.439658
C238	C	0.114665	-0.772500	0.773015
C239	C	0.447998	-0.439167	1.106349
C240	C	0.781332	-0.105834	1.439682
C241	C	0.114663	-0.772497	0.696788
C242	C	0.447997	-0.439164	1.030121
C243	C	0.781330	-0.105831	1.363454
C244	C	0.075839	-0.820002	0.658665
C245	C	0.409172	-0.486669	0.991999
C246	C	0.742505	-0.153336	1.325332
H247	H	-0.109639	-0.939648	-0.000218
H248	H	0.223694	-0.606315	0.333116
H249	H	0.557028	-0.272981	0.666449
Br250	Br	0.167339	-0.707977	0.174869
Br251	Br	0.500673	-0.374644	0.508203
Br252	Br	0.834006	-0.041310	0.841536
H253	H	-0.763893	-0.930094	-0.000269
H254	H	-0.430560	-0.596760	0.333064
H255	H	-0.097226	-0.263427	0.666397
H256	H	-0.738684	-0.700314	-0.000203
H257	H	-0.405350	-0.366981	0.333130
H258	H	-0.072017	-0.033648	0.666464
Br259	Br	0.198151	-0.797685	0.589591
Br260	Br	0.531484	-0.464352	0.922925
Br261	Br	0.864818	-0.131019	1.256258
H262	H	-0.016435	-0.493372	-0.000187
H263	H	0.316899	-0.160039	0.333146
H264	H	0.650232	0.173294	0.666480
H265	H	-0.656124	-0.931675	-0.000261
H266	H	-0.322791	-0.598341	0.333072
H267	H	0.010543	-0.265008	0.666406
Br268	Br	-0.046476	-0.842293	0.409966
Br269	Br	0.286857	-0.508960	0.743299
Br270	Br	0.620190	-0.175626	1.076632
H271	H	-0.192209	-0.708291	-0.000164
H272	H	0.141124	-0.374958	0.333169
H273	H	0.474458	-0.041624	0.666503
H274	H	0.146267	-0.733789	0.333850
H275	H	0.479601	-0.400456	0.667183
H276	H	0.812934	-0.067122	1.000516
Br277	Br	0.167353	-0.708038	0.824757
Br278	Br	0.500686	-0.374705	1.158090
Br279	Br	0.834019	-0.041372	1.491424
H280	H	-0.014860	-0.624802	-0.000144
H281	H	0.318473	-0.291469	0.333190
H282	H	0.651807	0.041865	0.666523
H283	H	-0.630931	-0.701886	-0.000213
H284	H	-0.297598	-0.368552	0.333120
H285	H	0.035735	-0.035219	0.666453
H286	H	-0.020230	-0.177928	-0.000236
H287	H	0.313103	0.155405	0.333097
H288	H	0.646436	0.488738	0.666430
H289	H	0.005394	-0.906139	0.195509
H290	H	0.338727	-0.572806	0.528843
H291	H	0.672061	-0.239473	0.862176
Br292	Br	-0.046476	-0.842314	0.589641
Br293	Br	0.286857	-0.508981	0.922974
Br294	Br	0.620191	-0.175648	1.256308
Br295	Br	0.198150	-0.797736	0.409921
Br296	Br	0.531483	-0.464403	0.743254
Br297	Br	0.864817	-0.131070	1.076588
Br298	Br	-0.015678	-0.931970	0.645022
Br299	Br	0.317656	-0.598637	0.978356
Br300	Br	0.650989	-0.265303	1.311689
Br301	Br	-0.015683	-0.931938	0.354484
Br302	Br	0.317651	-0.598605	0.687817
Br303	Br	0.650984	-0.265271	1.021150
H304	H	-0.458486	-0.640978	-0.000215
H305	H	-0.125152	-0.307644	0.333118
H306	H	0.208181	0.025689	0.666452
Br307	Br	-0.237284	-0.972227	-0.000252
Br308	Br	0.096050	-0.638894	0.333082
Br309	Br	0.429383	-0.305560	0.666415
Br310	Br	0.167351	-0.708028	0.645082
Br311	Br	0.500684	-0.374694	0.978415
Br312	Br	0.834018	-0.041361	1.311748
H313	H	-0.350733	-0.642556	-0.000211
H314	H	-0.017400	-0.309223	0.333123
H315	H	0.315933	0.024111	0.666456
H316	H	-0.389829	-0.998986	-0.000263
H317	H	-0.056496	-0.665653	0.333070
H318	H	0.276838	-0.332320	0.666404
H319	H	-0.497577	-0.997412	-0.000276
H320	H	-0.164244	-0.664079	0.333058
H321	H	0.169089	-0.330746	0.666391
Br322	Br	-0.064543	-0.675728	-0.000163
Br323	Br	0.268791	-0.342395	0.333170
Br324	Br	0.602124	-0.009061	0.666503
Br325	Br	0.201894	-0.608427	-0.000194
Br326	Br	0.535227	-0.275094	0.333139
Br327	Br	0.868560	0.058239	0.666472
Br328	Br	-0.015681	-0.931970	0.824695
Br329	Br	0.317652	-0.598637	1.158029
Br330	Br	0.650985	-0.265303	1.491362
H331	H	0.171898	-0.462031	-0.000206
H332	H	0.505231	-0.128698	0.333127
H333	H	0.838565	0.204636	0.666460
H334	H	0.166526	-0.015161	-0.000281
H335	H	0.499859	0.318172	0.333052
H336	H	0.833192	0.651506	0.666385
H337	H	0.148763	-0.373644	0.076758
H338	H	0.482097	-0.040310	0.410091
H339	H	0.815430	0.293023	0.743424
Br340	Br	0.196521	-0.161559	-0.000272
Br341	Br	0.529855	0.171774	0.333061
Br342	Br	0.863188	0.505108	0.666395
Br343	Br	-0.050226	-0.031532	-0.000251
Br344	Br	0.283107	0.301801	0.333082
Br345	Br	0.616440	0.635135	0.666415
Br346	Br	-0.018909	-0.250261	-0.100256
Br347	Br	0.314424	0.083073	0.233077
Br348	Br	0.647757	0.416406	0.566410
H349	H	0.147181	-0.242217	0.076735
H350	H	0.480514	0.091117	0.410068
H351	H	0.813847	0.424450	0.743402
Br352	Br	-0.016862	-0.421014	-0.100217
Br353	Br	0.316471	-0.087680	0.233117
Br354	Br	0.649804	0.245653	0.566450
