data_functionalizedCrystal
_audit_creation_method	'MofGen! by Chris Wilmer'
_symmetry_space_group_name_H-M	'P1'
_symmetry_Int_Tables_number	1
_symmetry_cell_setting	triclinic
loop_
_symmetry_equiv_pos_as_xyz
  x,y,z
_cell_length_a	12.594517
_cell_length_b	10.685976
_cell_length_c	10.686551
_cell_angle_alpha	90.348485
_cell_angle_beta	85.599114
_cell_angle_gamma	94.357070
loop_
_atom_site_label
_atom_site_type_symbol
_atom_site_fract_x
_atom_site_fract_y
_atom_site_fract_z
Zn1	Zn	0.514686	1.972298	0.561933
Zn2	Zn	1.014686	2.472298	1.061933
Zn3	Zn	0.705237	1.956104	0.352197
Zn4	Zn	1.205237	2.456104	0.852197
Zn5	Zn	0.512687	1.746426	0.368308
Zn6	Zn	1.012687	2.246426	0.868308
Zn7	Zn	0.678034	1.762537	0.578022
Zn8	Zn	1.178034	2.262537	1.078022
O9	O	0.602661	1.859341	0.465115
O10	O	1.102661	2.359341	0.965115
O11	O	0.552184	2.145687	0.520636
O12	O	1.052184	2.645687	1.020636
O13	O	0.690243	1.914769	0.178794
O14	O	1.190243	2.414769	0.678794
O15	O	0.364009	1.776423	0.394002
O16	O	0.864009	2.276423	0.894002
O17	O	0.692181	2.133789	0.366544
O18	O	1.192181	2.633789	0.866544
O19	O	0.365477	1.942370	0.536257
O20	O	0.865477	2.442370	1.036257
O21	O	0.548778	1.760720	0.190630
O22	O	1.048778	2.260720	0.690630
O23	O	0.522400	1.573026	0.409603
O24	O	1.022400	2.073026	0.909603
O25	O	0.645817	1.803882	0.751429
O26	O	1.145817	2.303882	1.251429
O27	O	0.643879	1.584863	0.563678
O28	O	1.143879	2.084863	1.063678
O29	O	0.525807	1.957993	0.739608
O30	O	1.025807	2.457993	1.239608
O31	O	0.850572	1.930392	0.382144
O32	O	1.350572	2.430392	0.882144
O33	O	0.830587	1.788179	0.548057
O34	O	1.330587	2.288179	1.048057
C35	C	0.579972	1.533430	0.490135
C36	C	1.079972	2.033430	0.990135
C37	C	0.570289	1.394006	0.500869
C38	C	1.070289	1.894006	1.000869
C39	C	0.325043	1.859406	0.465132
C40	C	0.825043	2.359406	0.965132
C41	C	0.206739	1.859433	0.465139
C42	C	0.706739	2.359433	0.965139
C43	C	0.138284	1.949683	0.542518
C44	C	0.638284	2.449683	1.042518
C45	C	0.076506	1.971548	0.425722
C46	C	0.576506	2.471548	0.925722
C47	C	0.057721	1.837609	0.581939
C48	C	0.557721	2.337609	1.081939
C49	C	0.146527	1.881353	0.348278
C50	C	0.646527	2.381353	0.848278
C51	C	0.127740	1.747367	0.504576
C52	C	0.627740	2.247367	1.004576
C53	C	0.065996	1.769182	0.387704
C54	C	0.565996	2.269182	0.887704
C55	C	0.879200	1.859313	0.465123
C56	C	1.379200	2.359313	0.965123
C57	C	0.997510	1.859419	0.465159
C58	C	1.497510	2.359419	0.965159
C59	C	0.583001	1.884541	0.792307
C60	C	1.083001	2.384541	1.292307
C61	C	0.574622	1.895280	0.931737
C62	C	1.074622	2.395280	1.431737
C63	C	0.625440	2.186525	0.439998
C64	C	1.125440	2.686525	0.939998
C65	C	0.635147	2.325951	0.429294
C66	C	1.135147	2.825951	0.929294
C67	C	0.622173	1.834311	0.139191
C68	C	1.122173	2.334311	0.639191
C69	C	0.630269	1.823815	-0.000257
C70	C	1.130269	2.323815	0.499743
H71	H	0.698094	1.374357	0.359804
H72	H	1.198094	1.874357	0.859804
H73	H	0.520573	1.964689	0.980187
H74	H	1.020573	2.464689	1.480187
H75	H	0.507355	1.345608	0.570366
H76	H	1.007355	1.845608	1.070366
H77	H	0.185114	1.899924	0.249476
H78	H	0.685114	2.399924	0.749476
H79	H	0.170010	2.026058	0.607854
H80	H	0.670010	2.526058	1.107854
H81	H	0.053679	2.066313	0.392366
H82	H	0.553679	2.566313	0.892366
H83	H	0.034479	1.692848	0.322195
H84	H	0.534479	2.192848	0.822195
H85	H	0.150589	1.652630	0.537962
H86	H	0.650589	2.152630	1.037962
H87	H	0.684322	1.754419	0.951298
H88	H	1.184322	2.254419	1.451298
H89	H	0.019011	1.819156	0.680706
H90	H	0.519011	2.319156	1.180706
