data_functionalizedCrystal
_audit_creation_method	'MofGen! by Chris Wilmer'
_symmetry_space_group_name_H-M	'P1'
_symmetry_Int_Tables_number	1
_symmetry_cell_setting	triclinic
loop_
_symmetry_equiv_pos_as_xyz
  x,y,z
_cell_length_a	17.019282
_cell_length_b	15.500215
_cell_length_c	10.723024
_cell_angle_alpha	93.157403
_cell_angle_beta	83.927098
_cell_angle_gamma	89.309895
loop_
_atom_site_label
_atom_site_type_symbol
_atom_site_fract_x
_atom_site_fract_y
_atom_site_fract_z
O1	O	1.047260	-0.006109	0.158445
O2	O	0.818487	0.010943	0.179961
O3	O	0.938151	0.002021	-0.012483
O4	O	0.927597	0.002814	0.350889
O5	O	0.931564	-0.141378	-0.022789
O6	O	0.811900	-0.132455	0.169655
O7	O	1.040674	-0.149507	0.148140
Cu8	Cu	0.925686	-0.154075	0.157956
Cu9	Cu	0.933475	0.015511	0.170144
O10	O	0.921010	-0.140585	0.340584
C11	C	0.785900	-0.058573	0.174199
C12	C	0.698616	-0.052067	0.172368
C13	C	0.654024	-0.127179	0.165887
C14	C	0.572012	-0.121069	0.164147
C15	C	0.534594	-0.039845	0.168897
C16	C	0.579192	0.035272	0.175374
C17	C	0.661203	0.029161	0.177106
C18	C	0.287154	-0.017483	0.163942
C19	C	0.205137	-0.011377	0.162214
C20	C	0.197964	-0.167719	0.150984
C21	C	0.279976	-0.173823	0.152724
C22	C	0.324567	-0.098706	0.159195
C23	C	0.450764	-0.033598	0.167122
C24	C	0.408396	-0.104954	0.160960
N25	N	0.920213	-0.273352	0.149383
C26	C	0.966229	-0.322054	0.221522
C27	C	0.962100	-0.412319	0.215030
C28	C	0.911951	-0.453881	0.136406
C29	C	0.865934	-0.405173	0.064259
C30	C	0.870067	-0.314910	0.070745
C31	C	0.897070	-0.726241	0.113046
C32	C	0.892938	-0.816511	0.106569
C33	C	0.989106	-0.823650	0.257339
C34	C	0.993231	-0.733385	0.263823
C35	C	0.947217	-0.684685	0.191672
C36	C	0.907728	-0.546147	0.129772
C37	C	0.951445	-0.592421	0.198300
C38	C	1.073261	-0.079989	0.153902
C39	C	1.160545	-0.086489	0.155733
C40	C	0.934089	-0.069620	-0.064120
C41	C	0.931792	-0.069446	-0.202626
N42	N	0.938954	0.134788	0.178707
C43	C	0.998749	-0.074435	-0.279002
C44	C	0.996376	-0.074255	-0.422156
C45	C	0.925072	-0.068942	0.392220
C46	C	0.927370	-0.069111	0.530727
H47	H	0.697509	0.090325	0.182385
H48	H	1.034070	-0.699551	0.327844
H49	H	0.548720	0.101406	0.179233
H50	H	0.859602	-0.686600	0.054294
H51	H	0.852097	-0.850347	0.042543
H52	H	0.438866	-0.171086	0.157087
H53	H	1.007060	-0.288220	0.285554
H54	H	0.832596	-0.275258	0.012002
H55	H	1.057831	-0.078844	-0.238410
C56	C	1.039724	-0.877228	0.336690
N57	N	1.077855	-0.917583	0.396456
C58	C	0.522962	-0.203699	0.157046
N59	N	0.486018	-0.265939	0.151707
H60	H	0.992279	-0.558578	0.262311
H61	H	0.174673	0.054768	0.166086
H62	H	0.825106	-0.439021	0.000235
C63	C	0.852558	-0.591874	0.043299
N64	N	0.811003	-0.626318	-0.021831
H65	H	1.053697	-0.078531	-0.487782
C66	C	0.851971	-0.063498	-0.257457
N67	N	0.791848	-0.059020	-0.298755
C68	C	0.336195	0.065150	0.171050
N69	N	0.373136	0.127393	0.176399
H70	H	0.684483	-0.193320	0.162029
H71	H	0.420289	0.032535	0.170988
H72	H	0.310436	-0.239964	0.148850
C73	C	0.148907	-0.250343	0.143854
N74	N	0.111958	-0.312578	0.138476
H75	H	0.870045	-0.064845	-0.403655
H76	H	0.999572	-0.451968	0.273771
