data_functionalizedCrystal
_audit_creation_method	'MofGen! by Chris Wilmer'
_symmetry_space_group_name_H-M	'P1'
_symmetry_Int_Tables_number	1
_symmetry_cell_setting	triclinic
loop_
_symmetry_equiv_pos_as_xyz
  x,y,z
_cell_length_a	14.853558
_cell_length_b	14.971500
_cell_length_c	14.048226
_cell_angle_alpha	89.997740
_cell_angle_beta	89.994800
_cell_angle_gamma	83.625527
loop_
_atom_site_label
_atom_site_type_symbol
_atom_site_fract_x
_atom_site_fract_y
_atom_site_fract_z
O1	O	1.196357	0.116742	-0.079124
O2	O	1.696357	0.616742	0.420876
O3	O	0.933894	0.130662	-0.079131
O4	O	1.433894	0.630662	0.420869
O5	O	1.072153	-0.006496	-0.079131
O6	O	1.572153	0.493504	0.420869
O7	O	1.058097	0.253900	-0.079124
O8	O	1.558097	0.753900	0.420876
O9	O	1.072137	-0.006504	0.079190
O10	O	1.572137	0.493496	0.579190
O11	O	0.933877	0.130654	0.079191
O12	O	1.433877	0.630654	0.579191
O13	O	1.196340	0.116734	0.079198
O14	O	1.696340	0.616734	0.579198
Zn15	Zn	1.065106	0.123693	0.104331
Zn16	Zn	1.565106	0.623693	0.604331
Zn17	Zn	1.065128	0.123703	-0.104264
Zn18	Zn	1.565128	0.623703	0.395736
O19	O	1.058081	0.253892	0.079198
O20	O	1.558081	0.753892	0.579198
C21	C	0.900297	0.130028	0.000029
C22	C	1.400297	0.630028	0.500029
C23	C	0.800213	0.128143	0.000026
C24	C	1.300213	0.628143	0.500026
C25	C	1.229937	0.117367	0.000036
C26	C	1.729937	0.617367	0.500036
C27	C	1.330021	0.119253	0.000033
C28	C	1.830021	0.619253	0.500033
C29	C	1.377046	0.120142	-0.086273
C30	C	1.877046	0.620142	0.413727
C31	C	1.377038	0.120143	0.086335
C32	C	1.877038	0.620143	0.586335
C33	C	1.471071	0.121920	0.086336
C34	C	1.971071	0.621920	0.586336
C35	C	1.518096	0.122808	0.000030
C36	C	2.018096	0.622808	0.500030
C37	C	1.471087	0.121921	-0.086275
C38	C	1.971087	0.621921	0.413725
C39	C	1.518086	0.122817	0.172640
C40	C	2.018086	0.622817	0.672640
C41	C	1.612125	0.124594	0.172643
C42	C	2.112125	0.624594	0.672643
C43	C	1.659152	0.125476	0.086337
C44	C	2.159152	0.625476	0.586337
C45	C	1.612138	0.124587	0.000028
C46	C	2.112138	0.624587	0.500028
C47	C	1.659163	0.125476	-0.086277
C48	C	2.159163	0.625476	0.413723
C49	C	1.612151	0.124581	-0.172587
C50	C	2.112151	0.624581	0.327413
C51	C	1.518115	0.122803	-0.172581
C52	C	2.018115	0.622803	0.327419
C53	C	1.753188	0.127254	0.086331
C54	C	2.253188	0.627254	0.586331
C55	C	1.753204	0.127255	-0.086280
C56	C	2.253204	0.627255	0.413720
C57	C	1.071514	-0.039825	0.000027
C58	C	1.571514	0.460175	0.500027
C59	C	1.069624	-0.139122	0.000018
C60	C	1.569624	0.360878	0.500018
C61	C	1.058720	0.287221	0.000038
C62	C	1.558720	0.787221	0.500038
C63	C	1.060610	0.386517	0.000041
C64	C	1.560610	0.886517	0.500041
N65	N	1.065098	0.123685	0.246692
N66	N	1.565098	0.623685	0.746692
C67	C	1.068744	0.814231	-0.086282
C68	C	1.568744	1.314231	0.413718
C69	C	1.066966	0.720932	-0.086278
C70	C	1.566966	1.220932	0.413722
C71	C	1.066074	0.674280	0.000026
C72	C	1.566074	1.174280	0.500026
C73	C	1.066951	0.720934	0.086332
C74	C	1.566951	1.220934	0.586332
C75	C	1.068722	0.814233	0.086328
C76	C	1.568722	1.314233	0.586328
C77	C	1.063260	0.526470	0.086336
C78	C	1.563260	1.026470	0.586336
C79	C	1.061490	0.433165	0.086340
C80	C	1.561490	0.933165	0.586340
C81	C	1.061503	0.433169	-0.086271
C82	C	1.561503	0.933169	0.413729
C83	C	1.063275	0.526467	-0.086275
C84	C	1.563275	1.026467	0.413725
C85	C	1.064154	0.573115	0.000032
C86	C	1.564154	1.073115	0.500032
N87	N	1.065143	0.123704	-0.246625
N88	N	1.565143	0.623704	0.253375
C89	C	1.126338	0.062976	0.296510
C90	C	1.626338	0.562976	0.796510
C91	C	1.126344	0.062976	0.396167
C92	C	1.626344	0.562976	0.896167
C93	C	1.065113	0.123689	0.446005
C94	C	1.565113	0.623689	0.946005
C95	C	1.003866	0.184400	0.396180
C96	C	1.503866	0.684400	0.896180
C97	C	1.003857	0.184396	0.296524
C98	C	1.503857	0.684396	0.796524
C99	C	1.003892	0.184407	0.603894
C100	C	1.503892	0.684407	1.103894
C101	C	1.003903	0.184412	0.703557
C102	C	1.503903	0.684412	1.203557
C103	C	1.126380	0.062987	0.703537
C104	C	1.626380	0.562987	1.203537
C105	C	1.126370	0.062982	0.603882
C106	C	1.626370	0.562982	1.103882
C107	C	1.065124	0.123695	0.554064
C108	C	1.565124	0.623695	1.054064
H109	H	1.791486	0.127976	-0.156561
H110	H	2.291486	0.627976	0.343439
Br111	Br	1.069964	0.877534	-0.203416
Br112	Br	1.569964	1.377534	0.296584
Br113	Br	1.060307	0.369863	-0.203401
Br114	Br	1.560307	0.869863	0.296599
H115	H	1.479829	0.122073	-0.242850
H116	H	1.979829	0.622073	0.257150
Br117	Br	1.816985	0.128479	0.203455
Br118	Br	2.316985	0.628479	0.703455
Br119	Br	1.060283	0.369851	0.203469
Br120	Br	1.560283	0.869851	0.703469
Br121	Br	1.454262	0.121626	0.289761
Br122	Br	1.954262	0.621626	0.789761
H123	H	1.650450	0.125311	-0.242857
H124	H	2.150450	0.625311	0.257143
H125	H	1.338765	0.119409	-0.156544
H126	H	1.838765	0.619409	0.343456
Br127	Br	1.313217	0.118952	0.203458
Br128	Br	1.813217	0.618952	0.703458
H129	H	1.650394	0.125321	0.242922
H130	H	2.150394	0.625321	0.742922
Br131	Br	1.064454	0.589777	0.203467
Br132	Br	1.564454	1.089777	0.703467
Br133	Br	1.065771	0.657628	-0.203405
Br134	Br	1.565771	1.157628	0.296595
H135	H	1.176210	0.013542	0.436729
H136	H	1.676210	0.513542	0.936729
H137	H	1.064008	0.564447	-0.156552
H138	H	1.564008	1.064447	0.343448
H139	H	1.066219	0.682944	0.156603
H140	H	1.566219	1.182944	0.656603
H141	H	0.954016	0.233842	0.563336
H142	H	1.454016	0.733842	1.063336
H143	H	1.069426	0.852214	0.156602
H144	H	1.569426	1.352214	0.656602
Br145	Br	1.209449	-0.019418	0.228883
Br146	Br	1.709449	0.480582	0.728883
Br147	Br	1.209476	-0.019406	0.536241
Br148	Br	1.709476	0.480594	1.036241
Br149	Br	1.209502	-0.019404	0.771150
Br150	Br	1.709502	0.480596	1.271150
Br151	Br	0.920800	0.266812	0.771187
Br152	Br	1.420800	0.766812	1.271187
Br153	Br	0.920758	0.266792	0.463813
Br154	Br	1.420758	0.766792	0.963813
Br155	Br	0.920735	0.266783	0.228914
Br156	Br	1.420735	0.766783	0.728914
