data_functionalizedCrystal
_audit_creation_method	'MofGen! by Chris Wilmer'
_symmetry_space_group_name_H-M	'P1'
_symmetry_Int_Tables_number	1
_symmetry_cell_setting	triclinic
loop_
_symmetry_equiv_pos_as_xyz
  x,y,z
_cell_length_a	19.288867
_cell_length_b	14.044190
_cell_length_c	17.766277
_cell_angle_alpha	90.013017
_cell_angle_beta	89.997573
_cell_angle_gamma	88.164423
loop_
_atom_site_label
_atom_site_type_symbol
_atom_site_fract_x
_atom_site_fract_y
_atom_site_fract_z
O1	O	0.928940	0.118227	0.062576
O2	O	0.727704	0.134172	0.062584
O3	O	0.825299	-0.011772	0.062566
O4	O	0.831345	0.264172	0.062595
O5	O	0.825301	-0.011787	-0.062623
O6	O	0.727706	0.134158	-0.062604
O7	O	0.928942	0.118213	-0.062612
Cu8	Cu	0.828324	0.126184	-0.074039
Cu9	Cu	0.828322	0.126201	0.074011
O10	O	0.831347	0.264157	-0.062594
C11	C	0.701796	0.133652	-0.000009
C12	C	0.624593	0.132111	-0.000006
C13	C	0.068313	0.121018	0.068224
C14	C	0.140854	0.122461	0.068227
C15	C	0.177130	0.123178	-0.000013
C16	C	0.140861	0.122429	-0.068261
C17	C	0.068322	0.120977	-0.068262
C18	C	0.290173	0.180974	-0.052288
C19	C	0.362710	0.182432	-0.052284
C20	C	0.400863	0.127652	-0.000013
C21	C	0.366470	0.071426	0.052267
C22	C	0.293931	0.069975	0.052266
C23	C	0.255786	0.124752	-0.000020
C24	C	0.515780	0.129958	0.068234
C25	C	0.588322	0.131395	0.068234
C26	C	0.588327	0.131373	-0.068256
C27	C	0.515787	0.129927	-0.068254
C28	C	0.479518	0.129224	-0.000007
C29	C	0.822655	-0.047083	-0.000031
C30	C	0.814765	-0.152275	-0.000037
C31	C	0.856297	-0.402738	-0.000009
C32	C	0.800352	-0.344871	-0.000012
C33	C	0.808373	-0.237701	-0.000026
C34	C	0.848277	-0.509918	0.000005
C35	C	0.954850	0.118734	-0.000017
C36	C	1.032053	0.120275	-0.000015
C37	C	0.833991	0.299468	0.000004
C38	C	0.841881	0.404660	0.000016
N39	N	0.828321	0.126206	0.178141
N40	N	0.828330	0.126171	-0.178169
C41	C	0.871628	0.061708	0.217520
C42	C	0.871634	0.061706	0.296322
C43	C	0.828320	0.126194	0.335742
C44	C	0.785010	0.190705	0.296354
C45	C	0.785010	0.190711	0.217553
C46	C	0.765834	0.138670	0.460590
C47	C	0.765833	0.138658	0.539389
C48	C	0.828319	0.126181	0.578788
C49	C	0.890809	0.113696	0.539379
C50	C	0.890809	0.113702	0.460578
C51	C	0.828315	0.126195	0.421188
C52	C	0.871636	0.061677	0.703613
C53	C	0.871644	0.061682	0.782416
C54	C	0.785014	0.190675	0.782447
C55	C	0.785013	0.190675	0.703645
C56	C	0.828323	0.126171	0.664233
H57	H	0.486248	0.129383	0.123805
H58	H	0.906905	0.009156	0.671522
O59	O	0.913740	-0.000810	0.179151
C60	C	0.959662	0.049921	0.133596
H61	H	0.936498	0.124117	0.121812
H62	H	0.968252	0.010357	0.078173
H63	H	1.011370	0.056312	0.163966
H64	H	0.910212	-0.371794	-0.000019
H65	H	0.941692	0.103544	0.571456
O66	O	0.176177	0.123002	-0.134501
C67	C	0.220909	0.041778	-0.138597
H68	H	0.232700	0.014652	-0.079348
H69	H	0.271293	0.061250	-0.167477
H70	H	0.194905	-0.016246	-0.172278
O71	O	0.913722	-0.001046	0.334468
C72	C	0.951962	-0.057958	0.282784
H73	H	0.923433	-0.058996	0.226611
H74	H	0.957962	-0.133666	0.305536
H75	H	1.005411	-0.027236	0.274413
H76	H	0.746432	-0.375817	-0.000006
O77	O	0.260597	0.015414	0.103143
C78	C	0.277313	0.044877	0.176626
H79	H	0.328736	0.082670	0.175665
H80	H	0.281991	-0.019991	0.215070
H81	H	0.234732	0.095774	0.198564
H82	H	0.941691	0.103540	0.428494
O83	O	0.913736	-0.001066	0.820554
C84	C	0.951972	-0.057978	0.768866
H85	H	0.923437	-0.059019	0.712697
H86	H	0.957977	-0.133685	0.791619
H87	H	1.005419	-0.027253	0.760487
O88	O	0.033201	0.120305	-0.134620
C89	C	0.080771	0.121218	-0.194853
H90	H	0.131462	0.152246	-0.174846
H91	H	0.058255	0.166788	-0.242578
H92	H	0.091060	0.045360	-0.215841
O93	O	0.743038	0.253364	0.820811
C94	C	0.783769	0.311821	0.866385
H95	H	0.835815	0.274017	0.878181
H96	H	0.755696	0.326845	0.921801
H97	H	0.792731	0.381868	0.836026
O98	O	0.742873	0.253358	0.665505
C99	C	0.704656	0.310295	0.717192
H100	H	0.701519	0.271431	0.773356
H101	H	0.650080	0.324806	0.694430
H102	H	0.731466	0.380688	0.725587
H103	H	0.714949	0.148812	0.571470
H104	H	0.714947	0.148835	0.428518
H105	H	0.749744	0.243213	0.328454
O106	O	0.742834	0.253269	0.179331
C107	C	0.673168	0.237936	0.198603
H108	H	0.668234	0.162049	0.220253
H109	H	0.638979	0.248868	0.146786
H110	H	0.655955	0.290492	0.244354
O111	O	0.033192	0.120282	0.134584
C112	C	0.080757	0.121268	0.194815
H113	H	0.133485	0.092312	0.174804
H114	H	0.061360	0.074855	0.242539
H115	H	0.085890	0.197433	0.215807
H116	H	0.170383	0.123071	0.123797
H117	H	0.397533	0.026822	0.094833
H118	H	0.617863	0.131953	-0.123818
O119	O	0.623439	0.132154	0.134593
C120	C	0.575869	0.131198	0.194824
H121	H	0.523146	0.160158	0.174818
H122	H	0.595268	0.177625	0.242554
H123	H	0.570727	0.055043	0.215806
H124	H	0.486263	0.129325	-0.123822
H125	H	0.259114	0.225578	-0.094861
O126	O	0.396008	0.237069	-0.103137
C127	C	0.346780	0.285116	-0.149268
H128	H	0.296405	0.244826	-0.149179
H129	H	0.367622	0.289109	-0.209191
H130	H	0.336508	0.360262	-0.126737
