data_functionalizedCrystal
_audit_creation_method	'MofGen! by Chris Wilmer'
_symmetry_space_group_name_H-M	'P1'
_symmetry_Int_Tables_number	1
_symmetry_cell_setting	triclinic
loop_
_symmetry_equiv_pos_as_xyz
  x,y,z
_cell_length_a	10.723022
_cell_length_b	10.723024
_cell_length_c	7.540329
_cell_angle_alpha	89.997572
_cell_angle_beta	89.997341
_cell_angle_gamma	84.467548
loop_
_atom_site_label
_atom_site_type_symbol
_atom_site_fract_x
_atom_site_fract_y
_atom_site_fract_z
O1	O	1.657187	0.175016	-0.147466
O2	O	1.294034	0.191771	-0.147472
O3	O	1.483987	0.001818	-0.147462
O4	O	1.467234	0.364970	-0.147476
O5	O	1.483976	0.001815	0.147503
O6	O	1.294023	0.191769	0.147493
O7	O	1.657176	0.175014	0.147499
Cu8	Cu	1.475598	0.183391	0.174429
Cu9	Cu	1.475612	0.183394	-0.174402
O10	O	1.467223	0.364968	0.147490
C11	C	1.247529	0.190551	0.000010
C12	C	1.108975	0.186904	0.000008
C13	C	1.060414	0.077365	0.000011
C14	C	0.917211	0.073593	0.000009
C15	C	1.482763	-0.044683	0.000018
C16	C	1.479115	-0.183238	0.000012
C17	C	1.585403	-0.258221	0.000011
C18	C	1.581635	-0.401424	0.000005
C19	C	1.703681	0.176234	0.000013
C20	C	1.842235	0.179881	0.000004
C21	C	1.468448	0.411468	0.000005
C22	C	1.472095	0.550023	-0.000000
N23	N	1.475598	0.183388	0.419777
N24	N	1.475622	0.183387	-0.419750
H25	H	0.884039	0.273673	0.000011
C26	C	1.704564	-0.488467	0.000005
N27	N	1.797158	-0.554032	0.000003
H28	H	0.875399	-0.020195	-0.000033
C29	C	1.021921	0.309831	0.000004
N30	N	0.956354	0.402423	0.000004
C31	C	1.147467	-0.045562	0.000028
N32	N	1.213034	-0.138154	0.000048
H33	H	1.679188	-0.216399	0.000023
C34	C	1.349161	-0.362942	-0.000001
N35	N	1.256567	-0.297377	-0.000006
H36	H	1.385329	-0.225059	-0.000001
