data_functionalizedCrystal
_audit_creation_method	'MofGen! by Chris Wilmer'
_symmetry_space_group_name_H-M	'P1'
_symmetry_Int_Tables_number	1
_symmetry_cell_setting	triclinic
loop_
_symmetry_equiv_pos_as_xyz
  x,y,z
_cell_length_a	12.759401
_cell_length_b	21.295417
_cell_length_c	12.759393
_cell_angle_alpha	90.038095
_cell_angle_beta	90.019676
_cell_angle_gamma	90.030933
loop_
_atom_site_label
_atom_site_type_symbol
_atom_site_fract_x
_atom_site_fract_y
_atom_site_fract_z
Zn1	Zn	1.606151	-0.250572	0.593929
Zn2	Zn	1.605994	-0.355854	0.418226
Zn3	Zn	1.430450	-0.250603	0.418268
Zn4	Zn	1.430393	-0.355808	0.593867
O5	O	1.518247	-0.303209	0.506073
O6	O	1.753151	-0.264544	0.570630
O7	O	1.582665	-0.341924	0.271210
O8	O	1.453846	-0.162509	0.441614
O9	O	1.753035	-0.341894	0.441542
O10	O	1.582933	-0.162486	0.570671
O11	O	1.453694	-0.264597	0.271242
O12	O	1.283421	-0.264553	0.441553
O13	O	1.453750	-0.341815	0.740896
O14	O	1.283380	-0.341846	0.570565
O15	O	1.582878	-0.264499	0.740942
O16	O	1.582610	-0.443937	0.441482
O17	O	1.453597	-0.443903	0.570524
C18	C	1.245279	-0.303198	0.506058
C19	C	1.128503	-0.303209	0.506076
C20	C	1.073702	-0.263005	0.573396
C21	C	0.963978	-0.263012	0.573403
C22	C	0.963866	-0.343430	0.438767
C23	C	1.073588	-0.343420	0.438756
C24	C	1.518109	-0.466761	0.506014
C25	C	1.518146	-0.536729	0.506025
C26	C	1.585383	-0.569592	0.438901
C27	C	1.585432	-0.635335	0.438925
C28	C	1.518226	-0.668211	0.506061
C29	C	1.450985	-0.635340	0.573198
C30	C	1.450945	-0.569599	0.573180
N31	N	1.426319	-0.771477	0.514065
N32	N	1.426360	-0.833928	0.514076
C33	C	1.518344	-0.866286	0.506121
N34	N	1.610287	-0.833833	0.498134
N35	N	1.610245	-0.771376	0.498117
C36	C	1.518262	-0.739497	0.506089
C37	C	1.585639	-0.970435	0.439019
C38	C	1.585690	-1.036178	0.439050
C39	C	1.451233	-1.036183	0.573318
C40	C	1.451192	-0.970440	0.573293
C41	C	1.518393	-0.937570	0.506138
C42	C	1.792280	-0.303220	0.506088
C43	C	1.909057	-0.303225	0.506095
C44	C	1.518325	-0.303149	0.780106
C45	C	1.518359	-0.303123	0.896883
C46	C	1.518414	-0.139019	0.506154
C47	C	1.518485	-0.069051	0.506189
C48	C	1.518229	-0.303224	0.233105
C49	C	1.518399	-0.303072	0.116329
C50	C	1.585601	-0.262858	0.951770
C51	C	1.585619	-0.262831	1.061494
C52	C	1.451149	-0.343339	1.061434
C53	C	1.451127	-0.343363	0.951712
H54	H	0.919140	-0.376170	0.383959
H55	H	1.640343	-0.230090	0.907132
O56	O	1.132700	-0.386786	0.366140
H57	H	1.182673	-0.358563	0.312768
O58	O	0.904875	-0.219646	0.646013
H59	H	0.819352	-0.226400	0.634705
O60	O	1.658146	-0.934972	0.366627
H61	H	1.611149	-0.905071	0.313113
O62	O	1.378400	-0.534153	0.645566
H63	H	1.396369	-0.546720	0.728045
H64	H	1.396363	-0.376151	0.907021
H65	H	1.640105	-0.542831	0.384222
H66	H	1.640373	-0.230042	1.106179
O67	O	1.657945	-0.670793	0.366516
H68	H	1.704661	-0.636891	0.319811
O69	O	1.378661	-0.934993	0.645687
H70	H	1.389930	-0.883756	0.634402
O71	O	1.132932	-0.219626	0.645988
H72	H	1.111896	-0.230475	0.728415
O73	O	1.378644	-0.386740	1.120578
H74	H	1.331874	-0.414738	1.063974
H75	H	1.396267	-0.662112	0.627862
H76	H	1.396517	-1.062950	0.627986
H77	H	1.640449	-1.062935	0.384392
