data_functionalizedCrystal
_audit_creation_method	'MofGen! by Chris Wilmer'
_symmetry_space_group_name_H-M	'P1'
_symmetry_Int_Tables_number	1
_symmetry_cell_setting	triclinic
loop_
_symmetry_equiv_pos_as_xyz
  x,y,z
_cell_length_a	17.638686
_cell_length_b	16.625545
_cell_length_c	17.640968
_cell_angle_alpha	101.230628
_cell_angle_beta	114.307628
_cell_angle_gamma	78.792475
loop_
_atom_site_label
_atom_site_type_symbol
_atom_site_fract_x
_atom_site_fract_y
_atom_site_fract_z
Zn1	Zn	1.354048	-0.452153	0.720214
Zn2	Zn	1.687381	-0.118820	1.053548
Zn3	Zn	2.020714	0.214513	1.386881
Zn4	Zn	1.326075	-0.609645	0.582385
Zn5	Zn	1.659408	-0.276312	0.915719
Zn6	Zn	1.992741	0.057022	1.249052
Zn7	Zn	1.188375	-0.452115	0.554609
Zn8	Zn	1.521708	-0.118782	0.887942
Zn9	Zn	1.855041	0.214551	1.221276
Zn10	Zn	1.216192	-0.564219	0.692352
Zn11	Zn	1.549526	-0.230885	1.025685
Zn12	Zn	1.882859	0.102448	1.359019
O13	O	1.271172	-0.519533	0.637390
O14	O	1.604506	-0.186200	0.970724
O15	O	1.937839	0.147134	1.304057
O16	O	1.465658	-0.492072	0.725216
O17	O	1.798991	-0.158739	1.058549
O18	O	2.132325	0.174595	1.391883
O19	O	1.284460	-0.607743	0.463373
O20	O	1.617793	-0.274410	0.796706
O21	O	1.951127	0.058923	1.130040
O22	O	1.210417	-0.339294	0.576613
O23	O	1.543750	-0.005961	0.909946
O24	O	1.877083	0.327373	1.243279
O25	O	1.445106	-0.607780	0.623954
O26	O	1.778440	-0.274447	0.957287
O27	O	2.111773	0.058886	1.290620
O28	O	1.332136	-0.339322	0.698282
O29	O	1.665469	-0.005989	1.031616
O30	O	1.998803	0.327345	1.364949
O31	O	1.183292	-0.492007	0.442966
O32	O	1.516626	-0.158674	0.776299
O33	O	1.849959	0.174660	1.109632
O34	O	1.076744	-0.447959	0.549596
O35	O	1.410077	-0.114626	0.882929
O36	O	1.743410	0.218708	1.216262
O37	O	1.257828	-0.530358	0.811376
O38	O	1.591161	-0.197024	1.144709
O39	O	1.924494	0.136309	1.478043
O40	O	1.097181	-0.530321	0.650795
O41	O	1.430515	-0.196987	0.984128
O42	O	1.763848	0.136346	1.317462
O43	O	1.359109	-0.448024	0.831846
O44	O	1.692443	-0.114691	1.165179
O45	O	2.025776	0.218643	1.498513
O46	O	1.311434	-0.716445	0.596937
O47	O	1.644767	-0.383112	0.930270
O48	O	1.978100	-0.049779	1.263604
O49	O	1.230703	-0.683071	0.677729
O50	O	1.564037	-0.349737	1.011062
O51	O	1.897370	-0.016404	1.344396
C52	C	1.057061	-0.484207	0.594158
C53	C	1.390395	-0.150874	0.927492
C54	C	1.723728	0.182460	1.260825
C55	C	0.965467	-0.469110	0.575683
C56	C	1.298801	-0.135777	0.909016
C57	C	1.632134	0.197556	1.242350
C58	C	0.717456	-0.634361	0.777952
C59	C	1.050790	-0.301028	1.111285
C60	C	1.384123	0.032306	1.444618
C61	C	0.631386	-0.620172	0.760571
C62	C	0.964719	-0.286839	1.093904
C63	C	1.298053	0.046495	1.427237
C64	C	0.610104	-0.534222	0.655355
C65	C	0.943437	-0.200888	0.988688
C66	C	1.276771	0.132445	1.322022
C67	C	0.696174	-0.548407	0.672724
C68	C	1.029507	-0.215074	1.006058
C69	C	1.362841	0.118260	1.339391
C70	C	0.749844	-0.598477	0.734024
C71	C	1.083177	-0.265143	1.067357
C72	C	1.416510	0.068190	1.400691
C73	C	0.728561	-0.512522	0.628797
C74	C	1.061895	-0.179189	0.962130
C75	C	1.395228	0.154144	1.295464
C76	C	0.814624	-0.526703	0.646168
C77	C	1.147957	-0.193370	0.979501
C78	C	1.481291	0.139964	1.312835
C79	C	0.868300	-0.576768	0.707467
C80	C	1.201633	-0.243435	1.040800
C81	C	1.534966	0.089898	1.374133
C82	C	0.835907	-0.612657	0.751395
C83	C	1.169240	-0.279324	1.084729
C84	C	1.502573	0.054009	1.418062
C85	C	0.674891	-0.462448	0.567502
C86	C	1.008224	-0.129115	0.900835
C87	C	1.341557	0.204218	1.234168
C88	C	0.707278	-0.426564	0.523574
C89	C	1.040611	-0.093230	0.856907
C90	C	1.373945	0.240103	1.190241
C91	C	0.793342	-0.440749	0.540941
C92	C	1.126675	-0.107416	0.874274
C93	C	1.460008	0.225918	1.207607
C94	C	0.847017	-0.490814	0.602239
C95	C	1.180350	-0.157481	0.935573
C96	C	1.513684	0.175852	1.268906
C97	C	0.825735	-0.404860	0.497012
C98	C	1.159068	-0.071527	0.830346
C99	C	1.492401	0.261807	1.163679
C100	C	0.911797	-0.419041	0.514383
C101	C	1.245131	-0.085707	0.847717
C102	C	1.578464	0.247626	1.181050
C103	C	0.933080	-0.504995	0.619611
C104	C	1.266413	-0.171662	0.952944
C105	C	1.599747	0.161672	1.286277
C106	C	1.271078	-0.729013	0.637346
C107	C	1.604411	-0.395680	0.970679
C108	C	1.937744	-0.062347	1.304013
C109	C	1.271118	-0.818638	0.637370
C110	C	1.604451	-0.485305	0.970703
C111	C	1.937785	-0.151971	1.304037
C112	C	1.271153	-0.891423	0.637393
C113	C	1.604487	-0.558090	0.970726
C114	C	1.937820	-0.224756	1.304060
C115	C	1.271205	-0.982736	0.637421
C116	C	1.604538	-0.649403	0.970754
C117	C	1.937872	-0.316070	1.304088
C118	C	1.271250	-1.055518	0.637440
C119	C	1.604583	-0.722185	0.970773
C120	C	1.937916	-0.388851	1.304107
C121	C	1.271300	-1.146837	0.637466
C122	C	1.604634	-0.813504	0.970800
C123	C	1.937967	-0.480171	1.304133
C124	C	1.486120	-0.554998	0.680791
C125	C	1.819453	-0.221664	1.014125
C126	C	2.152786	0.111669	1.347458
C127	C	1.577717	-0.570111	0.699286
C128	C	1.911051	-0.236777	1.032620
C129	C	2.244384	0.096556	1.365953
C130	C	1.314692	-0.484128	0.852350
C131	C	1.648025	-0.150795	1.185684
C132	C	1.981358	0.182539	1.519017
C133	C	1.333237	-0.469040	0.943954
C134	C	1.666570	-0.135707	1.277287
C135	C	1.999904	0.197626	1.610620
C136	C	1.271294	-0.309235	0.637457
C137	C	1.604627	0.024098	0.970790
C138	C	1.937960	0.357431	1.304124
C139	C	1.271345	-0.219619	0.637485
C140	C	1.604679	0.113714	0.970819
C141	C	1.938012	0.447048	1.304152
C142	C	1.227870	-0.554750	0.423276
C143	C	1.561203	-0.221417	0.756609
C144	C	1.894536	0.111917	1.089943
C145	C	1.209484	-0.569637	0.331705
C146	C	1.542817	-0.236304	0.665039
C147	C	1.876151	0.097030	0.998372
C148	C	1.130602	-0.633765	1.191943
C149	C	1.463935	-0.300432	1.525276
C150	C	1.797268	0.032901	1.858609
C151	C	1.148045	-0.619581	1.278021
C152	C	1.481379	-0.286247	1.611355
C153	C	1.814712	0.047086	1.944688
C154	C	1.253501	-0.533854	1.299325
C155	C	1.586834	-0.200521	1.632658
C156	C	1.920168	0.132813	1.965991
C157	C	1.236063	-0.548028	1.213245
C158	C	1.569397	-0.214695	1.546579
C159	C	1.902730	0.118639	1.879912
C160	C	1.174614	-0.597985	1.159561
C161	C	1.507947	-0.264652	1.492894
C162	C	1.841280	0.068682	1.826228
C163	C	1.280075	-0.512248	1.180864
C164	C	1.613409	-0.178914	1.514197
C165	C	1.946742	0.154419	1.847531
C166	C	1.262642	-0.526424	1.094793
C167	C	1.595975	-0.193091	1.428126
C168	C	1.929309	0.140242	1.761459
C169	C	1.201197	-0.576381	1.041103
C170	C	1.534530	-0.243048	1.374437
C171	C	1.867863	0.090286	1.707770
C172	C	1.157180	-0.612162	1.073490
C173	C	1.490514	-0.278828	1.406823
C174	C	1.823847	0.054505	1.740156
C175	C	1.341529	-0.462296	1.234551
C176	C	1.674862	-0.128962	1.567884
C177	C	2.008196	0.204371	1.901217
C178	C	1.385541	-0.426515	1.202169
C179	C	1.718874	-0.093182	1.535502
C180	C	2.052208	0.240151	1.868836
C181	C	1.368104	-0.440687	1.116096
C182	C	1.701437	-0.107354	1.449429
C183	C	2.034770	0.225980	1.782762
C184	C	1.306658	-0.490644	1.062406
C185	C	1.639992	-0.157311	1.395740
C186	C	1.973325	0.176023	1.729073
C187	C	1.412120	-0.404907	1.083709
C188	C	1.745454	-0.071573	1.417043
C189	C	2.078787	0.261760	1.750376
C190	C	1.394687	-0.419083	0.997638
C191	C	1.728020	-0.085750	1.330972
C192	C	2.061354	0.247584	1.664305
C193	C	1.289225	-0.504820	0.976335
C194	C	1.622558	-0.171487	1.309669
C195	C	1.955892	0.161846	1.643002
H196	H	0.604814	-0.450899	0.553365
H197	H	0.938148	-0.117566	0.886698
H198	H	1.271481	0.215768	1.220031
Br199	Br	1.205818	-0.572609	0.903467
Br200	Br	1.539151	-0.239276	1.236801
Br201	Br	1.872485	0.094058	1.570134
Br202	Br	0.790300	-0.702326	0.861134
Br203	Br	1.123633	-0.368993	1.194468
Br204	Br	1.456967	-0.035660	1.527801
Br205	Br	1.454423	-0.370530	0.953687
Br206	Br	1.787756	-0.037197	1.287021
Br207	Br	2.121089	0.296136	1.620354
H208	H	1.187007	-0.587926	0.971020
H209	H	1.520340	-0.254593	1.304353
H210	H	1.853674	0.078740	1.637687
H211	H	1.435576	-0.385843	1.245891
H212	H	1.768909	-0.052510	1.579224
H213	H	2.102242	0.280824	1.912557
Br214	Br	1.073773	-0.679950	1.000622
Br215	Br	1.407106	-0.346617	1.333955
Br216	Br	1.740440	-0.013284	1.667289
H217	H	0.782025	-0.364087	0.447108
H218	H	1.115359	-0.030754	0.780441
H219	H	1.448692	0.302580	1.113775
H220	H	0.605022	-0.649394	0.796349
H221	H	0.938355	-0.316061	1.129683
H222	H	1.271688	0.017273	1.463016
H223	H	0.976781	-0.545771	0.669523
H224	H	1.310114	-0.212438	1.002856
H225	H	1.643448	0.120895	1.336190
H226	H	0.566395	-0.493453	0.605447
H227	H	0.899729	-0.160119	0.938780
H228	H	1.233062	0.173214	1.272114
Br229	Br	1.088307	-0.668145	1.321965
Br230	Br	1.421640	-0.334811	1.655298
Br231	Br	1.754973	-0.001478	1.988631
H232	H	1.355723	-0.450757	1.304635
H233	H	1.689056	-0.117424	1.637968
H234	H	2.022390	0.215910	1.971302
Br235	Br	0.634435	-0.358608	0.440390
Br236	Br	0.967768	-0.025275	0.773723
Br237	Br	1.301102	0.308058	1.107057
Br238	Br	0.955758	-0.370338	0.454770
Br239	Br	1.289091	-0.037005	0.788103
Br240	Br	1.622424	0.296329	1.121436
H241	H	0.938378	-0.588308	0.721614
H242	H	1.271711	-0.254975	1.054947
H243	H	1.605045	0.078358	1.388280
H244	H	1.303536	-0.493181	1.343046
H245	H	1.636869	-0.159848	1.676380
H246	H	1.970202	0.173485	2.009713
H247	H	1.080543	-0.674423	1.148225
H248	H	1.413877	-0.341089	1.481558
H249	H	1.747210	-0.007756	1.814892
H250	H	1.462158	-0.364238	1.127433
H251	H	1.795492	-0.030905	1.460766
H252	H	2.128825	0.302428	1.794099
H253	H	0.879608	-0.653434	0.801308
H254	H	1.212941	-0.320100	1.134641
H255	H	1.546274	0.013233	1.467974
