data_functionalizedCrystal
_audit_creation_method	'MofGen! by Chris Wilmer'
_symmetry_space_group_name_H-M	'P1'
_symmetry_Int_Tables_number	1
_symmetry_cell_setting	triclinic
loop_
_symmetry_equiv_pos_as_xyz
  x,y,z
_cell_length_a	18.215407
_cell_length_b	19.805405
_cell_length_c	19.805399
_cell_angle_alpha	89.970699
_cell_angle_beta	89.981228
_cell_angle_gamma	90.026858
loop_
_atom_site_label
_atom_site_type_symbol
_atom_site_fract_x
_atom_site_fract_y
_atom_site_fract_z
Zn1	Zn	1.125056	-0.269471	-0.382697
Zn2	Zn	1.124964	-0.382659	-0.269505
Zn3	Zn	1.001991	-0.269490	-0.269523
Zn4	Zn	1.001952	-0.382624	-0.382654
O5	O	1.063491	-0.326061	-0.326095
O6	O	1.228028	-0.284492	-0.367693
O7	O	1.108629	-0.367670	-0.174791
O8	O	1.018371	-0.174771	-0.284562
O9	O	1.227960	-0.367651	-0.284531
O10	O	1.108787	-0.174757	-0.367710
O11	O	1.018282	-0.284525	-0.174804
O12	O	0.899002	-0.284491	-0.284520
O13	O	1.018304	-0.367591	-0.477376
O14	O	0.898973	-0.367610	-0.367636
O15	O	1.108748	-0.284458	-0.477408
O16	O	1.108591	-0.477371	-0.284489
O17	O	1.018214	-0.477345	-0.367619
C18	C	0.872285	-0.326050	-0.326075
C19	C	0.790486	-0.326061	-0.326083
C20	C	0.602296	-0.369409	-0.369308
C21	C	0.525437	-0.369411	-0.369316
C22	C	0.525438	-0.282726	-0.282897
C23	C	0.602295	-0.282721	-0.282892
C24	C	0.640722	-0.326066	-0.326097
C25	C	0.487006	-0.326073	-0.326110
C26	C	0.403672	-0.326075	-0.326119
C27	C	0.724061	-0.326063	-0.326089
C28	C	1.063408	-0.501917	-0.326062
C29	C	1.063440	-0.577149	-0.326071
C30	C	1.110545	-0.612484	-0.282831
C31	C	1.110576	-0.683173	-0.282845
C32	C	1.063498	-0.718525	-0.326098
C33	C	1.016391	-0.683185	-0.369343
C34	C	1.016364	-0.612497	-0.369331
C35	C	1.016500	-0.968258	-0.369393
C36	C	1.016529	-1.038950	-0.369400
C37	C	1.110711	-1.038933	-0.282908
C38	C	1.110684	-0.968246	-0.282896
C39	C	1.063581	-0.932912	-0.326143
C40	C	1.063548	-0.856264	-0.326127
C41	C	1.063526	-0.795172	-0.326111
C42	C	1.255444	-0.326073	-0.326115
C43	C	1.337243	-0.326078	-0.326123
C44	C	1.063532	-0.326018	-0.502638
C45	C	1.063550	-0.326000	-0.577870
C46	C	1.063594	-0.149518	-0.326143
C47	C	1.063638	-0.074286	-0.326163
C48	C	1.110645	-0.282711	-0.613232
C49	C	1.110653	-0.282691	-0.683920
C50	C	1.063568	-0.325965	-0.719245
C51	C	1.016467	-0.369256	-0.683879
C52	C	1.016456	-0.369272	-0.613191
C53	C	1.016509	-0.369193	-0.968952
C54	C	1.016525	-0.369176	-1.039644
C55	C	1.110705	-0.282612	-1.039681
C56	C	1.110694	-0.282628	-0.968993
C57	C	1.063591	-0.325917	-0.933633
C58	C	1.063583	-0.325937	-0.856984
C59	C	1.063580	-0.325949	-0.795893
C60	C	1.063492	-0.326055	-0.150239
C61	C	1.063617	-0.325882	-0.075007
H62	H	1.148878	-0.583705	-0.247607
C63	C	0.483166	-0.235057	-0.235369
H64	H	0.431889	-0.241272	-0.241554
H65	H	0.495783	-0.189590	-0.245351
H66	H	0.495741	-0.244912	-0.189872
H67	H	1.149017	-0.939464	-0.247673
H68	H	0.494154	-0.404704	-0.404504
C69	C	1.162531	-1.077802	-0.235340
H70	H	1.155812	-1.124964	-0.241544
H71	H	1.151782	-1.066256	-0.189853
H72	H	1.211969	-1.066171	-0.245288
H73	H	0.978063	-0.711974	-0.404563
C74	C	0.964747	-1.077836	-0.416986
H75	H	0.936695	-1.046669	-0.442746
H76	H	0.932707	-1.105454	-0.391075
H77	H	0.992902	-1.105369	-0.446503
C78	C	0.644563	-0.417080	-0.416836
H79	H	0.610667	-0.442889	-0.442577
H80	H	0.674523	-0.446538	-0.390894
H81	H	0.674567	-0.391218	-0.446374
C82	C	1.162388	-0.722038	-0.235278
H83	H	1.190414	-0.690860	-0.209511
H84	H	1.194450	-0.749571	-0.261198
H85	H	1.134259	-0.749654	-0.205767
C86	C	0.964670	-0.416907	-0.574293
H87	H	0.936638	-0.442687	-0.605455
H88	H	0.932610	-0.391034	-0.546712
H89	H	0.992819	-0.446404	-0.546723
C90	C	0.964675	-0.929399	-0.416951
H91	H	0.936635	-0.960580	-0.442703
H92	H	0.992787	-0.901780	-0.446466
H93	H	0.932615	-0.901870	-0.391018
H94	H	0.633583	-0.247421	-0.247705
H95	H	0.978008	-0.583728	-0.404542
C96	C	1.162436	-0.235105	-0.574380
H97	H	1.190479	-0.209316	-0.605567
H98	H	1.194484	-0.261000	-0.546800
H99	H	1.134289	-0.205617	-0.546811
H100	H	1.149004	-0.247442	-0.712708
C101	C	1.162485	-0.235027	-0.930136
H102	H	1.155737	-0.241240	-0.882973
H103	H	1.151743	-0.189547	-0.941732
H104	H	1.211931	-0.244936	-0.941725
C105	C	1.162513	-0.234990	-1.078579
H106	H	1.155774	-0.241171	-1.125737
H107	H	1.211952	-0.244904	-1.067000
H108	H	1.151766	-0.189512	-1.067003
C109	C	0.964724	-0.416774	-1.078501
H110	H	0.936663	-0.442553	-1.047318
H111	H	0.992859	-0.446263	-1.106073
H112	H	0.932681	-0.390865	-1.106078
C113	C	0.964683	-0.416795	-0.930064
H114	H	0.936644	-0.442563	-0.961229
H115	H	0.932633	-0.390892	-0.902501
H116	H	0.992797	-0.446304	-0.902476
C117	C	0.964676	-0.416858	-0.722735
H118	H	0.971432	-0.410654	-0.769898
H119	H	0.915232	-0.406953	-0.711146
H120	H	0.975423	-0.462340	-0.711137
