data_functionalizedCrystal
_audit_creation_method	'MofGen! by Chris Wilmer'
_symmetry_space_group_name_H-M	'P1'
_symmetry_Int_Tables_number	1
_symmetry_cell_setting	triclinic
loop_
_symmetry_equiv_pos_as_xyz
  x,y,z
_cell_length_a	16.625548
_cell_length_b	21.295417
_cell_length_c	16.625539
_cell_angle_alpha	90.032326
_cell_angle_beta	90.020568
_cell_angle_gamma	90.030770
loop_
_atom_site_label
_atom_site_type_symbol
_atom_site_fract_x
_atom_site_fract_y
_atom_site_fract_z
Zn1	Zn	1.232640	-0.250590	0.455887
Zn2	Zn	1.232526	-0.355864	0.321045
Zn3	Zn	1.097802	-0.250614	0.321067
Zn4	Zn	1.097755	-0.355827	0.455834
O5	O	1.165181	-0.303224	0.388458
O6	O	1.345457	-0.264560	0.438012
O7	O	1.214627	-0.341927	0.208215
O8	O	1.115755	-0.162522	0.338983
O9	O	1.345374	-0.341904	0.338944
O10	O	1.214820	-0.162504	0.438034
O11	O	1.115645	-0.264601	0.208232
O12	O	0.984963	-0.264566	0.338932
O13	O	1.115676	-0.341842	0.568674
O14	O	0.984929	-0.341866	0.437945
O15	O	1.214775	-0.264525	0.568712
O16	O	1.214581	-0.443948	0.338893
O17	O	1.115566	-0.443922	0.437923
C18	C	0.955690	-0.303215	0.388436
C19	C	0.866069	-0.303226	0.388445
C20	C	0.537893	-0.303230	0.388480
C21	C	0.629202	-0.303227	0.388468
C22	C	0.701978	-0.303229	0.388462
C23	C	0.793292	-0.303225	0.388451
C24	C	1.165078	-0.466775	0.388417
C25	C	1.165108	-0.536744	0.388427
C26	C	1.216661	-0.569544	0.440040
C27	C	1.216690	-0.635286	0.440060
C28	C	1.165173	-0.668226	0.388452
C29	C	1.113609	-0.635418	0.336836
C30	C	1.113577	-0.569677	0.336823
N31	N	1.159082	-0.771490	0.317887
N32	N	1.159117	-0.833941	0.317901
C33	C	1.165267	-0.866301	0.388489
N34	N	1.171396	-0.833850	0.459063
N35	N	1.171364	-0.771392	0.459047
C36	C	1.165203	-0.739511	0.388461
C37	C	1.216855	-0.970387	0.440128
C38	C	1.216877	-1.036130	0.440149
C39	C	1.113801	-1.036260	0.336918
C40	C	1.113774	-0.970518	0.336904
C41	C	1.165305	-0.937585	0.388508
C42	C	1.375490	-0.303233	0.388481
C43	C	1.465111	-0.303237	0.388491
C44	C	1.165233	-0.303177	0.598767
C45	C	1.165256	-0.303157	0.688388
C46	C	1.165306	-0.139033	0.388517
C47	C	1.165359	-0.069065	0.388542
C48	C	1.165175	-0.303225	0.178967
C49	C	1.165309	-0.303068	0.089347
C50	C	1.165293	-0.303086	1.016564
C51	C	1.165280	-0.303108	0.925256
C52	C	1.165275	-0.303122	0.852479
C53	C	1.165261	-0.303143	0.761165
H54	H	1.258619	-0.542732	0.482061
H55	H	1.071662	-0.662241	0.294819
H56	H	1.071595	-0.542970	0.294793
H57	H	1.071798	-0.943810	0.294872
O58	O	1.063796	-1.068183	0.286677
C59	C	1.081465	-1.052167	0.206325
H60	H	1.112438	-1.004413	0.204667
H61	H	1.122951	-1.089154	0.179214
C62	C	0.964842	-1.107868	0.159449
C63	C	1.002878	-1.049213	0.157413
H64	H	0.916367	-1.106049	0.129276
H65	H	0.952939	-1.118660	0.213583
H66	H	0.999422	-1.138684	0.136859
H67	H	0.968301	-1.018400	0.180012
H68	H	1.014773	-1.038416	0.103281
O69	O	1.266840	-0.667060	0.490232
C70	C	1.312292	-0.623895	0.535797
H71	H	1.315091	-0.577050	0.502764
H72	H	1.282720	-0.616887	0.597002
C73	C	1.394670	-0.707028	0.588087
C74	C	1.398113	-0.649494	0.547511
H75	H	1.447608	-0.722819	0.595317
H76	H	1.364046	-0.736110	0.557392
H77	H	1.370023	-0.701180	0.639087
H78	H	1.422750	-0.655344	0.496509
H79	H	1.428743	-0.620413	0.578199
H80	H	1.258858	-1.062835	0.482182
O81	O	1.266923	-0.938488	0.490340
C82	C	1.312439	-0.981540	0.535895
H83	H	1.279435	-1.028425	0.538661
H84	H	1.373702	-0.988503	0.506435
C85	C	1.364523	-0.898241	0.618322
C86	C	1.323983	-0.955825	0.621724
H87	H	1.371648	-0.882379	0.671264
H88	H	1.333861	-0.869236	0.587629
H89	H	1.415570	-0.904052	0.593768
H90	H	1.272933	-0.950012	0.646268
H91	H	1.354638	-0.984829	0.652423
