data_functionalizedCrystal
_audit_creation_method	'MofGen! by Chris Wilmer'
_symmetry_space_group_name_H-M	'P1'
_symmetry_Int_Tables_number	1
_symmetry_cell_setting	triclinic
loop_
_symmetry_equiv_pos_as_xyz
  x,y,z
_cell_length_a	10.489716
_cell_length_b	10.489741
_cell_length_c	14.586319
_cell_angle_alpha	89.996488
_cell_angle_beta	89.996864
_cell_angle_gamma	84.534155
loop_
_atom_site_label
_atom_site_type_symbol
_atom_site_fract_x
_atom_site_fract_y
_atom_site_fract_z
O1	O	1.694070	0.179817	-0.076232
O2	O	1.322871	0.196743	-0.076236
O3	O	1.516917	0.002681	-0.076229
O4	O	1.500024	0.373879	-0.076240
O5	O	1.516903	0.002678	0.076252
O6	O	1.322857	0.196740	0.076245
O7	O	1.694057	0.179814	0.076248
Cu8	Cu	1.508455	0.188277	0.090169
Cu9	Cu	1.508472	0.188280	-0.090157
O10	O	1.500010	0.373876	0.076241
C11	C	1.275332	0.195470	0.000004
C12	C	1.133701	0.191665	0.000003
C13	C	1.036027	0.310669	-0.000003
C14	C	0.958674	0.247784	0.075184
C15	C	0.958694	0.247758	-0.075150
C16	C	1.058213	0.128829	0.075252
C17	C	1.058239	0.128821	-0.075150
C18	C	0.980935	0.065848	0.000056
C19	C	1.515634	-0.044852	0.000011
C20	C	1.511817	-0.186481	0.000010
C21	C	1.388351	-0.254610	0.000002
C22	C	1.446668	-0.346739	0.075183
C23	C	1.446711	-0.346711	-0.075151
C24	C	1.570185	-0.276745	0.075253
C25	C	1.570211	-0.276707	-0.075149
C26	C	1.628618	-0.368808	0.000051
C27	C	1.741596	0.181087	0.000006
C28	C	1.883227	0.184892	0.000002
C29	C	1.501293	0.421409	-0.000001
C30	C	1.505110	0.563038	-0.000005
N31	N	1.508453	0.188274	0.217001
N32	N	1.508484	0.188273	-0.216989
C33	C	1.594406	0.102372	0.452011
C34	C	1.594410	0.102369	0.547992
C35	C	1.422522	0.274179	0.547995
C36	C	1.422513	0.274174	0.452016
C37	C	1.508462	0.188273	0.404026
C38	C	1.508475	0.188274	0.595987
C39	C	1.508478	0.188271	0.700054
C40	C	1.508458	0.188274	0.299952
H41	H	0.956505	-0.037744	0.000102
O42	O	1.377501	-0.387757	-0.159340
H43	H	1.427854	-0.358360	-0.221684
O44	O	1.763197	-0.434304	0.000051
H45	H	1.777489	-0.495674	0.061887
H46	H	1.622375	-0.245918	0.138884
O47	O	1.377473	-0.387810	0.159381
H48	H	1.293284	-0.437284	0.138208
O49	O	1.068738	0.447775	0.000084
H50	H	1.028684	0.496889	0.062590
H51	H	1.622413	-0.245665	-0.138711
O52	O	1.329795	0.366820	0.400257
H53	H	1.344216	0.352368	0.325455
H54	H	1.352545	0.344120	0.587078
H55	H	1.286838	-0.204950	0.000077
H56	H	1.101740	0.078624	-0.138714
O57	O	0.901057	0.314313	0.159378
H58	H	0.922686	0.415851	0.159221
H59	H	1.664391	0.032420	0.587059
O60	O	1.115561	0.062345	0.159549
H61	H	1.184504	-0.019255	0.138504
O62	O	0.901109	0.314318	-0.159344
H63	H	0.922764	0.415849	-0.159183
H64	H	1.664390	0.032424	0.412940
