data_functionalizedCrystal
_audit_creation_method	'MofGen! by Chris Wilmer'
_symmetry_space_group_name_H-M	'P1'
_symmetry_Int_Tables_number	1
_symmetry_cell_setting	triclinic
loop_
_symmetry_equiv_pos_as_xyz
  x,y,z
_cell_length_a	21.395364
_cell_length_b	19.120786
_cell_length_c	19.120904
_cell_angle_alpha	90.133503
_cell_angle_beta	87.577865
_cell_angle_gamma	92.480057
loop_
_atom_site_label
_atom_site_type_symbol
_atom_site_fract_x
_atom_site_fract_y
_atom_site_fract_z
Zn1	Zn	0.931946	-0.295776	0.384484
Zn2	Zn	0.932254	-0.408020	0.262244
Zn3	Zn	0.831825	-0.290824	0.267262
Zn4	Zn	0.822871	-0.413014	0.379439
O5	O	0.879724	-0.351908	0.323357
O6	O	1.019665	-0.310648	0.368281
O7	O	0.922807	-0.388311	0.164805
O8	O	0.848725	-0.193369	0.287023
O9	O	1.019891	-0.393113	0.278471
O10	O	0.922284	-0.197007	0.373146
O11	O	0.849023	-0.302208	0.168491
O12	O	0.742959	-0.307050	0.282131
O13	O	0.833464	-0.401625	0.478213
O14	O	0.736381	-0.396823	0.364547
O15	O	0.913601	-0.315490	0.481920
O16	O	0.914125	-0.506794	0.273578
O17	O	0.833762	-0.510463	0.359681
C18	C	0.716936	-0.351942	0.323336
C19	C	0.647293	-0.351974	0.323343
C20	C	0.614479	-0.309110	0.370173
C21	C	0.549045	-0.309092	0.370176
C22	C	0.516425	-0.351949	0.323357
C23	C	0.549247	-0.394815	0.276518
C24	C	0.614681	-0.394827	0.276511
C25	C	0.410630	-0.414850	0.315025
C26	C	0.345197	-0.414839	0.315037
C27	C	0.314605	-0.351911	0.323374
C28	C	0.349454	-0.288993	0.331714
C29	C	0.414888	-0.289005	0.331707
C30	C	0.445473	-0.351941	0.323359
C31	C	0.210840	-0.309024	0.370210
C32	C	0.145404	-0.309004	0.370209
C33	C	0.145607	-0.394734	0.276554
C34	C	0.211042	-0.394748	0.276552
C35	C	0.243654	-0.351894	0.323384
C36	C	0.873021	-0.534069	0.315553
C37	C	0.870210	-0.611998	0.312238
C38	C	0.907157	-0.650445	0.355556
C39	C	0.904513	-0.723669	0.352442
C40	C	0.864926	-0.758444	0.306006
C41	C	0.827975	-0.719992	0.262686
C42	C	0.830616	-0.646770	0.265803
C43	C	0.855034	-0.979435	0.294350
C44	C	0.852398	-1.052662	0.291234
C45	C	0.928934	-1.056334	0.380992
C46	C	0.931575	-0.983111	0.384103
C47	C	0.894622	-0.944665	0.340785
C48	C	0.862224	-0.833290	0.302820
C49	C	0.897321	-0.869821	0.343975
C50	C	1.043148	-0.351876	0.323379
C51	C	1.112789	-0.351862	0.323388
C52	C	0.872500	-0.359667	0.506215
C53	C	0.869421	-0.362973	0.584138
C54	C	0.886469	-0.169038	0.331207
C55	C	0.889344	-0.091109	0.334553
C56	C	0.886958	-0.344129	0.141213
C57	C	0.890165	-0.340626	0.063299
C58	C	0.909696	-0.319683	0.622678
C59	C	0.906795	-0.322787	0.695895
C60	C	0.863623	-0.369185	0.730571
C61	C	0.823344	-0.412477	0.692026
C62	C	0.826242	-0.409369	0.618810
C63	C	0.852784	-0.380810	0.951538
C64	C	0.849891	-0.383916	1.024759
C65	C	0.933342	-0.294224	1.028623
C66	C	0.936238	-0.291123	0.955405
C67	C	0.895957	-0.334413	0.916867
C68	C	0.860659	-0.372361	0.805410
C69	C	0.898918	-0.331233	0.842029
H70	H	0.443259	-0.237775	0.338495
Br71	Br	0.307945	-0.203585	0.343031
Br72	Br	0.968294	-0.256716	0.575624
H73	H	0.237394	-0.274126	0.408340
Br74	Br	0.804876	-0.927268	0.235570
Br75	Br	0.297909	-0.500228	0.303734
Br76	Br	0.504502	-0.250914	0.433734
H77	H	0.934603	-0.754969	0.387711
H78	H	0.795740	-0.748311	0.224879
Br79	Br	0.985303	-0.935921	0.447125
H80	H	0.939395	-0.622137	0.393366
Br81	Br	0.771577	-0.468119	0.566506
H82	H	0.820158	-1.080974	0.253419
Br83	Br	0.988005	-0.235476	1.080928
Br84	Br	0.961485	-0.264066	0.748195
Br85	Br	0.791294	-0.446887	1.071820
H86	H	0.435532	-0.466096	0.308235
H87	H	0.959018	-1.087645	0.416260
H88	H	0.522684	-0.429710	0.238396
H89	H	0.800530	-0.615467	0.230530
Br90	Br	0.951039	-0.822625	0.406999
Br91	Br	0.802071	-0.435330	0.852477
H92	H	0.788190	-0.450253	0.720265
Br93	Br	0.658736	-0.250952	0.433730
Br94	Br	0.994833	-0.228154	0.908350
H95	H	0.118688	-0.274096	0.408343
H96	H	0.641398	-0.429733	0.238375
H97	H	0.829994	-0.861612	0.265010
H98	H	0.119049	-0.429630	0.238432
H99	H	0.819993	-0.416069	0.920169
H100	H	0.237759	-0.429655	0.238420
H101	H	0.934067	-0.293453	0.813793
