data_functionalizedCrystal
_audit_creation_method	'MofGen! by Chris Wilmer'
_symmetry_space_group_name_H-M	'P1'
_symmetry_Int_Tables_number	1
_symmetry_cell_setting	triclinic
loop_
_symmetry_equiv_pos_as_xyz
  x,y,z
_cell_length_a	14.519709
_cell_length_b	8.559649
_cell_length_c	7.681481
_cell_angle_alpha	94.913240
_cell_angle_beta	95.746595
_cell_angle_gamma	103.270596
loop_
_atom_site_label
_atom_site_type_symbol
_atom_site_fract_x
_atom_site_fract_y
_atom_site_fract_z
O1	O	0.021482	2.104961	-0.146404
O2	O	-0.026136	1.639893	-0.146405
O3	O	0.132796	1.884756	-0.146421
O4	O	-0.137449	1.860098	-0.146389
O5	O	0.152397	1.914895	0.146435
O6	O	-0.006535	1.670032	0.146451
O7	O	0.041083	2.135100	0.146451
Zn8	Zn	0.020387	1.907351	0.192948
Zn9	Zn	-0.005439	1.867642	-0.192902
O10	O	-0.117848	1.890237	0.146467
C11	C	-0.019944	1.595443	0.000023
C12	C	-0.030685	1.418093	0.000021
C13	C	-0.161926	1.876317	0.000043
C14	C	-0.264059	1.879763	0.000055
C15	C	-0.638049	1.892434	-0.000015
C16	C	-0.533993	1.888916	0.000005
C17	C	-0.451057	1.886099	0.000022
C18	C	-0.346994	1.882579	0.000039
C19	C	0.176873	1.898675	-0.000001
C20	C	0.279005	1.895229	-0.000024
N21	N	0.038013	1.934463	0.456281
C22	C	0.034891	2.179550	0.000020
C23	C	0.045632	2.356898	0.000010
N24	N	-0.023057	1.840543	-0.456234
H25	H	-0.104247	1.334798	0.000021
C26	C	-0.193106	1.741723	0.486706
C27	C	-0.107209	1.711109	0.442271
H28	H	-0.245057	1.661819	0.424029
H29	H	-0.195017	1.738779	0.609641
H30	H	-0.197503	1.845329	0.456553
H31	H	-0.102809	1.607508	0.472436
H32	H	-0.105296	1.714038	0.319308
C33	C	0.204289	1.456030	0.150532
C34	C	0.144937	1.469316	-0.000003
H35	H	0.265598	1.525432	0.150513
H36	H	0.177688	1.486054	0.252642
H37	H	0.209845	1.347592	0.150512
H38	H	0.139375	1.577752	0.000023
H39	H	0.171544	1.439301	-0.102141
H40	H	0.100347	2.030354	0.531480
