data_functionalizedCrystal
_audit_creation_method	'MofGen! by Chris Wilmer'
_symmetry_space_group_name_H-M	'P1'
_symmetry_Int_Tables_number	1
_symmetry_cell_setting	triclinic
loop_
_symmetry_equiv_pos_as_xyz
  x,y,z
_cell_length_a	11.792254
_cell_length_b	14.853559
_cell_length_c	13.930277
_cell_angle_alpha	89.997639
_cell_angle_beta	89.992836
_cell_angle_gamma	83.915026
loop_
_atom_site_label
_atom_site_type_symbol
_atom_site_fract_x
_atom_site_fract_y
_atom_site_fract_z
O1	O	1.506137	0.123622	-0.079825
O2	O	1.175719	0.136345	-0.079827
O3	O	1.349759	-0.001212	-0.079825
O4	O	1.332097	0.261179	-0.079827
O5	O	1.349735	-0.001215	0.079837
O6	O	1.175695	0.136342	0.079835
O7	O	1.506113	0.123619	0.079837
Zn8	Zn	1.340900	0.129980	0.105186
Zn9	Zn	1.340932	0.129984	-0.105176
O10	O	1.332073	0.261176	0.079835
C11	C	1.133421	0.135542	0.000004
C12	C	1.007423	0.133143	0.000003
C13	C	1.348948	-0.034805	0.000004
C14	C	1.346556	-0.134899	-0.000001
C15	C	1.336417	-0.558112	-0.087033
C16	C	1.336390	-0.558110	0.087037
C17	C	1.338648	-0.464068	0.087037
C18	C	1.339789	-0.417043	0.000002
C19	C	1.338671	-0.464061	-0.087035
C20	C	1.339754	-0.417042	0.174072
C21	C	1.342011	-0.322994	0.174077
C22	C	1.343159	-0.275969	0.087040
C23	C	1.342043	-0.322992	-0.000000
C24	C	1.343184	-0.275968	-0.087036
C25	C	1.342076	-0.322990	-0.174077
C26	C	1.339820	-0.417035	-0.174071
C27	C	1.345415	-0.181923	0.087035
C28	C	1.345438	-0.181916	-0.087038
C29	C	0.905099	0.131194	-0.000001
C30	C	0.776727	0.128757	-0.000001
C31	C	1.548411	0.124422	0.000004
C32	C	1.674409	0.126821	-0.000002
C33	C	1.332884	0.294770	0.000004
C34	C	1.335276	0.394863	0.000003
N35	N	1.340887	0.129977	0.248752
N36	N	1.340954	0.129980	-0.248742
C37	C	1.263864	0.190870	0.701020
C38	C	1.418031	0.069091	0.700991
C39	C	1.418018	0.069088	0.600496
C40	C	1.340927	0.129978	0.550258
C41	C	1.263850	0.190871	0.600515
C42	C	1.495101	0.008202	0.550230
C43	C	1.495091	0.008198	0.449729
C44	C	1.417995	0.069084	0.399489
C45	C	1.340914	0.129979	0.449753
C46	C	1.263823	0.190869	0.399515
C47	C	1.186736	0.251760	0.449777
C48	C	1.186754	0.251758	0.550275
C49	C	1.417977	0.069087	0.298990
C50	C	1.263810	0.190870	0.299010
H51	H	1.346372	-0.143636	-0.157914
N52	N	1.103623	0.317426	0.604494
H53	H	1.147065	0.357576	0.646176
H54	H	1.054797	0.355941	0.557366
H55	H	1.335454	-0.596403	0.157897
H56	H	1.557871	-0.041368	0.591137
H57	H	1.346291	-0.143639	0.157902
H58	H	1.342917	-0.284717	0.244951
H59	H	1.201098	0.240445	0.741946
N60	N	1.343315	-0.272265	-0.267947
H61	H	1.342273	-0.316319	-0.323088
H62	H	1.273944	-0.226283	-0.271738
H63	H	1.335519	-0.596403	-0.157900
H64	H	1.480802	0.019520	0.741898
H65	H	1.480745	0.019514	0.258071
H66	H	1.338917	-0.455329	-0.244936
N67	N	1.338548	-0.467767	0.267937
H68	H	1.267323	-0.499837	0.271822
H69	H	1.407974	-0.513693	0.271738
N70	N	1.180652	0.256538	0.244826
H71	H	1.131823	0.295107	0.291919
H72	H	1.224148	0.296634	0.203119
N73	N	1.103589	0.317436	0.395593
H74	H	1.147015	0.357589	0.353888
H75	H	1.053309	0.282647	0.353959
N76	N	1.578228	-0.057474	0.395521
H77	H	1.627066	-0.096046	0.442597
H78	H	1.534712	-0.097567	0.353838
