data_functionalizedCrystal
_audit_creation_method	'MofGen! by Chris Wilmer'
_symmetry_space_group_name_H-M	'P1'
_symmetry_Int_Tables_number	1
_symmetry_cell_setting	triclinic
loop_
_symmetry_equiv_pos_as_xyz
  x,y,z
_cell_length_a	16.109301
_cell_length_b	17.699083
_cell_length_c	14.586319
_cell_angle_alpha	89.995320
_cell_angle_beta	89.999213
_cell_angle_gamma	83.372248
loop_
_atom_site_label
_atom_site_type_symbol
_atom_site_fract_x
_atom_site_fract_y
_atom_site_fract_z
O1	O	1.102963	0.097285	-0.076184
O2	O	1.602963	0.597285	0.423816
O3	O	0.860880	0.109391	-0.076199
O4	O	1.360880	0.609391	0.423801
O5	O	0.988761	-0.006841	-0.076183
O6	O	1.488761	0.493159	0.423817
O7	O	0.975082	0.213517	-0.076200
O8	O	1.475082	0.713517	0.423800
O9	O	0.988752	-0.006843	0.076298
O10	O	1.488752	0.493157	0.576298
O11	O	0.860872	0.109390	0.076282
O12	O	1.360872	0.609390	0.576282
O13	O	1.102954	0.097283	0.076297
O14	O	1.602954	0.597283	0.576297
Cu15	Cu	0.981912	0.103336	0.090212
Cu16	Cu	1.481912	0.603336	0.590212
Cu17	Cu	0.981923	0.103338	-0.090114
Cu18	Cu	1.481923	0.603338	0.409886
O19	O	0.975074	0.213516	0.076281
O20	O	1.475074	0.713516	0.576281
C21	C	0.829902	0.108900	0.000040
C22	C	1.329902	0.608900	0.500040
C23	C	0.737609	0.107430	0.000034
C24	C	1.237609	0.607430	0.500034
C25	C	0.515224	0.172981	0.000040
C26	C	1.015224	0.672981	0.500040
C27	C	0.428506	0.171594	0.000046
C28	C	0.928506	0.671594	0.500046
C29	C	0.448618	0.033688	0.000053
C30	C	0.948618	0.533688	0.500053
C31	C	0.535334	0.035076	0.000053
C32	C	1.035334	0.535076	0.500053
C33	C	0.568635	0.104725	0.000042
C34	C	1.068635	0.604725	0.500042
C35	C	0.395200	0.101949	0.000047
C36	C	0.895200	0.601949	0.500047
C37	C	0.301177	0.100445	0.000054
C38	C	0.801177	0.600445	0.500054
C39	C	0.662664	0.106230	0.000037
C40	C	1.162664	0.606230	0.500037
C41	C	0.988267	-0.035040	0.000057
C42	C	1.488267	0.464960	0.500057
C43	C	0.986796	-0.119060	0.000058
C44	C	1.486796	0.380940	0.500058
C45	C	1.061860	-0.167574	0.000064
C46	C	1.561860	0.332426	0.500064
C47	C	1.060473	-0.246519	0.000055
C48	C	1.560473	0.253481	0.500055
C49	C	0.984022	-0.276949	0.000048
C50	C	1.484022	0.223051	0.500048
C51	C	0.908953	-0.228429	0.000039
C52	C	1.408953	0.271571	0.500039
C53	C	0.910341	-0.149485	0.000041
C54	C	1.410341	0.350515	0.500041
C55	C	0.903356	-0.546800	0.000031
C56	C	1.403356	-0.046800	0.500031
C57	C	0.901974	-0.625750	0.000033
C58	C	1.401974	-0.125750	0.500033
C59	C	1.053488	-0.643834	0.000046
C60	C	1.553488	-0.143834	0.500046
C61	C	1.054876	-0.564890	0.000048
C62	C	1.554876	-0.064890	0.500048
C63	C	0.979807	-0.516377	0.000034
C64	C	1.479807	-0.016377	0.500034
C65	C	0.981312	-0.430776	0.000041
C66	C	1.481312	0.069224	0.500041
C67	C	0.982517	-0.362549	0.000047
C68	C	1.482517	0.137451	0.500047
C69	C	1.133933	0.097774	0.000056
C70	C	1.633933	0.597774	0.500056
C71	C	1.226226	0.099244	0.000055
C72	C	1.726226	0.599244	0.500055
C73	C	0.975568	0.241714	0.000038
C74	C	1.475568	0.741714	0.500038
C75	C	0.977039	0.325734	0.000032
C76	C	1.477039	0.825734	0.500032
N77	N	0.981911	0.103334	0.217044
N78	N	1.481911	0.603334	0.717044
N79	N	0.981931	0.103334	-0.216946
N80	N	1.481931	0.603334	0.283054
C81	C	1.038555	0.051884	0.452057
C82	C	1.538555	0.551884	0.952057
C83	C	1.038558	0.051882	0.548038
C84	C	1.538558	0.551882	1.048038
C85	C	0.925280	0.154787	0.548034
C86	C	1.425280	0.654787	1.048034
C87	C	0.925274	0.154785	0.452054
C88	C	1.425274	0.654785	0.952054
C89	C	0.981917	0.103334	0.404068
C90	C	1.481917	0.603334	0.904068
C91	C	0.981925	0.103334	0.596029
C92	C	1.481925	0.603334	1.096029
C93	C	0.981927	0.103333	0.700096
C94	C	1.481927	0.603333	1.200096
C95	C	0.981914	0.103334	0.299995
C96	C	1.481914	0.603334	0.799995
H97	H	1.124115	-0.142805	0.000075
H98	H	1.624115	0.357195	0.500075
H99	H	1.114613	-0.683343	0.000052
H100	H	1.614613	-0.183343	0.500052
C101	C	1.143043	-0.299881	0.000071
C102	C	1.643043	0.200119	0.500071
H103	H	1.188772	-0.270452	0.000089
H104	H	1.688772	0.229548	0.500089
H105	H	1.145663	-0.331051	-0.053102
H106	H	1.645663	0.168949	0.446898
H107	H	1.145641	-0.331055	0.053252
H108	H	1.645641	0.168945	0.553252
H109	H	0.879165	0.196679	0.587113
H110	H	1.379165	0.696679	1.087113
H111	H	0.542334	0.229694	0.000038
H112	H	1.042334	0.729694	0.500038
C113	C	1.100857	-0.004708	0.399271
C114	C	1.600857	0.495292	0.899271
H115	H	1.092750	0.002664	0.335236
H116	H	1.592750	0.502664	0.835236
H117	H	1.091937	-0.055225	0.415006
H118	H	1.591937	0.444775	0.915006
H119	H	1.156326	0.003535	0.415000
H120	H	1.656326	0.503535	0.915000
H121	H	0.385022	0.227175	0.000046
H122	H	0.885022	0.727175	0.500046
H123	H	0.879149	0.196682	0.412979
H124	H	1.379149	0.696682	0.912979
H125	H	1.117130	-0.540119	0.000058
H126	H	1.617130	-0.040119	0.500058
C127	C	0.411984	-0.042920	0.000053
C128	C	0.911984	0.457080	0.500053
H129	H	0.352689	-0.033972	0.000042
H130	H	0.852689	0.466028	0.500042
H131	H	0.430324	-0.071029	0.053226
H132	H	0.930324	0.428971	0.553226
H133	H	0.430329	-0.071017	-0.053128
H134	H	0.930329	0.428983	0.446872
H135	H	0.839715	-0.650523	0.000028
H136	H	1.339715	-0.150523	0.500028
C137	C	0.594093	-0.040008	0.000055
C138	C	1.094093	0.459992	0.500055
H139	H	0.650507	-0.029204	0.000063
H140	H	1.150507	0.470796	0.500063
H141	H	0.584018	-0.068567	-0.053117
H142	H	1.084018	0.431433	0.446883
H143	H	0.584013	-0.068567	0.053237
H144	H	1.084013	0.431433	0.553237
C145	C	0.820784	-0.493446	0.000033
C146	C	1.320784	0.006554	0.500033
H147	H	0.775057	-0.522878	0.000041
H148	H	1.275057	-0.022878	0.500041
H149	H	0.818170	-0.462267	-0.053138
H150	H	1.318170	0.037733	0.446862
H151	H	0.818176	-0.462281	0.053215
H152	H	1.318176	0.037719	0.553215
C153	C	0.824859	-0.261900	0.000034
C154	C	1.324859	0.238100	0.500034
H155	H	0.834782	-0.315865	0.000044
H156	H	1.334782	0.184135	0.500044
H157	H	0.793959	-0.245244	-0.053141
H158	H	1.293959	0.254756	0.446859
H159	H	0.793959	-0.245248	0.053213
H160	H	1.293959	0.254752	0.553213
H161	H	0.849216	-0.109986	0.000036
H162	H	1.349216	0.390014	0.500036
C163	C	1.100858	-0.004712	0.600826
C164	C	1.600858	0.495288	1.100826
H165	H	1.092745	0.002650	0.664861
H166	H	1.592745	0.502650	1.164861
H167	H	1.156326	0.003521	0.585094
H168	H	1.656326	0.503521	1.085094
H169	H	1.091926	-0.055230	0.585100
H170	H	1.591926	0.444770	1.085100
