data_functionalizedCrystal
_audit_creation_method	'MofGen! by Chris Wilmer'
_symmetry_space_group_name_H-M	'P1'
_symmetry_Int_Tables_number	1
_symmetry_cell_setting	triclinic
loop_
_symmetry_equiv_pos_as_xyz
  x,y,z
_cell_length_a	16.959455
_cell_length_b	19.121063
_cell_length_c	16.959447
_cell_angle_alpha	92.406624
_cell_angle_beta	89.985678
_cell_angle_gamma	92.465894
loop_
_atom_site_label
_atom_site_type_symbol
_atom_site_fract_x
_atom_site_fract_y
_atom_site_fract_z
Zn1	Zn	1.194915	-0.279656	-0.460312
Zn2	Zn	1.189180	-0.397117	-0.333763
Zn3	Zn	1.062742	-0.279678	-0.328150
Zn4	Zn	1.057053	-0.397064	-0.465899
O5	O	1.125973	-0.338379	-0.397031
O6	O	1.304764	-0.295250	-0.443535
O7	O	1.172389	-0.381570	-0.222409
O8	O	1.085056	-0.181391	-0.340995
O9	O	1.300551	-0.381548	-0.350560
O10	O	1.182163	-0.181375	-0.438093
O11	O	1.079495	-0.295288	-0.218285
O12	O	0.951377	-0.295237	-0.346412
O13	O	1.075360	-0.381459	-0.575767
O14	O	0.947198	-0.381480	-0.447615
O15	O	1.176646	-0.295199	-0.571662
O16	O	1.166873	-0.495394	-0.355978
O17	O	1.069800	-0.495356	-0.453058
C18	C	0.920608	-0.338356	-0.397012
C19	C	0.832751	-0.338363	-0.397023
C20	C	1.117118	-0.520859	-0.405750
C21	C	1.113402	-0.598924	-0.409507
C22	C	0.463428	-0.293435	-0.344438
C23	C	0.459118	-0.383380	-0.449672
C24	C	0.541664	-0.383370	-0.449666
C25	C	0.585096	-0.338393	-0.397045
C26	C	0.545982	-0.293425	-0.344430
C27	C	0.580784	-0.428342	-0.502276
C28	C	0.663336	-0.428334	-0.502272
C29	C	0.706770	-0.383353	-0.449654
C30	C	0.667650	-0.338383	-0.397037
C31	C	0.711082	-0.293405	-0.344416
C32	C	0.671965	-0.248431	-0.291802
C33	C	0.589416	-0.248444	-0.291812
C34	C	0.789319	-0.383340	-0.449644
C35	C	0.793636	-0.293395	-0.344407
C36	C	1.162236	-0.635597	-0.360769
C37	C	1.158746	-0.708948	-0.364307
C38	C	1.106417	-0.745625	-0.416579
C39	C	1.057581	-0.708948	-0.465322
C40	C	1.061076	-0.635598	-0.461787
C41	C	1.093339	-0.967094	-0.429780
C42	C	1.089847	-1.040449	-0.433309
C43	C	1.191013	-1.040443	-0.332295
C44	C	1.194500	-0.967092	-0.328762
C45	C	1.145667	-0.930421	-0.377508
C46	C	1.102847	-0.820602	-0.420195
C47	C	1.149242	-0.855446	-0.373896
C48	C	1.332140	-0.338403	-0.397051
C49	C	1.419996	-0.338413	-0.397059
C50	C	1.126008	-0.338321	-0.603196
C51	C	1.126024	-0.338296	-0.691052
C52	C	1.134884	-0.155186	-0.388295
C53	C	1.138681	-0.077121	-0.384572
C54	C	1.073386	-0.383133	-1.064664
C55	C	1.178857	-0.293311	-1.060384
C56	C	1.178835	-0.293326	-0.977839
C57	C	1.126089	-0.338246	-0.938703
C58	C	1.073365	-0.383151	-0.982111
C59	C	1.231564	-0.248426	-0.934425
C60	C	1.231545	-0.248440	-0.851875
C61	C	1.178794	-0.293357	-0.812736
C62	C	1.126067	-0.338263	-0.856150
C63	C	1.073321	-0.383183	-0.817013
C64	C	1.020590	-0.428087	-0.860425
C65	C	1.020614	-0.428068	-0.942973
C66	C	1.178770	-0.293376	-0.730189
C67	C	1.073299	-0.383201	-0.734460
C68	C	1.125985	-0.338386	-0.191665
C69	C	1.126133	-0.338213	-0.103800
H70	H	0.828993	-0.256764	-0.301561
C71	C	1.289569	-0.199010	-0.977474
H72	H	1.282019	-0.205423	-1.032854
H73	H	1.342179	-0.209289	-0.964446
H74	H	1.280279	-0.151822	-0.961693
H75	H	1.021311	-0.605740	-0.501476
H76	H	0.557559	-0.211829	-0.248975
H77	H	1.060239	-0.850473	-0.462753
C78	C	0.719742	-0.198956	-0.233923
H79	H	0.684627	-0.172175	-0.202586
H80	H	0.753436	-0.168390	-0.262755
H81	H	0.750631	-0.225788	-0.200708
H82	H	0.431575	-0.256817	-0.301603
C83	C	1.236767	-0.243992	-0.682436
H84	H	1.229203	-0.250438	-0.627668
H85	H	1.227505	-0.196797	-0.693719
H86	H	1.289380	-0.254284	-0.696453
C87	C	0.411345	-0.432851	-0.507550
H88	H	0.356580	-0.426414	-0.500022
H89	H	0.422590	-0.480027	-0.498153
H90	H	0.425384	-0.422621	-0.560190
H91	H	0.977647	-0.464664	-0.828549
C92	C	0.962622	-0.477460	-0.990726
H93	H	0.970197	-0.471021	-1.045494
H94	H	0.910008	-0.467181	-0.976714
H95	H	0.971897	-0.524657	-0.979443
C96	C	0.533010	-0.477812	-0.560153
H97	H	0.478245	-0.471369	-0.552628
H98	H	0.544249	-0.524989	-0.550752
H99	H	0.547053	-0.467586	-0.612793
C100	C	1.000019	-0.749291	-0.522818
H101	H	1.004924	-0.798228	-0.517937
H102	H	1.012124	-0.737229	-0.575356
H103	H	0.947487	-0.737311	-0.510617
C104	C	0.832345	-0.432804	-0.507512
H105	H	0.794655	-0.459591	-0.538853
H106	H	0.863063	-0.463366	-0.478676
H107	H	0.865853	-0.405967	-0.540722
H108	H	1.053576	-0.937242	-0.469470
C109	C	0.706358	-0.477796	-0.560150
H110	H	0.668668	-0.504579	-0.591494
H111	H	0.737078	-0.508361	-0.531321
H112	H	0.739864	-0.450954	-0.593358
H113	H	1.047244	-1.070309	-0.475889
C114	C	1.015278	-0.432612	-0.691412
H115	H	1.022812	-0.426191	-0.636032
H116	H	1.024549	-0.479801	-0.707190
H117	H	0.962671	-0.422316	-0.704449
H118	H	1.191851	-0.825581	-0.331339
H119	H	1.237110	-0.937231	-0.286199
H120	H	1.030452	-0.419690	-1.100013
C121	C	1.289538	-0.199045	-0.804125
H122	H	1.281974	-0.205489	-0.749357
H123	H	1.280269	-0.151852	-0.815411
H124	H	1.342154	-0.209331	-0.818140
C125	C	1.244731	-1.080783	-0.278686
H126	H	1.235162	-1.129720	-0.288280
H127	H	1.233771	-1.068805	-0.224990
H128	H	1.298409	-1.068716	-0.289729
H129	H	1.204845	-0.605739	-0.318201
C130	C	1.212460	-0.749284	-0.310692
H131	H	1.244118	-0.716935	-0.279047
H132	H	1.245523	-0.777854	-0.342332
H133	H	1.180874	-0.777941	-0.277605
H134	H	1.221804	-0.256743	-1.092255
