data_functionalizedCrystal
_audit_creation_method	'MofGen! by Chris Wilmer'
_symmetry_space_group_name_H-M	'P1'
_symmetry_Int_Tables_number	1
_symmetry_cell_setting	triclinic
loop_
_symmetry_equiv_pos_as_xyz
  x,y,z
_cell_length_a	16.776229
_cell_length_b	17.699083
_cell_length_c	11.026607
_cell_angle_alpha	84.065484
_cell_angle_beta	89.996140
_cell_angle_gamma	90.000683
loop_
_atom_site_label
_atom_site_type_symbol
_atom_site_fract_x
_atom_site_fract_y
_atom_site_fract_z
O1	O	-0.066164	-1.025155	0.153399
O2	O	0.433836	-0.525155	0.653399
O3	O	-0.066191	-0.807518	0.173356
O4	O	0.433809	-0.307518	0.673356
O5	O	-0.066177	-0.898299	-0.013222
O6	O	0.433823	-0.398299	0.486778
O7	O	-0.066178	-0.934374	0.339978
O8	O	0.433822	-0.434374	0.839978
O9	O	0.066400	-0.898282	-0.013234
O10	O	0.566400	-0.398282	0.486766
O11	O	0.066385	-0.807501	0.173345
O12	O	0.566385	-0.307501	0.673345
O13	O	0.066413	-1.025138	0.153387
O14	O	0.566413	-0.525138	0.653387
Zn15	Zn	0.087448	-0.916317	0.163364
Zn16	Zn	0.587448	-0.416317	0.663364
Zn17	Zn	-0.087227	-0.916339	0.163379
Zn18	Zn	0.412773	-0.416339	0.663379
O19	O	0.066398	-0.934357	0.339966
O20	O	0.566398	-0.434357	0.839966
C21	C	0.000094	-0.779214	0.172636
C22	C	0.500094	-0.279214	0.672636
C23	C	0.000083	-0.694902	0.170490
C24	C	0.500083	-0.194902	0.670490
N25	N	0.206660	-0.916307	0.163353
N26	N	0.706660	-0.416307	0.663353
N27	N	-0.206438	-0.916354	0.163381
N28	N	0.293562	-0.416354	0.663381
C29	C	0.000110	-0.891635	-0.058419
C30	C	0.500110	-0.391635	0.441581
C31	C	0.000104	-0.871796	-0.193075
C32	C	0.500104	-0.371796	0.306925
C33	C	0.248383	-0.956525	0.080770
C34	C	0.748383	-0.456525	0.580770
C35	C	0.331835	-0.956529	0.080769
C36	C	0.831835	-0.456529	0.580769
C37	C	0.373563	-0.916319	0.163358
C38	C	0.873563	-0.416319	0.663358
C39	C	0.331833	-0.876096	0.245945
C40	C	0.831833	-0.376096	0.745945
C41	C	0.248383	-0.876088	0.245939
C42	C	0.748383	-0.376088	0.745939
C43	C	0.668380	-0.876127	0.245969
C44	C	1.168380	-0.376127	0.745969
C45	C	0.751837	-0.876140	0.245971
C46	C	1.251837	-0.376140	0.745971
C47	C	0.751833	-0.956568	0.080799
C48	C	1.251833	-0.456568	0.580799
C49	C	0.668382	-0.956560	0.080793
C50	C	1.168382	-0.456560	0.580793
C51	C	0.626660	-0.916334	0.163375
C52	C	1.126660	-0.416334	0.663375
C53	C	0.536172	-0.916329	0.163374
C54	C	1.036172	-0.416329	0.663374
C55	C	0.464049	-0.916328	0.163366
C56	C	0.964049	-0.416328	0.663366
C57	C	0.000083	-0.661328	0.280008
C58	C	0.500083	-0.161328	0.780008
C59	C	0.000092	-0.582106	0.277985
C60	C	0.500092	-0.082106	0.777985
C61	C	0.000097	-0.536460	0.166443
C62	C	0.500097	-0.036460	0.666443
C63	C	0.000100	-0.570039	0.056917
C64	C	0.500100	-0.070039	0.556917
C65	C	0.000096	-0.649259	0.058941
C66	C	0.500096	-0.149259	0.558941
C67	C	0.000117	-0.250554	0.048751
C68	C	0.500117	0.249446	0.548751
C69	C	0.000118	-0.171329	0.046735
C70	C	0.500118	0.328671	0.546735
C71	C	0.000113	-0.183402	0.267794
C72	C	0.500113	0.316598	0.767794
C73	C	0.000109	-0.262621	0.269819
C74	C	0.500109	0.237379	0.769819
C75	C	0.000117	-0.296194	0.160293
C76	C	0.500117	0.203806	0.660293
C77	C	0.000108	-0.382094	0.162488
C78	C	0.500108	0.117906	0.662488
C79	C	0.000100	-0.450561	0.164247
C80	C	0.500100	0.049439	0.664247
C81	C	0.000124	-0.053441	0.154108
C82	C	0.500124	0.446559	0.654108
C83	C	0.000124	-0.137754	0.156254
C84	C	0.500124	0.362246	0.656254
C85	C	0.000110	-0.926576	-0.267042
C86	C	0.500110	-0.426576	0.232958
C87	C	0.000105	-0.906072	-0.406216
C88	C	0.500105	-0.406072	0.093784
C89	C	0.000110	-0.941021	0.385163
C90	C	0.500110	-0.441021	0.885163
C91	C	0.000110	-0.960860	0.519819
C92	C	0.500110	-0.460860	1.019819
H93	H	0.214414	-0.989272	0.013522
H94	H	0.714414	-0.489272	0.513522
Cl95	Cl	0.000117	-1.022423	-0.205747
Cl96	Cl	0.500117	-0.522423	0.294253
Cl97	Cl	0.000125	-0.113946	-0.093501
Cl98	Cl	0.500125	0.386054	0.406499
H99	H	0.000091	-0.809717	-0.232783
H100	H	0.500091	-0.309717	0.267217
Cl101	Cl	0.804288	-1.007135	-0.023026
Cl102	Cl	1.304288	-0.507135	0.476974
H103	H	0.000078	-0.698488	0.370838
H104	H	0.500078	-0.198488	0.870838
H105	H	0.000123	-0.277879	-0.040432
H106	H	0.500123	0.222121	0.459568
Cl107	Cl	0.000110	-0.512656	-0.083309
Cl108	Cl	0.500110	-0.012656	0.416691
H109	H	0.365806	-0.989277	0.013523
H110	H	0.865806	-0.489277	0.513523
Cl111	Cl	0.000087	-0.539903	0.415671
Cl112	Cl	0.500087	-0.039903	0.915671
Cl113	Cl	0.000100	-0.691466	-0.078744
Cl114	Cl	0.500100	-0.191466	0.421256
H115	H	0.365812	-0.843352	0.313187
H116	H	0.865812	-0.343352	0.813187
Cl117	Cl	0.615928	-1.007113	-0.023033
Cl118	Cl	1.115928	-0.507113	0.476967
H119	H	0.785810	-0.843393	0.313227
H120	H	1.285810	-0.343393	0.813227
Cl121	Cl	0.000108	-0.141192	0.405486
Cl122	Cl	0.500108	0.358808	0.905486
H123	H	0.214412	-0.843337	0.313186
H124	H	0.714412	-0.343337	0.813186
Cl125	Cl	0.000084	-0.810221	-0.467505
Cl126	Cl	0.500084	-0.310221	0.032495
H127	H	0.000102	-0.299783	0.360648
H128	H	0.500102	0.200217	0.860648
Cl129	Cl	0.000119	-1.056712	-0.418895
Cl130	Cl	0.500119	-0.556712	0.081105
H131	H	0.634417	-0.843375	0.313212
H132	H	1.134417	-0.343375	0.813212
