data_functionalizedCrystal
_audit_creation_method	'MofGen! by Chris Wilmer'
_symmetry_space_group_name_H-M	'P1'
_symmetry_Int_Tables_number	1
_symmetry_cell_setting	triclinic
loop_
_symmetry_equiv_pos_as_xyz
  x,y,z
_cell_length_a	16.625548
_cell_length_b	10.686285
_cell_length_c	10.686551
_cell_angle_alpha	99.084519
_cell_angle_beta	85.603024
_cell_angle_gamma	94.367355
loop_
_atom_site_label
_atom_site_type_symbol
_atom_site_fract_x
_atom_site_fract_y
_atom_site_fract_z
Zn1	Zn	1.288144	0.450125	-0.679055
Zn2	Zn	1.288079	0.678705	-0.450553
Zn3	Zn	1.143696	0.466483	-0.466812
Zn4	Zn	1.162915	0.662326	-0.662752
O5	O	1.220709	0.564410	-0.564793
O6	O	1.400970	0.480456	-0.648763
O7	O	1.260856	0.664254	-0.275079
O8	O	1.154841	0.286691	-0.508594
O9	O	1.400922	0.648392	-0.480883
O10	O	1.260967	0.274673	-0.664528
O11	O	1.154778	0.508336	-0.287024
O12	O	1.033412	0.492454	-0.492785
O13	O	1.187598	0.620477	-0.842545
O14	O	1.047532	0.636338	-0.636741
O15	O	1.279603	0.464574	-0.854523
O16	O	1.279492	0.854155	-0.465074
O17	O	1.187535	0.842121	-0.620976
C18	C	1.011216	0.564395	-0.564759
C19	C	0.921596	0.564416	-0.564772
C20	C	1.235615	0.894191	-0.539519
C21	C	1.242067	1.035270	-0.528750
C22	C	1.235752	0.538873	-0.895880
C23	C	1.242162	0.527991	-1.036969
C24	C	0.593423	0.564420	-0.564826
C25	C	0.684731	0.564416	-0.564807
C26	C	0.757507	0.564419	-0.564798
C27	C	0.848820	0.564413	-0.564781
C28	C	1.431020	0.564426	-0.564828
C29	C	1.520642	0.564433	-0.564843
C30	C	1.205768	0.233339	-0.590193
C31	C	1.199401	0.092256	-0.601017
C32	C	1.205767	0.589756	-0.235001
C33	C	1.199496	0.600280	-0.093940
H34	H	1.283529	1.094419	-0.458624
C35	C	1.143521	0.695139	-1.014025
C36	C	1.073640	0.647084	-0.927066
C37	C	1.017663	0.741945	-0.847141
C38	C	1.031568	0.884861	-0.854176
C39	C	1.101452	0.932924	-0.941138
C40	C	1.157429	0.838063	-1.021063
H41	H	1.063344	0.541282	-0.921856
H42	H	0.965931	0.706365	-0.782766
H43	H	0.990131	0.955083	-0.795011
H44	H	1.111748	1.038726	-0.946349
H45	H	1.209162	0.873643	-1.085438
H46	H	1.157936	1.033116	-0.671130
C47	C	1.298140	0.433127	-1.116890
C48	C	1.304694	0.422004	-1.262698
C49	C	1.360671	0.327142	-1.342619
C50	C	1.410095	0.243403	-1.276731
C51	C	1.403543	0.254523	-1.130916
C52	C	1.347565	0.349385	-1.050995
H53	H	1.268107	0.483995	-1.311479
H54	H	1.365522	0.318911	-1.450561
H55	H	1.451533	0.173180	-1.335893
H56	H	1.440130	0.192532	-1.082135
H57	H	1.342715	0.357616	-0.943052
