data_functionalizedCrystal
_audit_creation_method	'MofGen! by Chris Wilmer'
_symmetry_space_group_name_H-M	'P1'
_symmetry_Int_Tables_number	1
_symmetry_cell_setting	triclinic
loop_
_symmetry_equiv_pos_as_xyz
  x,y,z
_cell_length_a	17.699083
_cell_length_b	16.992695
_cell_length_c	16.176319
_cell_angle_alpha	89.993125
_cell_angle_beta	89.998611
_cell_angle_gamma	86.975619
loop_
_atom_site_label
_atom_site_type_symbol
_atom_site_fract_x
_atom_site_fract_y
_atom_site_fract_z
O1	O	1.010252	0.099146	-0.068631
O2	O	1.510252	0.599146	0.431369
O3	O	0.790676	0.112045	-0.068658
O4	O	1.290676	0.612045	0.431342
O5	O	0.899584	-0.008546	-0.068638
O6	O	1.399584	0.491454	0.431362
O7	O	0.901344	0.219736	-0.068651
O8	O	1.401344	0.719736	0.431349
O9	O	0.899567	-0.008553	0.068855
O10	O	1.399567	0.491447	0.568855
O11	O	0.790660	0.112037	0.068835
O12	O	1.290660	0.612037	0.568835
O13	O	1.010235	0.099138	0.068862
O14	O	1.510235	0.599138	0.568862
Cu15	Cu	0.900446	0.105587	0.081403
Cu16	Cu	1.400446	0.605587	0.581403
Cu17	Cu	0.900465	0.105596	-0.081199
Cu18	Cu	1.400465	0.605596	0.418801
O19	O	0.901328	0.219729	0.068842
O20	O	1.401328	0.719729	0.568842
C21	C	0.762442	0.111579	0.000085
C22	C	1.262442	0.611579	0.500085
C23	C	0.678338	0.110192	0.000075
C24	C	1.178338	0.610192	0.500075
C25	C	0.634124	0.180976	0.000071
C26	C	1.134124	0.680976	0.500071
C27	C	0.555099	0.179669	0.000082
C28	C	1.055099	0.679669	0.500082
C29	C	0.520290	0.107576	0.000091
C30	C	1.020290	0.607576	0.500091
C31	C	0.564510	0.036787	0.000097
C32	C	1.064510	0.536787	0.500097
C33	C	0.643533	0.038095	0.000092
C34	C	1.143533	0.538095	0.500092
C35	C	0.245818	0.031509	0.000118
C36	C	0.745818	0.531509	0.500118
C37	C	0.166789	0.030206	0.000120
C38	C	0.666789	0.530206	0.500120
C39	C	0.157384	0.173082	0.000108
C40	C	0.657384	0.673082	0.500108
C41	C	0.236408	0.174391	0.000103
C42	C	0.736408	0.674391	0.500103
C43	C	0.280621	0.103602	0.000113
C44	C	0.780621	0.603602	0.500113
C45	C	0.366308	0.105020	0.000103
C46	C	0.866308	0.605020	0.500103
C47	C	0.434604	0.106157	0.000095
C48	C	0.934604	0.606157	0.500095
C49	C	0.897311	-0.037758	0.000108
C50	C	1.397311	0.462242	0.500108
C51	C	0.890554	-0.124789	0.000107
C52	C	1.390554	0.375211	0.500107
C53	C	0.955751	-0.175154	0.000116
C54	C	1.455751	0.324846	0.500116
C55	C	0.949398	-0.256928	0.000107
C56	C	1.449398	0.243072	0.500107
C57	C	0.877846	-0.288336	0.000096
C58	C	1.377846	0.211664	0.500096
C59	C	0.812643	-0.237965	0.000084
C60	C	1.312643	0.262035	0.500084
C61	C	0.818998	-0.156192	0.000087
C62	C	1.318998	0.343808	0.500087
C63	C	0.851510	-0.531884	0.000081
C64	C	1.351510	-0.031884	0.500081
C65	C	0.845160	-0.613663	0.000081
C66	C	1.345160	-0.113663	0.500081
C67	C	0.981915	-0.632621	0.000102
C68	C	1.481915	-0.132621	0.500102
C69	C	0.988263	-0.550845	0.000110
C70	C	1.488263	-0.050845	0.500110
C71	C	0.923061	-0.500481	0.000094
C72	C	1.423061	-0.000481	0.500094
N73	N	0.871350	-0.371923	0.000090
N74	N	1.371350	0.128077	0.500090
N75	N	0.929558	-0.416897	0.000095
N76	N	1.429558	0.083103	0.500095
C77	C	1.038469	0.099604	0.000117
C78	C	1.538469	0.599604	0.500117
C79	C	1.122574	0.100991	0.000122
C80	C	1.622574	0.600991	0.500122
C81	C	0.903601	0.248941	0.000094
C82	C	1.403601	0.748941	0.500094
C83	C	0.910358	0.335972	0.000090
C84	C	1.410358	0.835972	0.500090
N85	N	0.900438	0.105580	0.195768
N86	N	1.400438	0.605580	0.695768
N87	N	0.900479	0.105597	-0.195564
N88	N	1.400479	0.605597	0.304436
C89	C	0.948679	0.052204	0.239041
C90	C	1.448679	0.552204	0.739041
C91	C	0.948683	0.052203	0.325588
C92	C	1.448683	0.552203	0.825588
C93	C	0.900449	0.105583	0.368861
C94	C	1.400449	0.605583	0.868861
C95	C	0.852202	0.158961	0.325582
C96	C	1.352202	0.658961	0.825582
C97	C	0.852195	0.158957	0.239036
C98	C	1.352195	0.658957	0.739036
C99	C	0.852229	0.158976	0.674610
C100	C	1.352229	0.658976	1.174610
C101	C	0.852242	0.158977	0.761161
C102	C	1.352242	0.658977	1.261161
C103	C	0.948717	0.052222	0.761162
C104	C	1.448717	0.552222	1.261162
C105	C	0.948709	0.052218	0.674617
C106	C	1.448709	0.552218	1.174617
C107	C	0.900461	0.105593	0.631345
C108	C	1.400461	0.605593	1.131345
C109	C	0.900456	0.105593	0.537501
C110	C	1.400456	0.605593	1.037501
C111	C	0.900457	0.105588	0.462703
C112	C	1.400457	0.605588	0.962703
H113	H	0.264745	0.233096	0.000092
H114	H	0.764745	0.733096	0.500092
H115	H	0.987960	0.008740	0.203814
H116	H	1.487960	0.508740	0.703814
H117	H	0.765906	-0.115186	0.000080
H118	H	1.265906	0.384814	0.500080
C119	C	0.735024	-0.272215	0.000114
C120	C	1.235024	0.227785	0.500114
C121	C	0.743412	-0.354608	0.000138
C122	C	1.243412	0.145392	0.500138
C123	C	0.671925	-0.386183	0.000180
C124	C	1.171925	0.113817	0.500180
H125	H	0.707913	-0.255000	-0.047823
H126	H	1.207913	0.245000	0.452177
H127	H	0.707956	-0.254966	0.048077
H128	H	1.207956	0.245034	0.548077
H129	H	0.770469	-0.371850	-0.047820
H130	H	1.270469	0.128150	0.452180
H131	H	0.770510	-0.371845	0.048072
H132	H	1.270510	0.128155	0.548072
H133	H	0.644857	-0.368935	0.048143
H134	H	1.144857	0.131065	0.548143
H135	H	0.644819	-0.368963	-0.047758
H136	H	1.144819	0.131037	0.452242
H137	H	0.677606	-0.442090	0.000204
H138	H	1.177606	0.057910	0.500204
C139	C	0.293945	-0.045261	0.000156
C140	C	0.793945	0.454739	0.500156
C141	C	0.370602	-0.028694	0.000172
C142	C	0.870602	0.471306	0.500172
C143	C	0.414962	-0.099398	0.000215
C144	C	0.914962	0.400602	0.500215
H145	H	0.283018	-0.074878	-0.047778
H146	H	0.783018	0.425122	0.452222
H147	H	0.282972	-0.074841	0.048122
H148	H	0.782972	0.425159	0.548122
H149	H	0.381570	0.000873	-0.047789
H150	H	0.881570	0.500873	0.452211
H151	H	0.381552	0.000912	0.048103
H152	H	0.881552	0.500912	0.548103
H153	H	0.403988	-0.128978	0.048181
H154	H	0.903988	0.371022	0.548181
H155	H	0.404028	-0.129010	-0.047720
H156	H	0.904028	0.370990	0.452280
H157	H	0.466978	-0.088167	0.000234
H158	H	0.966978	0.411833	0.500234
H159	H	0.536162	-0.021912	0.000116
H160	H	1.036162	0.478088	0.500116
C161	C	0.691503	-0.038781	-0.000079
C162	C	1.191503	0.461219	0.499921
C163	C	0.675133	-0.082187	-0.070823
C164	C	1.175133	0.417813	0.429177
C165	C	0.719314	-0.153007	-0.071011
C166	C	1.219314	0.346993	0.428989
H167	H	0.680526	-0.068446	0.047814
H168	H	1.180526	0.431554	0.547814
H169	H	0.743560	-0.027710	-0.000126
H170	H	1.243560	0.472290	0.499874
H171	H	0.623087	-0.093261	-0.070768
H172	H	1.123087	0.406739	0.429232
H173	H	0.686113	-0.052547	-0.118728
H174	H	1.186113	0.447453	0.381272
H175	H	0.771372	-0.141935	-0.071058
H176	H	1.271372	0.358065	0.428942
H177	H	0.708334	-0.182664	-0.023115
H178	H	1.208334	0.317336	0.476885
H179	H	0.708219	-0.182463	-0.119013
H180	H	1.208219	0.317537	0.380987
H181	H	1.034999	-0.673635	0.000114
H182	H	1.534999	-0.173635	0.500114
C183	C	1.033458	-0.141101	-0.000044
C184	C	1.533458	0.358899	0.499956
C185	C	1.073162	-0.166687	-0.070790
C186	C	1.573162	0.333313	0.429210
C187	C	1.144745	-0.135327	-0.070975
C188	C	1.644745	0.364673	0.429025
H189	H	1.060600	-0.158382	0.047848
H190	H	1.560600	0.341618	0.547848
H191	H	1.027938	-0.085183	-0.000088
H192	H	1.527938	0.414817	0.499912
H193	H	1.078684	-0.222593	-0.070738
H194	H	1.578684	0.277407	0.429262
H195	H	1.046042	-0.149407	-0.118693
H196	H	1.546042	0.350593	0.381307
H197	H	1.139225	-0.079410	-0.071018
H198	H	1.639225	0.420590	0.428982
H199	H	1.171880	-0.152611	-0.023079
H200	H	1.671880	0.347389	0.476921
H201	H	1.171690	-0.152677	-0.118978
H202	H	1.671690	0.347323	0.381022
C203	C	1.001153	-0.005773	0.372421
C204	C	1.501153	0.494227	0.872421
C205	C	1.043414	-0.052499	0.316001
C206	C	1.543414	0.447501	0.816001
C207	C	1.091769	-0.105908	0.359113
C208	C	1.591769	0.394092	0.859113
H209	H	0.972055	-0.038455	0.406198
H210	H	1.472055	0.461545	0.906198
H211	H	1.034397	0.022382	0.406152
H212	H	1.534397	0.522382	0.906152
H213	H	1.010173	-0.080652	0.282284
H214	H	1.510173	0.419348	0.782284
H215	H	1.072527	-0.019838	0.282222
H216	H	1.572527	0.480162	0.782222
H217	H	1.125014	-0.077753	0.392844
H218	H	1.625014	0.422247	0.892844
H219	H	1.062666	-0.138585	0.392888
H220	H	1.562666	0.361415	0.892888
H221	H	1.120454	-0.137613	0.320839
H222	H	1.620454	0.362387	0.820839
H223	H	0.987989	0.008755	0.639387
H224	H	1.487989	0.508755	1.139387
C225	C	0.109418	0.249967	-0.000066
C226	C	0.609418	0.749967	0.499934
C227	C	0.125786	0.293374	-0.070821
C228	C	0.625786	0.793374	0.429179
C229	C	0.081609	0.364197	-0.071018
C230	C	0.581609	0.864197	0.428982
H231	H	0.120401	0.279628	0.047820
H232	H	0.620401	0.779628	0.547820
H233	H	0.057359	0.238899	-0.000103
H234	H	0.557359	0.738899	0.499897
H235	H	0.177832	0.304444	-0.070776
H236	H	0.677832	0.804444	0.429224
H237	H	0.114800	0.263737	-0.118718
H238	H	0.614800	0.763737	0.381282
H239	H	0.029551	0.353130	-0.071055
H240	H	0.529551	0.853130	0.428945
H241	H	0.092596	0.393851	-0.023129
H242	H	0.592596	0.893851	0.476871
H243	H	0.092704	0.393654	-0.119028
H244	H	0.592704	0.893654	0.380972
C245	C	1.020119	-0.311706	0.000245
C246	C	1.520119	0.188294	0.500245
C247	C	1.020445	-0.359234	0.070966
C248	C	1.520445	0.140766	0.570966
C249	C	1.085578	-0.409714	0.071111
C250	C	1.585578	0.090286	0.571111
H251	H	1.063701	-0.281391	0.000298
H252	H	1.563701	0.218609	0.500298
H253	H	1.020490	-0.344036	-0.047681
H254	H	1.520490	0.155964	0.452319
H255	H	1.020080	-0.326908	0.118879
H256	H	1.520080	0.173092	0.618879
H257	H	0.976878	-0.389566	0.070928
H258	H	1.476878	0.110434	0.570928
H259	H	1.085949	-0.442044	0.023185
H260	H	1.585949	0.057956	0.523185
H261	H	1.129155	-0.379392	0.071162
H262	H	1.629155	0.120608	0.571162
H263	H	1.085804	-0.441973	0.119090
H264	H	1.585804	0.058027	0.619090
C265	C	0.799789	0.216790	0.372669
C266	C	1.299789	0.716790	0.872669
C267	C	0.750960	0.175087	0.422386
C268	C	1.250960	0.675087	0.922386
C269	C	0.702673	0.228335	0.465782
C270	C	1.202673	0.728335	0.965782
H271	H	0.770982	0.248601	0.334597
H272	H	1.270982	0.748601	0.834597
H273	H	0.828967	0.249382	0.406467
H274	H	1.328967	0.749382	0.906467
H275	H	0.721784	0.142509	0.388591
H276	H	1.221784	0.642509	0.888591
H277	H	0.779745	0.143279	0.460474
H278	H	1.279745	0.643279	0.960474
H279	H	0.731852	0.260927	0.499581
H280	H	1.231852	0.760927	0.999581
H281	H	0.673872	0.260143	0.427704
H282	H	1.173872	0.760143	0.927704
H283	H	0.669542	0.200047	0.499526
H284	H	1.169542	0.700047	0.999526
H285	H	0.988001	0.008758	0.796403
H286	H	1.488001	0.508758	1.296403
C287	C	0.767403	-0.647613	0.000016
C288	C	1.267403	-0.147613	0.500016
C289	C	0.711660	-0.586005	-0.000023
C290	C	1.211660	-0.086005	0.499977
C291	C	0.640026	-0.617250	-0.000095
C292	C	1.140026	-0.117250	0.499905
H293	H	0.761963	-0.679112	0.047948
H294	H	1.261963	-0.179112	0.547948
H295	H	0.762058	-0.679092	-0.047952
H296	H	1.262058	-0.179092	0.452048
H297	H	0.717002	-0.554540	0.047940
H298	H	1.217002	-0.054540	0.547940
H299	H	0.717075	-0.554501	-0.047951
H300	H	1.217075	-0.054501	0.452049
H301	H	0.634681	-0.648729	-0.048063
H302	H	1.134681	-0.148729	0.451937
H303	H	0.634594	-0.648749	0.047838
H304	H	1.134594	-0.148749	0.547838
H305	H	0.602196	-0.575455	-0.000129
H306	H	1.102196	-0.075455	0.499871
C307	C	0.799781	0.216964	0.807996
C308	C	1.299781	0.716964	1.307996
C309	C	0.757509	0.263692	0.751578
C310	C	1.257509	0.763692	1.251578
C311	C	0.709171	0.317108	0.794691
C312	C	1.209171	0.817108	1.294691
H313	H	0.828892	0.249645	0.841751
H314	H	1.328892	0.749645	1.341751
H315	H	0.766543	0.188815	0.841749
H316	H	1.266543	0.688815	1.341749
H317	H	0.790742	0.291839	0.717838
H318	H	1.290742	0.791839	1.217838
H319	H	0.728382	0.231033	0.717821
H320	H	1.228382	0.731033	1.217821
H321	H	0.675933	0.288959	0.828445
H322	H	1.175933	0.788959	1.328445
H323	H	0.738288	0.349783	0.828445
H324	H	1.238288	0.849783	1.328445
H325	H	0.680478	0.348814	0.756419
H326	H	1.180478	0.848814	1.256419
H327	H	0.812945	0.202437	0.639385
H328	H	1.312945	0.702437	1.139385
C329	C	0.799792	0.216999	0.192200
C330	C	1.299792	0.716999	0.692200
C331	C	0.757567	0.263763	0.248618
C332	C	1.257567	0.763763	0.748618
C333	C	0.709289	0.317245	0.205504
C334	C	1.209289	0.817245	0.705504
H335	H	0.766517	0.188926	0.158445
H336	H	1.266517	0.688926	0.658445
H337	H	0.828968	0.249643	0.158446
H338	H	1.328968	0.749643	0.658446
H339	H	0.728394	0.231123	0.282357
H340	H	1.228394	0.731123	0.782357
H341	H	0.790822	0.291853	0.282374
H342	H	1.290822	0.791853	0.782374
H343	H	0.738465	0.349889	0.171750
H344	H	1.238465	0.849889	0.671750
H345	H	0.676019	0.289165	0.171750
H346	H	1.176019	0.789165	0.671750
H347	H	0.680639	0.348985	0.243776
H348	H	1.180639	0.848985	0.743776
H349	H	0.662460	0.239682	0.000064
H350	H	1.162460	0.739682	0.500064
H351	H	0.519103	0.237308	0.000078
H352	H	1.019103	0.737308	0.500078
H353	H	0.138450	-0.028504	0.000128
H354	H	0.638450	0.471496	0.500128
H355	H	1.046528	-0.525279	0.000120
H356	H	1.546528	-0.025279	0.500120
H357	H	0.798417	-0.490887	0.000069
H358	H	1.298417	0.009113	0.500069
