data_functionalizedCrystal
_audit_creation_method	'MofGen! by Chris Wilmer'
_symmetry_space_group_name_H-M	'P1'
_symmetry_Int_Tables_number	1
_symmetry_cell_setting	triclinic
loop_
_symmetry_equiv_pos_as_xyz
  x,y,z
_cell_length_a	10.908878
_cell_length_b	11.792241
_cell_length_c	9.482900
_cell_angle_alpha	99.398500
_cell_angle_beta	83.038437
_cell_angle_gamma	72.139103
loop_
_atom_site_label
_atom_site_type_symbol
_atom_site_fract_x
_atom_site_fract_y
_atom_site_fract_z
O1	O	1.722495	-0.196583	-0.120865
O2	O	1.349249	-0.108071	-0.120874
O3	O	1.544928	-0.319255	-0.120859
O4	O	1.526816	0.014601	-0.120880
O5	O	1.505182	-0.276217	0.120930
O6	O	1.309503	-0.065033	0.120915
O7	O	1.682749	-0.153545	0.120925
Cu8	Cu	1.492497	-0.105359	0.142997
Cu9	Cu	1.539501	-0.156257	-0.142947
O10	O	1.487070	0.057639	0.120909
C11	C	1.281592	-0.078280	0.000019
C12	C	1.139211	-0.053646	0.000016
C13	C	1.523917	-0.339806	0.000035
C14	C	1.520511	-0.465158	0.000034
C15	C	1.089576	-0.143532	0.000021
C16	C	0.942419	-0.118074	0.000017
C17	C	1.514252	-0.694659	0.000009
C18	C	1.517730	-0.566947	0.000022
C19	C	1.750406	-0.183337	0.000028
C20	C	1.892788	-0.207973	0.000022
C21	C	1.508081	0.078189	0.000012
C22	C	1.511488	0.203540	0.000004
N23	N	1.459446	-0.069563	0.344115
N24	N	1.572562	-0.192064	-0.344064
C25	C	1.529743	-0.145703	0.416319
C26	C	1.502254	-0.115913	0.583735
H27	H	1.156028	-0.239336	0.000020
O28	O	1.668659	-0.296228	0.582068
C29	C	1.728705	-0.361220	0.681713
H30	H	1.658367	-0.333251	0.790263
H31	H	1.821734	-0.339767	0.697824
C32	C	1.850035	-0.533327	0.488838
C33	C	1.763640	-0.498982	0.622158
H34	H	1.871591	-0.618306	0.452101
H35	H	1.809585	-0.489540	0.421704
H36	H	1.927549	-0.515439	0.502282
H37	H	1.686122	-0.516856	0.608709
H38	H	1.804078	-0.542776	0.689289
O39	O	0.862966	-0.003832	0.000070
C40	C	0.733730	-0.003849	0.000027
H41	H	0.720582	-0.083804	0.045809
H42	H	0.714147	-0.012944	-0.115975
C43	C	0.652919	0.214626	0.038605
C44	C	0.636768	0.116429	0.094847
H45	H	0.593107	0.288820	0.097089
H46	H	0.739988	0.214638	0.038629
H47	H	0.636602	0.207030	-0.058062
H48	H	0.653101	0.124017	0.191505
H49	H	0.549699	0.116420	0.094842
O50	O	1.405999	-0.011919	0.657766
C51	C	1.284892	-0.012660	0.620676
H52	H	1.290203	-0.110632	0.578740
H53	H	1.262262	0.041678	0.532445
C54	C	1.169474	0.165806	0.807502
C55	C	1.175993	0.045473	0.756007
H56	H	1.102298	0.201670	0.890977
H57	H	1.251066	0.166309	0.832487
H58	H	1.150620	0.211072	0.733963
H59	H	1.194863	0.000206	0.829538
H60	H	1.094402	0.044964	0.731036
O61	O	1.363197	0.034425	0.418152
C62	C	1.242089	0.033684	0.381061
H63	H	1.247400	-0.064288	0.339125
H64	H	1.219459	0.088022	0.292831
C65	C	1.126671	0.212150	0.567887
C66	C	1.133191	0.091817	0.516392
H67	H	1.059495	0.248014	0.651362
H68	H	1.208263	0.212653	0.592873
H69	H	1.107817	0.257416	0.494349
H70	H	1.152060	0.046550	0.589923
H71	H	1.051599	0.091308	0.491422
O72	O	0.972206	-0.322261	-0.000166
C73	C	1.071021	-0.364216	-0.125409
H74	H	1.085148	-0.282912	-0.167164
H75	H	1.041142	-0.423354	-0.213093
C76	C	1.182884	-0.539845	-0.036085
C77	C	1.200244	-0.439986	-0.087361
H78	H	1.262595	-0.586588	-0.012619
H79	H	1.116309	-0.511582	0.048292
H80	H	1.157982	-0.589113	-0.109163
H81	H	1.225130	-0.390712	-0.014277
H82	H	1.266827	-0.468242	-0.171725
O83	O	1.060047	0.060734	0.000199
C84	C	1.063164	0.141992	0.125439
H85	H	1.157601	0.102547	0.167197
H86	H	0.975507	0.155820	0.213123
C87	C	0.941423	0.313806	0.036104
C88	C	1.057417	0.265364	0.087384
H89	H	0.937871	0.389910	0.012633
H90	H	0.939318	0.259062	-0.048271
H91	H	0.868388	0.325319	0.109182
H92	H	1.130448	0.253838	0.014299
H93	H	1.059534	0.320110	0.171746
H94	H	1.610275	-0.232947	0.354198
