data_functionalizedCrystal
_audit_creation_method	'MofGen! by Chris Wilmer'
_symmetry_space_group_name_H-M	'P1'
_symmetry_Int_Tables_number	1
_symmetry_cell_setting	triclinic
loop_
_symmetry_equiv_pos_as_xyz
  x,y,z
_cell_length_a	16.992694
_cell_length_b	13.339070
_cell_length_c	15.455313
_cell_angle_alpha	93.394339
_cell_angle_beta	87.142206
_cell_angle_gamma	103.148759
loop_
_atom_site_label
_atom_site_type_symbol
_atom_site_fract_x
_atom_site_fract_y
_atom_site_fract_z
O1	O	1.090408	0.214131	-0.072012
O2	O	0.861603	0.211734	-0.072038
O3	O	0.949746	0.063546	-0.072026
O4	O	1.002265	0.362319	-0.072025
O5	O	0.944697	0.071983	0.072236
O6	O	0.856554	0.220171	0.072223
O7	O	1.085360	0.222568	0.072249
Cu8	Cu	0.970496	0.222140	0.085408
Cu9	Cu	0.976466	0.212163	-0.085197
O10	O	0.997216	0.370756	0.072237
C11	C	0.829195	0.212871	0.000089
C12	C	0.740151	0.203676	0.000079
C13	C	0.709211	0.292390	0.000080
C14	C	0.625543	0.283745	0.000092
C15	C	0.572817	0.186386	0.000097
C16	C	0.603762	0.097666	0.000099
C17	C	0.687429	0.106311	0.000093
C18	C	0.321423	0.150552	0.000120
C19	C	0.237751	0.141912	0.000123
C20	C	0.259538	0.327993	0.000118
C21	C	0.343205	0.336630	0.000107
C22	C	0.374143	0.247910	0.000114
N23	N	0.487295	0.177547	0.000107
N24	N	0.459663	0.256750	0.000110
C25	C	0.938350	0.029358	0.000103
C26	C	0.911906	-0.085082	0.000097
C27	C	1.117519	-0.433251	0.000120
C28	C	1.142367	-0.325728	0.000131
C29	C	1.084754	-0.265562	0.000122
C30	C	1.002289	-0.312927	0.000103
C31	C	0.977439	-0.420460	0.000099
C32	C	0.944673	-0.252771	0.000101
C33	C	0.862209	-0.300136	0.000081
C34	C	0.837363	-0.407658	0.000077
C35	C	0.894976	-0.467825	0.000086
C36	C	0.969524	-0.145238	0.000105
C37	C	0.829443	-0.132447	0.000083
C38	C	0.804596	-0.239969	0.000072
C39	C	1.117767	0.221431	0.000120
C40	C	1.206811	0.230626	0.000124
C41	C	1.008612	0.404944	0.000106
C42	C	1.035056	0.519384	0.000107
N43	N	0.966302	0.229157	0.205403
N44	N	0.980664	0.205137	-0.205192
C45	C	1.003772	0.166228	0.250803
C46	C	1.000610	0.171545	0.341610
C47	C	0.959983	0.239798	0.387017
C48	C	0.922508	0.302729	0.341611
C49	C	0.925665	0.297406	0.250805
C50	C	0.946347	0.262746	0.658596
C51	C	0.943195	0.268067	0.749408
C52	C	1.021296	0.136880	0.749401
C53	C	1.024454	0.131568	0.658594
C54	C	0.986976	0.194496	0.613196
N55	N	0.956752	0.245237	0.479836
N56	N	0.990202	0.189051	0.520378
H57	H	0.386130	0.415910	0.000093
H58	H	0.560826	0.018394	0.000115
N59	N	0.878691	0.376344	0.390589
H60	H	0.904330	0.449251	0.374775
H61	H	0.820014	0.358848	0.374780
N62	N	0.354794	0.054871	0.000111
H63	H	0.387157	0.057435	0.053587
H64	H	0.308658	-0.008069	0.000076
N65	N	0.766074	0.397402	0.000081
H66	H	0.823772	0.389421	0.000076
H67	H	0.758068	0.433392	-0.053396
H68	H	0.234339	0.400223	0.000115
H69	H	0.874749	-0.555379	0.000073
N70	N	0.885257	0.365288	0.201837
H71	H	0.893420	0.351558	0.137423
H72	H	0.825491	0.349701	0.217720
N73	N	1.047584	0.092595	0.201846
H74	H	1.008468	0.042305	0.164184
H75	H	1.092803	0.132678	0.164208
H76	H	1.051808	0.085646	0.786373
N77	N	1.068280	0.057956	0.609627
H78	H	1.113494	0.097993	0.571952
H79	H	1.091486	0.018921	0.652228
N80	N	1.041058	0.103697	0.390565
H81	H	1.016542	0.028929	0.374771
H82	H	1.100830	0.119379	0.374712
N83	N	0.180879	0.036898	0.000123
H84	H	0.213173	-0.017994	0.000127
H85	H	0.143824	0.032391	0.053602
N86	N	1.058462	-0.094161	0.000127
H87	H	1.086632	-0.118796	-0.053346
H88	H	1.065396	-0.016925	0.000164
N89	N	0.720797	0.010623	0.000090
H90	H	0.756890	0.006931	-0.053388
H91	H	0.753118	0.013250	0.053603
H92	H	1.209509	-0.287171	0.000148
H93	H	1.104990	-0.178013	0.000131
H94	H	1.164418	-0.482247	0.000134
H95	H	0.910110	0.323650	0.786374
H96	H	0.770215	-0.446220	0.000068
N97	N	0.715654	-0.291061	0.000052
H98	H	0.708659	-0.368306	0.000050
H99	H	0.687537	-0.266351	0.053528
H100	H	0.782529	-0.083459	0.000080
H101	H	0.915833	0.313987	0.621640
H102	H	0.600356	0.355985	0.000092
