data_functionalizedCrystal
_audit_creation_method	'MofGen! by Chris Wilmer'
_symmetry_space_group_name_H-M	'P1'
_symmetry_Int_Tables_number	1
_symmetry_cell_setting	triclinic
loop_
_symmetry_equiv_pos_as_xyz
  x,y,z
_cell_length_a	14.971486
_cell_length_b	16.974813
_cell_length_c	14.048226
_cell_angle_alpha	86.339005
_cell_angle_beta	89.998499
_cell_angle_gamma	83.504783
loop_
_atom_site_label
_atom_site_type_symbol
_atom_site_fract_x
_atom_site_fract_y
_atom_site_fract_z
O1	O	1.186696	0.103043	-0.086987
O2	O	1.686696	0.603043	0.413013
O3	O	0.926266	0.115383	-0.087964
O4	O	1.426266	0.615383	0.412036
O5	O	1.063741	-0.005884	-0.078604
O6	O	1.563741	0.494116	0.421396
O7	O	1.049221	0.224310	-0.096347
O8	O	1.549221	0.724310	0.403653
O9	O	1.063724	-0.005891	0.079718
O10	O	1.563724	0.494109	0.579718
O11	O	0.926249	0.115375	0.070358
O12	O	1.426249	0.615375	0.570358
O13	O	1.186679	0.103036	0.071334
O14	O	1.686679	0.603036	0.571334
Zn15	Zn	1.056462	0.109205	0.095983
Zn16	Zn	1.556462	0.609205	0.595983
Zn17	Zn	1.056484	0.109214	-0.112613
Zn18	Zn	1.556484	0.609214	0.387387
O19	O	1.049205	0.224303	0.061975
O20	O	1.549205	0.724303	0.561975
C21	C	0.892934	0.114827	-0.008764
C22	C	1.392934	0.614827	0.491236
C23	C	0.793641	0.113173	-0.008646
C24	C	1.293641	0.613173	0.491354
C25	C	0.736242	0.184414	-0.014136
C26	C	1.236242	0.684414	0.485864
C27	C	0.642947	0.182856	-0.014002
C28	C	1.142947	0.682856	0.485998
C29	C	0.607052	0.110056	-0.008384
C30	C	1.107052	0.610056	0.491616
C31	C	0.664458	0.038809	-0.002891
C32	C	1.164458	0.538809	0.497109
C33	C	0.757752	0.040369	-0.003019
C34	C	1.257752	0.540369	0.496981
C35	C	0.470003	0.035564	-0.002628
C36	C	0.970003	0.535564	0.497372
C37	C	0.376703	0.034004	-0.002502
C38	C	0.876703	0.534004	0.497498
C39	C	0.355198	0.178051	-0.013611
C40	C	0.855198	0.678051	0.486389
C41	C	0.448492	0.179611	-0.013738
C42	C	0.948492	0.679611	0.486262
C43	C	0.505892	0.108364	-0.008247
C44	C	1.005892	0.608364	0.491753
C45	C	1.063180	-0.035347	0.002825
C46	C	1.563180	0.464653	0.502825
C47	C	1.061523	-0.123125	0.009585
C48	C	1.561523	0.376875	0.509585
C49	C	1.060756	-0.164355	-0.073540
C50	C	1.560756	0.335645	0.426460
C51	C	1.059193	-0.246832	-0.067186
C52	C	1.559193	0.253168	0.432814
C53	C	1.058404	-0.288078	0.022294
C54	C	1.558404	0.211922	0.522294
C55	C	1.059169	-0.246841	0.105425
C56	C	1.559169	0.253159	0.605425
C57	C	1.060725	-0.164366	0.099070
C58	C	1.560725	0.335634	0.599070
C59	C	1.053743	-0.534744	0.050554
C60	C	1.553743	-0.034744	0.550554
C61	C	1.052190	-0.617226	0.056903
C62	C	1.552190	-0.117226	0.556903
C63	C	1.052212	-0.617211	-0.115710
C64	C	1.552212	-0.117211	0.384290
C65	C	1.053774	-0.534734	-0.122056
C66	C	1.553774	-0.034734	0.377944
C67	C	1.054534	-0.493504	-0.038925
C68	C	1.554534	0.006496	0.461075
N69	N	1.056810	-0.372382	0.028791
N70	N	1.556810	0.127618	0.528791
N71	N	1.056121	-0.409200	-0.045423
N72	N	1.556121	0.090800	0.454577
C73	C	1.220011	0.103591	-0.007868
C74	C	1.720011	0.603591	0.492132
C75	C	1.319304	0.105245	-0.007992
C76	C	1.819304	0.605245	0.492008
C77	C	1.049765	0.253765	-0.019457
C78	C	1.549765	0.753765	0.480543
C79	C	1.051422	0.341544	-0.026222
C80	C	1.551422	0.841544	0.473778
N81	N	1.056453	0.109198	0.238344
N82	N	1.556453	0.609198	0.738344
N83	N	1.056499	0.109215	-0.254973
N84	N	1.556499	0.609215	0.245027
C85	C	1.117346	0.055523	0.292305
C86	C	1.617346	0.555523	0.792305
C87	C	1.117352	0.055523	0.391963
C88	C	1.617352	0.555523	0.891963
C89	C	1.056469	0.109201	0.437658
C90	C	1.556469	0.609201	0.937658
C91	C	0.995570	0.162878	0.383690
C92	C	1.495570	0.662878	0.883690
C93	C	0.995560	0.162874	0.284034
C94	C	1.495560	0.662874	0.784034
C95	C	0.995596	0.162884	0.591403
C96	C	1.495596	0.662884	1.091403
C97	C	0.995606	0.162889	0.691066
C98	C	1.495606	0.662889	1.191066
C99	C	1.117388	0.055532	0.699332
C100	C	1.617388	0.555532	1.199332
C101	C	1.117378	0.055528	0.599677
C102	C	1.617378	0.555528	1.099677
C103	C	1.056480	0.109207	0.545716
C104	C	1.556480	0.609207	1.045716
H105	H	0.477714	0.238891	-0.018322
H106	H	0.977714	0.738891	0.481678
H107	H	0.946028	0.206599	0.728265
H108	H	1.446028	0.706599	1.228265
H109	H	0.946002	0.206592	0.547471
H110	H	1.446002	0.706592	1.047471
H111	H	1.051543	-0.650806	0.129772
H112	H	1.551543	-0.150806	0.629772
H113	H	0.635225	-0.020466	0.001697
H114	H	1.135225	0.479534	0.501697
H115	H	1.061403	-0.130780	-0.146405
H116	H	1.561403	0.369220	0.353595
H117	H	0.945993	0.206582	0.420900
H118	H	1.445993	0.706582	0.920900
N119	N	0.581079	0.259718	-0.019907
N120	N	1.081079	0.759718	0.480093
H121	H	0.541874	0.262317	-0.078784
H122	H	1.041874	0.762317	0.421216
H123	H	0.541965	0.262247	0.038640
H124	H	1.041965	0.762247	0.538640
N125	N	1.054574	-0.490282	0.140213
N126	N	1.554574	0.009718	0.640213
H127	H	1.053845	-0.528929	0.197859
H128	H	1.553845	-0.028929	0.697859
H129	H	1.110642	-0.462421	0.141827
H130	H	1.610642	0.037579	0.641827
H131	H	0.804486	-0.017643	0.001451
H132	H	1.304486	0.482357	0.501451
N133	N	1.058494	-0.291317	-0.156841
N134	N	1.558494	0.208683	0.343159
H135	H	1.059279	-0.252679	-0.214489
H136	H	1.559279	0.247321	0.285511
H137	H	1.113313	-0.331854	-0.157371
H138	H	1.613313	0.168146	0.342629
H139	H	0.308458	0.236063	-0.018078
H140	H	0.808458	0.736063	0.481922
N141	N	1.058327	-0.291324	0.201938
N142	N	1.558327	0.208676	0.701938
H143	H	1.057233	-0.349830	0.193352
H144	H	1.557233	0.150170	0.693352
H145	H	1.114022	-0.283260	0.238998
H146	H	1.614022	0.216740	0.738998
H147	H	1.054417	-0.501157	-0.194921
H148	H	1.554417	-0.001157	0.305079
H149	H	1.166958	0.011823	0.562472
H150	H	1.666958	0.511823	1.062472
H151	H	0.347481	-0.025276	0.002074
H152	H	0.847481	0.474724	0.502074
H153	H	1.061337	-0.130796	0.166759
H154	H	1.561337	0.369204	0.666759
N155	N	1.183080	-0.002351	0.757536
N156	N	1.683080	0.497649	1.257536
H157	H	1.246539	0.006868	0.739471
H158	H	1.746539	0.506868	1.239471
H159	H	1.173765	0.005834	0.827578
H160	H	1.673765	0.505834	1.327578
N161	N	0.929879	0.220762	0.225829
N162	N	1.429879	0.720762	0.725829
H163	H	0.891310	0.254768	0.269896
H164	H	1.391310	0.754768	0.769896
H165	H	0.964066	0.255768	0.181769
H166	H	1.464066	0.755768	0.681769
H167	H	0.516736	-0.022453	0.001845
H168	H	1.016736	0.477547	0.501845
H169	H	1.166935	0.011816	0.435898
H170	H	1.666935	0.511816	0.935898
N171	N	0.774954	0.262935	-0.020206
N172	N	1.274954	0.762935	0.479794
H173	H	0.724432	0.307829	-0.023663
H174	H	1.224432	0.807829	0.476337
H175	H	0.813199	0.266720	0.038189
H176	H	1.313199	0.766720	0.538189
H177	H	1.051592	-0.650789	-0.183390
H178	H	1.551592	-0.150789	0.316610
H179	H	1.166928	0.011815	0.255108
H180	H	1.666928	0.511815	0.755108
