data_functionalizedCrystal
_audit_creation_method	'MofGen! by Chris Wilmer'
_symmetry_space_group_name_H-M	'P1'
_symmetry_Int_Tables_number	1
_symmetry_cell_setting	triclinic
loop_
_symmetry_equiv_pos_as_xyz
  x,y,z
_cell_length_a	16.109301
_cell_length_b	16.053934
_cell_length_c	16.109301
_cell_angle_alpha	87.424837
_cell_angle_beta	96.538519
_cell_angle_gamma	87.432301
loop_
_atom_site_label
_atom_site_type_symbol
_atom_site_fract_x
_atom_site_fract_y
_atom_site_fract_z
O1	O	1.099634	0.069378	-0.110364
O2	O	1.599634	0.569378	0.389636
O3	O	0.857571	0.069392	-0.123664
O4	O	1.357571	0.569392	0.376336
O5	O	0.985253	0.069376	0.004017
O6	O	1.485253	0.569376	0.504017
O7	O	0.971953	0.069394	-0.238046
O8	O	1.471953	0.569394	0.261954
O9	O	0.992243	-0.069481	0.011021
O10	O	1.492243	0.430519	0.511021
O11	O	0.864561	-0.069465	-0.116661
O12	O	1.364561	0.430535	0.383339
O13	O	1.106624	-0.069479	-0.103361
O14	O	1.606624	0.430521	0.396639
Zn15	Zn	0.986702	-0.091518	-0.108899
Zn16	Zn	1.486702	0.408482	0.391101
Zn17	Zn	0.977493	0.091432	-0.118126
Zn18	Zn	1.477493	0.591432	0.381874
O19	O	0.978942	-0.069463	-0.231042
O20	O	1.478942	0.430537	0.268958
C21	C	0.830091	-0.000035	-0.119624
C22	C	1.330091	0.499965	0.380376
C23	C	0.737796	-0.000030	-0.118009
C24	C	1.237796	0.499970	0.381991
C25	C	0.515524	-0.000034	-0.190017
C26	C	1.015524	0.499966	0.309983
C27	C	0.428803	-0.000040	-0.188492
C28	C	0.928803	0.499960	0.311508
C29	C	0.448678	-0.000048	-0.037003
C30	C	0.948678	0.499952	0.462997
C31	C	0.535397	-0.000048	-0.038528
C32	C	1.035397	0.499952	0.461472
C33	C	0.568817	-0.000037	-0.115037
C34	C	1.068817	0.499963	0.384963
C35	C	0.395378	-0.000042	-0.111988
C36	C	0.895378	0.499958	0.388012
C37	C	0.301352	-0.000048	-0.110335
C38	C	0.801352	0.499952	0.389665
C39	C	0.662849	-0.000033	-0.116691
C40	C	1.162849	0.499967	0.383309
N41	N	0.992993	-0.216377	-0.102601
N42	N	1.492993	0.283623	0.397399
C43	C	0.938654	-0.260085	-0.156909
C44	C	1.438654	0.239915	0.343091
C45	C	0.943079	-0.347491	-0.152500
C46	C	1.443079	0.152509	0.347500
C47	C	1.001840	-0.391187	-0.093778
C48	C	1.501840	0.108813	0.406222
C49	C	1.056185	-0.347473	-0.039467
C50	C	1.556185	0.152527	0.460533
C51	C	1.051763	-0.260069	-0.043881
C52	C	1.551763	0.239931	0.456119
C53	C	1.021132	-0.652592	-0.074521
C54	C	1.521132	-0.152592	0.425479
C55	C	1.025548	-0.740002	-0.070109
C56	C	1.525548	-0.240002	0.429891
C57	C	0.912442	-0.740013	-0.183144
C58	C	1.412442	-0.240013	0.316856
C59	C	0.908023	-0.652608	-0.187549
C60	C	1.408023	-0.152608	0.312451
C61	C	0.962370	-0.608901	-0.133241
C62	C	1.462370	-0.108901	0.366759
N63	N	1.006363	-0.480529	-0.089268
N64	N	1.506363	0.019471	0.410732
N65	N	0.957851	-0.519560	-0.137756
N66	N	1.457851	-0.019560	0.362244
C67	C	1.134104	-0.000050	-0.107401
C68	C	1.634104	0.499950	0.392599
C69	C	1.226399	-0.000049	-0.109016
C70	C	1.726399	0.499951	0.390984
C71	C	0.988209	-0.000053	0.038494
C72	C	1.488209	0.499947	0.538494
C73	C	0.986594	-0.000054	0.130789
C74	C	1.486594	0.499946	0.630789
N75	N	0.971208	0.216290	-0.124418
N76	N	1.471208	0.716290	0.375582
C77	C	0.975986	-0.000032	-0.265519
C78	C	1.475986	0.499968	0.234481
C79	C	0.977601	-0.000026	-0.357815
C80	C	1.477601	0.499974	0.142185
C81	C	1.058601	-0.000045	0.353061
C82	C	1.558601	0.499955	0.853061
C83	C	1.057077	-0.000038	0.439781
C84	C	1.557077	0.499962	0.939781
C85	C	0.905588	-0.000032	0.419906
C86	C	1.405588	0.499968	0.919906
C87	C	0.907113	-0.000033	0.333188
C88	C	1.407113	0.499967	0.833188
C89	C	0.983622	-0.000044	0.299768
C90	C	1.483622	0.499956	0.799768
C91	C	0.980573	-0.000036	0.473207
C92	C	1.480573	0.499964	0.973207
C93	C	0.978919	-0.000028	0.567232
C94	C	1.478919	0.499972	1.067232
C95	C	0.985276	-0.000050	0.205736
C96	C	1.485276	0.499950	0.705736
H97	H	0.898833	-0.383077	-0.196723
H98	H	1.398833	0.116923	0.303277
H99	H	0.890802	-0.224513	-0.204724
H100	H	1.390802	0.275487	0.295276
H101	H	0.843296	-0.000026	0.447128
H102	H	1.343296	0.499974	0.947128
O103	O	0.371326	-0.000040	-0.269366
O104	O	0.871326	0.499960	0.230634
H105	H	0.305410	-0.000053	-0.255455
H106	H	0.805410	0.499947	0.244545
O107	O	1.119570	-0.394598	0.023866
O108	O	1.619570	0.105402	0.523866
H109	H	1.108158	-0.377821	0.087836
H110	H	1.608158	0.122179	0.587836
H111	H	0.542731	-0.000032	-0.252315
H112	H	1.042731	0.499968	0.247685
O113	O	1.088933	-0.787137	-0.006775
O114	O	1.588933	-0.287137	0.493225
H115	H	1.125988	-0.742062	0.030242
H116	H	1.625988	-0.242062	0.530242
H117	H	0.421457	-0.000061	0.025289
H118	H	0.921457	0.499939	0.525289
O119	O	1.079751	-0.605468	-0.015941
O120	O	1.579751	-0.105468	0.484059
H121	H	1.118141	-0.565649	-0.052963
H122	H	1.618141	-0.065649	0.447037
O123	O	0.853846	-0.787158	-0.241731
O124	O	1.353846	-0.287158	0.258269
H125	H	0.812245	-0.742089	-0.283306
H126	H	1.312245	-0.242089	0.216694
O127	O	1.141118	-0.000048	0.317012
O128	O	1.641118	0.499952	0.817012
H129	H	1.142579	0.056544	0.275114
H130	H	1.642579	0.556544	0.775114
H131	H	1.096013	-0.224483	0.000342
H132	H	1.596013	0.275517	0.500342
O133	O	0.844646	-0.605484	-0.250892
O134	O	1.344646	-0.105484	0.249108
H135	H	0.877617	-0.565651	-0.293317
H136	H	1.377617	-0.065651	0.206683
H137	H	0.846052	-0.000030	0.289794
H138	H	1.346052	0.499970	0.789794
O139	O	1.137947	-0.000049	0.497265
O140	O	1.637947	0.499951	0.997265
H141	H	1.191401	-0.000065	0.459454
H142	H	1.691401	0.499935	0.959454
H143	H	0.578791	-0.000053	0.022533
H144	H	1.078791	0.499947	0.522533
