data_functionalizedCrystal
_audit_creation_method	'MofGen! by Chris Wilmer'
_symmetry_space_group_name_H-M	'P1'
_symmetry_Int_Tables_number	1
_symmetry_cell_setting	triclinic
loop_
_symmetry_equiv_pos_as_xyz
  x,y,z
_cell_length_a	29.839131
_cell_length_b	29.839135
_cell_length_c	18.050582
_cell_angle_alpha	90.018409
_cell_angle_beta	89.974523
_cell_angle_gamma	89.956753
loop_
_atom_site_label
_atom_site_type_symbol
_atom_site_fract_x
_atom_site_fract_y
_atom_site_fract_z
Zn1	Zn	-0.178860	-0.686731	-0.419967
Zn2	Zn	-0.253982	-0.686660	-0.295770
Zn3	Zn	-0.178869	-0.611611	-0.295783
Zn4	Zn	-0.253966	-0.611562	-0.419911
O5	O	-0.216419	-0.649141	-0.357858
O6	O	-0.188828	-0.749589	-0.403510
O7	O	-0.244029	-0.676695	-0.191847
O8	O	-0.116001	-0.621626	-0.312285
O9	O	-0.244020	-0.749537	-0.312263
O10	O	-0.115994	-0.676817	-0.403522
O11	O	-0.188844	-0.621557	-0.191857
O12	O	-0.188828	-0.548737	-0.312231
O13	O	-0.243992	-0.621543	-0.523843
O14	O	-0.244002	-0.548701	-0.403428
O15	O	-0.188812	-0.676769	-0.523884
O16	O	-0.316847	-0.676648	-0.312209
O17	O	-0.316835	-0.621474	-0.403415
C18	C	-0.216415	-0.532418	-0.357825
C19	C	-0.216423	-0.482484	-0.357829
C20	C	-0.187719	-0.172865	-0.405436
C21	C	-0.187719	0.014808	-0.405456
O22	O	-0.163306	0.039052	-0.445900
N23	N	-0.216411	0.038301	-0.357880
C24	C	-0.245103	0.014873	-0.310292
O25	O	-0.269504	0.039161	-0.269821
C26	C	-0.245100	-0.172799	-0.310269
C27	C	-0.216409	-0.196290	-0.357854
C28	C	-0.159030	-0.196356	-0.453016
C29	C	-0.159032	-0.243271	-0.453014
C30	C	-0.187722	-0.266696	-0.405431
C31	C	-0.216411	-0.243205	-0.357851
C32	C	-0.273789	-0.196227	-0.262678
C33	C	-0.273785	-0.243148	-0.262675
C34	C	-0.245094	-0.266638	-0.310260
C35	C	-0.245103	-0.313546	-0.310266
N36	N	-0.216411	-0.337039	-0.357842
C37	C	-0.187721	-0.313614	-0.405425
C38	C	-0.245104	0.113403	-0.310308
C39	C	-0.245105	0.160321	-0.310315
C40	C	-0.187721	0.160253	-0.405478
C41	C	-0.187722	0.113335	-0.405475
C42	C	-0.216412	0.089911	-0.357885
C43	C	-0.187727	-0.412140	-0.405416
C44	C	-0.187733	-0.459059	-0.405412
C45	C	-0.245115	-0.458987	-0.310246
C46	C	-0.245112	-0.412072	-0.310253
C47	C	-0.216414	-0.388649	-0.357841
O48	O	-0.269500	-0.337819	-0.269837
O49	O	-0.163316	-0.337910	-0.445878
C50	C	-0.187717	-0.125950	-0.405439
C51	C	-0.216406	-0.102459	-0.357859
C52	C	-0.245096	-0.125884	-0.310276
C53	C	-0.216407	-0.055541	-0.357865
C54	C	-0.187716	-0.032116	-0.405448
C55	C	-0.159024	-0.055609	-0.453024
C56	C	-0.159026	-0.102525	-0.453021
C57	C	-0.273788	-0.102391	-0.262700
C58	C	-0.273784	-0.055475	-0.262707
C59	C	-0.245094	-0.032051	-0.310290
C60	C	-0.333142	-0.649060	-0.357821
C61	C	-0.383076	-0.649066	-0.357830
C62	C	-0.692713	-0.677923	-0.310436
C63	C	-0.880386	-0.677978	-0.310465
O64	O	-0.904646	-0.702448	-0.270141
N65	N	-0.903861	-0.649234	-0.357914
C66	C	-0.880415	-0.620477	-0.405362
O67	O	-0.904689	-0.596033	-0.445726
C68	C	-0.692743	-0.620424	-0.405337
C69	C	-0.669271	-0.649166	-0.357879
C70	C	-0.669241	-0.706663	-0.262984
C71	C	-0.622325	-0.706647	-0.262974
C72	C	-0.598882	-0.677891	-0.310417
C73	C	-0.622355	-0.649150	-0.357870
C74	C	-0.669298	-0.591669	-0.452788
C75	C	-0.622377	-0.591659	-0.452779
C76	C	-0.598904	-0.620401	-0.405322
C77	C	-0.551997	-0.620378	-0.405303
N78	N	-0.528522	-0.649122	-0.357855
C79	C	-0.551965	-0.677878	-0.310412
C80	C	-0.978946	-0.620506	-0.405371
C81	C	-1.025864	-0.620518	-0.405377
C82	C	-1.025832	-0.678020	-0.310481
C83	C	-0.978913	-0.678005	-0.310472
C84	C	-0.955471	-0.649250	-0.357923
C85	C	-0.453439	-0.677842	-0.310395
C86	C	-0.406519	-0.677823	-0.310387
C87	C	-0.406556	-0.620322	-0.405286
C88	C	-0.453471	-0.620340	-0.405291
C89	C	-0.476912	-0.649104	-0.357843
O90	O	-0.527709	-0.595924	-0.445612
O91	O	-0.527683	-0.702325	-0.270065
C92	C	-0.739629	-0.677938	-0.310446
C93	C	-0.763101	-0.649198	-0.357899
C94	C	-0.739659	-0.620442	-0.405342
C95	C	-0.810019	-0.649211	-0.357904
C96	C	-0.833462	-0.677967	-0.310461
C97	C	-0.809987	-0.706711	-0.263013
C98	C	-0.763071	-0.706695	-0.263003
C99	C	-0.763134	-0.591698	-0.452790
C100	C	-0.810049	-0.591716	-0.452795
C101	C	-0.833492	-0.620472	-0.405352
C102	C	-0.099241	-0.649235	-0.357911
C103	C	-0.049307	-0.649275	-0.357934
C104	C	-0.216399	-0.649159	-0.551564
C105	C	-0.216391	-0.649166	-0.634109
C106	C	-0.216422	0.233681	-0.357889
C107	C	-0.216415	0.183746	-0.357898
C108	C	-0.246357	-0.619157	-0.833538
C109	C	-0.257337	-0.660142	-0.882933
C110	C	-0.216357	-0.649188	-0.785240
C111	C	-0.205364	-0.608226	-0.882927
C112	C	-0.216324	-0.649206	-0.931225
C113	C	-0.227358	-0.690194	-0.833547
C114	C	-0.175366	-0.638252	-0.833537
C115	C	-0.186331	-0.679264	-0.882910
C116	C	-0.216376	-0.649177	-0.701141
C117	C	-0.216305	-0.649222	-1.015322
C118	C	-0.216407	-0.649149	-0.164906
C119	C	-0.216289	-0.649229	-0.082360
H120	H	-0.268473	0.179443	-0.271575
H121	H	-0.196080	-0.573578	-0.904618
H122	H	-0.959804	-0.701410	-0.271829
Br123	Br	-0.148795	-0.490936	-0.469998
Br124	Br	-0.315091	-0.675579	-0.919096
H125	H	-0.744050	-0.568281	-0.491425
H126	H	-0.164358	0.094212	-0.444221
Br127	Br	-1.057656	-0.717045	-0.246091
Br128	Br	-0.374731	-0.581300	-0.469672
Br129	Br	-0.288695	-0.576866	-0.797404
H130	H	-0.236682	-0.724853	-0.811947
H131	H	-0.688323	-0.730082	-0.224350
H132	H	-0.743963	-0.730100	-0.224359
Br133	Br	-0.144022	-0.721653	-0.918818
H134	H	-0.829157	-0.568306	-0.491440
H135	H	-0.164357	-0.393074	-0.444164
Br136	Br	-0.120091	-0.275144	-0.517595
Br137	Br	-0.120087	-0.164573	-0.517601
H138	H	-0.164360	0.179334	-0.444222
Br139	Br	-0.284039	0.081620	-0.245707
Br140	Br	-0.312720	-0.164359	-0.198080
Br141	Br	-0.312724	-0.274935	-0.198085
Br142	Br	-0.284052	-0.490787	-0.245674
Br143	Br	-0.117627	-0.622796	-0.797344
H144	H	-0.387409	-0.701228	-0.271739
H145	H	-1.044971	-0.597109	-0.444014
Br146	Br	-0.120090	-0.023809	-0.517604
Br147	Br	-0.284064	-0.380190	-0.245699
Br148	Br	-0.485243	-0.716879	-0.246001
Br149	Br	-0.312725	-0.023601	-0.198121
H150	H	-0.135663	-0.121646	-0.491769
Br151	Br	-0.590566	-0.552633	-0.517183
Br152	Br	-0.590477	-0.745663	-0.198575
Br153	Br	-0.701142	-0.552663	-0.517206
Br154	Br	-0.947139	-0.581476	-0.469775
H155	H	-0.829082	-0.730124	-0.224381
H156	H	-0.297151	-0.121459	-0.223951
Br157	Br	-0.485328	-0.581322	-0.469679
