data_functionalizedCrystal
_audit_creation_method	'MofGen! by Chris Wilmer'
_symmetry_space_group_name_H-M	'P1'
_symmetry_Int_Tables_number	1
_symmetry_cell_setting	triclinic
loop_
_symmetry_equiv_pos_as_xyz
  x,y,z
_cell_length_a	14.971486
_cell_length_b	15.944551
_cell_length_c	14.048226
_cell_angle_alpha	89.992615
_cell_angle_beta	89.998499
_cell_angle_gamma	83.556434
loop_
_atom_site_label
_atom_site_type_symbol
_atom_site_fract_x
_atom_site_fract_y
_atom_site_fract_z
O1	O	1.186829	0.109463	-0.079053
O2	O	1.520162	0.442797	0.254280
O3	O	1.853496	0.776130	0.587613
O4	O	0.926415	0.122572	-0.079079
O5	O	1.259748	0.455905	0.254254
O6	O	1.593081	0.789238	0.587587
O7	O	1.063733	-0.006251	-0.079057
O8	O	1.397066	0.327083	0.254276
O9	O	1.730400	0.660416	0.587610
O10	O	1.049510	0.238286	-0.079076
O11	O	1.382844	0.571619	0.254258
O12	O	1.716177	0.904952	0.587591
O13	O	1.063717	-0.006258	0.079264
O14	O	1.397050	0.327075	0.412598
O15	O	1.730383	0.660408	0.745931
O16	O	0.926398	0.122564	0.079242
O17	O	1.259731	0.455897	0.412575
O18	O	1.593065	0.789231	0.745909
O19	O	1.186812	0.109456	0.079268
O20	O	1.520146	0.442789	0.412601
O21	O	1.853479	0.776122	0.745935
Zn22	Zn	1.056603	0.116009	0.104392
Zn23	Zn	1.389936	0.449342	0.437725
Zn24	Zn	1.723269	0.782675	0.771059
Zn25	Zn	1.056624	0.116019	-0.104203
Zn26	Zn	1.389958	0.449352	0.229130
Zn27	Zn	1.723291	0.782685	0.562463
O28	O	1.049494	0.238278	0.079246
O29	O	1.382827	0.571611	0.412579
O30	O	1.716161	0.904945	0.745912
C31	C	0.893082	0.121982	0.000078
C32	C	1.226416	0.455315	0.333411
C33	C	1.559749	0.788648	0.666745
C34	C	0.793787	0.120225	0.000068
C35	C	1.127120	0.453558	0.333402
C36	C	1.460454	0.786892	0.666735
C37	C	1.063134	-0.037549	0.000104
C38	C	1.396468	0.295784	0.333437
C39	C	1.729801	0.629118	0.666770
C40	C	1.061364	-0.130797	0.000104
C41	C	1.394698	0.202537	0.333437
C42	C	1.728031	0.535870	0.666771
C43	C	0.736480	0.195904	0.000064
C44	C	1.069813	0.529238	0.333397
C45	C	1.403147	0.862571	0.666731
C46	C	0.643182	0.194249	0.000078
C47	C	0.976516	0.527582	0.333412
C48	C	1.309849	0.860915	0.666745
C49	C	0.607194	0.116913	0.000090
C50	C	0.940527	0.450246	0.333423
C51	C	1.273860	0.783579	0.666757
C52	C	0.664508	0.041227	0.000097
C53	C	0.997841	0.374561	0.333431
C54	C	1.331175	0.707894	0.666764
C55	C	0.757804	0.042884	0.000090
C56	C	1.091137	0.376217	0.333423
C57	C	1.424470	0.709550	0.666757
C58	C	0.470049	0.037780	0.000111
C59	C	0.803382	0.371113	0.333444
C60	C	1.136716	0.704447	0.666777
C61	C	0.376747	0.036123	0.000116
C62	C	0.710080	0.369456	0.333450
C63	C	1.043414	0.702790	0.666783
C64	C	0.355428	0.189145	0.000099
C65	C	0.688761	0.522478	0.333432
C66	C	1.022094	0.855811	0.666766
C67	C	0.448724	0.190801	0.000092
C68	C	0.782057	0.524135	0.333425
C69	C	1.115390	0.857468	0.666758
C70	C	0.506032	0.115116	0.000097
C71	C	0.839365	0.448449	0.333430
C72	C	1.172698	0.781782	0.666764
C73	C	0.972017	-0.345738	0.000082
C74	C	1.305350	-0.012405	0.333415
C75	C	1.638683	0.320928	0.666749
C76	C	1.013499	-0.406720	0.078148
C77	C	1.346832	-0.073387	0.411482
C78	C	1.680165	0.259947	0.744815
C79	C	1.058162	-0.301526	0.000096
C80	C	1.391495	0.031808	0.333430
C81	C	1.724829	0.365141	0.666763
C82	C	1.013535	-0.406696	-0.077944
C83	C	1.346869	-0.073362	0.255389
C84	C	1.680202	0.259971	0.588722
C85	C	1.055062	-0.466441	0.000085
C86	C	1.388396	-0.133108	0.333418
C87	C	1.721729	0.200225	0.666752
C88	C	1.099667	-0.361279	0.078227
C89	C	1.433001	-0.027946	0.411560
C90	C	1.766334	0.305388	0.744894
C91	C	1.099692	-0.361248	-0.077935
C92	C	1.433025	-0.027915	0.255398
C93	C	1.766359	0.305418	0.588731
C94	C	1.141236	-0.422212	0.000150
C95	C	1.474570	-0.088879	0.333483
C96	C	1.807903	0.244454	0.666816
C97	C	1.059945	-0.206522	0.000104
C98	C	1.393278	0.126812	0.333437
C99	C	1.726612	0.460145	0.666771
C100	C	1.053286	-0.561444	0.000084
C101	C	1.386619	-0.228111	0.333418
C102	C	1.719952	0.105223	0.666751
C103	C	1.220145	0.110046	0.000109
C104	C	1.553478	0.443379	0.333442
C105	C	1.886811	0.776712	0.666775
C106	C	1.319440	0.111802	0.000112
C107	C	1.652773	0.445136	0.333445
C108	C	1.986107	0.778469	0.666779
C109	C	1.050093	0.269576	0.000083
C110	C	1.383426	0.602910	0.333416
C111	C	1.716759	0.936243	0.666750
C112	C	1.051863	0.362824	0.000076
C113	C	1.385196	0.696157	0.333410
C114	C	1.718529	1.029491	0.666743
N115	N	1.056594	0.116001	0.246753
N116	N	1.389928	0.449335	0.580086
N117	N	1.723261	0.782668	0.913419
N118	N	1.056640	0.116019	-0.246564
N119	N	1.389973	0.449353	0.086769
N120	N	1.723306	0.782686	0.420103
C121	C	1.117418	0.058982	0.296581
C122	C	1.450751	0.392316	0.629914
C123	C	1.784085	0.725649	0.963247
C124	C	1.117424	0.058982	0.396238
C125	C	1.450757	0.392315	0.729572
C126	C	1.784091	0.725649	1.062905
C127	C	1.056610	0.116005	0.446066
C128	C	1.389943	0.449338	0.779399
C129	C	1.723277	0.782672	1.112733
C130	C	0.995780	0.173027	0.396231
C131	C	1.329113	0.506360	0.729565
C132	C	1.662446	0.839693	1.062898
C133	C	0.995770	0.173022	0.296575
C134	C	1.329103	0.506356	0.629909
C135	C	1.662437	0.839689	0.963242
C136	C	0.995806	0.173033	0.603945
C137	C	1.329139	0.506366	0.937279
C138	C	1.662472	0.839699	1.270612
C139	C	0.995816	0.173038	0.703608
C140	C	1.329149	0.506372	1.036941
C141	C	1.662483	0.839705	1.370275
C142	C	1.117459	0.058992	0.703608
C143	C	1.450793	0.392326	1.036942
C144	C	1.784126	0.725659	1.370275
C145	C	1.117450	0.058988	0.603952
C146	C	1.450783	0.392321	0.937286
C147	C	1.784117	0.725655	1.270619
C148	C	1.056621	0.116011	0.554124
C149	C	1.389954	0.449344	0.887458
C150	C	1.723287	0.782678	1.220791
H151	H	0.765774	0.258881	0.000053
H152	H	1.099108	0.592214	0.333387
H153	H	1.432441	0.925547	0.666720
H154	H	0.946240	0.219452	0.256006
H155	H	1.279574	0.552785	0.589340
H156	H	1.612907	0.886119	0.922673
H157	H	0.596526	0.255875	0.000074
H158	H	0.929859	0.589208	0.333407
H159	H	1.263193	0.922542	0.666740
H160	H	1.166951	0.012552	0.436808
H161	H	1.500284	0.345886	0.770141
H162	H	1.833617	0.679219	1.103474
H163	H	0.478022	0.253775	0.000073
H164	H	0.811356	0.587109	0.333406
H165	H	1.144689	0.920442	0.666739
H166	H	0.347448	-0.026851	0.000127
H167	H	0.680781	0.306482	0.333461
H168	H	1.014115	0.639816	0.666794
H169	H	1.166943	0.012551	0.256017
H170	H	1.500277	0.345884	0.589351
H171	H	1.833610	0.679218	0.922684
H172	H	0.977056	-0.426866	0.144140
H173	H	1.310389	-0.093533	0.477473
H174	H	1.643722	0.239801	0.810806
H175	H	1.136103	-0.341080	-0.143930
H176	H	1.469437	-0.007747	0.189403
H177	H	1.802770	0.325586	0.522736
H178	H	0.516708	-0.023852	0.000117
H179	H	0.850041	0.309482	0.333450
H180	H	1.183374	0.642815	0.666783
H181	H	0.977095	-0.426804	-0.143948
H182	H	1.310428	-0.093471	0.189386
H183	H	1.643762	0.239862	0.522719
H184	H	0.308763	0.250771	0.000099
H185	H	0.642096	0.584104	0.333432
H186	H	0.975429	0.917438	0.666766
H187	H	1.166973	0.012560	0.563383
H188	H	1.500307	0.345893	0.896716
H189	H	1.833640	0.679226	1.230049
H190	H	1.166988	0.012562	0.744184
H191	H	1.500322	0.345896	1.077517
H192	H	1.833655	0.679229	1.410851
H193	H	0.635199	-0.021741	0.000121
H194	H	0.968532	0.311592	0.333454
H195	H	1.301865	0.644925	0.666787
H196	H	0.804463	-0.018742	0.000093
H197	H	1.137796	0.314591	0.333426
H198	H	1.471130	0.647924	0.666760
H199	H	0.900512	-0.312499	0.000153
H200	H	1.233846	0.020835	0.333486
H201	H	1.567179	0.354168	0.666819
H202	H	1.136066	-0.341257	0.144298
H203	H	1.469399	-0.007924	0.477632
H204	H	1.802732	0.325410	0.810965
H205	H	1.212804	-0.455303	0.000201
H206	H	1.546137	-0.121969	0.333534
H207	H	1.879470	0.211364	0.666868
H208	H	0.946294	0.219472	0.744173
H209	H	1.279627	0.552805	1.077506
H210	H	1.612961	0.886138	1.410840
H211	H	0.946269	0.219464	0.563379
H212	H	1.279602	0.552798	0.896712
H213	H	1.612935	0.886131	1.230045
H214	H	0.946259	0.219453	0.436807
H215	H	1.279593	0.552787	0.770140
H216	H	1.612926	0.886120	1.103473
