data_functionalizedCrystal
_audit_creation_method	'MofGen! by Chris Wilmer'
_symmetry_space_group_name_H-M	'P1'
_symmetry_Int_Tables_number	1
_symmetry_cell_setting	triclinic
loop_
_symmetry_equiv_pos_as_xyz
  x,y,z
_cell_length_a	23.532361
_cell_length_b	23.532407
_cell_length_c	22.010155
_cell_angle_alpha	90.000423
_cell_angle_beta	89.995873
_cell_angle_gamma	97.160827
loop_
_atom_site_label
_atom_site_type_symbol
_atom_site_fract_x
_atom_site_fract_y
_atom_site_fract_z
O1	O	0.755281	-0.069001	-0.050470
O2	O	1.255281	0.430999	0.449530
O3	O	0.589414	-0.079032	-0.050486
O4	O	1.089414	0.420968	0.449514
O5	O	0.677349	0.008916	-0.050466
O6	O	1.177349	0.508916	0.449534
O7	O	0.667346	-0.156949	-0.050490
O8	O	1.167346	0.343051	0.449510
O9	O	0.677333	0.008903	0.050584
O10	O	1.177333	0.508903	0.550584
O11	O	0.589398	-0.079045	0.050565
O12	O	1.089398	0.420955	0.550565
O13	O	0.755265	-0.069014	0.050580
O14	O	1.255265	0.430986	0.550580
Cu15	Cu	0.672330	-0.074030	0.059799
Cu16	Cu	1.172330	0.425970	0.559799
Cu17	Cu	0.672349	-0.074015	-0.059705
Cu18	Cu	1.172349	0.425985	0.440295
O19	O	0.667330	-0.156962	0.050561
O20	O	1.167330	0.343038	0.550561
C21	C	0.568189	-0.078787	0.000038
C22	C	1.068189	0.421213	0.500038
C23	C	0.504971	-0.078032	0.000032
C24	C	1.004971	0.421968	0.500032
C25	C	0.231736	-0.074721	-0.055046
C26	C	0.731736	0.425279	0.444954
C27	C	0.291136	-0.075436	-0.055048
C28	C	0.791136	0.424564	0.444952
O29	O	0.321869	-0.075780	-0.101892
O30	O	0.821869	0.424220	0.398108
N31	N	0.320832	-0.075804	0.000035
N32	N	0.820832	0.424196	0.500035
C33	C	0.291127	-0.075452	0.055123
C34	C	0.791127	0.424548	0.555123
O35	O	0.321841	-0.075830	0.101975
O36	O	0.821841	0.424170	0.601975
C37	C	0.231729	-0.074733	0.055124
C38	C	0.731729	0.425267	0.555124
C39	C	0.202035	-0.074370	0.000037
C40	C	0.702035	0.425630	0.500037
C41	C	0.202041	-0.074358	-0.110128
C42	C	0.702041	0.425642	0.389872
C43	C	0.142645	-0.073644	-0.110126
C44	C	0.642645	0.426356	0.389874
C45	C	0.112944	-0.073293	-0.055043
C46	C	0.612944	0.426707	0.444957
C47	C	0.142639	-0.073657	0.000039
C48	C	0.642639	0.426343	0.500039
C49	C	0.202026	-0.074376	0.110211
C50	C	0.702026	0.425624	0.610211
C51	C	0.142624	-0.073657	0.110207
C52	C	0.642624	0.426343	0.610207
C53	C	0.112929	-0.073294	0.055121
C54	C	0.612929	0.426706	0.555121
C55	C	0.053542	-0.072592	0.055125
C56	C	0.553542	0.427408	0.555125
N57	N	0.023845	-0.072224	0.000042
N58	N	0.523845	0.427776	0.500042
C59	C	0.053546	-0.072574	-0.055042
C60	C	0.553546	0.427426	0.444958
C61	C	0.415868	-0.076961	0.055117
C62	C	0.915868	0.423039	0.555117
C63	C	0.475264	-0.077684	0.055116
C64	C	0.975264	0.422316	0.555116
C65	C	0.475268	-0.077667	-0.055055
C66	C	0.975268	0.422333	0.444945
C67	C	0.415870	-0.076948	-0.055054
C68	C	0.915870	0.423052	0.444946
C69	C	0.386171	-0.076593	0.000034
C70	C	0.886171	0.423407	0.500034
C71	C	-0.071190	-0.071076	-0.055034
C72	C	0.428810	0.428924	0.444966
C73	C	-0.130591	-0.070364	-0.055027
C74	C	0.369409	0.429636	0.444973
C75	C	-0.130589	-0.070378	0.055144
C76	C	0.369411	0.429622	0.555144
C77	C	-0.071194	-0.071093	0.055137
C78	C	0.428806	0.428907	0.555137
C79	C	-0.041495	-0.071440	0.000044
C80	C	0.458505	0.428560	0.500044
O81	O	0.022771	-0.072245	0.101945
O82	O	0.522771	0.427755	0.601945
O83	O	0.022826	-0.072188	-0.101886
O84	O	0.522826	0.427812	0.398114
C85	C	0.677086	0.030126	0.000060
C86	C	1.177086	0.530126	0.500060
C87	C	0.676320	0.093343	0.000065
C88	C	1.176320	0.593343	0.500065
C89	C	0.776489	-0.069258	0.000055
C90	C	1.276489	0.430742	0.500055
C91	C	0.839708	-0.070014	0.000057
C92	C	1.339708	0.429986	0.500057
C93	C	0.667592	-0.178171	0.000033
C94	C	1.167592	0.321829	0.500033
C95	C	0.668358	-0.241388	0.000024
C96	C	1.168358	0.258612	0.500024
N97	N	0.672321	-0.074041	0.143851
N98	N	1.172321	0.425959	0.643851
C99	C	0.723555	0.492454	0.000036
C100	C	1.223555	0.992454	0.500036
C101	C	0.722844	0.551854	0.000031
C102	C	1.222844	1.051854	0.500031
O103	O	0.766630	0.588606	0.000013
O104	O	1.266630	1.088606	0.500013
N105	N	0.670566	0.574471	0.000027
N106	N	1.170566	1.074471	0.500027
C107	C	0.618997	0.537685	0.000021
C108	C	1.118997	1.037685	0.500021
O109	O	0.574465	0.562377	0.000016
O110	O	1.074465	1.062377	0.500016
C111	C	0.619709	0.478286	0.000021
C112	C	1.119709	0.978286	0.500021
C113	C	0.671990	0.455672	0.000032
C114	C	1.171990	0.955672	0.500032
C115	C	0.775832	0.469839	0.000046
C116	C	1.275832	0.969839	0.500046
C117	C	0.776543	0.410443	0.000052
C118	C	1.276543	0.910443	0.500052
C119	C	0.724977	0.373662	0.000048
C120	C	1.224977	0.873662	0.500048
C121	C	0.672701	0.396276	0.000038
C122	C	1.172701	0.896276	0.500038
C123	C	0.568140	0.441501	0.000011
C124	C	1.068140	0.941501	0.500011
C125	C	0.568857	0.382099	0.000011
C126	C	1.068857	0.882099	0.500011
C127	C	0.621137	0.359485	0.000021
C128	C	1.121137	0.859485	0.500021
C129	C	0.621847	0.300099	0.000039
C130	C	1.121847	0.800099	0.500039
N131	N	0.674124	0.277481	0.000044
N132	N	1.174124	0.777481	0.500044
C133	C	0.725690	0.314263	0.000048
C134	C	1.225690	0.814263	0.500048
C135	C	0.617505	0.662427	0.000019
C136	C	1.117505	1.162427	0.500019
C137	C	0.616793	0.721825	0.000023
C138	C	1.116793	1.221825	0.500023
C139	C	0.720640	0.735990	0.000032
C140	C	1.220640	1.235990	0.500032
C141	C	0.721352	0.676591	0.000033
C142	C	1.221352	1.176591	0.500033
C143	C	0.669783	0.639810	0.000024
C144	C	1.169783	1.139810	0.500024
C145	C	0.727179	0.189526	0.000061
C146	C	1.227179	0.689526	0.500061
C147	C	0.727886	0.130124	0.000069
C148	C	1.227886	0.630124	0.500069
C149	C	0.624039	0.115965	0.000057
C150	C	1.124039	0.615965	0.500057
C151	C	0.623332	0.175361	0.000051
C152	C	1.123332	0.675361	0.500051
C153	C	0.674907	0.212141	0.000051
C154	C	1.174907	0.712141	0.500051
O155	O	0.578083	0.263312	0.000055
O156	O	1.078083	0.763312	0.500055
O157	O	0.770214	0.289562	0.000045
O158	O	1.270214	0.789562	0.500045
N159	N	0.672362	-0.074000	-0.143757
N160	N	1.172362	0.426000	0.356243
C161	C	0.711289	-0.035077	0.563639
C162	C	1.211289	0.464923	1.063639
C163	C	0.711291	-0.035073	0.627247
C164	C	1.211291	0.464927	1.127247
O165	O	0.744400	-0.001952	0.660146
O166	O	1.244400	0.498048	1.160146
N167	N	0.672349	-0.074003	0.659059
N168	N	1.172349	0.425997	1.159059
C169	C	0.633397	-0.112935	0.627259
C170	C	1.133397	0.387065	1.127259
O171	O	0.600272	-0.146048	0.660158
O172	O	1.100272	0.353952	1.160158
C173	C	0.633392	-0.112936	0.563653
C174	C	1.133392	0.387064	1.063653
C175	C	0.672341	-0.074008	0.531845
C176	C	1.172341	0.425992	1.031845
C177	C	0.750235	0.003849	0.531831
C178	C	1.250235	0.503849	1.031831
C179	C	0.750232	0.003844	0.468228
C180	C	1.250232	0.503844	0.968228
C181	C	0.711285	-0.035087	0.436433
C182	C	1.211285	0.464913	0.936433
C183	C	0.672339	-0.074012	0.468241
C184	C	1.172339	0.425988	0.968241
C185	C	0.594437	-0.151866	0.531855
C186	C	1.094437	0.348134	1.031855
C187	C	0.594436	-0.151863	0.468244
C188	C	1.094436	0.348137	0.968244
C189	C	0.633385	-0.112934	0.436436
C190	C	1.133385	0.387066	0.936436
C191	C	0.633389	-0.112948	0.372843
C192	C	1.133389	0.387052	0.872843
N193	N	0.672332	-0.074018	0.341032
N194	N	1.172332	0.425982	0.841032
C195	C	0.711280	-0.035087	0.372827
C196	C	1.211280	0.464913	0.872827
C197	C	0.633409	-0.112930	0.760837
C198	C	1.133409	0.387070	1.260837
C199	C	0.633416	-0.112933	0.824442
C200	C	1.133416	0.387067	1.324442
C201	C	0.711311	-0.035069	0.824426
C202	C	1.211311	0.464931	1.324426
C203	C	0.711306	-0.035070	0.760819
C204	C	1.211306	0.464930	1.260819
C205	C	0.672352	-0.074000	0.729025
C206	C	1.172352	0.426000	1.229025
C207	C	0.711273	-0.035101	0.239255
C208	C	1.211273	0.464899	0.739255
C209	C	0.711269	-0.035110	0.175646
C210	C	1.211269	0.464890	0.675646
C211	C	0.633373	-0.112971	0.175669
C212	C	1.133373	0.387029	0.675669
C213	C	0.633378	-0.112964	0.239272
C214	C	1.133378	0.387036	0.739272
C215	C	0.672331	-0.074024	0.271064
C216	C	1.172331	0.425976	0.771064
O217	O	0.600295	-0.146051	0.339904
O218	O	1.100295	0.353949	0.839904
O219	O	0.744393	-0.001976	0.339920
O220	O	1.244393	0.498024	0.839920
H221	H	0.391689	-0.076679	0.099978
H222	H	0.891689	0.423321	0.599978
H223	H	0.580761	0.193774	0.000060
H224	H	1.080761	0.693774	0.500060
H225	H	-0.154766	-0.070071	-0.099887
H226	H	0.345234	0.429929	0.400113
C227	C	0.514784	0.654402	0.000020
C228	C	1.014784	1.154402	0.500020
C229	C	0.560815	0.622000	0.000021
C230	C	1.060815	1.122000	0.500021
H231	H	0.479787	0.629445	0.000024
H232	H	0.979787	1.129445	0.500024
H233	H	0.516673	0.677861	-0.035217
H234	H	1.016673	1.177861	0.464783
H235	H	0.516671	0.677868	0.035260
H236	H	1.016671	1.177868	0.535260
H237	H	0.558930	0.598537	-0.035221
H238	H	1.058930	1.098537	0.464779
H239	H	0.558925	0.598530	0.035262
H240	H	1.058925	1.098530	0.535262
H241	H	0.769176	0.219466	0.000058
H242	H	1.269176	0.719466	0.500058
C243	C	0.879116	0.430429	0.000054
C244	C	1.379116	0.930429	0.500054
C245	C	0.834012	0.385591	0.000055
C246	C	1.334012	0.885591	0.500055
H247	H	0.914597	0.415088	0.000051
H248	H	1.414597	0.915088	0.500051
H249	H	0.876672	0.453299	0.035290
H250	H	1.376672	0.953299	0.535290
H251	H	0.876673	0.453302	-0.035187
H252	H	1.376673	0.953302	0.464813
H253	H	0.836453	0.362721	0.035299
H254	H	1.336453	0.862721	0.535299
H255	H	0.836458	0.362711	-0.035185
H256	H	1.336458	0.862711	0.464815
H257	H	0.525567	0.459902	-0.000001
H258	H	1.025567	0.959902	0.499999
C259	C	0.051571	-0.072560	0.159138
C260	C	0.551571	0.427440	0.659138
C261	C	0.109978	-0.073266	0.170762
C262	C	0.609978	0.426734	0.670762
H263	H	0.031419	-0.072316	0.196522
H264	H	0.531419	0.427684	0.696522
H265	H	0.037306	-0.105655	0.136508
H266	H	0.537306	0.394345	0.636508
H267	H	0.046376	-0.039223	0.136507
H268	H	0.546376	0.460777	0.636507
H269	H	0.115173	-0.106605	0.193389
H270	H	0.615173	0.393395	0.693389
H271	H	0.124248	-0.040168	0.193402
H272	H	0.624248	0.459832	0.693402
C273	C	0.788851	-0.022253	0.689234
C274	C	1.288851	0.477747	1.189234
C275	C	0.754081	0.007742	0.725838
C276	C	1.254081	0.507742	1.225838
H277	H	0.815250	0.004186	0.667637
H278	H	1.315250	0.504186	1.167637
H279	H	0.765653	-0.045448	0.661209
H280	H	1.265653	0.454552	1.161209
H281	H	0.809236	-0.045833	0.714034
H282	H	1.309236	0.454167	1.214034
H283	H	0.733692	0.031319	0.701037
H284	H	1.233692	0.531319	1.201037
H285	H	0.777282	0.030947	0.753865
H286	H	1.277282	0.530947	1.253865
H287	H	0.601663	-0.144670	0.149771
H288	H	1.101663	0.355330	0.649771
C289	C	-0.077170	-0.071001	-0.163933
C290	C	0.422830	0.428999	0.336067
C291	C	-0.038552	-0.071466	-0.115593
C292	C	0.461448	0.428534	0.384407
H293	H	-0.057021	-0.071249	-0.201319
H294	H	0.442979	0.428751	0.298681
H295	H	-0.095800	-0.037506	-0.161637
H296	H	0.404200	0.462494	0.338363
H297	H	-0.104874	-0.103938	-0.161632
H298	H	0.395126	0.396062	0.338368
H299	H	-0.010850	-0.038526	-0.117892
H300	H	0.489150	0.461474	0.382108
H301	H	-0.019912	-0.104963	-0.117890
H302	H	0.480088	0.395037	0.382110
C303	C	0.556421	-0.189902	0.767253
C304	C	1.056421	0.310098	1.267253
C305	C	0.590595	-0.155734	0.725892
C306	C	1.090595	0.344266	1.225892
H307	H	0.529992	-0.216329	0.745680
H308	H	1.029992	0.283671	1.245680
H309	H	0.536073	-0.166301	0.792061
H310	H	1.036073	0.333699	1.292061
H311	H	0.580022	-0.210257	0.792060
H312	H	1.080022	0.289743	1.292060
H313	H	0.566994	-0.135376	0.701087
H314	H	1.066994	0.364624	1.201087
H315	H	0.610944	-0.179339	0.701073
H316	H	1.110944	0.320661	1.201073
H317	H	0.817825	0.499782	0.000047
H318	H	1.317825	0.999782	0.500047
H319	H	0.391697	-0.076653	-0.099910
H320	H	0.891697	0.423347	0.400090
C321	C	0.535761	0.085593	-0.051906
C322	C	1.035761	0.585593	0.448094
C323	C	0.567360	0.075527	0.000048
C324	C	1.067360	0.575527	0.500048
H325	H	0.500768	0.060629	-0.051912
H326	H	1.000768	0.560629	0.448088
H327	H	0.557223	0.078771	-0.087132
H328	H	1.057223	0.578771	0.412868
H329	H	0.527854	0.124205	-0.051901
H330	H	1.027854	0.624205	0.448099
H331	H	0.575271	0.036916	0.000041
H332	H	1.075271	0.536916	0.500041
H333	H	0.545893	0.082345	0.035283
H334	H	1.045893	0.582345	0.535283
H335	H	-0.047017	-0.071399	0.099993
H336	H	0.452983	0.428601	0.599993
H337	H	0.742990	-0.003391	0.265133
H338	H	1.242990	0.496609	0.765133
C339	C	0.788934	0.071554	0.052028
C340	C	1.288934	0.571554	0.552028
C341	C	0.785357	0.105269	0.000078
C342	C	1.285357	0.605269	0.500078
H343	H	0.824415	0.056215	0.052034
H344	H	1.324415	0.556215	0.552034
H345	H	0.758331	0.041147	0.052024
H346	H	1.258331	0.541147	0.552024
H347	H	0.786491	0.094440	0.087260
H348	H	1.286491	0.594440	0.587260
H349	H	0.787796	0.082382	-0.035154
H350	H	1.287796	0.582382	0.464846
H351	H	0.815969	0.135680	0.000077
H352	H	1.315969	0.635680	0.500077
C353	C	0.566330	-0.078750	-0.103967
C354	C	1.066330	0.421250	0.396033
C355	C	0.507925	-0.078046	-0.115605
C356	C	1.007925	0.421954	0.384395
H357	H	0.586491	-0.078981	-0.141347
H358	H	1.086491	0.421019	0.358653
H359	H	0.571524	-0.112085	-0.081345
H360	H	1.071524	0.387915	0.418655
H361	H	0.580588	-0.045653	-0.081324
H362	H	1.080588	0.454347	0.418676
H363	H	0.493666	-0.111145	-0.138244
H364	H	0.993666	0.388855	0.361756
H365	H	0.502728	-0.044707	-0.138237
H366	H	1.002728	0.455293	0.361763
C367	C	0.782409	0.618016	-0.051908
C368	C	1.282409	1.118016	0.448092
C369	C	0.778819	0.651734	0.000038
C370	C	1.278819	1.151734	0.500038
H371	H	0.817887	0.602670	-0.051902
H372	H	1.317887	1.102670	0.448098
H373	H	0.779978	0.640896	-0.087139
H374	H	1.279978	1.140896	0.412861
H375	H	0.751800	0.587607	-0.051905
H376	H	1.251800	1.087607	0.448095
H377	H	0.809425	0.682145	0.000033
H378	H	1.309425	1.182145	0.500033
H379	H	0.781254	0.628853	0.035278
H380	H	1.281254	1.128853	0.535278
C381	C	-0.142206	-0.021202	0.149048
C382	C	0.357794	0.478798	0.649048
C383	C	-0.163244	-0.069990	0.115690
C384	C	0.336756	0.430010	0.615690
H385	H	-0.162365	-0.020962	0.186429
H386	H	0.337635	0.479038	0.686429
H387	H	-0.147405	0.012126	0.126415
H388	H	0.352595	0.512126	0.626415
H389	H	-0.102582	-0.021687	0.156933
H390	H	0.397418	0.478313	0.656933
H391	H	-0.202868	-0.069502	0.107802
H392	H	0.297132	0.430498	0.607802
H393	H	-0.158050	-0.103327	0.138328
H394	H	0.341950	0.396673	0.638328
H395	H	0.526862	0.352154	0.000003
H396	H	1.026862	0.852154	0.500003
H397	H	0.762627	0.765949	0.000033
H398	H	1.262627	1.265949	0.500033
H399	H	0.743023	-0.003369	0.850325
H400	H	1.243023	0.496631	1.350325
C401	C	0.051599	-0.072538	-0.159058
C402	C	0.551599	0.427462	0.340942
C403	C	0.110010	-0.073241	-0.170679
C404	C	0.610010	0.426759	0.329321
H405	H	0.031455	-0.072292	-0.196444
H406	H	0.531455	0.427708	0.303556
H407	H	0.046398	-0.039211	-0.136424
H408	H	0.546398	0.460789	0.363576
H409	H	0.037330	-0.105643	-0.136433
H410	H	0.537330	0.394357	0.363567
H411	H	0.124280	-0.040134	-0.193301
H412	H	0.624280	0.459866	0.306699
H413	H	0.115215	-0.106571	-0.193323
H414	H	0.615215	0.393429	0.306677
H415	H	0.781951	0.035553	0.557713
H416	H	1.281951	0.535553	1.057713
C417	C	0.827219	0.080812	0.474620
C418	C	1.327219	0.580812	0.974620
C419	C	0.793041	0.046643	0.433270
C420	C	1.293041	0.546643	0.933270
H421	H	0.853644	0.107239	0.453040
H422	H	1.353644	0.607239	0.953040
H423	H	0.847570	0.057212	0.499423
H424	H	1.347570	0.557212	0.999423
H425	H	0.803621	0.101167	0.499435
H426	H	1.303621	0.601167	0.999435
H427	H	0.816639	0.026285	0.408458
H428	H	1.316639	0.526285	0.908458
H429	H	0.772688	0.070246	0.408457
H430	H	1.272688	0.570246	0.908457
H431	H	0.226218	-0.074642	-0.154986
H432	H	0.726218	0.425358	0.345014
C433	C	0.517435	-0.228817	0.525455
C434	C	1.017435	0.271183	1.025455
C435	C	0.551620	-0.194655	0.566807
C436	C	1.051620	0.305345	1.066807
H437	H	0.490997	-0.255232	0.547033
H438	H	0.990997	0.244768	1.047033
H439	H	0.541023	-0.249179	0.500647
H440	H	1.041023	0.250821	1.000647
H441	H	0.497093	-0.205205	0.500646
H442	H	0.997093	0.294795	1.000646
H443	H	0.571965	-0.218266	0.591613
H444	H	1.071965	0.281734	1.091613
H445	H	0.528028	-0.174291	0.591625
H446	H	1.028028	0.325709	1.091625
H447	H	0.574220	0.740232	0.000025
H448	H	1.074220	1.240232	0.500025
H449	H	0.562713	-0.183564	0.442360
H450	H	1.062713	0.316436	0.942360
C451	C	0.469279	-0.077627	0.164013
C452	C	0.969279	0.422373	0.664013
C453	C	0.507900	-0.078087	0.115669
C454	C	1.007900	0.421913	0.615669
H455	H	0.489427	-0.077870	0.201397
H456	H	0.989427	0.422130	0.701397
H457	H	0.441581	-0.110563	0.161715
H458	H	0.941581	0.389437	0.661715
H459	H	0.450643	-0.044131	0.161719
H460	H	0.950643	0.455869	0.661719
H461	H	0.526532	-0.111586	0.117960
H462	H	1.026532	0.388414	0.617960
H463	H	0.535608	-0.045149	0.117968
H464	H	1.035608	0.454851	0.617968
H465	H	0.601668	-0.144669	0.265171
H466	H	1.101668	0.355331	0.765171
H467	H	0.226193	-0.074670	0.155068
H468	H	0.726193	0.425330	0.655068
H469	H	0.742988	-0.003410	0.149750
H470	H	1.242988	0.496590	0.649750
H471	H	0.601706	-0.144638	0.850336
H472	H	1.101706	0.355362	1.350336
