data_functionalizedCrystal
_audit_creation_method	'MofGen! by Chris Wilmer'
_symmetry_space_group_name_H-M	'P1'
_symmetry_Int_Tables_number	1
_symmetry_cell_setting	triclinic
loop_
_symmetry_equiv_pos_as_xyz
  x,y,z
_cell_length_a	17.038272
_cell_length_b	9.730223
_cell_length_c	10.654550
_cell_angle_alpha	89.995747
_cell_angle_beta	87.798243
_cell_angle_gamma	90.002388
loop_
_atom_site_label
_atom_site_type_symbol
_atom_site_fract_x
_atom_site_fract_y
_atom_site_fract_z
O1	O	1.038890	-0.114118	0.272864
O2	O	0.811235	-0.114158	0.268532
O3	O	0.930296	-0.114128	0.088445
O4	O	0.919828	-0.114147	0.452951
O5	O	0.930289	0.114452	0.088439
O6	O	0.811227	0.114422	0.268526
O7	O	1.038882	0.114462	0.272858
Zn8	Zn	0.925053	0.150734	0.270691
Zn9	Zn	0.925063	-0.150430	0.270699
O10	O	0.919820	0.114433	0.452945
C11	C	0.782081	0.000127	0.264588
C12	C	0.695222	0.000112	0.252831
N13	N	0.925052	0.356271	0.270685
N14	N	0.925071	-0.355966	0.270695
C15	C	0.645711	0.000107	0.360775
C16	C	0.564098	0.000127	0.349720
C17	C	0.531999	0.000141	0.230720
C18	C	0.581517	0.000150	0.122768
C19	C	0.663127	0.000140	0.133824
C20	C	0.286023	0.000180	0.191663
C21	C	0.204406	0.000185	0.180615
C22	C	0.186993	0.000165	0.407568
C23	C	0.268606	0.000147	0.418614
C24	C	0.318117	0.000163	0.310661
C25	C	0.448578	0.000157	0.219418
C26	C	0.401536	0.000157	0.321965
C27	C	1.068036	0.000174	0.276802
C28	C	1.154895	0.000181	0.288559
C29	C	0.929524	0.000161	0.041572
C30	C	0.927224	0.000158	-0.098084
C31	C	0.977791	0.428210	0.190981
C32	C	0.977798	0.572093	0.190982
C33	C	0.872326	0.572085	0.350403
C34	C	0.872315	0.428204	0.350395
C35	C	0.997326	0.000170	-0.171061
C36	C	0.995160	0.000153	-0.302283
C37	C	0.852785	0.000118	-0.287540
C38	C	0.854952	0.000125	-0.156320
C39	C	0.920593	0.000140	0.499817
C40	C	0.922892	0.000134	0.639474
H41	H	0.671839	0.000094	0.457677
F42	F	0.511408	0.000116	0.464610
H43	H	1.056175	0.000194	-0.123650
H44	H	0.829391	0.630668	0.415303
F45	F	0.338705	0.000196	0.076768
F46	F	0.816178	0.351635	0.435226
H47	H	1.052244	0.000160	-0.361695
H48	H	1.020742	0.630662	0.126078
H49	H	0.793943	0.000094	-0.334971
F50	F	0.780336	0.000103	-0.078648
H51	H	0.555375	0.000181	0.025876
H52	H	0.146674	0.000155	0.495456
F53	F	0.302763	0.000124	0.545269
H54	H	0.427675	0.000153	0.418854
F55	F	0.414408	0.000167	0.092773
H56	H	0.178274	0.000195	0.083706
F57	F	0.715821	0.000150	0.018935
F58	F	1.033916	0.351658	0.106143
