data_functionalizedCrystal
_audit_creation_method	'MofGen! by Chris Wilmer'
_symmetry_space_group_name_H-M	'P1'
_symmetry_Int_Tables_number	1
_symmetry_cell_setting	triclinic
loop_
_symmetry_equiv_pos_as_xyz
  x,y,z
_cell_length_a	9.065215
_cell_length_b	12.376897
_cell_length_c	9.065218
_cell_angle_alpha	102.515468
_cell_angle_beta	94.984709
_cell_angle_gamma	77.496653
loop_
_atom_site_label
_atom_site_type_symbol
_atom_site_fract_x
_atom_site_fract_y
_atom_site_fract_z
O1	O	1.934840	0.093981	-0.190746
O2	O	1.505553	0.093986	-0.208495
O3	O	1.729070	0.093981	0.015022
O4	O	1.711322	0.093986	-0.414262
O5	O	1.780189	-0.094018	-0.036163
O6	O	1.556672	-0.094013	-0.259680
O7	O	1.985959	-0.094018	-0.241930
Zn8	Zn	1.779432	-0.123864	-0.258932
Zn9	Zn	1.712080	0.123832	-0.191494
O10	O	1.762441	-0.094013	-0.465447
C11	C	1.476126	-0.000013	-0.232382
C12	C	1.312282	-0.000011	-0.227284
N13	N	1.825408	-0.292910	-0.304955
C14	C	1.559335	-0.647966	-0.038610
C15	C	1.527132	-0.529635	-0.006394
C16	C	1.601698	-0.470448	-0.081032
C17	C	1.708473	-0.529604	-0.187890
C18	C	1.740687	-0.647946	-0.220101
C19	C	1.783050	-0.470428	-0.262523
C20	C	1.889825	-0.529584	-0.369382
C21	C	1.922034	-0.647915	-0.401588
C22	C	1.847468	-0.707102	-0.326950
C23	C	1.750836	-0.352085	-0.230313
C24	C	1.932188	-0.352066	-0.411804
C25	C	1.964391	-0.470397	-0.444020
C26	C	2.015385	-0.000016	-0.218042
C27	C	2.179227	-0.000011	-0.223139
C28	C	1.752924	-0.000016	0.044416
C29	C	1.747822	-0.000011	0.208261
N30	N	1.666115	0.292878	-0.145458
C31	C	1.738587	-0.000013	-0.494841
C32	C	1.743686	-0.000011	-0.658683
H33	H	1.575471	-0.374097	-0.054795
H34	H	1.663898	-0.303932	-0.143309
H35	H	1.440200	-0.481478	0.080614
O36	O	1.882221	-0.834736	-0.361712
H37	H	2.003881	-0.865910	-0.335407
O38	O	2.037203	-0.711726	-0.516832
H39	H	2.083635	-0.650694	-0.563333
O40	O	2.012619	-0.288241	-0.492318
H41	H	1.988271	-0.310970	-0.615992
O42	O	1.478916	-0.711798	0.041887
H43	H	1.519252	-0.804021	0.001529
H44	H	2.051329	-0.518579	-0.531027
