data_functionalizedCrystal
_audit_creation_method	'MofGen! by Chris Wilmer'
_symmetry_space_group_name_H-M	'P1'
_symmetry_Int_Tables_number	1
_symmetry_cell_setting	triclinic
loop_
_symmetry_equiv_pos_as_xyz
  x,y,z
_cell_length_a	19.077105
_cell_length_b	18.101395
_cell_length_c	19.076919
_cell_angle_alpha	87.727683
_cell_angle_beta	89.923776
_cell_angle_gamma	87.727498
loop_
_atom_site_label
_atom_site_type_symbol
_atom_site_fract_x
_atom_site_fract_y
_atom_site_fract_z
Zn1	Zn	1.058231	-0.358271	0.440421
Zn2	Zn	1.391564	-0.024938	0.773754
Zn3	Zn	1.724897	0.308395	1.107088
Zn4	Zn	1.062857	-0.477344	0.322915
Zn5	Zn	1.396191	-0.144010	0.656249
Zn6	Zn	1.729524	0.189323	0.989582
Zn7	Zn	0.945450	-0.348351	0.318214
Zn8	Zn	1.278783	-0.015017	0.651548
Zn9	Zn	1.612116	0.318316	0.984881
Zn10	Zn	0.940679	-0.476897	0.435668
Zn11	Zn	1.274013	-0.143564	0.769001
Zn12	Zn	1.607346	0.189769	1.102335
O13	O	1.001804	-0.415216	0.379305
O14	O	1.335138	-0.081882	0.712638
O15	O	1.668471	0.251451	1.045971
O16	O	1.157176	-0.378405	0.428790
O17	O	1.490509	-0.045072	0.762124
O18	O	1.823842	0.288261	1.095457
O19	O	1.051216	-0.456268	0.223960
O20	O	1.384549	-0.122934	0.557294
O21	O	1.717882	0.210399	0.890627
O22	O	0.960470	-0.246037	0.334447
O23	O	1.293804	0.087296	0.667780
O24	O	1.627137	0.420629	1.001114
O25	O	1.160575	-0.465887	0.342459
O26	O	1.493908	-0.132554	0.675793
O27	O	1.827242	0.200779	1.009126
O28	O	1.043330	-0.253326	0.424232
O29	O	1.376663	0.080007	0.757565
O30	O	1.709997	0.413341	1.090898
O31	O	0.964957	-0.361497	0.220507
O32	O	1.298290	-0.028164	0.553840
O33	O	1.631623	0.305170	0.887173
O34	O	0.846486	-0.361064	0.329838
O35	O	1.179819	-0.027731	0.663171
O36	O	1.513152	0.305603	0.996505
O37	O	0.952340	-0.465126	0.534630
O38	O	1.285673	-0.131793	0.867963
O39	O	1.619007	0.201541	1.201296
O40	O	0.842981	-0.455506	0.416131
O41	O	1.176314	-0.122173	0.749464
O42	O	1.509647	0.211160	1.082797
O43	O	1.038704	-0.377972	0.538122
O44	O	1.372038	-0.044639	0.871455
O45	O	1.705371	0.288694	1.204788
O46	O	1.046590	-0.580914	0.337850
O47	O	1.379923	-0.247581	0.671184
O48	O	1.713257	0.085753	1.004517
O49	O	0.956826	-0.580586	0.420689
O50	O	1.290160	-0.247253	0.754022
O51	O	1.623493	0.086081	1.087356
C52	C	0.819237	-0.407161	0.371959
C53	C	1.152570	-0.073827	0.705292
C54	C	1.485904	0.259506	1.038626
C55	C	0.741133	-0.403733	0.368833
C56	C	1.074466	-0.070400	0.702166
C57	C	1.407800	0.262933	1.035500
C58	C	0.702636	-0.451363	0.412222
C59	C	1.035970	-0.118029	0.745555
C60	C	1.369303	0.215304	1.078889
C61	C	0.629249	-0.448133	0.409288
C62	C	0.962583	-0.114799	0.742622
C63	C	1.295916	0.218534	1.075955
C64	C	0.594361	-0.397276	0.362962
C65	C	0.927694	-0.063943	0.696295
C66	C	1.261027	0.269390	1.029628
C67	C	0.632863	-0.349642	0.319571
C68	C	0.966196	-0.016308	0.652905
C69	C	1.299529	0.317025	0.986238
C70	C	0.706248	-0.352869	0.322509
C71	C	1.039582	-0.019535	0.655842
C72	C	1.372915	0.313798	0.989176
C73	C	0.375075	-0.382341	0.349369
C74	C	0.708408	-0.049008	0.682702
C75	C	1.041742	0.284325	1.016036
C76	C	0.301684	-0.379119	0.346433
C77	C	0.635018	-0.045786	0.679766
C78	C	0.968351	0.287547	1.013100
C79	C	0.298076	-0.477610	0.436152
C80	C	0.631409	-0.144277	0.769485
C81	C	0.964743	0.189057	1.102818
C82	C	0.371463	-0.480836	0.439082
C83	C	0.704796	-0.147502	0.772415
C84	C	1.038130	0.185831	1.105749
C85	C	0.409959	-0.433198	0.395694
C86	C	0.743292	-0.099865	0.729028
C87	C	1.076625	0.233468	1.062361
N88	N	0.519348	-0.393975	0.359960
N89	N	0.852681	-0.060642	0.693294
N90	N	1.186014	0.272692	1.026627
N91	N	0.484970	-0.436497	0.398700
N92	N	0.818304	-0.103163	0.732033
N93	N	1.151637	0.230170	1.065366
C94	C	1.001711	-0.607621	0.379280
C95	C	1.335044	-0.274288	0.712613
C96	C	1.668378	0.059045	1.045947
C97	C	1.001735	-0.689937	0.379296
C98	C	1.335068	-0.356604	0.712629
C99	C	1.668401	-0.023270	1.045962
C100	C	1.001887	-0.989036	0.379340
C101	C	1.335221	-0.655703	0.712673
C102	C	1.668554	-0.322370	1.046006
C103	C	0.945531	-0.957547	0.431600
C104	C	1.278864	-0.624213	0.764933
C105	C	1.612197	-0.290880	1.098266
C106	C	0.945280	-0.871910	0.431419
C107	C	1.278613	-0.538577	0.764752
C108	C	1.611947	-0.205244	1.098086
C109	C	1.001811	-0.840650	0.379319
C110	C	1.335145	-0.507316	0.712652
C111	C	1.668478	-0.173983	1.045985
C112	C	0.984741	-0.867911	0.304458
C113	C	1.318075	-0.534578	0.637791
C114	C	1.651408	-0.201244	0.971125
C115	C	0.984379	-0.953554	0.304770
C116	C	1.317712	-0.620221	0.638103
C117	C	1.651046	-0.286887	0.971436
C118	C	1.075459	-0.961424	0.401293
C119	C	1.408792	-0.628091	0.734627
C120	C	1.742125	-0.294757	1.067960
C121	C	1.074956	-0.875820	0.402900
C122	C	1.408289	-0.542486	0.736233
C123	C	1.741623	-0.209153	1.069567
C124	C	1.001770	-0.756788	0.379302
C125	C	1.335103	-0.423454	0.712635
C126	C	1.668437	-0.090121	1.045969
C127	C	1.001927	-1.072898	0.379351
C128	C	1.335260	-0.739565	0.712685
C129	C	1.668594	-0.406231	1.046018
C130	C	1.185084	-0.423303	0.386679
C131	C	1.518418	-0.089969	0.720013
C132	C	1.851751	0.243364	1.053346
C133	C	1.263188	-0.426749	0.389822
C134	C	1.596521	-0.093416	0.723155
C135	C	1.929854	0.239918	1.056489
C136	C	0.994474	-0.422606	0.562585
C137	C	1.327807	-0.089273	0.895918
C138	C	1.661141	0.244061	1.229251
C139	C	0.991350	-0.425755	0.640688
C140	C	1.324684	-0.092422	0.974021
C141	C	1.658017	0.240911	1.307355
C142	C	1.001916	-0.222060	0.379345
C143	C	1.335250	0.111273	0.712679
C144	C	1.668583	0.444606	1.046012
C145	C	1.001964	-0.139749	0.379363
C146	C	1.335297	0.193584	0.712696
C147	C	1.668631	0.526918	1.046029
C148	C	1.009146	-0.407803	0.196739
C149	C	1.342480	-0.074469	0.530072
C150	C	1.675813	0.258864	0.863406
C151	C	1.012406	-0.404451	0.118642
C152	C	1.345740	-0.071117	0.451975
C153	C	1.679073	0.262216	0.785308
C154	C	1.034846	-0.381860	0.679200
C155	C	1.368179	-0.048527	1.012533
C156	C	1.701512	0.284806	1.345867
C157	C	1.031902	-0.384816	0.752586
C158	C	1.365236	-0.051483	1.085919
C159	C	1.698569	0.281850	1.419253
C160	C	0.985466	-0.431671	0.787458
C161	C	1.318799	-0.098338	1.120792
C162	C	1.652133	0.234995	1.454125
C163	C	0.941966	-0.475568	0.748941
C164	C	1.275299	-0.142235	1.082274
C165	C	1.608632	0.191099	1.415608
C166	C	0.944906	-0.472608	0.675556
C167	C	1.278240	-0.139274	1.008890
C168	C	1.611573	0.194059	1.342223
C169	C	0.971847	-0.445387	1.006740
C170	C	1.305180	-0.112054	1.340073
C171	C	1.638513	0.221280	1.673406
C172	C	0.968911	-0.448346	1.080130
C173	C	1.302244	-0.115012	1.413463
C174	C	1.635577	0.218321	1.746796
C175	C	1.058847	-0.357593	1.083770
C176	C	1.392180	-0.024259	1.417103
C177	C	1.725513	0.309074	1.750436
C178	C	1.061786	-0.354640	1.010384
C179	C	1.395119	-0.021306	1.343717
C180	C	1.728453	0.312027	1.677050
C181	C	1.018283	-0.398533	0.971872
C182	C	1.351617	-0.065200	1.305206
C183	C	1.684950	0.268133	1.638539
N184	N	0.982458	-0.434696	0.862471
N185	N	1.315791	-0.101362	1.195804
N186	N	1.649124	0.231971	1.529137
N187	N	1.021289	-0.395505	0.896861
N188	N	1.354622	-0.062171	1.230195
N189	N	1.687955	0.271162	1.563528
H190	H	0.737591	-0.314080	0.287181
H191	H	1.070925	0.019254	0.620514
H192	H	1.404258	0.352587	0.953847
O193	O	1.105746	-0.310229	1.125304
O194	O	1.439079	0.023105	1.458637
O195	O	1.772412	0.356438	1.791970
H196	H	1.095892	-0.320146	1.182191
H197	H	1.429226	0.013188	1.515524
H198	H	1.762559	0.346521	1.848858
H199	H	0.955615	-0.853628	0.486834
H200	H	1.288948	-0.520295	0.820167
H201	H	1.622282	-0.186962	1.153501
O202	O	0.958998	-0.988813	0.505118
O203	O	1.292331	-0.655480	0.838451
O204	O	1.625664	-0.322147	1.171785
H205	H	1.011789	-0.973525	0.522570
H206	H	1.345122	-0.640192	0.855903
H207	H	1.678455	-0.306858	1.189236
H208	H	0.731037	-0.492778	0.449944
H209	H	1.064370	-0.159445	0.783277
H210	H	1.397704	0.173889	1.116610
O211	O	0.595223	-0.294798	0.269603
O212	O	0.928557	0.038535	0.602937
O213	O	1.261890	0.371869	0.936270
H214	H	0.608837	-0.237800	0.282314
H215	H	0.942170	0.095533	0.615648
H216	H	1.275503	0.428866	0.948981
H217	H	0.273280	-0.337698	0.308713
H218	H	0.606614	-0.004364	0.642046
H219	H	0.939947	0.328969	0.975379
O220	O	0.873645	-0.982262	0.412253
O221	O	1.206979	-0.648928	0.745587
O222	O	1.540312	-0.315595	1.078920
H223	H	0.877881	-1.016875	0.365578
H224	H	1.211214	-0.683542	0.698911
H225	H	1.544548	-0.350208	1.032245
H226	H	0.890687	-0.848550	0.416642
H227	H	1.224020	-0.515217	0.749975
H228	H	1.557354	-0.181884	1.083309
O229	O	0.918819	-0.498879	1.117746
O230	O	1.252153	-0.165545	1.451080
O231	O	1.585486	0.167788	1.784413
H232	H	0.889057	-0.528898	1.078639
H233	H	1.222390	-0.195565	1.411972
H234	H	1.555724	0.137769	1.745306
O235	O	1.133203	-0.847960	0.356471
O236	O	1.466536	-0.514626	0.689805
O237	O	1.799870	-0.181293	1.023138
H238	H	1.184056	-0.873857	0.374560
H239	H	1.517389	-0.540524	0.707893
H240	H	1.850723	-0.207190	1.041226
H241	H	0.266725	-0.516393	0.471476
H242	H	0.600058	-0.183059	0.804810
H243	H	0.933392	0.150274	1.138143
H244	H	1.091602	-0.985932	0.455108
H245	H	1.424935	-0.652599	0.788441
H246	H	1.758269	-0.319266	1.121775
O247	O	1.036593	-0.980951	0.251214
O248	O	1.369926	-0.647618	0.584547
O249	O	1.703259	-0.314285	0.917881
H250	H	1.061986	-0.933027	0.225203
H251	H	1.395319	-0.599694	0.558536
H252	H	1.728652	-0.266361	0.891870
H253	H	0.597908	-0.486918	0.444619
H254	H	0.931242	-0.153585	0.777953
H255	H	1.264575	0.179748	1.111286
H256	H	0.399864	-0.522250	0.476804
H257	H	0.733198	-0.188917	0.810138
H258	H	1.066531	0.144417	1.143471
O259	O	0.924892	-0.492687	0.965204
O260	O	1.258226	-0.159354	1.298538
O261	O	1.591559	0.173979	1.631871
H262	H	0.892101	-0.525754	1.001784
H263	H	1.225435	-0.192421	1.335118
H264	H	1.558768	0.140912	1.668451
H265	H	0.930687	-0.970551	0.286519
H266	H	1.264021	-0.637218	0.619853
H267	H	1.597354	-0.303885	0.953186
O268	O	1.078818	-0.337473	0.794123
O269	O	1.412151	-0.004140	1.127456
O270	O	1.745485	0.329193	1.460790
H271	H	1.113203	-0.373546	0.828996
H272	H	1.446536	-0.040213	1.162329
H273	H	1.779869	0.293120	1.495662
O274	O	0.891875	-0.526102	0.786548
O275	O	1.225208	-0.192768	1.119881
O276	O	1.558541	0.140565	1.453214
H277	H	0.897140	-0.520791	0.844047
H278	H	1.230473	-0.187458	1.177381
H279	H	1.563807	0.145876	1.510714
O280	O	1.131097	-0.988467	0.350997
O281	O	1.464430	-0.655134	0.684331
O282	O	1.797764	-0.321801	1.017664
H283	H	1.171128	-1.023499	0.380279
H284	H	1.504461	-0.690166	0.713612
H285	H	1.837794	-0.356833	1.046945
O286	O	0.416593	-0.330986	0.302553
O287	O	0.749926	0.002347	0.635886
O288	O	1.083259	0.335680	0.969219
H289	H	0.380002	-0.295095	0.269835
H290	H	0.713335	0.038239	0.603168
H291	H	1.046668	0.371572	0.936501
H292	H	1.024629	-0.847532	0.264328
H293	H	1.357962	-0.514198	0.597662
H294	H	1.691295	-0.180865	0.930995
O295	O	0.914397	-0.835579	0.279926
O296	O	1.247730	-0.502245	0.613259
O297	O	1.581063	-0.168912	0.946593
H298	H	0.891484	-0.800094	0.320923
H299	H	1.224817	-0.466760	0.654256
H300	H	1.558150	-0.133427	0.987589
O301	O	1.092095	-0.852651	0.475890
O302	O	1.425429	-0.519318	0.809223
O303	O	1.758762	-0.185985	1.142557
H304	H	1.048706	-0.816236	0.495297
H305	H	1.382039	-0.482903	0.828630
H306	H	1.715373	-0.149570	1.161964
H307	H	1.072661	-0.343708	0.650813
H308	H	1.405995	-0.010375	0.984146
H309	H	1.739328	0.322958	1.317479
H310	H	1.099601	-0.316487	0.981996
H311	H	1.432935	0.016846	1.315329
H312	H	1.766268	0.350179	1.648662
O313	O	0.897985	-0.519940	0.634012
O314	O	1.231318	-0.186607	0.967345
O315	O	1.564651	0.146727	1.300679
H316	H	0.865201	-0.553020	0.670588
H317	H	1.198534	-0.219686	1.003921
H318	H	1.531867	0.113647	1.337255
