data_functionalizedCrystal
_audit_creation_method	'MofGen! by Chris Wilmer'
_symmetry_space_group_name_H-M	'P1'
_symmetry_Int_Tables_number	1
_symmetry_cell_setting	triclinic
loop_
_symmetry_equiv_pos_as_xyz
  x,y,z
_cell_length_a	17.000371
_cell_length_b	17.019294
_cell_length_c	18.366186
_cell_angle_alpha	86.114787
_cell_angle_beta	89.990430
_cell_angle_gamma	79.505866
loop_
_atom_site_label
_atom_site_type_symbol
_atom_site_fract_x
_atom_site_fract_y
_atom_site_fract_z
O1	O	1.056076	0.028428	-0.062335
O2	O	0.824311	0.057060	-0.064130
O3	O	0.946658	-0.072537	-0.056001
O4	O	0.933728	0.158025	-0.070464
O5	O	0.946637	-0.072542	0.065099
O6	O	0.824290	0.057055	0.056969
O7	O	1.056055	0.028423	0.058765
Zn8	Zn	0.940169	0.042739	0.077094
Zn9	Zn	0.940196	0.042745	-0.082460
O10	O	0.933707	0.158021	0.050635
C11	C	0.794645	0.058596	-0.003677
C12	C	0.706281	0.063169	-0.003964
C13	C	0.674335	-0.007205	0.000452
C14	C	0.591307	-0.002903	0.000177
C15	C	0.540227	0.071773	-0.004509
C16	C	0.572178	0.142152	-0.008927
C17	C	0.655204	0.137849	-0.008657
C18	C	0.289062	0.088391	-0.005556
C19	C	0.206031	0.092688	-0.005824
C20	C	0.225165	-0.052367	0.003279
C21	C	0.308193	-0.056663	0.003553
C22	C	0.340137	0.013716	-0.000869
C23	C	0.455359	0.076171	-0.004788
C24	C	0.425003	0.009316	-0.000595
C25	C	0.946157	-0.101895	0.006389
C26	C	0.944685	-0.189363	0.011871
C27	C	0.944007	-0.230449	-0.051564
C28	C	0.942620	-0.312634	-0.046411
C29	C	0.941916	-0.353733	0.022178
C30	C	0.942592	-0.312641	0.085619
C31	C	0.943974	-0.230456	0.080464
C32	C	0.937738	-0.601876	0.041043
C33	C	0.936358	-0.684067	0.046192
C34	C	0.936385	-0.684055	-0.085838
C35	C	0.937771	-0.601870	-0.090986
C36	C	0.938443	-0.560784	-0.027546
C37	C	0.940500	-0.437740	0.027448
C38	C	0.939853	-0.476778	-0.032816
C39	C	1.085721	0.026888	-0.001690
C40	C	1.174084	0.022315	-0.001408
C41	C	0.934208	0.187378	-0.011756
C42	C	0.935680	0.274847	-0.017243
N43	N	0.940156	0.042734	0.185986
N44	N	0.940216	0.042743	-0.191351
C45	C	0.994349	-0.014627	0.227684
C46	C	0.994354	-0.014631	0.303912
C47	C	0.940174	0.042739	0.338438
C48	C	0.885970	0.100104	0.296730
C49	C	0.885962	0.100102	0.220504
C50	C	0.929664	0.115311	0.454646
C51	C	0.929678	0.115314	0.530871
C52	C	0.940196	0.042747	0.573545
C53	C	0.950717	-0.029827	0.539986
C54	C	0.950708	-0.029830	0.463759
C55	C	0.940177	0.042748	0.421092
C56	C	0.994398	-0.014622	0.697899
C57	C	0.994398	-0.014627	0.774129
C58	C	0.886017	0.100115	0.766945
C59	C	0.886014	0.100113	0.690717
C60	C	0.940209	0.042745	0.656199
H61	H	0.565301	-0.060209	0.003772
C62	C	1.053957	-0.077741	0.189719
N63	N	1.098852	-0.125281	0.161123
H64	H	0.944585	-0.196994	-0.107417
C65	C	0.918092	0.195146	0.407711
N66	N	0.909377	0.255275	0.372361
H67	H	0.841830	0.146812	0.186552
C68	C	0.515986	0.224297	-0.014080
N69	N	0.473663	0.286170	-0.017958
C70	C	0.962270	-0.109659	0.426847
N71	N	0.970974	-0.169788	0.399044
H72	H	0.959282	-0.088918	0.574730
C73	C	0.826454	0.163268	0.644843
N74	N	0.781608	0.210856	0.610290
C75	C	0.730517	-0.089356	0.005607
N76	N	0.772831	-0.151234	0.009486
H77	H	0.349778	-0.117472	0.007372
C78	C	0.918097	0.195148	0.567779
N79	N	0.909370	0.255280	0.595576
H80	H	1.038524	-0.061337	0.669794
C81	C	0.941947	-0.357840	-0.116195
N82	N	0.941466	-0.391893	-0.168759
C83	C	0.324189	0.165811	-0.010406
N84	N	0.350649	0.224127	-0.014054
C85	C	1.053981	-0.077727	0.349789
N86	N	1.098896	-0.125248	0.384341
C87	C	0.190020	-0.129779	0.008136
N88	N	0.163548	-0.188089	0.011791
H89	H	0.841900	0.146824	0.795055
C90	C	0.935637	-0.729254	-0.155617
N91	N	0.935070	-0.763298	-0.208178
H92	H	0.413760	0.136973	-0.008602
H93	H	0.466596	-0.051485	0.003215
H94	H	0.841855	0.146815	0.324845
H95	H	0.164442	0.153502	-0.009636
C96	C	0.939726	-0.482956	0.102895
N97	N	0.939139	-0.517015	0.159721
C98	C	1.054004	-0.077744	0.819998
N99	N	1.098897	-0.125288	0.854548
H100	H	0.681213	0.195155	-0.012250
H101	H	0.935781	-0.717527	0.102049
C102	C	0.938546	-0.556668	-0.166440
N103	N	0.939132	-0.522622	-0.223272
H104	H	0.942014	-0.346109	0.141466
H105	H	0.938300	-0.568437	0.092701
H106	H	0.944515	-0.197003	0.132120
H107	H	0.940421	-0.443311	-0.088661
