data_functionalizedCrystal
_audit_creation_method	'MofGen! by Chris Wilmer'
_symmetry_space_group_name_H-M	'P1'
_symmetry_Int_Tables_number	1
_symmetry_cell_setting	triclinic
loop_
_symmetry_equiv_pos_as_xyz
  x,y,z
_cell_length_a	16.109302
_cell_length_b	11.792254
_cell_length_c	14.586319
_cell_angle_alpha	89.996031
_cell_angle_beta	89.994552
_cell_angle_gamma	83.830189
loop_
_atom_site_label
_atom_site_type_symbol
_atom_site_fract_x
_atom_site_fract_y
_atom_site_fract_z
O1	O	1.103822	0.145888	-0.076282
O2	O	0.861846	0.164043	-0.076275
O3	O	0.988701	-0.010256	-0.076272
O4	O	0.976967	0.320186	-0.076285
O5	O	0.988692	-0.010258	0.076209
O6	O	0.861837	0.164040	0.076206
O7	O	1.103813	0.145886	0.076199
Cu8	Cu	0.982824	0.154963	0.090125
Cu9	Cu	0.982835	0.154966	-0.090201
O10	O	0.976958	0.320184	0.076196
C11	C	0.830863	0.163306	-0.000033
C12	C	0.738557	0.161101	-0.000031
C13	C	0.526188	0.156000	0.083078
C14	C	0.439458	0.153916	0.083075
C15	C	0.439478	0.153925	-0.083168
C16	C	0.526207	0.156001	-0.083164
C17	C	0.569559	0.157044	-0.000038
C18	C	0.396100	0.152884	-0.000046
C19	C	0.302064	0.150624	-0.000050
C20	C	0.663602	0.159302	-0.000034
C21	C	0.987957	-0.052541	-0.000032
C22	C	0.985745	-0.178535	-0.000033
C23	C	0.983947	-0.280856	-0.000036
C24	C	0.981700	-0.409222	-0.000044
C25	C	1.134796	0.146623	-0.000045
C26	C	1.227102	0.148828	-0.000053
C27	C	0.977702	0.362469	-0.000046
C28	C	0.979914	0.488463	-0.000051
N29	N	0.982823	0.154960	0.216957
N30	N	0.982843	0.154960	-0.217033
C31	C	1.039013	0.077806	0.451965
C32	C	1.039015	0.077804	0.547946
C33	C	0.926647	0.232117	0.547953
C34	C	0.926641	0.232113	0.451973
C35	C	0.982829	0.154959	0.403982
C36	C	0.982837	0.154960	0.595942
C37	C	0.982839	0.154958	0.700010
C38	C	0.982826	0.154960	0.299908
H39	H	1.084763	0.014982	0.412892
O40	O	1.093674	0.002817	0.594414
C41	C	1.143247	-0.065297	0.531470
H42	H	1.144392	-0.018762	0.463050
H43	H	1.115872	-0.149623	0.521270
C44	C	1.231422	-0.145809	0.652949
C45	C	1.232834	-0.088649	0.568917
H46	H	1.286683	-0.160219	0.676049
H47	H	1.198022	-0.099923	0.695357
H48	H	1.208606	-0.216074	0.644438
H49	H	1.255640	-0.018380	0.577431
H50	H	1.266240	-0.134524	0.526512
O51	O	0.568407	0.156852	0.163764
C52	C	0.627531	0.059801	0.168748
H53	H	0.643525	0.027370	0.096580
H54	H	0.600383	-0.009794	0.209762
C55	C	0.687540	0.131439	0.304914
C56	C	0.707189	0.091612	0.216276
H57	H	0.736676	0.151059	0.334235
H58	H	0.647706	0.196822	0.301559
H59	H	0.664916	0.073436	0.339081
H60	H	0.729803	0.149619	0.182108
H61	H	0.747030	0.026239	0.219626
O62	O	0.872154	0.307024	0.594716
C63	C	0.884193	0.290469	0.689720
H64	H	0.950098	0.248073	0.702820
H65	H	0.836880	0.233529	0.716973
C66	C	0.791283	0.458642	0.722897
C67	C	0.872232	0.406580	0.738987
H68	H	0.783902	0.530263	0.753289
H69	H	0.783170	0.469794	0.658891
H70	H	0.751865	0.411181	0.745608
H71	H	0.911648	0.454034	0.716266
H72	H	0.880352	0.395439	0.802990
H73	H	0.404170	0.153076	-0.150846
O74	O	0.397203	0.152846	0.163732
C75	C	0.311355	0.150811	0.145909
H76	H	0.302798	0.114623	0.074473
H77	H	0.278427	0.241217	0.149851
C78	C	0.284130	0.119791	0.305353
C79	C	0.273620	0.075336	0.217617
H80	H	0.260851	0.073240	0.349587
H81	H	0.341967	0.121166	0.317361
H82	H	0.256689	0.195129	0.308624
H83	H	0.301070	0.000006	0.214343
H84	H	0.215787	0.073946	0.205609
O85	O	0.568210	0.157064	-0.163990
C86	C	0.511353	0.155679	-0.237360
H87	H	0.446246	0.190111	-0.213001
H88	H	0.510443	0.064461	-0.262917
C89	C	0.618389	0.188589	-0.345807
C90	C	0.538424	0.230887	-0.315890
H91	H	0.635089	0.234976	-0.394250
H92	H	0.656696	0.189517	-0.296377
H93	H	0.617620	0.112574	-0.367098
H94	H	0.539196	0.306895	-0.294589
H95	H	0.500117	0.229973	-0.365318
O96	O	0.872030	0.307175	0.405499
C97	C	0.822429	0.375261	0.468436
H98	H	0.856522	0.376565	0.536848
H99	H	0.760504	0.338383	0.478658
C100	C	0.763971	0.496087	0.346939
C101	C	0.805848	0.497696	0.430961
H102	H	0.753739	0.571609	0.323822
H103	H	0.797385	0.450214	0.304535
H104	H	0.712372	0.465350	0.355468
H105	H	0.857451	0.528419	0.422429
H106	H	0.772442	0.543577	0.473363
