data_functionalizedCrystal
_audit_creation_method	'MofGen! by Chris Wilmer'
_symmetry_space_group_name_H-M	'P1'
_symmetry_Int_Tables_number	1
_symmetry_cell_setting	triclinic
loop_
_symmetry_equiv_pos_as_xyz
  x,y,z
_cell_length_a	15.538191
_cell_length_b	17.699083
_cell_length_c	16.776229
_cell_angle_alpha	89.995692
_cell_angle_beta	89.993235
_cell_angle_gamma	65.277554
loop_
_atom_site_label
_atom_site_type_symbol
_atom_site_fract_x
_atom_site_fract_y
_atom_site_fract_z
O1	O	-1.250477	0.245976	0.066293
O2	O	-0.750477	0.745976	0.566293
O3	O	-0.976018	0.158529	0.066294
O4	O	-0.476018	0.658529	0.566294
O5	O	-1.121002	0.314560	0.066286
O6	O	-0.621002	0.814560	0.566286
O7	O	-1.105493	0.089944	0.066300
O8	O	-0.605493	0.589944	0.566300
O9	O	-1.120985	0.314556	-0.066290
O10	O	-0.620985	0.814556	0.433710
O11	O	-0.976001	0.158525	-0.066283
O12	O	-0.476001	0.658525	0.433717
O13	O	-1.250461	0.245972	-0.066284
O14	O	-0.750461	0.745972	0.433716
Zn15	Zn	-1.113228	0.202248	-0.087333
Zn16	Zn	-0.613228	0.702248	0.412667
Zn17	Zn	-1.113250	0.202253	0.087343
Zn18	Zn	-0.613250	0.702253	0.587343
O19	O	-1.105477	0.089940	-0.066276
O20	O	-0.605477	0.589940	0.433724
C21	C	-0.940893	0.149378	0.000006
C22	C	-0.440893	0.649378	0.500006
C23	C	-0.836257	0.122125	0.000006
C24	C	-0.336257	0.622125	0.500006
C25	C	-1.285585	0.255123	0.000006
C26	C	-0.785585	0.755123	0.500006
C27	C	-1.390221	0.282375	0.000011
C28	C	-0.890221	0.782375	0.500011
C29	C	-1.120438	0.342603	-0.000002
C30	C	-0.620438	0.842603	0.499998
C31	C	-1.118771	0.426166	-0.000002
C32	C	-0.618771	0.926166	0.499998
C33	C	-0.549086	0.392872	0.000001
C34	C	-0.049086	0.892872	0.500001
C35	C	-0.450762	0.367245	0.000004
C36	C	0.049238	0.867245	0.500004
C37	C	-0.427989	0.223099	0.000012
C38	C	0.072011	0.723099	0.500012
C39	C	-0.526313	0.248714	0.000006
C40	C	-0.026313	0.748714	0.500006
C41	C	-0.586855	0.333602	0.000002
C42	C	-0.086855	0.833602	0.500002
C43	C	-0.564082	0.189444	0.000007
C44	C	-0.064082	0.689444	0.500007
C45	C	-0.662398	0.215057	0.000005
C46	C	-0.162398	0.715057	0.500005
C47	C	-0.722945	0.299940	0.000003
C48	C	-0.222945	0.799940	0.500003
C49	C	-0.685171	0.359215	-0.000000
C50	C	-0.185171	0.859215	0.500000
C51	C	-0.503539	0.104556	0.000017
C52	C	-0.003539	0.604556	0.500017
C53	C	-0.541308	0.045286	0.000017
C54	C	-0.041308	0.545286	0.500017
C55	C	-0.639625	0.070899	0.000010
C56	C	-0.139625	0.570899	0.500010
C57	C	-0.700173	0.155782	0.000007
C58	C	-0.200173	0.655782	0.500007
C59	C	-0.677400	0.011624	0.000012
C60	C	-0.177400	0.511624	0.500012
C61	C	-0.775716	0.037238	0.000011
C62	C	-0.275716	0.537238	0.500011
C63	C	-0.798489	0.181396	0.000006
C64	C	-0.298489	0.681396	0.500006
C65	C	-1.106041	0.061897	0.000014
C66	C	-0.606041	0.561897	0.500014
C67	C	-1.107708	-0.021665	0.000020
C68	C	-0.607708	0.478335	0.500020
N69	N	-1.113221	0.202246	-0.206544
N70	N	-0.613221	0.702246	0.293456
C71	C	-1.203873	0.498041	-0.000004
C72	C	-0.703873	0.998041	0.499996
C73	C	-1.202301	0.576554	0.000003
C74	C	-0.702301	1.076554	0.500003
C75	C	-1.115626	0.583192	0.000006
C76	C	-0.615626	1.083192	0.500006
C77	C	-1.030517	0.511309	0.000010
C78	C	-0.530517	1.011309	0.500010
C79	C	-1.032090	0.432797	0.000008
C80	C	-0.532090	0.932797	0.500008
C81	C	-1.024171	0.827938	0.000016
C82	C	-0.524171	1.327938	0.500016
C83	C	-1.022605	0.906458	0.000015
C84	C	-0.522605	1.406458	0.500015
C85	C	-1.194382	0.971696	0.000011
C86	C	-0.694382	1.471696	0.500011
C87	C	-1.195955	0.893184	0.000010
C88	C	-0.695955	1.393184	0.500010
C89	C	-1.110847	0.821308	0.000018
C90	C	-0.610847	1.321308	0.500018
C91	C	-1.112552	0.736175	0.000012
C92	C	-0.612552	1.236175	0.500012
C93	C	-1.113919	0.668323	0.000006
C94	C	-0.613919	1.168323	0.500006
C95	C	-1.170278	0.171988	-0.248255
C96	C	-0.670278	0.671988	0.251745
C97	C	-1.170289	0.171994	-0.331707
C98	C	-0.670289	0.671994	0.168293
C99	C	-1.113236	0.202253	-0.373447
C100	C	-0.613236	0.702253	0.126553
C101	C	-1.056176	0.232515	-0.331730
C102	C	-0.556176	0.732515	0.168270
C103	C	-1.056171	0.232514	-0.248279
C104	C	-0.556171	0.732514	0.251721
C105	C	-1.056195	0.232519	-0.668277
C106	C	-0.556195	0.732519	-0.168277
C107	C	-1.056202	0.232515	-0.751734
C108	C	-0.556202	0.732515	-0.251734
C109	C	-1.170313	0.171999	-0.751705
C110	C	-0.670313	0.671999	-0.251705
C111	C	-1.170308	0.171998	-0.668254
C112	C	-0.670308	0.671998	-0.168254
C113	C	-1.113252	0.202265	-0.626545
C114	C	-0.613252	0.702265	-0.126545
C115	C	-1.113243	0.202259	-0.536056
C116	C	-0.613243	0.702259	-0.036056
C117	C	-1.113239	0.202253	-0.463934
C118	C	-0.613239	0.702253	0.036066
N119	N	-1.113265	0.202263	0.206554
N120	N	-0.613265	0.702263	0.706554
H121	H	-0.847785	0.250520	-0.000003
H122	H	-0.347785	0.750520	0.499997
F123	F	-0.363547	0.132758	0.000022
F124	F	0.136453	0.632758	0.500022
F125	F	-0.612956	-0.078716	0.000029
F126	F	-0.112956	0.421284	0.500029
H127	H	-1.263682	1.030228	0.000008
H128	H	-0.763682	1.530228	0.500008
H129	H	-0.598383	0.461996	-0.000007
H130	H	-0.098383	0.961996	0.499993
F131	F	-0.995476	0.264723	-0.796155
F132	F	-0.495476	0.764723	-0.296155
F133	F	-0.815914	-0.025844	0.000012
F134	F	-0.315914	0.474156	0.500012
H135	H	-0.952019	0.911855	0.000016
H136	H	-0.452019	1.411855	0.500016
F137	F	-0.995457	0.264721	-0.376155
F138	F	-0.495457	0.764721	0.123845
F139	F	-1.296126	0.490986	-0.000015
F140	F	-0.796126	0.990986	0.499985
H141	H	-1.271600	0.635075	0.000000
H142	H	-0.771600	1.135075	0.500000
H143	H	-1.216753	0.147357	-0.365664
H144	H	-0.716753	0.647357	0.134336
H145	H	-1.266535	0.887787	0.000003
H146	H	-0.766535	1.387787	0.500003
F147	F	-0.995450	0.264727	-0.203888
F148	F	-0.495450	0.764727	0.296112
F149	F	-0.827583	0.327201	0.000005
F150	F	-0.327583	0.827201	0.500005
H151	H	-0.492002	-0.023830	0.000024
H152	H	0.007998	0.476170	0.500024
F153	F	-0.938270	0.518375	0.000022
F154	F	-0.438270	1.018375	0.500022
F155	F	-0.410570	0.430336	-0.000007
F156	F	0.089430	0.930336	0.499993
F157	F	-0.749609	0.449562	-0.000014
F158	F	-0.249609	0.949562	0.499986
H159	H	-0.423484	0.083705	0.000021
H160	H	0.076516	0.583705	0.500021
H161	H	-0.954870	0.769424	0.000023
H162	H	-0.454870	1.269424	0.500023
F163	F	-1.231001	0.139780	-0.203839
F164	F	-0.731001	0.639780	0.296161
F165	F	-0.941512	0.356301	0.000013
F166	F	-0.441512	0.856301	0.500013
F167	F	-1.231021	0.139782	-0.623836
F168	F	-0.731021	0.639782	-0.123836
H169	H	-1.216773	0.147357	-0.785674
H170	H	-0.716773	0.647357	-0.285674
H171	H	-1.009736	0.257164	-0.634328
H172	H	-0.509736	0.757164	-0.134328
