data_functionalizedCrystal
_audit_creation_method	'MofGen! by Chris Wilmer'
_symmetry_space_group_name_H-M	'P1'
_symmetry_Int_Tables_number	1
_symmetry_cell_setting	triclinic
loop_
_symmetry_equiv_pos_as_xyz
  x,y,z
_cell_length_a	14.908783
_cell_length_b	14.908506
_cell_length_c	14.908308
_cell_angle_alpha	96.362085
_cell_angle_beta	89.788727
_cell_angle_gamma	96.790846
loop_
_atom_site_label
_atom_site_type_symbol
_atom_site_fract_x
_atom_site_fract_y
_atom_site_fract_z
Zn1	Zn	1.325984	-0.317645	-0.605038
Zn2	Zn	1.325883	-0.460296	-0.462406
Zn3	Zn	1.184357	-0.316663	-0.445956
Zn4	Zn	1.165851	-0.477687	-0.604970
O5	O	1.250519	-0.393073	-0.529592
O6	O	1.452216	-0.329702	-0.593030
O7	O	1.314812	-0.433554	-0.333984
O8	O	1.210931	-0.189704	-0.460203
O9	O	1.452142	-0.434507	-0.488239
O10	O	1.314984	-0.190426	-0.577079
O11	O	1.210834	-0.328027	-0.321898
O12	O	1.055656	-0.344889	-0.460136
O13	O	1.179390	-0.464146	-0.731218
O14	O	1.042060	-0.463193	-0.576963
O15	O	1.297039	-0.346564	-0.731268
O16	O	1.296868	-0.589693	-0.488173
O17	O	1.179292	-0.602469	-0.592914
C18	C	1.016124	-0.405822	-0.516758
C19	C	0.915846	-0.411300	-0.511290
C20	C	0.727468	-0.312629	-0.610319
C21	C	0.633248	-0.317773	-0.605184
C22	C	0.633186	-0.426725	-0.495881
C23	C	0.727405	-0.421582	-0.501016
C24	C	0.774543	-0.364533	-0.558238
C25	C	0.868764	-0.359394	-0.563377
C26	C	0.868700	-0.468342	-0.454070
C27	C	0.774480	-0.473486	-0.448935
C28	C	1.236084	-0.629034	-0.542342
C29	C	1.229989	-0.729976	-0.547831
C30	C	1.160143	-0.878933	-0.610044
C31	C	1.165867	-0.784090	-0.604893
C32	C	1.288394	-0.770712	-0.495919
C33	C	1.282670	-0.865556	-0.501071
C34	C	1.218541	-0.919664	-0.558134
C35	C	1.212814	-1.014509	-0.563280
C36	C	1.335345	-1.001130	-0.454312
C37	C	1.341069	-0.906286	-0.449161
C38	C	1.485829	-0.380274	-0.542477
C39	C	1.586104	-0.374820	-0.547968
C40	C	1.236161	-0.407405	-0.764891
C41	C	1.230043	-0.413512	-0.865162
C42	C	1.265033	-0.156191	-0.516814
C43	C	1.271218	-0.055245	-0.511368
C44	C	1.341053	-0.302530	-1.053633
C45	C	1.335307	-0.308265	-1.147846
C46	C	1.212802	-0.430713	-1.147802
C47	C	1.218548	-0.424978	-1.053589
C48	C	1.282676	-0.360885	-1.006508
C49	C	1.288426	-0.355155	-0.912294
C50	C	1.165917	-0.477598	-0.912251
C51	C	1.160171	-0.483333	-1.006464
C52	C	1.264876	-0.378728	-0.295208
C53	C	1.271185	-0.372355	-0.194934
H54	H	0.765848	-0.266182	-0.656915
Br55	Br	1.086699	-0.556811	-0.848292
Br56	Br	0.569363	-0.247324	-0.675864
H57	H	1.107958	-0.535513	-1.044810
Br58	Br	0.710500	-0.550900	-0.371276
Br59	Br	1.125778	-1.087940	-0.640716
Br60	Br	1.086613	-0.728815	-0.675350
H61	H	0.907038	-0.510613	-0.411669
Br62	Br	1.375433	-0.697266	-0.418499
H63	H	0.594791	-0.473161	-0.449283
H64	H	1.382897	-1.034302	-0.412043
H65	H	1.382841	-0.260744	-1.186211
Br66	Br	1.073098	-0.952369	-0.687466
Br67	Br	0.932737	-0.281976	-0.641038
H68	H	1.393283	-0.862221	-0.402703
H69	H	1.160592	-0.482894	-1.186151
Br70	Br	1.375459	-0.268177	-0.848399
H71	H	1.393273	-0.250347	-1.015299
