data_functionalizedCrystal
_audit_creation_method	'MofGen! by Chris Wilmer'
_symmetry_space_group_name_H-M	'P1'
_symmetry_Int_Tables_number	1
_symmetry_cell_setting	triclinic
loop_
_symmetry_equiv_pos_as_xyz
  x,y,z
_cell_length_a	13.635800
_cell_length_b	23.753515
_cell_length_c	11.102315
_cell_angle_alpha	84.896217
_cell_angle_beta	108.606275
_cell_angle_gamma	79.923165
loop_
_atom_site_label
_atom_site_type_symbol
_atom_site_fract_x
_atom_site_fract_y
_atom_site_fract_z
V1	V	2.034405	-0.079164	0.396976
O2	O	2.036312	0.003801	0.388680
O3	O	2.001796	-0.156966	0.394972
O4	O	2.023126	-0.077948	0.569787
O5	O	2.014835	-0.075764	0.212655
V6	V	2.275634	-0.069240	0.374843
O7	O	2.166201	-0.100932	0.445526
O8	O	2.368936	-0.047472	0.326294
O9	O	2.196640	0.008562	0.376848
O10	O	2.332426	-0.152205	0.383139
O11	O	2.353903	-0.072640	0.559164
O12	O	2.175310	-0.070457	0.202033
V13	V	2.534405	-0.079164	0.396976
O14	O	2.536312	0.003801	0.388680
O15	O	2.501796	-0.156966	0.394972
O16	O	2.523126	-0.077948	0.569787
O17	O	2.514835	-0.075764	0.212655
V18	V	2.775634	-0.069240	0.374843
O19	O	2.666201	-0.100932	0.445526
O20	O	2.868936	-0.047472	0.326294
O21	O	2.696640	0.008562	0.376848
O22	O	2.832426	-0.152205	0.383139
O23	O	2.853903	-0.072640	0.559164
O24	O	2.675310	-0.070457	0.202033
C25	C	1.921833	-0.175932	0.388892
C26	C	1.935901	-0.239536	0.388405
C27	C	1.968756	-0.506281	0.269883
C28	C	1.955547	-0.446517	0.270329
O29	O	1.924969	-0.408655	0.171517
N30	N	1.976829	-0.424802	0.387015
C31	C	2.011312	-0.462853	0.503262
O32	O	2.028201	-0.438894	0.602554
C33	C	2.024514	-0.522614	0.502814
C34	C	2.003239	-0.544327	0.386121
C35	C	1.947483	-0.527994	0.153199
C36	C	1.960693	-0.587753	0.152753
C37	C	1.995177	-0.625799	0.268991
C38	C	2.016450	-0.604086	0.385675
C39	C	2.058990	-0.560664	0.619059
C40	C	2.072189	-0.620429	0.618600
C41	C	2.050914	-0.642141	0.501907
C42	C	2.064143	-0.701891	0.501467
N43	N	2.042861	-0.723607	0.384781
C44	C	2.008378	-0.685561	0.268543
C45	C	1.983585	-0.337348	0.504194
C46	C	1.970391	-0.277588	0.504645
C47	C	1.914624	-0.261257	0.271711
C48	C	1.927826	-0.321018	0.271263
C49	C	1.962303	-0.359064	0.387508
C50	C	2.036123	-0.811060	0.267616
C51	C	2.049342	-0.870825	0.267181
C52	C	2.105102	-0.887151	0.500113
C53	C	2.091890	-0.827391	0.500549
C54	C	2.057395	-0.789346	0.384290
O55	O	2.094713	-0.739787	0.600229
O56	O	1.991482	-0.709527	0.169267
C57	C	1.949040	-0.075136	0.611885
C58	C	1.980404	-0.074656	0.753163
C59	C	2.108273	0.027525	0.382923
C60	C	2.083825	0.091129	0.383419
C61	C	2.081066	-0.073270	0.159928
C62	C	2.039321	-0.073747	0.018648
C63	C	2.421833	-0.175932	0.388892
C64	C	2.435901	-0.239536	0.388405
C65	C	2.449040	-0.075136	0.611885
C66	C	2.480404	-0.074656	0.753163
C67	C	2.162888	-0.080374	0.766185
C68	C	2.268861	-0.083009	0.839067
C69	C	2.298324	-0.082558	0.971810
C70	C	2.221804	-0.079469	1.031671
C71	C	2.115831	-0.076834	0.958788
C72	C	2.086378	-0.077287	0.826044
C73	C	1.933348	-0.071112	0.945766
C74	C	1.903884	-0.071567	0.813025
C75	C	1.856828	-0.068023	1.005627
C76	C	1.750854	-0.065392	0.932746
C77	C	1.721394	-0.065844	0.799996
C78	C	1.797911	-0.068932	0.740142
C79	C	2.608273	0.027525	0.382923
C80	C	2.583825	0.091129	0.383419
C81	C	2.581066	-0.073270	0.159928
C82	C	2.539321	-0.073747	0.018648
C83	C	2.533737	-0.272323	0.394553
C84	C	2.546975	-0.332087	0.394115
C85	C	2.462372	-0.359063	0.387520
C86	C	2.364528	-0.326273	0.381376
C87	C	2.351294	-0.266510	0.381823
C88	C	2.658482	0.123915	0.377274
C89	C	2.635518	0.183679	0.377719
C90	C	2.537898	0.210655	0.384316
C91	C	2.463234	0.177865	0.390457
C92	C	2.486196	0.118102	0.390004
C93	C	2.512288	-0.179450	0.790441
C94	C	2.542961	-0.231620	0.875450
C95	C	2.572431	-0.231166	1.008192
C96	C	2.571229	-0.178537	1.055926
C97	C	2.540557	-0.126367	0.970917
C98	C	2.511085	-0.126827	0.838173
C99	C	2.508680	-0.021575	0.933640
C100	C	2.479203	-0.022027	0.800897
C101	C	2.507479	0.031054	0.981374
C102	C	2.476799	0.083225	0.896363
C103	C	2.447327	0.082769	0.763614
C104	C	2.448530	0.030142	0.715888
H105	H	2.008032	-0.780090	0.172946
H106	H	2.595240	-0.178172	1.164014
H107	H	2.295649	-0.348246	0.376007
H108	H	2.531484	0.031420	1.089461
H109	H	2.473162	-0.407727	0.387157
H110	H	2.384615	-0.084703	1.031151
H111	H	1.886541	-0.230268	0.177063
O112	O	2.543831	-0.282740	0.829095
C113	C	2.474823	-0.369559	0.813870
C114	C	2.473883	-0.311711	0.866547
H115	H	2.418260	-0.392994	0.844106
H116	H	2.558407	-0.397651	0.854016
H117	H	2.448446	-0.360838	0.704397
H118	H	2.500213	-0.320379	0.976015
H119	H	2.390287	-0.283637	0.826302
O120	O	2.475650	0.134294	0.942943
C121	C	2.507001	0.181433	1.130932
C122	C	2.508327	0.123557	1.078347
H123	H	2.533438	0.172772	1.240413
H124	H	2.423302	0.209387	1.090758
H125	H	2.563355	0.204988	1.100546
H126	H	2.452025	0.099955	1.108714
H127	H	2.592060	0.095645	1.118516
H128	H	2.597408	-0.273647	1.077408
O129	O	2.417516	0.133501	0.681215
C130	C	2.389082	0.237491	0.658271
C131	C	2.422839	0.180079	0.751723
H132	H	2.393395	0.275163	0.715242
H133	H	2.304419	0.242137	0.590227
H134	H	2.444519	0.237669	0.600154
H135	H	2.367477	0.179861	0.809926
H136	H	2.507523	0.175454	0.819682
O137	O	2.256163	-0.234745	0.375771
C138	C	2.076616	-0.235305	0.363140
C139	C	2.184292	-0.271342	0.369958
H140	H	2.018485	-0.264881	0.358466
H141	H	2.044384	-0.200925	0.273588
H142	H	2.087293	-0.213433	0.452420
H143	H	2.173704	-0.293252	0.280743
H144	H	2.216488	-0.305689	0.459567
O145	O	2.112730	-0.806368	0.613991
C146	C	2.243058	-0.804783	0.819234
C147	C	2.219606	-0.828641	0.690831
H148	H	2.329471	-0.822772	0.881384
H149	H	2.189444	-0.818342	0.871782
H150	H	2.227630	-0.755533	0.799552
H151	H	2.235043	-0.877892	0.710399
H152	H	2.273213	-0.815037	0.638322
O153	O	2.753344	0.097813	0.370795
C154	C	2.921808	0.109903	0.358254
C155	C	2.814410	0.139531	0.365568
H156	H	2.971219	0.143616	0.354054
H157	H	2.908042	0.088363	0.268283
H158	H	2.965703	0.075780	0.447114
H159	H	2.770459	0.173679	0.276774
H160	H	2.828249	0.161032	0.455596
H161	H	2.011667	-0.368323	0.598862
O162	O	2.708027	0.215572	0.371941
C163	C	2.817892	0.278618	0.475798
C164	C	2.735760	0.242537	0.482488
H165	H	2.840355	0.300419	0.565176
H166	H	2.782610	0.313049	0.386337
H167	H	2.891576	0.249059	0.470959
H168	H	2.662053	0.272049	0.487375
H169	H	2.771126	0.208100	0.571934
H170	H	2.424528	0.029766	0.607804
H171	H	2.519213	0.259318	0.384684
O172	O	2.079824	-0.539563	0.732399
C173	C	2.183940	-0.484337	0.874155
C174	C	2.160465	-0.508207	0.745764
H175	H	2.249124	-0.458971	0.884990
H176	H	2.210919	-0.521787	0.957192
H177	H	2.109089	-0.454549	0.875292
H178	H	2.235274	-0.537987	0.744501
H179	H	2.133441	-0.470730	0.662785
O180	O	2.368482	0.204160	0.396929
C181	C	2.256764	0.293662	0.403232
C182	C	2.364115	0.263953	0.395915
H183	H	2.253189	0.342011	0.402387
H184	H	2.247661	0.274247	0.495725
H185	H	2.189931	0.286722	0.316901
H186	H	2.431012	0.270882	0.482180
H187	H	2.373126	0.283373	0.303368
O188	O	2.413572	0.086337	0.396052
C189	C	2.240246	0.086898	0.408683
C190	C	2.322413	0.122934	0.401868
H191	H	2.166516	0.116473	0.413360
H192	H	2.275499	0.052516	0.498231
H193	H	2.217868	0.065028	0.319399
H194	H	2.344823	0.144842	0.491087
H195	H	2.287115	0.157283	0.312263
H196	H	2.488278	-0.179825	0.682356
O197	O	2.616051	-0.246221	0.401019
C198	C	2.798395	-0.258309	0.413537
C199	C	2.705263	-0.287939	0.406245
H200	H	2.870539	-0.292022	0.417737
H201	H	2.818250	-0.236764	0.503502
H202	H	2.775313	-0.224190	0.324670
H203	H	2.728270	-0.322082	0.495047
H204	H	2.685429	-0.309444	0.316224
H205	H	2.032017	-0.888500	0.172151
H206	H	1.943364	-0.605425	0.057730
H207	H	1.919399	-0.497021	0.058539
O208	O	2.641928	-0.363978	0.399887
C209	C	2.736256	-0.427019	0.296013
C210	C	2.628655	-0.390942	0.289337
H211	H	2.725566	-0.448819	0.206633
H212	H	2.768453	-0.461451	0.385472
H213	H	2.794430	-0.397458	0.300844
H214	H	2.570404	-0.420457	0.284457
H215	H	2.596546	-0.356505	0.199892
H216	H	1.880824	-0.067652	1.113712
H217	H	1.688561	-0.062873	0.981494
H218	H	1.987734	-0.259916	0.599669
O219	O	1.907061	-0.342009	0.157791
C220	C	1.850417	-0.319489	-0.073193
C221	C	1.873876	-0.295644	0.055225
H222	H	1.823604	-0.282015	-0.156149
H223	H	1.785123	-0.344791	-0.084213
H224	H	1.925240	-0.349325	-0.074275
H225	H	1.799115	-0.265785	0.056397
H226	H	1.939212	-0.270376	0.066194
H227	H	2.133185	-0.918139	0.594751
O228	O	2.105739	-0.657307	0.731644
C229	C	2.159590	-0.667190	0.962723
C230	C	2.121621	-0.625364	0.834800
H231	H	2.172421	-0.641381	1.046156
H232	H	2.237240	-0.697809	0.973322
H233	H	2.097139	-0.693349	0.963383
H234	H	2.183998	-0.599167	0.834051
H235	H	2.043947	-0.594784	0.824252
H236	H	2.138910	-0.080749	0.658102
H237	H	2.245801	-0.079094	1.139755
H238	H	2.331158	-0.085522	0.790313
H239	H	1.635097	-0.063685	0.740657
H240	H	1.773934	-0.069304	0.632058
