data_functionalizedCrystal
_audit_creation_method	'MofGen! by Chris Wilmer'
_symmetry_space_group_name_H-M	'P1'
_symmetry_Int_Tables_number	1
_symmetry_cell_setting	triclinic
loop_
_symmetry_equiv_pos_as_xyz
  x,y,z
_cell_length_a	16.109301
_cell_length_b	19.188930
_cell_length_c	15.186229
_cell_angle_alpha	89.991143
_cell_angle_beta	89.999362
_cell_angle_gamma	83.303131
loop_
_atom_site_label
_atom_site_type_symbol
_atom_site_fract_x
_atom_site_fract_y
_atom_site_fract_z
O1	O	1.102833	0.089744	-0.073183
O2	O	0.860734	0.100912	-0.073198
O3	O	0.988770	-0.006311	-0.073173
O4	O	0.974797	0.196967	-0.073208
O5	O	0.988762	-0.006313	0.073284
O6	O	0.860726	0.100911	0.073259
O7	O	1.102825	0.089742	0.073274
Zn8	Zn	0.981774	0.095326	0.096520
Zn9	Zn	0.981785	0.095328	-0.096444
O10	O	0.974789	0.196966	0.073249
C11	C	0.829757	0.100459	0.000029
C12	C	0.737466	0.099103	0.000024
C13	C	0.514993	0.159573	0.000023
C14	C	0.428277	0.158294	0.000029
C15	C	0.448573	0.031076	0.000048
C16	C	0.535287	0.032357	0.000048
C17	C	0.568495	0.096608	0.000031
C18	C	0.395064	0.094047	0.000037
C19	C	0.301043	0.092659	0.000043
C20	C	0.662522	0.097996	0.000027
C21	C	0.988313	-0.032324	0.000058
C22	C	0.986955	-0.109832	0.000066
C23	C	1.062082	-0.154580	0.000075
C24	C	1.060806	-0.227407	0.000060
C25	C	0.984399	-0.255482	0.000055
C26	C	0.909261	-0.210724	0.000041
C27	C	0.910540	-0.137899	0.000046
N28	N	0.925991	-0.363624	0.049893
N29	N	0.924782	-0.432805	0.049890
C30	C	0.980543	-0.474900	0.000037
N31	N	1.037571	-0.445200	-0.049802
N32	N	1.038783	-0.376013	-0.049795
C33	C	0.983004	-0.334448	0.000049
C34	C	1.054292	-0.598616	0.000029
C35	C	1.053012	-0.671443	0.000010
C36	C	0.901465	-0.654759	-0.000001
C37	C	0.902747	-0.581933	0.000010
C38	C	0.979162	-0.553866	0.000029
C39	C	1.133802	0.090196	0.000045
C40	C	1.226093	0.091552	0.000045
C41	C	0.975246	0.222979	0.000016
C42	C	0.976604	0.300486	0.000003
N43	N	0.981772	0.095325	0.228213
N44	N	0.981793	0.095325	-0.228137
C45	C	1.038486	0.047862	0.453947
C46	C	1.038488	0.047860	0.546136
C47	C	0.925074	0.142790	0.546123
C48	C	0.925068	0.142787	0.453935
C49	C	0.981779	0.095324	0.407849
C50	C	0.981787	0.095325	0.592227
C51	C	0.981790	0.095323	0.692183
C52	C	0.981775	0.095325	0.307887
H53	H	0.578851	-0.018920	0.000057
H54	H	0.878902	0.181434	0.583655
H55	H	1.121986	-0.263848	0.000064
H56	H	1.084662	0.009214	0.416426
C57	C	1.145131	-0.124243	0.000044
C58	C	1.210652	-0.179026	0.000027
C59	C	1.287167	-0.151105	-0.000014
H60	H	1.148894	-0.096199	0.051105
H61	H	1.148831	-0.096194	-0.051047
H62	H	1.206953	-0.207064	0.051113
H63	H	1.206916	-0.207075	-0.051030
H64	H	1.290867	-0.123056	-0.051105
H65	H	1.290921	-0.123061	0.051048
H66	H	1.331632	-0.188270	-0.000034
H67	H	0.878886	0.181437	0.416400
H68	H	1.084664	0.009211	0.583666
H69	H	0.542027	0.211890	0.000016
H70	H	0.384719	0.209567	0.000024
C71	C	1.134560	-0.720063	-0.000167
C72	C	1.138274	-0.762330	-0.075534
C73	C	1.213390	-0.807121	-0.075734
H74	H	1.137287	-0.748897	0.050841
H75	H	1.180272	-0.692937	-0.000202
H76	H	1.092575	-0.789454	-0.075491
H77	H	1.135561	-0.733516	-0.126554
H78	H	1.259102	-0.779995	-0.075769
H79	H	1.216110	-0.835949	-0.024722
H80	H	1.215923	-0.835799	-0.126873
C81	C	0.826364	-0.241298	-0.000101
C82	C	0.821219	-0.282625	-0.075440
C83	C	0.744869	-0.310807	-0.075600
H84	H	0.781729	-0.204287	-0.000151
H85	H	0.822704	-0.269407	0.050945
H86	H	0.824871	-0.254518	-0.126472
H87	H	0.865836	-0.319647	-0.075406
H88	H	0.741209	-0.338916	-0.024554
H89	H	0.700241	-0.273792	-0.075647
H90	H	0.741372	-0.338855	-0.126712
C91	C	0.412678	-0.038749	0.000097
C92	C	0.478096	-0.093619	0.000127
C93	C	0.445064	-0.157953	0.000180
H94	H	0.379288	-0.041989	-0.050964
H95	H	0.379294	-0.041936	0.051189
H96	H	0.511466	-0.090434	-0.050959
H97	H	0.511491	-0.090402	0.051184
H98	H	0.411680	-0.161139	0.051272
H99	H	0.411674	-0.161185	-0.050882
H100	H	0.489444	-0.195189	0.000209
C101	C	0.828879	-0.089426	0.000087
C102	C	0.761687	-0.129596	0.000097
C103	C	0.686449	-0.084965	0.000149
H104	H	0.826113	-0.060643	-0.050968
H105	H	0.826179	-0.060691	0.051185
H106	H	0.764386	-0.158318	-0.050995
H107	H	0.764425	-0.158376	0.051148
H108	H	0.683749	-0.056230	0.051246
H109	H	0.683692	-0.056185	-0.050907
H110	H	0.640851	-0.112214	0.000164
C111	C	1.137276	-0.568174	-0.000148
C112	C	1.182668	-0.590890	-0.075512
C113	C	1.259111	-0.562855	-0.075714
H114	H	1.168303	-0.583525	0.050863
H115	H	1.127311	-0.518390	-0.000190
H116	H	1.192636	-0.640663	-0.075462
H117	H	1.151666	-0.575539	-0.126535
H118	H	1.249145	-0.513071	-0.075755
H119	H	1.290130	-0.578208	-0.024700
H120	H	1.289915	-0.578258	-0.126851
C121	C	0.818591	-0.685366	0.000032
C122	C	0.833549	-0.758722	0.000047
C123	C	0.757224	-0.786945	0.000084
H124	H	0.787610	-0.670071	-0.051029
H125	H	0.787655	-0.670054	0.051124
H126	H	0.864472	-0.774028	-0.051039
H127	H	0.864518	-0.774037	0.051104
H128	H	0.726287	-0.771632	0.051175
H129	H	0.726248	-0.771644	-0.050978
H130	H	0.767362	-0.836719	0.000102
H131	H	0.841570	-0.545497	0.000008
