data_functionalizedCrystal
_audit_creation_method	'MofGen! by Chris Wilmer'
_symmetry_space_group_name_H-M	'P1'
_symmetry_Int_Tables_number	1
_symmetry_cell_setting	triclinic
loop_
_symmetry_equiv_pos_as_xyz
  x,y,z
_cell_length_a	19.121063
_cell_length_b	18.215407
_cell_length_c	18.215399
_cell_angle_alpha	89.983140
_cell_angle_beta	87.590157
_cell_angle_gamma	87.534992
loop_
_atom_site_label
_atom_site_type_symbol
_atom_site_fract_x
_atom_site_fract_y
_atom_site_fract_z
Zn1	Zn	-0.279693	-1.112556	0.428542
Zn2	Zn	0.220307	-0.612556	0.928542
Zn3	Zn	-0.397148	-1.107208	0.310718
Zn4	Zn	0.102852	-0.607208	0.810718
Zn5	Zn	-0.279707	-0.989488	0.305496
Zn6	Zn	0.220293	-0.489488	0.805496
Zn7	Zn	-0.397100	-0.984200	0.433747
Zn8	Zn	0.102900	-0.484200	0.933747
O9	O	-0.338412	-1.048363	0.369626
O10	O	0.161588	-0.548363	0.869626
O11	O	-0.295288	-1.214830	0.412919
O12	O	0.204712	-0.714830	0.912919
O13	O	-0.381595	-1.091567	0.207042
O14	O	0.118405	-0.591567	0.707042
O15	O	-0.181421	-1.010264	0.317454
O16	O	0.318579	-0.510264	0.817454
O17	O	-0.381581	-1.210901	0.326355
O18	O	0.118419	-0.710901	0.826355
O19	O	-0.181410	-1.100681	0.407856
O20	O	0.318590	-0.600681	0.907856
O21	O	-0.295312	-1.005078	0.203206
O22	O	0.204688	-0.505078	0.703206
O23	O	-0.295265	-0.885803	0.322502
O24	O	0.204735	-0.385803	0.822502
O25	O	-0.381499	-1.001252	0.536040
O26	O	0.118501	-0.501252	1.036040
O27	O	-0.381513	-0.881918	0.416728
O28	O	0.118487	-0.381918	0.916728
O29	O	-0.295241	-1.095554	0.532215
O30	O	0.204759	-0.595554	1.032215
O31	O	-0.495426	-1.086440	0.331402
O32	O	0.004574	-0.586440	0.831402
O33	O	-0.495390	-0.996066	0.421791
O34	O	0.004610	-0.496066	0.921791
C35	C	-0.338386	-0.857158	0.369614
C36	C	0.161614	-0.357158	0.869614
C37	C	-0.338392	-0.775359	0.369626
C38	C	0.161608	-0.275359	0.869626
C39	C	-0.520892	-1.040119	0.377744
C40	C	-0.020892	-0.540119	0.877744
C41	C	-0.598958	-1.036660	0.381242
C42	C	-0.098958	-0.536660	0.881242
C43	C	-0.383383	-0.508294	0.418628
C44	C	0.116617	-0.008294	0.918628
C45	C	-0.383379	-0.585153	0.418624
C46	C	0.116621	-0.085153	0.918624
C47	C	-0.293434	-0.589173	0.320637
C48	C	0.206566	-0.089173	0.820637
C49	C	-0.293443	-0.512316	0.320638
C50	C	0.206557	-0.012316	0.820638
C51	C	-0.338416	-0.471878	0.369637
C52	C	0.161584	0.028122	0.869637
C53	C	-0.338403	-0.625595	0.369633
C54	C	0.161597	-0.125595	0.869633
C55	C	-0.338398	-0.708928	0.369628
C56	C	0.161602	-0.208928	0.869628
C57	C	-0.338422	-0.388539	0.369641
C58	C	0.161578	0.111461	0.869641
C59	C	-0.635628	-1.082124	0.335864
C60	C	-0.135628	-0.582124	0.835864
C61	C	-0.708979	-1.078874	0.339157
C62	C	-0.208979	-0.578874	0.839157
C63	C	-0.745659	-1.030157	0.387827
C64	C	-0.245659	-0.530157	0.887827
C65	C	-0.708983	-0.984691	0.433210
C66	C	-0.208983	-0.484691	0.933210
C67	C	-0.635633	-0.987945	0.429919
C68	C	-0.135633	-0.487945	0.929919
C69	C	-0.967128	-1.017982	0.400118
C70	C	-0.467128	-0.517982	0.900118
C71	C	-1.040483	-1.014730	0.403404
C72	C	-0.540483	-0.514730	0.903404
C73	C	-1.040474	-1.108915	0.309352
C74	C	-0.540474	-0.608915	0.809352
C75	C	-0.967123	-1.112160	0.306062
C76	C	-0.467123	-0.612160	0.806062
C77	C	-0.930454	-1.066697	0.351449
C78	C	-0.430454	-0.566697	0.851449
C79	C	-0.820635	-1.026833	0.391193
C80	C	-0.320635	-0.526833	0.891193
C81	C	-0.855478	-1.070026	0.348085
C82	C	-0.355478	-0.570026	0.848085
C83	C	-0.155219	-1.056659	0.361492
C84	C	0.344781	-0.556659	0.861492
C85	C	-0.077153	-1.060194	0.358026
C86	C	0.422847	-0.560194	0.858026
C87	C	-0.338363	-1.048410	0.561577
C88	C	0.161637	-0.548410	1.061577
C89	C	-0.338343	-1.048430	0.643375
C90	C	0.161657	-0.548430	1.143375
C91	C	-0.338433	-0.240315	0.369639
C92	C	0.161567	0.259685	0.869639
C93	C	-0.338427	-0.322114	0.369644
C94	C	0.161573	0.177886	0.869644
C95	C	-0.338409	-1.048361	0.178420
C96	C	0.161591	-0.548361	0.678420
C97	C	-0.338232	-1.048492	0.096613
C98	C	0.161768	-0.548492	0.596613
C99	C	-0.293386	-1.097552	0.829577
C100	C	0.206614	-0.597552	1.329577
C101	C	-0.293366	-1.097562	0.906435
C102	C	0.206634	-0.597562	1.406435
C103	C	-0.383191	-0.999365	0.910406
C104	C	0.116809	-0.499365	1.410406
C105	C	-0.383207	-0.999352	0.833549
C106	C	0.116793	-0.499352	1.333549
C107	C	-0.338306	-1.048450	0.793137
C108	C	0.161694	-0.548450	1.293137
C109	C	-0.338269	-1.048472	0.946851
C110	C	0.161731	-0.548472	1.446851
C111	C	-0.338247	-1.048482	1.030184
C112	C	0.161753	-0.548482	1.530184
C113	C	-0.338327	-1.048439	0.709799
C114	C	0.161673	-0.548439	1.209799
H115	H	-0.420003	-0.475372	0.458526
H116	H	0.079997	0.024628	0.958526
H117	H	-0.605769	-1.121791	0.296229
H118	H	-0.105769	-0.621791	0.796229
H119	H	-0.419996	-0.614799	0.458516
H120	H	0.080004	-0.114799	0.958516
N121	N	-0.748532	-1.127906	0.290210
N122	N	-0.248532	-0.627906	0.790210
H123	H	-0.778917	-1.160650	0.321509
H124	H	-0.278917	-0.660650	0.821509
H125	H	-0.714121	-1.159211	0.258884
H126	H	-0.214121	-0.659211	0.758884
N127	N	-0.244962	-1.150507	0.785987
N128	N	0.255038	-0.650507	1.285987
H129	H	-0.212419	-1.122073	0.752645
H130	H	0.287581	-0.622073	1.252645
H131	H	-0.273574	-1.183299	0.755421
H132	H	0.226426	-0.683299	1.255421
H133	H	-0.419749	-0.959393	0.943319
H134	H	0.080251	-0.459393	1.443319
N135	N	-0.244925	-0.632795	0.267800
N136	N	0.255075	-0.132795	0.767800
H137	H	-0.194758	-0.621679	0.277082
H138	H	0.305242	-0.121679	0.777082
H139	H	-0.255832	-0.618900	0.215704
H140	H	0.244168	-0.118900	0.715704
N141	N	-0.431665	-0.946393	0.794242
N142	N	0.068335	-0.446393	1.294242
H143	H	-0.424859	-0.953835	0.739422
H144	H	0.075141	-0.453835	1.239422
H145	H	-0.420726	-0.894330	0.807183
H146	H	0.079274	-0.394330	1.307183
N147	N	-0.244945	-0.473032	0.267792
N148	N	0.255055	0.026968	0.767792
H149	H	-0.216450	-0.510310	0.236754
H150	H	0.283550	-0.010310	0.736754
H151	H	-0.212481	-0.442611	0.296357
H152	H	0.287519	0.057389	0.796357
H153	H	-0.937260	-1.151830	0.266432
H154	H	-0.437260	-0.651830	0.766432
H155	H	-1.070338	-1.145929	0.272402
H156	H	-0.570338	-0.645929	0.772402
N157	N	-1.080047	-0.962182	0.455899
N158	N	-0.580047	-0.462182	0.955899
H159	H	-1.045687	-0.933876	0.484153
H160	H	-0.545687	-0.433876	0.984153
H161	H	-1.110439	-0.990775	0.491340
H162	H	-0.610439	-0.490775	0.991340
N163	N	-0.927583	-0.968943	0.449062
N164	N	-0.427583	-0.468943	0.949062
H165	H	-0.961951	-0.937584	0.480387
H166	H	-0.461951	-0.437584	0.980387
H167	H	-0.897195	-0.936252	0.417709
H168	H	-0.397195	-0.436252	0.917709
N169	N	-0.748540	-0.932148	0.485707
N170	N	-0.248540	-0.432148	0.985707
H171	H	-0.800572	-0.936982	0.480905
H172	H	-0.300572	-0.436982	0.980905
H173	H	-0.735762	-0.880162	0.473633
H174	H	-0.235762	-0.380162	0.973633
H175	H	-0.256786	-1.137544	0.936100
H176	H	0.243214	-0.637544	1.436100
H177	H	-0.605777	-0.950924	0.466872
H178	H	-0.105777	-0.450924	0.966872
H179	H	-0.825612	-1.109694	0.308462
H180	H	-0.325612	-0.609694	0.808462
H181	H	-0.850508	-0.987166	0.430818
H182	H	-0.350508	-0.487166	0.930818
