data_functionalizedCrystal
_audit_creation_method	'MofGen! by Chris Wilmer'
_symmetry_space_group_name_H-M	'P1'
_symmetry_Int_Tables_number	1
_symmetry_cell_setting	triclinic
loop_
_symmetry_equiv_pos_as_xyz
  x,y,z
_cell_length_a	14.519731
_cell_length_b	14.519731
_cell_length_c	9.730223
_cell_angle_alpha	89.994614
_cell_angle_beta	89.996618
_cell_angle_gamma	83.688853
loop_
_atom_site_label
_atom_site_type_symbol
_atom_site_fract_x
_atom_site_fract_y
_atom_site_fract_z
O1	O	1.223863	0.120983	-0.114296
O2	O	1.723863	0.620983	0.385704
O3	O	0.955390	0.135199	-0.114298
O4	O	1.455390	0.635199	0.385702
O5	O	1.096734	-0.006145	-0.114285
O6	O	1.596734	0.493855	0.385715
O7	O	1.082519	0.262328	-0.114310
O8	O	1.582519	0.762328	0.385690
O9	O	1.096725	-0.006149	0.114295
O10	O	1.596725	0.493851	0.614295
O11	O	0.955381	0.135195	0.114281
O12	O	1.455381	0.635195	0.614281
O13	O	1.223854	0.120979	0.114284
O14	O	1.723854	0.620979	0.614284
Zn15	Zn	1.089616	0.128087	0.150575
Zn16	Zn	1.589616	0.628087	0.650575
Zn17	Zn	1.089628	0.128092	-0.150589
Zn18	Zn	1.589628	0.628092	0.349411
O19	O	1.082509	0.262324	0.114270
O20	O	1.582509	0.762324	0.614270
C21	C	0.921026	0.134531	-0.000009
C22	C	1.421026	0.634531	0.499991
C23	C	0.818645	0.132535	-0.000009
C24	C	1.318645	0.632535	0.499991
C25	C	0.735501	0.130913	-0.000015
C26	C	1.235501	0.630913	0.499985
C27	C	0.631192	0.128887	-0.000015
C28	C	1.131192	0.628887	0.499985
C29	C	0.548053	0.127278	-0.000015
C30	C	1.048053	0.627278	0.499985
C31	C	0.443738	0.125252	-0.000018
C32	C	0.943738	0.625252	0.499982
C33	C	1.096064	-0.040507	0.000006
C34	C	1.596064	0.459493	0.500006
C35	C	1.094068	-0.142887	0.000006
C36	C	1.594068	0.357113	0.500006
C37	C	1.092446	-0.226031	0.000003
C38	C	1.592446	0.273969	0.500003
C39	C	1.090419	-0.330340	-0.000007
C40	C	1.590419	0.169660	0.499993
C41	C	1.088811	-0.413479	-0.000016
C42	C	1.588811	0.086521	0.499984
C43	C	1.086785	-0.517795	-0.000024
C44	C	1.586785	-0.017795	0.499976
C45	C	1.258218	0.121648	-0.000009
C46	C	1.758218	0.621648	0.499991
C47	C	1.360598	0.123644	-0.000017
C48	C	1.860598	0.623644	0.499983
C49	C	1.083180	0.296685	-0.000023
C50	C	1.583180	0.796685	0.499977
C51	C	1.085176	0.399066	-0.000033
C52	C	1.585176	0.899066	0.499967
N53	N	1.089615	0.128083	0.356111
N54	N	1.589615	0.628083	0.856111
N55	N	1.089637	0.128089	-0.356126
N56	N	1.589637	0.628089	0.143874
C57	C	1.152223	0.065522	0.428043
C58	C	1.652223	0.565522	0.928043
C59	C	1.152232	0.065522	0.571926
C60	C	1.652232	0.565522	1.071926
C61	C	1.027021	0.190653	0.571932
C62	C	1.527021	0.690653	1.071932
C63	C	1.027009	0.190647	0.428052
C64	C	1.527009	0.690647	0.928052
H65	H	1.203213	0.014578	0.630489
H66	H	1.703213	0.514578	1.130489
N67	N	1.219734	-0.001978	0.350469
N68	N	1.719734	0.498022	0.850469
H69	H	1.184415	-0.042894	0.290801
H70	H	1.684415	0.457106	0.790801
H71	H	1.260613	0.033406	0.290825
H72	H	1.760613	0.533406	0.790825
N73	N	0.959483	0.258128	0.350448
N74	N	1.459483	0.758128	0.850448
H75	H	0.918593	0.222784	0.290776
H76	H	1.418593	0.722784	0.790776
H77	H	0.919890	0.297754	0.417933
H78	H	1.419890	0.797754	0.917933
H79	H	0.976050	0.241592	0.630521
H80	H	1.476050	0.741592	1.130521
