data_functionalizedCrystal
_audit_creation_method	'MofGen! by Chris Wilmer'
_symmetry_space_group_name_H-M	'P1'
_symmetry_Int_Tables_number	1
_symmetry_cell_setting	triclinic
loop_
_symmetry_equiv_pos_as_xyz
  x,y,z
_cell_length_a	8.559649
_cell_length_b	7.088929
_cell_length_c	8.559649
_cell_angle_alpha	84.655815
_cell_angle_beta	110.221336
_cell_angle_gamma	84.674985
loop_
_atom_site_label
_atom_site_type_symbol
_atom_site_fract_x
_atom_site_fract_y
_atom_site_fract_z
O1	O	-2.108185	-0.158958	-0.036318
O2	O	-1.608185	0.341042	0.463682
O3	O	-1.632699	-0.158965	0.047464
O4	O	-1.132699	0.341035	0.547464
O5	O	-1.912333	-0.158959	-0.232170
O6	O	-1.412333	0.341041	0.267830
O7	O	-1.828551	-0.158964	0.243315
O8	O	-1.328551	0.341036	0.743315
O9	O	-1.949712	0.159017	-0.269616
O10	O	-1.449712	0.659017	0.230384
O11	O	-1.670079	0.159011	0.010018
O12	O	-1.170079	0.659011	0.510018
O13	O	-2.145564	0.159018	-0.073764
O14	O	-1.645564	0.659018	0.426236
Cu15	Cu	-1.911235	0.188048	-0.035292
Cu16	Cu	-1.411235	0.688048	0.464708
Cu17	Cu	-1.867029	-0.187995	0.008992
Cu18	Cu	-1.367029	0.312005	0.508992
O19	O	-1.865931	0.159012	0.205870
O20	O	-1.365931	0.659012	0.705870
C21	C	-1.591080	0.000022	0.035090
C22	C	-1.091080	0.500022	0.535090
C23	C	-1.411380	0.000019	0.053990
C24	C	-0.911380	0.500019	0.553990
N25	N	-1.942338	0.452537	-0.066441
N26	N	-1.442338	0.952537	0.433559
C27	C	-1.937372	0.000026	-0.311201
C28	C	-1.437372	0.500026	0.188799
C29	C	-1.956269	0.000015	-0.490899
C30	C	-1.456269	0.500015	0.009101
C31	C	-2.187183	0.000027	-0.061390
C32	C	-1.687183	0.500027	0.438610
C33	C	-2.366881	0.000017	-0.080288
C34	C	-1.866881	0.500017	0.419712
N35	N	-1.835940	-0.452484	0.040127
N36	N	-1.335940	0.047516	0.540127
C37	C	-1.840892	0.000023	0.284902
C38	C	-1.340892	0.500023	0.784902
C39	C	-1.821992	0.000021	0.464601
C40	C	-1.321992	0.500021	0.964601
H41	H	-1.466259	0.000009	-0.209706
H42	H	-0.966259	0.500009	0.290294
H43	H	-2.052625	0.534195	-0.176874
H44	H	-1.552625	1.034195	0.323126
H45	H	-1.725671	0.465867	0.150562
H46	H	-1.225671	0.965867	0.650562
H47	H	-1.311991	0.000007	0.183419
H48	H	-0.811991	0.500007	0.683419
C49	C	-1.647149	0.000010	-0.401161
C50	C	-1.147149	0.500010	0.098839
H51	H	-1.565444	0.000029	-0.453174
H52	H	-1.065444	0.500029	0.046826
H53	H	-1.621027	-0.110878	-0.320695
H54	H	-1.121027	0.389122	0.179305
H55	H	-1.647102	0.110907	-0.346810
H56	H	-1.147102	0.610907	0.153190
C57	C	-2.131117	0.000016	-0.625151
C58	C	-1.631117	0.500016	-0.125151
H59	H	-2.121315	0.000011	-0.732371
H60	H	-1.621315	0.500011	-0.232371
H61	H	-2.202992	0.110893	-0.626014
H62	H	-1.702992	0.610893	-0.126014
H63	H	-2.176900	-0.110891	-0.599902
H64	H	-1.676900	0.389109	-0.099902
