data_functionalizedCrystal
_audit_creation_method	'MofGen! by Chris Wilmer'
_symmetry_space_group_name_H-M	'P1'
_symmetry_Int_Tables_number	1
_symmetry_cell_setting	triclinic
loop_
_symmetry_equiv_pos_as_xyz
  x,y,z
_cell_length_a	6.817900
_cell_length_b	10.992723
_cell_length_c	10.992410
_cell_angle_alpha	91.830958
_cell_angle_beta	108.764651
_cell_angle_gamma	108.770285
loop_
_atom_site_label
_atom_site_type_symbol
_atom_site_fract_x
_atom_site_fract_y
_atom_site_fract_z
V1	V	-4.114281	-0.177763	-0.400582
O2	O	-4.072374	0.008542	-0.392968
O3	O	-4.091893	-0.352473	-0.397831
O4	O	-4.091873	-0.175028	-0.575295
O5	O	-4.072394	-0.170131	-0.214276
V6	V	-4.591171	-0.155478	-0.378300
O7	O	-4.390091	-0.226645	-0.449460
O8	O	-4.765559	-0.106596	-0.329421
O9	O	-4.390353	0.019232	-0.381050
O10	O	-4.750475	-0.341783	-0.385913
O11	O	-4.750455	-0.163110	-0.564605
O12	O	-4.390373	-0.158213	-0.203587
C13	C	-3.942380	-0.395064	-0.391509
C14	C	-4.005535	-0.537892	-0.390424
C15	C	-4.317466	-0.748833	-0.396136
C16	C	-4.252189	-0.600354	-0.397761
C17	C	-3.982608	-0.607105	-0.509425
C18	C	-4.049772	-0.755778	-0.508444
C19	C	-3.918395	-0.717504	-0.262824
C20	C	-3.856042	-0.568782	-0.262474
C21	C	-3.942354	-0.168714	-0.617879
C22	C	-4.005488	-0.167634	-0.760708
C23	C	-3.872609	-0.157797	-0.955832
C24	C	-3.807059	-0.159452	-0.807348
C25	C	-4.203527	-0.294316	-0.837804
C26	C	-4.267841	-0.293195	-0.986371
C27	C	-4.145561	-0.047894	-0.948354
C28	C	-4.074852	-0.047293	-0.799341
C29	C	-4.203208	0.061816	-0.387369
C30	C	-4.119293	0.204643	-0.388462
C31	C	-4.203234	-0.164532	-0.160995
C32	C	-4.119337	-0.165605	-0.018165
H33	H	-3.873883	-0.522188	-0.174363
C34	C	-4.006503	0.082070	-0.975855
C35	C	-4.006575	0.211127	-0.917139
C36	C	-3.867496	0.341083	-0.944641
C37	C	-3.728346	0.341982	-1.030859
C38	C	-3.728270	0.212920	-1.089580
C39	C	-3.867348	0.082964	-1.062078
H40	H	-4.109586	0.210466	-0.853311
H41	H	-3.867554	0.436623	-0.901172
H42	H	-3.625392	0.438183	-1.051217
H43	H	-3.625258	0.213581	-1.153408
H44	H	-3.867291	-0.012576	-1.105548
H45	H	-3.905367	-0.786810	-0.508115
H46	H	-4.191229	-0.807600	-0.603052
H47	H	-4.216965	-0.045806	-0.766830
H48	H	-4.277091	-0.553204	-0.312705
H49	H	-3.931581	0.046420	-0.746989
H50	H	-4.324546	-0.052498	-0.989195
H51	H	-3.673420	-0.524703	-0.249649
H52	H	-4.369438	-0.581708	-0.489581
H53	H	-3.847687	-0.242373	-1.003819
C54	C	-4.513715	-0.308087	-1.043984
C55	C	-4.581051	-0.201233	-1.114760
C56	C	-4.826925	-0.216143	-1.172374
C57	C	-5.005463	-0.337907	-1.159213
C58	C	-4.938132	-0.444769	-1.088434
C59	C	-4.692258	-0.429859	-1.030820
H60	H	-4.448882	-0.111089	-1.124506
H61	H	-4.876767	-0.137036	-1.224770
H62	H	-5.187473	-0.348944	-1.201862
H63	H	-5.070300	-0.534913	-1.078688
H64	H	-4.642416	-0.508966	-0.978425
H65	H	-3.658587	-0.068363	-0.754014
H66	H	-4.090296	-0.586919	-0.604107
H67	H	-3.749895	-0.245203	-0.782528
C68	C	-4.406684	-0.308598	-0.798893
C69	C	-4.625534	-0.313470	-0.902062
C70	C	-4.828687	-0.327749	-0.863148
C71	C	-4.812989	-0.337157	-0.721064
C72	C	-4.594129	-0.332286	-0.617886
C73	C	-4.390977	-0.318007	-0.656800
H74	H	-4.637163	-0.306505	-1.007249
H75	H	-4.990701	-0.331355	-0.939528
H76	H	-4.963374	-0.347728	-0.692258
H77	H	-4.582501	-0.339251	-0.512699
H78	H	-4.228963	-0.314401	-0.580420
H79	H	-4.157782	-0.383663	-0.812193
H80	H	-3.805731	-0.566667	-0.508578
C81	C	-3.717418	-0.756949	-0.253611
C82	C	-3.733328	-0.899267	-0.245985
C83	C	-3.532371	-0.938723	-0.236781
C84	C	-3.315504	-0.835860	-0.235203
C85	C	-3.299585	-0.693532	-0.242831
C86	C	-3.500542	-0.654076	-0.252034
H87	H	-3.893874	-0.975421	-0.247152
H88	H	-3.544157	-1.044085	-0.231134
H89	H	-3.166743	-0.865068	-0.228390
H90	H	-3.139039	-0.617379	-0.241663
H91	H	-3.488757	-0.548715	-0.257681
H92	H	-4.375016	-0.774000	-0.310573
H93	H	-4.466284	-0.802970	-0.486778
H94	H	-4.252295	-0.382324	-1.032635
H95	H	-3.755388	-0.066081	-0.974667
H96	H	-3.957867	-0.742960	-0.171595
