data_functionalizedCrystal
_audit_creation_method	'MofGen! by Chris Wilmer'
_symmetry_space_group_name_H-M	'P1'
_symmetry_Int_Tables_number	1
_symmetry_cell_setting	triclinic
loop_
_symmetry_equiv_pos_as_xyz
  x,y,z
_cell_length_a	14.971486
_cell_length_b	9.065218
_cell_length_c	14.048226
_cell_angle_alpha	89.995444
_cell_angle_beta	89.998499
_cell_angle_gamma	84.315007
loop_
_atom_site_label
_atom_site_type_symbol
_atom_site_fract_x
_atom_site_fract_y
_atom_site_fract_z
O1	O	1.188380	0.192261	-0.079047
O2	O	0.928151	0.215285	-0.079073
O3	O	1.063645	-0.010979	-0.079057
O4	O	1.052887	0.418524	-0.079062
O5	O	1.063628	-0.010992	0.079264
O6	O	0.928135	0.215271	0.079249
O7	O	1.188363	0.192248	0.079274
Zn8	Zn	1.058246	0.203758	0.104398
Zn9	Zn	1.058268	0.203775	-0.104197
O10	O	1.052870	0.418511	0.079259
C11	C	0.894811	0.214248	0.000085
C12	C	0.795491	0.211163	0.000075
C13	C	0.739256	0.344086	0.000075
C14	C	0.645935	0.341178	0.000089
C15	C	0.608850	0.205345	0.000097
C16	C	0.665092	0.072412	0.000100
C17	C	0.758411	0.075321	0.000092
C18	C	0.470584	0.066357	0.000113
C19	C	0.377259	0.063446	0.000118
C20	C	0.358108	0.332214	0.000110
C21	C	0.451427	0.335123	0.000102
C22	C	0.507663	0.202189	0.000103
C23	C	1.062602	-0.065951	0.000102
C24	C	1.059511	-0.229731	0.000097
C25	C	1.221704	0.193284	0.000115
C26	C	1.321024	0.196370	0.000118
C27	C	1.053912	0.473483	0.000098
C28	C	1.057004	0.637264	0.000097
N29	N	1.058238	0.203745	0.246759
N30	N	1.058284	0.203776	-0.246557
C31	C	1.118254	0.103597	0.296584
C32	C	1.118260	0.103596	0.396242
C33	C	1.058254	0.203751	0.446073
C34	C	0.998231	0.303904	0.396241
C35	C	0.998222	0.303896	0.296585
C36	C	0.998257	0.303915	0.603955
C37	C	0.998268	0.303924	0.703618
C38	C	1.118295	0.103614	0.703612
C39	C	1.118286	0.103607	0.603956
C40	C	1.058264	0.203762	0.554131
H41	H	0.481618	0.445730	0.000087
C42	C	0.932205	0.414065	0.241775
C43	C	0.866230	0.524286	0.296583
C44	C	0.800208	0.634452	0.241775
C45	C	0.800159	0.634397	0.132157
C46	C	0.866136	0.524171	0.077342
C47	C	0.932159	0.414005	0.132151
H48	H	0.866264	0.524331	0.377734
H49	H	0.751367	0.716048	0.282353
H50	H	0.751286	0.715949	0.091585
H51	H	0.866103	0.524127	-0.003809
H52	H	0.980999	0.332409	0.091573
C53	C	0.336457	-0.085964	0.000144
C54	C	0.357181	-0.196407	0.082374
C55	C	0.316377	-0.345817	0.082403
C56	C	0.254849	-0.384783	0.000204
C57	C	0.234122	-0.274337	-0.082032
C58	C	0.274926	-0.124927	-0.082062
H59	H	0.402731	-0.167565	0.143228
H60	H	0.331721	-0.427576	0.143280
H61	H	0.224643	-0.495384	0.000226
H62	H	0.188572	-0.303179	-0.142887
H63	H	0.259582	-0.043168	-0.142939
H64	H	0.312316	0.440454	0.000113
C65	C	0.932254	0.414088	0.758429
C66	C	0.863400	0.356244	0.826959
C67	C	0.797383	0.466410	0.881768
C68	C	0.800221	0.634419	0.868048
C69	C	0.869078	0.692272	0.799515
C70	C	0.935094	0.582106	0.744706
H71	H	0.861297	0.231866	0.837118
H72	H	0.746411	0.423583	0.932500
H73	H	0.751352	0.715971	0.908621
H74	H	0.871181	0.816650	0.789356
H75	H	0.986066	0.624933	0.693974
C76	C	0.820274	-0.070896	0.000090
C77	C	0.815347	-0.182164	0.082306
C78	C	0.877209	-0.328385	0.082309
C79	C	0.943999	-0.363339	0.000097
C80	C	0.948929	-0.252069	-0.082125
C81	C	0.887066	-0.105848	-0.082128
H82	H	0.765903	-0.156291	0.143170
H83	H	0.873559	-0.410755	0.143176
H84	H	0.989793	-0.471581	0.000100
H85	H	0.998373	-0.277942	-0.142989
H86	H	0.890716	-0.023478	-0.142995
C87	C	1.184292	-0.006560	0.549136
C88	C	1.181439	-0.174569	0.562844
C89	C	1.247443	-0.284739	0.508023
C90	C	1.316300	-0.226900	0.439495
C91	C	1.319155	-0.058883	0.425785
C92	C	1.253151	0.051287	0.480605
H93	H	1.130464	-0.217393	0.613575
H94	H	1.245329	-0.409117	0.518172
H95	H	1.365160	-0.308455	0.398913
H96	H	1.370130	-0.016059	0.375053
H97	H	1.255265	0.175665	0.470456
H98	H	0.769442	0.454697	0.000068
H99	H	1.167121	0.022045	0.256018
H100	H	0.634890	-0.038186	0.000119
H101	H	1.167128	0.022047	0.436808
H102	H	0.600152	0.449418	0.000088
H103	H	0.516370	-0.041893	0.000115
H104	H	1.167166	0.022064	0.744185
H105	H	0.949369	0.385447	0.436819
H106	H	0.949379	0.385467	0.563391
