data_functionalizedCrystal
_audit_creation_method	'MofGen! by Chris Wilmer'
_symmetry_space_group_name_H-M	'P1'
_symmetry_Int_Tables_number	1
_symmetry_cell_setting	triclinic
loop_
_symmetry_equiv_pos_as_xyz
  x,y,z
_cell_length_a	14.519731
_cell_length_b	14.519731
_cell_length_c	12.996460
_cell_angle_alpha	90.007128
_cell_angle_beta	90.006690
_cell_angle_gamma	83.688853
loop_
_atom_site_label
_atom_site_type_symbol
_atom_site_fract_x
_atom_site_fract_y
_atom_site_fract_z
O1	O	-1.223866	-0.120985	-0.085596
O2	O	-0.890533	0.212348	0.247738
O3	O	-0.557199	0.545681	0.581071
O4	O	-0.955393	-0.135201	-0.085592
O5	O	-0.622059	0.198132	0.247741
O6	O	-0.288726	0.531465	0.581074
O7	O	-1.096737	0.006143	-0.085585
O8	O	-0.763404	0.339477	0.247749
O9	O	-0.430071	0.672810	0.581082
O10	O	-1.082521	-0.262330	-0.085603
O11	O	-0.749188	0.071004	0.247730
O12	O	-0.415855	0.404337	0.581063
O13	O	-1.096723	0.006151	0.085549
O14	O	-0.763389	0.339485	0.418882
O15	O	-0.430056	0.672818	0.752216
O16	O	-0.955378	-0.135193	0.085542
O17	O	-0.622045	0.198140	0.418875
O18	O	-0.288711	0.531473	0.752208
O19	O	-1.223851	-0.120977	0.085538
O20	O	-0.890518	0.212356	0.418871
O21	O	-0.557184	0.545689	0.752205
Cu22	Cu	-1.089613	-0.128085	0.101166
Cu23	Cu	-0.756280	0.205249	0.434499
Cu24	Cu	-0.422947	0.538582	0.767832
Cu25	Cu	-1.089631	-0.128094	-0.101220
Cu26	Cu	-0.756297	0.205239	0.232114
Cu27	Cu	-0.422964	0.538573	0.565447
O28	O	-1.082507	-0.262322	0.085531
O29	O	-0.749173	0.071011	0.418864
O30	O	-0.415840	0.404345	0.752197
C31	C	-0.921026	-0.134531	-0.000025
C32	C	-0.587693	0.198802	0.333309
C33	C	-0.254359	0.532136	0.666642
C34	C	-0.818645	-0.132535	-0.000023
C35	C	-0.485312	0.200798	0.333310
C36	C	-0.151979	0.534132	0.666644
C37	C	-0.735501	-0.130913	-0.000026
C38	C	-0.402168	0.202420	0.333308
C39	C	-0.068835	0.535753	0.666641
C40	C	-0.631192	-0.128887	-0.000024
C41	C	-0.297859	0.204447	0.333310
C42	C	0.035474	0.537780	0.666643
C43	C	-0.548053	-0.127278	-0.000022
C44	C	-0.214720	0.206055	0.333311
C45	C	0.118614	0.539388	0.666645
C46	C	-0.443738	-0.125252	-0.000022
C47	C	-0.110404	0.208081	0.333311
C48	C	0.222929	0.541415	0.666645
C49	C	-1.096064	0.040507	-0.000018
C50	C	-0.762730	0.373840	0.333316
C51	C	-0.429397	0.707173	0.666649
C52	C	-1.094068	0.142887	-0.000017
C53	C	-0.760734	0.476220	0.333316
C54	C	-0.427401	0.809554	0.666650
C55	C	-0.258218	-0.121648	-0.000027
C56	C	0.075115	0.211686	0.333307
C57	C	0.408449	0.545019	0.666640
C58	C	-0.360598	-0.123644	-0.000020
C59	C	-0.027265	0.209690	0.333313
C60	C	0.306068	0.543023	0.666647
C61	C	-1.083180	-0.296685	-0.000039
C62	C	-0.749847	0.036648	0.333295
C63	C	-0.416513	0.369981	0.666628
C64	C	-1.085176	-0.399066	-0.000046
C65	C	-0.751843	-0.065732	0.333287
C66	C	-0.418509	0.267601	0.666620
C67	C	-1.092446	0.226031	-0.000019
C68	C	-0.759113	0.559365	0.333314
C69	C	-0.425779	0.892698	0.666647
C70	C	-1.090419	0.330340	-0.000027
C71	C	-0.757086	0.663674	0.333306
C72	C	-0.423753	0.997007	0.666640
C73	C	-1.088811	0.413479	-0.000034
C74	C	-0.755478	0.746813	0.333300
C75	C	-0.422144	1.080146	0.666633
C76	C	-1.086785	0.517795	-0.000040
C77	C	-0.753451	0.851128	0.333294
C78	C	-0.420118	1.184462	0.666627
N79	N	-1.089608	-0.128078	0.243513
N80	N	-0.756274	0.205256	0.576846
N81	N	-0.422941	0.538589	0.910180
N82	N	-1.089644	-0.128094	-0.243567
N83	N	-0.756310	0.205240	0.089766
N84	N	-0.422977	0.538573	0.423100
C85	C	-1.089629	-0.128095	0.663327
C86	C	-0.756296	0.205238	0.996660
C87	C	-0.422963	0.538572	1.329994
C88	C	-1.089621	-0.128093	0.546522
C89	C	-0.756287	0.205240	0.879855
C90	C	-0.422954	0.538573	1.213189
C91	C	-1.089619	-0.128087	0.453424
C92	C	-0.756286	0.205246	0.786757
C93	C	-0.422952	0.538580	1.120090
C94	C	-1.089609	-0.128084	0.336611
C95	C	-0.756276	0.205250	0.669944
C96	C	-0.422943	0.538583	1.003278
