data_functionalizedCrystal
_audit_creation_method	'MofGen! by Chris Wilmer'
_symmetry_space_group_name_H-M	'P1'
_symmetry_Int_Tables_number	1
_symmetry_cell_setting	triclinic
loop_
_symmetry_equiv_pos_as_xyz
  x,y,z
_cell_length_a	6.817900
_cell_length_b	7.190401
_cell_length_c	19.551823
_cell_angle_alpha	88.378517
_cell_angle_beta	101.663376
_cell_angle_gamma	60.610757
loop_
_atom_site_label
_atom_site_type_symbol
_atom_site_fract_x
_atom_site_fract_y
_atom_site_fract_z
V1	V	-4.214373	0.665983	-0.095551
O2	O	-4.207253	0.652279	0.005747
O3	O	-4.156011	0.662415	-0.190572
O4	O	-4.251718	0.955991	-0.093574
O5	O	-4.110883	0.356671	-0.091923
V6	V	-4.688182	0.628867	-0.083494
O7	O	-4.496942	0.747400	-0.121997
O8	O	-4.855810	0.547450	-0.057047
O9	O	-4.523337	0.632435	0.011527
O10	O	-4.812699	0.642571	-0.184792
O11	O	-4.909068	0.938179	-0.087122
O12	O	-4.427630	0.338859	-0.085471
C13	C	-3.995814	0.652164	-0.213752
C14	C	-4.029955	0.651180	-0.291430
C15	C	-4.230913	0.661383	-0.331458
C16	C	-4.263003	0.660480	-0.404446
C17	C	-4.094101	0.649330	-0.437400
C18	C	-3.893121	0.639138	-0.397363
C19	C	-3.861047	0.640063	-0.324378
C20	C	-3.940886	0.514086	-0.544116
C21	C	-3.972959	0.513149	-0.617099
C22	C	-4.193023	0.646487	-0.662511
C23	C	-4.381029	0.780737	-0.634929
C24	C	-4.348956	0.781662	-0.561944
C25	C	-4.128859	0.648327	-0.516540
C26	C	-4.428790	0.655715	-0.781681
C27	C	-4.460880	0.654825	-0.854670
C28	C	-4.090981	0.633461	-0.847585
C29	C	-4.058909	0.634373	-0.774598
C30	C	-4.227816	0.645490	-0.741650
C31	C	-4.231767	1.268194	-0.089028
C32	C	-4.117895	1.026644	-0.090027
C33	C	-4.346874	0.642681	0.034703
C34	C	-4.291976	0.643679	0.112380
H35	H	-4.502037	0.890976	-0.539490
H36	H	-3.761672	0.405513	-0.507147
F37	F	-4.674784	0.665700	-0.897273
H38	H	-4.566323	0.664763	-0.754853
F39	F	-3.647151	0.629201	-0.281775
H40	H	-3.755604	0.630065	-0.424199
F41	F	-4.476901	0.671342	-0.447055
H42	H	-3.953464	0.624396	-0.874416
F43	F	-3.845011	0.623497	-0.731994
F44	F	-4.615253	0.922654	-0.683253
F45	F	-4.410669	0.673189	-0.296395
H46	H	-3.819875	0.403821	-0.639550
