data_functionalizedCrystal
_audit_creation_method	'MofGen! by Chris Wilmer'
_symmetry_space_group_name_H-M	'P1'
_symmetry_Int_Tables_number	1
_symmetry_cell_setting	triclinic
loop_
_symmetry_equiv_pos_as_xyz
  x,y,z
_cell_length_a	22.610064
_cell_length_b	19.288864
_cell_length_c	19.288865
_cell_angle_alpha	83.136245
_cell_angle_beta	89.998829
_cell_angle_gamma	89.977953
loop_
_atom_site_label
_atom_site_type_symbol
_atom_site_fract_x
_atom_site_fract_y
_atom_site_fract_z
O1	O	0.049381	-0.921353	-0.086638
O2	O	0.049341	-0.719093	-0.098327
O3	O	0.049351	-0.826067	0.008648
O4	O	0.049372	-0.814378	-0.193613
O5	O	-0.049019	-0.826048	0.008632
O6	O	-0.049028	-0.719074	-0.098343
O7	O	-0.048988	-0.921334	-0.086654
Zn8	Zn	-0.064626	-0.820201	-0.092501
Zn9	Zn	0.064979	-0.820226	-0.092480
O10	O	-0.048997	-0.814360	-0.193628
C11	C	0.000152	-0.693207	-0.097959
C12	C	0.000136	-0.616103	-0.096830
N13	N	-0.153079	-0.820189	-0.092514
C14	C	0.000164	-0.825682	0.034516
C15	C	0.000159	-0.824553	0.111620
C16	C	-0.561716	-0.867596	-0.045119
C17	C	-0.623636	-0.867600	-0.045114
O18	O	-0.655651	-0.907878	-0.004827
N19	N	-0.654616	-0.820225	-0.092466
C20	C	-0.623673	-0.772839	-0.139821
O21	O	-0.655709	-0.732544	-0.180096
C22	C	-0.561754	-0.772833	-0.139822
C23	C	-0.530777	-0.820215	-0.092472
C24	C	-0.530739	-0.914974	0.002228
C25	C	-0.468824	-0.914971	0.002222
C26	C	-0.437885	-0.867591	-0.045131
C27	C	-0.468861	-0.820213	-0.092478
C28	C	-0.530812	-0.725444	-0.187173
C29	C	-0.468889	-0.725442	-0.187170
C30	C	-0.437912	-0.772824	-0.139820
C31	C	-0.376007	-0.772829	-0.139837
N32	N	-0.345027	-0.820203	-0.092485
C33	C	-0.375966	-0.867584	-0.045132
C34	C	-0.753706	-0.772855	-0.139814
C35	C	-0.815624	-0.772865	-0.139817
C36	C	-0.815583	-0.867624	-0.045109
C37	C	-0.753664	-0.867618	-0.045110
C38	C	-0.722726	-0.820230	-0.092462
C39	C	-0.245939	-0.867575	-0.045149
C40	C	-0.184018	-0.867570	-0.045161
C41	C	-0.184064	-0.772808	-0.139867
C42	C	-0.245980	-0.772815	-0.139857
C43	C	-0.276915	-0.820201	-0.092493
O44	O	-0.343952	-0.732570	-0.180101
O45	O	-0.343922	-0.907867	-0.004857
N46	N	0.153432	-0.820243	-0.092461
C47	C	0.000203	-0.947220	-0.087022
C48	C	0.000222	-1.024324	-0.088151
C49	C	0.000152	-0.571407	-0.159598
C50	C	0.000158	-0.498960	-0.158537
C51	C	0.000161	-0.471212	-0.094705
C52	C	0.000142	-0.515918	-0.031929
C53	C	0.000129	-0.588364	-0.032991
C54	C	0.034638	-0.362957	-0.044520
C55	C	0.034654	-0.290512	-0.043460
C56	C	0.000196	-0.247767	-0.091425
C57	C	-0.034270	-0.277473	-0.140462
C58	C	-0.034283	-0.349918	-0.141524
C59	C	0.000174	-0.392658	-0.093546
C60	C	0.000218	-0.124514	-0.153047
C61	C	0.000221	-0.052066	-0.151984
C62	C	0.000210	-0.069026	-0.025374
C63	C	0.000201	-0.141473	-0.026439
C64	C	0.000208	-0.169212	-0.090277
C65	C	0.000190	-0.814745	-0.219497
C66	C	0.000200	-0.815874	-0.296601
C67	C	0.000168	-0.887321	0.156316
C68	C	0.000177	-0.886260	0.228763
C69	C	0.000165	-0.822428	0.256511
C70	C	0.000159	-0.759652	0.211805
C71	C	0.000156	-0.760714	0.139359
C72	C	-0.034301	-0.772242	0.364793
C73	C	-0.034302	-0.771182	0.437237
C74	C	0.000178	-0.819148	0.479956
C75	C	0.034650	-0.868186	0.450224
C76	C	0.034647	-0.869249	0.377778
C77	C	0.000169	-0.821269	0.335065
C78	C	0.000198	-0.880770	0.603209
C79	C	0.000211	-0.879707	0.675657
C80	C	0.000187	-0.753097	0.658697
C81	C	0.000180	-0.754162	0.586250
C82	C	0.000183	-0.818001	0.558511
H83	H	-0.158798	-0.906157	-0.006603
H84	H	0.062727	-0.907245	0.485005
H85	H	0.000230	-0.015674	-0.203099
C86	C	0.000212	-0.038508	0.044843
N87	N	0.000212	-0.015519	0.097732
C88	C	0.000191	-0.190641	0.042612
N89	N	0.000182	-0.227675	0.094624
C90	C	0.072564	-0.257843	0.010484
N91	N	0.101116	-0.233239	0.051120
C92	C	-0.072237	-0.719474	0.317808
N93	N	-0.100810	-0.679731	0.282421
H94	H	0.000170	-0.462561	-0.209652
H95	H	-0.062349	-0.374102	-0.181449
C96	C	-0.564762	-0.967097	0.054330
N97	N	-0.590384	-1.006360	0.093575
C98	C	0.000142	-0.689436	0.242328
N99	N	0.000129	-0.636547	0.265319
H100	H	-0.062330	-0.242670	-0.179519
H101	H	0.062702	-0.397755	-0.005460
C102	C	0.000218	-0.155030	-0.223270
N103	N	0.000217	-0.178012	-0.276163
H104	H	0.000152	-0.493322	0.020044
H105	H	-0.556024	-0.686861	-0.225730
C106	C	-0.434861	-0.673317	-0.239270
N107	N	-0.409233	-0.634060	-0.278516
C108	C	-0.849691	-0.720745	-0.191910
N109	N	-0.875349	-0.681483	-0.231146
C110	C	-0.279959	-0.919704	0.006953
N111	N	-0.305583	-0.958971	0.046193
C112	C	0.000184	-0.955312	0.277938
N113	N	0.000187	-1.007323	0.314975
H114	H	0.000117	-0.624756	0.018124
H115	H	0.000172	-0.939303	0.133736
H116	H	0.062716	-0.909176	0.353573
C117	C	-0.434757	-0.967089	0.054319
N118	N	-0.409102	-1.006344	0.093564
C119	C	-0.719680	-0.720753	-0.191941
N120	N	-0.694055	-0.681519	-0.231212
C121	C	0.000210	-0.950993	0.572693
N122	N	0.000221	-1.003886	0.549711
H123	H	0.000222	-0.930822	0.712049
C124	C	0.000175	-0.682880	0.689215
N125	N	0.000168	-0.629991	0.712204
H126	H	0.000169	-0.703049	0.549857
C127	C	-0.072222	-0.717239	0.469936
N128	N	-0.100783	-0.676607	0.494563
H129	H	-0.728446	-0.906200	-0.006553
H130	H	0.000148	-0.709599	0.102967
H131	H	-0.158864	-0.734233	-0.178423
C132	C	-0.849628	-0.919740	0.006986
N133	N	-0.875272	-0.958990	0.046221
H134	H	-0.271201	-0.734239	-0.178421
H135	H	0.000159	-0.593987	-0.211580
