data_functionalizedCrystal
_audit_creation_method	'MofGen! by Chris Wilmer'
_symmetry_space_group_name_H-M	'P1'
_symmetry_Int_Tables_number	1
_symmetry_cell_setting	triclinic
loop_
_symmetry_equiv_pos_as_xyz
  x,y,z
_cell_length_a	13.032831
_cell_length_b	13.032721
_cell_length_c	19.076919
_cell_angle_alpha	99.138159
_cell_angle_beta	85.386187
_cell_angle_gamma	90.902885
loop_
_atom_site_label
_atom_site_type_symbol
_atom_site_fract_x
_atom_site_fract_y
_atom_site_fract_z
Zn1	Zn	1.481895	-0.639106	-0.579128
Zn2	Zn	1.981895	-0.139106	-0.079128
Zn3	Zn	1.466872	-0.805708	-0.474399
Zn4	Zn	1.966872	-0.305708	0.025601
Zn5	Zn	1.318790	-0.610392	-0.445065
Zn6	Zn	1.818790	-0.110392	0.054935
Zn7	Zn	1.288292	-0.788961	-0.575375
Zn8	Zn	1.788292	-0.288961	-0.075375
O9	O	1.388962	-0.711042	-0.518492
O10	O	1.888962	-0.211042	-0.018492
O11	O	1.622899	-0.680232	-0.579082
O12	O	2.122899	-0.180232	-0.079082
O13	O	1.453705	-0.774791	-0.372143
O14	O	1.953705	-0.274791	0.127857
O15	O	1.359478	-0.469746	-0.452143
O16	O	1.859478	0.030254	0.047857
O17	O	1.611861	-0.802634	-0.502138
O18	O	2.111861	-0.302634	-0.002138
O19	O	1.479310	-0.490842	-0.550638
O20	O	1.979310	0.009158	-0.050638
O21	O	1.344910	-0.631293	-0.350592
O22	O	1.844910	-0.131293	0.149408
O23	O	1.171748	-0.615053	-0.448504
O24	O	1.671748	-0.115053	0.051496
O25	O	1.307497	-0.774090	-0.674237
O26	O	1.807497	-0.274090	-0.174237
O27	O	1.149341	-0.746247	-0.544242
O28	O	1.649341	-0.246247	-0.044242
O29	O	1.449737	-0.663993	-0.676994
O30	O	1.949737	-0.163993	-0.176994
O31	O	1.424132	-0.947942	-0.498499
O32	O	1.924132	-0.447942	0.001501
O33	O	1.292930	-0.935637	-0.572686
O34	O	1.792930	-0.435637	-0.072686
C35	C	1.123467	-0.675718	-0.492784
C36	C	1.623467	-0.175718	0.007216
C37	C	1.009883	-0.660632	-0.481804
C38	C	1.509883	-0.160632	0.018196
C39	C	0.948176	-0.718915	-0.524222
C40	C	1.448176	-0.218915	-0.024222
C41	C	0.830780	-0.703325	-0.512875
C42	C	1.330780	-0.203325	-0.012875
C43	C	1.353618	-0.979250	-0.538386
C44	C	1.853618	-0.479250	-0.038386
C45	C	1.338589	-1.094004	-0.546929
C46	C	1.838589	-0.594004	-0.046929
C47	C	1.396858	-1.151227	-0.514069
C48	C	1.896858	-0.651227	-0.014069
C49	C	1.381327	-1.269831	-0.522899
C50	C	1.881327	-0.769831	-0.022899
C51	C	1.655494	-0.746504	-0.544300
C52	C	2.155494	-0.246504	-0.044300
C53	C	1.769074	-0.761616	-0.555299
C54	C	2.269074	-0.261616	-0.055299
C55	C	1.376891	-0.720377	-0.701833
C56	C	1.876891	-0.220377	-0.201833
C57	C	1.371747	-0.724355	-0.779963
C58	C	1.871747	-0.224355	-0.279963
C59	C	1.424472	-0.441791	-0.498537
C60	C	1.924472	0.058209	0.001463
C61	C	1.439604	-0.327053	-0.490034
C62	C	1.939604	0.172947	0.009966
C63	C	1.443383	-0.668904	-0.818105
C64	C	1.943383	-0.168904	-0.318105
C65	C	1.438538	-0.672636	-0.891514
C66	C	1.938538	-0.172636	-0.391514
C67	C	1.362060	-0.731825	-0.926781
C68	C	1.862060	-0.231825	-0.426781
C69	C	1.290416	-0.787277	-0.888634
C70	C	1.790416	-0.287277	-0.388634
C71	C	1.295258	-0.783539	-0.815225
C72	C	1.795258	-0.283539	-0.315225
C73	C	1.339634	-0.749148	-1.146175
C74	C	1.839634	-0.249148	-0.646175
C75	C	1.334800	-0.752885	-1.219590
C76	C	1.834800	-0.252885	-0.719590
C77	C	1.482920	-0.638241	-1.222465
C78	C	1.982920	-0.138241	-0.722465
C79	C	1.487759	-0.634513	-1.149055
C80	C	1.987759	-0.134513	-0.649055
C81	C	1.416112	-0.689961	-1.110914
C82	C	1.916112	-0.189961	-0.610914
N83	N	1.357107	-0.735644	-1.001818
N84	N	1.857107	-0.235644	-0.501818
N85	N	1.421061	-0.686135	-1.035877
N86	N	1.921061	-0.186135	-0.535877
C87	C	1.401055	-0.701677	-0.335863
C88	C	1.901055	-0.201677	0.164137
C89	C	1.406436	-0.697434	-0.257732
C90	C	1.906436	-0.197434	0.242268
H91	H	0.982257	-0.780353	-0.568940
H92	H	1.482257	-0.280353	-0.068940
C93	C	0.963846	-0.577625	-0.421394
C94	C	1.463846	-0.077625	0.078606
N95	N	0.929173	-0.515103	-0.375891
N96	N	1.429173	-0.015103	0.124109
C97	C	1.527514	-0.603790	-0.779318
C98	C	2.027514	-0.103790	-0.279318
N99	N	1.590882	-0.554740	-0.750105
N100	N	2.090882	-0.054740	-0.250105
C101	C	1.517345	-0.611638	-0.933467
C102	C	2.017345	-0.111638	-0.433467
N103	N	1.576706	-0.565691	-0.965066
N104	N	2.076706	-0.065691	-0.465066
H105	H	1.500996	-1.288243	-0.455366
H106	H	2.000996	-0.788243	0.044634
C107	C	1.479787	-1.098794	-0.467231
C108	C	1.979787	-0.598794	0.032769
N109	N	1.542250	-1.059303	-0.431950
N110	N	2.042250	-0.559303	0.068050
C111	C	0.784748	-0.620313	-0.452462
C112	C	1.284748	-0.120313	0.047538
N113	N	0.750075	-0.557791	-0.406959
N114	N	1.250075	-0.057791	0.093041
C115	C	0.815104	-0.844628	-0.615713
C116	C	1.315104	-0.344628	-0.115713
N117	N	0.849774	-0.907152	-0.661216
N118	N	1.349774	-0.407152	-0.161216
H119	H	1.236915	-0.828681	-0.784169
H120	H	1.736915	-0.328681	-0.284169
C121	C	1.561715	-0.577239	-1.264425
C122	C	2.061715	-0.077239	-0.764425
N123	N	1.621062	-0.531283	-1.296028
N124	N	2.121062	-0.031283	-0.796028
C125	C	1.298391	-1.322259	-0.569738
C126	C	1.798391	-0.822259	-0.069738
N127	N	1.235924	-1.361749	-0.605015
N128	N	1.735924	-0.861749	-0.105015
C129	C	1.255658	-1.146436	-0.593766
C130	C	1.755658	-0.646436	-0.093766
N131	N	1.193191	-1.185926	-0.629043
N132	N	1.693191	-0.685926	-0.129043
H133	H	1.550038	-0.586318	-1.120347
H134	H	2.050038	-0.086318	-0.620347
H135	H	1.272519	-0.801085	-1.248302
H136	H	1.772519	-0.301085	-0.748302
C137	C	1.206281	-0.852375	-0.927428
C138	C	1.706281	-0.352375	-0.427428
N139	N	1.142908	-0.901407	-0.956647
N140	N	1.642908	-0.401407	-0.456647
C141	C	1.260817	-0.810139	-1.104228
C142	C	1.760817	-0.310139	-0.604228
N143	N	1.201447	-0.856078	-1.072631
N144	N	1.701447	-0.356078	-0.572631
