data_functionalizedCrystal
_audit_creation_method	'MofGen! by Chris Wilmer'
_symmetry_space_group_name_H-M	'P1'
_symmetry_Int_Tables_number	1
_symmetry_cell_setting	triclinic
loop_
_symmetry_equiv_pos_as_xyz
  x,y,z
_cell_length_a	6.817900
_cell_length_b	9.582860
_cell_length_c	14.125286
_cell_angle_alpha	94.009630
_cell_angle_beta	100.396688
_cell_angle_gamma	111.206767
loop_
_atom_site_label
_atom_site_type_symbol
_atom_site_fract_x
_atom_site_fract_y
_atom_site_fract_z
V1	V	-4.031080	-0.205901	-0.299815
V2	V	-3.781080	0.044099	-0.049815
V3	V	-3.531080	0.294099	0.200185
V4	V	-3.281080	0.544099	0.450185
O5	O	-3.977390	0.011084	-0.294289
O6	O	-3.727390	0.261084	-0.044289
O7	O	-3.477390	0.511084	0.205711
O8	O	-3.227390	0.761084	0.455711
O9	O	-4.022116	-0.409410	-0.297590
O10	O	-3.772116	-0.159410	-0.047590
O11	O	-3.522116	0.090590	0.202410
O12	O	-3.272116	0.340590	0.452410
O13	O	-3.966519	-0.202212	-0.430655
O14	O	-3.716519	0.047788	-0.180655
O15	O	-3.466519	0.297788	0.069345
O16	O	-3.216519	0.547788	0.319345
O17	O	-4.033371	-0.197549	-0.160304
O18	O	-3.783371	0.052451	0.089696
O19	O	-3.533371	0.302451	0.339696
O20	O	-3.283371	0.552451	0.589696
V21	V	-4.511692	-0.180009	-0.283150
V22	V	-4.261692	0.069991	-0.033150
V23	V	-4.011692	0.319991	0.216850
V24	V	-3.761692	0.569991	0.466850
O25	O	-4.298724	-0.262697	-0.336372
O26	O	-4.048724	-0.012697	-0.086372
O27	O	-3.798724	0.237303	0.163628
O28	O	-3.548724	0.487303	0.413628
O29	O	-4.694245	-0.123212	-0.246593
O30	O	-4.444245	0.126788	0.003407
O31	O	-4.194245	0.376788	0.253407
O32	O	-3.944245	0.626788	0.503407
O33	O	-4.297449	0.023501	-0.285375
O34	O	-4.047449	0.273501	-0.035375
O35	O	-3.797449	0.523501	0.214625
O36	O	-3.547449	0.773501	0.464625
O37	O	-4.682778	-0.396993	-0.288675
O38	O	-4.432778	-0.146993	-0.038675
O39	O	-4.182778	0.103007	0.211325
O40	O	-3.932778	0.353007	0.461325
O41	O	-4.626797	-0.188360	-0.422661
O42	O	-4.376797	0.061640	-0.172661
O43	O	-4.126797	0.311640	0.077339
O44	O	-3.876797	0.561640	0.327339
O45	O	-4.353046	-0.183697	-0.152310
O46	O	-4.103046	0.066303	0.097690
O47	O	-3.853046	0.316303	0.347690
O48	O	-3.603046	0.566303	0.597690
C49	C	-3.877233	-0.459038	-0.292815
C50	C	-3.627233	-0.209038	-0.042815
C51	C	-3.377233	0.040962	0.207185
C52	C	-3.127233	0.290962	0.457185
C53	C	-3.951083	-0.625406	-0.291868
C54	C	-3.701083	-0.375406	-0.041868
C55	C	-3.451083	-0.125406	0.208132
C56	C	-3.201083	0.124594	0.458132
C57	C	-3.806313	-0.194734	-0.462551
C58	C	-3.556313	0.055266	-0.212551
C59	C	-3.306313	0.305266	0.037449
C60	C	-3.056313	0.555266	0.287449
C61	C	-3.835072	-0.193064	-0.569512
C62	C	-3.585072	0.056936	-0.319512
C63	C	-3.335072	0.306936	-0.069512
C64	C	-3.085072	0.556936	0.180488
C65	C	-4.074429	-0.196097	-0.817631
C66	C	-3.824429	0.053903	-0.567631
C67	C	-3.574429	0.303903	-0.317631
C68	C	-3.324429	0.553903	-0.067631
C69	C	-3.887723	-0.189810	-0.765322
C70	C	-3.637723	0.060190	-0.515322
C71	C	-3.387723	0.310190	-0.265322
C72	C	-3.137723	0.560190	-0.015322
C73	C	-3.858429	-0.191621	-0.656363
C74	C	-3.608429	0.058379	-0.406363
C75	C	-3.358429	0.308379	-0.156363
C76	C	-3.108429	0.558379	0.093637
C77	C	-4.103731	-0.194286	-0.926600
C78	C	-3.853731	0.055714	-0.676600
C79	C	-3.603731	0.305714	-0.426600
C80	C	-3.353731	0.555714	-0.176600
C81	C	-4.105676	0.073121	-0.290147
C82	C	-3.855676	0.323121	-0.040147
C83	C	-3.605676	0.573121	0.209853
C84	C	-3.355676	0.823121	0.459853
C85	C	-4.011063	0.239487	-0.291100
C86	C	-3.761063	0.489487	-0.041100
C87	C	-3.511063	0.739487	0.208900
C88	C	-3.261063	0.989487	0.458900
C89	C	-4.176596	-0.191180	-0.120409
C90	C	-3.926596	0.058820	0.129591
C91	C	-3.676596	0.308820	0.379591
C92	C	-3.426596	0.558820	0.629591
C93	C	-4.127074	-0.192842	-0.013447
C94	C	-3.877074	0.057158	0.236553
C95	C	-3.627074	0.307158	0.486553
C96	C	-3.377074	0.557158	0.736553
H97	H	-3.749878	-0.183063	-0.802369
H98	H	-3.499878	0.066937	-0.552369
H99	H	-3.249878	0.316937	-0.302369
H100	H	-2.999878	0.566937	-0.052369
H101	H	-4.212261	-0.202841	-0.780586
H102	H	-3.962261	0.047159	-0.530586
H103	H	-3.712261	0.297159	-0.280586
H104	H	-3.462261	0.547159	-0.030586
