data_functionalizedCrystal
_audit_creation_method	'MofGen! by Chris Wilmer'
_symmetry_space_group_name_H-M	'P1'
_symmetry_Int_Tables_number	1
_symmetry_cell_setting	triclinic
loop_
_symmetry_equiv_pos_as_xyz
  x,y,z
_cell_length_a	17.917603
_cell_length_b	12.970454
_cell_length_c	17.917559
_cell_angle_alpha	63.036822
_cell_angle_beta	90.240464
_cell_angle_gamma	57.011542
loop_
_atom_site_label
_atom_site_type_symbol
_atom_site_fract_x
_atom_site_fract_y
_atom_site_fract_z
Zr1	Zr	0.757810	1.025588	-0.060814
O2	O	0.638387	1.240675	-0.180232
O3	O	0.794419	0.810498	-0.024205
O4	O	0.801529	1.005966	-0.173116
O5	O	0.625669	1.060686	0.086140
O6	O	0.930218	0.990491	-0.167502
O7	O	0.631278	1.045207	-0.031322
O8	O	0.917500	0.640835	0.098871
O9	O	0.638387	1.410342	-0.180233
O10	O	0.906072	0.887420	-0.004404
O11	O	0.805848	0.910520	0.079068
O12	O	0.814218	1.140658	-0.096255
O13	O	0.713994	1.163759	-0.012783
Zr14	Zr	0.954110	1.025594	0.135477
Zr15	Zr	0.963054	1.000907	-0.051862
Zr16	Zr	0.748865	1.050275	0.126525
Zr17	Zr	0.757810	1.296187	-0.060815
Zr18	Zr	0.954110	0.754994	0.135478
O19	O	0.917500	1.240684	0.098869
O20	O	0.930218	1.205582	-0.167503
O21	O	0.625669	1.275776	0.086139
O22	O	1.073532	0.810507	0.254896
O23	O	1.086251	0.775405	-0.011476
O24	O	0.781701	0.845600	0.242166
O25	O	1.086251	0.990496	-0.011477
O26	O	0.910391	1.045216	0.247779
O27	O	0.781701	1.060691	0.242166
O28	O	1.080642	1.005975	0.105985
O29	O	0.801529	1.390724	-0.173117
O30	O	0.910391	0.660458	0.247780
O31	O	1.073532	0.640840	0.254896
O32	O	1.080642	0.621217	0.105987
O33	O	0.631278	1.429965	-0.031323
O34	O	0.794420	1.410347	-0.024207
O35	O	0.897701	0.910523	0.170918
O36	O	0.997926	0.887423	0.087446
O37	O	0.906072	1.140661	-0.004405
O38	O	0.805848	1.163762	0.079067
C39	C	0.855960	0.687112	0.037333
C40	C	0.855960	0.572235	0.037333
C41	C	0.599230	1.056463	0.026134
C42	C	0.512099	1.066940	0.022333
C43	C	0.352586	1.086079	0.015392
C44	C	0.359327	0.965109	0.059269
C45	C	0.270569	0.975758	0.055407
C46	C	0.441351	1.075433	0.019253
C47	C	1.112689	0.994719	0.048530
C48	C	1.199821	0.984241	0.052330
C49	C	0.867148	0.994711	-0.197001
C50	C	0.870945	0.984231	-0.276531
C51	C	0.855960	1.364070	0.037330
C52	C	0.855960	1.478947	0.037330
C53	C	0.834021	1.086081	-0.503173
C54	C	0.877896	0.965107	-0.422161
C55	C	0.874028	0.975751	-0.341126
C56	C	0.837889	1.075440	-0.584217
C57	C	0.844772	1.056471	0.271664
C58	C	0.840974	1.066951	0.351194
C59	C	1.112689	0.656240	0.048531
C60	C	1.199821	0.530886	0.052332
C61	C	0.844772	0.717992	0.271665
C62	C	0.840974	0.613595	0.351196
C63	C	1.101501	0.687120	0.282863
C64	C	1.184835	0.572246	0.366195
C65	C	0.610419	1.364062	-0.208200
C66	C	0.527084	1.478936	-0.291531
C67	C	0.599231	1.394942	0.026132
C68	C	0.512099	1.520296	0.022331
C69	C	0.867148	1.333190	-0.197002
C70	C	0.870946	1.437586	-0.276533
C71	C	1.192792	0.472015	0.006164
C72	C	1.274655	0.354245	0.009718
C73	C	1.363544	0.295341	0.059445
C74	C	1.370571	0.354222	0.105614
C75	C	1.288710	0.471997	0.102054
C76	C	0.887137	0.564572	0.436497
C77	C	0.883566	0.466497	0.511231
C78	C	0.833836	0.417439	0.500663
C79	C	0.787667	0.466472	0.415353
C80	C	0.791233	0.564554	0.340620
C81	C	1.276295	0.506241	0.361757
C82	C	1.354605	0.398317	0.440048
C83	C	1.341453	0.356394	0.522777
C84	C	1.249984	0.422411	0.527213
C85	C	1.171676	0.530340	0.448922
C86	C	0.435625	1.544954	-0.287093
C87	C	0.357315	1.652911	-0.365385
C88	C	0.370467	1.694840	-0.448114
C89	C	0.461936	1.628816	-0.452549
C90	C	0.540244	1.520869	-0.374259
C91	C	0.519128	1.579177	0.068491
C92	C	0.437267	1.696974	0.064917
C93	C	0.348377	1.755882	0.015188
C94	C	0.341350	1.696996	-0.030978
C95	C	0.423211	1.579207	-0.027408
C96	C	0.920684	1.486613	-0.265936
C97	C	0.924270	1.584689	-0.340655
C98	C	0.878112	1.633744	-0.425971
C99	C	0.828372	1.584708	-0.436566
C100	C	0.824792	1.486626	-0.361847
H101	H	0.431757	0.853545	0.099733
H102	H	1.294445	0.519915	0.139655
H103	H	0.443006	1.744900	0.102514
H104	H	1.287022	0.540357	0.294402
O105	O	0.931512	0.817339	-0.410919
H106	H	1.006849	0.749432	-0.371312
H107	H	0.830939	0.337575	0.561523
H108	H	0.472634	1.662969	-0.519916
H109	H	0.927633	0.604505	0.445119
H110	H	0.280161	1.197634	-0.025070
O111	O	0.734062	0.413502	0.403976
H112	H	0.677141	0.445045	0.433428
H113	H	0.790792	1.624664	-0.506040
O114	O	0.258665	1.724104	-0.360592
H115	H	0.220483	1.703985	-0.394192
O116	O	0.285997	1.811269	-0.532550
H117	H	0.310500	1.829350	-0.590827
O118	O	1.451837	0.168308	0.063285
H119	H	1.450408	0.073743	0.091917
H120	H	1.120422	0.519972	-0.034339
H121	H	0.793555	1.197634	-0.511668
H122	H	0.591498	1.531224	0.108992
O123	O	0.415615	1.515701	-0.077192
H124	H	0.452918	1.525555	-0.126257
H125	H	1.268915	0.306319	-0.027879
H126	H	0.784285	1.446720	-0.370488
O127	O	1.466447	0.290673	0.159255
H128	H	1.522180	0.198876	0.153977
O129	O	0.638891	1.449645	-0.379049
H130	H	0.634870	1.496933	-0.449731
O131	O	1.073029	0.601518	0.453712
H132	H	1.034858	0.581370	0.420126
H133	H	0.921166	0.426586	0.580687
H134	H	0.268965	1.744976	-0.071467
O135	O	0.260094	1.882893	0.011375
H136	H	0.261522	1.977459	-0.017237
H137	H	0.958272	1.446688	-0.196474
O138	O	0.741595	0.617204	0.248623
H139	H	0.706480	0.566518	0.253842
O140	O	1.453254	0.327108	0.435255
H141	H	1.449235	0.374377	0.364574
H142	H	1.405224	0.268510	0.586520
H143	H	0.964772	1.624605	-0.332012
H144	H	0.424898	1.510824	-0.219739
O145	O	0.881962	1.739553	-0.506560
H146	H	0.924295	1.765411	-0.484850
O147	O	1.235803	0.377169	0.616444
H148	H	1.305626	0.291014	0.670131
