data_functionalizedCrystal
_audit_creation_method	'MofGen! by Chris Wilmer'
_symmetry_space_group_name_H-M	'P1'
_symmetry_Int_Tables_number	1
_symmetry_cell_setting	triclinic
loop_
_symmetry_equiv_pos_as_xyz
  x,y,z
_cell_length_a	21.295417
_cell_length_b	21.295420
_cell_length_c	10.686551
_cell_angle_alpha	94.398749
_cell_angle_beta	85.587790
_cell_angle_gamma	89.975452
loop_
_atom_site_label
_atom_site_type_symbol
_atom_site_fract_x
_atom_site_fract_y
_atom_site_fract_z
Zn1	Zn	-0.223358	-0.989669	-0.713500
Zn2	Zn	-0.336721	-0.981492	-0.502466
Zn3	Zn	-0.231457	-0.876315	-0.502501
Zn4	Zn	-0.328586	-0.884358	-0.713409
O5	O	-0.280031	-0.932958	-0.607969
O6	O	-0.238411	-1.076674	-0.685529
O7	O	-0.329552	-0.960753	-0.325887
O8	O	-0.142292	-0.891407	-0.530543
O9	O	-0.321698	-1.070667	-0.530483
O10	O	-0.136341	-0.974688	-0.685563
O11	O	-0.252215	-0.883479	-0.325913
O12	O	-0.244327	-0.789291	-0.530455
O13	O	-0.307833	-0.905115	-0.890005
O14	O	-0.315687	-0.795201	-0.685409
O15	O	-0.230523	-0.982487	-0.890071
O16	O	-0.423733	-0.968552	-0.530396
O17	O	-0.417757	-0.897187	-0.685375
C18	C	-0.280003	-0.769405	-0.607927
C19	C	-0.280006	-0.699437	-0.607939
C20	C	-0.236731	-0.203112	-0.688821
C21	C	-0.236728	-0.268855	-0.688824
C22	C	-0.280030	-0.298599	-0.607973
C23	C	-0.323349	-0.262596	-0.527136
C24	C	-0.323355	-0.196855	-0.527144
N25	N	-0.289016	-0.397560	-0.497484
N26	N	-0.289007	-0.460011	-0.497479
C27	C	-0.280017	-0.496673	-0.607943
N28	N	-0.271024	-0.468525	-0.718415
N29	N	-0.271030	-0.406067	-0.718418
C30	C	-0.280029	-0.369884	-0.607955
C31	C	-0.236701	-0.603954	-0.688784
C32	C	-0.236702	-0.669698	-0.688789
C33	C	-0.323320	-0.663437	-0.527090
C34	C	-0.323322	-0.597695	-0.527096
C35	C	-0.280009	-0.567957	-0.607942
C36	C	-0.443585	-0.932873	-0.607899
C37	C	-0.513553	-0.932896	-0.607911
C38	C	-0.549507	-0.970094	-0.527297
C39	C	-0.615249	-0.970125	-0.527325
C40	C	-0.645033	-0.932945	-0.607955
C41	C	-0.609070	-0.895745	-0.688585
C42	C	-0.543330	-0.895720	-0.688564
N43	N	-0.747925	-0.878246	-0.617561
N44	N	-0.810376	-0.878271	-0.617574
C45	C	-0.843105	-0.933019	-0.608027
N46	N	-0.811025	-0.987741	-0.598442
N47	N	-0.748569	-0.987715	-0.598422
C48	C	-0.716318	-0.932968	-0.607988
C49	C	-0.950345	-0.970253	-0.527439
C50	C	-1.016087	-0.970285	-0.527476
C51	C	-1.009907	-0.895899	-0.688730
C52	C	-0.944166	-0.895873	-0.688699
C53	C	-0.914389	-0.933049	-0.608047
C54	C	-0.115837	-0.933062	-0.608067
C55	C	-0.045867	-0.933106	-0.608108
C56	C	-0.267367	-0.945610	-0.937105
C57	C	-0.261971	-0.951002	-1.077363
C58	C	-0.280051	-0.097150	-0.608002
C59	C	-0.280042	-0.167117	-0.607990
C60	C	-0.292599	-0.920392	-0.280114
C61	C	-0.297818	-0.915123	-0.139857
H62	H	-0.358625	-0.167548	-0.461320
H63	H	-0.332639	-0.880282	-1.086059
H64	H	-0.201433	-0.579740	-0.754614
N65	N	-0.367555	-0.560912	-0.444531
N66	N	-0.406000	-0.525916	-0.488786
H67	H	-0.437242	-0.499937	-0.430474
H68	H	-0.201435	-0.699004	-0.754621
H69	H	-0.227153	-0.985849	-1.131167
H70	H	-0.358582	-0.687655	-0.461269
H71	H	-0.201465	-0.178904	-0.754658
N72	N	-0.519102	-1.008071	-0.444908
N73	N	-0.551217	-1.041283	-0.372936
H74	H	-0.529743	-1.068106	-0.314748
N75	N	-0.651976	-1.008123	-0.444959
N76	N	-0.625381	-1.041309	-0.372953
H77	H	-0.651318	-1.068143	-0.314776
H78	H	-0.201457	-0.298168	-0.754645
N79	N	-1.052806	-1.008297	-0.445133
N80	N	-1.026208	-1.041487	-0.373139
H81	H	-1.052140	-1.068335	-0.314984
H82	H	-1.034157	-0.865630	-0.754386
H83	H	-0.358607	-0.286818	-0.461309
H84	H	-0.633325	-0.865474	-0.754237
N85	N	-0.506609	-0.857719	-0.770926
N86	N	-0.533206	-0.824529	-0.842922
H87	H	-0.507271	-0.797690	-0.901092
H88	H	-0.914890	-0.865580	-0.754338
N89	N	-0.919933	-1.008229	-0.445052
N90	N	-0.952046	-1.041445	-0.373085
H91	H	-0.930570	-1.068266	-0.314897
