data_functionalizedCrystal
_audit_creation_method	'MofGen! by Chris Wilmer'
_symmetry_space_group_name_H-M	'P1'
_symmetry_Int_Tables_number	1
_symmetry_cell_setting	triclinic
loop_
_symmetry_equiv_pos_as_xyz
  x,y,z
_cell_length_a	19.805407
_cell_length_b	16.625546
_cell_length_c	19.805399
_cell_angle_alpha	89.972133
_cell_angle_beta	89.982197
_cell_angle_gamma	90.019784
loop_
_atom_site_label
_atom_site_type_symbol
_atom_site_fract_x
_atom_site_fract_y
_atom_site_fract_z
Zn1	Zn	1.034754	-0.321078	-0.382686
Zn2	Zn	1.534754	0.178922	0.117314
Zn3	Zn	1.034677	-0.455915	-0.269498
Zn4	Zn	1.534677	0.044085	0.230502
Zn5	Zn	0.921569	-0.321094	-0.269514
Zn6	Zn	1.421569	0.178906	0.230486
Zn7	Zn	0.921540	-0.455866	-0.382648
Zn8	Zn	1.421540	0.044134	0.117352
O9	O	0.978135	-0.388488	-0.326086
O10	O	1.478135	0.111512	0.173914
O11	O	1.129460	-0.338978	-0.367681
O12	O	1.629460	0.161022	0.132319
O13	O	1.019652	-0.438058	-0.174783
O14	O	1.519652	0.061942	0.325217
O15	O	0.936628	-0.208259	-0.284550
O16	O	1.436628	0.291741	0.215450
O17	O	1.129404	-0.438043	-0.284521
O18	O	1.629404	0.061957	0.215479
O19	O	1.019784	-0.208248	-0.367697
O20	O	1.519784	0.291752	0.132303
O21	O	0.936552	-0.339006	-0.174796
O22	O	1.436552	0.160994	0.325204
O23	O	0.826848	-0.338958	-0.284513
O24	O	1.326848	0.161042	0.215487
O25	O	0.936579	-0.437959	-0.477369
O26	O	1.436579	0.062041	0.022631
O27	O	0.826827	-0.437974	-0.367631
O28	O	1.326827	0.062026	0.132369
O29	O	1.019756	-0.338931	-0.477398
O30	O	1.519756	0.161069	0.022602
O31	O	1.019625	-0.568741	-0.284484
O32	O	1.519625	-0.068741	0.215516
O33	O	0.936504	-0.568705	-0.367615
O34	O	1.436504	-0.068705	0.132385
C35	C	0.802279	-0.388463	-0.326070
C36	C	1.302279	0.111537	0.173930
C37	C	0.727047	-0.388472	-0.326079
C38	C	1.227047	0.111528	0.173921
C39	C	0.691733	-0.336980	-0.369446
C40	C	1.191733	0.163020	0.130554
C41	C	0.621045	-0.336984	-0.369449
C42	C	1.121045	0.163016	0.130551
C43	C	0.585671	-0.388485	-0.326087
C44	C	1.085671	0.111515	0.173913
C45	C	0.620990	-0.439979	-0.282716
C46	C	1.120990	0.060021	0.217284
C47	C	0.691677	-0.439970	-0.282710
C48	C	1.191677	0.060030	0.217290
C49	C	0.335917	-0.440015	-0.282736
C50	C	0.835917	0.059985	0.217264
C51	C	0.265225	-0.440022	-0.282747
C52	C	0.765225	0.059978	0.217253
C53	C	0.265284	-0.337030	-0.369475
C54	C	0.765284	0.162970	0.130525
C55	C	0.335971	-0.337021	-0.369469
C56	C	0.835971	0.162979	0.130531
C57	C	0.371284	-0.388511	-0.326095
C58	C	0.871284	0.111489	0.173905
C59	C	0.447932	-0.388505	-0.326092
C60	C	0.947932	0.111495	0.173908
C61	C	0.509024	-0.388496	-0.326093
C62	C	1.009024	0.111504	0.173907
C63	C	0.978071	-0.597979	-0.326058
C64	C	1.478071	-0.097979	0.173942
C65	C	0.978105	-0.687600	-0.326069
C66	C	1.478105	-0.187600	0.173931
C67	C	0.978224	-1.015776	-0.326139
C68	C	1.478224	-0.515776	0.173861
C69	C	0.978189	-0.924467	-0.326121
C70	C	1.478189	-0.424467	0.173879
C71	C	0.978164	-0.851691	-0.326104
C72	C	1.478164	-0.351691	0.173896
C73	C	0.978130	-0.760377	-0.326087
C74	C	1.478130	-0.260377	0.173913
C75	C	1.154678	-0.388514	-0.326103
C76	C	1.654678	0.111486	0.173897
C77	C	1.229910	-0.388525	-0.326111
C78	C	1.729910	0.111475	0.173889
C79	C	0.978173	-0.388438	-0.502629
C80	C	1.478173	0.111562	-0.002629
C81	C	0.978189	-0.388416	-0.577861
C82	C	1.478189	0.111584	-0.077861
C83	C	0.978218	-0.178179	-0.326130
C84	C	1.478218	0.321821	0.173870
C85	C	0.978253	-0.088558	-0.326148
C86	C	1.478253	0.411442	0.173852
C87	C	1.021501	-0.336849	-0.613221
C88	C	1.521501	0.163151	-0.113221
C89	C	1.021508	-0.336826	-0.683910
C90	C	1.521508	0.163174	-0.183910
C91	C	0.978206	-0.388374	-0.719237
C92	C	1.478206	0.111626	-0.219237
C93	C	0.934889	-0.439943	-0.683872
C94	C	1.434889	0.060057	-0.183872
C95	C	0.934880	-0.439961	-0.613185
C96	C	1.434880	0.060039	-0.113185
C97	C	0.934928	-0.439867	-0.968945
C98	C	1.434928	0.060133	-0.468945
C99	C	0.934942	-0.439846	-1.039638
C100	C	1.434942	0.060154	-0.539638
C101	C	1.021556	-0.336732	-1.039670
C102	C	1.521556	0.163268	-0.539670
C103	C	1.021546	-0.336751	-0.968983
C104	C	1.521546	0.163249	-0.468983
C105	C	0.978227	-0.388316	-0.933624
C106	C	1.478227	0.111684	-0.433624
C107	C	0.978219	-0.388340	-0.856976
C108	C	1.478219	0.111660	-0.356976
C109	C	0.978217	-0.388355	-0.795884
C110	C	1.478217	0.111645	-0.295884
C111	C	0.978136	-0.388481	-0.150231
C112	C	1.478136	0.111519	0.349769
C113	C	0.978251	-0.388275	-0.074999
C114	C	1.478251	0.111725	0.425001
H115	H	0.236426	-0.481961	-0.247434
H116	H	0.736426	0.018039	0.252566
H117	H	0.364660	-0.481942	-0.247419
H118	H	0.864660	0.018058	0.252581
H119	H	1.056778	-0.294837	-0.712697
H120	H	1.556778	0.205163	-0.212697
F121	F	0.729261	-0.494775	-0.236553
F122	F	1.229261	0.005225	0.263447
F123	F	0.583342	-0.494785	-0.236563
F124	F	1.083342	0.005215	0.263437
F125	F	1.067658	-0.281848	-1.077307
F126	F	1.567658	0.218152	-0.577307
F127	F	0.888780	-0.494843	-0.575552
F128	F	1.388780	0.005157	-0.075552
F129	F	0.888852	-0.494713	-1.077234
F130	F	1.388852	0.005287	-0.577234
H131	H	1.056764	-0.294876	-0.584463
H132	H	1.556764	0.205124	-0.084463
H133	H	0.899630	-0.481911	-0.712641
H134	H	1.399630	0.018089	-0.212641
F135	F	0.729374	-0.282169	-0.415601
F136	F	1.229374	0.217831	0.084399
F137	F	0.583464	-0.282182	-0.415607
F138	F	1.083464	0.217818	0.084393
F139	F	1.067636	-0.281890	-0.931389
F140	F	1.567636	0.218110	-0.431389
H141	H	0.364769	-0.295086	-0.404781
H142	H	0.864769	0.204914	0.095219
F143	F	0.227696	-0.282226	-0.415636
F144	F	0.727696	0.217774	0.084364
H145	H	0.899665	-0.481867	-0.940165
H146	H	1.399665	0.018133	-0.440165
