data_functionalizedCrystal
_audit_creation_method	'MofGen! by Chris Wilmer'
_symmetry_space_group_name_H-M	'P1'
_symmetry_Int_Tables_number	1
_symmetry_cell_setting	triclinic
loop_
_symmetry_equiv_pos_as_xyz
  x,y,z
_cell_length_a	14.044191
_cell_length_b	14.044190
_cell_length_c	13.101039
_cell_angle_alpha	93.663707
_cell_angle_beta	86.337551
_cell_angle_gamma	93.191777
loop_
_atom_site_label
_atom_site_type_symbol
_atom_site_fract_x
_atom_site_fract_y
_atom_site_fract_z
O1	O	1.281983	0.225377	-0.085186
O2	O	1.005311	0.217064	-0.085198
O3	O	1.139490	0.082885	-0.085172
O4	O	1.147805	0.359556	-0.085212
O5	O	1.129864	0.092530	0.085256
O6	O	0.995685	0.226708	0.085230
O7	O	1.272357	0.235022	0.085242
Zn8	Zn	1.132493	0.232396	0.112295
Zn9	Zn	1.145175	0.219689	-0.112251
O10	O	1.138179	0.369200	0.085216
C11	C	0.964876	0.218249	0.000015
C12	C	0.858733	0.207402	0.000011
C13	C	0.613276	0.264503	0.000013
C14	C	0.664399	0.187587	0.000022
C15	C	0.772536	0.198615	0.000016
C16	C	0.505129	0.253476	0.000019
C17	C	1.131040	0.052086	0.000045
C18	C	1.120192	-0.054057	0.000054
C19	C	1.177295	-0.299516	0.000016
C20	C	1.100378	-0.248393	0.000020
C21	C	1.111405	-0.140254	0.000038
C22	C	1.166269	-0.407664	-0.000003
C23	C	1.312792	0.233836	0.000027
C24	C	1.418936	0.244683	0.000024
C25	C	1.146629	0.400000	-0.000003
C26	C	1.157477	0.506142	-0.000018
N27	N	1.123845	0.241069	0.265542
N28	N	1.153831	0.211010	-0.265498
C29	C	1.112079	0.252876	0.474582
C30	C	1.165594	0.199205	0.525469
C31	C	1.159047	0.205775	0.641786
C32	C	1.118624	0.246307	0.358255
H33	H	0.650720	0.338629	-0.000001
H34	H	1.216326	0.148323	0.481676
H35	H	1.251421	-0.262072	0.000030
C36	C	1.044376	0.320577	0.533099
C37	C	0.978149	0.268276	0.594730
C38	C	0.915779	0.330612	0.648675
H39	H	1.011561	0.353421	0.485999
H40	H	1.079811	0.365491	0.575003
H41	H	0.942718	0.223380	0.552830
H42	H	1.010937	0.235435	0.641849
H43	H	0.951214	0.375525	0.690579
H44	H	0.882972	0.363453	0.601567
H45	H	0.870843	0.295136	0.690505
C46	C	0.614304	0.088815	-0.000028
C47	C	0.515454	0.097365	-0.000056
C48	C	0.469273	0.006400	-0.000123
H49	H	0.628778	0.058382	0.059387
H50	H	0.635548	0.051745	-0.059485
H51	H	0.494218	0.134420	0.059395
H52	H	0.500952	0.127781	-0.059466
H53	H	0.490517	-0.030670	-0.059581
H54	H	0.483755	-0.024025	0.059292
H55	H	0.402200	0.012188	-0.000152
H56	H	1.026246	-0.285839	0.000010
