data_functionalizedCrystal
_audit_creation_method	'MofGen! by Chris Wilmer'
_symmetry_space_group_name_H-M	'P1'
_symmetry_Int_Tables_number	1
_symmetry_cell_setting	triclinic
loop_
_symmetry_equiv_pos_as_xyz
  x,y,z
_cell_length_a	12.759401
_cell_length_b	16.959454
_cell_length_c	12.759393
_cell_angle_alpha	89.969082
_cell_angle_beta	89.982620
_cell_angle_gamma	90.020236
loop_
_atom_site_label
_atom_site_type_symbol
_atom_site_fract_x
_atom_site_fract_y
_atom_site_fract_z
Zn1	Zn	1.606205	-0.314630	-0.593988
Zn2	Zn	2.106205	0.185370	-0.093988
Zn3	Zn	1.606086	-0.446832	-0.418310
Zn4	Zn	2.106086	0.053168	0.081690
Zn5	Zn	1.430510	-0.314672	-0.418327
Zn6	Zn	1.930510	0.185328	0.081673
Zn7	Zn	1.430479	-0.446771	-0.593952
Zn8	Zn	1.930479	0.053229	-0.093952
O9	O	1.518320	-0.380726	-0.506144
O10	O	2.018320	0.119274	-0.006144
O11	O	1.753210	-0.332175	-0.570692
O12	O	2.253210	0.167825	-0.070692
O13	O	1.582759	-0.429344	-0.271291
O14	O	2.082759	0.070656	0.228709
O15	O	1.453879	-0.204055	-0.441651
O16	O	1.953879	0.295945	0.058349
O17	O	1.753123	-0.429303	-0.441622
O18	O	2.253123	0.070697	0.058378
O19	O	1.582961	-0.204025	-0.570708
O20	O	2.082961	0.295975	-0.070708
O21	O	1.453764	-0.332246	-0.271304
O22	O	1.953764	0.167754	0.228696
O23	O	1.283485	-0.332187	-0.441616
O24	O	1.783485	0.167813	0.058384
O25	O	1.453826	-0.429199	-0.740978
O26	O	1.953826	0.070801	-0.240978
O27	O	1.283462	-0.429239	-0.570647
O28	O	1.783462	0.070761	-0.070647
O29	O	1.582931	-0.332116	-0.741004
O30	O	2.082931	0.167884	-0.241004
O31	O	1.582728	-0.557435	-0.441588
O32	O	2.082728	-0.057435	0.058412
O33	O	1.453711	-0.557390	-0.570631
O34	O	1.953711	-0.057390	-0.070631
C35	C	1.245352	-0.380712	-0.506130
C36	C	1.745352	0.119288	-0.006130
C37	C	1.128576	-0.380724	-0.506149
C38	C	1.628576	0.119276	-0.006149
C39	C	1.073729	-0.431341	-0.573224
C40	C	1.573729	0.068659	-0.073224
C41	C	0.964005	-0.431351	-0.573235
C42	C	1.464005	0.068649	-0.073235
C43	C	0.963984	-0.330126	-0.439087
C44	C	1.463984	0.169874	0.060913
C45	C	1.073706	-0.330113	-0.439082
C46	C	1.573706	0.169887	0.060918
C47	C	1.073741	-0.489784	-0.650670
C48	C	1.573741	0.010216	-0.150670
C49	C	0.964017	-0.489794	-0.650681
C50	C	1.464017	0.010206	-0.150681
C51	C	1.518232	-0.586092	-0.506126
C52	C	2.018232	-0.086092	-0.006126
C53	C	1.518290	-0.673949	-0.506154
C54	C	2.018290	-0.173949	-0.006154
C55	C	1.451238	-1.045431	-0.573330
C56	C	1.951238	-0.545431	-0.073330
C57	C	1.585695	-1.045418	-0.439066
C58	C	2.085695	-0.545418	0.060934
C59	C	1.585658	-0.962872	-0.439056
C60	C	2.085658	-0.462872	0.060944
C61	C	1.518409	-0.921602	-0.506183
C62	C	2.018409	-0.421602	-0.006183
C63	C	1.451197	-0.962878	-0.573320
C64	C	1.951197	-0.462878	-0.073320
C65	C	1.652861	-0.921590	-0.371913
C66	C	2.152861	-0.421590	0.128087
C67	C	1.652826	-0.839039	-0.371900
C68	C	2.152826	-0.339039	0.128100
C69	C	1.585582	-0.797768	-0.439033
C70	C	2.085582	-0.297768	0.060967
C71	C	1.518368	-0.839048	-0.506173
C72	C	2.018368	-0.339048	-0.006173
C73	C	1.451119	-0.797778	-0.573300
C74	C	1.951119	-0.297778	-0.073300
C75	C	1.383909	-0.839057	-0.640447
C76	C	1.883909	-0.339057	-0.140447
C77	C	1.383952	-0.921606	-0.640453
C78	C	1.883952	-0.421606	-0.140453
C79	C	1.585539	-0.715219	-0.439027
C80	C	2.085539	-0.215219	0.060973
C81	C	1.451078	-0.715225	-0.573291
C82	C	1.951078	-0.215225	-0.073291
C83	C	1.792353	-0.380741	-0.506159
C84	C	2.292353	0.119259	-0.006159
C85	C	1.909130	-0.380748	-0.506165
C86	C	2.409130	0.119252	-0.006165
C87	C	1.518388	-0.380646	-0.780178
C88	C	2.018388	0.119354	-0.280178
C89	C	1.518417	-0.380611	-0.896954
C90	C	2.018417	0.119389	-0.396954
C91	C	1.518437	-0.174558	-0.506185
C92	C	2.018437	0.325442	-0.006185
C93	C	1.518487	-0.086701	-0.506203
C94	C	2.018487	0.413299	-0.006203
C95	C	1.451278	-0.330043	-0.951829
C96	C	1.951278	0.169957	-0.451829
C97	C	1.451310	-0.330020	-1.061553
C98	C	1.951310	0.169980	-0.561553
C99	C	1.585629	-0.431135	-1.061518
C100	C	2.085629	0.068865	-0.561518
C101	C	1.585591	-0.431161	-0.951796
C102	C	2.085591	0.068839	-0.451796
C103	C	1.373733	-0.271663	-0.951850
C104	C	1.873733	0.228337	-0.451850
C105	C	1.373765	-0.271639	-1.061574
C106	C	1.873765	0.228361	-0.561574
C107	C	1.518312	-0.380749	-0.233177
C108	C	2.018312	0.119251	0.266823
C109	C	1.518487	-0.380561	-0.116401
C110	C	2.018487	0.119439	0.383599
H111	H	0.930020	-0.467943	-0.728033
H112	H	1.430020	0.032057	-0.228033
H113	H	1.402904	-0.213523	-0.917832
H114	H	1.902904	0.286477	-0.417832
H115	H	1.396520	-1.079044	-0.628001
H116	H	1.896520	-0.579044	-0.128001
H117	H	1.640255	-0.681613	-0.384352
H118	H	2.140255	-0.181613	0.115648
F119	F	1.657115	-0.484931	-1.119894
F120	F	2.157115	0.015069	-0.619894
H121	H	1.640247	-0.472350	-0.907122
H122	H	2.140247	0.027650	-0.407122
H123	H	1.707604	-0.955199	-0.317254
H124	H	2.207604	-0.455199	0.182746
F125	F	1.657261	-1.089343	-0.367628
F126	F	2.157261	-0.589343	0.132372
H127	H	1.292342	-0.288056	-0.922072
H128	H	1.792342	0.211944	-0.422072
F129	F	1.379506	-0.671308	-0.644743
F130	F	1.879506	-0.171308	-0.144743
H131	H	1.329150	-0.805446	-0.695097
H132	H	1.829150	-0.305446	-0.195097
H133	H	1.103549	-0.473459	-0.732076
H134	H	1.603549	0.026541	-0.232076
H135	H	1.707553	-0.805435	-0.317227
H136	H	2.207553	-0.305435	0.182773
H137	H	1.329233	-0.955223	-0.695119
H138	H	1.829233	-0.455223	-0.195119
F139	F	1.272737	-0.300292	-1.106054
F140	F	1.772737	0.199708	-0.606054
F141	F	1.402173	-0.191589	-1.100524
F142	F	1.902173	0.308411	-0.600524
F143	F	0.925057	-0.569783	-0.621989
F144	F	1.425057	-0.069783	-0.121989
H145	H	1.118358	-0.288891	-0.384470
H146	H	1.618358	0.211109	0.115530
F147	F	1.118196	-0.565773	-0.612474
F148	F	1.618196	-0.065773	-0.112474
F149	F	0.905578	-0.276264	-0.367715
F150	F	1.405578	0.223736	0.132285
