data_functionalizedCrystal
_audit_creation_method	'MofGen! by Chris Wilmer'
_symmetry_space_group_name_H-M	'P1'
_symmetry_Int_Tables_number	1
_symmetry_cell_setting	triclinic
loop_
_symmetry_equiv_pos_as_xyz
  x,y,z
_cell_length_a	29.839134
_cell_length_b	29.839131
_cell_length_c	17.640968
_cell_angle_alpha	101.231391
_cell_angle_beta	101.228543
_cell_angle_gamma	90.021992
loop_
_atom_site_label
_atom_site_type_symbol
_atom_site_fract_x
_atom_site_fract_y
_atom_site_fract_z
Zn1	Zn	0.738137	-0.127743	0.446937
Zn2	Zn	1.238137	0.372257	0.946937
Zn3	Zn	0.722861	-0.218060	0.314743
Zn4	Zn	1.222861	0.281940	0.814743
Zn5	Zn	0.647814	-0.142917	0.314765
Zn6	Zn	1.147814	0.357083	0.814765
Zn7	Zn	0.662962	-0.202827	0.446887
Zn8	Zn	1.162962	0.297173	0.946887
O9	O	0.692943	-0.172887	0.380833
O10	O	1.192943	0.327113	0.880833
O11	O	0.798979	-0.139749	0.429414
O12	O	1.298979	0.360251	0.929414
O13	O	0.700173	-0.220817	0.204128
O14	O	1.200173	0.279183	0.704128
O15	O	0.659849	-0.078034	0.332328
O16	O	1.159849	0.421966	0.832328
O17	O	0.787756	-0.206104	0.332291
O18	O	1.287756	0.293896	0.832291
O19	O	0.726209	-0.066886	0.429435
O20	O	1.226209	0.433114	0.929435
O21	O	0.645037	-0.165610	0.204144
O22	O	1.145037	0.334390	0.704144
O23	O	0.586955	-0.150839	0.332279
O24	O	1.086955	0.349161	0.832279
O25	O	0.685666	-0.180142	0.557511
O26	O	1.185666	0.319858	1.057511
O27	O	0.598084	-0.194855	0.429348
O28	O	1.098084	0.305145	0.929348
O29	O	0.740897	-0.124978	0.557548
O30	O	1.240897	0.375022	1.057548
O31	O	0.714861	-0.278910	0.332242
O32	O	1.214861	0.221090	0.832242
O33	O	0.670854	-0.267719	0.429327
O34	O	1.170854	0.232281	0.929327
C35	C	0.576218	-0.172841	0.380811
C36	C	1.076218	0.327159	0.880811
C37	C	0.526285	-0.172830	0.380820
C38	C	1.026285	0.327170	0.880820
C39	C	0.175550	-0.138384	0.431504
C40	C	0.675550	0.361616	0.931504
C41	C	0.363221	-0.138350	0.431486
C42	C	0.863221	0.361650	0.931486
O43	O	0.392462	-0.109006	0.474576
O44	O	0.892462	0.390994	0.974576
N45	N	0.380842	-0.172858	0.380839
N46	N	0.880842	0.327142	0.880839
C47	C	0.351542	-0.207378	0.330197
C48	C	0.851542	0.292622	0.830197
O49	O	0.370836	-0.236731	0.287123
O50	O	0.870836	0.263269	0.787123
C51	C	0.163872	-0.207413	0.330219
C52	C	0.663872	0.292587	0.830219
C53	C	0.146254	-0.172901	0.380864
C54	C	0.646254	0.327099	0.880864
C55	C	0.157932	-0.103875	0.482146
C56	C	0.657932	0.396125	0.982146
C57	C	0.111016	-0.103882	0.482147
C58	C	0.611016	0.396118	0.982147
C59	C	0.081720	-0.138399	0.431506
C60	C	0.581720	0.361601	0.931506
C61	C	0.099339	-0.172908	0.380865
C62	C	0.599339	0.327092	0.880865
C63	C	0.134574	-0.241935	0.279581
C64	C	0.634574	0.258065	0.779581
C65	C	0.087654	-0.241941	0.279593
C66	C	0.587654	0.258059	0.779593
C67	C	0.070035	-0.207429	0.330238
C68	C	0.570035	0.292571	0.830238
C69	C	0.023127	-0.207433	0.330226
C70	C	0.523127	0.292567	0.830226
N71	N	0.005506	-0.172925	0.380873
N72	N	0.505506	0.327075	0.880873
C73	C	0.034803	-0.138408	0.431513
C74	C	0.534803	0.361592	0.931513
C75	C	0.450071	-0.207356	0.330187
C76	C	0.950071	0.292644	0.830187
C77	C	0.496988	-0.207347	0.330180
C78	C	0.996988	0.292653	0.830180
C79	C	0.508665	-0.138320	0.431471
C80	C	1.008665	0.361680	0.931471
C81	C	0.461747	-0.138328	0.431473
C82	C	0.961747	0.361672	0.931473
C83	C	0.432451	-0.172849	0.380834
C84	C	0.932451	0.327151	0.880834
C85	C	-0.063723	-0.138426	0.431511
C86	C	0.436277	0.361574	0.931511
C87	C	-0.110644	-0.138436	0.431505
C88	C	0.389356	0.361564	0.931505
C89	C	-0.122316	-0.207464	0.330218
C90	C	0.377684	0.292536	0.830218
C91	C	-0.075400	-0.207454	0.330220
C92	C	0.424600	0.292546	0.830220
C93	C	-0.046104	-0.172933	0.380873
C94	C	0.453896	0.327067	0.880873
O95	O	-0.006139	-0.236764	0.287165
O96	O	0.493861	0.263236	0.787165
O97	O	0.015501	-0.109066	0.474592
O98	O	0.515501	0.390934	0.974592
C99	C	0.222466	-0.138377	0.431503
C100	C	0.722466	0.361623	0.931503
C101	C	0.240085	-0.172886	0.380862
C102	C	0.740085	0.327114	0.880862
C103	C	0.210788	-0.207403	0.330222
C104	C	0.710788	0.292597	0.830222
C105	C	0.287002	-0.172877	0.380855
C106	C	0.787002	0.327123	0.880855
C107	C	0.316298	-0.138360	0.431495
C108	C	0.816298	0.361640	0.931495
C109	C	0.298678	-0.103852	0.482142
C110	C	0.798678	0.396148	0.982142
C111	C	0.251762	-0.103860	0.482144
C112	C	0.751762	0.396140	0.982144
C113	C	0.228409	-0.241910	0.279575
C114	C	0.728409	0.258090	0.779575
C115	C	0.275324	-0.241900	0.279577
C116	C	0.775324	0.258100	0.779577
C117	C	0.304621	-0.207383	0.330217
C118	C	0.804621	0.292617	0.830217
C119	C	0.692858	-0.289614	0.380794
C120	C	1.192858	0.210386	0.880794
C121	C	0.692865	-0.339547	0.380803
C122	C	1.192865	0.160453	0.880803
C123	C	0.715919	-0.654994	0.330354
C124	C	1.215919	-0.154994	0.830354
C125	C	0.715978	-0.842663	0.330385
C126	C	1.215978	-0.342663	0.830385
O127	O	0.735511	-0.871865	0.287461
O128	O	1.235511	-0.371865	0.787461
N129	N	0.693043	-0.860322	0.380893
N130	N	1.193043	-0.360322	0.880893
C131	C	0.670095	-0.831060	0.431400
C132	C	1.170095	-0.331060	0.931400
O133	O	0.650593	-0.850386	0.474366
O134	O	1.150593	-0.350386	0.974366
C135	C	0.670039	-0.643391	0.431372
C136	C	1.170039	-0.143391	0.931372
C137	C	0.692971	-0.625735	0.380856
C138	C	1.192971	-0.125735	0.880856
C139	C	0.738850	-0.637337	0.279843
C140	C	1.238850	-0.137337	0.779843
C141	C	0.738833	-0.590423	0.279832
C142	C	1.238833	-0.090423	0.779832
C143	C	0.715885	-0.561165	0.330334
C144	C	1.215885	-0.061165	0.830334
C145	C	0.692954	-0.578821	0.380846
C146	C	1.192954	-0.078821	0.880846
C147	C	0.647094	-0.614129	0.481883
C148	C	1.147094	-0.114129	0.981883
C149	C	0.647083	-0.567210	0.481873
C150	C	1.147083	-0.067210	0.981873
C151	C	0.670015	-0.549554	0.431357
C152	C	1.170015	-0.049554	0.931357
C153	C	0.669989	-0.502649	0.431337
C154	C	1.169989	-0.002649	0.931337
N155	N	0.692924	-0.484990	0.380830
N156	N	1.192924	0.015010	0.880830
C157	C	0.715872	-0.514248	0.330328
C158	C	1.215872	-0.014248	0.830328
C159	C	0.670125	-0.929590	0.431409
C160	C	1.170125	-0.429590	0.931409
C161	C	0.670139	-0.976507	0.431415
C162	C	1.170139	-0.476507	0.931415
C163	C	0.716022	-0.988106	0.330401
C164	C	1.216022	-0.488106	0.830401
C165	C	0.716006	-0.941189	0.330392
C166	C	1.216006	-0.441189	0.830392
C167	C	0.693060	-0.911931	0.380902
C168	C	1.193060	-0.411931	0.880902
C169	C	0.715834	-0.415724	0.330310
C170	C	1.215834	0.084276	0.830310
C171	C	0.715813	-0.368805	0.330302
C172	C	1.215813	0.131195	0.830302
C173	C	0.669931	-0.357210	0.431318
C174	C	1.169931	0.142790	0.931318
C175	C	0.669950	-0.404124	0.431324
C176	C	1.169950	0.095876	0.931324
C177	C	0.692904	-0.433381	0.380817
C178	C	1.192904	0.066619	0.880817
O179	O	0.650471	-0.473420	0.474245
O180	O	1.150471	0.026580	0.974245
O181	O	0.735379	-0.494912	0.287381
O182	O	1.235379	0.005088	0.787381
C183	C	0.715936	-0.701908	0.330365
C184	C	1.215936	-0.201908	0.830365
C185	C	0.693005	-0.719564	0.380876
C186	C	1.193005	-0.219564	0.880876
C187	C	0.670058	-0.690306	0.431378
C188	C	1.170058	-0.190306	0.931378
C189	C	0.693019	-0.766481	0.380882
C190	C	1.193019	-0.266481	0.880882
C191	C	0.715966	-0.795739	0.330381
C192	C	1.215966	-0.295739	0.830381
C193	C	0.738901	-0.778080	0.279873
C194	C	1.238901	-0.278080	0.779873
C195	C	0.738884	-0.731166	0.279863
C196	C	1.238884	-0.231166	0.779863
C197	C	0.647123	-0.707965	0.481885
C198	C	1.147123	-0.207965	0.981885
C199	C	0.647141	-0.754880	0.481891
C200	C	1.147141	-0.254880	0.981891
C201	C	0.670089	-0.784138	0.431389
C202	C	1.170089	-0.284138	0.931389
C203	C	0.810124	-0.172933	0.380855
C204	C	1.310124	0.327067	0.880855
C205	C	0.860060	-0.172953	0.380865
C206	C	1.360060	0.327047	0.880865
C207	C	0.716675	-0.149168	0.587013
C208	C	1.216675	0.350832	1.087013
C209	C	0.726789	-0.139061	0.674875
C210	C	1.226789	0.360939	1.174875
C211	C	0.693044	-0.055702	0.380890
C212	C	1.193044	0.444298	0.880890
C213	C	0.693086	-0.005765	0.380914
C214	C	1.193086	0.494235	0.880914
C215	C	0.669330	-0.196481	0.175455
C216	C	1.169330	0.303519	0.675455
C217	C	0.659304	-0.206462	0.087593
C218	C	1.159304	0.293538	0.587593
C219	C	0.616287	-0.249427	0.963745
C220	C	1.116287	0.250573	1.463745
C221	C	0.625800	-0.239924	1.046304
C222	C	1.125800	0.260076	1.546304
C223	C	0.683307	-0.182487	1.046332
C224	C	1.183307	0.317513	1.546332
C225	C	0.673798	-0.191984	0.963771
C226	C	1.173798	0.308016	1.463771
C227	C	0.640288	-0.225455	0.922484
C228	C	1.140288	0.274545	1.422484
C229	C	0.697798	-0.168011	0.922510
C230	C	1.197798	0.331989	1.422510
C231	C	0.688292	-0.177509	0.839956
C232	C	1.188292	0.322491	1.339956
C233	C	0.654784	-0.210979	0.798663
C234	C	1.154784	0.289021	1.298663
C235	C	0.630781	-0.234953	0.839930
C236	C	1.130781	0.265047	1.339930
C237	C	0.731310	-0.134543	0.963799
C238	C	1.231310	0.365457	1.463799
C239	C	0.755311	-0.110570	0.922539
C240	C	1.255311	0.389430	1.422539
C241	C	0.745802	-0.120065	0.839983
C242	C	1.245802	0.379935	1.339983
C243	C	0.712295	-0.153536	0.798690
C244	C	1.212295	0.346464	1.298690
C245	C	0.769805	-0.096092	0.798717
C246	C	1.269805	0.403908	1.298717
C247	C	0.760298	-0.105590	0.716163
C248	C	1.260298	0.394410	1.216163
C249	C	0.702788	-0.163034	0.716136
C250	C	1.202788	0.336966	1.216136
H251	H	-0.061055	-0.235554	0.288974
H252	H	0.438945	0.264446	0.788974
O253	O	0.783657	-0.082372	0.676044
O254	O	1.283657	0.417628	1.176044
C255	C	0.833564	-0.087084	0.582811
C256	C	1.333564	0.412916	1.082811
C257	C	0.807137	-0.113431	0.628207
C258	C	1.307137	0.386569	1.128207
H259	H	0.852547	-0.112185	0.544111
H260	H	1.352547	0.387815	1.044111
H261	H	0.859175	-0.061543	0.626467
H262	H	1.359175	0.438457	1.126467
H263	H	0.808503	-0.068018	0.544203
H264	H	1.308503	0.431982	1.044203
H265	H	0.832163	-0.132525	0.666817
H266	H	1.332163	0.367475	1.166817
H267	H	0.781520	-0.138946	0.584508
H268	H	1.281520	0.361054	1.084508
H269	H	0.511328	-0.235447	0.288932
H270	H	1.011328	0.264553	0.788932
O271	O	0.327105	-0.070333	0.531447
O272	O	0.827105	0.429667	1.031447
C273	C	0.356993	-0.033189	0.665979
C274	C	0.856993	0.466811	1.165979
C275	C	0.324771	-0.071155	0.610231
C276	C	0.824771	0.428845	1.110231
H277	H	0.355124	-0.033848	0.729688
H278	H	0.855124	0.466152	1.229688
H279	H	0.346195	0.001480	0.652285
H280	H	0.846195	0.501480	1.152285
H281	H	0.393544	-0.039114	0.657231
H282	H	0.893544	0.460886	1.157231
H283	H	0.288211	-0.065274	0.618948
H284	H	0.788211	0.434726	1.118948
H285	H	0.335608	-0.105812	0.623939
H286	H	0.835608	0.394188	1.123939
H287	H	0.757584	-0.801911	0.238751
H288	H	1.257584	-0.301911	0.738751
H289	H	0.628398	-0.543389	0.523007
H290	H	1.128398	-0.043389	1.023007
H291	H	0.675490	-0.190278	0.682517
H292	H	1.175490	0.309722	1.182517
O293	O	0.715828	-0.149975	1.086564
O294	O	1.215828	0.350025	1.586564
C295	C	0.755983	-0.109904	1.213755
C296	C	1.255983	0.390096	1.713755
C297	C	0.719134	-0.146729	1.168293
C298	C	1.219134	0.353271	1.668293
H299	H	0.758674	-0.107275	1.279840
H300	H	1.258674	0.392725	1.779840
H301	H	0.746259	-0.075525	1.197600
H302	H	1.246259	0.424475	1.697600
H303	H	0.790322	-0.119674	1.197471
H304	H	1.290322	0.380326	1.697471
H305	H	0.684781	-0.137002	1.184553
H306	H	1.184781	0.362998	1.684553
H307	H	0.728897	-0.181099	1.184452
H308	H	1.228897	0.318901	1.684452
O309	O	0.802417	-0.063633	0.838792
O310	O	1.302417	0.436367	1.338792
C311	C	0.881757	-0.038937	0.864022
C312	C	1.381757	0.461063	1.364022
C313	C	0.844872	-0.075736	0.818604
C314	C	1.344872	0.424264	1.318604
H315	H	0.916089	-0.048704	0.847704
H316	H	1.416089	0.451296	1.347704
H317	H	0.884472	-0.036269	0.930123
H318	H	1.384472	0.463731	1.430123
H319	H	0.872007	-0.004575	0.847821
H320	H	1.372007	0.495425	1.347821
H321	H	0.854595	-0.110118	0.834739
H322	H	1.354595	0.389882	1.334739
H323	H	0.842165	-0.078364	0.752514
H324	H	1.342165	0.421636	1.252514
O325	O	0.645504	-0.220278	0.718470
O326	O	1.145504	0.279722	1.218470
C327	C	0.600282	-0.265407	0.599991
C328	C	1.100282	0.234593	1.099991
C329	C	0.610754	-0.254931	0.690808
C330	C	1.110754	0.245069	1.190808
H331	H	0.572180	-0.293418	0.577598
H332	H	1.072180	0.206582	1.077598
H333	H	0.632465	-0.277354	0.577527
H334	H	1.132465	0.222646	1.077527
H335	H	0.588429	-0.233177	0.577613
H336	H	1.088429	0.266823	1.077613
H337	H	0.622596	-0.287143	0.713253
H338	H	1.122596	0.212857	1.213253
H339	H	0.578562	-0.242965	0.713217
H340	H	1.078562	0.257035	1.213217
O341	O	0.292363	-0.275473	0.230351
O342	O	0.792363	0.224527	0.730351
C343	C	0.275814	-0.343929	0.129864
C344	C	0.775814	0.156071	0.629864
C345	C	0.256460	-0.305940	0.185576
C346	C	0.756460	0.194060	0.685576
H347	H	0.246795	-0.368566	0.093637
H348	H	0.746795	0.131434	0.593637
H349	H	0.301927	-0.363316	0.166046
H350	H	0.801927	0.136684	0.666046
H351	H	0.293049	-0.328007	0.088624
H352	H	0.793049	0.171993	0.588624
H353	H	0.239203	-0.321825	0.226827
H354	H	0.739203	0.178175	0.726827
H355	H	0.230370	-0.286557	0.149345
H356	H	0.730370	0.213443	0.649345
O357	O	0.647919	-0.993622	0.480595
O358	O	1.147919	-0.493622	0.980595
C359	C	0.641510	-0.992470	0.615025
C360	C	1.141510	-0.492470	1.115025
C361	C	0.666716	-0.973060	0.559413
C362	C	1.166716	-0.473060	1.059413
H363	H	0.656691	-0.975847	0.678760
H364	H	1.156691	-0.475847	1.178760
H365	H	0.645468	-1.031026	0.606430
H366	H	1.145468	-0.531026	1.106430
H367	H	0.603682	-0.984883	0.601043
H368	H	1.103682	-0.484883	1.101043
H369	H	0.704552	-0.980613	0.573361
H370	H	1.204552	-0.480613	1.073361
H371	H	0.662721	-0.934509	0.568018
H372	H	1.162721	-0.434509	1.068018
O373	O	0.583743	-0.281978	0.923753
O374	O	1.083743	0.218022	1.423753
C375	C	0.527701	-0.337952	0.932428
C376	C	1.027701	0.162048	1.432428
C377	C	0.564544	-0.301104	0.977816
C378	C	1.064544	0.198896	1.477816
H379	H	0.512161	-0.353419	0.976118
H380	H	1.012161	0.146581	1.476118
H381	H	0.543852	-0.365920	0.893803
H382	H	1.043852	0.134080	1.393803
H383	H	0.499790	-0.321769	0.893751
H384	H	0.999790	0.178231	1.393751
H385	H	0.592466	-0.317245	1.016535
H386	H	1.092466	0.182755	1.516535
H387	H	0.548359	-0.273140	1.016391
H388	H	1.048359	0.226860	1.516391
H389	H	0.606253	-0.259448	1.079896
H390	H	1.106253	0.240552	1.579896
O391	O	0.738250	-0.924101	0.281215
O392	O	1.238250	-0.424101	0.781215
C393	C	0.744624	-0.925208	0.146782
C394	C	1.244624	-0.425208	0.646782
C395	C	0.719400	-0.944602	0.202388
C396	C	1.219400	-0.444602	0.702388
H397	H	0.729388	-0.941768	0.083038
H398	H	1.229388	-0.441768	0.583038
H399	H	0.782449	-0.932822	0.160658
H400	H	1.282449	-0.432822	0.660658
H401	H	0.740688	-0.886647	0.155489
H402	H	1.240688	-0.386647	0.655489
H403	H	0.723299	-0.983166	0.193712
H404	H	1.223299	-0.483166	0.693712
H405	H	0.681585	-0.936953	0.188498
H406	H	1.181585	-0.436953	0.688498
H407	H	0.148910	-0.270039	0.238341
H408	H	0.648910	0.229961	0.738341
O409	O	0.647667	-0.421200	0.480466
O410	O	1.147667	0.078800	0.980466
C411	C	0.602137	-0.404741	0.580631
C412	C	1.102137	0.095259	1.080631
C413	C	0.627358	-0.385346	0.525021
C414	C	1.127358	0.114654	1.025021
H415	H	0.585703	-0.375764	0.616656
H416	H	1.085703	0.124236	1.116656
H417	H	0.627501	-0.421900	0.622057
H418	H	1.127501	0.078100	1.122057
H419	H	0.574508	-0.430927	0.544300
H420	H	1.074508	0.069073	1.044300
H421	H	0.654986	-0.359143	0.561289
H422	H	1.154986	0.140857	1.061289
H423	H	0.601966	-0.368215	0.483593
H424	H	1.101966	0.131785	0.983593
H425	H	0.603483	-0.262197	0.806311
H426	H	1.103483	0.237803	1.306311
H427	H	0.532526	-0.110214	0.472702
H428	H	1.032526	0.389786	0.972702
H429	H	0.651246	-0.333381	0.472434
H430	H	1.151246	0.166619	0.972434
H431	H	-0.124986	-0.110330	0.472746
H432	H	0.375014	0.389670	0.972746
O433	O	0.787832	-0.078058	0.962771
O434	O	1.287832	0.421942	1.462771
C435	C	0.827987	-0.037987	1.089961
C436	C	1.327987	0.462013	1.589961
C437	C	0.791138	-0.074812	1.044500
C438	C	1.291138	0.425188	1.544500
H439	H	0.830678	-0.035358	1.156047
H440	H	1.330678	0.464642	1.656047
H441	H	0.818263	-0.003608	1.073806
H442	H	1.318263	0.496392	1.573806
H443	H	0.862325	-0.047757	1.073677
H444	H	1.362325	0.452243	1.573677
H445	H	0.756785	-0.065085	1.060759
H446	H	1.256785	0.434915	1.560759
H447	H	0.800901	-0.109182	1.060658
H448	H	1.300901	0.390818	1.560658
H449	H	0.739051	-0.126812	1.031020
H450	H	1.239051	0.373188	1.531020
O451	O	0.761202	-0.714091	0.230769
O452	O	1.261202	-0.214091	0.730769
C453	C	0.806691	-0.730569	0.130547
C454	C	1.306691	-0.230569	0.630547
C455	C	0.781440	-0.749961	0.186120
C456	C	1.281440	-0.249961	0.686120
H457	H	0.823052	-0.759562	0.094421
H458	H	1.323052	-0.259562	0.594421
H459	H	0.834367	-0.704418	0.166831
H460	H	1.334367	-0.204418	0.666831
H461	H	0.781315	-0.713370	0.089205
H462	H	1.281315	-0.213370	0.589205
H463	H	0.806781	-0.767183	0.227472
H464	H	1.306781	-0.267183	0.727472
H465	H	0.753757	-0.776089	0.149786
H466	H	1.253757	-0.276089	0.649786
H467	H	0.237422	-0.075756	0.523384
H468	H	0.737422	0.424244	1.023384
O469	O	0.199947	-0.275477	0.230491
O470	O	0.699947	0.224523	0.730491
C471	C	0.145701	-0.337366	0.219645
C472	C	0.645701	0.162634	0.719645
C473	C	0.177921	-0.299376	0.275330
C474	C	0.677921	0.200624	0.775330
H475	H	0.127877	-0.356693	0.255875
H476	H	0.627877	0.143307	0.755875
H477	H	0.166341	-0.362056	0.183466
H478	H	0.666341	0.137944	0.683466
H479	H	0.119005	-0.321450	0.178358
H480	H	0.619005	0.178550	0.678358
H481	H	0.204623	-0.315252	0.316665
H482	H	0.704623	0.184748	0.816665
H483	H	0.157250	-0.274691	0.311454
H484	H	0.657250	0.225309	0.811454
H485	H	-0.039876	-0.110316	0.472757
H486	H	0.460124	0.389684	0.972757
H487	H	0.651439	-0.905770	0.472541
H488	H	1.151439	-0.405770	0.972541
H489	H	0.063803	-0.270055	0.238358
H490	H	0.563803	0.229945	0.738358
O491	O	0.093984	-0.070336	0.531423
O492	O	0.593984	0.429664	1.031423
C493	C	0.110531	-0.001857	0.631859
C494	C	0.610531	0.498143	1.131859
C495	C	0.129877	-0.039828	0.576101
C496	C	0.629877	0.460172	1.076101
H497	H	0.139540	0.022824	0.667984
H498	H	0.639540	0.522824	1.167984
H499	H	0.093336	-0.017746	0.673186
H500	H	0.593336	0.482254	1.173186
H501	H	0.084385	0.017478	0.595639
H502	H	0.584385	0.517478	1.095639
H503	H	0.156041	-0.059176	0.612258
H504	H	0.656041	0.440824	1.112258
H505	H	0.147044	-0.023911	0.534773
H506	H	0.647044	0.476089	1.034773
H507	H	0.447405	-0.110224	0.472712
H508	H	0.947405	0.389776	0.972712
H509	H	0.426222	-0.235469	0.288948
H510	H	0.926222	0.264531	0.788948
H511	H	0.181781	-0.075766	0.523387
H512	H	0.681781	0.424234	1.023387
H513	H	-0.146178	-0.235566	0.288985
H514	H	0.353822	0.264434	0.788985
H515	H	0.734487	-0.354433	0.289163
H516	H	1.234487	0.145567	0.789163
O517	O	0.624880	-0.631238	0.531074
O518	O	1.124880	-0.131238	1.031074
C519	C	0.618480	-0.630073	0.665512
C520	C	1.118480	-0.130073	1.165512
C521	C	0.643683	-0.610671	0.609888
C522	C	1.143683	-0.110671	1.109888
H523	H	0.633666	-0.613446	0.729244
H524	H	1.133666	-0.113446	1.229244
H525	H	0.622437	-0.668629	0.656925
H526	H	1.122437	-0.168629	1.156925
H527	H	0.580653	-0.622485	0.651535
H528	H	1.080653	-0.122485	1.151535
H529	H	0.681518	-0.618225	0.623830
H530	H	1.181518	-0.118225	1.123830
H531	H	0.639689	-0.572119	0.618484
H532	H	1.139689	-0.072119	1.118484
O533	O	0.624803	-0.772061	0.530854
O534	O	1.124803	-0.272061	1.030854
C535	C	0.565397	-0.823875	0.541432
C536	C	1.065397	-0.323875	1.041432
C537	C	0.590643	-0.804451	0.485887
C538	C	1.090643	-0.304451	0.985887
H539	H	0.537780	-0.850073	0.505099
H540	H	1.037780	-0.350073	1.005099
H541	H	0.548961	-0.794922	0.577511
H542	H	1.048961	-0.294922	1.077511
H543	H	0.590787	-0.841033	0.582819
H544	H	1.090787	-0.341033	1.082819
H545	H	0.565282	-0.787298	0.444452
H546	H	1.065282	-0.287298	0.944452
H547	H	0.607087	-0.833422	0.449864
H548	H	1.107087	-0.333422	0.949864
O549	O	0.738135	-0.444079	0.281171
O550	O	1.238135	0.055921	0.781171
C551	C	0.783660	-0.450617	0.181004
C552	C	1.283660	0.049383	0.681004
C553	C	0.758417	-0.418456	0.236604
C554	C	1.258417	0.081544	0.736604
H555	H	0.800072	-0.429912	0.144969
H556	H	1.300072	0.070088	0.644969
H557	H	0.758315	-0.477358	0.139586
H558	H	1.258315	0.022642	0.639586
H559	H	0.811308	-0.468390	0.217343
H560	H	1.311308	0.031610	0.717343
H561	H	0.730769	-0.400651	0.200329
H562	H	1.230769	0.099349	0.700329
H563	H	0.783790	-0.391743	0.278024
H564	H	1.283790	0.108257	0.778024
H565	H	0.757507	-0.576051	0.238700
H566	H	1.257507	-0.076051	0.738700
H567	H	0.757539	-0.661155	0.238718
H568	H	1.257539	-0.161155	0.738718
O569	O	0.738395	-1.016464	0.281387
O570	O	1.238395	-0.516464	0.781387
C571	C	0.810460	-1.035153	0.243227
C572	C	1.310460	-0.535153	0.743227
C573	C	0.785167	-1.003006	0.298762
C574	C	1.285167	-0.503006	0.798762
H575	H	0.848281	-1.024289	0.257266
H576	H	1.348281	-0.524289	0.757266
H577	H	0.795306	-1.033271	0.179457
H578	H	1.295306	-0.533271	0.679457
H579	H	0.806518	-1.071722	0.251881
H580	H	1.306518	-0.571722	0.751881
H581	H	0.789099	-0.966422	0.290178
H582	H	1.289099	-0.466422	0.790178
H583	H	0.800326	-1.004927	0.362512
H584	H	1.300326	-0.504927	0.862512
H585	H	0.628437	-0.684146	0.523011
H586	H	1.128437	-0.184146	1.023011
