data_functionalizedCrystal
_audit_creation_method	'MofGen! by Chris Wilmer'
_symmetry_space_group_name_H-M	'P1'
_symmetry_Int_Tables_number	1
_symmetry_cell_setting	triclinic
loop_
_symmetry_equiv_pos_as_xyz
  x,y,z
_cell_length_a	9.065218
_cell_length_b	9.730223
_cell_length_c	10.654550
_cell_angle_alpha	89.995747
_cell_angle_beta	84.750408
_cell_angle_gamma	89.996641
loop_
_atom_site_label
_atom_site_type_symbol
_atom_site_fract_x
_atom_site_fract_y
_atom_site_fract_z
O1	O	1.959392	-0.114293	0.184159
O2	O	1.530025	-0.114295	0.199265
O3	O	1.754581	-0.114285	0.009012
O4	O	1.734837	-0.114303	0.374412
O5	O	1.754566	0.114294	0.009006
O6	O	1.530010	0.114285	0.199259
O7	O	1.959378	0.114287	0.184154
Zn8	Zn	1.744692	0.150578	0.191706
Zn9	Zn	1.744711	-0.150586	0.191713
O10	O	1.734822	0.114277	0.374407
C11	C	1.475039	-0.000005	0.197810
C12	C	1.311220	-0.000006	0.193469
N13	N	1.744689	0.356114	0.191700
C14	C	1.753124	0.000004	-0.037795
C15	C	1.748786	0.000002	-0.177255
C16	C	2.014364	-0.000006	0.185608
C17	C	2.178183	-0.000015	0.189949
N18	N	1.744725	-0.356123	0.191708
C19	C	1.844157	0.428044	0.107492
C20	C	1.844172	0.571927	0.107493
C21	C	1.645247	0.571937	0.275920
C22	C	1.645226	0.428057	0.275912
C23	C	1.881001	0.000002	-0.256217
C24	C	1.876917	-0.000015	-0.387254
C25	C	1.608391	-0.000026	-0.360354
C26	C	1.612477	-0.000019	-0.229320
C27	C	1.736279	-0.000015	0.421213
C28	C	1.740616	-0.000022	0.560673
H29	H	1.925144	0.369472	0.038920
F30	F	1.463329	-0.000049	-0.415777
F31	F	1.950035	0.648476	0.017865
H32	H	1.564268	0.630527	0.344486
F33	F	1.539348	0.351497	0.365537
F34	F	1.471748	-0.000029	-0.145277
H35	H	1.984580	-0.000018	-0.451541
H36	H	1.991993	0.000016	-0.213831
