data_functionalizedCrystal
_audit_creation_method	'MofGen! by Chris Wilmer'
_symmetry_space_group_name_H-M	'P1'
_symmetry_Int_Tables_number	1
_symmetry_cell_setting	triclinic
loop_
_symmetry_equiv_pos_as_xyz
  x,y,z
_cell_length_a	18.101398
_cell_length_b	29.839131
_cell_length_c	18.101390
_cell_angle_alpha	89.956564
_cell_angle_beta	89.974845
_cell_angle_gamma	90.032958
loop_
_atom_site_label
_atom_site_type_symbol
_atom_site_fract_x
_atom_site_fract_y
_atom_site_fract_z
Zn1	Zn	1.132102	-0.178863	-0.418794
Zn2	Zn	1.131989	-0.253999	-0.294930
Zn3	Zn	1.008261	-0.178881	-0.294954
Zn4	Zn	1.008203	-0.253964	-0.418717
O5	O	1.070139	-0.216427	-0.356849
O6	O	1.235720	-0.188838	-0.402385
O7	O	1.115552	-0.244057	-0.191300
O8	O	1.024760	-0.116011	-0.311424
O9	O	1.235637	-0.244039	-0.311382
O10	O	1.115746	-0.115999	-0.402409
O11	O	1.024650	-0.188868	-0.191318
O12	O	0.904620	-0.188834	-0.311350
O13	O	1.024662	-0.243980	-0.522360
O14	O	0.904578	-0.243997	-0.402278
O15	O	1.115691	-0.188804	-0.522417
O16	O	1.115497	-0.316862	-0.311308
O17	O	1.024552	-0.316836	-0.402254
C18	C	0.877728	-0.216414	-0.356809
C19	C	0.795414	-0.216419	-0.356809
C20	C	0.644706	-0.216428	-0.356842
C21	C	0.613354	-0.181671	-0.299728
C22	C	0.527736	-0.181540	-0.299915
C23	C	0.496323	-0.216437	-0.356874
C24	C	0.527465	-0.203795	-0.435013
C25	C	0.613110	-0.203538	-0.434664
C26	C	0.613096	-0.263916	-0.336506
C27	C	0.527445	-0.263666	-0.334804
C28	C	0.412464	-0.216443	-0.356896
C29	C	0.728565	-0.216421	-0.356825
C30	C	1.070026	-0.333149	-0.356786
C31	C	1.070045	-0.383084	-0.356784
C32	C	1.117505	-0.692686	-0.404292
C33	C	1.117585	-0.880359	-0.404336
O34	O	1.157826	-0.904588	-0.444683
N35	N	1.070264	-0.903869	-0.356931
C36	C	1.022917	-0.880458	-0.309514
O37	O	0.982664	-0.904761	-0.269199
C38	C	1.022833	-0.692786	-0.309474
C39	C	1.070162	-0.669278	-0.356877
C40	C	1.164829	-0.669178	-0.451692
C41	C	1.164812	-0.622262	-0.451678
C42	C	1.117469	-0.598855	-0.404263
C43	C	1.070145	-0.622363	-0.356863
C44	C	0.975482	-0.669376	-0.262062
C45	C	0.975464	-0.622455	-0.262057
C46	C	1.022794	-0.598947	-0.309461
C47	C	1.022785	-0.552040	-0.309434
N48	N	1.070105	-0.528529	-0.356840
C49	C	1.117448	-0.551937	-0.404254
C50	C	1.022965	-0.978989	-0.309538
C51	C	1.022987	-1.025906	-0.309547
C52	C	1.117654	-1.025804	-0.404370
C53	C	1.117636	-0.978885	-0.404357
C54	C	1.070286	-0.955478	-0.356943
C55	C	1.117407	-0.453411	-0.404220
C56	C	1.117388	-0.406491	-0.404199
C57	C	1.022718	-0.406598	-0.309379
C58	C	1.022740	-0.453514	-0.309396
C59	C	1.070087	-0.476919	-0.356823
O60	O	0.982559	-0.527781	-0.269115
O61	O	1.157683	-0.527626	-0.444575
C62	C	1.117523	-0.739601	-0.404306
C63	C	1.070198	-0.763109	-0.356906
C64	C	1.022855	-0.739701	-0.309492
C65	C	1.070220	-0.810027	-0.356915
C66	C	1.117562	-0.833434	-0.404330
C67	C	1.164883	-0.809924	-0.451735
C68	C	1.164865	-0.763009	-0.451721
C69	C	0.975535	-0.763212	-0.262086
C70	C	0.975557	-0.810127	-0.262104
C71	C	1.022899	-0.833535	-0.309519
C72	C	1.263301	-0.216440	-0.356890
C73	C	1.345615	-0.216446	-0.356907
C74	C	1.070183	-0.216386	-0.550011
C75	C	1.070201	-0.216368	-0.632325
C76	C	1.070272	-0.099248	-0.356928
C77	C	1.070329	-0.049314	-0.356961
C78	C	1.070241	-0.216340	-0.931416
C79	C	1.127702	-0.181747	-0.900126
C80	C	1.127523	-0.181619	-0.814508
C81	C	1.070222	-0.216354	-0.783033
C82	C	0.992207	-0.203490	-0.814103
C83	C	0.992551	-0.203230	-0.899749
C84	C	1.090108	-0.263887	-0.899816
C85	C	1.091821	-0.263645	-0.814166
C86	C	1.070207	-0.216363	-0.699174
C87	C	1.070252	-0.216331	-1.015276
C88	C	1.070137	-0.216435	-0.164438
C89	C	1.070262	-0.216326	-0.082125
H90	H	0.506677	-0.189428	-0.241986
F91	F	0.972376	-0.478533	-0.258936
H92	H	0.984455	-1.045043	-0.270938
F93	F	1.168009	-0.953871	-0.454810
H94	H	1.155931	-0.387353	-0.442800
H95	H	0.975708	-0.168474	-0.919748
H96	H	0.975058	-0.169120	-0.792674
H97	H	0.948282	-0.227330	-0.920445
H98	H	0.937017	-0.829263	-0.223496
F99	F	1.167801	-0.478314	-0.454695
H100	H	0.633893	-0.189469	-0.241606
H101	H	1.048260	-0.289663	-0.920054
F102	F	0.639612	-0.297764	-0.390864
H103	H	0.936942	-0.688508	-0.223461
F104	F	0.500992	-0.135550	-0.317566
H105	H	0.633119	-0.168831	-0.451851
F106	F	0.641272	-0.279004	-0.263272
H107	H	1.203381	-0.688231	-0.490307
F108	F	0.641521	-0.135937	-0.317149
F109	F	1.203140	-0.192143	-0.787051
H110	H	0.984406	-0.959934	-0.270926
F111	F	1.215182	-0.597249	-0.502136
H112	H	0.633853	-0.227763	-0.478693
H113	H	0.507122	-0.228340	-0.478746
F114	F	0.499473	-0.158933	-0.457876
F115	F	0.500835	-0.276132	-0.259638
F116	F	0.499517	-0.299307	-0.385198
H117	H	1.053012	-0.290804	-0.792737
H118	H	1.203405	-0.743872	-0.490321
F119	F	1.168040	-1.050724	-0.454832
F120	F	1.163191	-0.279181	-0.928058
H121	H	1.185742	-0.189704	-0.920732
F122	F	0.934728	-0.235410	-0.787459
H123	H	0.936982	-0.744157	-0.223477
F124	F	1.166865	-0.276324	-0.787629
F125	F	0.925066	-0.597546	-0.211592
F126	F	1.110735	-0.135964	-0.928289
F127	F	0.972336	-0.381678	-0.258918
H128	H	1.203433	-0.828991	-0.490339
F129	F	1.110335	-0.135579	-0.787758
