data_functionalizedCrystal
_audit_creation_method	'MofGen! by Chris Wilmer'
_symmetry_space_group_name_H-M	'P1'
_symmetry_Int_Tables_number	1
_symmetry_cell_setting	triclinic
loop_
_symmetry_equiv_pos_as_xyz
  x,y,z
_cell_length_a	11.026607
_cell_length_b	12.503572
_cell_length_c	11.026607
_cell_angle_alpha	85.701682
_cell_angle_beta	108.586017
_cell_angle_gamma	94.293464
loop_
_atom_site_label
_atom_site_type_symbol
_atom_site_fract_x
_atom_site_fract_y
_atom_site_fract_z
O1	O	1.732471	0.089318	0.527857
O2	O	1.365891	0.089320	0.467093
O3	O	1.518799	0.089315	0.314185
O4	O	1.579563	0.089323	0.680765
O5	O	1.507305	-0.089326	0.325709
O6	O	1.354397	-0.089322	0.478617
O7	O	1.720977	-0.089323	0.539381
Cu8	Cu	1.536638	-0.105634	0.510051
Cu9	Cu	1.550231	0.105630	0.496423
O10	O	1.568069	-0.089319	0.692289
C11	C	1.312485	-0.000001	0.461645
C12	C	1.170471	-0.000000	0.428228
N13	N	1.527086	-0.254226	0.519638
C14	C	1.116822	0.000003	0.520498
C15	C	0.970043	0.000003	0.485962
C16	C	1.513037	-0.473341	0.533751
C17	C	1.573836	-0.526670	0.472718
C18	C	1.566019	-0.648593	0.480571
C19	C	1.520853	-0.351407	0.525900
C20	C	1.774384	-0.000001	0.544829
C21	C	1.916398	0.000006	0.578245
C22	C	1.501842	-0.000004	0.272288
C23	C	1.468426	-0.000000	0.130273
N24	N	1.559790	0.254222	0.486828
C25	C	1.560695	0.000001	0.076624
C26	C	1.526160	0.000005	-0.070155
C27	C	1.585026	0.000003	0.734186
C28	C	1.618443	0.000006	0.876200
H29	H	1.179554	-0.000001	0.625061
H30	H	1.665258	-0.000006	0.139358
H31	H	1.455120	-0.519246	0.591898
Cl32	Cl	1.663856	-0.455793	0.383533
H33	H	1.421591	0.000012	-0.132884
Cl34	Cl	1.013235	-0.000006	0.739696
Cl35	Cl	1.779894	0.000010	-0.026963
Cl36	Cl	0.873201	-0.000008	0.324514
H37	H	1.363863	0.000007	0.067540
H38	H	1.107739	0.000025	0.323664
