data_functionalizedCrystal
_audit_creation_method	'MofGen! by Chris Wilmer'
_symmetry_space_group_name_H-M	'P1'
_symmetry_Int_Tables_number	1
_symmetry_cell_setting	triclinic
loop_
_symmetry_equiv_pos_as_xyz
  x,y,z
_cell_length_a	12.759395
_cell_length_b	12.759394
_cell_length_c	12.759393
_cell_angle_alpha	89.967706
_cell_angle_beta	89.979784
_cell_angle_gamma	90.015525
loop_
_atom_site_label
_atom_site_type_symbol
_atom_site_fract_x
_atom_site_fract_y
_atom_site_fract_z
Zn1	Zn	1.606255	-0.418185	-0.594024
Zn2	Zn	1.606149	-0.593904	-0.418342
Zn3	Zn	1.430557	-0.418242	-0.418358
Zn4	Zn	1.430545	-0.593825	-0.593978
O5	O	1.518377	-0.506039	-0.506176
O6	O	1.753262	-0.441504	-0.570732
O7	O	1.582817	-0.570659	-0.271323
O8	O	1.453913	-0.271213	-0.441687
O9	O	1.753184	-0.570604	-0.441659
O10	O	1.582998	-0.271172	-0.570748
O11	O	1.453810	-0.441601	-0.271335
O12	O	1.283534	-0.441524	-0.441642
O13	O	1.453893	-0.570469	-0.741006
O14	O	1.283526	-0.570524	-0.570670
O15	O	1.582986	-0.441427	-0.741039
O16	O	1.582806	-0.740915	-0.441615
O17	O	1.453790	-0.740857	-0.570654
C18	C	1.245409	-0.506022	-0.506153
C19	C	1.128632	-0.506040	-0.506169
C20	C	0.909238	-0.640609	-0.640347
C21	C	0.964125	-0.707872	-0.707412
C22	C	1.073847	-0.707859	-0.707398
C23	C	1.128684	-0.640579	-0.640311
C24	C	1.073798	-0.573316	-0.573247
C25	C	0.964073	-0.573334	-0.573270
C26	C	1.073746	-0.438778	-0.439104
C27	C	0.964024	-0.438784	-0.439121
C28	C	1.128583	-0.371497	-0.372017
C29	C	1.073697	-0.304227	-0.304956
C30	C	0.963968	-0.304242	-0.304973
C31	C	0.909137	-0.371521	-0.372057
C32	C	1.518314	-0.779007	-0.506150
C33	C	1.518383	-0.895783	-0.506175
C34	C	1.652827	-0.895791	-0.371907
C35	C	1.720077	-0.950655	-0.304785
C36	C	1.720138	-1.060376	-0.304814
C37	C	1.652945	-1.115236	-0.371973
C38	C	1.585696	-1.060372	-0.439095
C39	C	1.585639	-0.950648	-0.439057
C40	C	1.451258	-1.060364	-0.573366
C41	C	1.451190	-0.950643	-0.573334
C42	C	1.384065	-1.115224	-0.640526
C43	C	1.316809	-1.060360	-0.707644
C44	C	1.316749	-0.950631	-0.707612
C45	C	1.383940	-0.895778	-0.640456
C46	C	1.792410	-0.506057	-0.506199
C47	C	1.909187	-0.506064	-0.506209
C48	C	1.518450	-0.505933	-0.780209
C49	C	1.518482	-0.505888	-0.896986
C50	C	1.518469	-0.232006	-0.506224
C51	C	1.518508	-0.115229	-0.506245
C52	C	1.585710	-0.438689	-0.951867
C53	C	1.585735	-0.438651	-1.061591
C54	C	1.451300	-0.573019	-1.061543
C55	C	1.451271	-0.573051	-0.951821
C56	C	1.663328	-0.361116	-0.951896
C57	C	1.663353	-0.361078	-1.061620
C58	C	1.518364	-0.506069	-0.233208
C59	C	1.518536	-0.505818	-0.116432
H60	H	1.118354	-0.249458	-0.250334
H61	H	1.652770	-0.806449	-0.371863
C62	C	1.771806	-0.390353	-1.101288
C63	C	1.798279	-0.490331	-1.064589
C64	C	1.898165	-0.517337	-1.101124
H65	H	1.821565	-0.340838	-1.076516
H66	H	1.771840	-0.390386	-1.175748
H67	H	1.798253	-0.490290	-0.990145
H68	H	1.748546	-0.539868	-1.089358
H69	H	1.898199	-0.517370	-1.175584
H70	H	1.947916	-0.467816	-1.076350
H71	H	1.916136	-0.585178	-1.076237
C72	C	1.384243	-1.234351	-0.640759
C73	C	1.411051	-1.270544	-0.740809
C74	C	1.411237	-1.380278	-0.741061
H75	H	1.316501	-1.259377	-0.622614
H76	H	1.433948	-1.259211	-0.591215
H77	H	1.361348	-1.245695	-0.790338
H78	H	1.478793	-1.245547	-0.758975
H79	H	1.460941	-1.405138	-0.691516
H80	H	1.343493	-1.405293	-0.722912
H81	H	1.429435	-1.404849	-0.808940
H82	H	0.819796	-0.371535	-0.372082
C83	C	0.904519	-0.231272	-0.231983
C84	C	0.931179	-0.254013	-0.127994
C85	C	0.876453	-0.186805	-0.060724
H86	H	0.831302	-0.240841	-0.241451
H87	H	0.922548	-0.160680	-0.247414
H88	H	0.913144	-0.324588	-0.112568
H89	H	1.004388	-0.244438	-0.118493
H90	H	0.894481	-0.116213	-0.076156
H91	H	0.803238	-0.196379	-0.070201
H92	H	0.894542	-0.202219	0.009839
H93	H	1.653011	-1.204577	-0.372000
H94	H	1.262110	-1.105035	-0.762324
C95	C	1.383683	-0.776652	-0.640535
C96	C	1.310392	-0.740340	-0.713672
C97	C	1.310121	-0.630606	-0.713763
H98	H	1.451399	-0.751630	-0.658784
H99	H	1.365478	-0.751867	-0.572732
H100	H	1.328603	-0.765114	-0.781461
H101	H	1.242666	-0.765333	-0.695440
H102	H	1.291916	-0.605822	-0.645960
H103	H	1.377841	-0.605595	-0.732010
H104	H	1.260388	-0.605955	-0.763378
C105	C	1.792911	-0.890903	-0.231910
C106	C	1.778448	-0.783070	-0.246225
C107	C	1.845515	-0.728000	-0.179104
H108	H	1.863548	-0.908687	-0.247279
H109	H	1.777564	-0.908899	-0.161290
H110	H	1.793802	-0.765082	-0.316829
H111	H	1.707825	-0.765255	-0.230849
H112	H	1.830168	-0.745995	-0.108483
H113	H	1.916148	-0.745792	-0.194478
H114	H	1.835705	-0.654830	-0.188800
H115	H	1.261990	-0.905967	-0.762274
C116	C	0.790112	-0.640778	-0.640519
C117	C	0.753835	-0.714092	-0.713620
C118	C	0.644102	-0.714273	-0.713814
H119	H	0.765217	-0.573055	-0.658856
H120	H	0.765176	-0.658912	-0.572722
H121	H	0.778760	-0.695952	-0.781403
H122	H	0.778702	-0.781826	-0.695300
H123	H	0.619166	-0.732407	-0.646017
H124	H	0.619217	-0.646546	-0.732149
H125	H	0.619474	-0.764022	-0.763405
C126	C	1.378221	-0.646106	-0.892424
C127	C	1.319386	-0.704930	-0.963934
C128	C	1.252083	-0.772246	-0.909256
H129	H	1.332362	-0.606027	-0.849631
H130	H	1.418344	-0.691965	-0.849629
H131	H	1.279267	-0.659078	-1.006711
H132	H	1.365217	-0.745031	-1.006730
H133	H	1.292206	-0.818104	-0.866461
H134	H	1.206231	-0.732158	-0.866465
H135	H	1.212163	-0.812172	-0.957767
C136	C	1.378453	-0.645903	-1.121271
C137	C	1.392883	-0.631511	-1.229108
C138	C	1.325805	-0.698647	-1.284159
H139	H	1.307821	-0.630596	-1.103412
H140	H	1.393812	-0.716524	-1.103333
H141	H	1.377517	-0.560907	-1.247038
H142	H	1.463502	-0.646827	-1.246998
H143	H	1.341164	-0.769267	-1.266221
H144	H	1.255176	-0.683334	-1.266291
H145	H	1.335593	-0.688898	-1.357332
C146	C	1.766262	-0.400192	-0.906447
C147	C	1.747521	-0.489019	-0.844740
C148	C	1.842319	-0.525055	-0.802868
H149	H	1.796761	-0.346816	-0.864489
H150	H	1.812777	-0.417778	-0.961868
H151	H	1.701022	-0.471429	-0.789327
H152	H	1.717036	-0.542416	-0.886675
H153	H	1.888835	-0.542642	-0.858289
H154	H	1.872811	-0.471673	-0.760915
H155	H	1.829617	-0.585333	-0.761003
C156	C	1.634224	-0.252577	-0.912415
C157	C	1.616451	-0.186151	-0.997959
C158	C	1.589624	-0.086165	-0.961629
H159	H	1.689857	-0.225422	-0.871091
H160	H	1.572430	-0.256967	-0.871079
H161	H	1.678238	-0.181758	-1.039277
H162	H	1.560814	-0.213273	-1.039292
H163	H	1.527831	-0.090555	-0.920294
H164	H	1.645261	-0.059020	-0.920305
H165	H	1.577553	-0.041085	-1.019664
H166	H	0.919464	-0.762653	-0.762030
H167	H	1.634239	-0.283769	-1.095668
H168	H	1.118535	-0.762633	-0.762005
H169	H	1.218025	-0.640583	-0.640297
H170	H	1.774904	-1.105047	-0.250163
C171	C	1.247710	-0.371363	-0.371807
C172	C	1.283983	-0.298067	-0.298685
C173	C	1.393716	-0.297920	-0.298452
H174	H	1.272699	-0.353232	-0.439570
H175	H	1.272553	-0.439119	-0.353466
H176	H	1.259150	-0.230326	-0.317032
H177	H	1.259022	-0.316182	-0.230911
H178	H	1.418560	-0.365676	-0.280111
H179	H	1.418695	-0.279791	-0.366219
H180	H	1.418341	-0.248197	-0.248833
