data_functionalizedCrystal
_audit_creation_method	'MofGen! by Chris Wilmer'
_symmetry_space_group_name_H-M	'P1'
_symmetry_Int_Tables_number	1
_symmetry_cell_setting	triclinic
loop_
_symmetry_equiv_pos_as_xyz
  x,y,z
_cell_length_a	17.000383
_cell_length_b	17.038272
_cell_length_c	7.088929
_cell_angle_alpha	96.674532
_cell_angle_beta	84.295322
_cell_angle_gamma	83.355929
loop_
_atom_site_label
_atom_site_type_symbol
_atom_site_fract_x
_atom_site_fract_y
_atom_site_fract_z
O1	O	1.050402	0.036618	0.159120
O2	O	1.383735	0.369952	0.492453
O3	O	1.717069	0.703285	0.825786
O4	O	0.820584	0.064860	0.159096
O5	O	1.153917	0.398193	0.492429
O6	O	1.487250	0.731527	0.825762
O7	O	0.934128	-0.062983	0.159092
O8	O	1.267461	0.270350	0.492426
O9	O	1.600794	0.603683	0.825759
O10	O	0.936858	0.164462	0.159123
O11	O	1.270191	0.497795	0.492456
O12	O	1.603525	0.831128	0.825789
O13	O	0.949299	-0.080105	-0.158883
O14	O	1.282633	0.253229	0.174450
O15	O	1.615966	0.586562	0.507783
O16	O	0.835755	0.047739	-0.158880
O17	O	1.169088	0.381072	0.174453
O18	O	1.502422	0.714405	0.507787
O19	O	1.065574	0.019497	-0.158856
O20	O	1.398907	0.352831	0.174477
O21	O	1.732240	0.686164	0.507811
Cu22	Cu	0.952050	0.032055	-0.187902
Cu23	Cu	1.285383	0.365388	0.145432
Cu24	Cu	1.618716	0.698721	0.478765
Cu25	Cu	0.934108	0.052302	0.188141
Cu26	Cu	1.267441	0.385636	0.521475
Cu27	Cu	1.600774	0.718969	0.854808
O28	O	0.952030	0.147341	-0.158853
O29	O	1.285363	0.480674	0.174481
O30	O	1.618696	0.814007	0.507814
C31	C	0.798619	0.057816	0.000104
C32	C	1.131952	0.391149	0.333438
C33	C	1.465285	0.724483	0.666771
C34	C	0.710566	0.062326	0.000095
C35	C	1.043899	0.395659	0.333428
C36	C	1.377233	0.728992	0.666762
C37	C	0.212318	0.091454	0.000170
C38	C	0.545651	0.424787	0.333503
C39	C	0.878984	0.758121	0.666837
C40	C	0.295053	0.087210	0.000168
C41	C	0.628387	0.420543	0.333501
C42	C	0.961720	0.753877	0.666835
C43	C	0.341061	0.013542	0.000144
C44	C	0.674394	0.346876	0.333477
C45	C	1.007728	0.680209	0.666810
C46	C	0.304328	-0.055884	0.000141
C47	C	0.637661	0.277449	0.333474
C48	C	0.970995	0.610782	0.666807
C49	C	0.221593	-0.051639	0.000156
C50	C	0.554927	0.281695	0.333490
C51	C	0.888260	0.615028	0.666823
C52	C	0.591098	-0.002855	0.000108
C53	C	0.924432	0.330478	0.333441
C54	C	1.257765	0.663811	0.666774
C55	C	0.673839	-0.007096	0.000086
C56	C	1.007172	0.326237	0.333420
C57	C	1.340506	0.659571	0.666753
C58	C	0.664558	0.135999	0.000117
C59	C	0.997891	0.469332	0.333450
C60	C	1.331225	0.802666	0.666784
C61	C	0.581823	0.140237	0.000121
C62	C	0.915156	0.473571	0.333455
C63	C	1.248489	0.806904	0.666788
C64	C	0.545096	0.070811	0.000128
C65	C	0.878430	0.404145	0.333462
C66	C	1.211763	0.737478	0.666795
C67	C	0.425630	0.009202	0.000135
C68	C	0.758964	0.342536	0.333469
C69	C	1.092297	0.675869	0.666802
C70	C	0.460528	0.075153	0.000150
C71	C	0.793861	0.408487	0.333484
C72	C	1.127194	0.741820	0.666817
C73	C	0.939229	-0.100502	0.000104
C74	C	1.272562	0.232831	0.333438
C75	C	1.605896	0.566165	0.666771
C76	C	0.931816	-0.186787	0.000104
C77	C	1.265149	0.146546	0.333438
C78	C	1.598483	0.479879	0.666771
C79	C	0.999874	-0.241562	0.000109
C80	C	1.333207	0.091771	0.333443
C81	C	1.666541	0.425105	0.666776
C82	C	0.992903	-0.322634	0.000127
C83	C	1.326237	0.010699	0.333460
C84	C	1.659570	0.344032	0.666793
C85	C	0.917875	-0.348931	0.000125
C86	C	1.251208	-0.015598	0.333459
C87	C	1.584541	0.317736	0.666792
C88	C	0.849811	-0.294149	0.000126
C89	C	1.183145	0.039184	0.333459
C90	C	1.516478	0.372517	0.666793
C91	C	0.856782	-0.213078	0.000122
C92	C	1.190115	0.120255	0.333456
C93	C	1.523449	0.453589	0.666789
C94	C	0.893248	-0.593001	0.000149
C95	C	1.226581	-0.259668	0.333482
C96	C	1.559914	0.073665	0.666816
C97	C	0.886282	-0.674080	0.000147
C98	C	1.219616	-0.340747	0.333480
C99	C	1.552949	-0.007413	0.666814
C100	C	1.029375	-0.702559	0.000151
C101	C	1.362709	-0.369226	0.333485
C102	C	1.696042	-0.035892	0.666818
C103	C	1.036340	-0.621485	0.000136
C104	C	1.369673	-0.288152	0.333469
C105	C	1.703007	0.045181	0.666803
C106	C	0.968276	-0.566710	0.000147
C107	C	1.301609	-0.233377	0.333480
C108	C	1.634943	0.099956	0.666813
C109	C	0.910748	-0.431800	0.000137
C110	C	1.244081	-0.098467	0.333470
C111	C	1.577415	0.234867	0.666804
C112	C	0.975403	-0.483842	0.000149
C113	C	1.308736	-0.150509	0.333482
C114	C	1.642069	0.182824	0.666815
C115	C	1.087538	0.026541	0.000139
C116	C	1.420872	0.359875	0.333473
C117	C	1.754205	0.693208	0.666806
C118	C	1.175590	0.022032	0.000161
C119	C	1.508924	0.355366	0.333495
C120	C	1.842257	0.688699	0.666828
C121	C	0.946928	0.184860	0.000139
C122	C	1.280262	0.518193	0.333473
C123	C	1.613595	0.851526	0.666806
C124	C	0.954340	0.271146	0.000152
C125	C	1.287674	0.604479	0.333485
C126	C	1.621007	0.937812	0.666819
N127	N	0.964675	0.017813	-0.452390
N128	N	1.298008	0.351146	-0.119057
N129	N	1.631342	0.684479	0.214277
N130	N	0.921488	0.066538	0.452630
N131	N	1.254821	0.399871	0.785963
N132	N	1.588155	0.733205	1.119296
H133	H	0.341794	-0.115865	0.000132
H134	H	0.675127	0.217468	0.333466
H135	H	1.008460	0.550801	0.666799
H136	H	1.036489	-0.462426	0.000192
H137	H	1.369822	-0.129092	0.333525
H138	H	1.703155	0.204241	0.666859
Br139	Br	0.398087	0.175128	0.000202
Br140	Br	0.731420	0.508462	0.333535
Br141	Br	1.064754	0.841795	0.666868
Br142	Br	0.488077	-0.090773	0.000087
Br143	Br	0.821410	0.242560	0.333420
Br144	Br	1.154743	0.575893	0.666754
Br145	Br	1.085273	-0.396970	0.000134
Br146	Br	1.418606	-0.063636	0.333468
Br147	Br	1.751939	0.269697	0.666801
H148	H	0.876730	0.117031	-0.465723
H149	H	1.210063	0.450365	-0.132390
H150	H	1.543396	0.783698	0.200944
Br151	Br	1.138166	-0.585800	0.000199
Br152	Br	1.471499	-0.252466	0.333533
Br153	Br	1.804832	0.080867	0.666866
Br154	Br	1.039293	-0.066343	-0.588477
Br155	Br	1.372627	0.266990	-0.255144
Br156	Br	1.705960	0.600323	0.078189
Br157	Br	1.101705	-0.205884	0.000084
Br158	Br	1.435039	0.127449	0.333417
Br159	Br	1.768372	0.460783	0.666750
Br160	Br	0.171748	-0.145857	0.000152
Br161	Br	0.505081	0.187476	0.333485
Br162	Br	0.838415	0.520809	0.666819
H163	H	0.324951	0.143741	0.000193
H164	H	0.658285	0.477075	0.333526
H165	H	0.991618	0.810408	0.666859
Br166	Br	0.714404	0.230215	0.000119
Br167	Br	1.047738	0.563549	0.333452
Br168	Br	1.381071	0.896882	0.666785
Br169	Br	0.736279	-0.107080	0.000050
Br170	Br	1.069612	0.226253	0.333383
Br171	Br	1.402945	0.559587	0.666716
Br172	Br	1.121742	-0.776899	0.000137
Br173	Br	1.455076	-0.443566	0.333470
Br174	Br	1.788409	-0.110233	0.666803
H175	H	0.174864	0.151441	0.000175
H176	H	0.508197	0.484775	0.333509
H177	H	0.841531	0.818108	0.666842
H178	H	0.849659	-0.453220	0.000132
H179	H	1.182993	-0.119887	0.333465
H180	H	1.516326	0.213446	0.666798
H181	H	0.544368	0.200226	0.000147
H182	H	0.877701	0.533559	0.333480
H183	H	1.211035	0.866892	0.666813
Br184	Br	0.784452	-0.709768	0.000125
Br185	Br	1.117785	-0.376435	0.333459
Br186	Br	1.451118	-0.043102	0.666792
Br187	Br	0.800874	-0.518673	0.000176
Br188	Br	1.134207	-0.185340	0.333509
Br189	Br	1.467540	0.147993	0.666842
H190	H	0.561206	-0.059387	0.000108
H191	H	0.894540	0.273946	0.333442
H192	H	1.227873	0.607280	0.666775
Br193	Br	0.747983	-0.329835	0.000156
Br194	Br	1.081317	0.003498	0.333489
Br195	Br	1.414650	0.336832	0.666823
H196	H	0.801362	-0.168480	0.000118
H197	H	1.134695	0.164853	0.333452
H198	H	1.468028	0.498187	0.666785
