data_functionalizedCrystal
_audit_creation_method	'MofGen! by Chris Wilmer'
_symmetry_space_group_name_H-M	'P1'
_symmetry_Int_Tables_number	1
_symmetry_cell_setting	triclinic
loop_
_symmetry_equiv_pos_as_xyz
  x,y,z
_cell_length_a	29.839131
_cell_length_b	29.839134
_cell_length_c	29.839125
_cell_angle_alpha	90.023632
_cell_angle_beta	89.988394
_cell_angle_gamma	89.963719
loop_
_atom_site_label
_atom_site_type_symbol
_atom_site_fract_x
_atom_site_fract_y
_atom_site_fract_z
Zn1	Zn	-0.179005	-0.686727	-0.254125
Zn2	Zn	0.070995	-0.436727	-0.004125
Zn3	Zn	0.320995	-0.186727	0.245875
Zn4	Zn	0.570995	0.063273	0.495875
Zn5	Zn	-0.254109	-0.686657	-0.178995
Zn6	Zn	-0.004109	-0.436657	0.071005
Zn7	Zn	0.245891	-0.186657	0.321005
Zn8	Zn	0.495891	0.063343	0.571005
Zn9	Zn	-0.178987	-0.611608	-0.178995
Zn10	Zn	0.071013	-0.361608	0.071005
Zn11	Zn	0.321013	-0.111608	0.321005
Zn12	Zn	0.571013	0.138392	0.571005
Zn13	Zn	-0.254102	-0.611557	-0.254083
Zn14	Zn	-0.004102	-0.361557	-0.004083
Zn15	Zn	0.245898	-0.111557	0.245917
Zn16	Zn	0.495898	0.138443	0.495917
O17	O	-0.216551	-0.649137	-0.216549
O18	O	0.033449	-0.399137	0.033451
O19	O	0.283449	-0.149137	0.283451
O20	O	0.533449	0.100863	0.533451
O21	O	-0.188978	-0.749585	-0.244176
O22	O	0.061022	-0.499585	0.005824
O23	O	0.311022	-0.249585	0.255824
O24	O	0.561022	0.000415	0.505824
O25	O	-0.244139	-0.676693	-0.116128
O26	O	0.005861	-0.426693	0.133872
O27	O	0.255861	-0.176693	0.383872
O28	O	0.505861	0.073307	0.633872
O29	O	-0.116122	-0.621623	-0.188978
O30	O	0.133878	-0.371623	0.061022
O31	O	0.383878	-0.121623	0.311022
O32	O	0.633878	0.128377	0.561022
O33	O	-0.244157	-0.749533	-0.188979
O34	O	0.005843	-0.499533	0.061021
O35	O	0.255843	-0.249533	0.311021
O36	O	0.505843	0.000467	0.561021
O37	O	-0.116135	-0.676812	-0.244176
O38	O	0.133865	-0.426812	0.005824
O39	O	0.383865	-0.176812	0.255824
O40	O	0.633865	0.073188	0.505824
O41	O	-0.188948	-0.621555	-0.116127
O42	O	0.061052	-0.371555	0.133873
O43	O	0.311052	-0.121555	0.383873
O44	O	0.561052	0.128445	0.633873
O45	O	-0.188941	-0.548734	-0.188938
O46	O	0.061059	-0.298734	0.061062
O47	O	0.311059	-0.048734	0.311062
O48	O	0.561059	0.201266	0.561062
O49	O	-0.244145	-0.621537	-0.316956
O50	O	0.005855	-0.371537	-0.066956
O51	O	0.255855	-0.121537	0.183044
O52	O	0.505855	0.128463	0.433044
O53	O	-0.244127	-0.548697	-0.244105
O54	O	0.005873	-0.298697	0.005895
O55	O	0.255873	-0.048697	0.255895
O56	O	0.505873	0.201303	0.505895
O57	O	-0.188971	-0.676764	-0.316987
O58	O	0.061029	-0.426764	-0.066987
O59	O	0.311029	-0.176764	0.183013
O60	O	0.561029	0.073236	0.433013
O61	O	-0.316975	-0.676645	-0.188938
O62	O	-0.066975	-0.426645	0.061062
O63	O	0.183025	-0.176645	0.311062
O64	O	0.433025	0.073355	0.561062
O65	O	-0.316970	-0.621469	-0.244105
O66	O	-0.066970	-0.371469	0.005895
O67	O	0.183030	-0.121469	0.255895
O68	O	0.433030	0.128531	0.505895
C69	C	-0.216532	-0.532415	-0.216517
C70	C	0.033468	-0.282415	0.033483
C71	C	0.283468	-0.032415	0.283483
C72	C	0.533468	0.217585	0.533483
C73	C	-0.216534	-0.482480	-0.216514
C74	C	0.033466	-0.232480	0.033486
C75	C	0.283466	0.017520	0.283486
C76	C	0.533466	0.267520	0.533486
C77	C	-0.333273	-0.649056	-0.216527
C78	C	-0.083273	-0.399056	0.033473
C79	C	0.166727	-0.149056	0.283473
C80	C	0.416727	0.100944	0.533473
C81	C	-0.383208	-0.649062	-0.216533
C82	C	-0.133208	-0.399062	0.033467
C83	C	0.116792	-0.149062	0.283467
C84	C	0.366792	0.100938	0.533467
C85	C	-0.216559	-0.649153	-0.333728
C86	C	0.033441	-0.399153	-0.083728
C87	C	0.283441	-0.149153	0.166272
C88	C	0.533441	0.100847	0.416272
C89	C	-0.216563	-0.649159	-0.383662
C90	C	0.033437	-0.399159	-0.133662
C91	C	0.283437	-0.149159	0.116338
C92	C	0.533437	0.100841	0.366338
C93	C	-0.692841	-0.677919	-0.187866
C94	C	-0.442841	-0.427919	0.062134
C95	C	-0.192841	-0.177919	0.312134
C96	C	0.057159	0.072081	0.562134
C97	C	-0.880514	-0.677975	-0.187883
C98	C	-0.630514	-0.427975	0.062117
C99	C	-0.380514	-0.177975	0.312117
C100	C	-0.130514	0.072025	0.562117
O101	O	-0.904771	-0.702445	-0.163493
O102	O	-0.654771	-0.452445	0.086507
O103	O	-0.404771	-0.202445	0.336507
O104	O	-0.154771	0.047555	0.586507
N105	N	-0.903993	-0.649230	-0.216583
N106	N	-0.653993	-0.399230	0.033417
N107	N	-0.403993	-0.149230	0.283417
N108	N	-0.153993	0.100770	0.533417
C109	C	-0.880550	-0.620472	-0.245283
C110	C	-0.630550	-0.370472	0.004717
C111	C	-0.380550	-0.120472	0.254717
C112	C	-0.130550	0.129528	0.504717
O113	O	-0.904826	-0.596028	-0.269698
O114	O	-0.654826	-0.346028	-0.019698
O115	O	-0.404826	-0.096028	0.230302
O116	O	-0.154826	0.153972	0.480302
C117	C	-0.692878	-0.620419	-0.245268
C118	C	-0.442878	-0.370419	0.004732
C119	C	-0.192878	-0.120419	0.254732
C120	C	0.057122	0.129581	0.504732
C121	C	-0.669402	-0.649162	-0.216563
C122	C	-0.419402	-0.399162	0.033437
C123	C	-0.169402	-0.149162	0.283437
C124	C	0.080598	0.100838	0.533437
C125	C	-0.669365	-0.706660	-0.159164
C126	C	-0.419365	-0.456660	0.090836
C127	C	-0.169365	-0.206660	0.340836
C128	C	0.080635	0.043340	0.590836
C129	C	-0.622450	-0.706644	-0.159158
C130	C	-0.372450	-0.456644	0.090842
C131	C	-0.122450	-0.206644	0.340842
C132	C	0.127550	0.043356	0.590842
C133	C	-0.599010	-0.677887	-0.187854
C134	C	-0.349010	-0.427887	0.062146
C135	C	-0.099010	-0.177887	0.312146
C136	C	0.150990	0.072113	0.562146
C137	C	-0.622486	-0.649146	-0.216557
C138	C	-0.372486	-0.399146	0.033443
C139	C	-0.122486	-0.149146	0.283443
C140	C	0.127514	0.100854	0.533443
C141	C	-0.669436	-0.591664	-0.273969
C142	C	-0.419436	-0.341664	-0.023969
C143	C	-0.169436	-0.091664	0.226031
C144	C	0.080564	0.158336	0.476031
C145	C	-0.622515	-0.591654	-0.273964
C146	C	-0.372515	-0.341654	-0.023964
C147	C	-0.122515	-0.091654	0.226036
C148	C	0.127485	0.158346	0.476036
C149	C	-0.599039	-0.620397	-0.245259
C150	C	-0.349039	-0.370397	0.004741
C151	C	-0.099039	-0.120397	0.254741
C152	C	0.150961	0.129603	0.504741
C153	C	-0.552132	-0.620374	-0.245248
C154	C	-0.302132	-0.370374	0.004752
C155	C	-0.052132	-0.120374	0.254752
C156	C	0.197868	0.129626	0.504752
N157	N	-0.528653	-0.649118	-0.216548
N158	N	-0.278653	-0.399118	0.033452
N159	N	-0.028653	-0.149118	0.283452
N160	N	0.221347	0.100882	0.533452
C161	C	-0.552092	-0.677875	-0.187851
C162	C	-0.302092	-0.427875	0.062149
C163	C	-0.052092	-0.177875	0.312149
C164	C	0.197908	0.072125	0.562149
C165	C	-0.979081	-0.620501	-0.245289
C166	C	-0.729081	-0.370501	0.004711
C167	C	-0.479081	-0.120501	0.254711
C168	C	-0.229081	0.129499	0.504711
C169	C	-1.025999	-0.620514	-0.245292
C170	C	-0.775999	-0.370514	0.004708
C171	C	-0.525999	-0.120514	0.254708
C172	C	-0.275999	0.129486	0.504708
C173	C	-1.025959	-0.678017	-0.187893
C174	C	-0.775959	-0.428017	0.062107
C175	C	-0.525959	-0.178017	0.312107
C176	C	-0.275959	0.071983	0.562107
C177	C	-0.979041	-0.678002	-0.187887
C178	C	-0.729041	-0.428002	0.062113
C179	C	-0.479041	-0.178002	0.312113
C180	C	-0.229041	0.071998	0.562113
C181	C	-0.955602	-0.649246	-0.216589
C182	C	-0.705602	-0.399246	0.033411
C183	C	-0.455602	-0.149246	0.283411
C184	C	-0.205602	0.100754	0.533411
C185	C	-0.453567	-0.677839	-0.187841
C186	C	-0.203567	-0.427839	0.062159
C187	C	0.046433	-0.177839	0.312159
C188	C	0.296433	0.072161	0.562159
C189	C	-0.406647	-0.677819	-0.187836
C190	C	-0.156647	-0.427819	0.062164
C191	C	0.093353	-0.177819	0.312164
C192	C	0.343353	0.072181	0.562164
C193	C	-0.406690	-0.620318	-0.245237
C194	C	-0.156690	-0.370318	0.004763
C195	C	0.093310	-0.120318	0.254763
C196	C	0.343310	0.129682	0.504763
C197	C	-0.453606	-0.620336	-0.245240
C198	C	-0.203606	-0.370336	0.004760
C199	C	0.046394	-0.120336	0.254760
C200	C	0.296394	0.129664	0.504760
C201	C	-0.477043	-0.649100	-0.216540
C202	C	-0.227043	-0.399100	0.033460
C203	C	0.022957	-0.149100	0.283460
C204	C	0.272957	0.100900	0.533460
O205	O	-0.527846	-0.595919	-0.269629
O206	O	-0.277846	-0.345919	-0.019629
O207	O	-0.027846	-0.095919	0.230371
O208	O	0.222154	0.154081	0.480371
O209	O	-0.527808	-0.702322	-0.163447
O210	O	-0.277808	-0.452322	0.086553
O211	O	-0.027808	-0.202322	0.336553
O212	O	0.222192	0.047678	0.586553
C213	C	-0.739757	-0.677935	-0.187872
C214	C	-0.489757	-0.427935	0.062128
C215	C	-0.239757	-0.177935	0.312128
C216	C	0.010243	0.072065	0.562128
C217	C	-0.763233	-0.649194	-0.216574
C218	C	-0.513233	-0.399194	0.033426
C219	C	-0.263233	-0.149194	0.283426
C220	C	-0.013233	0.100806	0.533426
C221	C	-0.739794	-0.620437	-0.245271
C222	C	-0.489794	-0.370437	0.004729
C223	C	-0.239794	-0.120437	0.254729
C224	C	0.010206	0.129563	0.504729
C225	C	-0.810151	-0.649207	-0.216578
C226	C	-0.560151	-0.399207	0.033422
C227	C	-0.310151	-0.149207	0.283422
C228	C	-0.060151	0.100793	0.533422
C229	C	-0.833590	-0.677963	-0.187881
C230	C	-0.583590	-0.427963	0.062119
C231	C	-0.333590	-0.177963	0.312119
C232	C	-0.083590	0.072037	0.562119
C233	C	-0.810111	-0.706708	-0.159181
C234	C	-0.560111	-0.456708	0.090819
C235	C	-0.310111	-0.206708	0.340819
C236	C	-0.060111	0.043292	0.590819
C237	C	-0.763196	-0.706692	-0.159175
C238	C	-0.513196	-0.456692	0.090825
C239	C	-0.263196	-0.206692	0.340825
C240	C	-0.013196	0.043308	0.590825
C241	C	-0.763272	-0.591693	-0.273971
C242	C	-0.513272	-0.341693	-0.023971
C243	C	-0.263272	-0.091693	0.226029
C244	C	-0.013272	0.158307	0.476029
C245	C	-0.810188	-0.591711	-0.273974
C246	C	-0.560188	-0.341711	-0.023974
C247	C	-0.310188	-0.091711	0.226026
C248	C	-0.060188	0.158289	0.476026
C249	C	-0.833627	-0.620468	-0.245277
C250	C	-0.583627	-0.370468	0.004723
C251	C	-0.333627	-0.120468	0.254723
C252	C	-0.083627	0.129532	0.504723
C253	C	-0.099372	-0.649231	-0.216582
C254	C	0.150628	-0.399231	0.033418
C255	C	0.400628	-0.149231	0.283418
C256	C	0.650628	0.100769	0.533418
C257	C	-0.049438	-0.649271	-0.216595
C258	C	0.200562	-0.399271	0.033405
C259	C	0.450562	-0.149271	0.283405
C260	C	0.700562	0.100729	0.533405
C261	C	-0.216570	-0.766316	-0.216582
C262	C	0.033430	-0.516316	0.033418
C263	C	0.283430	-0.266316	0.283418
C264	C	0.533430	-0.016316	0.533418
C265	C	-0.216578	-0.816250	-0.216596
C266	C	0.033422	-0.566250	0.033404
C267	C	0.283422	-0.316250	0.283404
C268	C	0.533422	-0.066250	0.533404
C269	C	-0.245329	-0.172827	-0.245240
C270	C	0.004671	0.077173	0.004760
C271	C	0.254671	0.327173	0.254760
C272	C	0.504671	0.577173	0.504760
C273	C	-0.245342	0.014846	-0.245260
C274	C	0.004658	0.264846	0.004740
C275	C	0.254658	0.514846	0.254740
C276	C	0.504658	0.764846	0.504740
O277	O	-0.269802	0.039119	-0.269665
O278	O	-0.019802	0.289119	-0.019665
O279	O	0.230198	0.539119	0.230335
O280	O	0.480198	0.789119	0.480335
N281	N	-0.216567	0.038305	-0.216583
N282	N	0.033433	0.288305	0.033417
N283	N	0.283433	0.538305	0.283417
N284	N	0.533433	0.788305	0.533417
C285	C	-0.187786	0.014843	-0.187902
C286	C	0.062214	0.264843	0.062098
C287	C	0.312214	0.514843	0.312098
C288	C	0.562214	0.764843	0.562098
O289	O	-0.163308	0.039102	-0.163514
O290	O	0.086692	0.289102	0.086486
O291	O	0.336692	0.539102	0.336486
O292	O	0.586692	0.789102	0.586486
C293	C	-0.187771	-0.172830	-0.187884
C294	C	0.062229	0.077170	0.062116
C295	C	0.312229	0.327170	0.312116
C296	C	0.562229	0.577170	0.562116
C297	C	-0.216550	-0.196286	-0.216560
C298	C	0.033450	0.053714	0.033440
C299	C	0.283450	0.303714	0.283440
C300	C	0.533450	0.553714	0.533440
C301	C	-0.274106	-0.196284	-0.273913
C302	C	-0.024106	0.053716	-0.023913
C303	C	0.225894	0.303716	0.226087
C304	C	0.475894	0.553716	0.476087
C305	C	-0.274104	-0.243199	-0.273906
C306	C	-0.024104	0.006801	-0.023906
C307	C	0.225896	0.256801	0.226094
C308	C	0.475896	0.506801	0.476094
C309	C	-0.245325	-0.266658	-0.245226
C310	C	0.004675	-0.016658	0.004774
C311	C	0.254675	0.233342	0.254774
C312	C	0.504675	0.483342	0.504774
C313	C	-0.216549	-0.243201	-0.216553
C314	C	0.033451	0.006799	0.033447
C315	C	0.283451	0.256799	0.283447
C316	C	0.533451	0.506799	0.533447
C317	C	-0.158988	-0.196291	-0.159205
C318	C	0.091012	0.053709	0.090795
C319	C	0.341012	0.303709	0.340795
C320	C	0.591012	0.553709	0.590795
C321	C	-0.158986	-0.243212	-0.159204
C322	C	0.091014	0.006788	0.090796
C323	C	0.341014	0.256788	0.340796
C324	C	0.591014	0.506788	0.590796
C325	C	-0.187765	-0.266668	-0.187880
C326	C	0.062235	-0.016668	0.062120
C327	C	0.312235	0.233332	0.312120
C328	C	0.562235	0.483332	0.562120
C329	C	-0.187769	-0.313576	-0.187865
C330	C	0.062231	-0.063576	0.062135
C331	C	0.312231	0.186424	0.312135
C332	C	0.562231	0.436424	0.562135
N333	N	-0.216543	-0.337035	-0.216542
N334	N	0.033457	-0.087035	0.033458
N335	N	0.283457	0.162965	0.283458
N336	N	0.533457	0.412965	0.533458
C337	C	-0.245321	-0.313576	-0.245222
C338	C	0.004679	-0.063576	0.004778
C339	C	0.254679	0.186424	0.254778
C340	C	0.504679	0.436424	0.504778
C341	C	-0.187796	0.113373	-0.187912
C342	C	0.062204	0.363373	0.062088
C343	C	0.312204	0.613373	0.312088
C344	C	0.562204	0.863373	0.562088
C345	C	-0.187800	0.160291	-0.187916
C346	C	0.062200	0.410291	0.062084
C347	C	0.312200	0.660291	0.312084
C348	C	0.562200	0.910291	0.562084
C349	C	-0.245355	0.160291	-0.245275
C350	C	0.004645	0.410291	0.004725
C351	C	0.254645	0.660291	0.254725
C352	C	0.504645	0.910291	0.504725
C353	C	-0.245353	0.113372	-0.245269
C354	C	0.004647	0.363372	0.004731
C355	C	0.254647	0.613372	0.254731
C356	C	0.504647	0.863372	0.504731
C357	C	-0.216570	0.089914	-0.216589
C358	C	0.033430	0.339914	0.033411
C359	C	0.283430	0.589914	0.283411
C360	C	0.533430	0.839914	0.533411
C361	C	-0.245316	-0.412102	-0.245205
C362	C	0.004684	-0.162102	0.004795
C363	C	0.254684	0.087898	0.254795
C364	C	0.504684	0.337898	0.504795
C365	C	-0.245313	-0.459021	-0.245194
C366	C	0.004687	-0.209021	0.004806
C367	C	0.254687	0.040979	0.254806
C368	C	0.504687	0.290979	0.504806
C369	C	-0.187756	-0.459017	-0.187837
C370	C	0.062244	-0.209017	0.062163
C371	C	0.312244	0.040983	0.312163
C372	C	0.562244	0.290983	0.562163
C373	C	-0.187760	-0.412102	-0.187846
C374	C	0.062240	-0.162102	0.062154
C375	C	0.312240	0.087898	0.312154
C376	C	0.562240	0.337898	0.562154
C377	C	-0.216542	-0.388645	-0.216534
C378	C	0.033458	-0.138645	0.033466
C379	C	0.283458	0.111355	0.283466
C380	C	0.533458	0.361355	0.533466
O381	O	-0.163317	-0.337878	-0.163477
O382	O	0.086683	-0.087878	0.086523
O383	O	0.336683	0.162122	0.336523
O384	O	0.586683	0.412122	0.586523
O385	O	-0.269788	-0.337843	-0.269613
O386	O	-0.019788	-0.087843	-0.019613
O387	O	0.230212	0.162157	0.230387
O388	O	0.480212	0.412157	0.480387
C389	C	-0.245331	-0.125912	-0.245247
C390	C	0.004669	0.124088	0.004753
C391	C	0.254669	0.374088	0.254753
C392	C	0.504669	0.624088	0.504753
C393	C	-0.216554	-0.102455	-0.216574
C394	C	0.033446	0.147545	0.033426
C395	C	0.283446	0.397545	0.283426
C396	C	0.533446	0.647545	0.533426
C397	C	-0.187775	-0.125914	-0.187893
C398	C	0.062225	0.124086	0.062107
C399	C	0.312225	0.374086	0.312107
C400	C	0.562225	0.624086	0.562107
C401	C	-0.216558	-0.055537	-0.216577
C402	C	0.033442	0.194463	0.033423
C403	C	0.283442	0.444463	0.283423
C404	C	0.533442	0.694463	0.533423
C405	C	-0.245336	-0.032078	-0.245258
C406	C	0.004664	0.217922	0.004742
C407	C	0.254664	0.467922	0.254742
C408	C	0.504664	0.717922	0.504742
C409	C	-0.274111	-0.055537	-0.273934
C410	C	-0.024111	0.194463	-0.023934
C411	C	0.225889	0.444463	0.226066
C412	C	0.475889	0.694463	0.476066
C413	C	-0.274109	-0.102453	-0.273927
C414	C	-0.024109	0.147547	-0.023927
C415	C	0.225891	0.397547	0.226073
C416	C	0.475891	0.647547	0.476073
C417	C	-0.159001	-0.102455	-0.159217
C418	C	0.090999	0.147545	0.090783
C419	C	0.340999	0.397545	0.340783
C420	C	0.590999	0.647545	0.590783
C421	C	-0.159006	-0.055540	-0.159226
C422	C	0.090994	0.194460	0.090774
C423	C	0.340994	0.444460	0.340774
C424	C	0.590994	0.694460	0.590774
C425	C	-0.187784	-0.032081	-0.187906
C426	C	0.062216	0.217919	0.062094
C427	C	0.312216	0.467919	0.312094
C428	C	0.562216	0.717919	0.562094
C429	C	-0.245189	-0.620434	-0.740234
C430	C	0.004811	-0.370434	-0.490234
C431	C	0.254811	-0.120434	-0.240234
C432	C	0.504811	0.129566	0.009766
C433	C	-0.245240	-0.620418	-0.552561
C434	C	0.004760	-0.370418	-0.302561
C435	C	0.254760	-0.120418	-0.052561
C436	C	0.504760	0.129582	0.197439
O437	O	-0.269664	-0.595950	-0.528282
O438	O	-0.019664	-0.345950	-0.278282
O439	O	0.230336	-0.095950	-0.028282
O440	O	0.480336	0.154050	0.221718
N441	N	-0.216521	-0.649169	-0.529108
N442	N	0.033479	-0.399169	-0.279108
N443	N	0.283479	-0.149169	-0.029108
N444	N	0.533479	0.100831	0.220892
C445	C	-0.187785	-0.677925	-0.552576
C446	C	0.062215	-0.427925	-0.302576
C447	C	0.312215	-0.177925	-0.052576
C448	C	0.562215	0.072075	0.197424
O449	O	-0.163356	-0.702376	-0.528321
O450	O	0.086644	-0.452376	-0.278321
O451	O	0.336644	-0.202376	-0.028321
O452	O	0.586644	0.047624	0.221679
C453	C	-0.187731	-0.677938	-0.740248
C454	C	0.062269	-0.427938	-0.490248
C455	C	0.312269	-0.177938	-0.240248
C456	C	0.562269	0.072062	0.009752
C457	C	-0.216455	-0.649188	-0.763699
C458	C	0.033545	-0.399188	-0.513699
C459	C	0.283545	-0.149188	-0.263699
C460	C	0.533545	0.100812	-0.013699
C461	C	-0.273910	-0.591686	-0.763684
C462	C	-0.023910	-0.341686	-0.513684
C463	C	0.226090	-0.091686	-0.263684
C464	C	0.476090	0.158314	-0.013684
C465	C	-0.273899	-0.591692	-0.810600
C466	C	-0.023899	-0.341692	-0.560600
C467	C	0.226101	-0.091692	-0.310600
C468	C	0.476101	0.158308	-0.060600
C469	C	-0.245166	-0.620446	-0.834065
C470	C	0.004834	-0.370446	-0.584065
C471	C	0.254834	-0.120446	-0.334065
C472	C	0.504834	0.129554	-0.084065
C473	C	-0.216444	-0.649194	-0.810614
C474	C	0.033556	-0.399194	-0.560614
C475	C	0.283556	-0.149194	-0.310614
C476	C	0.533556	0.100806	-0.060614
C477	C	-0.158993	-0.706691	-0.763715
C478	C	0.091007	-0.456691	-0.513715
C479	C	0.341007	-0.206691	-0.263715
C480	C	0.591007	0.043309	-0.013715
C481	C	-0.158981	-0.706691	-0.810636
C482	C	0.091019	-0.456691	-0.560636
C483	C	0.341019	-0.206691	-0.310636
C484	C	0.591019	0.043309	-0.060636
C485	C	-0.187706	-0.677941	-0.834087
C486	C	0.062294	-0.427941	-0.584087
C487	C	0.312294	-0.177941	-0.334087
C488	C	0.562294	0.072059	-0.084087
C489	C	-0.187699	-0.677954	-0.880994
C490	C	0.062301	-0.427954	-0.630994
C491	C	0.312301	-0.177954	-0.380994
C492	C	0.562301	0.072046	-0.130994
N493	N	-0.216419	-0.649203	-0.904447
N494	N	0.033581	-0.399203	-0.654447
N495	N	0.283581	-0.149203	-0.404447
N496	N	0.533581	0.100797	-0.154447
C497	C	-0.245152	-0.620449	-0.880983
C498	C	0.004848	-0.370449	-0.630983
C499	C	0.254848	-0.120449	-0.380983
C500	C	0.504848	0.129551	-0.130983
C501	C	-0.187816	-0.677916	-0.454045
C502	C	0.062184	-0.427916	-0.204045
C503	C	0.312184	-0.177916	0.045955
C504	C	0.562184	0.072084	0.295955
C505	C	-0.187830	-0.677914	-0.407127
C506	C	0.062170	-0.427914	-0.157127
C507	C	0.312170	-0.177914	0.092873
C508	C	0.562170	0.072086	0.342873
C509	C	-0.245285	-0.620406	-0.407115
C510	C	0.004715	-0.370406	-0.157115
C511	C	0.254715	-0.120406	0.092885
C512	C	0.504715	0.129594	0.342885
C513	C	-0.245273	-0.620411	-0.454034
C514	C	0.004727	-0.370411	-0.204034
C515	C	0.254727	-0.120411	0.045966
C516	C	0.504727	0.129589	0.295966
C517	C	-0.216535	-0.649165	-0.477498
C518	C	0.033465	-0.399165	-0.227498
C519	C	0.283465	-0.149165	0.022502
C520	C	0.533465	0.100835	0.272502
C521	C	-0.245126	-0.620464	-0.979508
C522	C	0.004874	-0.370464	-0.729508
C523	C	0.254874	-0.120464	-0.479508
C524	C	0.504874	0.129536	-0.229508
C525	C	-0.245113	-0.620474	-1.026428
C526	C	0.004887	-0.370474	-0.776428
C527	C	0.254887	-0.120474	-0.526428
C528	C	0.504887	0.129526	-0.276428
C529	C	-0.187656	-0.677980	-1.026436
C530	C	0.062344	-0.427980	-0.776436
C531	C	0.312344	-0.177980	-0.526436
C532	C	0.562344	0.072020	-0.276436
C533	C	-0.187671	-0.677972	-0.979520
C534	C	0.062329	-0.427972	-0.729520
C535	C	0.312329	-0.177972	-0.479520
C536	C	0.562329	0.072028	-0.229520
C537	C	-0.216407	-0.649210	-0.956058
C538	C	0.033593	-0.399210	-0.706058
C539	C	0.283593	-0.149210	-0.456058
C540	C	0.533593	0.100790	-0.206058
O541	O	-0.163285	-0.702406	-0.905301
O542	O	0.086715	-0.452406	-0.655301
O543	O	0.336715	-0.202406	-0.405301
O544	O	0.586715	0.047594	-0.155301
O545	O	-0.269570	-0.595994	-0.905245
O546	O	-0.019570	-0.345994	-0.655245
O547	O	0.230430	-0.095994	-0.405245
O548	O	0.480430	0.154006	-0.155245
C549	C	-0.245200	-0.620428	-0.693318
C550	C	0.004800	-0.370428	-0.443318
C551	C	0.254800	-0.120428	-0.193318
C552	C	0.504800	0.129572	0.056682
C553	C	-0.216478	-0.649176	-0.669868
C554	C	0.033522	-0.399176	-0.419868
C555	C	0.283522	-0.149176	-0.169868
C556	C	0.533522	0.100824	0.080132
C557	C	-0.187745	-0.677930	-0.693332
C558	C	0.062255	-0.427930	-0.443332
C559	C	0.312255	-0.177930	-0.193332
C560	C	0.562255	0.072070	0.056668
C561	C	-0.216492	-0.649173	-0.622950
C562	C	0.033508	-0.399173	-0.372950
C563	C	0.283508	-0.149173	-0.122950
C564	C	0.533508	0.100827	0.127050
C565	C	-0.245225	-0.620419	-0.599485
C566	C	0.004775	-0.370419	-0.349485
C567	C	0.254775	-0.120419	-0.099485
C568	C	0.504775	0.129581	0.150515
C569	C	-0.273945	-0.591668	-0.622938
C570	C	-0.023945	-0.341668	-0.372938
C571	C	0.226055	-0.091668	-0.122938
C572	C	0.476055	0.158332	0.127062
C573	C	-0.273933	-0.591674	-0.669853
C574	C	-0.023933	-0.341674	-0.419853
C575	C	0.226067	-0.091674	-0.169853
C576	C	0.476067	0.158326	0.080147
C577	C	-0.159026	-0.706682	-0.669879
C578	C	0.090974	-0.456682	-0.419879
C579	C	0.340974	-0.206682	-0.169879
C580	C	0.590974	0.043318	0.080121
C581	C	-0.159041	-0.706674	-0.622964
C582	C	0.090959	-0.456674	-0.372964
C583	C	0.340959	-0.206674	-0.122964
C584	C	0.590959	0.043326	0.127036
C585	C	-0.187774	-0.677919	-0.599499
C586	C	0.062226	-0.427919	-0.349499
C587	C	0.312226	-0.177919	-0.099499
C588	C	0.562226	0.072081	0.150501
C589	C	-0.216510	-0.649148	-0.099827
C590	C	0.033490	-0.399148	0.150173
C591	C	0.283490	-0.149148	0.400173
C592	C	0.533490	0.100852	0.650173
C593	C	-0.216380	-0.649228	-0.049893
C594	C	0.033620	-0.399228	0.200107
C595	C	0.283620	-0.149228	0.450107
C596	C	0.533620	0.100772	0.700107
H597	H	-0.387534	-0.701225	-0.164459
H598	H	-0.137534	-0.451225	0.085541
H599	H	0.112466	-0.201225	0.335541
H600	H	0.362466	0.048775	0.585541
H601	H	-0.297288	-0.568279	-0.829689
H602	H	-0.047288	-0.318279	-0.579689
H603	H	0.202712	-0.068279	-0.329689
H604	H	0.452712	0.181721	-0.079689
F605	F	-0.304506	-0.561074	-0.694806
F606	F	-0.054506	-0.311074	-0.444806
F607	F	0.195494	-0.061074	-0.194806
F608	F	0.445494	0.188926	0.055194
H609	H	-0.297308	-0.568268	-0.744584
H610	H	-0.047308	-0.318268	-0.494584
H611	H	0.202692	-0.068268	-0.244584
H612	H	0.452692	0.181732	0.005416
H613	H	-0.268662	-0.597000	-0.473124
H614	H	-0.018662	-0.347000	-0.223124
H615	H	0.231338	-0.097000	0.026876
H616	H	0.481338	0.153000	0.276876
H617	H	-0.268681	-0.596994	-0.388002
H618	H	-0.018681	-0.346994	-0.138002
H619	H	0.231319	-0.096994	0.111998
H620	H	0.481319	0.153006	0.361998
F621	F	-0.954060	-0.708594	-0.157336
F622	F	-0.704060	-0.458594	0.092664
F623	F	-0.454060	-0.208594	0.342664
F624	F	-0.204060	0.041406	0.592664
F625	F	-0.275946	-0.483983	-0.275715
F626	F	-0.025946	-0.233983	-0.025715
F627	F	0.224054	0.016017	0.224285
F628	F	0.474054	0.266017	0.474285
F629	F	-0.128374	-0.030581	-0.128702
F630	F	0.121626	0.219419	0.121298
F631	F	0.371626	0.469419	0.371298
F632	F	0.621626	0.719419	0.621298
F633	F	-0.157175	0.185250	-0.157390
F634	F	0.092825	0.435250	0.092610
F635	F	0.342825	0.685250	0.342610
F636	F	0.592825	0.935250	0.592610
F637	F	-0.738332	-0.561085	-0.304516
F638	F	-0.488332	-0.311085	-0.054516
F639	F	-0.238332	-0.061085	0.195484
F640	F	0.011668	0.188915	0.445484
H641	H	-0.829204	-0.730121	-0.135814
H642	H	-0.579204	-0.480121	0.114186
H643	H	-0.329204	-0.230121	0.364186
H644	H	-0.079204	0.019879	0.614186
H645	H	-0.297541	-0.177188	-0.297271
H646	H	-0.047541	0.072812	-0.047271
H647	H	0.202459	0.322812	0.202729
H648	H	0.452459	0.572812	0.452729
F649	F	-0.157263	-0.708519	-0.382174
F650	F	0.092737	-0.458519	-0.132174
F651	F	0.342737	-0.208519	0.117826
F652	F	0.592737	0.041481	0.367826
H653	H	-0.387599	-0.596903	-0.268600
H654	H	-0.137599	-0.346903	-0.018600
H655	H	0.112401	-0.096903	0.231400
H656	H	0.362401	0.153097	0.481400
F657	F	-0.275948	-0.387144	-0.275738
F658	F	-0.025948	-0.137144	-0.025738
F659	F	0.224052	0.112856	0.224262
F660	F	0.474052	0.362856	0.474262
H661	H	-0.603434	-0.568238	-0.297337
H662	H	-0.353434	-0.318238	-0.047337
H663	H	-0.103434	-0.068238	0.202663
H664	H	0.146566	0.181762	0.452663
H665	H	-0.297538	-0.262293	-0.297258
H666	H	-0.047538	-0.012293	-0.047258
H667	H	0.202462	0.237707	0.202742
H668	H	0.452462	0.487707	0.452742
F669	F	-0.738217	-0.737286	-0.128624
F670	F	-0.488217	-0.487286	0.121376
F671	F	-0.238217	-0.237286	0.371376
F672	F	0.011783	0.012714	0.621376
H673	H	-0.829298	-0.568301	-0.297349
H674	H	-0.579298	-0.318301	-0.047349
H675	H	-0.329298	-0.068301	0.202651
H676	H	-0.079298	0.181699	0.452651
F677	F	-0.157236	-0.708531	-0.479011
F678	F	0.092764	-0.458531	-0.229011
F679	F	0.342764	-0.208531	0.020989
F680	F	0.592764	0.041469	0.270989
H681	H	-0.135553	-0.177201	-0.135854
H682	H	0.114447	0.072799	0.114146
H683	H	0.364447	0.322799	0.364146
H684	H	0.614447	0.572799	0.614146
F685	F	-0.275983	0.088412	-0.275789
F686	F	-0.025983	0.338412	-0.025789
F687	F	0.224017	0.588412	0.224211
F688	F	0.474017	0.838412	0.474211
H689	H	-0.268788	0.179399	-0.268628
H690	H	-0.018788	0.429399	-0.018628
H691	H	0.231212	0.679399	0.231372
H692	H	0.481212	0.929399	0.481372
H693	H	-0.164357	0.094278	-0.164556
H694	H	0.085643	0.344278	0.085444
H695	H	0.335643	0.594278	0.335444
H696	H	0.585643	0.844278	0.585444
F697	F	-1.050913	-0.708621	-0.157350
F698	F	-0.800913	-0.458621	0.092650
F699	F	-0.550913	-0.208621	0.342650
F700	F	-0.300913	0.041379	0.592650
F701	F	-0.157079	-0.708581	-1.051417
F702	F	0.092921	-0.458581	-0.801417
F703	F	0.342921	-0.208581	-0.551417
F704	F	0.592921	0.041419	-0.301417
H705	H	-0.135544	-0.262309	-0.135852
H706	H	0.114456	-0.012309	0.114148
H707	H	0.364456	0.237691	0.364148
H708	H	0.614456	0.487691	0.614148
F709	F	-0.128390	-0.737292	-0.835606
F710	F	0.121610	-0.487292	-0.585606
F711	F	0.371610	-0.237292	-0.335606
F712	F	0.621610	0.012708	-0.085606
H713	H	-0.164284	-0.701385	-0.960426
H714	H	0.085716	-0.451385	-0.710426
H715	H	0.335716	-0.201385	-0.460426
H716	H	0.585716	0.048615	-0.210426
H717	H	-0.135650	-0.730090	-0.603874
H718	H	0.114350	-0.480090	-0.353874
H719	H	0.364350	-0.230090	-0.103874
H720	H	0.614350	0.019910	0.146126
F721	F	-0.157137	-0.387137	-0.157320
F722	F	0.092863	-0.137137	0.092680
F723	F	0.342863	0.112863	0.342680
F724	F	0.592863	0.362863	0.592680
H725	H	-0.164327	-0.478126	-0.164485
H726	H	0.085673	-0.228126	0.085515
H727	H	0.335673	0.021874	0.335515
H728	H	0.585673	0.271874	0.585515
F729	F	-0.304741	-0.030562	-0.304456
F730	F	-0.054741	0.219438	-0.054456
F731	F	0.195259	0.469438	0.195544
F732	F	0.445259	0.719438	0.445544
F733	F	-0.304526	-0.561067	-0.597957
F734	F	-0.054526	-0.311067	-0.347957
F735	F	0.195474	-0.061067	-0.097957
F736	F	0.445474	0.188933	0.152043
H737	H	-0.135628	-0.730097	-0.688980
H738	H	0.114372	-0.480097	-0.438980
H739	H	0.364372	-0.230097	-0.188980
H740	H	0.614372	0.019903	0.061020
F741	F	-0.275710	-0.589853	-0.954544
F742	F	-0.025710	-0.339853	-0.704544
F743	F	0.224290	-0.089853	-0.454544
F744	F	0.474290	0.160147	-0.204544
H745	H	-0.135603	-0.730103	-0.744630
H746	H	0.114397	-0.480103	-0.494630
H747	H	0.364397	-0.230103	-0.244630
H748	H	0.614397	0.019897	0.005370
H749	H	-0.472721	-0.596933	-0.268615
H750	H	-0.222721	-0.346933	-0.018615
H751	H	0.027279	-0.096933	0.231385
H752	H	0.277279	0.153067	0.481385
H753	H	-0.297544	-0.121547	-0.297278
H754	H	-0.047544	0.128453	-0.047278
H755	H	0.202456	0.378453	0.202722
H756	H	0.452456	0.628453	0.452722
H757	H	-0.135566	-0.121551	-0.135861
H758	H	0.114434	0.128449	0.114139
H759	H	0.364434	0.378449	0.364139
H760	H	0.614434	0.628449	0.614139
H761	H	-0.472643	-0.701263	-0.164472
H762	H	-0.222643	-0.451263	0.085528
H763	H	0.027357	-0.201263	0.335528
H764	H	0.277357	0.048737	0.585528
H765	H	-0.268505	-0.597062	-1.045519
H766	H	-0.018505	-0.347062	-0.795519
H767	H	0.231495	-0.097062	-0.545519
H768	H	0.481495	0.152938	-0.295519
H769	H	-0.603338	-0.730050	-0.135785
H770	H	-0.353338	-0.480050	0.114215
H771	H	-0.103338	-0.230050	0.364215
H772	H	0.146662	0.019950	0.614215
H773	H	-0.688444	-0.730080	-0.135795
H774	H	-0.438444	-0.480080	0.114205
H775	H	-0.188444	-0.230080	0.364205
H776	H	0.061556	0.019920	0.614205
F777	F	-1.050979	-0.589917	-0.275839
F778	F	-0.800979	-0.339917	-0.025839
F779	F	-0.550979	-0.089917	0.224161
F780	F	-0.300979	0.160083	0.474161
H781	H	-0.960000	-0.597083	-0.268661
H782	H	-0.710000	-0.347083	-0.018661
H783	H	-0.460000	-0.097083	0.231339
H784	H	-0.210000	0.152917	0.481339
F785	F	-0.694411	-0.561075	-0.304526
F786	F	-0.444411	-0.311075	-0.054526
F787	F	-0.194411	-0.061075	0.195474
F788	F	0.055589	0.188925	0.445474
