data_functionalizedCrystal
_audit_creation_method	'MofGen! by Chris Wilmer'
_symmetry_space_group_name_H-M	'P1'
_symmetry_Int_Tables_number	1
_symmetry_cell_setting	triclinic
loop_
_symmetry_equiv_pos_as_xyz
  x,y,z
_cell_length_a	14.044220
_cell_length_b	14.519709
_cell_length_c	13.596369
_cell_angle_alpha	90.006934
_cell_angle_beta	89.995243
_cell_angle_gamma	91.565489
loop_
_atom_site_label
_atom_site_type_symbol
_atom_site_fract_x
_atom_site_fract_y
_atom_site_fract_z
O1	O	1.258085	-0.222370	-0.081793
O2	O	1.591418	0.110963	0.251540
O3	O	1.924751	0.444297	0.584874
O4	O	0.982102	-0.214346	-0.081795
O5	O	1.315435	0.118988	0.251538
O6	O	1.648768	0.452321	0.584871
O7	O	1.127410	-0.084710	-0.081785
O8	O	1.460744	0.248624	0.251548
O9	O	1.794077	0.581957	0.584881
O10	O	1.112776	-0.352006	-0.081803
O11	O	1.446109	-0.018673	0.251530
O12	O	1.779443	0.314661	0.584863
O13	O	1.127396	-0.084701	0.081798
O14	O	1.460729	0.248632	0.415131
O15	O	1.794063	0.581966	0.748464
O16	O	0.982087	-0.214337	0.081787
O17	O	1.315421	0.118996	0.415121
O18	O	1.648754	0.452330	0.748454
O19	O	1.258070	-0.222361	0.081790
O20	O	1.591403	0.110972	0.415123
O21	O	1.924737	0.444305	0.748456
Zn22	Zn	1.120076	-0.218348	0.107761
Zn23	Zn	1.453410	0.114986	0.441094
Zn24	Zn	1.786743	0.448319	0.774428
Zn25	Zn	1.120095	-0.218359	-0.107767
Zn26	Zn	1.453429	0.114974	0.225567
Zn27	Zn	1.786762	0.448307	0.558900
O28	O	1.112761	-0.351997	0.081780
O29	O	1.446095	-0.018664	0.415113
O30	O	1.779428	0.314669	0.748446
C31	C	1.126721	-0.050290	0.000006
C32	C	1.460054	0.283043	0.333340
C33	C	1.793388	0.616376	0.666673
C34	C	1.124677	0.052256	0.000007
C35	C	1.458011	0.385589	0.333340
C36	C	1.791344	0.718922	0.666673
C37	C	0.946774	-0.210829	-0.000004
C38	C	1.280107	0.122504	0.333329
C39	C	1.613441	0.455838	0.666662
C40	C	0.841531	-0.200352	-0.000005
C41	C	1.174864	0.132982	0.333329
C42	C	1.508197	0.466315	0.666662
C43	C	1.293398	-0.225878	-0.000004
C44	C	1.626731	0.107455	0.333330
C45	C	1.960064	0.440789	0.666663
C46	C	1.398641	-0.236355	-0.000009
C47	C	1.731975	0.096978	0.333324
C48	C	2.065308	0.430311	0.666657
C49	C	1.591335	-0.255510	-0.000010
C50	C	1.924668	0.077824	0.333324
C51	C	2.258002	0.411157	0.666657
C52	C	1.648842	-0.181201	-0.000005
C53	C	1.982176	0.152132	0.333329
C54	C	2.315509	0.485465	0.666662
C55	C	1.756064	-0.191859	-0.000005
C56	C	2.089397	0.141474	0.333329
C57	C	2.422730	0.474807	0.666662
C58	C	1.484104	-0.244853	-0.000010
C59	C	1.817437	0.088480	0.333324
C60	C	2.150770	0.421813	0.666657
C61	C	1.113451	-0.386417	-0.000014
C62	C	1.446784	-0.053083	0.333319
C63	C	1.780117	0.280250	0.666653
C64	C	1.115494	-0.488963	-0.000021
C65	C	1.448828	-0.155629	0.333312
C66	C	1.782161	0.177704	0.666646
N67	N	1.120070	-0.218340	0.254853
N68	N	1.453404	0.114993	0.588186
N69	N	1.786737	0.448327	0.921519
C70	C	1.117153	0.427758	-0.000019
C71	C	1.450487	0.761092	0.333314
C72	C	1.783820	1.094425	0.666648
C73	C	1.119243	0.323282	-0.000011
C74	C	1.452576	0.656615	0.333322
C75	C	1.785909	0.989949	0.666655
C76	C	1.120915	0.240010	-0.000005
C77	C	1.454248	0.573344	0.333328
C78	C	1.787582	0.906677	0.666662
C79	C	1.123005	0.135527	0.000000
C80	C	1.456338	0.468861	0.333334
C81	C	1.789672	0.802194	0.666667
N82	N	1.120109	-0.218360	-0.254858
N83	N	1.453442	0.114973	0.078475
N84	N	1.786776	0.448306	0.411808
C85	C	1.120094	-0.218360	0.656144
C86	C	1.453428	0.114973	0.989477
C87	C	1.786761	0.448307	1.322810
C88	C	1.120085	-0.218357	0.544492
C89	C	1.453418	0.114976	0.877826
C90	C	1.786751	0.448309	1.211159
C91	C	1.120083	-0.218351	0.455502
C92	C	1.453416	0.114983	0.788835
C93	C	1.786749	0.448316	1.122168
C94	C	1.120072	-0.218347	0.343843
C95	C	1.453406	0.114987	0.677177
C96	C	1.786739	0.448320	1.010510
H97	H	1.622626	-0.327125	-0.000015
H98	H	1.955959	0.006208	0.333318
H99	H	2.289292	0.339541	0.666651
O100	O	1.611676	-0.095687	0.000036
O101	O	1.945010	0.237646	0.333369
O102	O	2.278343	0.570979	0.666703
C103	C	1.686264	-0.028690	0.000010
C104	C	2.019597	0.304643	0.333343
C105	C	2.352930	0.637976	0.666676
H106	H	1.753532	-0.059959	0.030984
H107	H	2.086866	0.273374	0.364317
H108	H	2.420199	0.606707	0.697651
H109	H	1.665391	0.032245	0.047497
H110	H	1.998724	0.365579	0.380830
H111	H	2.332058	0.698912	0.714163
H112	H	1.700181	-0.004181	-0.078471
H113	H	2.033514	0.329153	0.254863
H114	H	2.366847	0.662486	0.588196
