data_functionalizedCrystal
_audit_creation_method	'MofGen! by Chris Wilmer'
_symmetry_space_group_name_H-M	'P1'
_symmetry_Int_Tables_number	1
_symmetry_cell_setting	triclinic
loop_
_symmetry_equiv_pos_as_xyz
  x,y,z
_cell_length_a	16.992694
_cell_length_b	12.837942
_cell_length_c	16.053802
_cell_angle_alpha	92.838962
_cell_angle_beta	87.249047
_cell_angle_gamma	92.748582
loop_
_atom_site_label
_atom_site_type_symbol
_atom_site_fract_x
_atom_site_fract_y
_atom_site_fract_z
O1	O	1.059913	0.217066	-0.069322
O2	O	0.831447	0.214638	-0.069347
O3	O	0.940614	0.064530	-0.069330
O4	O	0.950746	0.367174	-0.069339
O5	O	0.934602	0.072756	0.069528
O6	O	0.825435	0.222864	0.069511
O7	O	1.053901	0.225292	0.069536
Zn8	Zn	0.938714	0.225384	0.091570
Zn9	Zn	0.946634	0.214546	-0.091381
O10	O	0.944734	0.375400	0.069519
C11	C	0.798996	0.215629	0.000079
C12	C	0.711256	0.206315	0.000070
C13	C	0.667730	0.296178	0.000068
C14	C	0.585288	0.287422	0.000079
C15	C	0.546375	0.188801	0.000087
C16	C	0.589907	0.098931	0.000092
C17	C	0.672346	0.107689	0.000086
C18	C	0.300064	0.152502	0.000111
C19	C	0.217618	0.143751	0.000114
C20	C	0.213006	0.332243	0.000103
C21	C	0.295447	0.340992	0.000092
C22	C	0.338972	0.251122	0.000101
N23	N	0.462107	0.179847	0.000097
N24	N	0.423238	0.260077	0.000098
C25	C	0.934185	0.029738	0.000098
C26	C	0.923977	-0.086184	0.000096
C27	C	1.046699	-0.316977	0.000092
C28	C	1.037111	-0.425897	0.000089
C29	C	0.895215	-0.412948	0.000082
C30	C	0.904802	-0.304027	0.000085
C31	C	0.980547	-0.256046	0.000091
C32	C	0.990134	-0.147123	0.000099
C33	C	0.848238	-0.134176	0.000086
C34	C	0.838650	-0.243097	0.000084
C35	C	1.086353	0.224300	0.000108
C36	C	1.174092	0.233614	0.000112
C37	C	0.951163	0.410191	0.000089
C38	C	0.961371	0.526114	0.000086
N39	N	0.933314	0.232780	0.216430
N40	N	0.952040	0.207141	-0.216241
C41	C	0.979785	0.168935	0.260131
C42	C	0.976016	0.174120	0.347537
C43	C	0.925779	0.243156	0.391240
C44	C	0.879303	0.307004	0.347533
C45	C	0.883068	0.301813	0.260129
C46	C	0.909329	0.265799	0.652647
C47	C	0.905569	0.270987	0.740058
C48	C	1.002281	0.138101	0.740056
C49	C	1.006046	0.132921	0.652650
C50	C	0.959566	0.196765	0.608950
N51	N	0.921927	0.248459	0.480584
N52	N	0.963414	0.191455	0.519608
H53	H	0.335492	0.079324	0.000119
H54	H	1.040121	0.086121	0.775644
H55	H	0.327125	0.421299	0.000076
H56	H	0.558216	0.018632	0.000110
O57	O	0.765121	-0.289838	-0.000031
C58	C	0.758430	-0.356687	-0.071960
H59	H	0.819628	-0.380042	-0.095938
H60	H	0.729287	-0.314494	-0.122315
C61	C	0.632654	-0.426474	-0.020667
C62	C	0.707818	-0.455166	-0.050113
H63	H	0.601432	-0.487218	-0.007193
H64	H	0.637160	-0.381434	0.027792
H65	H	0.608379	-0.391311	-0.062635
H66	H	0.732096	-0.490316	-0.008142
H67	H	0.703315	-0.500214	-0.098564
O68	O	0.830546	0.374203	0.389890
C69	C	0.852011	0.477266	0.368531
H70	H	0.885150	0.475912	0.305066
H71	H	0.891571	0.515733	0.417715
C72	C	0.736552	0.541378	0.442437
C73	C	0.777248	0.539715	0.364486
H74	H	0.690436	0.579902	0.439946
H75	H	0.722092	0.471943	0.456831
H76	H	0.769527	0.573432	0.483416
H77	H	0.744277	0.507650	0.323511
H78	H	0.791701	0.609146	0.350086
O79	O	1.028603	0.101782	0.217810
C80	C	1.068824	0.046561	0.275130
H81	H	1.033703	0.046380	0.337439
H82	H	1.129564	0.085881	0.284414
C83	C	1.121288	-0.066409	0.164502
C84	C	1.078148	-0.066639	0.241029
H85	H	1.127044	-0.136235	0.143467
H86	H	1.094193	-0.029203	0.125884
H87	H	1.171901	-0.033637	0.172250
H88	H	1.027534	-0.099399	0.233279
H89	H	1.105235	-0.103853	0.279645
O90	O	0.542931	0.374635	-0.000042
C91	C	0.498224	0.370953	-0.071966
H92	H	0.488906	0.286392	-0.095929
H93	H	0.531032	0.417839	-0.122333
C94	C	0.429100	0.521684	-0.020692
C95	C	0.417650	0.417823	-0.050119
H96	H	0.379400	0.550599	-0.007218
H97	H	0.459221	0.524168	0.027764
H98	H	0.456443	0.560742	-0.062670
H99	H	0.390317	0.378764	-0.008138
H100	H	0.387522	0.415334	-0.098567
H101	H	0.707785	0.034512	0.000087
H102	H	1.051809	-0.108058	0.000107
O103	O	1.021046	0.111992	0.390021
C104	C	0.971818	0.047116	0.440607
H105	H	0.910597	0.038582	0.414280
H106	H	0.967269	0.083341	0.506848
C107	C	1.082082	-0.050677	0.474282
C108	C	1.006891	-0.061165	0.441942
H109	H	1.103717	-0.117469	0.475110
H110	H	1.115249	-0.006966	0.440204
H111	H	1.078281	-0.020486	0.529480
H112	H	1.010695	-0.091344	0.386742
H113	H	0.973726	-0.104884	0.476011
O114	O	0.837842	0.363683	0.217637
C115	C	0.787187	0.300748	0.167078
H116	H	0.778577	0.219940	0.193430
H117	H	0.814324	0.293412	0.100833
C118	C	0.717398	0.450320	0.133374
C119	C	0.706819	0.351073	0.165744
H120	H	0.667824	0.481363	0.132547
H121	H	0.751527	0.492722	0.167434
H122	H	0.740015	0.444192	0.078173
H123	H	0.684211	0.357202	0.220947
H124	H	0.672684	0.308673	0.131693
H125	H	0.177559	0.405409	0.000097
O126	O	1.120330	-0.270530	0.000061
C127	C	1.176662	-0.347666	0.000087
H128	H	1.150168	-0.424968	-0.026203
H129	H	1.194575	-0.357295	0.066706
C130	C	1.282330	-0.219552	-0.022074
C131	C	1.249791	-0.314493	-0.054370
H132	H	1.327441	-0.199089	-0.055662
H133	H	1.244378	-0.167583	-0.022089
H134	H	1.297251	-0.227589	0.033441
H135	H	1.234861	-0.306452	-0.109880
H136	H	1.287742	-0.366460	-0.054367
O137	O	1.054612	0.065755	0.609975
C138	C	1.109640	0.122284	0.559120
H139	H	1.116486	0.206171	0.585447
H140	H	1.087896	0.121988	0.493020
C141	C	1.181468	-0.031913	0.524959
C142	C	1.189881	0.071115	0.557299
H143	H	1.230963	-0.063478	0.523832
H144	H	1.144393	-0.070000	0.559218
H145	H	1.163345	-0.032146	0.469878
H146	H	1.207994	0.071346	0.612381
H147	H	1.226961	0.109201	0.523048
H148	H	1.090979	-0.475503	0.000087
O149	O	0.856831	0.338025	0.782643
C150	C	0.863466	0.328897	0.869158
H151	H	0.922772	0.295870	0.881085
H152	H	0.813838	0.274317	0.893979
C153	C	0.784803	0.477838	0.899374
C154	C	0.857646	0.437281	0.914023
H155	H	0.781210	0.544693	0.927051
H156	H	0.780330	0.483986	0.841087
H157	H	0.743454	0.432344	0.920058
H158	H	0.898993	0.482768	0.893330
H159	H	0.862126	0.431144	0.972308
O160	O	0.864106	0.327674	0.610163
C161	C	0.813447	0.264753	0.559598
H162	H	0.804825	0.183944	0.585947
H163	H	0.840588	0.257414	0.493355
C164	C	0.743682	0.414345	0.525894
C165	C	0.733087	0.315097	0.558260
H166	H	0.694113	0.445400	0.525065
H167	H	0.777813	0.456737	0.559958
H168	H	0.766302	0.408215	0.470694
H169	H	0.710477	0.321229	0.613463
H170	H	0.698949	0.272707	0.524206
H171	H	0.794372	-0.084554	0.000092
H172	H	0.699407	0.376486	0.000061
H173	H	0.185938	0.063438	0.000120
H174	H	0.833547	-0.452034	0.000069
