data_functionalizedCrystal
_audit_creation_method	'MofGen! by Chris Wilmer'
_symmetry_space_group_name_H-M	'P1'
_symmetry_Int_Tables_number	1
_symmetry_cell_setting	triclinic
loop_
_symmetry_equiv_pos_as_xyz
  x,y,z
_cell_length_a	13.262402
_cell_length_b	13.261948
_cell_length_c	9.130313
_cell_angle_alpha	74.074518
_cell_angle_beta	105.914812
_cell_angle_gamma	88.762785
loop_
_atom_site_label
_atom_site_type_symbol
_atom_site_fract_x
_atom_site_fract_y
_atom_site_fract_z
O1	O	1.393261	0.141419	0.376916
O2	O	1.087749	0.156785	0.249078
O3	O	1.248196	-0.003668	0.376940
O4	O	1.232815	0.301872	0.249054
O5	O	1.248185	-0.003672	0.620537
O6	O	1.087738	0.156781	0.492674
O7	O	1.393250	0.141414	0.620513
Cu8	Cu	1.240493	0.149097	0.578835
Cu9	Cu	1.240506	0.149103	0.290755
O10	O	1.232804	0.301867	0.492650
C11	C	1.048637	0.155921	0.355639
C12	C	0.932110	0.153338	0.310244
C13	C	0.877370	0.152126	0.156129
C14	C	0.767886	0.149710	0.113476
C15	C	0.713132	0.148497	0.224937
C16	C	0.767872	0.149702	0.379058
C17	C	0.877366	0.152127	0.421712
C18	C	0.713127	0.148498	0.490519
C19	C	0.767868	0.149703	0.644641
C20	C	0.877351	0.152126	0.687287
C21	C	0.932105	0.153339	0.575826
C22	C	0.603634	0.146073	0.447866
C23	C	0.603629	0.146074	0.713448
C24	C	0.713113	0.148490	0.756101
C25	C	1.247330	-0.042781	0.513978
C26	C	1.244753	-0.159319	0.559384
C27	C	1.243524	-0.214089	0.713495
C28	C	1.241091	-0.323581	0.756126
C29	C	1.239879	-0.378311	0.644646
C30	C	1.241101	-0.323540	0.490529
C31	C	1.243543	-0.214038	0.447897
C32	C	1.239898	-0.378261	0.379049
C33	C	1.241120	-0.323489	0.224931
C34	C	1.243560	-0.213998	0.182307
C35	C	1.244772	-0.159268	0.293786
C36	C	1.237457	-0.487762	0.421680
C37	C	1.237475	-0.487711	0.156083
C38	C	1.239908	-0.378220	0.113452
C39	C	1.432363	0.142279	0.513948
C40	C	1.548890	0.144862	0.559334
C41	C	1.233670	0.340980	0.355608
C42	C	1.236246	0.457518	0.310194
N43	N	1.240492	0.149093	0.781459
N44	N	1.240516	0.149099	0.088137
C45	C	1.311561	0.078074	0.914726
C46	C	1.311571	0.078074	1.068067
C47	C	1.169439	0.220121	0.954855
C48	C	1.169425	0.220115	0.801518
H49	H	0.623985	0.146530	0.190199
H50	H	0.723324	0.148730	-0.012010
H51	H	1.369441	0.020243	1.176574
H52	H	1.240101	-0.368169	0.881610
Cl53	Cl	0.946208	0.153655	0.016025
H54	H	1.244519	-0.169519	0.804248
Cl55	Cl	0.534831	0.144558	0.254121
Cl56	Cl	1.069749	0.156376	0.629442
H57	H	1.369427	0.020242	0.898402
Cl58	Cl	1.080068	0.309397	0.633967
H59	H	1.111579	0.277947	0.971203
H60	H	0.559048	0.145090	0.804208
H61	H	0.921916	0.153117	0.812778
H62	H	0.757698	0.149472	0.881589
Cl63	Cl	1.245114	-0.145147	-0.011433
Cl64	Cl	1.235920	-0.556604	0.615420
H65	H	1.237898	-0.467464	0.679366
H66	H	1.246754	-0.070111	0.259084
H67	H	1.240903	-0.333609	-0.012033
Cl68	Cl	1.235955	-0.556507	0.015929
