data_functionalizedCrystal
_audit_creation_method	'MofGen! by Chris Wilmer'
_symmetry_space_group_name_H-M	'P1'
_symmetry_Int_Tables_number	1
_symmetry_cell_setting	triclinic
loop_
_symmetry_equiv_pos_as_xyz
  x,y,z
_cell_length_a	16.120484
_cell_length_b	12.759401
_cell_length_c	16.120297
_cell_angle_alpha	87.118559
_cell_angle_beta	84.385569
_cell_angle_gamma	92.925560
loop_
_atom_site_label
_atom_site_type_symbol
_atom_site_fract_x
_atom_site_fract_y
_atom_site_fract_z
Zn1	Zn	-0.356741	1.552087	0.489387
Zn2	Zn	0.143259	2.052087	0.989387
Zn3	Zn	-0.489431	1.551955	0.356697
Zn4	Zn	0.010569	2.051955	0.856697
Zn5	Zn	-0.349678	1.385777	0.349640
Zn6	Zn	0.150322	1.885777	0.849640
Zn7	Zn	-0.496473	1.366966	0.496428
Zn8	Zn	0.003527	1.866966	0.996428
O9	O	-0.423081	1.464196	0.423038
O10	O	0.076919	1.964196	0.923038
O11	O	-0.374352	1.699089	0.471792
O12	O	0.125648	2.199089	0.971792
O13	O	-0.464989	1.537728	0.238799
O14	O	0.035011	2.037728	0.738799
O15	O	-0.233650	1.415766	0.362278
O16	O	0.266350	1.915766	0.862278
O17	O	-0.471838	1.698992	0.374306
O18	O	0.028162	2.198992	0.874306
O19	O	-0.238839	1.537953	0.464949
O20	O	0.261161	2.037953	0.964949
O21	O	-0.362313	1.415638	0.233614
O22	O	0.137687	1.915638	0.733614
O23	O	-0.369142	1.236261	0.369105
O24	O	0.130858	1.736261	0.869105
O25	O	-0.483840	1.383705	0.612456
O26	O	0.016160	1.883705	1.112456
O27	O	-0.476991	1.222441	0.476949
O28	O	0.023009	1.722441	0.976949
O29	O	-0.381180	1.519713	0.607283
O30	O	0.118820	2.019713	1.107283
O31	O	-0.607330	1.519488	0.381133
O32	O	-0.107330	2.019488	0.881133
O33	O	-0.612504	1.383577	0.483792
O34	O	-0.112504	1.883577	0.983792
C35	C	-0.423065	1.191230	0.423026
C36	C	0.076935	1.691230	0.923026
C37	C	-0.423079	1.074452	0.423042
C38	C	0.076921	1.574452	0.923042
C39	C	-0.479317	1.012421	0.479112
C40	C	0.020683	1.512421	0.979112
C41	C	-0.479328	0.902696	0.479122
C42	C	0.020672	1.402696	0.979122
C43	C	-0.366860	0.917042	0.366983
C44	C	0.133140	1.417042	0.866983
C45	C	-0.366846	1.026765	0.366978
C46	C	0.133154	1.526765	0.866978
C47	C	-0.544253	1.004138	0.543852
C48	C	-0.044253	1.504138	1.043852
C49	C	-0.544264	0.894412	0.543862
C50	C	-0.044264	1.394412	1.043862
C51	C	-0.640246	1.449504	0.434011
C52	C	-0.140246	1.949504	0.934011
C53	C	-0.733151	1.443313	0.438733
C54	C	-0.233151	1.943313	0.938733
C55	C	-0.903252	1.432015	0.447371
C56	C	-0.403252	1.932015	0.947371
C57	C	-0.942070	1.496565	0.398718
C58	C	-0.442070	1.996565	0.898718
C59	C	-1.036720	1.490278	0.403525
C60	C	-0.536720	1.990278	0.903525
C61	C	-0.808594	1.438300	0.442566
C62	C	-0.308594	1.938300	0.942566
C63	C	-0.205069	1.478973	0.412041
C64	C	0.294931	1.978973	0.912041
C65	C	-0.112165	1.485270	0.407354
C66	C	0.387835	1.985270	0.907354
C67	C	-0.434084	1.449626	0.641044
C68	C	0.065916	1.949626	1.141044
C69	C	-0.438772	1.443417	0.733946
C70	C	0.061228	1.943417	1.233946
C71	C	-0.423097	1.738227	0.423051
C72	C	0.076903	2.238227	0.923051
C73	C	-0.423104	1.855003	0.423056
C74	C	0.076896	2.355003	0.923056
C75	C	-0.412060	1.478774	0.205877
C76	C	0.087940	1.978774	0.705877
C77	C	-0.407136	1.485202	0.112964
C78	C	0.092864	1.985202	0.612964
C79	C	-0.447314	1.432044	0.904036
C80	C	0.052686	1.932044	1.404036
C81	C	-0.398597	1.496572	0.942879
C82	C	0.101403	1.996572	1.442879
C83	C	-0.403350	1.490244	1.037523
C84	C	0.096650	1.990244	1.537523
C85	C	-0.442563	1.438370	0.809384
C86	C	0.057437	1.938370	1.309384
H87	H	-0.524287	0.857836	0.604231
H88	H	-0.024287	1.357836	1.104231
F89	F	-0.623062	1.045231	0.517530
F90	F	-0.123062	1.545231	1.017530
F91	F	-0.952722	1.353615	0.506529
F92	F	-0.452722	1.853615	1.006529
H93	H	-0.608096	0.861429	0.529688
H94	H	-0.108096	1.361429	1.029688
H95	H	-0.353318	1.556568	0.905052
H96	H	0.146682	2.056568	1.405052
H97	H	-0.321046	1.077267	0.321325
H98	H	0.178954	1.577267	0.821325
F99	F	-0.307015	0.866281	0.307321
F100	F	0.192985	1.366281	0.807321
F101	F	-0.525995	1.038937	0.627360
F102	F	-0.025995	1.538937	1.127360
F103	F	-0.892599	1.574966	0.339553
F104	F	-0.392599	2.074966	0.839553
H105	H	-0.492589	1.372052	0.941860
H106	H	0.007411	1.872052	1.441860
