data_functionalizedCrystal
_audit_creation_method	'MofGen! by Chris Wilmer'
_symmetry_space_group_name_H-M	'P1'
_symmetry_Int_Tables_number	1
_symmetry_cell_setting	triclinic
loop_
_symmetry_equiv_pos_as_xyz
  x,y,z
_cell_length_a	20.299480
_cell_length_b	20.298645
_cell_length_c	20.294903
_cell_angle_alpha	60.007695
_cell_angle_beta	60.015306
_cell_angle_gamma	59.991039
loop_
_atom_site_label
_atom_site_type_symbol
_atom_site_fract_x
_atom_site_fract_y
_atom_site_fract_z
O1	O	0.091305	-0.962534	0.804873
O2	O	0.034397	-0.749399	0.648508
O3	O	0.169355	-0.884263	0.648401
O4	O	-0.043654	-0.827670	0.804979
O5	O	0.214132	-0.839502	0.693072
O6	O	0.079173	-0.704639	0.693178
O7	O	0.136081	-0.917774	0.849544
Zn8	Zn	0.114736	-0.804099	0.778453
Zn9	Zn	0.055742	-0.863073	0.719598
O10	O	0.001122	-0.782910	0.849650
N11	N	0.155000	-0.763857	0.818624
N12	N	0.015485	-0.903322	0.679427
C13	C	0.179343	-0.615641	0.842971
C14	C	0.179443	-0.739552	0.966834
C15	C	0.303264	-0.739536	0.842917
C16	C	0.179356	-0.739528	0.842952
C17	C	0.210353	-0.708565	0.873918
C18	C	-0.132622	-0.927446	0.654695
C19	C	-0.008595	-0.927622	0.530981
C20	C	-0.008820	-1.051459	0.654914
C21	C	-0.008800	-0.927618	0.654995
C22	C	-0.039709	-0.958538	0.623897
N23	N	0.376268	-0.763873	0.818558
O24	O	0.652281	-0.777347	0.619856
O25	O	0.652556	-0.934198	0.832777
O26	O	0.652445	-0.933836	0.697731
O27	O	0.652392	-0.777709	0.754902
O28	O	0.518259	-0.889182	0.742556
O29	O	0.518369	-0.889544	0.877602
O30	O	0.518095	-0.732693	0.664680
Zn31	Zn	0.496927	-0.804029	0.778258
Zn32	Zn	0.673724	-0.862862	0.719200
O33	O	0.518205	-0.733055	0.799726
N34	N	0.794383	-0.903019	0.678891
N35	N	0.154981	-0.542636	0.818657
O36	O	-0.043628	-0.266455	0.805024
O37	O	0.169291	-0.266451	0.648191
O38	O	0.034217	-0.266468	0.648577
O39	O	0.091446	-0.266438	0.804638
O40	O	0.078998	-0.400670	0.693303
O41	O	0.214071	-0.400653	0.692918
O42	O	0.001152	-0.400657	0.849750
Zn43	Zn	0.114722	-0.421963	0.778435
Zn44	Zn	0.055722	-0.245145	0.719506
O45	O	0.136226	-0.400640	0.849364
N46	N	0.015453	-0.124472	0.679286
N47	N	0.155155	-0.763898	1.039838
O48	O	0.141555	-0.962488	1.315987
O49	O	-0.015254	-0.749480	1.316022
O50	O	-0.014890	-0.884527	1.315962
O51	O	0.141192	-0.827441	1.316047
O52	O	0.029815	-0.839777	1.181768
O53	O	0.029452	-0.704730	1.181828
O54	O	0.186261	-0.917739	1.181793
Zn55	Zn	0.114954	-0.804130	1.160504
Zn56	Zn	0.056053	-0.863089	1.337311
O57	O	0.185897	-0.782692	1.181853
N58	N	0.015850	-0.903330	1.457977
C59	C	0.051451	-0.700162	0.649301
C60	C	0.218580	-0.867175	0.649169
C61	C	0.119026	-0.967011	0.848750
C62	C	-0.048103	-0.799998	0.848882
C63	C	0.585495	-0.933471	0.882014
C64	C	0.585361	-0.933023	0.714775
C65	C	0.585151	-0.733419	0.615444
C66	C	0.585291	-0.733869	0.782682
C67	C	0.218449	-0.333386	0.648902
C68	C	0.051232	-0.333573	0.649435
C69	C	-0.048061	-0.333556	0.848984
C70	C	0.119212	-0.333537	0.848507
C71	C	-0.014496	-0.700269	1.248929
C72	C	-0.014037	-0.867500	1.248828
C73	C	0.185503	-0.966949	1.248886
C74	C	0.185054	-0.799709	1.248957
H75	H	0.039295	-0.638935	0.600193
C76	C	0.080889	-0.264544	0.936353
C77	C	0.135755	-0.333532	0.914695
H78	H	0.091109	-0.264541	0.977210
H79	H	0.027476	-0.264553	0.956079
H80	H	0.086883	-0.217749	0.890459
H81	H	0.129757	-0.380327	0.960588
H82	H	0.189182	-0.333530	0.894972
C83	C	-0.052236	-0.567733	1.248978
C84	C	-0.080960	-0.617686	1.248943
H85	H	-0.093271	-0.516752	1.248992
H86	H	-0.006399	-0.560674	1.202191
H87	H	-0.037570	-0.591893	1.295784
H88	H	-0.095621	-0.593530	1.202134
H89	H	-0.126812	-0.624743	1.295735
C90	C	0.585011	-0.695668	0.482931
C91	C	0.585035	-0.666935	0.532899
H92	H	0.584943	-0.654624	0.431970
H93	H	0.538247	-0.710358	0.507094
H94	H	0.631835	-0.741502	0.475830
H95	H	0.538207	-0.621104	0.540005
H96	H	0.631803	-0.652234	0.508730
C97	C	0.080502	-1.085349	0.936717
C98	C	0.135426	-1.049660	0.915052
H99	H	0.090625	-1.136370	0.977652
H100	H	0.086535	-1.092341	0.890856
H101	H	0.027096	-1.051542	0.956347
H102	H	0.188832	-1.083465	0.895417
H103	H	0.129400	-1.042672	0.960922
H104	H	0.279759	-0.879241	0.599998
C105	C	0.015871	-0.402609	0.610752
C106	C	0.034718	-0.333607	0.583244
H107	H	0.005687	-0.402638	0.569885
H108	H	-0.030749	-0.402595	0.657700
H109	H	0.059901	-0.449394	0.623314
H110	H	-0.009315	-0.286822	0.570687
H111	H	0.081344	-0.333614	0.536281
C112	C	-0.180583	-0.704992	0.886414
C113	C	-0.130690	-0.783718	0.915265
H114	H	-0.231566	-0.694942	0.927400
H115	H	-0.187635	-0.698930	0.840574
H116	H	-0.156390	-0.667713	0.871715
H117	H	-0.154881	-0.820998	0.929959
H118	H	-0.123641	-0.789788	0.961119
H119	H	0.585565	-0.982710	0.943168
C120	C	-0.051128	-0.962694	1.248665
C121	C	-0.080207	-0.883948	1.248714
H122	H	-0.091978	-0.972845	1.248589
H123	H	-0.036467	-0.999931	1.295477
H124	H	-0.005223	-0.968706	1.201884
H125	H	-0.126109	-0.877938	1.295498
H126	H	-0.094879	-0.846702	1.201896
C127	C	0.585298	-0.970157	0.619528
C128	C	0.585384	-0.999236	0.698265
H129	H	0.585307	-1.011034	0.609339
H130	H	0.632054	-0.955438	0.582294
H131	H	0.538466	-0.924283	0.613557
H132	H	0.632219	-1.045107	0.704234
H133	H	0.538623	-1.013966	0.735510
C134	C	0.585347	-0.696732	0.877931
C135	C	0.585264	-0.667654	0.799193
H136	H	0.585326	-0.655851	0.888124
H137	H	0.632175	-0.742597	0.883903
H138	H	0.538587	-0.711458	0.915167
H139	H	0.632028	-0.652934	0.761957
H140	H	0.538432	-0.621775	0.793214
C141	C	0.350757	-0.332708	0.610923
C142	C	0.300822	-0.332874	0.582261
H143	H	0.401608	-0.332387	0.569779
H144	H	0.358114	-0.379606	0.656618
H145	H	0.326418	-0.286008	0.625800
H146	H	0.325158	-0.379577	0.567390
H147	H	0.293468	-0.285971	0.536552
H148	H	-0.109209	-0.333558	0.898221
C149	C	0.223242	-1.099485	1.248838
C150	C	0.251967	-1.049532	1.248872
H151	H	0.264275	-1.150469	1.248833
H152	H	0.208580	-1.075333	1.202037
H153	H	0.177398	-1.106542	1.295630
H154	H	0.297809	-1.042471	1.202076
H155	H	0.266641	-1.073691	1.295677
H156	H	0.234089	-0.787495	1.248972
