data_functionalizedCrystal
_audit_creation_method	'MofGen! by Chris Wilmer'
_symmetry_space_group_name_H-M	'P1'
_symmetry_Int_Tables_number	1
_symmetry_cell_setting	triclinic
loop_
_symmetry_equiv_pos_as_xyz
  x,y,z
_cell_length_a	11.792241
_cell_length_b	8.559649
_cell_length_c	7.088929
_cell_angle_alpha	84.661815
_cell_angle_beta	96.256076
_cell_angle_gamma	76.986040
loop_
_atom_site_label
_atom_site_type_symbol
_atom_site_fract_x
_atom_site_fract_y
_atom_site_fract_z
O1	O	-1.473812	-0.235121	0.158796
O2	O	-1.141403	-0.257679	0.158840
O3	O	-1.336893	-0.014051	0.158812
O4	O	-1.278322	-0.478749	0.158824
O5	O	-1.363039	0.018558	-0.159167
O6	O	-1.167549	-0.225070	-0.159139
O7	O	-1.499958	-0.202512	-0.159183
Cu8	Cu	-1.336141	-0.210813	-0.188195
Cu9	Cu	-1.305220	-0.249378	0.187852
O10	O	-1.304468	-0.446140	-0.159155
C11	C	-1.112314	-0.239958	-0.000144
C12	C	-0.986687	-0.235720	-0.000127
C13	C	-1.354405	0.061745	-0.000174
C14	C	-1.367616	0.239009	-0.000165
C15	C	-1.529047	-0.220233	-0.000195
C16	C	-1.654673	-0.224473	-0.000199
C17	C	-0.756693	-0.227917	-0.000182
C18	C	-0.884680	-0.232252	-0.000152
C19	C	-1.286956	-0.521936	-0.000164
C20	C	-1.273744	-0.699202	-0.000161
N21	N	-1.357897	-0.183688	-0.452686
N22	N	-1.283474	-0.276490	0.452343
H23	H	-1.183268	0.218085	-0.000155
C24	C	-1.462104	-0.053771	-0.563001
N25	N	-1.540593	0.044087	-0.646103
C26	C	-1.489857	0.350760	-0.000192
N27	N	-1.581926	0.434931	-0.000209
C28	C	-1.179261	-0.406413	-0.437333
N29	N	-1.100769	-0.504267	-0.354236
