data_functionalizedCrystal
_audit_creation_method	'MofGen! by Chris Wilmer'
_symmetry_space_group_name_H-M	'P1'
_symmetry_Int_Tables_number	1
_symmetry_cell_setting	triclinic
loop_
_symmetry_equiv_pos_as_xyz
  x,y,z
_cell_length_a	19.077105
_cell_length_b	16.120484
_cell_length_c	19.078593
_cell_angle_alpha	94.995996
_cell_angle_beta	90.012172
_cell_angle_gamma	90.738523
loop_
_atom_site_label
_atom_site_type_symbol
_atom_site_fract_x
_atom_site_fract_y
_atom_site_fract_z
Zn1	Zn	1.040853	-0.402774	-0.456865
Zn2	Zn	1.039406	-0.536919	-0.344869
Zn3	Zn	0.928429	-0.391739	-0.334222
Zn4	Zn	0.917378	-0.536296	-0.457582
O5	O	0.981516	-0.466932	-0.398385
O6	O	1.138780	-0.425448	-0.446165
O7	O	1.028704	-0.513303	-0.244959
O8	O	0.948573	-0.276565	-0.345735
O9	O	1.137717	-0.524003	-0.363882
O10	O	1.031170	-0.284672	-0.435840
O11	O	0.947170	-0.406639	-0.237137
O12	O	0.828844	-0.406035	-0.346430
O13	O	0.929737	-0.522942	-0.555985
O14	O	0.820724	-0.512241	-0.437062
O15	O	1.020454	-0.424844	-0.555458
O16	O	1.017988	-0.653474	-0.364577
O17	O	0.928334	-0.653016	-0.447387
C18	C	0.799343	-0.457874	-0.390669
C19	C	0.721406	-0.454019	-0.387386
C20	C	0.680582	-0.507581	-0.432963
C21	C	0.607353	-0.503949	-0.429881
C22	C	0.574949	-0.446758	-0.381218
C23	C	0.615779	-0.393190	-0.335638
C24	C	0.689007	-0.396819	-0.338724
C25	C	0.356394	-0.429963	-0.366939
C26	C	0.283160	-0.426340	-0.363855
C27	C	0.274739	-0.537098	-0.458099
C28	C	0.347969	-0.540725	-0.461178
C29	C	0.388792	-0.487154	-0.415601
N30	N	0.500098	-0.443045	-0.378065
N31	N	0.463643	-0.490863	-0.418758
C32	C	0.971823	-0.683490	-0.407231
C33	C	0.967740	-0.776138	-0.411042
C34	C	0.960288	-0.945769	-0.418014
C35	C	1.002870	-0.987261	-0.378772
C36	C	0.998723	-1.081649	-0.382651
C37	C	0.964433	-0.851372	-0.414136
C38	C	1.164401	-0.476026	-0.406131
C39	C	1.242336	-0.479902	-0.409432
C40	C	0.974024	-0.475054	-0.581975
C41	C	0.970832	-0.478516	-0.660210
C42	C	0.991266	-0.249530	-0.389520
C43	C	0.995420	-0.156886	-0.385742
C44	C	0.989022	-0.458783	-0.215508
C45	C	0.992361	-0.455094	-0.137269
C46	C	0.947017	-0.504826	-0.100625
C47	C	0.950150	-0.501352	-0.027111
C48	C	0.998631	-0.448149	0.009757
C49	C	1.043977	-0.398411	-0.026892
C50	C	1.040840	-0.401881	-0.100405
C51	C	1.013041	-0.432247	0.229628
C52	C	1.016176	-0.428783	0.303145
C53	C	0.922347	-0.531724	0.302922
C54	C	0.919217	-0.535193	0.229408
C55	C	0.964561	-0.485451	0.192765
N56	N	1.001837	-0.444599	0.084900
N57	N	0.961352	-0.488998	0.117624
H58	H	0.374346	-0.587298	-0.500803
H59	H	0.920722	-0.981132	-0.454520
F60	F	1.054588	-0.941038	-0.331049
H61	H	0.907541	-0.548154	-0.130638
H62	H	0.241493	-0.580711	-0.495206
H63	H	0.913233	-0.541860	0.002721
H64	H	0.879739	-0.578517	0.199395
H65	H	0.706959	-0.554155	-0.472588
F66	F	0.874090	-0.584655	0.341925
H67	H	0.589390	-0.346621	-0.296018
H68	H	1.055655	-0.385453	0.333162
H69	H	1.049966	-0.391749	0.199802
H70	H	1.077762	-0.361380	-0.130239
F71	F	0.563908	-0.560957	-0.478391
F72	F	0.248676	-0.365471	-0.312054
F73	F	1.095562	-0.341770	0.012349
H74	H	0.389623	-0.386348	-0.329821
F75	F	0.732455	-0.339809	-0.290215
