data_functionalizedCrystal
_audit_creation_method	'MofGen! by Chris Wilmer'
_symmetry_space_group_name_H-M	'P1'
_symmetry_Int_Tables_number	1
_symmetry_cell_setting	triclinic
loop_
_symmetry_equiv_pos_as_xyz
  x,y,z
_cell_length_a	15.538191
_cell_length_b	11.026607
_cell_length_c	10.065875
_cell_angle_alpha	79.268236
_cell_angle_beta	84.758683
_cell_angle_gamma	102.070945
loop_
_atom_site_label
_atom_site_type_symbol
_atom_site_fract_x
_atom_site_fract_y
_atom_site_fract_z
O1	O	1.197734	0.388991	-0.113517
O2	O	0.945585	0.258610	-0.113513
O3	O	1.050761	0.491248	-0.113510
O4	O	1.092558	0.156353	-0.113520
O5	O	1.030728	0.446754	0.113478
O6	O	0.925551	0.214116	0.113475
O7	O	1.177701	0.344498	0.113471
Zn8	Zn	1.048446	0.272243	0.149512
Zn9	Zn	1.074840	0.330865	-0.149554
O10	O	1.072525	0.111860	0.113468
C11	C	0.902786	0.222722	-0.000019
C12	C	0.805102	0.182089	-0.000018
N13	N	1.030438	0.232238	0.353617
C14	C	1.033034	0.510816	-0.000017
C15	C	1.010049	0.635406	-0.000022
C16	C	0.448859	0.585767	-0.000026
C17	C	0.357073	0.547558	-0.000028
C18	C	0.371075	0.332641	-0.000035
C19	C	0.462864	0.370831	-0.000026
C20	C	0.501748	0.497395	-0.000023
C21	C	0.515753	0.282460	-0.000023
C22	C	0.607535	0.320648	-0.000021
C23	C	0.646427	0.447207	-0.000023
C24	C	0.593530	0.535584	-0.000022
C25	C	0.476868	0.155898	-0.000035
C26	C	0.529757	0.067526	-0.000032
C27	C	0.621539	0.105712	-0.000021
C28	C	0.660431	0.232272	-0.000022
C29	C	0.674436	0.017336	-0.000022
C30	C	0.766217	0.055524	-0.000020
C31	C	0.752213	0.270460	-0.000021
C32	C	1.220500	0.380386	-0.000026
C33	C	1.318185	0.421021	-0.000036
C34	C	1.090252	0.092292	-0.000028
C35	C	1.113238	-0.032296	-0.000032
C36	C	1.073516	0.737168	-0.000025
C37	C	1.049761	0.865940	-0.000029
N38	N	1.092853	0.370881	-0.353659
C39	C	1.068568	0.316951	0.421397
C40	C	1.054717	0.286157	0.578564
H41	H	0.721163	0.478302	-0.000040
H42	H	0.498085	-0.035522	-0.000040
O43	O	1.208518	0.956858	-0.000026
H44	H	1.212226	0.857418	-0.000012
O45	O	0.300022	0.642876	-0.000013
H46	H	0.322448	0.719878	-0.092522
H47	H	0.625191	0.638643	-0.000011
H48	H	0.938127	0.643619	-0.000030
O49	O	0.794163	0.406965	0.000006
H50	H	0.843817	0.447641	-0.092501
O51	O	1.149674	0.497164	0.569100
H52	H	1.218064	0.507782	0.596426
O53	O	1.125364	0.443245	0.344158
H54	H	1.127319	0.447621	0.232834
O55	O	0.823268	-0.039790	0.000001
H56	H	0.817174	-0.080532	-0.092507
O57	O	0.973615	0.105962	0.430856
H58	H	0.971660	0.101587	0.542181
O59	O	1.168791	0.726313	-0.000024
H60	H	1.172497	0.626872	-0.000013
O61	O	0.997892	0.159874	0.655798
H62	H	0.995937	0.155499	0.767122
O63	O	0.954484	0.876799	-0.000022
H64	H	0.929563	0.849200	-0.092540
H65	H	0.480520	0.688826	-0.000016
O66	O	0.329126	0.196134	-0.000017
H67	H	0.295804	0.191717	-0.092526
O68	O	0.377873	0.114699	-0.000023
H69	H	0.358808	0.169164	-0.092526
H70	H	0.642763	-0.085710	-0.000038
