data_functionalizedCrystal
_audit_creation_method	'MofGen! by Chris Wilmer'
_symmetry_space_group_name_H-M	'P1'
_symmetry_Int_Tables_number	1
_symmetry_cell_setting	triclinic
loop_
_symmetry_equiv_pos_as_xyz
  x,y,z
_cell_length_a	15.698487
_cell_length_b	19.377369
_cell_length_c	15.698487
_cell_angle_alpha	72.126982
_cell_angle_beta	90.000040
_cell_angle_gamma	48.637709
loop_
_atom_site_label
_atom_site_type_symbol
_atom_site_fract_x
_atom_site_fract_y
_atom_site_fract_z
Zr1	Zr	0.650684	0.779879	0.058958
O2	O	0.482284	0.928512	-0.044511
O3	O	0.724766	0.631242	0.068108
O4	O	0.692381	0.779877	-0.077058
O5	O	0.514667	0.779880	0.240837
O6	O	0.832561	0.779880	-0.077060
O7	O	0.514669	0.779877	0.100655
O8	O	0.890492	0.513999	0.182617
O9	O	0.456737	1.045761	-0.018839
O10	O	0.833842	0.692382	0.099276
O11	O	0.729226	0.692382	0.203893
O12	O	0.691097	0.867381	0.032978
O13	O	0.586480	0.867381	0.137596
Zr14	Zr	0.874253	0.779888	0.282529
Zr15	Zr	0.874255	0.779884	0.058955
Zr16	Zr	0.650681	0.779884	0.282531
Zr17	Zr	0.609939	0.966877	0.099901
Zr18	Zr	0.914998	0.592890	0.241585
O19	O	0.800171	0.928525	0.273378
O20	O	0.800175	0.928519	-0.044515
O21	O	0.482280	0.928519	0.273382
O22	O	1.042652	0.631255	0.385998
O23	O	1.042656	0.631249	0.068105
O24	O	0.724762	0.631249	0.386001
O25	O	1.010269	0.779887	0.100650
O26	O	0.832555	0.779890	0.418545
O27	O	0.692375	0.779887	0.418546
O28	O	1.010267	0.779890	0.240831
O29	O	0.634447	1.045765	-0.018841
O30	O	0.890489	0.514003	0.360328
O31	O	1.068199	0.514006	0.360326
O32	O	1.068201	0.514003	0.182615
O33	O	0.456735	1.045765	0.158872
O34	O	0.634445	1.045768	0.158870
O35	O	0.833839	0.692387	0.308508
O36	O	0.938456	0.692387	0.203891
O37	O	0.795711	0.867385	0.137593
O38	O	0.691094	0.867385	0.242210
C39	C	0.813434	0.545977	0.119529
C40	C	0.830731	0.466592	0.102147
C41	C	0.615020	0.205193	0.318322
C42	C	0.631416	0.130508	0.302064
C43	C	0.740628	0.130517	0.192852
C44	C	0.724246	0.205201	0.209104
C45	C	0.661440	0.242534	0.271840
C46	C	0.770665	0.242541	0.162622
C47	C	0.754279	0.317222	0.178869
C48	C	0.691473	0.354563	0.241600
C49	C	0.645053	0.317215	0.288088
C50	C	0.833464	0.205212	0.099881
C51	C	0.879883	0.242553	0.053399
C52	C	0.863504	0.317230	0.069651
C53	C	0.800698	0.354570	0.132382
C54	C	0.909924	0.354578	0.023164
C55	C	0.893537	0.429259	0.039412
C56	C	0.784312	0.429251	0.148630
C57	C	0.482814	0.779878	0.170746
C58	C	0.387902	0.779876	0.170747
C59	C	0.214113	0.779894	0.170741
C60	C	0.310818	0.779888	0.170743
C61	C	1.042122	0.779889	0.170740
C62	C	1.137034	0.779891	0.170739
C63	C	0.762472	0.779878	-0.108913
C64	C	0.762473	0.779876	-0.203826
C65	C	0.711502	1.013790	0.221958
C66	C	0.694205	1.093176	0.239339
C67	C	0.762473	0.779874	-0.280906
C68	C	0.762471	0.779879	-0.377609
C69	C	0.762465	0.779889	0.450400
C70	C	0.762464	0.779891	0.545313
C71	C	1.093088	0.545983	0.119526
C72	C	1.205297	0.466599	0.102143
C73	C	0.813430	0.545983	0.399185
C74	C	0.830727	0.466599	0.476717
C75	C	1.093085	0.545989	0.399182
C76	C	1.205293	0.466607	0.476712
C77	C	0.431852	1.013779	-0.057696
C78	C	0.319644	1.093161	-0.135226
C79	C	0.431848	1.013784	0.221961
C80	C	0.319639	1.093168	0.239343
C81	C	0.711506	1.013784	-0.057699
C82	C	0.694210	1.093168	-0.135230
C83	C	1.203385	0.429318	0.039363
C84	C	1.308807	0.354739	0.023011
C85	C	1.416141	0.317437	0.069446
C86	C	1.418050	0.354726	0.132229
C87	C	1.312628	0.429309	0.148575
C88	C	0.893456	0.429322	0.567743
C89	C	0.909702	0.354743	0.640603
C90	C	0.863224	0.317438	0.622433
C91	C	0.800485	0.354722	0.531397
C92	C	0.784234	0.429305	0.458541
C93	C	1.312605	0.429328	0.458512
C94	C	1.418043	0.354751	0.531354
C95	C	1.416167	0.317449	0.622394
C96	C	1.308843	0.354735	0.640593
C97	C	1.203406	0.429316	0.567754
C98	C	0.212329	1.130448	-0.117024
C99	C	0.106886	1.205049	-0.189860
C100	C	0.108761	1.242355	-0.280899
C101	C	0.216087	1.205064	-0.299100
C102	C	0.321526	1.130470	-0.226263
C103	C	0.321550	1.130458	0.302116
C104	C	0.216124	1.205057	0.318448
C105	C	0.108789	1.242361	0.272010
C106	C	0.106880	1.205069	0.209230
C107	C	0.212304	1.130475	0.192895
C108	C	0.740704	1.130450	-0.117032
C109	C	0.724475	1.205030	-0.189874
C110	C	0.661744	1.242331	-0.280913
C111	C	0.615250	1.205042	-0.299111
C112	C	0.631487	1.130458	-0.226271
H113	H	0.593911	0.347613	0.339174
F114	F	0.976479	0.315073	0.737482
H115	H	1.314155	0.459689	0.384388
H116	H	0.931336	0.459663	0.001560
H117	H	0.217701	1.235408	0.369571
F118	F	1.306865	0.315024	0.737491
F119	F	-0.007364	1.244778	0.159816
H120	H	1.505421	0.324400	0.516519
H121	H	0.593618	1.100112	-0.241101
F122	F	0.582001	0.090772	0.351539
F123	F	-0.003467	1.321745	-0.358411
H124	H	1.501974	0.256706	0.056128
H125	H	0.733158	0.459646	0.384423
H126	H	0.022954	1.303100	0.285320
H127	H	0.217599	1.235449	-0.373233
H128	H	0.931016	0.212150	0.002317
F129	F	1.532294	0.315015	0.181645
H130	H	0.408903	1.100111	-0.241096
H131	H	0.733169	0.459650	0.199716
F132	F	0.850894	0.125733	0.082588
H133	H	1.502029	0.256720	0.681696
F134	F	1.314683	0.468974	0.215401
F135	F	0.548480	1.244757	-0.396007
H136	H	0.762647	0.324337	0.516616
F137	F	0.942937	0.469009	0.587102
F138	F	1.089202	0.468978	0.587137
F139	F	0.435772	1.090772	0.351547
H140	H	0.210782	1.100077	-0.042902
F141	F	0.976750	0.314846	-0.043611
F142	F	0.880530	0.238058	0.699983
H143	H	0.648531	1.303062	-0.340216
F144	F	0.210254	1.090791	0.126087
H145	H	1.307230	0.324387	-0.028112
F146	F	-0.007323	1.244720	-0.170471
F147	F	0.807471	1.090764	-0.020146
H148	H	0.678127	0.415377	0.254824
F149	F	0.548183	0.244924	0.385099
H150	H	1.115996	0.459688	0.001536
F151	F	0.773960	1.244706	-0.170486
H152	H	0.791761	0.100115	0.141769
