data_functionalizedCrystal
_audit_creation_method	'MofGen! by Chris Wilmer'
_symmetry_space_group_name_H-M	'P1'
_symmetry_Int_Tables_number	1
_symmetry_cell_setting	triclinic
loop_
_symmetry_equiv_pos_as_xyz
  x,y,z
_cell_length_a	12.759401
_cell_length_b	16.959454
_cell_length_c	12.759393
_cell_angle_alpha	89.969236
_cell_angle_beta	89.981425
_cell_angle_gamma	90.020501
loop_
_atom_site_label
_atom_site_type_symbol
_atom_site_fract_x
_atom_site_fract_y
_atom_site_fract_z
Zn1	Zn	1.606216	-0.314626	-0.593991
Zn2	Zn	1.606094	-0.446827	-0.418314
Zn3	Zn	1.430518	-0.314668	-0.418330
Zn4	Zn	1.430490	-0.446767	-0.593955
O5	O	1.518329	-0.380722	-0.506147
O6	O	1.753221	-0.332170	-0.570695
O7	O	1.582764	-0.429339	-0.271295
O8	O	1.453887	-0.204051	-0.441654
O9	O	1.753131	-0.429298	-0.441626
O10	O	1.582972	-0.204020	-0.570711
O11	O	1.453769	-0.332242	-0.271307
O12	O	1.283493	-0.332183	-0.441619
O13	O	1.453840	-0.429195	-0.740981
O14	O	1.283473	-0.429236	-0.570649
O15	O	1.582945	-0.332111	-0.741007
O16	O	1.582737	-0.557430	-0.441591
O17	O	1.453721	-0.557386	-0.570634
C18	C	1.245362	-0.380708	-0.506133
C19	C	1.128585	-0.380721	-0.506151
C20	C	1.073771	-0.330238	-0.573461
C21	C	0.964047	-0.330246	-0.573468
C22	C	0.963961	-0.431228	-0.438852
C23	C	1.073684	-0.431215	-0.438841
C24	C	1.518241	-0.586088	-0.506129
C25	C	1.518300	-0.673945	-0.506157
C26	C	1.451248	-1.045427	-0.573333
C27	C	1.585703	-1.045413	-0.439069
C28	C	1.585666	-0.962867	-0.439059
C29	C	1.518418	-0.921598	-0.506186
C30	C	1.451207	-0.962874	-0.573323
C31	C	1.652868	-0.921585	-0.371916
C32	C	1.652833	-0.839034	-0.371903
C33	C	1.585590	-0.797763	-0.439036
C34	C	1.518377	-0.839044	-0.506176
C35	C	1.451130	-0.797774	-0.573303
C36	C	1.383921	-0.839054	-0.640450
C37	C	1.383964	-0.921602	-0.640456
C38	C	1.585547	-0.715215	-0.439030
C39	C	1.451089	-0.715221	-0.573294
C40	C	1.792363	-0.380736	-0.506163
C41	C	1.909139	-0.380742	-0.506169
C42	C	1.518403	-0.380642	-0.780181
C43	C	1.518434	-0.380608	-0.896958
C44	C	1.518446	-0.174554	-0.506188
C45	C	1.518496	-0.086697	-0.506206
C46	C	1.451290	-0.330040	-0.951825
C47	C	1.451315	-0.330016	-1.061549
C48	C	1.585635	-0.431129	-1.061528
C49	C	1.585605	-0.431157	-0.951806
C50	C	1.518317	-0.380744	-0.233180
C51	C	1.518489	-0.380556	-0.116404
H52	H	0.919247	-0.472338	-0.384051
O53	O	1.318450	-0.798998	-0.705547
C54	C	1.139706	-0.773843	-0.756444
C55	C	1.213727	-0.819244	-0.682641
H56	H	1.055024	-0.790207	-0.737966
H57	H	1.151131	-0.707744	-0.744894
H58	H	1.158180	-0.790009	-0.841172
H59	H	1.195300	-0.803144	-0.597885
H60	H	1.202289	-0.885331	-0.694283
O61	O	1.385976	-0.281008	-1.114891
C62	C	1.244196	-0.270336	-1.238796
C63	C	1.318119	-0.325927	-1.178438
H64	H	1.189330	-0.306629	-1.290205
H65	H	1.196109	-0.234232	-1.180786
H66	H	1.292484	-0.228978	-1.290138
H67	H	1.269912	-0.367332	-1.127094
H68	H	1.366210	-0.361975	-1.236504
O69	O	0.910638	-0.281236	-0.638759
C70	C	0.741645	-0.236534	-0.698488
C71	C	0.801999	-0.292067	-0.624472
H72	H	0.653800	-0.245284	-0.686978
H73	H	0.763152	-0.172761	-0.680188
H74	H	0.763314	-0.250485	-0.783157
H75	H	0.780362	-0.278188	-0.539778
H76	H	0.780487	-0.355824	-0.642863
O77	O	1.126775	-0.480333	-0.373419
C78	C	1.115121	-0.580460	-0.239853
C79	C	1.054865	-0.524894	-0.313906
H80	H	1.057008	-0.616490	-0.191702
H81	H	1.166473	-0.621879	-0.287938
H82	H	1.166504	-0.544099	-0.185044
H83	H	1.003425	-0.561191	-0.368730
H84	H	1.003579	-0.483473	-0.265755
H85	H	1.329246	-0.955219	-0.695122
H86	H	1.396595	-0.288880	-0.907171
H87	H	1.396532	-1.079041	-0.628004
H88	H	1.640324	-0.472284	-1.106200
H89	H	1.118468	-0.289121	-0.628266
H90	H	1.640446	-1.079020	-0.384411
O91	O	1.385667	-0.675256	-0.638539
C92	C	1.252366	-0.683982	-0.771770
C93	C	1.326382	-0.729339	-0.697915
H94	H	1.204431	-0.727688	-0.819811
H95	H	1.197361	-0.645411	-0.723538
H96	H	1.300573	-0.645259	-0.826693
H97	H	1.278260	-0.768105	-0.642978
H98	H	1.381390	-0.767860	-0.746213
O99	O	1.650932	-0.480306	-0.898663
C100	C	1.784116	-0.580630	-0.910212
C101	C	1.710214	-0.524996	-0.970527
H102	H	1.832049	-0.616788	-0.968287
H103	H	1.839127	-0.544395	-0.858881
H104	H	1.735819	-0.621934	-0.858803
H105	H	1.758426	-0.483681	-1.021993
H106	H	1.655199	-0.561280	-1.021791
O107	O	1.718062	-0.961795	-0.306720
C108	C	1.777454	-1.088966	-0.246985
C109	C	1.703642	-1.043522	-0.320951
H110	H	1.765806	-1.155050	-0.258449
H111	H	1.862221	-1.072791	-0.265378
H112	H	1.758926	-1.072691	-0.162306
H113	H	1.722076	-1.059773	-0.405655
H114	H	1.618897	-1.059701	-0.302468
H115	H	1.640262	-0.681609	-0.384356
O116	O	1.718222	-0.799062	-0.306655
C117	C	1.851550	-0.807767	-0.173445
C118	C	1.777565	-0.853135	-0.247297
H119	H	1.899533	-0.851466	-0.125419
H120	H	1.906512	-0.769093	-0.221678
H121	H	1.803315	-0.769146	-0.118508
H122	H	1.825716	-0.891799	-0.302249
H123	H	1.722601	-0.891759	-0.198998
