data_functionalizedCrystal
_audit_creation_method	'MofGen! by Chris Wilmer'
_symmetry_space_group_name_H-M	'P1'
_symmetry_Int_Tables_number	1
_symmetry_cell_setting	triclinic
loop_
_symmetry_equiv_pos_as_xyz
  x,y,z
_cell_length_a	10.654553
_cell_length_b	14.044190
_cell_length_c	9.130313
_cell_angle_alpha	89.993628
_cell_angle_beta	89.999282
_cell_angle_gamma	88.838977
loop_
_atom_site_label
_atom_site_type_symbol
_atom_site_fract_x
_atom_site_fract_y
_atom_site_fract_z
O1	O	1.681226	0.133242	-0.121834
O2	O	2.181226	0.633242	0.378166
O3	O	1.317023	0.145932	-0.121835
O4	O	1.817023	0.645932	0.378165
O5	O	1.493653	0.001566	-0.121806
O6	O	1.993653	0.501566	0.378194
O7	O	1.504596	0.277608	-0.121864
O8	O	2.004596	0.777608	0.378136
O9	O	1.493651	0.001570	0.121793
O10	O	1.993651	0.501570	0.621793
O11	O	1.317021	0.145936	0.121763
O12	O	1.817021	0.645936	0.621763
O13	O	1.681224	0.133246	0.121764
O14	O	2.181224	0.633246	0.621764
Cu15	Cu	1.499122	0.139591	0.144006
Cu16	Cu	1.999122	0.639591	0.644006
Cu17	Cu	1.499125	0.139587	-0.144077
Cu18	Cu	1.999125	0.639587	0.355923
O19	O	1.504594	0.277612	0.121735
O20	O	2.004594	0.777612	0.621735
C21	C	1.270131	0.145002	-0.000036
C22	C	1.770131	0.645002	0.499964
C23	C	1.130407	0.142212	-0.000035
C24	C	1.630407	0.642212	0.499965
C25	C	0.933470	0.138276	0.132741
C26	C	1.433470	0.638276	0.632741
C27	C	1.064755	0.140903	0.132749
C28	C	1.564755	0.640903	0.632749
C29	C	1.064768	0.140904	-0.132836
C30	C	1.564768	0.640904	0.367164
C31	C	0.933485	0.138284	-0.132842
C32	C	1.433485	0.638284	0.367158
C33	C	0.933464	0.138272	0.286075
C34	C	1.433464	0.638272	0.786075
C35	C	1.064749	0.140898	0.286083
C36	C	1.564749	0.640898	0.786083
C37	C	1.488865	-0.033778	-0.000002
C38	C	1.988865	0.466222	0.499998
C39	C	1.474586	-0.139098	0.000010
C40	C	1.974586	0.360902	0.500010
C41	C	1.549751	-0.388890	-0.000047
C42	C	2.049751	0.111110	0.499953
C43	C	1.448501	-0.331927	-0.000037
C44	C	1.948501	0.168073	0.499963
C45	C	1.463018	-0.224627	-0.000011
C46	C	1.963018	0.275373	0.499989
C47	C	1.535236	-0.496200	-0.000073
C48	C	2.035236	0.003800	0.499927
C49	C	1.728116	0.134176	-0.000038
C50	C	2.228116	0.634176	0.499962
C51	C	1.867840	0.136966	-0.000049
C52	C	2.367840	0.636966	0.499951
C53	C	1.509382	0.312956	-0.000072
C54	C	2.009382	0.812956	0.499928
C55	C	1.523661	0.418276	-0.000094
C56	C	2.023661	0.918276	0.499906
N57	N	1.499130	0.139594	0.346629
N58	N	1.999130	0.639594	0.846629
N59	N	1.499126	0.139576	-0.346700
N60	N	1.999126	0.639576	0.153300
C61	C	1.577366	0.075691	0.423294
C62	C	2.077366	0.575691	0.923294
C63	C	1.577361	0.075679	0.576631
C64	C	2.077361	0.575679	1.076631
C65	C	1.420882	0.203483	0.576624
C66	C	1.920882	0.703483	1.076624
C67	C	1.420881	0.203489	0.423290
C68	C	1.920881	0.703489	0.923290
C69	C	1.667712	0.001907	0.423299
C70	C	2.167712	0.501907	0.923299
C71	C	1.667707	0.001895	0.576636
C72	C	2.167707	0.501895	1.076636
H73	H	1.118232	0.141979	-0.240951
H74	H	1.618232	0.641979	0.259049
Br75	Br	1.605292	-0.112931	0.655924
Br76	Br	2.105292	0.387069	1.155924
H77	H	1.761218	0.025011	0.375735
H78	H	2.261218	0.525011	0.875735
H79	H	0.896936	0.069090	0.333661
H80	H	1.396936	0.569090	0.833661
Br81	Br	1.831285	0.028973	0.646008
Br82	Br	2.331285	0.528973	1.146008
H83	H	0.893769	0.203824	0.344937
H84	H	1.393769	0.703824	0.844937
H85	H	1.350915	-0.363745	-0.000046
H86	H	1.850915	0.136255	0.499954
H87	H	1.638940	-0.071003	0.381694
H88	H	2.138940	0.428997	0.881694
Br89	Br	0.844416	0.136529	-0.313064
Br90	Br	1.344416	0.636529	0.186936
H91	H	1.647329	-0.357074	-0.000031
H92	H	2.147329	0.142926	0.499969
H93	H	1.357163	0.255516	0.360871
H94	H	1.857163	0.755516	0.860871
Br95	Br	1.125631	0.256209	0.365360
Br96	Br	1.625631	0.756209	0.865360
Br97	Br	1.130920	0.031642	0.384223
Br98	Br	1.630920	0.531642	0.884223
H99	H	1.357172	0.255504	0.639058
H100	H	1.857172	0.755504	1.139058
