data_functionalizedCrystal
_audit_creation_method	'MofGen! by Chris Wilmer'
_symmetry_space_group_name_H-M	'P1'
_symmetry_Int_Tables_number	1
_symmetry_cell_setting	triclinic
loop_
_symmetry_equiv_pos_as_xyz
  x,y,z
_cell_length_a	21.295418
_cell_length_b	25.639240
_cell_length_c	21.295411
_cell_angle_alpha	89.973291
_cell_angle_beta	89.956262
_cell_angle_gamma	90.048568
loop_
_atom_site_label
_atom_site_type_symbol
_atom_site_fract_x
_atom_site_fract_y
_atom_site_fract_z
Zn1	Zn	0.962346	-0.207990	-0.356211
Zn2	Zn	0.962244	-0.295410	-0.250928
Zn3	Zn	0.857069	-0.208014	-0.250921
Zn4	Zn	0.857034	-0.295420	-0.356124
O5	O	0.909673	-0.251708	-0.303546
O6	O	1.050422	-0.219572	-0.342285
O7	O	0.948264	-0.283822	-0.162837
O8	O	0.871091	-0.134846	-0.264922
O9	O	1.050347	-0.283799	-0.264933
O10	O	0.948438	-0.134828	-0.342278
O11	O	0.870993	-0.219613	-0.162833
O12	O	0.768975	-0.219623	-0.264837
O13	O	0.871032	-0.283816	-0.444225
O14	O	0.768950	-0.283840	-0.342129
O15	O	0.948404	-0.219582	-0.444289
O16	O	0.948231	-0.368576	-0.264848
O17	O	0.870934	-0.368584	-0.342136
C18	C	0.746122	-0.251736	-0.303474
C19	C	0.676154	-0.251760	-0.303458
C20	C	0.909584	-0.387551	-0.303497
C21	C	0.909604	-0.445665	-0.303497
C22	C	0.643290	-0.285242	-0.343643
C23	C	0.577548	-0.285229	-0.343672
C24	C	0.544671	-0.251740	-0.303503
C25	C	0.577543	-0.218252	-0.263314
C26	C	0.643284	-0.218262	-0.263292
N27	N	0.441395	-0.247648	-0.248446
N28	N	0.378944	-0.247641	-0.248469
C29	C	0.346596	-0.251707	-0.303570
N30	N	0.379060	-0.255789	-0.358647
N31	N	0.441517	-0.255798	-0.358623
C32	C	0.473386	-0.251725	-0.303523
C33	C	0.242448	-0.285176	-0.343789
C34	C	0.176704	-0.285160	-0.343819
C35	C	0.176700	-0.218185	-0.263456
C36	C	0.242442	-0.218199	-0.263432
C37	C	0.275312	-0.251697	-0.303598
C38	C	0.949968	-0.805980	-0.343898
C39	C	0.949986	-0.860584	-0.343911
O40	O	0.984199	-0.888781	-0.378211
N41	N	0.909761	-0.887947	-0.303607
C42	C	0.869510	-0.860703	-0.263292
O43	O	0.835296	-0.888991	-0.229012
C44	C	0.869488	-0.806100	-0.263283
C45	C	0.909721	-0.778740	-0.303585
C46	C	0.990197	-0.778620	-0.384197
C47	C	0.990179	-0.724019	-0.384184
C48	C	0.949932	-0.696779	-0.343871
C49	C	0.909703	-0.724139	-0.303571
C50	C	0.829234	-0.778857	-0.222972
C51	C	0.829216	-0.724250	-0.222966
C52	C	0.869449	-0.696890	-0.263268
C53	C	0.869438	-0.642298	-0.263244
N54	N	0.909664	-0.614935	-0.303548
C55	C	0.949911	-0.642176	-0.343861
C56	C	0.869557	-0.975374	-0.263315
C57	C	0.869581	-1.029976	-0.263321
C58	C	0.950057	-1.029854	-0.343941
C59	C	0.950035	-0.975250	-0.343931
C60	C	0.909782	-0.948011	-0.303619
C61	C	0.949870	-0.527511	-0.343829
C62	C	0.949851	-0.472905	-0.343810
C63	C	0.869373	-0.473033	-0.263193
C64	C	0.869394	-0.527633	-0.263209
C65	C	0.909645	-0.554871	-0.303532
O66	O	0.835241	-0.614068	-0.228964
O67	O	0.984113	-0.613881	-0.378142
C68	C	1.073864	-0.251681	-0.303619
C69	C	1.143832	-0.251670	-0.303650
C70	C	0.909726	-0.251697	-0.467736
C71	C	0.909748	-0.251693	-0.537705
C72	C	0.909780	-0.115335	-0.303609
C73	C	0.909825	-0.057221	-0.303636
C74	C	0.950034	-0.218244	-0.570606
C75	C	0.950033	-0.218221	-0.636348
C76	C	0.909753	-0.251657	-0.669187
C77	C	0.869459	-0.285108	-0.636278
C78	C	0.869457	-0.285126	-0.570537
N79	N	0.904894	-0.297396	-0.772396
N80	N	0.904900	-0.297377	-0.834848
C81	C	0.909757	-0.251604	-0.867262
N82	N	0.914620	-0.205848	-0.834866
N83	N	0.914617	-0.205867	-0.772408
C84	C	0.909751	-0.251641	-0.740473
C85	C	0.950044	-0.218128	-0.971449
C86	C	0.950039	-0.218104	-1.037192
C87	C	0.869468	-0.284995	-1.037121
C88	C	0.869470	-0.285014	-0.971379
C89	C	0.909761	-0.251581	-0.938546
C90	C	0.909658	-0.251682	-0.139995
C91	C	0.909757	-0.251539	-0.070027
H92	H	0.550785	-0.312494	-0.376398
C93	C	0.140939	-0.321543	-0.387350
C94	C	0.103100	-0.354992	-0.351640
C95	C	0.070137	-0.388511	-0.391719
H96	H	0.169859	-0.341545	-0.411281
H97	H	0.115314	-0.301587	-0.414826
H98	H	0.128722	-0.374946	-0.324175
H99	H	0.074168	-0.335005	-0.327711
H100	H	0.044512	-0.368555	-0.419196
H101	H	0.099062	-0.408508	-0.415648
H102	H	0.044455	-0.411206	-0.367496
C103	C	0.825809	-0.321282	-1.072880
C104	C	0.834445	-0.314118	-1.137496
C105	C	0.794242	-0.347543	-1.170460
H106	H	0.783491	-0.313679	-1.062155
H107	H	0.835006	-0.356423	-1.062141
H108	H	0.825242	-0.278986	-1.148231
H109	H	0.876753	-0.321725	-1.148241
H110	H	0.803440	-0.382684	-1.159721
H111	H	0.751928	-0.339937	-1.159730
H112	H	0.800100	-0.342691	-1.214305
H113	H	0.982827	-1.052043	-0.376767
C114	C	0.993454	-0.443228	-0.387676
C115	C	0.979706	-0.456481	-0.449944
C116	C	1.019852	-0.429150	-0.490371
H117	H	1.035779	-0.452121	-0.378604
H118	H	0.987677	-0.406801	-0.381940
H119	H	0.985489	-0.492899	-0.455678
H120	H	0.937389	-0.447586	-0.459037
H121	H	1.014075	-0.392723	-0.484634
H122	H	1.062175	-0.438045	-0.481293
H123	H	1.010526	-0.438134	-0.532624
H124	H	0.670049	-0.312519	-0.376350
H125	H	0.836648	-0.312363	-0.543749
C126	C	0.993862	-0.181915	-0.935766
C127	C	1.034199	-0.211525	-0.898067
C128	C	1.074580	-0.178185	-0.865197
H129	H	0.969876	-0.159135	-0.910052
H130	H	1.017889	-0.161998	-0.964762
H131	H	1.010175	-0.231433	-0.869075
H132	H	1.058199	-0.234304	-0.923766
H133	H	1.098606	-0.158268	-0.894192
H134	H	1.050589	-0.155406	-0.839486
H135	H	1.101956	-0.198271	-0.839618
C136	C	0.993849	-0.181766	-1.072803
C137	C	1.029143	-0.152503	-1.029975
C138	C	1.069514	-0.119028	-1.062757
H139	H	0.969860	-0.158933	-1.098436
H140	H	1.021292	-0.201745	-1.098454
H141	H	1.001703	-0.132526	-1.004336
H142	H	1.053145	-0.175323	-1.004342
H143	H	1.096958	-0.139007	-1.088408
H144	H	1.045520	-0.096198	-1.088389
H145	H	1.093470	-0.099173	-1.033704
C146	C	0.825709	-0.321390	-0.935766
C147	C	0.790443	-0.350676	-0.978594
C148	C	0.750126	-0.384196	-0.945811
H149	H	0.798242	-0.301459	-0.910102
H150	H	0.849756	-0.344203	-0.910147
H151	H	0.766398	-0.327867	-1.004202
H152	H	0.817894	-0.370619	-1.004259
H153	H	0.774172	-0.407009	-0.920192
H154	H	0.722662	-0.364260	-0.920148
H155	H	0.726197	-0.404074	-0.974864
H156	H	0.836661	-0.312329	-0.663020
H157	H	0.982642	-0.549681	-0.376668
C158	C	0.140900	-0.181896	-0.219849
C159	C	0.076292	-0.189067	-0.228450
C160	C	0.043291	-0.155656	-0.188277
H161	H	0.151643	-0.146753	-0.229081
H162	H	0.151591	-0.189518	-0.177524
H163	H	0.065606	-0.181441	-0.270765
H164	H	0.065530	-0.224203	-0.219213
H165	H	0.053981	-0.163279	-0.145953
H166	H	0.054039	-0.120515	-0.197513
H167	H	-0.000549	-0.160521	-0.194104
H168	H	0.550770	-0.190983	-0.230610
H169	H	0.670041	-0.190995	-0.230567
C170	C	0.278026	-0.321558	-0.387472
C171	C	0.235171	-0.350864	-0.422690
C172	C	0.267921	-0.384379	-0.462944
H173	H	0.303619	-0.344362	-0.363402
H174	H	0.303715	-0.301605	-0.414969
H175	H	0.209493	-0.370816	-0.395197
H176	H	0.209578	-0.328074	-0.446773
H177	H	0.293610	-0.364426	-0.490441
H178	H	0.293512	-0.407179	-0.438869
H179	H	0.238849	-0.404263	-0.486848
H180	H	0.269200	-0.190937	-0.230705
H181	H	0.796473	-0.801124	-0.190153
C182	C	1.033881	-0.694413	-0.428014
C183	C	1.069114	-0.729965	-0.463329
C184	C	1.109374	-0.702715	-0.503721
H185	H	1.061372	-0.673096	-0.404040
H186	H	1.009795	-0.673133	-0.455444
H187	H	1.093198	-0.751236	-0.435902
H188	H	1.041639	-0.751283	-0.487316
H189	H	1.085288	-0.681435	-0.531151
H190	H	1.136861	-0.681399	-0.479741
H191	H	1.133280	-0.726833	-0.527691
C192	C	1.033795	-0.808217	-0.428046
C193	C	0.998156	-0.839570	-0.468373
C194	C	1.038303	-0.866833	-0.508779
H195	H	1.061258	-0.829544	-0.404078
H196	H	1.057736	-0.784111	-0.452079
H197	H	0.974226	-0.863674	-0.444343
H198	H	0.970694	-0.818256	-0.492355
H199	H	1.062244	-0.842727	-0.532812
H200	H	1.065765	-0.888156	-0.484806
H201	H	1.014128	-0.888105	-0.536149
C202	C	0.993735	-0.945642	-0.387763
C203	C	1.028972	-0.981192	-0.423077
C204	C	1.069228	-0.953939	-0.463470
H205	H	1.021224	-0.924322	-0.363789
H206	H	0.969645	-0.924365	-0.415193
H207	H	1.053059	-1.002460	-0.395650
H208	H	1.001499	-1.002512	-0.447063
H209	H	1.045138	-0.932662	-0.490900
H210	H	1.096713	-0.932620	-0.439492
H211	H	1.093137	-0.978055	-0.487440
C212	C	0.993815	-0.181992	-0.672159
C213	C	1.034124	-0.211586	-0.709935
C214	C	1.074460	-0.178230	-0.742936
H215	H	1.017869	-0.162072	-0.643261
H216	H	0.969775	-0.159214	-0.697830
H217	H	1.058162	-0.234354	-0.684266
H218	H	1.010087	-0.231505	-0.738844
H219	H	1.050421	-0.155453	-0.768606
H220	H	1.098510	-0.158312	-0.714033
H221	H	1.101811	-0.198305	-0.768575
H222	H	0.982841	-0.191020	-0.543878
H223	H	0.836779	-0.953198	-0.230483
C224	C	0.825835	-1.059584	-0.219534
C225	C	0.790577	-1.024034	-0.184241
C226	C	0.750263	-1.051287	-0.143906
H227	H	0.849863	-1.080879	-0.192084
H228	H	0.798366	-1.080885	-0.243569
H229	H	0.818043	-1.002741	-0.160208
H230	H	0.766537	-1.002737	-0.211674
H231	H	0.722794	-1.072588	-0.167941
H232	H	0.774296	-1.072581	-0.116460
H233	H	0.726332	-1.027170	-0.119959
H234	H	0.796435	-0.702074	-0.190140
C235	C	0.825648	-0.557248	-0.219427
C236	C	0.790389	-0.521702	-0.184129
C237	C	0.750072	-0.548959	-0.143800
H238	H	0.849674	-0.578547	-0.191979
H239	H	0.798180	-0.578546	-0.243466
H240	H	0.817854	-0.500412	-0.160091
H241	H	0.766350	-0.500401	-0.211560
H242	H	0.722604	-0.570257	-0.167840
H243	H	0.774104	-0.570257	-0.116357
H244	H	0.726140	-0.524845	-0.119850
H245	H	0.836606	-0.450845	-0.230368
