data_functionalizedCrystal
_audit_creation_method	'MofGen! by Chris Wilmer'
_symmetry_space_group_name_H-M	'P1'
_symmetry_Int_Tables_number	1
_symmetry_cell_setting	triclinic
loop_
_symmetry_equiv_pos_as_xyz
  x,y,z
_cell_length_a	42.784650
_cell_length_b	42.785065
_cell_length_c	42.790044
_cell_angle_alpha	89.997816
_cell_angle_beta	120.008709
_cell_angle_gamma	60.000110
loop_
_atom_site_label
_atom_site_type_symbol
_atom_site_fract_x
_atom_site_fract_y
_atom_site_fract_z
O1	O	-0.275674	-0.214433	-0.009293
O2	O	-0.211671	-0.168981	0.009258
O3	O	-0.275687	-0.168970	-0.054744
O4	O	-0.211657	-0.214445	0.054710
O5	O	-0.223701	-0.220952	-0.054744
O6	O	-0.159685	-0.220964	0.009259
O7	O	-0.223687	-0.266416	-0.009292
Cu8	Cu	-0.186939	-0.248436	-0.000017
Cu9	Cu	-0.248419	-0.186961	-0.000017
O10	O	-0.159671	-0.266427	0.054710
C11	C	-0.051220	-0.079171	0.028126
C12	C	-0.069851	-0.041556	0.028390
C13	C	0.005378	-0.079174	0.028123
C14	C	-0.013339	-0.041558	0.028387
C15	C	-0.051218	-0.022574	0.028123
C16	C	-0.013341	-0.098070	0.028389
C17	C	-0.096036	-0.170844	0.017884
C18	C	-0.116749	-0.188782	0.014989
C19	C	-0.155478	-0.169441	0.013535
C20	C	-0.177944	-0.188886	0.010389
C21	C	-0.173491	-0.132161	0.014981
C22	C	-0.152774	-0.114228	0.017881
C23	C	-0.114045	-0.133571	0.019333
C24	C	-0.153142	0.113916	0.017875
C25	C	-0.173979	0.152568	0.014977
C26	C	-0.156097	0.171958	0.013520
C27	C	-0.178689	0.213868	0.010372
C28	C	-0.117371	0.152691	0.014965
C29	C	-0.096530	0.114039	0.017870
C30	C	-0.114423	0.094654	0.019322
C31	C	0.131612	-0.170855	0.017874
C32	C	0.167362	-0.188794	0.014971
C33	C	0.185298	-0.169456	0.013515
C34	C	0.224059	-0.188904	0.010365
C35	C	0.167480	-0.132177	0.014958
C36	C	0.131730	-0.114240	0.017860
C37	C	0.113801	-0.133584	0.019321
C38	C	-0.091586	-0.114121	0.022475
C39	C	-0.073682	-0.098618	0.024981
C40	C	0.044139	-0.098624	0.024975
C41	C	0.075037	-0.114129	0.022467
C42	C	-0.073814	0.019336	0.024976
C43	C	-0.091824	0.052742	0.022468
C44	C	-0.384194	-0.079331	-0.305001
C45	C	-0.365565	-0.098223	-0.323983
C46	C	-0.440804	-0.022719	-0.361598
C47	C	-0.422089	-0.041697	-0.380494
C48	C	-0.384205	-0.079317	-0.361598
C49	C	-0.422078	-0.041711	-0.323983
C50	C	-0.339357	-0.113926	-0.168515
C51	C	-0.318637	-0.131750	-0.129864
C52	C	-0.279903	-0.169030	-0.110474
C53	C	-0.257430	-0.188355	-0.068564
C54	C	-0.261892	-0.188485	-0.129740
C55	C	-0.282615	-0.170663	-0.168390
C56	C	-0.321349	-0.133382	-0.187777
C57	C	-0.282284	-0.170985	-0.396157
C58	C	-0.261450	-0.188920	-0.413971
C59	C	-0.279340	-0.169573	-0.451243
C60	C	-0.256750	-0.189014	-0.470559
C61	C	-0.318070	-0.132289	-0.470703
C62	C	-0.338908	-0.114357	-0.452893
C63	C	-0.321008	-0.133709	-0.415616
C64	C	-0.567052	0.113773	-0.396157
C65	C	-0.602808	0.152430	-0.413968
C66	C	-0.620750	0.171829	-0.451243
C67	C	-0.659517	0.213744	-0.470557
C68	C	-0.602935	0.152570	-0.470701
C69	C	-0.567179	0.113915	-0.452888
C70	C	-0.549243	0.094518	-0.415615
C71	C	-0.343815	-0.114058	-0.229686
C72	C	-0.361724	-0.098655	-0.263092
C73	C	-0.479571	0.019194	-0.380910
C74	C	-0.510473	0.052603	-0.396304
C75	C	-0.361612	-0.098761	-0.380910
C76	C	-0.343604	-0.114260	-0.396305
C77	C	-0.384369	-0.412597	-0.028182
C78	C	-0.365737	-0.393613	-0.028445
C79	C	-0.440970	-0.356000	-0.028182
C80	C	-0.422252	-0.337102	-0.028445
C81	C	-0.384371	-0.355997	-0.028180
C82	C	-0.422250	-0.393615	-0.028447
C83	C	-0.339553	-0.549086	-0.017938
C84	C	-0.318839	-0.587738	-0.015041
C85	C	-0.280108	-0.607126	-0.013586
C86	C	-0.257642	-0.649037	-0.010438
C87	C	-0.262095	-0.587859	-0.015030
C88	C	-0.282812	-0.549208	-0.017932
C89	C	-0.321543	-0.529822	-0.019386
C90	C	-0.282444	-0.321433	-0.017927
C91	C	-0.261607	-0.303618	-0.015029
C92	C	-0.279490	-0.266345	-0.013572
C93	C	-0.256898	-0.247027	-0.010424
C94	C	-0.318218	-0.246886	-0.015019
C95	C	-0.339058	-0.264697	-0.017924
C96	C	-0.321165	-0.301975	-0.019376
C97	C	-0.567209	-0.321447	-0.017940
C98	C	-0.602960	-0.303637	-0.015038
C99	C	-0.620896	-0.266362	-0.013583
C100	C	-0.659659	-0.247050	-0.010436
C101	C	-0.603078	-0.246902	-0.015026
C102	C	-0.567327	-0.264714	-0.017926
C103	C	-0.549397	-0.301987	-0.019386
C104	C	-0.344002	-0.487913	-0.022529
C105	C	-0.361906	-0.454506	-0.025036
C106	C	-0.479732	-0.336689	-0.025036
C107	C	-0.510631	-0.321296	-0.022530
C108	C	-0.361775	-0.336683	-0.025031
C109	C	-0.343764	-0.321288	-0.022523
O110	O	0.327648	-0.266438	-0.009310
O111	O	0.236750	-0.220984	0.009240
O112	O	0.236728	-0.220975	-0.054762
O113	O	0.327669	-0.266447	0.054693
O114	O	0.236731	-0.168992	-0.054764
O115	O	0.236752	-0.169001	0.009238
O116	O	0.327650	-0.214455	-0.009312
Cu117	Cu	0.282201	-0.186982	-0.000037
Cu118	Cu	0.282198	-0.248457	-0.000034
O119	O	0.327671	-0.214464	0.054691
O120	O	-0.223916	0.337142	-0.009309
O121	O	-0.159914	0.227687	0.009240
O122	O	-0.223933	0.291697	-0.054762
O123	O	-0.159897	0.273132	0.054693
O124	O	-0.275917	0.291699	-0.054759
O125	O	-0.211898	0.227689	0.009243
O126	O	-0.275900	0.337144	-0.009306
Cu127	Cu	-0.248646	0.282417	-0.000032
Cu128	Cu	-0.187168	0.282414	-0.000034
O129	O	-0.211881	0.273134	0.054696
O130	O	-0.763120	0.337017	-0.496615
O131	O	-0.672205	0.227556	-0.451169
O132	O	-0.672200	0.291553	-0.451158
O133	O	-0.763125	0.273020	-0.496626
O134	O	-0.672212	0.291567	-0.503142
O135	O	-0.672217	0.227571	-0.503152
O136	O	-0.763131	0.337031	-0.548599
Cu137	Cu	-0.717675	0.282302	-0.530622
Cu138	Cu	-0.717661	0.282285	-0.469146
O139	O	-0.763136	0.273035	-0.548610
O140	O	-0.211537	-0.214544	-0.548600
O141	O	-0.275532	-0.169101	-0.503153
O142	O	-0.211525	-0.169103	-0.503142
O143	O	-0.275543	-0.214541	-0.548611
O144	O	-0.159531	-0.221099	-0.451159
O145	O	-0.223537	-0.221097	-0.451170
O146	O	-0.159542	-0.266539	-0.496616
Cu147	Cu	-0.186792	-0.248566	-0.469146
Cu148	Cu	-0.248282	-0.187075	-0.530623
O149	O	-0.223548	-0.266537	-0.496627
C150	C	0.005474	-0.412671	0.361573
C151	C	-0.013239	-0.393693	0.380471
C152	C	-0.051142	-0.356061	0.304974
C153	C	-0.069770	-0.337169	0.323958
C154	C	-0.051125	-0.356075	0.361574
C155	C	-0.013256	-0.393679	0.323957
C156	C	0.131728	-0.549161	0.396132
C157	C	0.167488	-0.587815	0.413946
C158	C	0.185435	-0.607213	0.451222
C159	C	0.224204	-0.649127	0.470536
C160	C	0.167621	-0.587953	0.470683
C161	C	0.131867	-0.549300	0.452871
C162	C	0.113920	-0.529904	0.415593
C163	C	-0.095907	-0.321539	0.453255
C164	C	-0.116614	-0.303729	0.471196
C165	C	-0.155350	-0.266453	0.451858
C166	C	-0.177808	-0.247142	0.471305
C167	C	-0.173376	-0.246984	0.414578
C168	C	-0.152666	-0.264790	0.396640
C169	C	-0.113930	-0.302071	0.415983
C170	C	-0.095991	-0.321467	0.168484
C171	C	-0.116718	-0.303646	0.129830
C172	C	-0.155454	-0.266368	0.110440
C173	C	-0.177930	-0.247043	0.068529
C174	C	-0.173463	-0.246914	0.129705
C175	C	-0.152736	-0.264738	0.168358
C176	C	-0.113997	-0.302014	0.187745
C177	C	0.075148	-0.487992	0.396280
C178	C	0.044243	-0.454583	0.380886
C179	C	-0.073615	-0.336738	0.263064
C180	C	-0.091527	-0.321335	0.229657
C181	C	-0.073580	-0.336767	0.381024
C182	C	-0.091478	-0.321377	0.396528
C183	C	-0.051348	-0.022759	-0.361628
C184	C	-0.069988	-0.041737	-0.380525
C185	C	0.005267	-0.079367	-0.305028
C186	C	-0.013459	-0.098259	-0.324010
C187	C	-0.051351	-0.079355	-0.361627
C188	C	-0.013456	-0.041749	-0.324012
C189	C	-0.096161	0.113732	-0.396193
C190	C	-0.116876	0.152386	-0.414008
C191	C	-0.155618	0.171783	-0.451284
C192	C	-0.178086	0.213697	-0.470600
C193	C	-0.173640	0.152522	-0.470744
C194	C	-0.152921	0.113869	-0.452930
C195	C	-0.114180	0.094474	-0.415653
C196	C	-0.153311	-0.113895	-0.453305
C197	C	-0.174156	-0.131705	-0.471244
C198	C	-0.156269	-0.168981	-0.451905
C199	C	-0.178869	-0.188293	-0.471350
C200	C	-0.117531	-0.188449	-0.414624
C201	C	-0.096683	-0.170643	-0.396688
C202	C	-0.114580	-0.133362	-0.416032
C203	C	0.131553	-0.113955	-0.168538
C204	C	0.167316	-0.131776	-0.129884
C205	C	0.185256	-0.169054	-0.110493
C206	C	0.224032	-0.188377	-0.068582
C207	C	0.167429	-0.188508	-0.129757
C208	C	0.131665	-0.170686	-0.168410
C209	C	0.113732	-0.133410	-0.187799
C210	C	-0.091718	0.052562	-0.396338
C211	C	-0.073813	0.019154	-0.380943
C212	C	0.044043	-0.098689	-0.263117
C213	C	0.074953	-0.114090	-0.229711
C214	C	-0.073955	-0.098664	-0.381075
C215	C	-0.091973	-0.114055	-0.396579
C216	C	0.615751	-0.356331	0.361555
C217	C	0.634388	-0.393949	0.380453
C218	C	0.559133	-0.356318	0.304956
C219	C	0.577855	-0.393937	0.323940
C220	C	0.615747	-0.412927	0.361556
C221	C	0.577859	-0.337426	0.323939
C222	C	0.660578	-0.264664	0.396115
C223	C	0.681297	-0.246729	0.413930
C224	C	0.720039	-0.266076	0.451206
C225	C	0.742510	-0.246634	0.470521
C226	C	0.738057	-0.303359	0.470667
C227	C	0.717335	-0.321289	0.452854
C228	C	0.678593	-0.301940	0.415577
C229	C	0.717696	-0.549430	0.453238
C230	C	0.738537	-0.588084	0.471179
C231	C	0.720647	-0.607470	0.451840
C232	C	0.743244	-0.649382	0.471287
C233	C	0.681909	-0.588197	0.414559
C234	C	0.661065	-0.549543	0.396622
C235	C	0.678965	-0.530161	0.415965
C236	C	0.432850	-0.264614	0.168466
C237	C	0.397087	-0.246667	0.129812
C238	C	0.379143	-0.266002	0.110422
C239	C	0.340367	-0.246547	0.068510
C240	C	0.396967	-0.303283	0.129687
C241	C	0.432731	-0.321228	0.168339
C242	C	0.450667	-0.301888	0.187727
C243	C	0.656128	-0.321387	0.396264
C244	C	0.638220	-0.336887	0.380869
C245	C	0.520357	-0.336861	0.263046
C246	C	0.489447	-0.321350	0.229639
C247	C	0.638347	-0.454839	0.381006
C248	C	0.656362	-0.488248	0.396511
C249	C	-0.441050	0.310594	-0.361614
C250	C	-0.422336	0.310859	-0.380513
C251	C	-0.384437	0.310590	-0.305018
C252	C	-0.365809	0.310854	-0.324002
C253	C	-0.384451	0.310592	-0.361617
C254	C	-0.422322	0.310857	-0.324000
C255	C	-0.567299	0.300354	-0.396169
C256	C	-0.603059	0.297459	-0.413981
C257	C	-0.621003	0.296007	-0.451256
C258	C	-0.659771	0.292861	-0.470569
C259	C	-0.603189	0.297453	-0.470717
C260	C	-0.567436	0.300353	-0.452906
C261	C	-0.549491	0.301804	-0.415630
C262	C	-0.339666	0.300346	-0.453297
C263	C	-0.318959	0.297449	-0.471238
C264	C	-0.280225	0.295990	-0.451901
C265	C	-0.257766	0.292843	-0.471347
C266	C	-0.262200	0.297434	-0.414622
C267	C	-0.282911	0.300338	-0.396684
C268	C	-0.321646	0.301792	-0.416026
C269	C	-0.339593	0.300337	-0.168531
C270	C	-0.318868	0.297432	-0.129877
C271	C	-0.280133	0.295975	-0.110489
C272	C	-0.257658	0.292824	-0.068579
C273	C	-0.262123	0.297420	-0.129754
C274	C	-0.282849	0.300322	-0.168406
C275	C	-0.321587	0.301784	-0.187792
C276	C	-0.510721	0.304945	-0.396319
C277	C	-0.479818	0.307450	-0.380926
C278	C	-0.361965	0.307441	-0.263109
C279	C	-0.344055	0.304932	-0.229703
C280	C	-0.361996	0.307445	-0.381067
C281	C	-0.344098	0.304937	-0.396571
O282	O	-0.275837	0.336984	-0.548645
O283	O	-0.211821	0.227523	-0.503195
O284	O	-0.275818	0.291519	-0.503189
O285	O	-0.211841	0.272988	-0.548651
O286	O	-0.223815	0.291508	-0.451205
O287	O	-0.159819	0.227512	-0.451211
O288	O	-0.223835	0.336973	-0.496661
Cu289	Cu	-0.187079	0.282241	-0.469189
Cu290	Cu	-0.248578	0.282254	-0.530667
O291	O	-0.159839	0.272977	-0.496667
C292	C	-0.051118	0.254238	0.361551
C293	C	-0.013234	0.253972	0.380447
C294	C	-0.051133	0.254241	0.304952
C295	C	-0.013249	0.253975	0.323933
C296	C	0.005480	0.254238	0.361548
C297	C	-0.069760	0.253976	0.323936
C298	C	-0.153033	0.264484	0.396117
C299	C	-0.173865	0.267381	0.413933
C300	C	-0.155970	0.268833	0.451207
C301	C	-0.178561	0.271980	0.470523
C302	C	-0.117239	0.267385	0.470666
C303	C	-0.096407	0.264484	0.452852
C304	C	-0.114306	0.263033	0.415576
C305	C	0.131741	0.264479	0.453220
C306	C	0.167499	0.267375	0.471157
C307	C	0.185429	0.268832	0.451818
C308	C	0.224196	0.271978	0.471261
C309	C	0.167600	0.267388	0.414538
C310	C	0.131848	0.264485	0.396604
C311	C	0.113919	0.263033	0.415949
C312	C	-0.153094	0.264496	0.168468
C313	C	-0.173945	0.267400	0.129814
C314	C	-0.156065	0.268856	0.110423
C315	C	-0.178672	0.272007	0.068513
C316	C	-0.117337	0.267410	0.129686
C317	C	-0.096490	0.264507	0.168337
C318	C	-0.114370	0.263047	0.187726
C319	C	-0.091715	0.259891	0.396262
C320	C	-0.073708	0.257384	0.380866
C321	C	-0.073740	0.257390	0.263043
C322	C	-0.091760	0.259899	0.229637
C323	C	0.044246	0.257383	0.380995
C324	C	0.075149	0.259889	0.396497
H325	H	-0.167712	0.098134	0.019060
C326	C	0.007935	-0.414290	0.422222
H327	H	0.033221	-0.439461	0.430806
H328	H	0.016491	-0.400526	0.437937
H329	H	-0.012846	-0.415594	0.423678
H330	H	0.002409	-0.408916	0.308717
H331	H	-0.617682	-0.216551	-0.013840
C332	C	0.112136	-0.073238	0.019454
H333	H	0.088275	-0.065324	0.021388
H334	H	0.134305	-0.072692	0.041122
H335	H	0.101732	-0.056402	-0.003170
H336	H	-0.552693	0.301537	-0.365818
H337	H	-0.370896	-0.083572	-0.184297
H338	H	0.182012	0.268552	0.501509
H339	H	-0.335251	-0.408856	-0.028862
H340	H	-0.205023	-0.116417	0.013800
C341	C	-0.096784	-0.325140	0.512202
H342	H	-0.114662	-0.309193	0.520117
H343	H	-0.095732	-0.347856	0.512761
H344	H	-0.067722	-0.331574	0.529030
C345	C	0.112061	-0.192087	-0.189599
H346	H	0.127870	-0.216842	-0.172517
H347	H	0.081837	-0.178178	-0.198809
H348	H	0.114392	-0.194453	-0.210541
H349	H	0.181989	-0.603493	0.398098
C350	C	-0.338444	-0.110351	-0.108673
H351	H	-0.320556	-0.126306	-0.082878
H352	H	-0.339487	-0.087639	-0.109163
H353	H	-0.367507	-0.103912	-0.120902
C354	C	-0.547478	-0.362449	-0.019536
H355	H	-0.523637	-0.370269	-0.021473
H356	H	-0.537028	-0.379326	0.003084
H357	H	-0.569596	-0.363045	-0.041209
H358	H	0.182040	-0.218863	-0.113968
C359	C	-0.622404	0.173611	-0.392565
H360	H	-0.606603	0.156522	-0.367818
H361	H	-0.620071	0.194553	-0.390191
H362	H	-0.652632	0.182822	-0.406481
H363	H	-0.371089	-0.533304	-0.019123
C364	C	-0.172586	-0.073225	0.019472
H365	H	-0.198620	-0.064273	0.018189
H366	H	-0.151671	-0.073195	0.042747
H367	H	-0.179698	-0.056909	-0.001545
C368	C	-0.096906	-0.325044	0.108641
H369	H	-0.070865	-0.349795	0.125725
H370	H	-0.117816	-0.327410	0.087698
H371	H	-0.089806	-0.311128	0.099435
C372	C	-0.110952	-0.295415	0.303371
H373	H	-0.119428	-0.286823	0.278202
H374	H	-0.134492	-0.293956	0.302070
H375	H	-0.104338	-0.279705	0.317142
H376	H	-0.205697	-0.115851	-0.501596
H377	H	-0.552449	0.097982	-0.365807
C378	C	-0.263090	0.301930	-0.355683
H379	H	-0.280974	0.303870	-0.347772
H380	H	-0.234027	0.279309	-0.338848
H381	H	-0.262049	0.323602	-0.355137
C382	C	-0.262767	-0.362432	-0.019529
H383	H	-0.236723	-0.371468	-0.018256
H384	H	-0.255707	-0.378705	0.001483
H385	H	-0.283733	-0.362416	-0.042809
C386	C	0.112000	-0.527822	0.355135
H387	H	0.088153	-0.502043	0.347313
H388	H	0.134118	-0.528265	0.354548
H389	H	0.101550	-0.539989	0.338252
H390	H	-0.204913	-0.216630	0.398834
C391	C	-0.338649	-0.608929	-0.013448
H392	H	-0.364679	-0.591849	-0.014725
H393	H	-0.345759	-0.618136	-0.034460
H394	H	-0.317731	-0.629874	0.009832
C395	C	-0.053381	-0.192153	0.019569
H396	H	-0.043609	-0.176141	0.021524
H397	H	-0.031150	-0.214845	0.041264
H398	H	-0.059057	-0.198620	-0.003024
C399	C	-0.097559	0.268985	0.511663
H400	H	-0.115515	0.270924	0.519485
H401	H	-0.068504	0.246367	0.528542
H402	H	-0.096525	0.290660	0.512253
C403	C	-0.443413	-0.414203	-0.029021
H404	H	-0.468699	-0.397500	-0.029139
H405	H	-0.451966	-0.421367	-0.051337
H406	H	-0.422627	-0.436441	-0.006932
C407	C	0.187209	-0.110904	0.013359
H408	H	0.211054	-0.126926	0.011428
H409	H	0.165090	-0.088190	-0.008311
H410	H	0.197660	-0.104479	0.035981
C411	C	0.187361	-0.609290	0.511682
H412	H	0.211204	-0.635070	0.519503
H413	H	0.197808	-0.597120	0.528559
H414	H	0.165245	-0.608850	0.512276
H415	H	-0.167343	-0.248935	0.366288
H416	H	0.562211	-0.306527	0.308689
H417	H	-0.333637	0.296272	-0.501590
C418	C	0.112272	-0.528118	0.474276
H419	H	0.128078	-0.545206	0.499025
H420	H	0.114603	-0.507175	0.476645
H421	H	0.082045	-0.518911	0.460363
H422	H	-0.064367	-0.351892	0.469008
C423	C	0.007825	-0.020972	0.028962
H424	H	0.033112	-0.037673	0.029079
H425	H	-0.012960	0.001271	0.006881
H426	H	0.016388	-0.013818	0.051286
H427	H	-0.437919	-0.306197	-0.028868
C428	C	-0.262998	-0.528018	-0.019519
H429	H	-0.236963	-0.545100	-0.018234
H430	H	-0.283911	-0.507071	-0.042794
H431	H	-0.255887	-0.518817	0.001499
H432	H	-0.167402	-0.248895	0.184041
H433	H	-0.230356	-0.218838	-0.113951
C434	C	-0.547586	0.092732	-0.474293
H435	H	-0.563395	0.109819	-0.499044
H436	H	-0.517360	0.083519	-0.460382
H437	H	-0.549925	0.071792	-0.476666
H438	H	-0.267950	-0.186506	-0.184073
H439	H	-0.267709	-0.186746	-0.365807
H440	H	-0.167656	0.263308	0.184252
H441	H	-0.205400	0.268560	0.398086
C442	C	-0.216071	-0.205908	0.108380
H443	H	-0.225835	-0.198077	0.082602
H444	H	-0.238339	-0.205311	0.108821
H445	H	-0.210320	-0.189037	0.120558
H446	H	-0.333533	0.296254	-0.114193
H447	H	0.181828	-0.115932	-0.114202
H448	H	-0.230073	-0.319465	-0.013846
H449	H	-0.230560	-0.603648	-0.013845
C450	C	-0.097845	-0.229455	-0.393351
H451	H	-0.071788	-0.238500	-0.368583
H452	H	-0.118798	-0.229450	-0.391030
H453	H	-0.090797	-0.245717	-0.407315
C454	C	-0.622559	-0.325042	-0.013453
H455	H	-0.606762	-0.349790	-0.014741
H456	H	-0.620221	-0.327418	0.009821
H457	H	-0.652788	-0.311126	-0.034471
C458	C	0.112025	0.262875	0.474499
H459	H	0.127767	0.264145	0.499270
H460	H	0.081794	0.283889	0.460540
H461	H	0.114359	0.239595	0.476821
C462	C	0.618459	-0.528346	0.355618
H463	H	0.610788	-0.545426	0.346666
H464	H	0.595149	-0.507402	0.355581
H465	H	0.623159	-0.519138	0.339305
C466	C	0.187320	0.268987	0.393263
H467	H	0.171585	0.267708	0.368495
H468	H	0.184989	0.292263	0.390940
H469	H	0.217553	0.247970	0.407225
H470	H	-0.617544	0.168368	-0.501052
C471	C	-0.218847	-0.229926	-0.392563
H472	H	-0.211171	-0.238879	-0.367812
H473	H	-0.223545	-0.246238	-0.406472
H474	H	-0.195536	-0.229955	-0.390192
H475	H	-0.102200	0.168065	-0.398161
C476	C	-0.053382	-0.362471	0.189808
H477	H	-0.045628	-0.371507	0.172799
H478	H	-0.030110	-0.362466	0.210756
H479	H	-0.058127	-0.378741	0.199021
C480	C	0.377481	-0.205660	0.108624
H481	H	0.393284	-0.196712	0.125708
H482	H	0.379806	-0.205617	0.087680
H483	H	0.347255	-0.189347	0.099418
H484	H	0.002215	-0.129170	-0.308769
H485	H	0.562181	-0.409172	0.308698
C486	C	-0.547842	0.301942	-0.474312
H487	H	-0.563647	0.300659	-0.499061
H488	H	-0.550175	0.325217	-0.476683
H489	H	-0.517615	0.280923	-0.460399
C490	C	-0.337753	-0.111006	-0.511703
H491	H	-0.319796	-0.127023	-0.519523
H492	H	-0.366808	-0.104569	-0.528581
H493	H	-0.338788	-0.088297	-0.512294
H494	H	0.664878	-0.409194	0.411361
H495	H	-0.205510	0.168252	0.013800
H496	H	-0.102807	0.168478	0.013783
H497	H	-0.100483	-0.026487	-0.411430
H498	H	-0.064872	0.263303	0.468698
C499	C	0.737157	-0.362297	0.474258
H500	H	0.763200	-0.371254	0.499007
H501	H	0.716253	-0.362336	0.476628
H502	H	0.744256	-0.378604	0.460345
H503	H	-0.370443	-0.084002	-0.468740
H504	H	-0.332782	-0.216535	-0.013838
H505	H	0.002214	-0.026510	-0.308772
H506	H	0.116961	-0.083607	-0.184326
C507	C	-0.172991	-0.072893	-0.474584
H508	H	-0.199042	-0.063851	-0.499356
H509	H	-0.180040	-0.056626	-0.460626
H510	H	-0.152031	-0.072907	-0.476903
C511	C	-0.219598	0.295837	-0.393350
H512	H	-0.211834	0.297117	-0.368583
H513	H	-0.196329	0.272561	-0.391028
H514	H	-0.224353	0.316854	-0.407315
C515	C	-0.096944	-0.229781	0.013387
H516	H	-0.070916	-0.238729	0.014661
H517	H	-0.089832	-0.246104	0.034397
H518	H	-0.117866	-0.229801	-0.009894
H519	H	-0.064999	0.098354	0.019048
H520	H	-0.268181	0.301496	-0.184089
H521	H	-0.371137	0.301529	-0.184314
H522	H	-0.438015	0.311290	-0.411420
C523	C	-0.381652	-0.243295	-0.019514
H524	H	-0.389319	-0.218546	-0.018229
H525	H	-0.404970	-0.240923	-0.042789
H526	H	-0.376940	-0.257211	0.001503
C527	C	0.662227	-0.609517	0.393283
H528	H	0.636173	-0.592504	0.368513
H529	H	0.683185	-0.630463	0.390965
H530	H	0.655176	-0.618735	0.407242
C531	C	-0.547724	-0.243310	-0.019507
H532	H	-0.563527	-0.218560	-0.018226
H533	H	-0.517498	-0.257226	0.001509
H534	H	-0.550062	-0.240934	-0.042783
H535	H	-0.064615	0.097943	-0.365840
C536	C	-0.216253	0.173858	-0.511743
H537	H	-0.226014	0.199638	-0.519565
H538	H	-0.210518	0.161687	-0.528620
H539	H	-0.238521	0.173417	-0.512336
H540	H	-0.064956	0.263328	0.184019
C541	C	-0.111022	-0.020968	0.028972
H542	H	-0.119493	-0.037666	0.029088
H543	H	-0.104402	-0.013813	0.051294
H544	H	-0.134573	0.001276	0.006890
C545	C	0.452583	-0.243342	0.189791
H546	H	0.436851	-0.218571	0.172781
H547	H	0.450260	-0.241025	0.210738
H548	H	0.482814	-0.257306	0.199004
H549	H	0.666624	-0.216374	0.398081
C550	C	0.617962	-0.243378	0.355115
H551	H	0.610196	-0.218605	0.346078
H552	H	0.622699	-0.257333	0.338845
H553	H	0.594696	-0.241058	0.355128
H554	H	0.117336	0.263308	0.366252
C555	C	0.452331	-0.362233	0.189529
H556	H	0.436521	-0.371177	0.172448
H557	H	0.482556	-0.378550	0.198739
H558	H	0.450000	-0.362267	0.210472
H559	H	-0.102780	0.268596	0.113895
H560	H	-0.065142	-0.186496	-0.366336
H561	H	0.002322	-0.128976	0.028815
C562	C	-0.172742	0.092685	-0.474336
H563	H	-0.198783	0.109772	-0.499086
H564	H	-0.151836	0.071743	-0.476703
H565	H	-0.179845	0.083476	-0.460425
C566	C	0.780669	-0.324638	0.511667
H567	H	0.790432	-0.308621	0.519488
H568	H	0.774932	-0.331072	0.528543
H569	H	0.802937	-0.347349	0.512262
H570	H	0.732272	-0.533651	0.468991
C571	C	0.781147	-0.609283	0.512181
H572	H	0.790994	-0.635080	0.520095
H573	H	0.803366	-0.608791	0.512731
H574	H	0.775363	-0.597060	0.529015
C575	C	0.186960	-0.229798	0.013383
H576	H	0.171163	-0.238749	0.014672
H577	H	0.184620	-0.229833	-0.009892
H578	H	0.217190	-0.246113	0.034400
C579	C	-0.219519	0.295823	-0.108431
H580	H	-0.209757	0.293892	-0.082654
H581	H	-0.197248	0.274153	-0.108870
H582	H	-0.225275	0.318446	-0.120613
C583	C	0.377246	-0.324561	0.108355
H584	H	0.353396	-0.308537	0.082576
H585	H	0.399368	-0.347267	0.108803
H586	H	0.366803	-0.331001	0.120524
H587	H	-0.335322	0.311275	-0.308760
C588	C	-0.443474	0.311425	-0.303407
H589	H	-0.468763	0.311542	-0.320106
H590	H	-0.422683	0.289340	-0.281167
H591	H	-0.452029	0.333746	-0.296248
C592	C	-0.622646	0.295863	-0.392572
H593	H	-0.606835	0.297138	-0.367821
H594	H	-0.652873	0.316876	-0.406480
H595	H	-0.620306	0.272583	-0.390201
C596	C	-0.622927	0.295855	-0.511715
H597	H	-0.646770	0.293918	-0.519535
H598	H	-0.633375	0.318474	-0.528594
H599	H	-0.600811	0.274180	-0.512308
H600	H	-0.371206	0.301532	-0.469049
C601	C	0.007909	0.253402	0.303345
H602	H	-0.008681	0.253286	0.278176
H603	H	0.008065	0.275483	0.302041
H604	H	0.037395	0.231077	0.317115
C605	C	0.007934	0.253406	0.422193
H606	H	-0.008651	0.253296	0.430778
H607	H	0.037422	0.231088	0.437915
H608	H	0.008081	0.275494	0.423638
H609	H	-0.100251	0.253561	0.308696
C610	C	-0.216543	0.268992	0.108628
H611	H	-0.224203	0.267705	0.125713
H612	H	-0.239861	0.292269	0.087684
H613	H	-0.211841	0.247976	0.099423
C614	C	-0.172718	0.262883	0.355118
H615	H	-0.198763	0.264155	0.346083
H616	H	-0.179779	0.283896	0.338846
H617	H	-0.151756	0.239603	0.355134
H618	H	-0.437760	-0.026446	-0.411399
C619	C	0.111886	-0.192129	0.019473
H620	H	0.127611	-0.216897	0.018191
H621	H	0.114221	-0.194454	0.042749
H622	H	0.081651	-0.178162	-0.001543
H623	H	-0.437736	-0.026475	-0.308739
C624	C	-0.324381	-0.139977	-0.303396
H625	H	-0.315904	-0.148567	-0.278225
H626	H	-0.330989	-0.155688	-0.317165
H627	H	-0.300840	-0.141431	-0.302090
