data_functionalizedCrystal
_audit_creation_method	'MofGen! by Chris Wilmer'
_symmetry_space_group_name_H-M	'P1'
_symmetry_Int_Tables_number	1
_symmetry_cell_setting	triclinic
loop_
_symmetry_equiv_pos_as_xyz
  x,y,z
_cell_length_a	12.645330
_cell_length_b	19.805407
_cell_length_c	19.805399
_cell_angle_alpha	90.024201
_cell_angle_beta	90.021721
_cell_angle_gamma	90.016939
loop_
_atom_site_label
_atom_site_type_symbol
_atom_site_fract_x
_atom_site_fract_y
_atom_site_fract_z
Zn1	Zn	-0.422085	1.034777	0.382831
Zn2	Zn	0.077915	1.534777	0.882831
Zn3	Zn	-0.599363	1.034709	0.269654
Zn4	Zn	-0.099363	1.534709	0.769654
Zn5	Zn	-0.422112	0.921591	0.269646
Zn6	Zn	0.077888	1.421591	0.769646
Zn7	Zn	-0.599305	0.921572	0.382792
Zn8	Zn	-0.099305	1.421572	0.882792
O9	O	-0.510716	0.978162	0.326231
O10	O	-0.010716	1.478162	0.826231
O11	O	-0.445615	1.129484	0.367837
O12	O	0.054385	1.629484	0.867837
O13	O	-0.575886	1.019683	0.174936
O14	O	-0.075886	1.519683	0.674936
O15	O	-0.273761	0.936642	0.284673
O16	O	0.226239	1.436642	0.784673
O17	O	-0.575860	1.129434	0.284687
O18	O	-0.075860	1.629434	0.784687
O19	O	-0.273741	1.019799	0.367830
O20	O	0.226259	1.519799	0.867830
O21	O	-0.445661	0.936576	0.174931
O22	O	0.054339	1.436576	0.674931
O23	O	-0.445604	0.826872	0.284636
O24	O	0.054396	1.326872	0.784636
O25	O	-0.575760	0.936609	0.477514
O26	O	-0.075760	1.436609	0.977514
O27	O	-0.575786	0.826858	0.367763
O28	O	-0.075786	1.326858	0.867763
O29	O	-0.445558	1.019780	0.477542
O30	O	0.054442	1.519780	0.977542
O31	O	-0.747703	1.019664	0.284649
O32	O	-0.247703	1.519664	0.784649
O33	O	-0.747660	0.936543	0.367771
O34	O	-0.247660	1.436543	0.867771
C35	C	-0.510692	0.802306	0.326195
C36	C	-0.010692	1.302306	0.826195
C37	C	-0.510708	0.727074	0.326195
C38	C	-0.010708	1.227074	0.826195
C39	C	-0.786146	0.978113	0.326221
C40	C	-0.286146	1.478113	0.826221
C41	C	-0.903976	0.978154	0.326240
C42	C	-0.403976	1.478154	0.826240
C43	C	-0.578630	0.265294	0.369491
C44	C	-0.078630	0.765294	0.869491
C45	C	-0.578628	0.335982	0.369476
C46	C	-0.078628	0.835982	0.869476
C47	C	-0.510742	0.371313	0.326257
C48	C	-0.010742	0.871313	0.826257
C49	C	-0.442861	0.335951	0.283045
C50	C	0.057139	0.835951	0.783045
C51	C	-0.442869	0.265264	0.283056
C52	C	0.057131	0.765264	0.783056
C53	C	-0.442828	0.621024	0.282997
C54	C	0.057172	1.121024	0.782997
C55	C	-0.442823	0.691716	0.282991
C56	C	0.057177	1.191716	0.782991
C57	C	-0.578588	0.691742	0.369417
C58	C	-0.078588	1.191742	0.869417
C59	C	-0.578596	0.621055	0.369429
C60	C	-0.078596	1.121055	0.869429
C61	C	-0.510719	0.585700	0.326214
C62	C	-0.010719	1.085700	0.826214
C63	C	-0.510723	0.509051	0.326229
C64	C	-0.010723	1.009051	0.826229
C65	C	-0.510732	0.447960	0.326245
C66	C	-0.010732	0.947960	0.826245
C67	C	-1.071557	0.926078	0.378693
C68	C	-0.571557	1.426078	0.878693
C69	C	-0.948998	0.925811	0.378524
C70	C	-0.448998	1.425811	0.878524
C71	C	-0.948564	0.958847	0.254906
C72	C	-0.448564	1.458847	0.754906
C73	C	-1.071162	0.958530	0.255224
C74	C	-0.571162	1.458530	0.755224
C75	C	-1.071068	1.049854	0.344542
C76	C	-0.571068	1.549854	0.844542
C77	C	-0.948462	1.049415	0.346102
C78	C	-0.448462	1.549415	0.846102
C79	C	-0.234211	0.978230	0.326255
C80	C	0.265789	1.478230	0.826255
C81	C	-0.116381	0.978259	0.326265
C82	C	0.383619	1.478259	0.826265
C83	C	-0.510650	0.978200	0.502774
C84	C	-0.010650	1.478200	1.002774
C85	C	-0.510621	0.978216	0.578006
C86	C	-0.010621	1.478216	1.078006
C87	C	-0.510741	1.154705	0.326267
C88	C	-0.010741	1.654705	0.826267
C89	C	-0.510752	1.229937	0.326283
C90	C	-0.010752	1.729937	0.826283
C91	C	-0.510706	0.978163	0.150375
C92	C	-0.010706	1.478163	0.650375
C93	C	-0.510436	0.978278	0.075143
C94	C	-0.010436	1.478278	0.575143
C95	C	-0.442821	1.021524	0.613366
C96	C	0.057179	1.521524	1.113366
C97	C	-0.442791	1.021531	0.684054
C98	C	0.057209	1.521531	1.184054
C99	C	-0.510566	0.978233	0.719381
C100	C	-0.010566	1.478233	1.219381
C101	C	-0.578369	0.934920	0.684016
C102	C	-0.078369	1.434920	1.184016
C103	C	-0.578393	0.934910	0.613329
C104	C	-0.078393	1.434910	1.113329
C105	C	-0.578270	0.934959	0.969089
C106	C	-0.078270	1.434959	1.469089
C107	C	-0.578242	0.934973	1.039782
C108	C	-0.078242	1.434973	1.539782
C109	C	-0.442667	1.021579	1.039815
C110	C	0.057333	1.521579	1.539815
C111	C	-0.442692	1.021570	0.969128
C112	C	0.057308	1.521570	1.469128
C113	C	-0.510490	0.978255	0.933769
C114	C	-0.010490	1.478255	1.433769
C115	C	-0.510521	0.978247	0.857120
C116	C	-0.010521	1.478247	1.357120
C117	C	-0.510541	0.978244	0.796028
C118	C	-0.010541	1.478244	1.296028
H119	H	-0.633905	0.236533	0.404688
H120	H	-0.133905	0.736533	0.904688
Br121	Br	-0.350822	1.080341	0.732041
Br122	Br	0.149178	1.580341	1.232041
Br123	Br	-0.350651	1.080365	1.087806
Br124	Br	0.149349	1.580365	1.587806
Br125	Br	-0.670231	0.876208	1.087725
Br126	Br	-0.170231	1.376208	1.587725
Br127	Br	-0.670280	0.876172	0.921111
Br128	Br	-0.170280	1.376172	1.421111
Br129	Br	-0.670758	0.383964	0.428115
Br130	Br	-0.170758	0.883964	0.928115
Br131	Br	-0.900258	0.837344	0.358347
Br132	Br	-0.400258	1.337344	0.858347
H133	H	-0.633548	0.899664	0.712785
H134	H	-0.133548	1.399664	1.212785
H135	H	-0.633592	0.899638	0.584539
H136	H	-0.133592	1.399638	1.084539
Br137	Br	-0.670724	0.573110	0.428089
Br138	Br	-0.170724	1.073110	0.928089
H139	H	-0.918848	0.937890	0.431418
H140	H	-0.418848	1.437890	0.931418
Br141	Br	-0.897363	1.117631	0.287099
Br142	Br	-0.397363	1.617631	0.787099
Br143	Br	-0.899967	1.020185	0.188015
Br144	Br	-0.399967	1.520185	0.688015
Br145	Br	-0.670714	0.739728	0.428064
Br146	Br	-0.170714	1.239728	0.928064
Br147	Br	-1.119400	1.114655	0.280910
Br148	Br	-0.619400	1.614655	0.780910
H149	H	-1.099851	0.906193	0.239742
H150	H	-0.599851	1.406193	0.739742
Br151	Br	-0.350684	0.739665	0.224333
Br152	Br	0.149316	1.239665	0.724333
Br153	Br	-0.899888	1.073685	0.433603
Br154	Br	-0.399888	1.573685	0.933603
Br155	Br	-0.350734	0.383899	0.224385
Br156	Br	0.149266	0.883899	0.724385
Br157	Br	-0.350700	0.573051	0.224355
Br158	Br	0.149300	1.073051	0.724355
Br159	Br	-0.350844	1.080295	0.565429
Br160	Br	0.149156	1.580295	1.065429
H161	H	-0.387592	0.236477	0.247874
H162	H	0.112408	0.736477	0.747874
Br163	Br	-1.120588	0.946020	0.467145
Br164	Br	-0.620588	1.446020	0.967145
Br165	Br	-1.120595	1.019119	0.187893
Br166	Br	-0.620595	1.519119	0.687893
Br167	Br	-0.897547	0.872525	0.228633
Br168	Br	-0.397547	1.372525	0.728633
Br169	Br	-1.123084	0.838167	0.358787
Br170	Br	-0.623084	1.338167	0.858787
H171	H	-1.101917	1.067466	0.395675
H172	H	-0.601917	1.567466	0.895675
H173	H	-0.387506	1.056830	0.940368
H174	H	0.112494	1.556830	1.440368
